data_functionalizedCrystal
_audit_creation_method	'MofGen! by Chris Wilmer'
_symmetry_space_group_name_H-M	'P1'
_symmetry_Int_Tables_number	1
_symmetry_cell_setting	triclinic
loop_
_symmetry_equiv_pos_as_xyz
  x,y,z
_cell_length_a	16.974885
_cell_length_b	15.500227
_cell_length_c	16.992695
_cell_angle_alpha	93.021643
_cell_angle_beta	92.976847
_cell_angle_gamma	89.194589
loop_
_atom_site_label
_atom_site_type_symbol
_atom_site_fract_x
_atom_site_fract_y
_atom_site_fract_z
O1	O	1.055357	-0.001877	-0.099996
O2	O	1.555357	0.498123	0.400004
O3	O	0.826724	0.014117	-0.111920
O4	O	1.326724	0.514117	0.388080
O5	O	0.940124	0.006177	0.008186
O6	O	1.440124	0.506177	0.508186
O7	O	0.941958	0.006063	-0.220103
O8	O	1.441958	0.506063	0.279897
O9	O	0.933241	-0.137230	0.000927
O10	O	1.433241	0.362770	0.500927
O11	O	0.819841	-0.129289	-0.119180
O12	O	1.319841	0.370711	0.380820
O13	O	1.048474	-0.145284	-0.107256
O14	O	1.548474	0.354716	0.392744
Cu15	Cu	0.933529	-0.150381	-0.113881
Cu16	Cu	1.433529	0.349619	0.386119
Cu17	Cu	0.941669	0.019214	-0.105295
Cu18	Cu	1.441669	0.519214	0.394705
O19	O	0.935074	-0.137344	-0.227362
O20	O	1.435074	0.362656	0.272638
C21	C	0.793893	-0.055530	-0.114963
C22	C	1.293893	0.444470	0.385037
C23	C	0.706319	-0.049404	-0.113203
C24	C	1.206319	0.450596	0.386797
N25	N	0.927809	-0.269665	-0.119919
N26	N	1.427809	0.230335	0.380081
C27	C	0.213780	-0.006469	-0.102842
C28	C	0.713780	0.493531	0.397158
C29	C	0.296064	-0.012237	-0.104497
C30	C	0.796064	0.487763	0.395503
C31	C	0.333446	-0.093292	-0.109287
C32	C	0.833446	0.406708	0.390713
C33	C	0.288539	-0.168585	-0.112415
C34	C	0.788539	0.331415	0.387585
C35	C	0.206257	-0.162816	-0.110755
C36	C	0.706257	0.337184	0.389245
C37	C	0.579130	-0.118928	-0.114671
C38	C	1.079130	0.381072	0.385329
C39	C	0.661419	-0.124691	-0.116333
C40	C	1.161419	0.375309	0.383667
C41	C	0.668938	0.031658	-0.108413
C42	C	1.168938	0.531658	0.391587
C43	C	0.586653	0.037420	-0.106758
C44	C	1.086653	0.537420	0.393242
C45	C	0.541754	-0.037873	-0.109882
C46	C	1.041754	0.462127	0.390118
N47	N	0.417553	-0.099190	-0.110981
N48	N	0.917553	0.400810	0.389019
N49	N	0.457649	-0.031974	-0.108183
N50	N	0.957649	0.468026	0.391817
C51	C	0.975880	-0.318308	-0.069044
C52	C	1.475880	0.181692	0.430956
C53	C	0.971562	-0.408578	-0.073618
C54	C	1.471562	0.091422	0.426382
C55	C	0.919177	-0.450205	-0.129071
C56	C	1.419177	0.049795	0.370929
C57	C	0.871101	-0.401556	-0.179947
C58	C	1.371101	0.098444	0.320053
C59	C	0.875416	-0.311287	-0.175369
C60	C	1.375416	0.188713	0.324631
C61	C	0.903634	-0.722584	-0.145550
C62	C	1.403634	-0.222584	0.354450
C63	C	0.899324	-0.812859	-0.150126
C64	C	1.399324	-0.312859	0.349874
C65	C	0.999784	-0.819876	-0.043795
C66	C	1.499784	-0.319876	0.456205
C67	C	1.004097	-0.729605	-0.039225
C68	C	1.504097	-0.229605	0.460775
C69	C	0.956019	-0.680963	-0.090099
C70	C	1.456019	-0.180963	0.409901
C71	C	0.914764	-0.542476	-0.133749
C72	C	1.414764	-0.042476	0.366251
C73	C	0.960429	-0.588694	-0.085416
C74	C	1.460429	-0.088694	0.414584
C75	C	1.081306	-0.075635	-0.104213
C76	C	1.581306	0.424365	0.395787
C77	C	1.168880	-0.081756	-0.105973
C78	C	1.668880	0.418244	0.394027
C79	C	0.934324	-0.065361	0.033775
C80	C	1.434324	0.434639	0.533775
C81	C	0.927288	-0.064869	0.120836
C82	C	1.427288	0.435131	0.620836
N83	N	0.947395	0.138498	-0.099251
N84	N	1.447395	0.638498	0.400749
C85	C	0.940874	-0.065804	-0.252951
C86	C	1.440874	0.434196	0.247049
C87	C	0.947910	-0.066291	-0.340012
C88	C	1.447910	0.433709	0.159988
C89	C	0.995175	-0.069619	0.170911
C90	C	1.495175	0.430381	0.670911
C91	C	0.988560	-0.069148	0.252715
C92	C	1.488560	0.430852	0.752715
C93	C	0.914057	-0.063933	0.284440
C94	C	1.414057	0.436067	0.784440
C95	C	0.846165	-0.059180	0.234359
C96	C	1.346165	0.440820	0.734359
C97	C	0.852781	-0.059645	0.152558
C98	C	1.352781	0.440355	0.652558
C99	C	0.886635	-0.062002	0.528106
C100	C	1.386635	0.437998	1.028106
C101	C	0.880023	-0.061541	0.609913
C102	C	1.380023	0.438459	1.109913
C103	C	1.022419	-0.071507	0.628263
C104	C	1.522419	0.428493	1.128263
C105	C	1.029029	-0.071977	0.546459
C106	C	1.529029	0.428023	1.046459
C107	C	0.961137	-0.067219	0.496385
C108	C	1.461137	0.432781	0.996385
N109	N	0.907293	-0.063454	0.368056
N110	N	1.407293	0.436546	0.868056
N111	N	0.967902	-0.067692	0.412771
N112	N	1.467902	0.432308	0.912771
H113	H	0.183350	0.059536	-0.098947
H114	H	0.683350	0.559536	0.401053
H115	H	0.785503	-0.054928	0.260197
H116	H	1.285503	0.445072	0.760197
Cl117	Cl	1.088841	-0.076184	0.131036
Cl118	Cl	1.588841	0.423816	0.631036
Cl119	Cl	0.767434	-0.053669	0.089605
Cl120	Cl	1.267434	0.446331	0.589605
H121	H	1.010704	-0.448183	-0.032191
H122	H	1.510704	0.051817	0.467809
Cl123	Cl	0.149811	-0.257467	-0.114683
Cl124	Cl	0.649811	0.242533	0.385317
H125	H	0.831352	-0.058129	0.487344
H126	H	1.331352	0.441871	0.987344
H127	H	1.003077	-0.554798	-0.040264
H128	H	1.503077	-0.054798	0.459736
H129	H	0.864488	-0.682987	-0.186975
H130	H	1.364488	-0.182987	0.313025
H131	H	0.872113	-0.576376	-0.178901
H132	H	1.372113	-0.076376	0.321099
Cl133	Cl	1.122695	-0.078505	0.506583
Cl134	Cl	1.622695	0.421495	1.006583
H135	H	1.077693	-0.075379	0.669042
H136	H	1.577693	0.424621	1.169042
H137	H	1.018540	-0.284422	-0.023892
H138	H	1.518540	0.215578	0.476108
Cl139	Cl	0.833464	-0.865184	-0.219846
Cl140	Cl	1.333464	-0.365184	0.280154
H141	H	0.819350	-0.057308	0.635740
H142	H	1.319350	0.442692	1.135740
H143	H	0.828444	-0.435453	-0.225096
H144	H	1.328444	0.064547	0.274904
Cl145	Cl	0.352508	0.082415	-0.100557
Cl146	Cl	0.852508	0.582415	0.399443
Cl147	Cl	0.814979	-0.250137	-0.239327
Cl148	Cl	1.314979	0.249863	0.260673
H149	H	1.038927	-0.859488	-0.002374
H150	H	1.538927	-0.359488	0.497626
Cl151	Cl	1.069954	-0.677274	0.030487
Cl152	Cl	1.569954	-0.177274	0.530487
Cl153	Cl	1.073908	-0.075122	0.315663
Cl154	Cl	1.573908	0.424878	0.815663
H155	H	0.556223	0.103424	-0.102857
H156	H	1.056223	0.603424	0.397143
Cl157	Cl	0.725387	0.126306	-0.104479
Cl158	Cl	1.225387	0.626306	0.395521
H159	H	0.691851	-0.190699	-0.120239
H160	H	1.191851	0.309301	0.379761
Cl161	Cl	0.522695	-0.213582	-0.118620
Cl162	Cl	1.022695	0.286418	0.381380
H163	H	0.318982	-0.234582	-0.116310
H164	H	0.818982	0.265418	0.383690
