data_functionalizedCrystal
_audit_creation_method	'MofGen! by Chris Wilmer'
_symmetry_space_group_name_H-M	'P1'
_symmetry_Int_Tables_number	1
_symmetry_cell_setting	triclinic
loop_
_symmetry_equiv_pos_as_xyz
  x,y,z
_cell_length_a	16.974897
_cell_length_b	12.811415
_cell_length_c	15.455320
_cell_angle_alpha	92.732577
_cell_angle_beta	96.311073
_cell_angle_gamma	83.375521
loop_
_atom_site_label
_atom_site_type_symbol
_atom_site_fract_x
_atom_site_fract_y
_atom_site_fract_z
O1	O	1.057006	0.123875	0.155993
O2	O	0.826155	0.141842	0.141220
O3	O	0.946818	-0.019201	0.137009
O4	O	0.936343	0.284917	0.160204
O5	O	0.939946	-0.009995	-0.007010
O6	O	0.819283	0.151048	-0.002799
O7	O	1.050135	0.133081	0.011974
Cu8	Cu	0.934081	0.142905	-0.008563
Cu9	Cu	0.942208	0.132018	0.161757
O10	O	0.929472	0.294123	0.016185
C11	C	0.793158	0.145930	0.067097
C12	C	0.705076	0.144382	0.060800
C13	C	0.667433	0.138640	0.136340
C14	C	0.584668	0.137204	0.130411
C15	C	0.539549	0.141502	0.048941
C16	C	0.577197	0.147248	-0.026605
C17	C	0.659960	0.148692	-0.020675
C18	C	0.291624	0.137729	0.022787
C19	C	0.208857	0.136282	0.016862
C20	C	0.216333	0.126240	0.173879
C21	C	0.299098	0.127678	0.179801
C22	C	0.336738	0.133429	0.104256
N23	N	0.454951	0.140031	0.042878
N24	N	0.421334	0.134908	0.110320
C25	C	0.942584	-0.053502	0.061884
C26	C	0.940199	-0.169424	0.052601
C27	C	0.943194	-0.397279	0.192184
C28	C	0.940952	-0.506198	0.183466
C29	C	0.933469	-0.496182	0.026447
C30	C	0.935710	-0.387263	0.035165
C31	C	0.940574	-0.337816	0.118037
C32	C	0.942821	-0.228896	0.126754
C33	C	0.935332	-0.218881	-0.030264
C34	C	0.933090	-0.327800	-0.038982
C35	C	1.083131	0.128993	0.086099
C36	C	1.171214	0.130540	0.092402
C37	C	0.933705	0.328424	0.091312
C38	C	0.936091	0.444346	0.100601
N39	N	0.928371	0.150562	-0.128356
C40	C	0.896650	0.192751	-0.671268
C41	C	0.900986	0.186981	-0.580610
C42	C	0.956600	0.112816	-0.537136
C43	C	1.007876	0.044410	-0.584324
C44	C	1.003536	0.050176	-0.674981
C45	C	0.975307	0.087922	-0.266202
C46	C	0.979645	0.082163	-0.175538
C47	C	0.872754	0.224733	-0.171830
C48	C	0.868422	0.230497	-0.262488
C49	C	0.919695	0.162088	-0.309670
N50	N	0.961035	0.106918	-0.444469
N51	N	0.915256	0.167981	-0.402336
N52	N	0.947924	0.124353	0.281550
H53	H	0.322262	0.142405	-0.038728
Cl54	Cl	0.932046	-0.144121	-0.123483
H55	H	1.024936	0.021765	-0.140146
H56	H	1.045287	-0.005523	-0.713396
H57	H	0.823137	0.290889	-0.297883
H58	H	0.704164	0.135137	0.202681
H59	H	0.929502	-0.536461	-0.041023
Cl60	Cl	0.948938	-0.166735	0.230934
Cl61	Cl	0.537349	0.129986	0.225381
Cl62	Cl	0.926970	-0.389971	-0.143158
Cl63	Cl	0.808297	0.310725	-0.112513
Cl64	Cl	0.355814	0.122267	0.282225
Cl65	Cl	0.707282	0.155916	-0.115643
H66	H	0.851367	0.253149	-0.706658
H67	H	0.540454	0.150754	-0.092939
Cl68	Cl	0.169010	0.118999	0.268843
Cl69	Cl	0.944243	-0.580949	0.276685
H70	H	0.859234	0.242676	-0.542195
Cl71	Cl	0.949320	-0.335115	0.296363
H72	H	0.172119	0.139812	-0.049482
H73	H	1.053155	-0.015983	-0.548923
Cl74	Cl	1.039766	0.001927	-0.325509
