data_functionalizedCrystal
_audit_creation_method	'MofGen! by Chris Wilmer'
_symmetry_space_group_name_H-M	'P1'
_symmetry_Int_Tables_number	1
_symmetry_cell_setting	triclinic
loop_
_symmetry_equiv_pos_as_xyz
  x,y,z
_cell_length_a	18.101398
_cell_length_b	18.101395
_cell_length_c	18.101389
_cell_angle_alpha	89.983159
_cell_angle_beta	89.990255
_cell_angle_gamma	90.026661
loop_
_atom_site_label
_atom_site_type_symbol
_atom_site_fract_x
_atom_site_fract_y
_atom_site_fract_z
Zn1	Zn	1.132121	-0.294995	-0.418559
Zn2	Zn	1.132017	-0.418821	-0.294721
Zn3	Zn	1.008280	-0.294988	-0.294751
Zn4	Zn	1.008231	-0.418790	-0.418541
O5	O	1.070162	-0.356898	-0.356643
O6	O	1.235740	-0.311437	-0.402126
O7	O	1.115580	-0.402404	-0.191092
O8	O	1.024772	-0.191356	-0.311195
O9	O	1.235663	-0.402411	-0.311143
O10	O	1.115757	-0.191361	-0.402156
O11	O	1.024671	-0.311425	-0.191114
O12	O	0.904640	-0.311395	-0.311178
O13	O	1.024688	-0.402358	-0.522176
O14	O	0.904604	-0.402351	-0.402125
O15	O	1.115710	-0.311407	-0.522189
O16	O	1.115532	-0.522450	-0.311125
O17	O	1.024587	-0.522427	-0.402095
C18	C	0.877751	-0.356869	-0.356653
C19	C	0.795437	-0.356875	-0.356675
C20	C	0.496346	-0.356918	-0.356644
C21	C	0.527674	-0.414422	-0.413583
C22	C	0.613292	-0.414242	-0.413817
C23	C	0.644729	-0.356897	-0.356660
C24	C	0.613675	-0.278899	-0.377985
C25	C	0.528029	-0.279244	-0.378390
C26	C	0.527894	-0.376725	-0.278242
C27	C	0.613544	-0.378437	-0.278661
C28	C	0.728588	-0.356881	-0.356667
C29	C	0.412487	-0.356930	-0.356639
C30	C	1.070063	-0.549309	-0.356621
C31	C	1.070088	-0.631623	-0.356637
C32	C	1.070251	-0.930714	-0.356676
C33	C	1.013163	-0.899405	-0.414054
C34	C	1.012892	-0.813787	-0.413875
C35	C	1.070170	-0.782331	-0.356657
C36	C	1.049041	-0.813467	-0.278611
C37	C	1.048673	-0.899112	-0.278955
C38	C	1.148592	-0.899067	-0.376658
C39	C	1.148132	-0.813417	-0.378369
C40	C	1.070126	-0.698472	-0.356642
C41	C	1.070293	-1.014573	-0.356687
C42	C	1.263324	-0.356928	-0.356633
C43	C	1.345638	-0.356941	-0.356629
C44	C	1.070205	-0.356880	-0.549805
C45	C	1.070223	-0.356872	-0.632119
C46	C	1.070282	-0.163736	-0.356681
C47	C	1.070333	-0.081422	-0.356697
C48	C	1.070266	-0.356733	-0.931210
C49	C	1.012801	-0.413775	-0.899877
C50	C	1.012956	-0.414040	-0.814258
C51	C	1.070244	-0.356802	-0.782827
C52	C	1.148270	-0.377992	-0.813914
C53	C	1.147949	-0.378366	-0.899559
C54	C	1.050385	-0.278374	-0.899637
C55	C	1.048649	-0.278826	-0.813987
C56	C	1.070236	-0.356839	-0.698968
C57	C	1.070279	-0.356697	-1.015070
C58	C	1.070162	-0.356864	-0.164232
C59	C	1.070287	-0.356663	-0.081919
H60	H	0.507635	-0.334839	-0.235817
N61	N	1.102372	-0.786476	-0.220429
H62	H	1.127420	-0.830166	-0.196421
H63	H	1.140794	-0.753715	-0.244210
N64	N	0.499199	-0.397278	-0.490091
H65	H	0.519587	-0.434470	-0.526328
H66	H	0.443463	-0.399851	-0.490156
N67	N	0.640656	-0.220602	-0.324776
H68	H	0.620019	-0.170917	-0.339543
H69	H	0.623617	-0.233270	-0.273171
H70	H	1.191125	-0.919313	-0.334867
H71	H	0.507308	-0.234865	-0.338820
N72	N	1.206596	-0.325737	-0.927020
H73	H	1.243688	-0.353667	-0.957943
H74	H	1.182792	-0.285903	-0.957992
H75	H	1.026111	-0.792735	-0.471746
H76	H	0.992380	-0.792075	-0.261380
N77	N	1.101333	-0.926553	-0.220375
H78	H	1.101499	-0.982349	-0.220136
H79	H	1.152733	-0.907801	-0.231359
H80	H	1.167856	-0.920627	-0.432598
N81	N	1.169246	-0.786462	-0.454450
H82	H	1.128487	-0.754247	-0.474773
H83	H	1.216483	-0.756919	-0.451262
H84	H	0.991406	-0.919148	-0.262027
N85	N	0.499264	-0.450772	-0.252566
H86	H	0.520193	-0.462392	-0.202168
H87	H	0.443567	-0.449182	-0.249668
H88	H	0.955448	-0.920985	-0.400987
N89	N	1.207459	-0.785048	-0.327054
H90	H	1.184537	-0.751497	-0.288831
H91	H	1.232132	-0.828127	-0.301597
N92	N	1.030015	-0.490245	-0.928377
H93	H	0.992847	-0.526548	-0.907986
H94	H	1.027457	-0.490291	-0.984113
H95	H	0.508068	-0.262443	-0.435705
N96	N	0.936325	-0.396443	-0.786409
H97	H	0.902139	-0.388447	-0.829769
H98	H	0.917555	-0.438944	-0.755489
N99	N	1.030489	-0.926640	-0.490962
H100	H	1.075511	-0.959539	-0.489359
H101	H	0.987002	-0.955533	-0.510650
N102	N	0.935927	-0.396377	-0.927151
H103	H	0.934979	-0.398668	-0.982892
H104	H	0.899953	-0.433636	-0.906354
N105	N	1.030338	-0.490974	-0.787116
H106	H	1.037937	-0.524846	-0.830787
H107	H	1.076778	-0.489710	-0.756224
H108	H	1.092240	-0.235875	-0.919901
H109	H	1.087450	-0.234070	-0.792592
N110	N	1.170274	-0.454239	-0.926033
H111	H	1.180229	-0.487128	-0.882069
H112	H	1.129076	-0.476093	-0.956664
N113	N	0.935977	-0.786716	-0.396339
H114	H	0.902117	-0.830419	-0.388692
H115	H	0.937308	-0.755853	-0.349886
H116	H	1.192236	-0.337751	-0.793556
H117	H	1.165415	-0.434665	-0.792469
H118	H	0.994478	-0.259069	-0.921237
N119	N	0.972593	-0.257650	-0.787074
H120	H	0.952205	-0.298390	-0.754831
H121	H	0.975845	-0.210414	-0.757570
N122	N	0.642100	-0.256235	-0.453080
H123	H	0.675086	-0.296373	-0.473394
H124	H	0.599012	-0.248299	-0.487617
H125	H	0.507058	-0.472452	-0.400367
N126	N	0.641110	-0.490856	-0.396112
H127	H	0.597736	-0.525049	-0.388086
H128	H	0.672028	-0.509636	-0.438584
H129	H	0.633794	-0.401138	-0.471908
H130	H	0.634944	-0.339594	-0.233959
N131	N	0.640495	-0.454432	-0.257316
H132	H	0.672764	-0.474832	-0.298000
H133	H	0.669989	-0.451056	-0.210080
