data_functionalizedCrystal
_audit_creation_method	'MofGen! by Chris Wilmer'
_symmetry_space_group_name_H-M	'P1'
_symmetry_Int_Tables_number	1
_symmetry_cell_setting	triclinic
loop_
_symmetry_equiv_pos_as_xyz
  x,y,z
_cell_length_a	13.185408
_cell_length_b	19.188937
_cell_length_c	11.804673
_cell_angle_alpha	76.665117
_cell_angle_beta	106.074105
_cell_angle_gamma	112.439535
loop_
_atom_site_label
_atom_site_type_symbol
_atom_site_fract_x
_atom_site_fract_y
_atom_site_fract_z
O1	O	1.467406	0.173158	0.098923
O2	O	1.967406	0.673158	0.598923
O3	O	1.149579	0.102321	0.098948
O4	O	1.649579	0.602321	0.598948
O5	O	1.317658	0.241100	0.098924
O6	O	1.817658	0.741100	0.598924
O7	O	1.299327	0.034378	0.098947
O8	O	1.799327	0.534378	0.598947
O9	O	1.278450	0.258910	-0.099123
O10	O	1.778450	0.758910	0.400877
O11	O	1.110371	0.120130	-0.099098
O12	O	1.610371	0.620130	0.400902
O13	O	1.428198	0.190967	-0.099124
O14	O	1.928198	0.690967	0.400876
Cu15	Cu	1.265704	0.157175	-0.117194
Cu16	Cu	1.765704	0.657175	0.382806
Cu17	Cu	1.312073	0.136113	0.117019
Cu18	Cu	1.812073	0.636113	0.617019
O19	O	1.260119	0.052187	-0.099099
O20	O	1.760119	0.552187	0.400901
C21	C	1.089313	0.104044	-0.000072
C22	C	1.589313	0.604044	0.499928
C23	C	0.968153	0.082654	-0.000063
C24	C	1.468153	0.582654	0.499937
C25	C	1.297459	0.275905	-0.000100
C26	C	1.797459	0.775905	0.499900
C27	C	1.295673	0.353078	-0.000100
C28	C	1.795673	0.853078	0.499900
C29	C	0.897925	0.006497	-0.000051
C30	C	1.397925	0.506497	0.499949
C31	C	0.784085	-0.013600	-0.000060
C32	C	1.284085	0.486400	0.499940
C33	C	0.740465	0.042456	-0.000070
C34	C	1.240465	0.542456	0.499930
C35	C	0.810695	0.118614	-0.000073
C36	C	1.310695	0.618614	0.499927
C37	C	0.924544	0.138714	-0.000074
C38	C	1.424544	0.638714	0.499926
C39	C	0.767084	0.174673	-0.000092
C40	C	1.267084	0.674673	0.499908
C41	C	0.837314	0.250831	-0.000095
C42	C	1.337314	0.750831	0.499905
C43	C	0.951152	0.270927	-0.000095
C44	C	1.451152	0.770927	0.499905
C45	C	0.994772	0.214871	-0.000085
C46	C	1.494772	0.714871	0.499915
C47	C	0.653235	0.154572	-0.000091
C48	C	1.153235	0.654572	0.499909
C49	C	0.679854	0.286789	-0.000114
C50	C	1.179854	0.786789	0.499886
C51	C	0.793694	0.306887	-0.000105
C52	C	1.293694	0.806887	0.499895
C53	C	1.488465	0.189243	-0.000101
C54	C	1.988465	0.689243	0.499899
C55	C	1.609626	0.210632	-0.000102
C56	C	2.109626	0.710632	0.499898
N57	N	1.233100	0.171990	-0.281928
N58	N	1.733100	0.671990	0.218072
C59	C	1.261598	0.913681	-0.108037
C60	C	1.761598	1.413681	0.391963
C61	C	1.263263	0.841167	-0.108042
C62	C	1.763263	1.341167	0.391958
C63	C	1.285473	0.795195	-0.000088
C64	C	1.785473	1.295195	0.499912
C65	C	1.305992	0.821736	0.107880
C66	C	1.805992	1.321736	0.607880
C67	C	1.304315	0.894246	0.107882
C68	C	1.804315	1.394246	0.607882
N69	N	1.366124	0.690985	0.080262
N70	N	1.866124	1.190985	0.580262
N71	N	1.367718	0.622104	0.080252
N72	N	1.867718	1.122104	0.580252
C73	C	1.290525	0.576725	-0.000088
C74	C	1.790525	1.076725	0.499912
N75	N	1.211688	0.602834	-0.080437
N76	N	1.711688	1.102834	0.419563
N77	N	1.210098	0.671722	-0.080431
N78	N	1.710098	1.171722	0.419569
C79	C	1.287293	0.716569	-0.000078
C80	C	1.787293	1.216569	0.499922
C81	C	1.271805	0.471562	-0.108055
C82	C	1.771805	0.971562	0.391945
C83	C	1.273464	0.399045	-0.108056
C84	C	1.773464	0.899045	0.391944
C85	C	1.316205	0.379618	0.107870
C86	C	1.816205	0.879618	0.607870
C87	C	1.314534	0.452131	0.107867
C88	C	1.814534	0.952131	0.607867
C89	C	1.292339	0.498101	-0.000098
C90	C	1.792339	0.998101	0.499902
C91	C	1.280322	1.017384	-0.000078
C92	C	1.780322	1.517384	0.499922
C93	C	1.282120	0.940216	-0.000083
C94	C	1.782120	1.440216	0.499917
C95	C	1.154770	0.207570	-0.344256
C96	C	1.654770	0.707570	0.155744
C97	C	1.130085	0.218776	-0.468912
C98	C	1.630085	0.718776	0.031088
C99	C	1.183733	0.194410	-0.531252
C100	C	1.683733	0.694410	-0.031252
C101	C	1.262071	0.158834	-0.468924
C102	C	1.762071	0.658834	0.031076
C103	C	1.286752	0.147621	-0.344255
C104	C	1.786752	0.647621	0.155745
C105	C	1.315715	0.134461	-0.531252
C106	C	1.815715	0.634461	-0.031252
C107	C	1.394052	0.098885	-0.468924
C108	C	1.894052	0.598885	0.031076
C109	C	1.418730	0.087674	-0.344268
C110	C	1.918730	0.587674	0.155732
C111	C	1.365081	0.112041	-0.281927
C112	C	1.865081	0.612041	0.218073
C113	C	1.291034	0.145674	-0.655920
C114	C	1.791034	0.645674	-0.155920
C115	C	1.423016	0.085725	-0.655920
C116	C	1.923016	0.585725	-0.155920
C117	C	1.447701	0.074518	-0.531264
C118	C	1.947701	0.574518	-0.031264
N119	N	1.344686	0.121305	0.281752
N120	N	1.844686	0.621305	0.781752
H121	H	0.596064	0.092564	-0.000091
H122	H	1.096064	0.592564	0.499909
H123	H	0.850891	0.368895	-0.000107
H124	H	1.350891	0.868895	0.499893
H125	H	0.644350	0.332430	-0.000067
H126	H	1.144350	0.832430	0.499933
H127	H	0.647771	0.026088	-0.000078
H128	H	1.147771	0.526088	0.499922
Cl129	Cl	1.233683	0.971465	-0.243765
Cl130	Cl	1.733683	1.471465	0.256235
Cl131	Cl	1.087325	0.238189	-0.265880
Cl132	Cl	1.587325	0.738189	0.234120
H133	H	1.227251	0.174639	-0.706655
H134	H	1.727251	0.674639	-0.206655
H135	H	1.163630	0.203537	-0.632752
H136	H	1.663630	0.703537	-0.132752
H137	H	1.253723	0.508991	-0.195967
H138	H	1.753723	1.008991	0.304033
Cl139	Cl	1.031605	0.263495	-0.547258
Cl140	Cl	1.531605	0.763495	-0.047258
Cl141	Cl	1.490461	0.055088	-0.734281
Cl142	Cl	1.990461	0.555088	-0.234281
H143	H	0.726912	-0.075608	-0.000058
H144	H	1.226912	0.424392	0.499942
H145	H	0.933451	-0.039134	-0.000052
H146	H	1.433451	0.460866	0.499948
H147	H	1.385181	0.102922	-0.180422
H148	H	1.885181	0.602922	0.319578
Cl149	Cl	1.517175	0.042920	-0.265915
Cl150	Cl	2.017175	0.542920	0.234085
Cl151	Cl	1.340345	0.485494	0.243589
Cl152	Cl	1.840345	0.985494	0.743589
Cl153	Cl	1.137892	0.240133	-0.000066
Cl154	Cl	1.637892	0.740133	0.499934
H155	H	1.511484	0.045551	-0.480499
H156	H	2.011484	0.545551	0.019501
H157	H	1.246530	0.819552	-0.195954
H158	H	1.746530	1.319552	0.304046
H159	H	1.324072	0.784300	0.195778
H160	H	1.824072	1.284300	0.695778
H161	H	1.008328	0.332941	-0.000112
H162	H	1.508328	0.832941	0.499888
H163	H	1.321026	0.915848	0.195794
H164	H	1.821026	1.415848	0.695794
Cl165	Cl	1.247642	0.365682	-0.243783
Cl166	Cl	1.747642	0.865682	0.256217
H167	H	1.334276	0.342185	0.195768
H168	H	1.834276	0.842185	0.695768
