data_functionalizedCrystal
_audit_creation_method	'MofGen! by Chris Wilmer'
_symmetry_space_group_name_H-M	'P1'
_symmetry_Int_Tables_number	1
_symmetry_cell_setting	triclinic
loop_
_symmetry_equiv_pos_as_xyz
  x,y,z
_cell_length_a	18.101398
_cell_length_b	12.594516
_cell_length_c	18.101389
_cell_angle_alpha	89.979528
_cell_angle_beta	90.024327
_cell_angle_gamma	89.987139
loop_
_atom_site_label
_atom_site_type_symbol
_atom_site_fract_x
_atom_site_fract_y
_atom_site_fract_z
Zn1	Zn	1.132191	0.423988	0.418828
Zn2	Zn	1.132116	0.601956	0.294982
Zn3	Zn	1.008349	0.423977	0.294989
Zn4	Zn	1.008329	0.601910	0.418771
O5	O	1.070246	0.512958	0.356893
O6	O	1.235813	0.447620	0.402421
O7	O	1.115675	0.578361	0.191350
O8	O	1.024817	0.275033	0.311444
O9	O	1.235758	0.578372	0.311432
O10	O	1.115803	0.275041	0.402428
O11	O	1.024744	0.447601	0.191355
O12	O	0.904714	0.447557	0.311388
O13	O	1.024783	0.578294	0.522411
O14	O	0.904699	0.578283	0.402330
O15	O	1.115783	0.447575	0.522454
O16	O	1.115655	0.750896	0.311376
O17	O	1.024710	0.750862	0.402323
C18	C	0.877836	0.512915	0.356854
C19	C	0.795522	0.512922	0.356855
C20	C	1.070193	0.789499	0.356859
C21	C	1.070237	0.907804	0.356869
C22	C	0.496431	0.512988	0.356917
C23	C	0.527740	0.430327	0.299978
C24	C	0.613359	0.430549	0.299735
C25	C	0.644813	0.512954	0.356886
C26	C	0.613713	0.625071	0.335559
C27	C	0.528068	0.624611	0.335163
C28	C	0.528041	0.484507	0.435317
C29	C	0.613691	0.482010	0.434890
C30	C	0.728673	0.512942	0.356870
C31	C	0.412571	0.513008	0.356932
C32	C	1.119755	0.977037	0.307450
C33	C	1.137845	1.047759	0.375041
C34	C	1.052225	1.047881	0.289305
C35	C	1.088362	0.976968	0.424495
C36	C	1.002711	0.977084	0.338714
C37	C	1.020775	1.047774	0.406351
C38	C	1.263408	0.513002	0.356932
C39	C	1.345722	0.513021	0.356949
C40	C	1.070289	0.512931	0.550055
C41	C	1.070307	0.512919	0.632369
C42	C	1.070303	1.235337	0.356924
C43	C	1.070282	1.117032	0.356888
C44	C	1.070246	0.512908	0.164482
C45	C	1.070371	0.512620	0.082168
C46	C	1.070350	0.512720	0.931460
C47	C	1.012898	0.594703	0.900108
C48	C	1.013054	0.595083	0.814490
C49	C	1.070328	0.512819	0.783077
C50	C	1.148359	0.543275	0.814182
C51	C	1.148039	0.543813	0.899827
C52	C	1.050451	0.400099	0.899887
C53	C	1.048715	0.400749	0.814236
C54	C	1.070321	0.512873	0.699218
C55	C	1.070363	0.512668	1.015319
H56	H	0.634386	0.347409	0.313104
O57	O	0.500479	0.319848	0.317458
H58	H	0.468725	0.288664	0.269697
H59	H	1.165518	0.624728	0.792738
H60	H	1.161643	0.945977	0.265703
H61	H	1.036972	1.079030	0.232160
O62	O	0.976382	0.363346	0.928462
H63	H	0.952925	0.424948	0.965491
H64	H	0.978919	1.078638	0.448199
H65	H	0.955192	0.576024	0.793458
H66	H	0.633815	0.449376	0.241642
O67	O	1.213511	1.088891	0.395401
H68	H	1.228829	1.059253	0.451094
O69	O	0.640701	0.708841	0.388771
H70	H	0.617942	0.787274	0.372480
H71	H	1.103559	0.945951	0.481690
H72	H	0.991291	0.377782	0.793905
O73	O	1.100098	0.315534	0.785925
H74	H	1.142034	0.351891	0.749044
O75	O	1.105871	0.319179	0.926747
H76	H	1.147390	0.358911	0.962410
O77	O	0.499459	0.378096	0.461006
H78	H	0.462400	0.344319	0.418175
O79	O	0.936017	0.569713	0.927363
H80	H	0.935056	0.573372	0.988620
H81	H	1.192315	0.485439	0.793838
H82	H	1.025907	0.677672	0.921632
H83	H	0.945602	0.946015	0.323325
O84	O	1.030362	0.705687	0.787345
H85	H	1.038678	0.759104	0.835390
O86	O	0.642075	0.657641	0.260459
H87	H	0.623983	0.598719	0.218614
O88	O	0.499225	0.454992	0.223466
H89	H	0.462848	0.525867	0.225816
H90	H	1.164907	0.626141	0.919808
O91	O	1.206672	0.468175	0.927312
H92	H	1.235134	0.431380	0.879429
H93	H	0.508060	0.648767	0.277849
O94	O	0.640618	0.372724	0.456199
H95	H	0.701907	0.372518	0.458123
H96	H	0.507357	0.688284	0.374826
H97	H	0.635105	0.537830	0.479587
O98	O	0.501219	0.564244	0.491522
H99	H	0.465548	0.623874	0.463800
