data_functionalizedCrystal
_audit_creation_method	'MofGen! by Chris Wilmer'
_symmetry_space_group_name_H-M	'P1'
_symmetry_Int_Tables_number	1
_symmetry_cell_setting	triclinic
loop_
_symmetry_equiv_pos_as_xyz
  x,y,z
_cell_length_a	12.759400
_cell_length_b	12.645331
_cell_length_c	12.759393
_cell_angle_alpha	90.014940
_cell_angle_beta	90.031564
_cell_angle_gamma	90.013919
loop_
_atom_site_label
_atom_site_type_symbol
_atom_site_fract_x
_atom_site_fract_y
_atom_site_fract_z
Zn1	Zn	-0.418226	1.620745	0.593882
Zn2	Zn	-0.593945	1.620638	0.418202
Zn3	Zn	-0.418278	1.443462	0.418232
Zn4	Zn	-0.593861	1.443451	0.593854
O5	O	-0.506077	1.532074	0.506042
O6	O	-0.441549	1.769078	0.570576
O7	O	-0.570699	1.597096	0.271185
O8	O	-0.271250	1.467028	0.441556
O9	O	-0.570648	1.769000	0.441505
O10	O	-0.271212	1.597277	0.570605
O11	O	-0.441637	1.466925	0.271207
O12	O	-0.441556	1.295113	0.441530
O13	O	-0.570506	1.467009	0.740879
O14	O	-0.570556	1.295105	0.570559
O15	O	-0.441467	1.597266	0.740899
O16	O	-0.740955	1.597085	0.441478
O17	O	-0.740893	1.466906	0.570529
C18	C	-0.506054	1.256644	0.506045
C19	C	-0.506069	1.138814	0.506071
C20	C	-0.779045	1.532011	0.506020
C21	C	-0.895821	1.532081	0.506046
C22	C	-0.587668	0.971280	0.586820
C23	C	-0.587404	1.093840	0.587158
C24	C	-0.395409	1.094330	0.536323
C25	C	-0.395907	0.971732	0.536891
C26	C	-0.534238	0.971572	0.394815
C27	C	-0.536658	1.094178	0.395415
C28	C	-0.950681	1.599941	0.438924
C29	C	-1.060405	1.600006	0.438956
C30	C	-1.060401	1.464343	0.573237
C31	C	-0.950679	1.464284	0.573209
C32	C	-0.895823	1.667738	0.371761
C33	C	-0.950683	1.735602	0.304632
C34	C	-1.060407	1.735667	0.304665
C35	C	-1.115271	1.667868	0.371826
C36	C	-0.232044	1.532166	0.506087
C37	C	-0.115267	1.532205	0.506107
C38	C	-0.505971	1.532148	0.780076
C39	C	-0.505926	1.532180	0.896853
C40	C	-0.506102	1.808579	0.506040
C41	C	-0.506113	1.926409	0.506039
C42	C	-0.506107	1.532061	0.233075
C43	C	-0.505856	1.532235	0.116299
C44	C	-0.438730	1.600014	0.951727
C45	C	-0.438692	1.600039	1.061451
C46	C	-0.573056	1.464393	1.061417
C47	C	-0.573088	1.464363	0.951695
C48	C	-0.371568	1.667831	0.896885
C49	C	-0.304367	1.735672	0.951759
C50	C	-0.304329	1.735697	1.061483
C51	C	-0.371492	1.667881	1.116333
H52	H	-0.669464	1.123917	0.568198
O53	O	-0.638416	1.398629	0.898257
C54	C	-0.706303	1.458961	0.834793
H55	H	-0.669255	1.539309	0.818385
H56	H	-0.784156	1.470589	0.877049
C57	C	-0.770842	1.301937	0.750701
C58	C	-0.725334	1.400618	0.730542
H59	H	-0.782586	1.265948	0.686396
H60	H	-0.725108	1.261289	0.793460
H61	H	-0.835714	1.311641	0.785917
H62	H	-0.660458	1.390912	0.695338
H63	H	-0.771057	1.441263	0.687774
H64	H	-0.906012	1.409027	0.627867
O65	O	-0.685839	0.935912	0.564524
C66	C	-0.687483	0.824524	0.569135
H67	H	-0.620426	0.795647	0.620798
H68	H	-0.678049	0.790802	0.486808
C69	C	-0.874963	0.822877	0.552142
C70	C	-0.792609	0.787410	0.615602
H71	H	-0.939811	0.799982	0.580800
H72	H	-0.873856	0.897921	0.549031
H73	H	-0.867088	0.794772	0.483540
H74	H	-0.800478	0.815526	0.684198
H75	H	-0.793719	0.712370	0.618725
H76	H	-0.332964	0.942048	0.480753
O77	O	-0.565576	0.934500	0.684511
C78	C	-0.476761	0.868329	0.680167
H79	H	-0.428294	0.888803	0.607935
H80	H	-0.502931	0.782250	0.675463
C81	C	-0.469394	0.859522	0.868069
C82	C	-0.409861	0.884675	0.779356
H83	H	-0.428128	0.869600	0.929254
H84	H	-0.529232	0.904099	0.870996
H85	H	-0.491198	0.787790	0.864134
H86	H	-0.388068	0.956408	0.783286
H87	H	-0.350017	0.840110	0.776432
O88	O	-1.113647	1.398595	0.638617
C89	C	-1.086717	1.421673	0.743341
H90	H	-1.056484	1.506343	0.748706
H91	H	-1.023052	1.364787	0.770744
C92	C	-1.221275	1.305360	0.806878
C93	C	-1.184151	1.409355	0.813470
H94	H	-1.281375	1.297757	0.850140
H95	H	-1.239416	1.289808	0.736325
H96	H	-1.168212	1.257966	0.829713
H97	H	-1.237209	1.456745	0.790624
H98	H	-1.166021	1.424915	0.884022
H99	H	-0.906006	1.790808	0.249958
H100	H	-0.568790	1.123187	0.669571
H101	H	-0.474834	0.942552	0.334626
H102	H	-1.204616	1.667935	0.371855
O103	O	-0.239220	1.801503	0.898321
C104	C	-0.253640	1.786918	0.789709
H105	H	-0.334723	1.752171	0.774703
H106	H	-0.191329	1.730475	0.758587
C107	C	-0.144448	1.936844	0.751812
C108	C	-0.244039	1.894176	0.733380
H109	H	-0.138520	2.003004	0.717063
H110	H	-0.134729	1.946669	0.824985
H111	H	-0.092533	1.889798	0.725876
H112	H	-0.295951	1.941215	0.759327
H113	H	-0.253766	1.884361	0.660209
H114	H	-0.371593	1.667820	0.807542
O115	O	-0.470810	1.130749	0.319890
C116	C	-0.395315	1.197864	0.365659
H117	H	-0.387148	1.178223	0.452473
H118	H	-0.421088	1.283685	0.356514
C119	C	-0.299098	1.205899	0.204110
C120	C	-0.289061	1.181770	0.310735
H121	H	-0.233556	1.195977	0.170228
H122	H	-0.349963	1.160686	0.173272
H123	H	-0.320579	1.277416	0.196504
H124	H	-0.267593	1.110251	0.318340
H125	H	-0.238190	1.226971	0.341573
H126	H	-0.806481	1.667690	0.371724
H127	H	-0.371443	1.667895	1.205678
O128	O	-0.239017	1.801689	1.114627
C129	C	-0.179729	1.861515	1.042689
H130	H	-0.222790	1.865147	0.964466
H131	H	-0.099934	1.822723	1.031036
C132	C	-0.111703	1.969896	1.181589
C133	C	-0.164594	1.974365	1.085517
H134	H	-0.102362	2.039506	1.208009
H135	H	-0.151642	1.929589	1.230057
H136	H	-0.045212	1.937565	1.171866
H137	H	-0.231088	2.006683	1.095244
H138	H	-0.124666	2.014681	1.037052
O139	O	-0.320823	1.129124	0.468481
C140	C	-0.244414	1.187212	0.523858
H141	H	-0.245082	1.162471	0.609763
H142	H	-0.262560	1.275261	0.517662
C143	C	-0.134711	1.195530	0.371164
C144	C	-0.135526	1.165137	0.476673
H145	H	-0.067544	1.181918	0.342056
H146	H	-0.186191	1.156399	0.333854
H147	H	-0.149838	1.268903	0.366015
H148	H	-0.120412	1.091763	0.481819
H149	H	-0.084040	1.204255	0.513982
O150	O	-0.638414	1.398681	1.114741
C151	C	-0.706240	1.459034	1.178207
H152	H	-0.712744	1.542515	1.145135
H153	H	-0.673733	1.462721	1.261372
C154	C	-0.807467	1.304677	1.220484
C155	C	-0.815462	1.407208	1.179860
H156	H	-0.874840	1.272707	1.221509
H157	H	-0.761770	1.264015	1.177729
H158	H	-0.780374	1.307764	1.289785
H159	H	-0.842542	1.404118	1.110556
H160	H	-0.861167	1.447868	1.222603
O161	O	-0.628947	0.934809	0.362125
C162	C	-0.707037	0.966076	0.433863
H163	H	-0.679179	1.038662	0.478978
H164	H	-0.723039	0.898781	0.491106
C165	C	-0.842572	0.903930	0.318542
C166	C	-0.808359	0.993088	0.373948
H167	H	-0.905073	0.920588	0.281586
H168	H	-0.789962	0.882861	0.270213
H169	H	-0.855898	0.847860	0.366255
H170	H	-0.795020	1.049152	0.326235
H171	H	-0.860969	1.014167	0.422268
O172	O	-0.633796	1.129003	0.368331
C173	C	-0.673995	1.193400	0.449074
H174	H	-0.606455	1.226682	0.497431
H175	H	-0.727325	1.144312	0.501698
C176	C	-0.820054	1.244215	0.341472
C177	C	-0.737100	1.285100	0.400859
H178	H	-0.858984	1.300778	0.311732
H179	H	-0.792974	1.200827	0.287074
H180	H	-0.864484	1.203309	0.385335
H181	H	-0.692664	1.325994	0.356993
H182	H	-0.764174	1.328498	0.455248
H183	H	-0.372052	0.943155	0.618202
H184	H	-0.371120	1.125053	0.616752
H185	H	-1.105070	1.790933	0.250013
