data_functionalizedCrystal
_audit_creation_method	'MofGen! by Chris Wilmer'
_symmetry_space_group_name_H-M	'P1'
_symmetry_Int_Tables_number	1
_symmetry_cell_setting	triclinic
loop_
_symmetry_equiv_pos_as_xyz
  x,y,z
_cell_length_a	10.654550
_cell_length_b	13.339070
_cell_length_c	9.130313
_cell_angle_alpha	90.000326
_cell_angle_beta	89.996220
_cell_angle_gamma	100.057099
loop_
_atom_site_label
_atom_site_type_symbol
_atom_site_fract_x
_atom_site_fract_y
_atom_site_fract_z
O1	O	1.715926	0.142430	-0.121918
O2	O	1.355030	0.156000	-0.121894
O3	O	1.494059	0.001661	-0.121899
O4	O	1.576897	0.296769	-0.121913
O5	O	1.494058	0.001665	0.121700
O6	O	1.355029	0.156004	0.121705
O7	O	1.715925	0.142434	0.121681
Cu8	Cu	1.535477	0.149219	0.143935
Cu9	Cu	1.535478	0.149215	-0.144149
O10	O	1.576896	0.296773	0.121686
C11	C	1.307895	0.155006	-0.000092
C12	C	1.167445	0.152025	-0.000083
C13	C	1.118643	0.242897	-0.000108
C14	C	0.986674	0.240090	-0.000134
C15	C	0.952320	0.055530	-0.000113
C16	C	1.084286	0.058338	-0.000078
C17	C	1.138476	0.349452	-0.000126
C18	C	1.006507	0.346644	-0.000152
C19	C	1.480065	-0.036124	-0.000101
C20	C	1.438355	-0.148719	-0.000104
C21	C	1.762670	-0.511236	-0.000124
C22	C	1.801862	-0.405449	-0.000113
C23	C	1.710989	-0.341261	-0.000111
C24	C	1.580916	-0.382872	-0.000120
C25	C	1.541720	-0.488670	-0.000119
C26	C	1.490039	-0.318694	-0.000106
C27	C	1.359966	-0.360305	-0.000115
C28	C	1.320776	-0.466093	-0.000116
C29	C	1.411650	-0.530280	-0.000117
C30	C	1.529235	-0.212896	-0.000107
C31	C	1.308285	-0.190329	-0.000102
C32	C	1.269093	-0.296117	-0.000113
C33	C	1.763060	0.143428	-0.000125
C34	C	1.903510	0.146409	-0.000144
C35	C	1.590890	0.334559	-0.000116
C36	C	1.632600	0.447153	-0.000122
N37	N	1.535485	0.149222	0.346558
N38	N	1.535477	0.149204	-0.346771
C39	C	1.597077	0.080904	0.423208
C40	C	1.597069	0.080892	0.576545
C41	C	1.473877	0.217525	0.576568
C42	C	1.473878	0.217531	0.423234
C43	C	1.668206	0.002023	0.423195
C44	C	1.668198	0.002011	0.576532
H45	H	1.185588	0.383378	-0.105300
H46	H	1.234288	-0.138068	-0.000093
H47	H	1.124015	-0.015659	-0.000036
H48	H	1.214863	-0.499968	-0.000111
O49	O	1.413940	0.283740	0.651218
C50	C	1.317324	0.228837	0.739880
H51	H	1.339827	0.149857	0.762837
H52	H	1.312146	0.271008	0.847713
H53	H	1.221873	0.221252	0.680790
H54	H	0.971709	0.378848	0.105015
H55	H	0.978331	0.386791	-0.102107
H56	H	1.620444	-0.075923	0.381581
H57	H	0.884597	-0.020747	-0.000132
O58	O	1.142781	-0.336663	-0.000307
C59	C	1.113505	-0.397161	-0.126489
H60	H	1.203556	-0.422799	-0.168554
H61	H	1.039195	-0.466783	-0.098116
H62	H	1.074091	-0.350822	-0.214830
H63	H	1.423711	0.273152	0.360827
H64	H	1.181878	0.391127	0.101823
H65	H	1.635141	-0.179028	-0.000099
O66	O	1.749274	-0.238522	-0.000175
C67	C	1.883563	-0.215559	-0.000134
H68	H	1.923538	-0.282917	-0.046244
H69	H	1.916502	-0.145471	-0.070862
H70	H	1.919240	-0.199718	0.116733
H71	H	1.767729	0.026722	0.375630
O72	O	1.850765	-0.573731	-0.000183
C73	C	1.788274	-0.676026	-0.000138
H74	H	1.687984	-0.680772	-0.046260
H75	H	1.843931	-0.723448	-0.070853
H76	H	1.782376	-0.706578	0.116732
O77	O	1.373417	-0.633029	0.000062
C78	C	1.299747	-0.662198	0.126241
H79	H	1.257829	-0.594645	0.168321
H80	H	1.219216	-0.727421	0.097857
H81	H	1.362623	-0.688113	0.214574
H82	H	1.612814	-0.071647	0.624085
H83	H	1.907767	-0.371577	-0.000104
H84	H	1.770577	0.019386	0.618141
