data_functionalizedCrystal
_audit_creation_method	'MofGen! by Chris Wilmer'
_symmetry_space_group_name_H-M	'P1'
_symmetry_Int_Tables_number	1
_symmetry_cell_setting	triclinic
loop_
_symmetry_equiv_pos_as_xyz
  x,y,z
_cell_length_a	14.909383
_cell_length_b	12.759401
_cell_length_c	14.908308
_cell_angle_alpha	93.280489
_cell_angle_beta	83.253017
_cell_angle_gamma	93.276117
loop_
_atom_site_label
_atom_site_type_symbol
_atom_site_fract_x
_atom_site_fract_y
_atom_site_fract_z
Zn1	Zn	-0.389887	-1.596575	0.532565
Zn2	Zn	0.110113	-1.096575	1.032565
Zn3	Zn	-0.532520	-1.615627	0.389951
Zn4	Zn	-0.032520	-1.115627	0.889951
Zn5	Zn	-0.381185	-1.430474	0.381227
Zn6	Zn	0.118815	-0.930474	0.881227
Zn7	Zn	-0.541186	-1.430426	0.541266
Zn8	Zn	-0.041186	-0.930426	1.041266
O9	O	-0.461195	-1.518275	0.461252
O10	O	0.038805	-1.018275	0.961252
O11	O	-0.408823	-1.746123	0.513656
O12	O	0.091177	-1.246123	1.013656
O13	O	-0.505176	-1.599059	0.262132
O14	O	-0.005176	-1.099059	0.762132
O15	O	-0.255686	-1.444554	0.394009
O16	O	0.244314	-0.944554	0.894009
O17	O	-0.513614	-1.760121	0.408879
O18	O	-0.013614	-1.260121	0.908879
O19	O	-0.262080	-1.566588	0.505197
O20	O	0.237920	-1.066588	1.005197
O21	O	-0.393991	-1.463028	0.255722
O22	O	0.106009	-0.963028	0.755722
O23	O	-0.402395	-1.283446	0.402447
O24	O	0.097605	-0.783446	0.902447
O25	O	-0.528385	-1.444472	0.666774
O26	O	-0.028385	-0.944472	1.166774
O27	O	-0.519947	-1.283411	0.520027
O28	O	-0.019947	-0.783411	1.020027
O29	O	-0.417226	-1.566541	0.660381
O30	O	0.082774	-1.066541	1.160381
O31	O	-0.660323	-1.599013	0.417316
O32	O	-0.160323	-1.099013	0.917316
O33	O	-0.666690	-1.462946	0.528487
O34	O	-0.166690	-0.962946	1.028487
C35	C	-0.461168	-1.245307	0.461235
C36	C	0.038832	-0.745307	0.961235
C37	C	-0.461179	-1.128530	0.461250
C38	C	0.038821	-0.628530	0.961250
C39	C	-0.522474	-1.073689	0.522384
C40	C	-0.022474	-0.573689	1.022384
C41	C	-0.522482	-0.963965	0.522392
C42	C	-0.022482	-0.463965	1.022392
C43	C	-0.399898	-0.963933	0.400127
C44	C	0.100102	-0.463933	0.900127
C45	C	-0.399887	-1.073655	0.400123
C46	C	0.100113	-0.573655	0.900123
C47	C	-0.583767	-1.128565	0.583511
C48	C	-0.083767	-0.628565	1.083511
C49	C	-0.645067	-1.073724	0.644648
C50	C	-0.145067	-0.573724	1.144648
C51	C	-0.645076	-0.964000	0.644657
C52	C	-0.145076	-0.464000	1.144657
C53	C	-0.583783	-0.909117	0.583528
C54	C	-0.083783	-0.409117	1.083528
C55	C	-0.696347	-1.533069	0.474812
C56	C	-0.196347	-1.033069	0.974812
C57	C	-0.796948	-1.539492	0.480644
C58	C	-0.296948	-1.039492	0.980644
C59	C	-0.979478	-1.424618	0.375716
C60	C	-0.479478	-0.924618	0.875716
C61	C	-1.074002	-1.430649	0.381192
C62	C	-0.574002	-0.930649	0.881192
C63	C	-1.080520	-1.557593	0.497067
C64	C	-0.580520	-1.057593	0.997067
C65	C	-0.985997	-1.551561	0.491591
C66	C	-0.485997	-1.051561	0.991591
C67	C	-0.935479	-1.485070	0.430914
C68	C	-0.435479	-0.985070	0.930914
C69	C	-0.840954	-1.479033	0.425443
C70	C	-0.340954	-0.979033	0.925443
C71	C	-0.847474	-1.605981	0.541313
C72	C	-0.347474	-1.105981	1.041313
C73	C	-0.941997	-1.612013	0.546789
C74	C	-0.441997	-1.112013	1.046789
C75	C	-0.225125	-1.503451	0.447659
C76	C	0.274875	-1.003451	0.947659
C77	C	-0.124526	-1.497134	0.441866
C78	C	0.375474	-0.997134	0.941866
C79	C	-0.474743	-1.503376	0.697338
C80	C	0.025257	-1.003376	1.197338
C81	C	-0.480516	-1.497027	0.797943
C82	C	0.019484	-0.997027	1.297943
C83	C	-0.461214	-0.792309	0.461266
C84	C	0.038786	-0.292309	0.961266
C85	C	-0.461200	-0.909085	0.461263
C86	C	0.038800	-0.409085	0.961263
C87	C	-0.447634	-1.533173	0.226082
C88	C	0.052366	-1.033173	0.726082
C89	C	-0.441606	-1.539709	0.125462
C90	C	0.058394	-1.039709	0.625462
C91	C	-0.375594	-1.612202	0.980335
C92	C	0.124406	-1.112202	1.480335
C93	C	-0.381016	-1.606240	1.074862
C94	C	0.118984	-1.106240	1.574862
C95	C	-0.496776	-1.479134	1.081527
C96	C	0.003224	-0.979134	1.581527
C97	C	-0.491354	-1.485097	0.987000
C98	C	0.008646	-0.985097	1.487000
C99	C	-0.430762	-1.551634	0.936407
C100	C	0.069238	-1.051634	1.436407
C101	C	-0.425346	-1.557602	0.841878
C102	C	0.074654	-1.057602	1.341878
C103	C	-0.541101	-1.430491	0.848544
C104	C	-0.041101	-0.930491	1.348544
C105	C	-0.546522	-1.424529	0.943072
C106	C	-0.046522	-0.924529	1.443072
H107	H	-0.349969	-1.118306	0.350350
H108	H	0.150031	-0.618306	0.850350
H109	H	-0.811639	-1.655203	0.586262
H110	H	-0.311639	-1.155203	1.086262
H111	H	-0.595852	-1.370354	0.984277
H112	H	-0.095852	-0.870354	1.484277
H113	H	-0.376010	-1.611781	0.800686
H114	H	0.123990	-1.111781	1.300686
C115	C	-0.601790	-1.363863	0.800216
C116	C	-0.101790	-0.863863	1.300216
N117	N	-0.647502	-1.313681	0.763814
N118	N	-0.147502	-0.813681	1.263814
H119	H	-1.109822	-1.381424	0.336243
H120	H	-0.609822	-0.881424	0.836243
H121	H	-0.583769	-1.217908	0.583509
H122	H	-0.083769	-0.717908	1.083509
H123	H	-0.349998	-0.919239	0.350359
H124	H	0.150002	-0.419239	0.850359
H125	H	-1.121667	-1.611734	0.546460
H126	H	-0.621667	-1.111734	1.046460
H127	H	-0.694963	-1.118416	0.694422
H128	H	-0.194963	-0.618416	1.194422
C129	C	-0.308948	-1.685398	0.924681
C130	C	0.191052	-1.185398	1.424681
N131	N	-0.258748	-1.740530	0.882763
N132	N	0.241252	-1.240530	1.382763
H133	H	-0.938347	-1.370470	0.326316
H134	H	-0.438347	-0.870470	0.826316
H135	H	-0.336090	-1.655558	1.110625
H136	H	0.163910	-1.155558	1.610625
H137	H	-0.799823	-1.424890	0.376039
H138	H	-0.299823	-0.924890	0.876039
C139	C	-0.997577	-1.685148	0.613531
C140	C	-0.497577	-1.185148	1.113531
N141	N	-1.039440	-1.740232	0.663805
N142	N	-0.539440	-1.240232	1.163805
H143	H	-0.694983	-0.919350	0.694444
H144	H	-0.194983	-0.419350	1.194444
C145	C	-0.583796	-0.788416	0.583542
C146	C	-0.083796	-0.288416	1.083542
N147	N	-0.583810	-0.697506	0.583550
N148	N	-0.083810	-0.197506	1.083550
H149	H	-0.546106	-1.424963	1.122736
H150	H	-0.046106	-0.924963	1.622736
