data_functionalizedCrystal
_audit_creation_method	'MofGen! by Chris Wilmer'
_symmetry_space_group_name_H-M	'P1'
_symmetry_Int_Tables_number	1
_symmetry_cell_setting	triclinic
loop_
_symmetry_equiv_pos_as_xyz
  x,y,z
_cell_length_a	11.792254
_cell_length_b	9.065218
_cell_length_c	10.868271
_cell_angle_alpha	89.999075
_cell_angle_beta	90.005992
_cell_angle_gamma	84.607241
loop_
_atom_site_label
_atom_site_type_symbol
_atom_site_fract_x
_atom_site_fract_y
_atom_site_fract_z
O1	O	-1.508023	-0.202305	-0.102352
O2	O	-1.008023	0.297695	0.397648
O3	O	-1.177800	-0.223126	-0.102346
O4	O	-0.677800	0.276874	0.397654
O5	O	-1.349737	0.001991	-0.102346
O6	O	-0.849737	0.501991	0.397654
O7	O	-1.336086	-0.427421	-0.102351
O8	O	-0.836086	0.072579	0.397649
O9	O	-1.349720	0.001981	0.102298
O10	O	-0.849720	0.501981	0.602298
O11	O	-1.177782	-0.223136	0.102299
O12	O	-0.677782	0.276864	0.602299
O13	O	-1.508006	-0.202314	0.102293
O14	O	-1.008006	0.297686	0.602293
Zn15	Zn	-1.342891	-0.212726	0.134788
Zn16	Zn	-0.842891	0.287274	0.634788
Zn17	Zn	-1.342914	-0.212714	-0.134841
Zn18	Zn	-0.842914	0.287286	0.365159
O19	O	-1.336068	-0.427431	0.102293
O20	O	-0.836068	0.072569	0.602293
C21	C	-1.135493	-0.221819	-0.000023
C22	C	-0.635493	0.278181	0.499977
C23	C	-1.009458	-0.217894	-0.000021
C24	C	-0.509458	0.282106	0.499979
C25	C	-0.907104	-0.214704	-0.000024
C26	C	-0.407104	0.285296	0.499976
C27	C	-0.778695	-0.210715	-0.000021
C28	C	-0.278695	0.289285	0.499979
C29	C	-0.550313	-0.203621	-0.000027
C30	C	-0.050313	0.296379	0.499973
C31	C	-0.676347	-0.207547	-0.000019
C32	C	-0.176347	0.292453	0.499981
N33	N	-1.342884	-0.212734	0.318802
N34	N	-0.842884	0.287266	0.818802
C35	C	-1.348416	0.056960	-0.000026
C36	C	-0.848416	0.556960	0.499974
C37	C	-1.344494	0.220767	-0.000032
C38	C	-0.844494	0.720767	0.499968
C39	C	-1.337389	-0.482401	-0.000030
C40	C	-0.837389	0.017599	0.499970
C41	C	-1.341312	-0.646207	-0.000032
C42	C	-0.841312	-0.146207	0.499968
C43	C	-1.342892	-0.212736	0.430139
C44	C	-0.842892	0.287264	0.930139
C45	C	-1.342906	-0.212724	0.569817
C46	C	-0.842906	0.287276	1.069817
N47	N	-1.342923	-0.212706	0.681145
N48	N	-0.842923	0.287294	1.181145
