data_functionalizedCrystal
_audit_creation_method	'MofGen! by Chris Wilmer'
_symmetry_space_group_name_H-M	'P1'
_symmetry_Int_Tables_number	1
_symmetry_cell_setting	triclinic
loop_
_symmetry_equiv_pos_as_xyz
  x,y,z
_cell_length_a	17.077404
_cell_length_b	18.050589
_cell_length_c	17.077396
_cell_angle_alpha	90.025276
_cell_angle_beta	89.982756
_cell_angle_gamma	89.965077
loop_
_atom_site_label
_atom_site_type_symbol
_atom_site_fract_x
_atom_site_fract_y
_atom_site_fract_z
Zn1	Zn	1.199973	0.295649	-0.443865
Zn2	Zn	1.699973	0.795649	0.056135
Zn3	Zn	1.199858	0.419848	-0.312608
Zn4	Zn	1.699858	0.919848	0.187392
Zn5	Zn	1.068710	0.295677	-0.312613
Zn6	Zn	1.568710	0.795677	0.187387
Zn7	Zn	1.068645	0.419802	-0.443832
Zn8	Zn	1.568645	0.919802	0.056168
O9	O	1.134296	0.357744	-0.378229
O10	O	1.634296	0.857744	0.121771
O11	O	1.309804	0.312132	-0.426465
O12	O	1.809804	0.812132	0.073535
O13	O	1.182440	0.403407	-0.202762
O14	O	1.682440	0.903407	0.297238
O15	O	1.086197	0.191748	-0.330039
O16	O	1.586197	0.691748	0.169961
O17	O	1.309720	0.403380	-0.330031
O18	O	1.809720	0.903380	0.169969
O19	O	1.182635	0.191728	-0.426470
O20	O	1.682635	0.691728	0.073530
O21	O	1.086086	0.312179	-0.202765
O22	O	1.586086	0.812179	0.297235
O23	O	0.958854	0.312135	-0.330007
O24	O	1.458854	0.812135	0.169993
O25	O	1.086087	0.403302	-0.553683
O26	O	1.586087	0.903302	-0.053683
O27	O	0.958807	0.403329	-0.426413
O28	O	1.458807	0.903329	0.073587
O29	O	1.182573	0.312087	-0.553707
O30	O	1.682573	0.812087	-0.053707
O31	O	1.182377	0.523766	-0.329999
O32	O	1.682377	1.023766	0.170001
O33	O	1.085976	0.523733	-0.426409
O34	O	1.585976	1.023733	0.073591
C35	C	0.930349	0.357730	-0.378208
C36	C	1.430349	0.857730	0.121792
C37	C	0.843099	0.357743	-0.378217
C38	C	1.343099	0.857743	0.121783
C39	C	0.802105	0.405299	-0.428335
C40	C	1.302105	0.905299	0.071665
C41	C	0.720124	0.405301	-0.428348
C42	C	1.220124	0.905301	0.071652
C43	C	0.679139	0.357749	-0.378237
C44	C	1.179139	0.857749	0.121763
C45	C	0.720139	0.310187	-0.328117
C46	C	1.220139	0.810187	0.171883
C47	C	0.802118	0.310182	-0.328109
C48	C	1.302118	0.810182	0.171891
C49	C	0.549269	0.310202	-0.328136
C50	C	1.049269	0.810202	0.171864
C51	C	0.467285	0.310207	-0.328143
C52	C	0.967285	0.810207	0.171857
C53	C	0.467275	0.405320	-0.428374
C54	C	0.967275	0.905320	0.071626
C55	C	0.549254	0.405315	-0.428366
C56	C	1.049254	0.905315	0.071634
C57	C	0.590248	0.357754	-0.378245
C58	C	1.090248	0.857754	0.121755
C59	C	1.134179	0.550696	-0.378217
C60	C	1.634179	1.050696	0.121783
C61	C	1.134200	0.633242	-0.378238
C62	C	1.634200	1.133242	0.121762
C63	C	1.081805	0.832701	-0.430648
C64	C	1.581805	1.332701	0.069352
C65	C	1.062667	0.882144	-0.359019
C66	C	1.562667	1.382144	0.140981
C67	C	1.134259	0.784372	-0.378249
C68	C	1.634259	1.284372	0.121751
C69	C	1.153418	0.882011	-0.449886
C70	C	1.653418	1.382011	0.050114
C71	C	1.134315	0.930357	-0.378265
C72	C	1.634315	1.430357	0.121735
C73	C	1.115083	0.832728	-0.306582
C74	C	1.615083	1.332728	0.193418
C75	C	1.205868	0.832591	-0.397498
C76	C	1.705868	1.332591	0.102502
C77	C	1.186757	0.882011	-0.325819
C78	C	1.686757	1.382011	0.174181
C79	C	1.134225	0.700274	-0.378240
C80	C	1.634225	1.200274	0.121760
C81	C	1.134349	1.014454	-0.378266
C82	C	1.634349	1.514454	0.121734
C83	C	1.339041	0.357758	-0.378251
C84	C	1.839041	0.857758	0.121749
C85	C	1.426290	0.357764	-0.378261
C86	C	1.926290	0.857764	0.121739
C87	C	1.134336	0.357686	-0.582974
C88	C	1.634336	0.857686	-0.082974
C89	C	1.134353	0.357662	-0.670223
C90	C	1.634353	0.857662	-0.170223
C91	C	1.134406	1.164038	-0.378260
C92	C	1.634406	1.664038	0.121740
C93	C	1.134376	1.081493	-0.378275
C94	C	1.634376	1.581493	0.121725
C95	C	1.084196	0.310154	-0.711215
C96	C	1.584196	0.810154	-0.211215
C97	C	1.084209	0.310137	-0.793195
C98	C	1.584209	0.810137	-0.293195
C99	C	1.134383	0.357625	-0.834183
C100	C	1.634383	0.857625	-0.334183
C101	C	1.184541	0.405138	-0.793186
C102	C	1.684541	0.905138	-0.293186
C103	C	1.184524	0.405158	-0.711207
C104	C	1.684524	0.905158	-0.211207
C105	C	1.184575	0.405092	-0.964056
C106	C	1.684575	0.905092	-0.464056
C107	C	1.184594	0.405071	-1.046041
C108	C	1.684594	0.905071	-0.546041
C109	C	1.084261	0.310070	-1.046044
C110	C	1.584261	0.810070	-0.546044
C111	C	1.084243	0.310090	-0.964065
C112	C	1.584243	0.810090	-0.464065
C113	C	1.134403	0.357603	-0.923074
C114	C	1.634403	0.857603	-0.423074
C115	C	1.134302	0.357748	-0.174281
C116	C	1.634302	0.857748	0.325719
C117	C	1.134438	0.357563	-0.087032
C118	C	1.634438	0.857563	0.412968
H119	H	0.433894	0.444044	-0.469188
H120	H	0.933894	0.944044	0.030812
H121	H	0.835469	0.444024	-0.469138
H122	H	1.335469	0.944024	0.030862
H123	H	1.231140	0.903526	-0.281463
H124	H	1.731140	1.403526	0.218537
O125	O	1.030153	0.258826	-1.090249
O126	O	1.530153	0.758826	-0.590249
H127	H	1.038584	0.266795	-1.154140
H128	H	1.538584	0.766795	-0.654140
O129	O	0.593488	0.258905	-0.274078
O130	O	1.093488	0.758905	0.225922
H131	H	0.630807	0.292098	-0.234085
H132	H	1.130807	0.792098	0.265915
H133	H	1.002136	0.903926	-0.342753
H134	H	1.502136	1.403926	0.157247
H135	H	1.169601	0.903660	-0.510463
H136	H	1.669601	1.403660	-0.010463
H137	H	0.433917	0.271478	-0.287348
H138	H	0.933917	0.771478	0.212652
O139	O	1.238655	0.456358	-0.837397
O140	O	1.738655	0.956358	-0.337397
H141	H	1.225139	0.514647	-0.821657
H142	H	1.725139	1.014647	-0.321657
O143	O	1.238706	0.456296	-1.090247
O144	O	1.738706	0.956296	-0.590247
H145	H	1.230295	0.448291	-1.154139
H146	H	1.730295	0.948291	-0.654139
O147	O	1.093554	0.804183	-0.226315
O148	O	1.593554	1.304183	0.273685
H149	H	1.039705	0.770014	-0.230544
H150	H	1.539705	1.270014	0.269456
O151	O	0.593460	0.456604	-0.482412
O152	O	1.093460	0.956604	0.017588
H153	H	0.630849	0.423406	-0.522398
H154	H	1.130849	0.923406	-0.022398
H155	H	1.225372	0.443839	-0.677833
H156	H	1.725372	0.943839	-0.177833
H157	H	0.686750	0.444027	-0.469158
H158	H	1.186750	0.944027	0.030842
O159	O	0.675927	0.258918	-0.274056
O160	O	1.175927	0.758918	0.225944
H161	H	0.638597	0.221182	-0.309249
H162	H	1.138597	0.721182	0.190751
H163	H	0.835495	0.271453	-0.287302
H164	H	1.335495	0.771453	0.212698
H165	H	1.037388	0.811049	-0.474897
H166	H	1.537388	1.311049	0.025103
O167	O	1.030139	0.258860	-0.919857
O168	O	1.530139	0.758860	-0.419857
H169	H	0.968521	0.271584	-0.935573
H170	H	1.468521	0.771584	-0.435573
H171	H	1.225428	0.443775	-0.930683
H172	H	1.725428	0.943775	-0.430683
O173	O	1.286048	0.803821	-0.419147
O174	O	1.786048	1.303821	0.080853
H175	H	1.285513	0.742337	-0.418425
H176	H	1.785513	1.242337	0.081575
O177	O	1.030084	0.258931	-0.667007
O178	O	1.530084	0.758931	-0.167007
H179	H	0.995206	0.225897	-0.709288
H180	H	1.495206	0.725897	-0.209288
H181	H	1.043364	0.271454	-0.826567
H182	H	1.543364	0.771454	-0.326567
