data_functionalizedCrystal
_audit_creation_method	'MofGen! by Chris Wilmer'
_symmetry_space_group_name_H-M	'P1'
_symmetry_Int_Tables_number	1
_symmetry_cell_setting	triclinic
loop_
_symmetry_equiv_pos_as_xyz
  x,y,z
_cell_length_a	14.628931
_cell_length_b	18.760487
_cell_length_c	14.628931
_cell_angle_alpha	90.035214
_cell_angle_beta	60.000000
_cell_angle_gamma	60.020388
loop_
_atom_site_label
_atom_site_type_symbol
_atom_site_fract_x
_atom_site_fract_y
_atom_site_fract_z
Zr1	Zr	1.000577	0.686684	-0.119420
O2	O	1.191282	0.572868	-0.265471
O3	O	0.809871	0.721575	-0.074648
O4	O	1.000576	0.721575	-0.265353
O5	O	1.000578	0.572868	0.075666
O6	O	1.000576	0.838878	-0.265261
O7	O	1.000577	0.572868	-0.074765
O8	O	0.659440	0.838877	0.075877
O9	O	1.341714	0.572868	-0.265471
O10	O	0.888311	0.823997	-0.055484
O11	O	0.888312	0.736455	0.056713
O12	O	1.112842	0.736456	-0.167819
O13	O	1.112843	0.648914	-0.055622
Zr14	Zr	1.000577	0.873769	0.120649
Zr15	Zr	1.000577	0.873769	-0.119273
Zr16	Zr	1.000578	0.686684	0.120501
Zr17	Zr	1.240498	0.686685	-0.119421
Zr18	Zr	0.760656	0.873768	0.120649
O19	O	1.191283	0.838878	0.075876
O20	O	1.191282	0.838878	-0.265261
O21	O	1.191283	0.572868	0.075666
O22	O	0.809872	0.987585	0.266699
O23	O	0.809871	0.987585	-0.074438
O24	O	0.809872	0.721574	0.266489
O25	O	1.000577	0.987585	-0.074438
O26	O	1.000578	0.838878	0.266582
O27	O	1.000578	0.721575	0.266489
O28	O	1.000577	0.987585	0.075994
O29	O	1.341714	0.721576	-0.265354
O30	O	0.659440	0.838877	0.266582
O31	O	0.659440	0.987584	0.266699
O32	O	0.659440	0.987585	0.075994
O33	O	1.341715	0.572868	-0.074766
O34	O	1.341715	0.721575	-0.074648
O35	O	0.888312	0.823997	0.169047
O36	O	0.888311	0.911539	0.056851
O37	O	1.112843	0.823998	-0.055484
O38	O	1.112843	0.736456	0.056712
C39	C	0.700472	0.780226	0.000615
C40	C	0.598619	0.780226	0.000615
C41	C	0.553209	0.823653	-0.055042
C42	C	0.447939	0.823654	-0.055043
C43	C	1.000578	0.546212	0.000430
C44	C	1.000578	0.466790	0.000367
C45	C	1.117785	0.085277	-0.057829
C46	C	0.883370	0.176676	0.059451
C47	C	0.883368	0.251299	0.059355
C48	C	1.000576	0.242913	0.000665
C49	C	1.117786	0.159905	-0.057929
C50	C	0.766160	0.334311	0.117938
C51	C	0.766154	0.408940	0.117843
C52	C	0.883363	0.400555	0.059159
C53	C	1.000578	0.317540	0.000564
C54	C	1.117786	0.309154	-0.058126
C55	C	1.235002	0.226141	-0.116716
C56	C	1.234996	0.151520	-0.116614
C57	C	0.883370	0.475176	0.059057
C58	C	1.117788	0.383782	-0.058227
C59	C	1.300682	0.780227	0.000614
C60	C	1.402535	0.780227	0.000614
C61	C	1.000576	0.780227	-0.299491
C62	C	1.000576	0.780227	-0.401343
C63	C	1.000577	1.014241	0.000799
C64	C	1.000577	1.093663	0.000861
C65	C	1.111958	0.736800	-0.502478
C66	C	1.111961	0.736800	-0.607750
C67	C	1.000578	0.780226	0.300719
C68	C	1.000578	0.780226	0.402572
C69	C	0.700472	1.014240	0.000799
C70	C	0.598618	1.093663	0.000862
C71	C	0.700473	0.780226	0.300719
C72	C	0.598620	0.780225	0.402572
C73	C	0.700472	1.014240	0.300904
C74	C	0.598620	1.093662	0.402820
C75	C	1.300682	0.546213	-0.299676
C76	C	1.402535	0.466791	-0.401591
C77	C	1.300683	0.546212	0.000429
C78	C	1.402536	0.466790	0.000366
C79	C	1.300682	0.780227	-0.299491
C80	C	1.402534	0.780227	-0.401344
C81	C	0.550787	1.085264	-0.057756
C82	C	0.455098	1.159883	-0.057719
C83	C	0.407237	1.242899	0.000942
C84	C	0.455077	1.251295	0.059562
C85	C	0.550771	1.176678	0.059518
C86	C	0.550788	1.176663	0.392115
C87	C	0.455100	1.251296	0.487866
C88	C	0.407238	1.242925	0.594321
C89	C	0.455079	1.159915	0.605024
C90	C	0.550772	1.085285	0.509274
C91	C	1.450378	0.383789	-0.390887
C92	C	1.546096	0.309157	-0.486638
C93	C	1.593962	0.317527	-0.593093
C94	C	1.546115	0.400537	-0.603796
C95	C	1.450406	0.475168	-0.508045
C96	C	1.450377	0.475189	0.058974
C97	C	1.546092	0.400570	0.058911
C98	C	1.593958	0.317554	0.000246
C99	C	1.546112	0.309158	-0.058369
C100	C	1.450406	0.383775	-0.058312
C101	C	0.553211	0.823652	0.503707
C102	C	0.447941	0.823653	0.608979
H103	H	0.408894	0.860829	-0.102699
Cl104	Cl	1.606215	0.411146	0.132610
Cl105	Cl	0.394970	1.149307	-0.131413
H106	H	0.408889	0.860833	0.695738
H107	H	0.559558	0.743050	0.048266
H108	H	0.441586	0.743042	0.048261
H109	H	0.787945	0.183498	0.107230
H110	H	0.441576	0.743050	0.511901
H111	H	1.213234	0.376943	-0.106008
Cl112	Cl	1.390230	0.579543	0.132728
H113	H	0.589755	1.017675	-0.105539
Cl114	Cl	0.286932	1.336696	0.000989
Cl115	Cl	0.538332	0.722816	0.389206
Cl116	Cl	1.259190	0.679402	-0.515845
H117	H	1.330433	0.219323	-0.164507
H118	H	1.671888	0.256803	0.000209
H119	H	0.589703	1.183528	0.107259
Cl120	Cl	0.286934	1.336757	0.714684
Cl121	Cl	1.382339	0.047161	-0.190264
Cl122	Cl	1.606299	0.411046	-0.737634
H123	H	0.416094	1.318897	0.107322
H124	H	1.585099	0.241556	-0.106133
Cl125	Cl	0.610946	1.187209	0.258297
Cl126	Cl	1.390263	0.579510	-0.521522
H127	H	0.905215	0.817402	-0.510672
Cl128	Cl	1.714282	0.223696	-0.713456
Cl129	Cl	0.394971	1.355640	0.474386
Cl130	Cl	1.265134	-0.019077	-0.131474
Cl131	Cl	0.394895	1.149407	0.738862
Cl132	Cl	1.390265	0.373202	-0.131990
H133	H	0.592260	0.860836	-0.102687
Cl134	Cl	0.618824	0.344847	0.191710
H135	H	1.411410	0.376957	-0.304214
H136	H	0.787934	0.542761	0.106770
Cl137	Cl	0.618800	0.513291	0.191502
H138	H	1.207319	0.699615	-0.694509
H139	H	0.905219	0.817408	-0.392694
H140	H	0.589704	1.017704	0.518005
Cl141	Cl	1.606221	0.204812	-0.473158
H142	H	0.592274	0.860827	0.512357
