data_functionalizedCrystal
_audit_creation_method	'MofGen! by Chris Wilmer'
_symmetry_space_group_name_H-M	'P1'
_symmetry_Int_Tables_number	1
_symmetry_cell_setting	triclinic
loop_
_symmetry_equiv_pos_as_xyz
  x,y,z
_cell_length_a	10.654550
_cell_length_b	14.519731
_cell_length_c	9.130313
_cell_angle_alpha	89.997760
_cell_angle_beta	89.996220
_cell_angle_gamma	84.086878
loop_
_atom_site_label
_atom_site_type_symbol
_atom_site_fract_x
_atom_site_fract_y
_atom_site_fract_z
O1	O	1.666602	0.129527	-0.121923
O2	O	2.166602	0.629527	0.378077
O3	O	1.301006	0.141868	-0.121900
O4	O	1.801006	0.641868	0.378100
O5	O	1.493484	0.001510	-0.121899
O6	O	1.993484	0.501510	0.378101
O7	O	1.474125	0.269884	-0.121925
O8	O	1.974125	0.769884	0.378075
O9	O	1.493481	0.001514	0.121700
O10	O	1.993481	0.501514	0.621700
O11	O	1.301004	0.141872	0.121699
O12	O	1.801004	0.641872	0.621699
O13	O	1.666600	0.129531	0.121675
O14	O	2.166600	0.629531	0.621675
Cu15	Cu	1.483802	0.135701	0.143930
Cu16	Cu	1.983802	0.635701	0.643930
Cu17	Cu	1.483804	0.135697	-0.144154
Cu18	Cu	1.983804	0.635697	0.355846
O19	O	1.474122	0.269888	0.121674
O20	O	1.974122	0.769888	0.621674
C21	C	1.254216	0.140964	-0.000098
C22	C	1.754216	0.640964	0.499902
C23	C	1.114798	0.138253	-0.000088
C24	C	1.614798	0.638253	0.499912
C25	C	1.034527	0.220893	-0.000118
C26	C	1.534527	0.720893	0.499882
C27	C	0.903530	0.218340	-0.000143
C28	C	1.403530	0.718340	0.499857
C29	C	0.933090	0.050499	-0.000116
C30	C	1.433090	0.550499	0.499884
C31	C	1.064084	0.053053	-0.000080
C32	C	1.564084	0.553053	0.499920
C33	C	1.085241	0.306092	-0.000126
C34	C	1.585241	0.806092	0.499874
C35	C	1.004968	0.388739	-0.000157
C36	C	1.504968	0.888739	0.499843
C37	C	0.873971	0.386186	-0.000182
C38	C	1.373971	0.886186	0.499818
C39	C	0.823248	0.300986	-0.000176
C40	C	1.323248	0.800986	0.499824
C41	C	1.492575	-0.032852	-0.000099
C42	C	1.992575	0.467148	0.499901
C43	C	1.489857	-0.135246	-0.000098
C44	C	1.989857	0.364754	0.499902
C45	C	1.487649	-0.218402	-0.000102
C46	C	1.987649	0.281598	0.499898
C47	C	1.484889	-0.322725	-0.000113
C48	C	1.984889	0.177275	0.499887
C49	C	1.482699	-0.405875	-0.000122
C50	C	1.982699	0.094125	0.499878
C51	C	1.479939	-0.510205	-0.000130
C52	C	1.979939	-0.010205	0.499870
C53	C	1.713390	0.130435	-0.000130
C54	C	2.213390	0.630435	0.499870
C55	C	1.852808	0.133146	-0.000149
C56	C	2.352808	0.633146	0.499851
C57	C	1.475031	0.304250	-0.000129
C58	C	1.975031	0.804250	0.499871
C59	C	1.477749	0.406645	-0.000139
C60	C	1.977749	0.906645	0.499861
N61	N	1.483809	0.135704	0.346552
N62	N	1.983809	0.635704	0.846552
N63	N	1.483807	0.135687	-0.346777
N64	N	1.983807	0.635687	0.153223
C65	C	1.569059	0.073575	0.423205
C66	C	2.069059	0.573575	0.923205
C67	C	1.569056	0.073564	0.576541
C68	C	2.069056	0.573564	1.076541
C69	C	1.398547	0.197819	0.576560
C70	C	1.898547	0.697819	1.076560
C71	C	1.398546	0.197825	0.423226
C72	C	1.898546	0.697825	0.923226
C73	C	1.654322	0.011454	0.346531
C74	C	2.154322	0.511454	0.846531
C75	C	1.739581	-0.050679	0.423184
C76	C	2.239581	0.449321	0.923184
C77	C	1.739578	-0.050690	0.576520
C78	C	2.239578	0.449310	1.076520
C79	C	1.654316	0.011432	0.653205
C80	C	2.154316	0.511432	1.153205
H81	H	0.808616	0.453481	-0.000192
H82	H	1.308616	0.953481	0.499808
H83	H	1.654312	0.011412	0.778062
H84	H	2.154312	0.511412	1.278062
H85	H	1.046276	0.458106	-0.000149
H86	H	1.546276	0.958106	0.499851
H87	H	1.808990	-0.101287	0.638929
H88	H	2.308990	0.398713	1.138929
H89	H	1.329132	0.248397	0.639006
H90	H	1.829132	0.748397	1.139006
F91	F	0.683827	0.298274	-0.000183
F92	F	1.183827	0.798274	0.499817
H93	H	1.654335	0.011459	0.221677
H94	H	2.154335	0.511459	0.721677
F95	F	1.307808	0.263948	0.341646
F96	F	1.807808	0.763948	0.841646
H97	H	0.891780	-0.018866	-0.000135
H98	H	1.391780	0.481134	0.499865
H99	H	1.129444	-0.014240	-0.000060
H100	H	1.629444	0.485760	0.499940
F101	F	1.224657	0.308816	-0.000106
F102	F	1.724657	0.808816	0.499894
H103	H	1.808992	-0.101262	0.360739
H104	H	2.308992	0.398738	0.860739
