data_functionalizedCrystal
_audit_creation_method	'MofGen! by Chris Wilmer'
_symmetry_space_group_name_H-M	'P1'
_symmetry_Int_Tables_number	1
_symmetry_cell_setting	triclinic
loop_
_symmetry_equiv_pos_as_xyz
  x,y,z
_cell_length_a	17.699097
_cell_length_b	14.044190
_cell_length_c	16.176319
_cell_angle_alpha	89.988653
_cell_angle_beta	89.988988
_cell_angle_gamma	88.240103
loop_
_atom_site_label
_atom_site_type_symbol
_atom_site_fract_x
_atom_site_fract_y
_atom_site_fract_z
O1	O	1.012347	0.119911	-0.068825
O2	O	1.512347	0.619911	0.431175
O3	O	0.793045	0.135491	-0.068813
O4	O	1.293045	0.635491	0.431187
O5	O	0.899401	-0.010277	-0.068803
O6	O	1.399401	0.489723	0.431197
O7	O	0.905990	0.265678	-0.068835
O8	O	1.405990	0.765678	0.431165
O9	O	0.899384	-0.010286	0.068691
O10	O	1.399384	0.489714	0.568691
O11	O	0.793028	0.135481	0.068680
O12	O	1.293028	0.635481	0.568680
O13	O	1.012330	0.119902	0.068668
O14	O	1.512330	0.619902	0.568668
Cu15	Cu	0.902677	0.127691	0.081228
Cu16	Cu	1.402677	0.627691	0.581228
Cu17	Cu	0.902697	0.127702	-0.081373
Cu18	Cu	1.402697	0.627702	0.418627
O19	O	0.905973	0.265669	0.068658
O20	O	1.405973	0.765669	0.568658
C21	C	0.764801	0.134926	-0.000065
C22	C	1.264801	0.634926	0.499935
C23	C	0.680667	0.133244	-0.000059
C24	C	1.180667	0.633244	0.499941
C25	C	0.896510	-0.045589	-0.000053
C26	C	1.396510	0.454411	0.499947
C27	C	0.887912	-0.150796	-0.000046
C28	C	1.387912	0.349204	0.499954
C29	C	0.164247	0.122945	-0.075039
C30	C	0.664247	0.622945	0.424961
C31	C	0.243300	0.124518	-0.075035
C32	C	0.743300	0.624518	0.424965
C33	C	0.282811	0.125301	-0.000084
C34	C	0.782811	0.625301	0.499916
C35	C	0.243266	0.124501	0.074868
C36	C	0.743266	0.624501	0.574868
C37	C	0.164215	0.122921	0.074863
C38	C	0.664215	0.622921	0.574863
C39	C	0.562069	0.130871	0.074889
C40	C	1.062069	0.630871	0.574889
C41	C	0.641126	0.132454	0.074888
C42	C	1.141126	0.632454	0.574888
C43	C	0.641154	0.132468	-0.075009
C44	C	1.141154	0.632468	0.424991
C45	C	0.562103	0.130888	-0.075014
C46	C	1.062103	0.630888	0.424986
C47	C	0.522565	0.130083	-0.000063
C48	C	1.022565	0.630083	0.499937
C49	C	0.436847	0.128376	-0.000068
C50	C	0.936847	0.628376	0.499932
C51	C	0.368527	0.127015	-0.000078
C52	C	0.868527	0.627015	0.499922
C53	C	0.933172	-0.401184	-0.000081
C54	C	1.433172	0.098816	0.499919
C55	C	0.872205	-0.343418	-0.000072
C56	C	1.372205	0.156582	0.499928
C57	C	0.880947	-0.236234	-0.000057
C58	C	1.380947	0.263766	0.499943
C59	C	0.924432	-0.508379	-0.000095
C60	C	1.424432	-0.008379	0.499905
C61	C	1.040574	0.120467	-0.000082
C62	C	1.540574	0.620467	0.499918
C63	C	1.124707	0.122148	-0.000093
C64	C	1.624707	0.622148	0.499907
C65	C	0.908864	0.300981	-0.000093
C66	C	1.408864	0.800981	0.499907
C67	C	0.917462	0.406188	-0.000106
C68	C	1.417462	0.906188	0.499894
N69	N	0.902669	0.127682	0.195594
N70	N	1.402669	0.627682	0.695594
N71	N	0.902711	0.127702	-0.195738
N72	N	1.402711	0.627702	0.304262
C73	C	0.949781	0.063163	0.238862
C74	C	1.449781	0.563163	0.738862
C75	C	0.949785	0.063162	0.325409
C76	C	1.449785	0.563162	0.825409
C77	C	0.902680	0.127686	0.368686
C78	C	1.402680	0.627686	0.868686
C79	C	0.855563	0.192208	0.325411
C80	C	1.355563	0.692208	0.825411
C81	C	0.855556	0.192204	0.238866
C82	C	1.355556	0.692204	0.738866
C83	C	0.855590	0.192226	0.674440
C84	C	1.355590	0.692226	1.174440
C85	C	0.855602	0.192227	0.760991
C86	C	1.355602	0.692227	1.260991
C87	C	0.949819	0.063184	0.760983
C88	C	1.449819	0.563184	1.260983
C89	C	0.949812	0.063180	0.674438
C90	C	1.449812	0.563180	1.174438
C91	C	0.902692	0.127698	0.631170
C92	C	1.402692	0.627698	1.131170
C93	C	0.902688	0.127697	0.537326
C94	C	1.402688	0.627697	1.037326
C95	C	0.902688	0.127692	0.462529
C96	C	1.402688	0.627692	0.962529
H97	H	0.275490	0.125161	-0.136064
H98	H	0.775490	0.625161	0.363936
H99	H	0.529888	0.130202	0.135919
H100	H	1.029888	0.630202	0.635919
C101	C	0.364431	0.126928	0.141436
C102	C	0.864431	0.626928	0.641436
C103	C	0.286695	0.125365	0.157256
C104	C	0.786695	0.625365	0.657256
H105	H	0.391239	0.127470	0.192301
H106	H	0.891239	0.627470	0.692301
H107	H	0.379431	0.071947	0.110655
H108	H	0.879431	0.571947	0.610655
H109	H	0.375342	0.182438	0.110633
H110	H	0.875342	0.682438	0.610633
H111	H	0.275783	0.069852	0.188054
H112	H	0.775783	0.569852	0.688054
H113	H	0.271689	0.180352	0.188050
H114	H	0.771689	0.680352	0.688050
H115	H	0.673294	0.133092	0.135925
H116	H	1.173294	0.633092	0.635925
C117	C	0.784147	-0.441453	-0.070752
C118	C	1.284147	0.058547	0.429248
C119	C	0.792878	-0.385318	-0.000068
C120	C	1.292878	0.114682	0.499932
H121	H	0.735177	-0.467326	-0.070744
H122	H	1.235177	0.032674	0.429256
H123	H	0.790082	-0.403332	-0.118686
H124	H	1.290082	0.096668	0.381314
H125	H	0.821254	-0.491780	-0.070754
H126	H	1.321254	0.008220	0.429246
H127	H	0.755775	-0.334986	-0.000070
H128	H	1.255775	0.165014	0.499930
H129	H	0.786935	-0.423441	0.047878
H130	H	1.286935	0.076559	0.547878
C131	C	1.005907	-0.259672	-0.000047
C132	C	1.505907	0.240328	0.499953
C133	C	1.012494	-0.359283	-0.000066
C134	C	1.512494	0.140717	0.499934
H135	H	1.054877	-0.233798	-0.000029
H136	H	1.554877	0.266202	0.499971
H137	H	0.979211	-0.238809	-0.047991
H138	H	1.479211	0.261191	0.452009
H139	H	0.979177	-0.238855	0.047903
H140	H	1.479177	0.261145	0.547903
H141	H	1.039220	-0.380101	-0.048019
H142	H	1.539220	0.119899	0.451981
H143	H	1.039202	-0.380156	0.047884
H144	H	1.539202	0.119844	0.547884
C145	C	0.172121	0.123075	0.223035
C146	C	0.672121	0.623075	0.723035
C147	C	0.120750	0.122049	0.157246
C148	C	0.620750	0.622049	0.657246
H149	H	0.145287	0.122539	0.273895
H150	H	0.645287	0.622539	0.773895
H151	H	0.204994	0.068450	0.219925
H152	H	0.704994	0.568450	0.719925
H153	H	0.200915	0.178941	0.219908
H154	H	0.700915	0.678941	0.719908
H155	H	0.091960	0.066179	0.160370
H156	H	0.591960	0.566179	0.660370
H157	H	0.087864	0.176679	0.160358
H158	H	0.587864	0.676679	0.660358
C159	C	1.042908	-0.064401	0.247557
C160	C	1.542908	0.435599	0.747557
C161	C	1.001559	-0.007767	0.191297
C162	C	1.501559	0.492233	0.691297
H163	H	1.074869	-0.108196	0.218191
H164	H	1.574869	0.391804	0.718191
H165	H	1.072793	-0.024990	0.281292
H166	H	1.572793	0.475010	0.781292
H167	H	1.009101	-0.098438	0.281332
H168	H	1.509101	0.401562	0.781332
H169	H	1.035367	0.026276	0.157525
H170	H	1.535367	0.526276	0.657525
H171	H	0.971672	-0.047183	0.157547
H172	H	1.471672	0.452817	0.657547
C173	C	0.957526	-0.065855	0.422747
C174	C	1.457526	0.434145	0.922747
C175	C	1.001577	-0.007760	0.372964
C176	C	1.501577	0.492240	0.872964
H177	H	0.989504	-0.109645	0.452099
H178	H	1.489504	0.390355	0.952099
H179	H	0.929481	-0.027434	0.460908
H180	H	1.429481	0.472566	0.960908
H181	H	0.923726	-0.099897	0.388993
H182	H	1.423726	0.400103	0.888993
H183	H	1.035373	0.026289	0.406720
H184	H	1.535373	0.526289	0.906720
H185	H	1.029635	-0.046185	0.334799
H186	H	1.529635	0.453815	0.834799
C187	C	1.042939	-0.064387	0.683125
C188	C	1.542939	0.435613	1.183125
C189	C	1.001588	-0.007750	0.626869
C190	C	1.501588	0.492250	1.126869
H191	H	1.074898	-0.108181	0.653757
H192	H	1.574898	0.391819	1.153757
H193	H	1.072826	-0.024977	0.716860
H194	H	1.572826	0.475023	1.216860
H195	H	1.009132	-0.098424	0.716902
H196	H	1.509132	0.401576	1.216902
H197	H	1.035394	0.026293	0.593096
H198	H	1.535394	0.526293	1.093096
H199	H	0.971698	-0.047164	0.593120
H200	H	1.471698	0.452836	1.093120
C201	C	0.762347	0.134883	-0.141574
C202	C	1.262347	0.634883	0.358426
C203	C	0.684617	0.133339	-0.157400
C204	C	1.184617	0.633339	0.342600
H205	H	0.789177	0.135417	-0.192438
H206	H	1.289177	0.635417	0.307562
H207	H	0.773254	0.190380	-0.110789
H208	H	1.273254	0.690380	0.389211
H209	H	0.777328	0.079889	-0.110773
H210	H	1.277328	0.579889	0.389227
H211	H	0.669636	0.188337	-0.188196
H212	H	1.169636	0.688337	0.311804
H213	H	0.673706	0.077837	-0.188198
H214	H	1.173706	0.577837	0.311802
C215	C	0.728314	0.248047	0.352095
C216	C	1.228314	0.748047	0.852095
C217	C	0.803781	0.263128	0.372983
C218	C	1.303781	0.763128	0.872983
H219	H	0.696347	0.291828	0.381468
H220	H	1.196347	0.791828	0.881468
H221	H	0.721571	0.257284	0.294367
H222	H	1.221571	0.757284	0.794367
H223	H	0.715842	0.184802	0.366299
H224	H	1.215842	0.684802	0.866299
H225	H	0.816254	0.326371	0.358773
H226	H	1.316254	0.826371	0.858773
H227	H	0.810528	0.253899	0.430724
H228	H	1.310528	0.753899	0.930724
H229	H	0.988184	0.010646	0.796221
H230	H	1.488184	0.510646	1.296221
C231	C	0.822192	0.356342	0.212188
C232	C	1.322192	0.856342	0.712188
C233	C	0.803773	0.263129	0.191299
C234	C	1.303773	0.763129	0.691299
H235	H	0.790223	0.400126	0.182818
H236	H	1.290223	0.900126	0.682818
H237	H	0.815451	0.365575	0.269917
H238	H	1.315451	0.865575	0.769917
H239	H	0.873391	0.366546	0.197982
H240	H	1.373391	0.866546	0.697982
H241	H	0.752575	0.252922	0.205511
H242	H	1.252575	0.752922	0.705511
H243	H	0.810507	0.253892	0.133557
H244	H	1.310507	0.753892	0.633557
H245	H	0.132082	0.122314	-0.136073
H246	H	0.632082	0.622314	0.363927
C247	C	0.762466	0.319789	0.683153
C248	C	1.262466	0.819789	1.183153
C249	C	0.803803	0.263151	0.626888
C250	C	1.303803	0.763151	1.126888
H251	H	0.730498	0.363581	0.653792
H252	H	1.230498	0.863581	1.153792
H253	H	0.732589	0.280380	0.716925
H254	H	1.232589	0.780380	1.216925
H255	H	0.796281	0.353829	0.716891
H256	H	1.296281	0.853829	1.216891
H257	H	0.769988	0.229106	0.593153
H258	H	1.269988	0.729106	1.093153
H259	H	0.833683	0.302565	0.593101
H260	H	1.333683	0.802565	1.093101
H261	H	0.529937	0.130255	-0.136047
H262	H	1.029937	0.630255	0.363953
H263	H	0.817241	0.244772	0.796226
H264	H	1.317241	0.744772	1.296226
