data_functionalizedCrystal
_audit_creation_method	'MofGen! by Chris Wilmer'
_symmetry_space_group_name_H-M	'P1'
_symmetry_Int_Tables_number	1
_symmetry_cell_setting	triclinic
loop_
_symmetry_equiv_pos_as_xyz
  x,y,z
_cell_length_a	16.959455
_cell_length_b	16.959454
_cell_length_c	16.959447
_cell_angle_alpha	89.973264
_cell_angle_beta	89.979626
_cell_angle_gamma	90.017095
loop_
_atom_site_label
_atom_site_type_symbol
_atom_site_fract_x
_atom_site_fract_y
_atom_site_fract_z
Zn1	Zn	1.208384	-0.314729	-0.447056
Zn2	Zn	1.208306	-0.446921	-0.314886
Zn3	Zn	1.076212	-0.314754	-0.314880
Zn4	Zn	1.076177	-0.446862	-0.447010
O5	O	1.142270	-0.380816	-0.380958
O6	O	1.318984	-0.332279	-0.429545
O7	O	1.190766	-0.429424	-0.204274
O8	O	1.093792	-0.204140	-0.332430
O9	O	1.318927	-0.429400	-0.332440
O10	O	1.190898	-0.204121	-0.429539
O11	O	1.093717	-0.332321	-0.204269
O12	O	0.965597	-0.332264	-0.332385
O13	O	1.093732	-0.429299	-0.557627
O14	O	0.965571	-0.429324	-0.429461
O15	O	1.190864	-0.332221	-0.557661
O16	O	1.190732	-0.557524	-0.332396
O17	O	1.093657	-0.557481	-0.429467
C18	C	0.936904	-0.380791	-0.380918
C19	C	0.849047	-0.380799	-0.380920
C20	C	0.477531	-0.431337	-0.330370
C21	C	0.477612	-0.330361	-0.431642
C22	C	0.560158	-0.330348	-0.431623
C23	C	0.601394	-0.380831	-0.380977
C24	C	0.560085	-0.431328	-0.330350
C25	C	0.601473	-0.279859	-0.482255
C26	C	0.684024	-0.279844	-0.482238
C27	C	0.725262	-0.330324	-0.431588
C28	C	0.683948	-0.380822	-0.380958
C29	C	0.725184	-0.431305	-0.330312
C30	C	0.683871	-0.481799	-0.279678
C31	C	0.601323	-0.481807	-0.279700
C32	C	0.807811	-0.330315	-0.431566
C33	C	0.807738	-0.431295	-0.330293
C34	C	1.142204	-0.586183	-0.380944
C35	C	1.142248	-0.674039	-0.380965
C36	C	1.091796	-1.045522	-0.431498
C37	C	1.192964	-1.045507	-0.330499
C38	C	1.192936	-0.962962	-0.330491
C39	C	1.142337	-0.921692	-0.380987
C40	C	1.091765	-0.962969	-0.431490
C41	C	1.243501	-0.921679	-0.279984
C42	C	1.243475	-0.839128	-0.279974
C43	C	1.192879	-0.797857	-0.330474
C44	C	1.142306	-0.839139	-0.380980
C45	C	1.091707	-0.797869	-0.431476
C46	C	1.041138	-0.839150	-0.481986
C47	C	1.041170	-0.921698	-0.481991
C48	C	1.192847	-0.715309	-0.330469
C49	C	1.091676	-0.715316	-0.431468
C50	C	1.348438	-0.380843	-0.380998
C51	C	1.436295	-0.380854	-0.381016
C52	C	1.142303	-0.380751	-0.587126
C53	C	1.142317	-0.380723	-0.674983
C54	C	1.142358	-0.174648	-0.380989
C55	C	1.142395	-0.086792	-0.381002
C56	C	1.091839	-0.431184	-1.046444
C57	C	1.192983	-0.330096	-1.046474
C58	C	1.192962	-0.330113	-0.963928
C59	C	1.142380	-0.380667	-0.922636
C60	C	1.091818	-0.431204	-0.963890
C61	C	1.243529	-0.279582	-0.922667
C62	C	1.243510	-0.279597	-0.840116
C63	C	1.192923	-0.330148	-0.798823
C64	C	1.142359	-0.380686	-0.840082
C65	C	1.091776	-0.431240	-0.798791
C66	C	1.041207	-0.481776	-0.840048
C67	C	1.041231	-0.481754	-0.922597
C68	C	1.192899	-0.330169	-0.716275
C69	C	1.091755	-0.431260	-0.716237
C70	C	1.142283	-0.380825	-0.175592
C71	C	1.142422	-0.380630	-0.087736
H72	H	0.443890	-0.472446	-0.289142
H73	H	0.999998	-0.955316	-0.523112
Br74	Br	0.972464	-0.783131	-0.550507
Br75	Br	0.972569	-0.550389	-0.784000
Br76	Br	0.545507	-0.211363	-0.550998
H77	H	1.000063	-0.522900	-0.956196
Br78	Br	0.863695	-0.499805	-0.261548
H79	H	1.050475	-0.681719	-0.472591
Br80	Br	1.023175	-1.101541	-0.500050
Br81	Br	1.261459	-0.659289	-0.261915
H82	H	0.717654	-0.238728	-0.523467
Br83	Br	1.261530	-0.261599	-0.660285
Br84	Br	0.863875	-0.261800	-0.500283
Br85	Br	0.739844	-0.550317	-0.210955
Br86	Br	1.261636	-0.261498	-1.102513
H87	H	1.284715	-0.238429	-0.956293
H88	H	1.284651	-0.805523	-0.238847
H89	H	0.567678	-0.522917	-0.238476
Br90	Br	0.421648	-0.261863	-0.500384
H91	H	1.234154	-1.079114	-0.289383
H92	H	1.284690	-0.955286	-0.238867
H93	H	1.050665	-0.472326	-1.080039
H94	H	1.050557	-0.472421	-0.682623
Br95	Br	1.312136	-0.211014	-0.784131
