data_functionalizedCrystal
_audit_creation_method	'MofGen! by Chris Wilmer'
_symmetry_space_group_name_H-M	'P1'
_symmetry_Int_Tables_number	1
_symmetry_cell_setting	triclinic
loop_
_symmetry_equiv_pos_as_xyz
  x,y,z
_cell_length_a	14.853569
_cell_length_b	14.853569
_cell_length_c	13.930277
_cell_angle_alpha	89.994278
_cell_angle_beta	89.994756
_cell_angle_gamma	83.635565
loop_
_atom_site_label
_atom_site_type_symbol
_atom_site_fract_x
_atom_site_fract_y
_atom_site_fract_z
O1	O	1.196368	0.117710	-0.079789
O2	O	0.933909	0.131730	-0.079801
O3	O	1.072149	-0.006510	-0.079786
O4	O	1.058129	0.255950	-0.079805
O5	O	1.072129	-0.006513	0.079876
O6	O	0.933890	0.131727	0.079860
O7	O	1.196349	0.117707	0.079872
Zn8	Zn	1.065116	0.124717	0.105216
Zn9	Zn	1.065142	0.124721	-0.105145
O10	O	1.058109	0.255947	0.079857
C11	C	0.900311	0.131093	0.000028
C12	C	0.800227	0.129189	0.000024
C13	C	0.763850	0.046178	0.000027
C14	C	0.742561	0.210410	0.000025
C15	C	0.648527	0.208624	0.000027
C16	C	0.612150	0.125613	0.000029
C17	C	0.669807	0.044389	0.000031
C18	C	0.590863	0.289847	0.000035
C19	C	0.496823	0.288063	0.000037
C20	C	0.460444	0.205052	0.000033
C21	C	0.518108	0.123824	0.000033
C22	C	0.481731	0.040813	0.000036
C23	C	0.539392	-0.040415	0.000029
C24	C	0.633429	-0.038623	0.000026
C25	C	0.366408	0.203259	0.000036
C26	C	0.387688	0.039024	0.000040
C27	C	1.071503	-0.040100	0.000045
C28	C	1.069599	-0.140183	0.000046
C29	C	0.986588	-0.176560	0.000044
C30	C	1.150821	-0.197849	0.000041
C31	C	1.149034	-0.291883	0.000037
C32	C	1.066024	-0.328260	0.000035
C33	C	0.984799	-0.270603	0.000037
C34	C	1.230257	-0.349547	0.000025
C35	C	1.228474	-0.443588	0.000020
C36	C	1.145462	-0.479966	0.000025
C37	C	1.064234	-0.422303	0.000028
C38	C	0.981224	-0.458680	0.000026
C39	C	0.899995	-0.401018	0.000036
C40	C	0.901787	-0.306982	0.000042
C41	C	1.143670	-0.574002	0.000018
C42	C	0.979434	-0.552722	0.000019
C43	C	1.229947	0.118344	0.000041
C44	C	1.330031	0.120249	0.000039
C45	C	1.058754	0.289537	0.000024
C46	C	1.060659	0.389621	0.000016
N47	N	1.065106	0.124713	0.248782
N48	N	1.065159	0.124717	-0.248711
C49	C	1.003927	0.185909	0.701045
C50	C	1.126381	0.063525	0.701028
C51	C	1.126371	0.063522	0.600532
C52	C	1.065138	0.124715	0.550288
C53	C	1.003916	0.185910	0.600540
C54	C	1.187598	0.002334	0.550273
C55	C	1.187590	0.002330	0.449771
C56	C	1.126352	0.063518	0.399525
C57	C	1.065127	0.124715	0.449783
C58	C	1.003894	0.185908	0.399539
C59	C	0.942664	0.247101	0.449795
C60	C	0.942678	0.247099	0.550294
C61	C	1.126338	0.063521	0.299026
C62	C	1.003884	0.185909	0.299034
H63	H	0.620489	0.357430	0.000039
H64	H	1.209805	-0.620946	0.000001
Cl65	Cl	1.203313	-0.013397	0.235854
H66	H	0.832407	-0.430648	0.000028
H67	H	0.835656	-0.260026	0.000048
H68	H	1.237456	-0.047482	0.591185
Cl69	Cl	0.341965	-0.065339	0.000036
Cl70	Cl	1.203362	-0.013394	0.764189
H71	H	0.920454	-0.129608	0.000056
H72	H	0.810802	-0.019956	0.000017
H73	H	1.237446	-0.047498	0.408859
Cl74	Cl	0.293924	0.305366	0.000055
H75	H	0.772186	0.277994	0.000030
H76	H	0.449882	0.354205	0.000041
H77	H	0.954071	0.235730	0.741966
H78	H	0.911836	-0.582332	0.000026
Cl79	Cl	1.255171	-0.152116	0.000033
H80	H	1.297840	-0.319921	0.000086
H81	H	1.294615	-0.490528	0.000013
Cl82	Cl	0.926896	0.262836	0.235878
Cl83	Cl	0.865695	0.324032	0.386620
H84	H	0.892828	0.296921	0.591218
H85	H	0.680385	-0.104755	0.000023
Cl86	Cl	0.493650	-0.144768	0.000042
