data_functionalizedCrystal
_audit_creation_method	'MofGen! by Chris Wilmer'
_symmetry_space_group_name_H-M	'P1'
_symmetry_Int_Tables_number	1
_symmetry_cell_setting	triclinic
loop_
_symmetry_equiv_pos_as_xyz
  x,y,z
_cell_length_a	16.109301
_cell_length_b	10.489741
_cell_length_c	14.586319
_cell_angle_alpha	90.000119
_cell_angle_beta	89.996867
_cell_angle_gamma	84.000327
loop_
_atom_site_label
_atom_site_type_symbol
_atom_site_fract_x
_atom_site_fract_y
_atom_site_fract_z
O1	O	1.104145	0.163940	-0.076182
O2	O	0.862208	0.184343	-0.076196
O3	O	0.988682	-0.011537	-0.076183
O4	O	0.977671	0.359819	-0.076195
O5	O	0.988666	-0.011525	0.076298
O6	O	0.862193	0.184354	0.076284
O7	O	1.104129	0.163951	0.076299
Cu8	Cu	0.983160	0.174154	0.090214
Cu9	Cu	0.983178	0.174140	-0.090112
O10	O	0.977656	0.359830	0.076286
C11	C	0.831221	0.183522	0.000042
C12	C	0.738910	0.181044	0.000037
C13	C	0.987842	-0.059050	0.000057
C14	C	0.985354	-0.200644	0.000055
C15	C	0.517319	0.291514	0.000044
C16	C	0.430584	0.289175	0.000050
C17	C	0.449026	0.056771	0.000053
C18	C	0.535759	0.059111	0.000054
C19	C	0.569903	0.176486	0.000045
C20	C	0.396435	0.171808	0.000050
C21	C	0.302393	0.169272	0.000056
C22	C	0.663950	0.179022	0.000040
C23	C	0.904883	-0.267616	0.000043
C24	C	0.942889	-0.360285	0.075226
C25	C	0.942924	-0.360271	-0.075108
C26	C	1.023394	-0.291447	0.075300
C27	C	1.023417	-0.291424	-0.075102
C28	C	1.061482	-0.384066	0.000100
C29	C	1.135117	0.164772	0.000058
C30	C	1.227427	0.167250	0.000058
C31	C	0.978495	0.407344	0.000044
C32	C	0.980983	0.548938	0.000040
N33	N	0.983153	0.174163	0.217046
N34	N	0.983191	0.174121	-0.216944
C35	C	1.034052	0.251527	0.452053
C36	C	1.034061	0.251518	0.548034
C37	C	0.932290	0.096748	0.548043
C38	C	0.932286	0.096751	0.452063
C39	C	0.983166	0.174148	0.404071
C40	C	0.983178	0.174136	0.596032
C41	C	0.983187	0.174126	0.700099
C42	C	0.983158	0.174156	0.299997
H43	H	0.545116	0.387088	0.000043
H44	H	0.890864	0.033736	0.587130
H45	H	0.387773	0.382843	0.000051
H46	H	1.075499	0.314526	0.587097
H47	H	0.890847	0.033733	0.412995
H48	H	1.057444	-0.260878	-0.138663
H49	H	0.908871	-0.390746	-0.138675
H50	H	0.421215	-0.038791	0.000067
H51	H	1.075482	0.314548	0.412981
H52	H	0.838720	-0.217005	0.000115
H53	H	0.908834	-0.390797	0.138784
H54	H	0.578575	-0.034565	0.000057
H55	H	1.127704	-0.434450	0.000146
H56	H	1.057407	-0.261104	0.138933
