data_functionalizedCrystal
_audit_creation_method	'MofGen! by Chris Wilmer'
_symmetry_space_group_name_H-M	'P1'
_symmetry_Int_Tables_number	1
_symmetry_cell_setting	triclinic
loop_
_symmetry_equiv_pos_as_xyz
  x,y,z
_cell_length_a	16.959455
_cell_length_b	18.050590
_cell_length_c	16.959447
_cell_angle_alpha	90.031775
_cell_angle_beta	90.014701
_cell_angle_gamma	90.017980
loop_
_atom_site_label
_atom_site_type_symbol
_atom_site_fract_x
_atom_site_fract_y
_atom_site_fract_z
Zn1	Zn	1.208392	-0.295656	0.446909
Zn2	Zn	1.708392	0.204344	0.946909
Zn3	Zn	1.208318	-0.419858	0.314727
Zn4	Zn	1.708318	0.080142	0.814727
Zn5	Zn	1.076221	-0.295685	0.314745
Zn6	Zn	1.576221	0.204315	0.814745
Zn7	Zn	1.076189	-0.419808	0.446865
Zn8	Zn	1.576189	0.080192	0.946865
O9	O	1.142280	-0.357752	0.380811
O10	O	1.642280	0.142248	0.880811
O11	O	1.318993	-0.312141	0.429385
O12	O	1.818993	0.187859	0.929385
O13	O	1.190777	-0.403419	0.204118
O14	O	1.690777	0.096581	0.704118
O15	O	1.093798	-0.191756	0.332303
O16	O	1.593798	0.308244	0.832303
O17	O	1.318939	-0.403391	0.332272
O18	O	1.818939	0.096609	0.832272
O19	O	1.190904	-0.191735	0.429403
O20	O	1.690904	0.308265	0.929403
O21	O	1.093726	-0.312190	0.204132
O22	O	1.593726	0.187810	0.704132
O23	O	0.965605	-0.312141	0.332260
O24	O	1.465605	0.187859	0.832260
O25	O	1.093743	-0.403306	0.557481
O26	O	1.593743	0.096694	1.057481
O27	O	0.965582	-0.403333	0.429328
O28	O	1.465582	0.096667	0.929328
O29	O	1.190873	-0.312092	0.557514
O30	O	1.690873	0.187908	1.057514
O31	O	1.190747	-0.523776	0.332229
O32	O	1.690747	-0.023776	0.832229
O33	O	1.093672	-0.523739	0.429310
O34	O	1.593672	-0.023739	0.929310
C35	C	0.936914	-0.357735	0.380792
C36	C	1.436914	0.142265	0.880792
C37	C	0.849057	-0.357746	0.380802
C38	C	1.349057	0.142254	0.880802
C39	C	0.807753	-0.405189	0.330168
C40	C	1.307753	0.094811	0.830168
C41	C	0.807808	-0.310310	0.431443
C42	C	1.307808	0.189690	0.931443
C43	C	0.725262	-0.310316	0.431452
C44	C	1.225262	0.189684	0.931452
C45	C	0.683958	-0.357758	0.380818
C46	C	1.183958	0.142242	0.880818
C47	C	0.725199	-0.405194	0.330174
C48	C	1.225199	0.094806	0.830174
C49	C	0.684014	-0.262875	0.482090
C50	C	1.184014	0.237125	0.982090
C51	C	0.601463	-0.262878	0.482101
C52	C	1.101463	0.237122	0.982101
C53	C	0.560157	-0.310325	0.431469
C54	C	1.060157	0.189675	0.931469
C55	C	0.601404	-0.357764	0.380824
C56	C	1.101404	0.142236	0.880824
C57	C	0.560100	-0.405206	0.330190
C58	C	1.060100	0.094794	0.830190
C59	C	0.601345	-0.452649	0.279548
C60	C	1.101345	0.047351	0.779548
C61	C	0.683894	-0.452641	0.279543
C62	C	1.183894	0.047359	0.779543
C63	C	0.477609	-0.310333	0.431474
C64	C	0.977609	0.189667	0.931474
C65	C	0.477546	-0.405212	0.330196
C66	C	0.977546	0.094788	0.830196
C67	C	1.142219	-0.550704	0.380780
C68	C	1.642219	-0.050704	0.880780
C69	C	1.142265	-0.633249	0.380793
C70	C	1.642265	-0.133249	0.880793
C71	C	1.195165	-0.832693	0.328074
C72	C	1.695165	-0.332693	0.828074
C73	C	1.214468	-0.882022	0.400215
C74	C	1.714468	-0.382022	0.900215
C75	C	1.142310	-0.784380	0.380824
C76	C	1.642310	-0.284380	0.880824
C77	C	1.123088	-0.882133	0.308716
C78	C	1.623088	-0.382133	0.808716
C79	C	1.142355	-0.930365	0.380848
C80	C	1.642355	-0.430365	0.880848
C81	C	1.161650	-0.832621	0.453003
C82	C	1.661650	-0.332621	0.953003
C83	C	1.070237	-0.832728	0.361456
C84	C	1.570237	-0.332728	0.861456
C85	C	1.089513	-0.882034	0.433646
C86	C	1.589513	-0.382034	0.933646
C87	C	1.142287	-0.700282	0.380809
C88	C	1.642287	-0.200282	0.880809
C89	C	1.142379	-1.014461	0.380871
C90	C	1.642379	-0.514461	0.880871
C91	C	1.348448	-0.357768	0.380831
C92	C	1.848448	0.142232	0.880831
C93	C	1.436305	-0.357775	0.380840
C94	C	1.936305	0.142225	0.880840
C95	C	1.142313	-0.357690	0.586980
C96	C	1.642313	0.142310	1.086980
C97	C	1.142327	-0.357664	0.674836
C98	C	1.642327	0.142336	1.174836
C99	C	1.142362	-0.164046	0.380860
C100	C	1.642362	0.335954	0.880860
C101	C	1.142398	-0.081500	0.380881
C102	C	1.642398	0.418500	0.880881
C103	C	1.142293	-0.357759	0.175445
C104	C	1.642293	0.142241	0.675445
C105	C	1.142432	-0.357576	0.087589
C106	C	1.642432	0.142424	0.587589
C107	C	1.091850	-0.405076	1.046298
C108	C	1.591850	0.094924	1.546298
C109	C	1.192992	-0.310095	1.046327
C110	C	1.692992	0.189905	1.546327
C111	C	1.192971	-0.310111	0.963781
C112	C	1.692971	0.189889	1.463781
C113	C	1.142390	-0.357611	0.922489
C114	C	1.642390	0.142389	1.422489
C115	C	1.091830	-0.405095	0.963744
C116	C	1.591830	0.094905	1.463744
C117	C	1.243536	-0.262633	0.922520
C118	C	1.743536	0.237367	1.422520
C119	C	1.243518	-0.262647	0.839969
C120	C	1.743518	0.237353	1.339969
C121	C	1.192932	-0.310144	0.798676
C122	C	1.692932	0.189856	1.298676
C123	C	1.142369	-0.357629	0.839936
C124	C	1.642369	0.142371	1.339936
C125	C	1.091788	-0.405129	0.798645
C126	C	1.591788	0.094871	1.298645
C127	C	1.041220	-0.452612	0.839903
C128	C	1.541220	0.047388	1.339903
C129	C	1.041244	-0.452592	0.922451
C130	C	1.541244	0.047408	1.422451
C131	C	1.192908	-0.310164	0.716128
C132	C	1.692908	0.189836	1.216128
C133	C	1.091767	-0.405148	0.716091
C134	C	1.591767	0.094852	1.216091
H135	H	0.841338	-0.443818	0.288939
H136	H	1.341338	0.056182	0.788939
N137	N	1.033455	-0.909052	0.489670
N138	N	1.533455	-0.409052	0.989670
N139	N	0.977291	-0.948691	0.467285
N140	N	1.477291	-0.448691	0.967285
H141	H	0.937700	-0.967772	0.506852
H142	H	1.437700	-0.467772	1.006852
N143	N	0.435345	-0.453673	0.278482
N144	N	0.935345	0.046327	0.778482
N145	N	0.389274	-0.501027	0.306210
N146	N	0.889274	-0.001027	0.806210
H147	H	0.359468	-0.535253	0.269688
H148	H	0.859468	-0.035253	0.769688
H149	H	1.234177	-0.271427	1.079951
H150	H	1.734177	0.228573	1.579951
H151	H	0.444031	-0.271700	0.472700
H152	H	0.944031	0.228300	0.972700
N153	N	0.993772	-0.805547	0.340852
N154	N	1.493772	-0.305547	0.840852
N155	N	0.964386	-0.821404	0.275381
N156	N	1.464386	-0.321404	0.775381
H157	H	0.910382	-0.802207	0.260822
H158	H	1.410382	-0.302207	0.760822
H159	H	1.275438	-0.903677	0.416612
H160	H	1.775438	-0.403677	0.916612
N161	N	0.850008	-0.261850	0.483150
N162	N	1.350008	0.238150	0.983150
N163	N	0.923711	-0.261848	0.483132
N164	N	1.423711	0.238152	0.983132
H165	H	0.953519	-0.227622	0.519653
H166	H	1.453519	0.272378	1.019653
N167	N	1.102675	-0.909411	0.232201
N168	N	1.602675	-0.409411	0.732201
N169	N	1.144656	-0.893606	0.174021
N170	N	1.644656	-0.393606	0.674021
H171	H	1.130246	-0.912869	0.119980
H172	H	1.630246	-0.412869	0.619980
N173	N	1.251259	-0.805519	0.272171
N174	N	1.751259	-0.305519	0.772171
N175	N	1.322638	-0.821323	0.279504
N176	N	1.822638	-0.321323	0.779504
H177	H	1.362257	-0.802131	0.240026
H178	H	1.862257	-0.302131	0.740026
N179	N	0.559163	-0.501107	0.227815
N180	N	1.059163	-0.001107	0.727815
N181	N	0.568361	-0.496102	0.154887
N182	N	1.068361	0.003898	0.654887
H183	H	0.538568	-0.530324	0.118350
H184	H	1.038568	-0.030324	0.618350
N185	N	1.040095	-0.453659	0.673904
N186	N	1.540095	0.046341	1.173904
N187	N	0.989730	-0.427533	0.627847
N188	N	1.489730	0.072467	1.127847
H189	H	0.953236	-0.461792	0.598051
H190	H	1.453236	0.038208	1.098051
H191	H	1.284721	-0.223965	0.956145
H192	H	1.784721	0.276035	1.456145
N193	N	0.726037	-0.501096	0.227825
N194	N	1.226037	-0.001096	0.727825
N195	N	0.799740	-0.501081	0.227827
N196	N	1.299740	-0.001081	0.727827
H197	H	0.829508	-0.535301	0.191301
H198	H	1.329508	-0.035301	0.691301
H199	H	1.000040	-0.491290	0.806273
H200	H	1.500040	0.008710	1.306273
N201	N	0.726215	-0.214416	0.533797
N202	N	1.226215	0.285584	1.033797
N203	N	0.799919	-0.214422	0.533784
N204	N	1.299919	0.285578	1.033784
H205	H	0.829729	-0.180197	0.570304
H206	H	1.329729	0.319803	1.070304
N207	N	1.182160	-0.805450	0.529534
N208	N	1.682160	-0.305450	1.029534
N209	N	1.185478	-0.737241	0.541867
N210	N	1.685478	-0.237241	1.041867
H211	H	1.199966	-0.718049	0.595915
H212	H	1.699966	-0.218049	1.095915
H213	H	1.000077	-0.491252	0.956051
H214	H	1.500077	0.008748	1.456051
H215	H	0.567888	-0.224248	0.523337
H216	H	1.067888	0.275752	1.023337
N217	N	1.040199	-0.453567	1.088448
N218	N	1.540199	0.046433	1.588448
N219	N	1.040216	-0.453542	1.162152
N220	N	1.540216	0.046458	1.662152
H221	H	1.003737	-0.487788	1.191923
H222	H	1.503737	0.012212	1.691923
N223	N	1.295175	-0.214145	0.797841
N224	N	1.795175	0.285855	1.297841
N225	N	1.340334	-0.171741	0.834718
N226	N	1.840334	0.328259	1.334718
H227	H	1.376817	-0.137484	0.804965
H228	H	1.876817	0.362516	1.304965
N229	N	1.244564	-0.261668	0.673996
N230	N	1.744564	0.238332	1.173996
N231	N	1.289727	-0.219266	0.710872
N232	N	1.789727	0.280734	1.210872
H233	H	1.326212	-0.185012	0.681118
H234	H	1.826212	0.314988	1.181118
