data_functionalizedCrystal
_audit_creation_method	'MofGen! by Chris Wilmer'
_symmetry_space_group_name_H-M	'P1'
_symmetry_Int_Tables_number	1
_symmetry_cell_setting	triclinic
loop_
_symmetry_equiv_pos_as_xyz
  x,y,z
_cell_length_a	16.109302
_cell_length_b	16.109301
_cell_length_c	15.186229
_cell_angle_alpha	89.996245
_cell_angle_beta	89.994701
_cell_angle_gamma	83.461682
loop_
_atom_site_label
_atom_site_type_symbol
_atom_site_fract_x
_atom_site_fract_y
_atom_site_fract_z
O1	O	1.103130	0.106869	-0.073268
O2	O	1.436464	0.440202	0.260065
O3	O	1.769797	0.773536	0.593399
O4	O	0.861068	0.120168	-0.073261
O5	O	1.194402	0.453501	0.260072
O6	O	1.527735	0.786834	0.593405
O7	O	0.988749	-0.007513	-0.073259
O8	O	1.322082	0.325821	0.260074
O9	O	1.655416	0.659154	0.593408
O10	O	0.975450	0.234549	-0.073270
O11	O	1.308783	0.567883	0.260063
O12	O	1.642117	0.901216	0.593396
O13	O	0.988740	-0.007514	0.073198
O14	O	1.322074	0.325819	0.406532
O15	O	1.655407	0.659152	0.739865
O16	O	0.861060	0.120166	0.073196
O17	O	1.194393	0.453499	0.406529
O18	O	1.527727	0.786832	0.739863
O19	O	1.103122	0.106867	0.073189
O20	O	1.436455	0.440200	0.406522
O21	O	1.769788	0.773534	0.739856
Zn22	Zn	0.982090	0.113516	0.096446
Zn23	Zn	1.315423	0.446850	0.429779
Zn24	Zn	1.648756	0.780183	0.763113
Zn25	Zn	0.982101	0.113519	-0.096518
Zn26	Zn	1.315434	0.446852	0.236815
Zn27	Zn	1.648767	0.780185	0.570149
O28	O	0.975441	0.234547	0.073187
O29	O	1.308775	0.567881	0.406520
O30	O	1.642108	0.901214	0.739854
C31	C	0.988206	-0.038488	-0.000031
C32	C	1.321539	0.294845	0.333303
C33	C	1.654873	0.628178	0.666636
C34	C	0.986591	-0.130784	-0.000032
C35	C	1.319924	0.202550	0.333301
C36	C	1.653257	0.535883	0.666635
C37	C	0.830089	0.119628	-0.000032
C38	C	1.163423	0.452961	0.333302
C39	C	1.496756	0.786295	0.666635
C40	C	0.737794	0.118013	-0.000029
C41	C	1.071127	0.451346	0.333304
C42	C	1.404461	0.784679	0.666638
C43	C	1.057074	-0.439782	-0.000049
C44	C	1.390407	-0.106448	0.333284
C45	C	1.723740	0.226885	0.666618
C46	C	1.058599	-0.353062	-0.000044
C47	C	1.391933	-0.019728	0.333289
C48	C	1.725266	0.313605	0.666623
C49	C	0.907111	-0.333189	-0.000028
C50	C	1.240444	0.000145	0.333305
C51	C	1.573777	0.333478	0.666639
C52	C	0.905586	-0.419907	-0.000027
C53	C	1.238919	-0.086574	0.333307
C54	C	1.572253	0.246759	0.666640
C55	C	0.980570	-0.473202	-0.000042
C56	C	1.313904	-0.139869	0.333292
C57	C	1.647237	0.193465	0.666625
C58	C	0.983620	-0.299763	-0.000038
C59	C	1.316953	0.033570	0.333295
C60	C	1.650287	0.366904	0.666629
C61	C	0.985273	-0.205737	-0.000033
C62	C	1.318607	0.127596	0.333301
C63	C	1.651940	0.460930	0.666634
C64	C	0.978917	-0.567234	-0.000046
C65	C	1.312250	-0.233901	0.333288
C66	C	1.645584	0.099433	0.666621
C67	C	0.525448	0.114276	0.079796
C68	C	0.858782	0.447610	0.413130
C69	C	1.192115	0.780943	0.746463
C70	C	0.438728	0.112750	0.079793
C71	C	0.772062	0.446083	0.413127
C72	C	1.105395	0.779416	0.746460
C73	C	0.438748	0.112756	-0.079882
C74	C	0.772082	0.446089	0.253451
C75	C	1.105415	0.779423	0.586784
C76	C	0.525467	0.114277	-0.079878
C77	C	0.858801	0.447610	0.253455
C78	C	1.192134	0.780943	0.586788
C79	C	0.568815	0.115041	-0.000036
C80	C	0.902148	0.448374	0.333297
C81	C	1.235481	0.781708	0.666630
C82	C	0.395375	0.111994	-0.000043
C83	C	0.728709	0.445327	0.333290
C84	C	1.062042	0.778660	0.666623
C85	C	0.301350	0.110338	-0.000047
C86	C	0.634683	0.443672	0.333286
C87	C	0.968016	0.777005	0.666619
C88	C	0.662847	0.116695	-0.000032
C89	C	0.996180	0.450028	0.333301
C90	C	1.329513	0.783362	0.666634
C91	C	1.134101	0.107407	-0.000042
C92	C	1.467434	0.440740	0.333291
C93	C	1.800768	0.774073	0.666624
C94	C	1.226396	0.109022	-0.000051
C95	C	1.559730	0.442356	0.333282
C96	C	1.893063	0.775689	0.666616
C97	C	0.975984	0.265523	-0.000043
C98	C	1.309318	0.598857	0.333290
C99	C	1.642651	0.932190	0.666623
C100	C	0.977600	0.357819	-0.000048
C101	C	1.310933	0.691152	0.333285
C102	C	1.644266	1.024485	0.666619
N103	N	0.982088	0.113514	0.228139
N104	N	1.315421	0.446847	0.561472
N105	N	1.648755	0.780181	0.894805
N106	N	0.982109	0.113514	-0.228211
N107	N	1.315442	0.446847	0.105123
N108	N	1.648776	0.780181	0.438456
C109	C	1.038644	0.056996	0.453862
C110	C	1.371977	0.390330	0.787196
C111	C	1.705311	0.723663	1.120529
C112	C	1.038647	0.056994	0.546052
C113	C	1.371980	0.390328	0.879385
C114	C	1.705313	0.723661	1.212719
C115	C	0.925547	0.170035	0.546059
C116	C	1.258880	0.503368	0.879392
C117	C	1.592213	0.836701	1.212726
C118	C	0.925541	0.170032	0.453871
C119	C	1.258874	0.503365	0.787204
C120	C	1.592207	0.836699	1.120538
C121	C	0.982094	0.113514	0.407775
C122	C	1.315427	0.446847	0.741108
C123	C	1.648761	0.780180	1.074442
C124	C	0.982103	0.113514	0.592153
C125	C	1.315436	0.446848	0.925486
C126	C	1.648769	0.780181	1.258819
C127	C	0.982105	0.113513	0.692109
C128	C	1.315438	0.446846	1.025442
C129	C	1.648772	0.780179	1.358776
C130	C	0.982091	0.113514	0.307813
C131	C	1.315424	0.446847	0.641146
C132	C	1.648758	0.780181	0.974479
H133	H	1.118131	-0.483172	-0.000061
H134	H	1.451464	-0.149839	0.333272
H135	H	1.784798	0.183494	0.666605
Cl136	Cl	0.579990	0.115232	-0.180248
Cl137	Cl	0.913324	0.448565	0.153085
Cl138	Cl	1.246657	0.781898	0.486418
Cl139	Cl	0.579940	0.115232	0.180169
Cl140	Cl	0.913273	0.448565	0.513502
Cl141	Cl	1.246607	0.781899	0.846835
H142	H	1.084692	0.010975	0.416333
H143	H	1.418025	0.344308	0.749666
H144	H	1.751359	0.677641	1.083000
Cl145	Cl	1.109739	-0.014061	0.603988
Cl146	Cl	1.443073	0.319272	0.937321
Cl147	Cl	1.776406	0.652606	1.270654
H148	H	0.879503	0.216052	0.583600
H149	H	1.212837	0.549385	0.916933
H150	H	1.546170	0.882718	1.250266
H151	H	0.879487	0.216056	0.416344
H152	H	1.212820	0.549389	0.749678
H153	H	1.546154	0.882722	1.083011
H154	H	0.843284	-0.447118	-0.000017
H155	H	1.176617	-0.113784	0.333316
H156	H	1.509951	0.219549	0.666650
H157	H	1.120896	-0.325856	-0.000049
H158	H	1.454229	0.007478	0.333285
H159	H	1.787563	0.340811	0.666618
Cl160	Cl	0.384214	0.111790	0.180160
Cl161	Cl	0.717548	0.445123	0.513493
Cl162	Cl	1.050881	0.778456	0.846826
Cl163	Cl	0.384251	0.111775	-0.180249
Cl164	Cl	0.717584	0.445108	0.153084
Cl165	Cl	1.050918	0.778441	0.486417
Cl166	Cl	0.812850	-0.266185	-0.000017
Cl167	Cl	1.146184	0.067149	0.333317
Cl168	Cl	1.479517	0.400482	0.666650
