data_functionalizedCrystal
_audit_creation_method	'MofGen! by Chris Wilmer'
_symmetry_space_group_name_H-M	'P1'
_symmetry_Int_Tables_number	1
_symmetry_cell_setting	triclinic
loop_
_symmetry_equiv_pos_as_xyz
  x,y,z
_cell_length_a	16.109301
_cell_length_b	15.186229
_cell_length_c	16.109301
_cell_angle_alpha	90.005167
_cell_angle_beta	83.461532
_cell_angle_gamma	90.000994
loop_
_atom_site_label
_atom_site_type_symbol
_atom_site_fract_x
_atom_site_fract_y
_atom_site_fract_z
O1	O	1.103130	0.073183	0.106867
O2	O	1.353130	0.323183	0.356867
O3	O	1.603130	0.573183	0.606867
O4	O	1.853130	0.823183	0.856867
O5	O	0.861069	0.073196	0.120166
O6	O	1.111069	0.323196	0.370166
O7	O	1.361069	0.573196	0.620166
O8	O	1.611069	0.823196	0.870166
O9	O	0.988749	0.073180	-0.007514
O10	O	1.238749	0.323180	0.242486
O11	O	1.488749	0.573180	0.492486
O12	O	1.738749	0.823180	0.742486
O13	O	0.975450	0.073199	0.234548
O14	O	1.225450	0.323199	0.484548
O15	O	1.475450	0.573199	0.734548
O16	O	1.725450	0.823199	0.984548
O17	O	0.988741	-0.073277	-0.007516
O18	O	1.238741	0.176723	0.242484
O19	O	1.488741	0.426723	0.492484
O20	O	1.738741	0.676723	0.742484
O21	O	0.861060	-0.073262	0.120164
O22	O	1.111060	0.176738	0.370164
O23	O	1.361060	0.426738	0.620164
O24	O	1.611060	0.676738	0.870164
O25	O	1.103122	-0.073274	0.106865
O26	O	1.353122	0.176726	0.356865
O27	O	1.603122	0.426726	0.606865
O28	O	1.853122	0.676726	0.856865
Zn29	Zn	0.982090	-0.096521	0.113515
Zn30	Zn	1.232090	0.153479	0.363515
Zn31	Zn	1.482090	0.403479	0.613515
Zn32	Zn	1.732090	0.653479	0.863515
Zn33	Zn	0.982101	0.096443	0.113517
Zn34	Zn	1.232101	0.346443	0.363517
Zn35	Zn	1.482101	0.596443	0.613517
Zn36	Zn	1.732101	0.846443	0.863517
O37	O	0.975441	-0.073259	0.234546
O38	O	1.225441	0.176741	0.484546
O39	O	1.475441	0.426741	0.734546
O40	O	1.725441	0.676741	0.984546
C41	C	0.830089	-0.000031	0.119627
C42	C	1.080089	0.249969	0.369627
C43	C	1.330089	0.499969	0.619627
C44	C	1.580089	0.749969	0.869627
C45	C	0.737794	-0.000027	0.118011
C46	C	0.987794	0.249973	0.368011
C47	C	1.237794	0.499973	0.618011
C48	C	1.487794	0.749973	0.868011
N49	N	0.982088	-0.228214	0.113512
N50	N	1.232088	0.021786	0.363512
N51	N	1.482088	0.271786	0.613512
N52	N	1.732088	0.521786	0.863512
C53	C	0.428796	-0.000037	0.188494
C54	C	0.678796	0.249963	0.438494
C55	C	0.928796	0.499963	0.688494
C56	C	1.178796	0.749963	0.938494
C57	C	0.515516	-0.000032	0.190020
C58	C	0.765516	0.249968	0.440020
C59	C	1.015516	0.499968	0.690020
C60	C	1.265516	0.749968	0.940020
C61	C	0.535389	-0.000031	0.038531
C62	C	0.785389	0.249969	0.288531
C63	C	1.035389	0.499969	0.538531
C64	C	1.285389	0.749969	0.788531
C65	C	0.448671	-0.000030	0.037007
C66	C	0.698671	0.249970	0.287007
C67	C	0.948671	0.499970	0.537007
C68	C	1.198671	0.749970	0.787007
C69	C	0.395376	-0.000037	0.111991
C70	C	0.645376	0.249963	0.361991
C71	C	0.895376	0.499963	0.611991
C72	C	1.145376	0.749963	0.861991
C73	C	0.568815	-0.000033	0.115041
C74	C	0.818815	0.249967	0.365041
C75	C	1.068815	0.499967	0.615041
C76	C	1.318815	0.749967	0.865041
C77	C	0.662841	-0.000028	0.116694
C78	C	0.912841	0.249972	0.366694
C79	C	1.162841	0.499972	0.616694
C80	C	1.412841	0.749972	0.866694
C81	C	0.301344	-0.000041	0.110338
C82	C	0.551344	0.249959	0.360338
C83	C	0.801344	0.499959	0.610338
C84	C	1.051344	0.749959	0.860338
C85	C	1.038644	-0.453944	0.056994
C86	C	1.288644	-0.203944	0.306994
C87	C	1.538644	0.046056	0.556994
C88	C	1.788644	0.296056	0.806994
C89	C	1.038647	-0.546133	0.056992
C90	C	1.288647	-0.296133	0.306992
C91	C	1.538647	-0.046133	0.556992
C92	C	1.788647	0.203867	0.806992
C93	C	0.925547	-0.546128	0.170033
C94	C	1.175547	-0.296128	0.420033
C95	C	1.425547	-0.046128	0.670033
C96	C	1.675547	0.203872	0.920033
C97	C	0.925541	-0.453940	0.170030
C98	C	1.175541	-0.203940	0.420030
C99	C	1.425541	0.046060	0.670030
C100	C	1.675541	0.296060	0.920030
C101	C	0.982094	-0.407850	0.113512
C102	C	1.232094	-0.157850	0.363512
C103	C	1.482094	0.092150	0.613512
C104	C	1.732094	0.342150	0.863512
C105	C	0.982103	-0.592228	0.113513
C106	C	1.232103	-0.342228	0.363513
C107	C	1.482103	-0.092228	0.613513
C108	C	1.732103	0.157772	0.863513
C109	C	0.982105	-0.692184	0.113511
C110	C	1.232105	-0.442184	0.363511
C111	C	1.482105	-0.192184	0.613511
C112	C	1.732105	0.057816	0.863511
C113	C	0.982091	-0.307888	0.113512
C114	C	1.232091	-0.057888	0.363512
C115	C	1.482091	0.192112	0.613512
C116	C	1.732091	0.442112	0.863512
C117	C	1.134101	-0.000045	0.107405
C118	C	1.384101	0.249955	0.357405
C119	C	1.634101	0.499955	0.607405
C120	C	1.884101	0.749955	0.857405
C121	C	1.226396	-0.000044	0.109020
C122	C	1.476396	0.249956	0.359020
C123	C	1.726396	0.499956	0.609020
C124	C	1.976396	0.749956	0.859020
C125	C	0.988206	-0.000049	-0.038490
C126	C	1.238206	0.249951	0.211510
C127	C	1.488206	0.499951	0.461510
C128	C	1.738206	0.749951	0.711510
C129	C	0.986591	-0.000050	-0.130785
C130	C	1.236591	0.249950	0.119215
C131	C	1.486591	0.499950	0.369215
C132	C	1.736591	0.749950	0.619215
N133	N	0.982109	0.228135	0.113512
N134	N	1.232109	0.478135	0.363512
N135	N	1.482109	0.728135	0.613512
N136	N	1.732109	0.978135	0.863512
C137	C	1.058599	-0.000040	-0.353058
C138	C	1.308599	0.249960	-0.103058
C139	C	1.558599	0.499960	0.146942
C140	C	1.808599	0.749960	0.396942
C141	C	1.057075	-0.000033	-0.439778
C142	C	1.307075	0.249967	-0.189778
C143	C	1.557075	0.499967	0.060222
C144	C	1.807075	0.749967	0.310222
C145	C	0.905586	-0.000028	-0.419904
C146	C	1.155586	0.249972	-0.169904
C147	C	1.405586	0.499972	0.080096
C148	C	1.655586	0.749972	0.330096
C149	C	0.907111	-0.000029	-0.333185
C150	C	1.157111	0.249971	-0.083185
C151	C	1.407111	0.499971	0.166815
C152	C	1.657111	0.749971	0.416815
C153	C	0.983620	-0.000040	-0.299765
C154	C	1.233620	0.249960	-0.049765
C155	C	1.483620	0.499960	0.200235
C156	C	1.733620	0.749960	0.450235
C157	C	0.980571	-0.000031	-0.473204
C158	C	1.230571	0.249969	-0.223204
C159	C	1.480571	0.499969	0.026796
C160	C	1.730571	0.749969	0.276796
C161	C	0.978918	-0.000023	-0.567230
C162	C	1.228918	0.249977	-0.317230
C163	C	1.478918	0.499977	-0.067230
C164	C	1.728918	0.749977	0.182770
C165	C	0.985273	-0.000046	-0.205733
C166	C	1.235273	0.249954	0.044267
C167	C	1.485273	0.499954	0.294267
C168	C	1.735273	0.749954	0.544267
C169	C	0.975984	-0.000028	0.265522
C170	C	1.225984	0.249972	0.515522
C171	C	1.475984	0.499972	0.765522
C172	C	1.725984	0.749972	1.015522
C173	C	0.977599	-0.000021	0.357817
C174	C	1.227599	0.249979	0.607817
C175	C	1.477599	0.499979	0.857817
C176	C	1.727599	0.749979	1.107817
H177	H	0.385405	-0.000042	0.249551
H178	H	0.635405	0.249958	0.499551
H179	H	0.885405	0.499958	0.749551
H180	H	1.135405	0.749958	0.999551
F181	F	0.413101	-0.000022	-0.044423
F182	F	0.663101	0.249978	0.205577
F183	F	0.913101	0.499978	0.455577
F184	F	1.163101	0.749978	0.705577
H185	H	1.118130	-0.000031	-0.483167
H186	H	1.368130	0.249969	-0.233167
H187	H	1.618130	0.499969	0.016833
H188	H	1.868130	0.749969	0.266833
F189	F	0.551080	-0.000027	0.271445
F190	F	0.801080	0.249973	0.521445
F191	F	1.051080	0.499973	0.771445
F192	F	1.301080	0.749973	1.021445
F193	F	0.865346	-0.404881	0.230184
F194	F	1.115346	-0.154881	0.480184
F195	F	1.365346	0.095119	0.730184
F196	F	1.615346	0.345119	0.980184
H197	H	1.084692	-0.416419	0.010973
H198	H	1.334692	-0.166419	0.260973
H199	H	1.584692	0.083581	0.510973
H200	H	1.834692	0.333581	0.760973
F201	F	0.824164	-0.000017	-0.455480
F202	F	1.074164	0.249983	-0.205480
F203	F	1.324164	0.499983	0.044520
F204	F	1.574164	0.749983	0.294520
F205	F	0.592116	-0.000030	-0.041268
F206	F	0.842116	0.249970	0.208732
F207	F	1.092116	0.499970	0.458732
F208	F	1.342116	0.749970	0.708732
H209	H	0.846050	-0.000026	-0.289791
H210	H	1.096050	0.249974	-0.039791
H211	H	1.346050	0.499974	0.210209
H212	H	1.596050	0.749974	0.460209
H213	H	1.084694	-0.583660	0.010970
H214	H	1.334694	-0.333660	0.260970
H215	H	1.584694	-0.083660	0.510970
H216	H	1.834694	0.166340	0.760970
H217	H	1.120897	-0.000047	-0.325850
H218	H	1.370897	0.249953	-0.075850
H219	H	1.620897	0.499953	0.174150
H220	H	1.870897	0.749953	0.424150
H221	H	0.879503	-0.583664	0.216050
H222	H	1.129503	-0.333664	0.466050
H223	H	1.379503	-0.083664	0.716050
H224	H	1.629503	0.166336	0.966050
