data_functionalizedCrystal
_audit_creation_method	'MofGen! by Chris Wilmer'
_symmetry_space_group_name_H-M	'P1'
_symmetry_Int_Tables_number	1
_symmetry_cell_setting	triclinic
loop_
_symmetry_equiv_pos_as_xyz
  x,y,z
_cell_length_a	18.760487
_cell_length_b	23.196402
_cell_length_c	18.760492
_cell_angle_alpha	60.000314
_cell_angle_beta	90.032780
_cell_angle_gamma	60.020943
loop_
_atom_site_label
_atom_site_type_symbol
_atom_site_fract_x
_atom_site_fract_y
_atom_site_fract_z
Zr1	Zr	0.686708	0.630997	-0.093086
O2	O	0.572901	0.751262	-0.206966
O3	O	0.721594	0.510732	-0.058180
O4	O	0.721604	0.630997	-0.206881
O5	O	0.572885	0.630997	0.059037
O6	O	0.838907	0.630997	-0.206809
O7	O	0.572890	0.630997	-0.058265
O8	O	0.838888	0.415864	0.059190
O9	O	0.572904	0.846130	-0.206961
O10	O	0.824017	0.560198	-0.043234
O11	O	0.736471	0.560199	0.044254
O12	O	0.736484	0.701795	-0.130822
O13	O	0.648938	0.701795	-0.043334
Zr14	Zr	0.873785	0.630997	0.094113
Zr15	Zr	0.873793	0.630997	-0.092971
Zr16	Zr	0.686700	0.630997	0.093998
Zr17	Zr	0.686714	0.782299	-0.093078
Zr18	Zr	0.873780	0.479695	0.094105
O19	O	0.838900	0.751262	0.059207
O20	O	0.838911	0.751262	-0.206802
O21	O	0.572889	0.751262	0.059044
O22	O	0.987592	0.510732	0.207993
O23	O	0.987604	0.510731	-0.058017
O24	O	0.721582	0.510732	0.207829
O25	O	0.987608	0.630997	-0.058010
O26	O	0.838889	0.630997	0.207908
O27	O	0.721586	0.630997	0.207836
O28	O	0.987603	0.630997	0.059292
O29	O	0.721611	0.846129	-0.206869
O30	O	0.838882	0.415865	0.207897
O31	O	0.987589	0.415864	0.207988
O32	O	0.987596	0.415864	0.059281
O33	O	0.572898	0.846130	-0.058254
O34	O	0.721605	0.846130	-0.058162
O35	O	0.824010	0.560199	0.131849
O36	O	0.911555	0.560198	0.044361
O37	O	0.824022	0.701795	-0.043227
O38	O	0.736476	0.701795	0.044261
C39	C	0.780240	0.441741	0.000504
C40	C	0.780238	0.377509	0.000500
C41	C	0.825930	0.347338	-0.045171
C42	C	0.825938	0.286977	-0.045164
C43	C	0.780238	0.256801	0.000502
C44	C	0.734544	0.286975	0.046183
C45	C	0.734544	0.347329	0.046182
C46	C	0.703696	0.194771	-0.006066
C47	C	0.703694	0.134422	-0.006071
C48	C	0.780239	0.070646	0.000511
C49	C	0.856786	0.067234	0.007081
C50	C	0.856786	0.127588	0.007080
C51	C	0.780233	0.191356	0.000509
C52	C	0.825944	-0.024976	-0.045154
C53	C	0.825955	-0.085341	-0.045141
C54	C	0.734552	-0.085337	0.046201
C55	C	0.734550	-0.024978	0.046193
C56	C	0.780244	0.005202	0.000511
C57	C	0.546232	0.630997	0.000370
C58	C	0.466810	0.630997	0.000321
C59	C	0.085302	0.704912	-0.045055
C60	C	0.176692	0.557082	0.046389
C61	C	0.251314	0.557081	0.046314
C62	C	0.242933	0.630996	0.000553
C63	C	0.159929	0.704913	-0.045133
C64	C	0.334323	0.483166	0.091992
C65	C	0.408951	0.483162	0.091918
C66	C	0.400571	0.557078	0.046161
C67	C	0.317560	0.630997	0.000474
C68	C	0.309179	0.704913	-0.045287
C69	C	0.226170	0.778833	-0.090969
C70	C	0.151548	0.778829	-0.090890
C71	C	0.475192	0.557082	0.046082
C72	C	0.383806	0.704914	-0.045365
C73	C	1.014261	0.630997	0.000658
C74	C	1.093683	0.630997	0.000706
C75	C	0.780257	0.630997	-0.233500
C76	C	0.780260	0.630997	-0.312922
C77	C	0.780253	0.820253	0.000524
C78	C	0.780255	0.884485	0.000527
C79	C	0.825929	0.557082	-0.603016
C80	C	0.734542	0.704912	-0.694455
C81	C	0.734548	0.704913	-0.619835
C82	C	0.780244	0.630997	-0.536801
C83	C	0.825934	0.557081	-0.528388
C84	C	0.688852	0.778828	-0.628242
C85	C	0.688855	0.778832	-0.553618
C86	C	0.734557	0.704916	-0.470583
C87	C	0.780249	0.630996	-0.462172
C88	C	0.825945	0.557081	-0.379138
C89	C	0.871643	0.483161	-0.370725
C90	C	0.871635	0.483165	-0.445352
C91	C	0.734564	0.704912	-0.395956
C92	C	0.825950	0.557080	-0.304509
C93	C	0.780237	0.630997	0.234527
C94	C	0.780233	0.630997	0.313950
C95	C	1.014255	0.441740	0.000647
C96	C	1.093675	0.377509	0.000693
C97	C	0.780230	0.441741	0.234517
C98	C	0.780225	0.377509	0.313936
C99	C	1.014244	0.441741	0.234661
C100	C	1.093661	0.377509	0.314129
C101	C	0.546249	0.820253	-0.233634
C102	C	0.466832	0.884485	-0.313102
C103	C	0.546239	0.820253	0.000380
C104	C	0.466819	0.884485	0.000334
C105	C	0.780263	0.820253	-0.233490
C106	C	0.780269	0.884485	-0.312909
C107	C	1.085277	0.347345	-0.045018
C108	C	1.159894	0.287000	-0.044992
C109	C	1.242907	0.256817	0.000749
C110	C	1.251303	0.286987	0.046461
C111	C	1.176687	0.347334	0.046430
C112	C	0.825916	0.347345	0.396964
C113	C	0.825907	0.287001	0.471593
C114	C	0.780212	0.256818	0.463193
C115	C	0.734515	0.286988	0.380157
C116	C	0.734519	0.347335	0.305529
C117	C	1.176662	0.347345	0.305780
C118	C	1.251289	0.287001	0.380441
C119	C	1.242914	0.256817	0.463450
C120	C	1.159905	0.286987	0.471798
C121	C	1.085279	0.347335	0.397137
C122	C	0.383831	0.914656	-0.304753
C123	C	0.309204	0.975019	-0.379414
C124	C	0.317579	1.005206	-0.462423
C125	C	0.400588	0.975032	-0.470770
C126	C	0.475214	0.914674	-0.396110
C127	C	0.475216	0.914656	0.046037
C128	C	0.400600	0.975017	0.045991
C129	C	0.317586	1.005202	0.000247
C130	C	0.309191	0.975029	-0.045461
C131	C	0.383806	0.914674	-0.045420
C132	C	0.825973	0.914649	-0.304481
C133	C	0.825995	0.974993	-0.379096
C134	C	0.780308	1.005177	-0.462139
C135	C	0.734602	0.975007	-0.470565
C136	C	0.734586	0.914659	-0.395951
H137	H	0.863154	-0.000405	-0.082348
C138	C	0.060237	0.860134	-0.141147
N139	N	-0.008541	0.921373	-0.179006
H140	H	0.407453	0.999573	0.083215
C141	C	0.876182	0.380540	0.406225
N142	N	0.914041	0.405543	0.413208
H143	H	1.153099	0.262403	0.539394
C144	C	0.217902	1.008198	-0.370213
N145	N	0.149135	1.033187	-0.363279
C146	C	0.235515	1.071592	0.000215
N147	N	0.173702	1.121594	0.000197
H148	H	0.908844	0.422979	-0.303110
C149	C	1.324978	0.190427	0.000781
N150	N	1.386792	0.140419	0.000806
H151	H	0.863138	0.496898	-0.596171
H152	H	0.863168	-0.109910	-0.082328
C153	C	0.235479	1.071595	-0.544544
N154	N	0.173639	1.121596	-0.606394
H155	H	0.407397	0.999618	-0.538365
C156	C	0.374598	0.881468	-0.213449
N157	N	0.367635	0.856479	-0.144682
H158	H	1.153041	0.262443	-0.082216
C159	C	0.780225	0.190426	0.545295
N160	N	0.780243	0.140416	0.607137
H161	H	0.241592	0.999616	-0.082705
C162	C	0.566513	0.881483	-0.405309
N163	N	0.635279	0.856484	-0.412244
H164	H	0.376957	0.890111	-0.082634
C165	C	0.876272	1.008173	-0.369808
N166	N	0.914140	1.033163	-0.362809
C167	C	-0.006006	0.786221	-0.095307
N168	N	-0.074781	0.847463	-0.133160
H169	H	0.651647	0.839006	-0.695851
H170	H	1.017699	0.371886	0.403947
C171	C	0.876202	0.253785	-0.095410
N172	N	0.914060	0.228788	-0.133257
H173	H	0.863122	0.262444	0.539198
H174	H	0.863177	0.890083	-0.236870
C175	C	0.940994	-0.002920	0.014327
N176	N	1.004417	-0.055762	0.019783
C177	C	0.185907	0.475780	0.096720
N178	N	0.192846	0.414540	0.134634
H179	H	1.318902	0.262403	0.083702
H180	H	0.697311	0.262404	0.373330
H181	H	0.780328	1.054316	-0.522887
C182	C	0.566524	0.881467	0.096358
N183	N	0.635295	0.856477	0.134257
H184	H	0.697405	0.999592	-0.538188
H185	H	0.697315	0.371886	0.237927
H186	H	0.697364	0.890106	-0.402825
H187	H	0.219355	0.839015	-0.128232
H188	H	1.318873	0.262442	0.373629
C189	C	0.876204	0.380525	-0.095414
N190	N	0.914073	0.405520	-0.133255
H191	H	1.183536	0.371886	0.083658
H192	H	0.341139	0.422988	0.129248
C193	C	0.500255	0.401848	0.142175
N194	N	0.569026	0.340603	0.180032
H195	H	0.919114	0.124806	0.012432
H196	H	1.303687	0.207679	0.524237
C197	C	0.684295	0.008203	0.096446
N198	N	0.646448	0.033187	0.134306
H199	H	0.697335	0.765090	-0.762064
C200	C	0.619494	0.138176	-0.013288
N201	N	0.556073	0.141003	-0.018719
C202	C	0.619486	0.264923	-0.013306
N203	N	0.556060	0.317759	-0.018758
H204	H	0.697342	-0.109906	0.083383
H205	H	0.697335	0.262401	0.083366
H206	H	0.697351	0.765097	-0.402809
C207	C	0.566495	0.475775	0.096329
N208	N	0.635267	0.414529	0.134180
H209	H	0.651646	0.839023	-0.560477
H210	H	0.697334	0.371895	0.083373
H211	H	0.376971	0.765106	-0.082620
H212	H	0.863165	0.496888	-0.236902
H213	H	0.908841	0.422983	-0.438511
H214	H	1.183498	0.371911	0.238197
H215	H	1.017691	0.371919	-0.082276
