data_functionalizedCrystal
_audit_creation_method	'MofGen! by Chris Wilmer'
_symmetry_space_group_name_H-M	'P1'
_symmetry_Int_Tables_number	1
_symmetry_cell_setting	triclinic
loop_
_symmetry_equiv_pos_as_xyz
  x,y,z
_cell_length_a	6.394989
_cell_length_b	10.723023
_cell_length_c	9.798715
_cell_angle_alpha	89.996449
_cell_angle_beta	89.999935
_cell_angle_gamma	85.482629
loop_
_atom_site_label
_atom_site_type_symbol
_atom_site_fract_x
_atom_site_fract_y
_atom_site_fract_z
O1	O	0.293014	1.660298	-0.113477
O2	O	0.321064	1.297443	-0.113480
O3	O	0.003048	1.484021	-0.113480
O4	O	0.611029	1.473720	-0.113477
O5	O	0.003047	1.484006	0.113502
O6	O	0.321063	1.297429	0.113502
O7	O	0.293013	1.660283	0.113505
Zn8	Zn	0.307038	1.478854	0.149542
Zn9	Zn	0.307039	1.478873	-0.149517
O10	O	0.611028	1.473706	0.113505
C11	C	0.319022	1.250914	0.000011
C12	C	0.312916	1.112295	0.000009
C13	C	0.303882	0.907224	0.117588
C14	C	0.310194	1.050494	0.117592
C15	C	0.688879	1.475749	0.000008
C16	C	0.925203	1.481974	0.000004
C17	C	0.295054	1.706812	0.000011
C18	C	0.301161	1.845431	0.000004
N19	N	0.307036	1.478850	0.353642
N20	N	0.307024	1.478886	-0.353617
C21	C	0.172922	1.557183	0.421418
C22	C	0.172914	1.557203	0.578581
H23	H	0.312525	1.103635	0.218260
H24	H	0.058101	1.624271	0.636866
H25	H	0.303515	0.898594	-0.100661
H26	H	0.421844	1.411796	0.411966
H27	H	0.058097	1.624228	0.363096
H28	H	0.421859	1.411823	0.588107
H29	H	0.310570	1.059163	-0.100664
H30	H	0.301552	0.854060	0.218253
