data_functionalizedCrystal
_audit_creation_method	'MofGen! by Chris Wilmer'
_symmetry_space_group_name_H-M	'P1'
_symmetry_Int_Tables_number	1
_symmetry_cell_setting	triclinic
loop_
_symmetry_equiv_pos_as_xyz
  x,y,z
_cell_length_a	23.096457
_cell_length_b	23.096457
_cell_length_c	14.560438
_cell_angle_alpha	60.000860
_cell_angle_beta	89.997951
_cell_angle_gamma	60.000185
loop_
_atom_site_label
_atom_site_type_symbol
_atom_site_fract_x
_atom_site_fract_y
_atom_site_fract_z
Zr1	Zr	0.557781	0.633740	-0.120516
O2	O	0.465335	0.754526	-0.267151
O3	O	0.586118	0.512954	-0.075570
O4	O	0.586121	0.633742	-0.267166
O5	O	0.465332	0.633736	0.075586
O6	O	0.681401	0.633744	-0.267172
O7	O	0.465332	0.633738	-0.075555
O8	O	0.681396	0.417676	0.075559
O9	O	0.465338	0.849804	-0.267145
O10	O	0.669313	0.562636	-0.056399
O11	O	0.598206	0.562634	0.056400
O12	O	0.598210	0.704846	-0.169180
O13	O	0.527103	0.704844	-0.056381
Zr14	Zr	0.709742	0.633740	0.120527
Zr15	Zr	0.709742	0.633742	-0.120525
Zr16	Zr	0.557781	0.633737	0.120536
Zr17	Zr	0.557785	0.785697	-0.120506
Zr18	Zr	0.709738	0.481782	0.120517
O19	O	0.681405	0.754526	0.075581
O20	O	0.681404	0.754529	-0.267164
O21	O	0.465335	0.754522	0.075594
O22	O	0.802188	0.512954	0.267162
O23	O	0.802187	0.512958	-0.075583
O24	O	0.586118	0.512950	0.267175
O25	O	0.802190	0.633743	-0.075575
O26	O	0.681402	0.633738	0.267178
O27	O	0.586121	0.633736	0.267183
O28	O	0.802190	0.633742	0.075566
O29	O	0.586126	0.849806	-0.267152
O30	O	0.681396	0.417674	0.267163
O31	O	0.802185	0.417676	0.267156
O32	O	0.802185	0.417678	0.075552
O33	O	0.465338	0.849802	-0.075541
O34	O	0.586127	0.849804	-0.075548
O35	O	0.669313	0.562634	0.169191
O36	O	0.740420	0.562636	0.056392
O37	O	0.669316	0.704846	-0.056389
O38	O	0.598210	0.704844	0.056410
C39	C	0.633757	0.443664	-0.000007
C40	C	0.633755	0.379154	-0.000011
C41	C	0.670867	0.348855	-0.058895
C42	C	0.670874	0.288232	-0.058886
C43	C	0.633755	0.257924	-0.000008
C44	C	0.596641	0.288228	0.058889
C45	C	0.596641	0.348843	0.058887
N46	N	0.573351	0.195527	-0.008169
N47	N	0.573352	0.137946	-0.008173
C48	C	0.633754	0.075292	0.000002
N49	N	0.694154	0.072401	0.008161
N50	N	0.694151	0.129989	0.008159
C51	C	0.633751	0.192196	0.000001
C52	C	0.670877	-0.020742	-0.058875
C53	C	0.670886	-0.081369	-0.058857
C54	C	0.596647	-0.081367	0.058910
C55	C	0.596644	-0.020747	0.058900
C56	C	0.633758	0.009564	0.000002
C57	C	0.443681	0.633737	0.000017
C58	C	0.379170	0.633736	0.000020
C59	C	0.385979	0.559506	0.058880
C60	C	0.325363	0.559505	0.058885
C61	C	0.257939	0.633737	0.000008
C62	C	0.251132	0.707977	-0.058854
C63	C	0.311747	0.707976	-0.058848
N64	N	0.135145	0.688994	-0.095815
N65	N	0.077565	0.688989	-0.095819
C66	C	0.075306	0.633745	-0.000012
N67	N	0.132808	0.578492	0.095798
N68	N	0.190394	0.578494	0.095799
C69	C	0.192208	0.633747	-0.000004
C70	C	0.016392	0.559509	0.058859
C71	C	-0.044226	0.559511	0.058867
C72	C	-0.118457	0.707985	-0.058883
C73	C	-0.057840	0.707981	-0.058881
C74	C	0.009583	0.633741	-0.000012
C75	C	0.823842	0.633743	-0.000005
C76	C	0.888353	0.633744	-0.000009
C77	C	0.633761	0.633743	-0.301514
C78	C	0.633761	0.633744	-0.403847
C79	C	0.633766	0.823815	0.000018
C80	C	0.633768	0.888325	0.000023
C81	C	0.596643	0.707975	-0.510794
C82	C	0.596645	0.707971	-0.606942
C83	C	0.670884	0.559499	-0.489184
C84	C	0.670886	0.559504	-0.393037
C85	C	0.553779	0.793694	-0.578782
C86	C	0.553781	0.793690	-0.674930
C87	C	0.633762	0.633737	0.301525
C88	C	0.633762	0.633735	0.403858
C89	C	0.823837	0.443668	-0.000018
C90	C	0.888347	0.379159	-0.000026
C91	C	0.633757	0.443661	0.301512
C92	C	0.633755	0.379150	0.403841
C93	C	0.823837	0.443664	0.301501
C94	C	0.888347	0.379154	0.403826
C95	C	0.443686	0.823815	-0.301490
C96	C	0.379176	0.888325	-0.403815
C97	C	0.443686	0.823812	0.000029
C98	C	0.379176	0.888321	0.000037
C99	C	0.633766	0.823819	-0.301501
C100	C	0.633768	0.888330	-0.403830
C101	C	0.881524	0.348865	-0.058916
C102	C	0.942132	0.288260	-0.058946
C103	C	1.009562	0.257947	-0.000079
C104	C	1.016383	0.288247	0.058812
C105	C	0.955776	0.348854	0.058835
C106	C	0.670871	0.348855	0.510781
C107	C	0.670867	0.288249	0.606939
C108	C	0.633750	0.257934	0.596154
C109	C	0.596630	0.288235	0.489203
C110	C	0.596630	0.348845	0.393047
C111	C	0.955765	0.348861	0.392999
C112	C	1.016385	0.288256	0.489135
C113	C	1.009585	0.257940	0.596097
C114	C	0.942160	0.288240	0.606922
C115	C	0.881542	0.348848	0.510787
C116	C	0.311758	0.918626	-0.392988
C117	C	0.251138	0.979250	-0.489124
C118	C	0.257938	1.009569	-0.596086
C119	C	0.325363	0.979265	-0.606910
C120	C	0.385981	0.918646	-0.510776
C121	C	0.385998	0.918621	0.058917
C122	C	0.325390	0.979242	0.058920
C123	C	0.257960	1.009558	0.000050
C124	C	0.251139	0.979255	-0.058836
C125	C	0.311747	0.918639	-0.058846
C126	C	0.670891	0.918625	-0.393009
C127	C	0.670907	0.979232	-0.489148
C128	C	0.633794	1.009546	-0.596108
C129	C	0.596669	0.979245	-0.606926
C130	C	0.596658	0.918635	-0.510788
H131	H	0.701100	0.003936	-0.106829
H132	H	0.306197	0.768425	-0.106776
C133	C	0.176960	1.012600	-0.123571
N134	N	0.121086	1.037711	-0.172318
H135	H	0.701112	-0.106043	-0.106803
C136	C	0.304230	0.885306	-0.123607
N137	N	0.298563	0.860201	-0.172386
H138	H	0.330908	0.499056	0.106817
H139	H	0.497027	0.826597	-0.727119
H140	H	0.577620	0.826611	-0.578803
C141	C	0.963262	0.382201	0.275350
N142	N	0.968914	0.407313	0.186739
H143	H	0.961341	0.373512	0.106796
H144	H	0.826625	0.373545	-0.106866
C145	C	0.555876	1.012571	-0.724592
N146	N	0.525159	1.037666	-0.813221
C147	C	0.460166	0.885289	0.123677
N148	N	0.516027	0.860192	0.172451
H149	H	0.208573	1.058928	-0.674356
H150	H	0.566410	0.263544	0.480438
C151	C	0.711726	0.885286	-0.275362
N152	N	0.742490	0.860174	-0.186753
H153	H	1.058950	0.208589	0.674367
H154	H	0.498903	0.820293	-0.570049
C155	C	0.176964	0.789633	-0.123624
N156	N	0.121099	0.851140	-0.172409
H157	H	0.071291	0.499058	0.106817
C158	C	0.176978	1.012571	-0.477191
N159	N	0.121121	1.037667	-0.468201
H160	H	0.701137	1.003896	-0.480318
H161	H	0.566424	0.893976	-0.519614
H162	H	0.330958	1.003905	0.106877
C163	C	0.633811	1.076221	-0.701852
N164	N	0.633826	1.126441	-0.781496
H165	H	0.440874	0.893976	-0.519605
H166	H	0.566408	0.373503	0.305975
C167	C	0.460141	0.477839	0.123647
N168	N	0.516001	0.416326	0.172432
H169	H	0.701098	0.263585	0.694014
C170	C	1.090545	0.254930	0.477203
N171	N	1.146401	0.229829	0.468212
H172	H	0.936634	0.263548	0.694023
C173	C	0.332830	1.012617	-0.724579
N174	N	0.338453	1.037734	-0.813211
H175	H	0.826649	0.373505	0.519618
C176	C	0.711724	0.477845	-0.275395
N177	N	0.742485	0.416335	-0.186784
H178	H	0.208616	1.058915	0.000067
H179	H	0.701089	0.373531	-0.106851
H180	H	0.936565	0.263597	-0.106902
H181	H	0.566424	-0.106044	0.106850
H182	H	0.306208	0.893944	-0.305903
C183	C	1.076226	0.191271	-0.000107
N184	N	1.126434	0.141048	-0.000127
H185	H	0.566419	0.263546	0.106828
C186	C	0.711700	0.254898	-0.123669
N187	N	0.742449	0.229793	-0.172465
H188	H	0.633756	0.208582	0.674459
C189	C	-0.065332	0.789641	-0.123650
N190	N	-0.070978	0.851151	-0.172438
H191	H	0.566418	0.373513	0.106838
H192	H	0.566421	0.003926	0.106845
C193	C	1.090563	0.254887	0.123570
N194	N	1.146437	0.229754	0.172353
C195	C	0.592013	0.829590	-0.743704
N196	N	0.620822	0.856614	-0.795492
C197	C	0.711714	0.477839	-0.477306
N198	N	0.742467	0.416331	-0.468357
H199	H	-0.173355	0.768427	-0.106823
H200	H	-0.038675	0.499061	0.106805
H201	H	0.701096	0.373530	0.519584
