data_functionalizedCrystal
_audit_creation_method	'MofGen! by Chris Wilmer'
_symmetry_space_group_name_H-M	'P1'
_symmetry_Int_Tables_number	1
_symmetry_cell_setting	triclinic
loop_
_symmetry_equiv_pos_as_xyz
  x,y,z
_cell_length_a	14.044220
_cell_length_b	13.101039
_cell_length_c	14.971486
_cell_angle_alpha	93.366125
_cell_angle_beta	91.598497
_cell_angle_gamma	93.659868
loop_
_atom_site_label
_atom_site_type_symbol
_atom_site_fract_x
_atom_site_fract_y
_atom_site_fract_z
O1	O	1.263154	0.085106	-0.211146
O2	O	1.763154	0.585106	0.288854
O3	O	0.987177	0.085132	-0.203363
O4	O	1.487177	0.585132	0.296637
O5	O	1.132562	0.085111	-0.077637
O6	O	1.632562	0.585111	0.422363
O7	O	1.117769	0.085127	-0.336871
O8	O	1.617769	0.585127	0.163129
O9	O	1.122131	-0.085317	-0.086674
O10	O	1.622131	0.414683	0.413326
O11	O	0.976746	-0.085296	-0.212400
O12	O	1.476746	0.414704	0.287600
O13	O	1.252723	-0.085322	-0.220183
O14	O	1.752723	0.414678	0.279817
Zn15	Zn	1.113078	-0.112368	-0.217726
Zn16	Zn	1.613078	0.387632	0.282274
Zn17	Zn	1.126822	0.112178	-0.205820
Zn18	Zn	1.626822	0.612178	0.294180
O19	O	1.107338	-0.085301	-0.345908
O20	O	1.607338	0.414699	0.154092
C21	C	0.946644	-0.000079	-0.204474
C22	C	1.446644	0.499921	0.295526
C23	C	0.841407	-0.000069	-0.194313
C24	C	1.341407	0.499931	0.305687
N25	N	1.103706	-0.265615	-0.225852
N26	N	1.603706	0.234385	0.274148
C27	C	1.090954	-0.474656	-0.236916
C28	C	1.590954	0.025344	0.263084
C29	C	1.148951	-0.525540	-0.186626
C30	C	1.648951	-0.025540	0.313374
C31	C	1.141855	-0.641858	-0.192782
C32	C	1.641855	-0.141858	0.307218
C33	C	1.098048	-0.358328	-0.230761
C34	C	1.598048	0.141672	0.269239
C35	C	0.648723	-0.000090	-0.175737
C36	C	1.148723	0.499910	0.324263
C37	C	0.591172	-0.000090	-0.247804
C38	C	1.091172	0.499910	0.252196
C39	C	0.483956	-0.000102	-0.237468
C40	C	0.983956	0.499898	0.262532
C41	C	0.755949	-0.000079	-0.186072
C42	C	1.255949	0.499921	0.313928
C43	C	1.293256	-0.000109	-0.219071
C44	C	1.793256	0.499891	0.280929
C45	C	1.398494	-0.000112	-0.229233
C46	C	1.898494	0.499888	0.270767
C47	C	1.126685	-0.000103	-0.048779
C48	C	1.626685	0.499897	0.451221
C49	C	1.124702	-0.000101	0.050674
C50	C	1.624702	0.499899	0.550674
N51	N	1.136202	0.265426	-0.197687
N52	N	1.636202	0.765426	0.302313
C53	C	1.113215	-0.000085	-0.374767
C54	C	1.613215	0.499915	0.125233
C55	C	1.115198	-0.000079	-0.474220
C56	C	1.615198	0.499921	0.025780
C57	C	1.210112	-0.000110	0.101171
C58	C	1.710112	0.499890	0.601171
C59	C	1.208244	-0.000100	0.194618
C60	C	1.708244	0.499900	0.694618
C61	C	1.120965	-0.000088	0.237567
C62	C	1.620965	0.499912	0.737567
C63	C	1.035549	-0.000076	0.187063
C64	C	1.535549	0.499924	0.687063
C65	C	1.037418	-0.000079	0.093618
C66	C	1.537418	0.499921	0.593618
C67	C	1.031658	-0.000072	0.381833
C68	C	1.531658	0.499928	0.881833
C69	C	1.029788	-0.000071	0.475284
C70	C	1.529788	0.499929	0.975284
C71	C	1.202484	-0.000092	0.482832
C72	C	1.702484	0.499908	0.982832
C73	C	1.204354	-0.000096	0.389387
C74	C	1.704354	0.499904	0.889387
C75	C	1.118937	-0.000086	0.338890
C76	C	1.618937	0.499914	0.838890
H77	H	1.203933	-0.481746	-0.138949
H78	H	1.703933	0.018254	0.361051
C79	C	1.373379	-0.000125	0.480902
C80	C	1.873379	0.499875	0.980902
C81	C	1.296378	-0.000102	0.538333
C82	C	1.796378	0.499898	1.038333
H83	H	1.431341	-0.000142	0.515170
H84	H	1.931341	0.499858	1.015170
H85	H	1.374159	0.059302	0.447446
H86	H	1.874159	0.559302	0.947446
H87	H	1.366865	-0.059563	0.441149
H88	H	1.866865	0.440437	0.941149
H89	H	1.302889	0.059340	0.578082
H90	H	1.802889	0.559340	1.078082
H91	H	1.295600	-0.059535	0.571804
H92	H	1.795600	0.440465	1.071804
H93	H	0.622422	-0.000081	-0.317265
H94	H	1.122422	0.499919	0.182735
C95	C	0.506956	-0.000093	-0.089754
C96	C	1.006956	0.499907	0.410246
C97	C	0.606544	-0.000090	-0.081971
C98	C	1.106544	0.499910	0.418029
H99	H	0.480911	-0.000083	-0.031866
H100	H	0.980911	0.499917	0.468134
H101	H	0.482579	-0.059525	-0.124472
H102	H	0.982579	0.440475	0.375528
H103	H	0.489841	0.059339	-0.118190
H104	H	0.989841	0.559339	0.381810
H105	H	0.623660	-0.059526	-0.053540
H106	H	1.123660	0.440474	0.446460
H107	H	0.630931	0.059349	-0.047239
H108	H	1.130931	0.559349	0.452761
H109	H	1.281184	-0.000126	0.066209
H110	H	1.781184	0.499874	0.566209
H111	H	1.277793	-0.000109	0.235728
H112	H	1.777793	0.499891	0.735728
H113	H	1.275424	-0.000113	0.354421
H114	H	1.775424	0.499887	0.854421
C115	C	1.023999	-0.639223	-0.295004
C116	C	1.523999	-0.139223	0.204996
C117	C	1.016742	-0.533768	-0.301285
C118	C	1.516742	-0.033768	0.198715
H119	H	0.978190	-0.675723	-0.334749
H120	H	1.478190	-0.175723	0.165251
H121	H	1.012467	-0.656741	-0.235415
H122	H	1.512467	-0.156741	0.264585
H123	H	1.086260	-0.656725	-0.310603
H124	H	1.586260	-0.156725	0.189397
H125	H	0.954483	-0.516266	-0.285679
H126	H	1.454483	-0.016266	0.214321
H127	H	1.028267	-0.516243	-0.360887
H128	H	1.528267	-0.016243	0.139113
H129	H	0.958717	-0.000077	0.510249
H130	H	1.458717	0.499923	1.010249
C131	C	0.860763	-0.000058	0.383753
C132	C	1.360763	0.499942	0.883753
C133	C	0.937767	-0.000063	0.326325
C134	C	1.437767	0.499937	0.826325
H135	H	0.802801	-0.000061	0.349482
H136	H	1.302801	0.499939	0.849482
H137	H	0.867262	0.059372	0.423501
H138	H	1.367262	0.559372	0.923501
H139	H	0.859996	-0.059493	0.417212
H140	H	1.359996	0.440507	0.917212
H141	H	0.938539	0.059377	0.292870
H142	H	1.438539	0.559377	0.792870
H143	H	0.931267	-0.059498	0.286560
H144	H	1.431267	0.440502	0.786560
H145	H	0.964485	-0.000060	0.222040
H146	H	1.464485	0.499940	0.722040
C147	C	0.866529	-0.000065	0.095537
C148	C	1.366529	0.499935	0.595537
C149	C	0.943533	-0.000072	0.038109
C150	C	1.443533	0.499928	0.538109
H151	H	0.808568	-0.000063	0.061266
H152	H	1.308568	0.499937	0.561266
H153	H	0.873031	0.059363	0.135288
H154	H	1.373031	0.559363	0.635288
H155	H	0.865758	-0.059502	0.128994
H156	H	1.365758	0.440498	0.628994
H157	H	0.944308	0.059369	0.004657
H158	H	1.444308	0.559369	0.504657
H159	H	0.937029	-0.059506	-0.001658
H160	H	1.437029	0.440494	0.498342
