data_functionalizedCrystal
_audit_creation_method	'MofGen! by Chris Wilmer'
_symmetry_space_group_name_H-M	'P1'
_symmetry_Int_Tables_number	1
_symmetry_cell_setting	triclinic
loop_
_symmetry_equiv_pos_as_xyz
  x,y,z
_cell_length_a	16.109301
_cell_length_b	9.065215
_cell_length_c	8.140239
_cell_angle_alpha	90.000939
_cell_angle_beta	90.004566
_cell_angle_gamma	84.238089
loop_
_atom_site_label
_atom_site_type_symbol
_atom_site_fract_x
_atom_site_fract_y
_atom_site_fract_z
O1	O	0.121893	1.957448	0.136601
O2	O	0.621893	2.457448	0.636601
O3	O	0.131895	1.527921	0.136609
O4	O	0.631895	2.027921	0.636609
O5	O	0.005954	1.754484	0.136588
O6	O	0.505954	2.254484	0.636588
O7	O	0.247835	1.730885	0.136622
O8	O	0.747835	2.230885	0.636622
O9	O	0.005953	1.754477	-0.136639
O10	O	0.505953	2.254477	0.363361
O11	O	0.131894	1.527914	-0.136619
O12	O	0.631894	2.027914	0.363381
O13	O	0.121892	1.957441	-0.136626
O14	O	0.621892	2.457441	0.363374
Zn15	Zn	0.126893	1.742676	-0.180003
Zn16	Zn	0.626893	2.242676	0.319997
Zn17	Zn	0.126894	1.742686	0.179985
Zn18	Zn	0.626894	2.242686	0.679985
O19	O	0.247834	1.730878	-0.136606
O20	O	0.747834	2.230878	0.363394
C21	C	0.130934	1.472954	-0.000004
C22	C	0.630934	1.972954	0.499996
C23	C	0.128061	1.309180	-0.000002
C24	C	0.628061	1.809180	0.499998
C25	C	-0.025029	1.753525	-0.000027
C26	C	0.474971	2.253525	0.499973
C27	C	-0.117346	1.750659	-0.000029
C28	C	0.382654	2.250659	0.499971
C29	C	-0.338638	1.878433	-0.000005
C30	C	0.161362	2.378433	0.499995
C31	C	-0.425379	1.875729	0.000008
C32	C	0.074621	2.375729	0.500008
C33	C	-0.407568	1.606919	0.000007
C34	C	0.092432	2.106919	0.500007
C35	C	-0.320829	1.609625	0.000005
C36	C	0.179171	2.109625	0.500005
C37	C	-0.286366	1.745386	-0.000009
C38	C	0.213634	2.245386	0.499991
C39	C	-0.459847	1.739976	0.000006
C40	C	0.040153	2.239976	0.500006
C41	C	-0.553895	1.737043	0.000021
C42	C	-0.053895	2.237043	0.500021
C43	C	-0.192311	1.748320	-0.000021
C44	C	0.307689	2.248320	0.499979
C45	C	0.278816	1.731838	0.000012
C46	C	0.778816	2.231838	0.500012
C47	C	0.371134	1.734703	0.000026
C48	C	0.871134	2.234703	0.500026
C49	C	0.122853	2.012408	-0.000010
C50	C	0.622853	2.512408	0.499990
C51	C	0.125726	2.176182	-0.000002
C52	C	0.625726	2.676182	0.499998
N53	N	0.126892	1.742681	-0.425686
N54	N	0.626892	2.242681	0.074314
N55	N	0.126889	1.742693	0.425668
N56	N	0.626889	2.242693	0.925668
H57	H	-0.310581	1.988978	-0.000014
H58	H	0.189419	2.488978	0.499986
H59	H	-0.435639	1.496387	0.000015
H60	H	0.064361	1.996387	0.500015
C61	C	-0.482874	2.022091	-0.000002
C62	C	0.017126	2.522091	0.499998
N63	N	-0.526180	2.132338	-0.000013
N64	N	-0.026180	2.632338	0.499987
H65	H	-0.278267	1.501276	0.000006
H66	H	0.221733	2.001276	0.500006
