data_functionalizedCrystal
_audit_creation_method	'MofGen! by Chris Wilmer'
_symmetry_space_group_name_H-M	'P1'
_symmetry_Int_Tables_number	1
_symmetry_cell_setting	triclinic
loop_
_symmetry_equiv_pos_as_xyz
  x,y,z
_cell_length_a	15.298709
_cell_length_b	12.594516
_cell_length_c	15.296720
_cell_angle_alpha	80.350686
_cell_angle_beta	72.673665
_cell_angle_gamma	99.712162
loop_
_atom_site_label
_atom_site_type_symbol
_atom_site_fract_x
_atom_site_fract_y
_atom_site_fract_z
Zn1	Zn	1.330628	-0.208880	0.280193
Zn2	Zn	1.357455	-0.349657	0.124717
Zn3	Zn	1.202044	-0.208950	0.151573
Zn4	Zn	1.175103	-0.424093	0.307028
O5	O	1.266307	-0.297895	0.215878
O6	O	1.464315	-0.196372	0.237099
O7	O	1.359341	-0.299869	-0.001846
O8	O	1.219149	-0.059987	0.168644
O9	O	1.484024	-0.299801	0.122871
O10	O	1.313619	-0.059935	0.263140
O11	O	1.245162	-0.196493	0.017885
O12	O	1.068343	-0.268671	0.194664
O13	O	1.173231	-0.426667	0.433594
O14	O	1.048549	-0.426736	0.308876
O15	O	1.287495	-0.268551	0.413879
O16	O	1.333217	-0.508485	0.148892
O17	O	1.199244	-0.563173	0.282835
C18	C	1.024705	-0.355789	0.257597
C19	C	0.921342	-0.380588	0.275467
C20	C	1.266240	-0.574450	0.215877
C21	C	1.266291	-0.692748	0.215893
C22	C	0.862521	-0.474614	0.343230
C23	C	0.765406	-0.497910	0.360028
C24	C	0.727102	-0.427187	0.309060
C25	C	0.785925	-0.333163	0.241290
C26	C	0.883049	-0.309860	0.224495
C27	C	0.747630	-0.262433	0.190325
C28	C	0.806452	-0.168409	0.122556
C29	C	0.903566	-0.145111	0.105763
C30	C	0.941870	-0.215834	0.156732
C31	C	0.650505	-0.285736	0.207120
C32	C	0.671033	-0.120982	0.088385
C33	C	0.768149	-0.097686	0.071587
C34	C	1.193479	-0.862529	0.288705
C35	C	1.274304	-0.776760	0.296872
C36	C	1.185466	-0.776953	0.207766
C37	C	1.347300	-0.817737	0.224105
C38	C	1.258411	-0.817940	0.134969
C39	C	1.339301	-0.732181	0.143094
C40	C	1.508853	-0.239775	0.173996
C41	C	1.612212	-0.215008	0.156149
C42	C	1.224366	-0.355904	0.458420
C43	C	1.206493	-0.380625	0.561777
C44	C	1.266397	-0.020259	0.215894
C45	C	1.266435	0.098053	0.215902
C46	C	1.308140	-0.240022	-0.025730
C47	C	1.326193	-0.214959	-0.129117
C48	C	1.394084	-0.121021	0.812063
C49	C	1.410882	-0.097796	0.714953
C50	C	1.359786	-0.168501	0.676654
C51	C	1.291889	-0.262436	0.735475
C52	C	1.275094	-0.285668	0.832593
C53	C	1.240796	-0.333147	0.697184
C54	C	1.172899	-0.427082	0.756005
C55	C	1.156107	-0.450310	0.853114
C56	C	1.207203	-0.379605	0.891413
C57	C	1.257591	-0.309915	0.600066
C58	C	1.138602	-0.474562	0.620596
C59	C	1.121803	-0.497787	0.717706
H60	H	0.602621	-0.362290	0.262300
Br61	Br	1.063980	-0.577811	0.932938
H62	H	1.020949	-0.196874	0.143055
Br63	Br	1.463432	-0.025087	0.864042
Br64	Br	0.595300	-0.458805	0.331858
H65	H	1.400997	-0.676103	0.081513
H66	H	0.816055	-0.021130	0.016409
H67	H	0.639847	-0.063392	0.046885
H68	H	0.717520	-0.574465	0.415206
Br69	Br	1.349736	-0.182437	0.520249
Br70	Br	1.029659	-0.625266	0.797545
Br71	Br	1.285533	-0.745790	0.410936
H72	H	1.415720	-0.836026	0.231064
Br73	Br	0.983392	-0.017490	0.013809
H74	H	1.131901	-0.918781	0.350304
Br75	Br	1.184411	-0.411126	1.023210
Br76	Br	1.247142	-0.848970	0.020941
H77	H	1.117052	-0.758546	0.200887
Br78	Br	1.503026	0.029679	0.635131
H79	H	1.373468	-0.149585	0.597582
Br80	Br	1.069261	-0.570532	0.568627
H81	H	0.893717	-0.532182	0.384726
