data_functionalizedCrystal
_audit_creation_method	'MofGen! by Chris Wilmer'
_symmetry_space_group_name_H-M	'P1'
_symmetry_Int_Tables_number	1
_symmetry_cell_setting	triclinic
loop_
_symmetry_equiv_pos_as_xyz
  x,y,z
_cell_length_a	15.995300
_cell_length_b	15.995362
_cell_length_c	15.072220
_cell_angle_alpha	90.008704
_cell_angle_beta	90.007385
_cell_angle_gamma	96.515406
loop_
_atom_site_label
_atom_site_type_symbol
_atom_site_fract_x
_atom_site_fract_y
_atom_site_fract_z
O1	O	1.111019	-0.107715	0.073804
O2	O	0.867239	-0.121087	0.073798
O3	O	0.995788	0.007487	0.073807
O4	O	0.982470	-0.236289	0.073794
O5	O	0.995771	0.007471	-0.073758
O6	O	0.867222	-0.121103	-0.073768
O7	O	1.111003	-0.107731	-0.073761
Zn8	Zn	0.989110	-0.114420	-0.097193
Zn9	Zn	0.989132	-0.114398	0.097230
O10	O	0.982454	-0.236305	-0.073771
C11	C	0.836035	-0.120549	0.000014
C12	C	0.743082	-0.118914	0.000012
C13	C	0.572899	-0.115895	0.000019
C14	C	0.525437	-0.207442	0.000012
C15	C	0.428750	-0.205772	0.000350
C16	C	0.405342	-0.112923	0.000025
C17	C	0.446483	-0.067494	0.084128
C18	C	0.543116	-0.069811	0.084196
C19	C	0.543376	-0.068474	-0.083618
C20	C	0.446432	-0.068482	-0.084721
C21	C	0.310647	-0.111239	0.000031
C22	C	0.667595	-0.117577	0.000019
C23	C	0.995227	0.038674	0.000028
C24	C	0.993571	0.131623	0.000039
C25	C	0.987624	0.469368	0.000055
C26	C	0.896072	0.421917	0.000381
C27	C	0.897728	0.325228	0.000043
C28	C	0.990574	0.301809	0.000048
C29	C	1.035720	0.342885	-0.084214
C30	C	1.033416	0.439520	-0.084279
C31	C	1.035326	0.439896	0.083530
C32	C	1.035309	0.342952	0.084638
C33	C	0.992246	0.207112	0.000040
C34	C	0.985955	0.564065	0.000057
C35	C	1.142206	-0.108269	0.000024
C36	C	1.235159	-0.109904	0.000032
N37	N	0.989101	-0.114434	-0.229882
C38	C	0.983004	0.732507	0.000025
C39	C	0.984627	0.639553	0.000064
C40	C	0.989117	-0.114414	-0.410880
C41	C	0.920322	-0.183187	-0.448554
C42	C	0.920086	-0.182999	-0.551379
C43	C	0.989132	-0.114397	-0.589084
C44	C	0.970402	-0.026930	-0.551737
C45	C	0.969900	-0.027344	-0.448880
C46	C	1.076852	-0.132320	-0.448767
C47	C	1.076273	-0.134295	-0.551632
C48	C	0.989142	-0.114381	-0.689797
C49	C	0.989105	-0.114424	-0.310166
N50	N	0.989147	-0.114378	0.229919
H51	H	0.432380	0.000730	0.087023
C52	C	0.567881	-0.114043	0.169426
H53	H	0.627039	-0.115849	0.170218
H54	H	0.540060	-0.169744	0.170917
H55	H	0.551829	-0.083819	0.219725
H56	H	0.543923	-0.244239	-0.060289
C57	C	0.390286	-0.253996	-0.081072
H58	H	0.433747	-0.274790	-0.114651
H59	H	0.361987	-0.217212	-0.116852
H60	H	0.351404	-0.299756	-0.061938
H61	H	0.545054	-0.243678	0.060229
C62	C	0.586715	0.020998	0.089067
H63	H	0.545345	0.059140	0.091002
H64	H	0.621211	0.032384	0.038217
H65	H	0.620476	0.027495	0.141012
C66	C	0.993346	0.304539	-0.168938
H67	H	1.021117	0.329801	-0.219576
H68	H	0.935922	0.314499	-0.169697
H69	H	0.996868	0.245655	-0.169814
H70	H	0.418106	-0.098626	0.146950
C71	C	1.101273	-0.216672	-0.413742
H72	H	1.058183	-0.241761	-0.375682
H73	H	1.152604	-0.207089	-0.381687
H74	H	1.108076	-0.253215	-0.462256
H75	H	0.563871	-0.098621	-0.147384
H76	H	0.419087	-0.101657	-0.146942
H77	H	0.400910	-0.241301	0.060986
H78	H	0.431090	-0.000789	-0.090045
C79	C	1.036339	0.043895	-0.584681
H80	H	1.023834	0.096218	-0.561300
H81	H	1.035208	0.045943	-0.647652
H82	H	1.090667	0.033219	-0.565386
C83	C	0.586308	0.022705	-0.084714
H84	H	0.622056	0.031862	-0.034478
H85	H	0.544654	0.060541	-0.082992
H86	H	0.618716	0.031953	-0.137340
H87	H	1.000479	0.457808	-0.147271
H88	H	1.100632	0.471779	-0.088096
C89	C	0.849775	0.286827	0.081631
H90	H	0.829101	0.330315	0.115279
H91	H	0.886674	0.258546	0.117286
H92	H	0.803946	0.247938	0.062655
C93	C	0.832136	-0.167487	-0.584656
H94	H	0.831689	-0.167327	-0.647686
H95	H	0.818873	-0.114682	-0.563327
H96	H	0.791583	-0.210896	-0.563494
H97	H	0.859484	0.440449	0.060810
C98	C	1.148651	-0.071040	-0.586286
H99	H	1.200493	-0.084577	-0.562608
H100	H	1.139682	-0.015805	-0.568421
H101	H	1.150436	-0.073722	-0.649214
H102	H	0.859633	0.441498	-0.059710
H103	H	1.103931	0.328771	-0.087345
C104	C	1.146011	-0.064586	-0.415837
H105	H	1.121582	-0.025579	-0.379177
H106	H	1.172564	-0.035876	-0.465272
H107	H	1.186543	-0.090519	-0.382724
C108	C	0.994896	0.467638	0.169812
H109	H	0.948540	0.497456	0.155730
H110	H	1.035296	0.503123	0.202720
H111	H	0.975887	0.419440	0.204206
C112	C	0.883473	-0.006117	-0.416483
H113	H	0.882404	-0.006183	-0.353461
H114	H	0.840682	-0.047000	-0.438283
H115	H	0.874018	0.047936	-0.437712
C116	C	0.990784	0.306073	0.168852
H117	H	0.945125	0.265765	0.152538
H118	H	0.970219	0.349972	0.201941
H119	H	1.029542	0.279708	0.204024
C120	C	1.035316	0.043634	-0.415198
H121	H	1.035540	0.043783	-0.352167
H122	H	1.021365	0.096275	-0.436269
H123	H	1.089490	0.034545	-0.436373
H124	H	0.861987	0.297350	-0.060467
H125	H	1.103016	0.327603	0.089729
H126	H	1.102827	0.471669	0.084102
H127	H	0.931190	-0.248006	-0.576632
C128	C	1.095491	-0.221218	-0.584602
H129	H	1.148281	-0.232895	-0.561718
H130	H	1.097378	-0.221305	-0.647595
H131	H	1.052672	-0.263085	-0.564818
H132	H	0.931234	-0.248415	-0.423833
C133	C	0.832850	-0.167904	-0.413675
H134	H	0.838074	-0.119793	-0.376255
H135	H	0.809350	-0.215640	-0.380967
H136	H	0.797167	-0.158832	-0.462292
C137	C	0.884974	-0.005165	-0.586547
H138	H	0.860613	-0.049263	-0.623829
H139	H	0.893068	0.045795	-0.619385
H140	H	0.848529	0.001380	-0.537893
