data_functionalizedCrystal
_audit_creation_method	'MofGen! by Chris Wilmer'
_symmetry_space_group_name_H-M	'P1'
_symmetry_Int_Tables_number	1
_symmetry_cell_setting	triclinic
loop_
_symmetry_equiv_pos_as_xyz
  x,y,z
_cell_length_a	17.638516
_cell_length_b	14.908783
_cell_length_c	14.909227
_cell_angle_alpha	96.415836
_cell_angle_beta	81.428491
_cell_angle_gamma	105.111969
loop_
_atom_site_label
_atom_site_type_symbol
_atom_site_fract_x
_atom_site_fract_y
_atom_site_fract_z
Zn1	Zn	-0.213385	1.366823	0.638287
Zn2	Zn	-0.353680	1.327344	0.517487
Zn3	Zn	-0.229596	1.203170	0.481720
Zn4	Zn	-0.353617	1.184792	0.660049
O5	O	-0.287569	1.270532	0.574386
O6	O	-0.225237	1.489733	0.628124
O7	O	-0.344030	1.302041	0.387556
O8	O	-0.116828	1.249092	0.478414
O9	O	-0.328311	1.460728	0.539373
O10	O	-0.104918	1.369327	0.593443
O11	O	-0.252866	1.210811	0.361279
O12	O	-0.252806	1.072584	0.499515
O13	O	-0.328205	1.217769	0.782349
O14	O	-0.343924	1.059082	0.630532
O15	O	-0.225176	1.351506	0.766360
O16	O	-0.464289	1.284220	0.560474
O17	O	-0.464243	1.179488	0.665214
C18	C	-0.300118	1.032606	0.563504
C19	C	-0.305504	0.930817	0.558875
C20	C	-0.208423	0.769729	0.642796
C21	C	-0.213480	0.674090	0.638449
C22	C	-0.320673	0.643900	0.545826
C23	C	-0.315615	0.739539	0.550174
C24	C	-0.259489	0.802450	0.598662
C25	C	-0.254435	0.898090	0.603015
C26	C	-0.361623	0.867899	0.510387
C27	C	-0.366681	0.772261	0.506040
C28	C	-0.492945	1.225602	0.619107
C29	C	-0.580800	1.206467	0.638273
C30	C	-0.869699	1.416456	0.428879
C31	C	-0.952252	1.398461	0.446902
C32	C	-0.952259	1.289298	0.555872
C33	C	-0.869705	1.307281	0.537855
C34	C	-0.828431	1.370861	0.474358
C35	C	-0.828437	1.261686	0.583334
C36	C	-0.745889	1.279671	0.565322
C37	C	-0.704610	1.343251	0.501830
C38	C	-0.745884	1.388847	0.456346
C39	C	-0.869711	1.198111	0.646836
C40	C	-0.828444	1.152516	0.692315
C41	C	-0.745895	1.170496	0.674298
C42	C	-0.704615	1.234076	0.610806
C43	C	-0.704621	1.124901	0.719782
C44	C	-0.622074	1.142886	0.701770
C45	C	-0.622068	1.252061	0.592794
C46	C	-0.081389	1.315664	0.529511
C47	C	0.006473	1.334896	0.510388
C48	C	-0.274875	1.286991	0.807722
C49	C	-0.269466	1.294005	0.907155
C50	C	-0.274972	1.509387	0.585311
C51	C	-0.269604	1.611173	0.589966
C52	C	-0.300154	1.254202	0.341948
C53	C	-0.305331	1.247414	0.242475
C54	C	-0.208206	1.373513	1.038980
C55	C	-0.213286	1.366928	0.945553
C56	C	-0.320572	1.227664	0.962192
C57	C	-0.315493	1.234249	1.055619
C58	C	-0.259307	1.307175	1.094010
C59	C	-0.254225	1.313755	1.187438
C60	C	-0.361515	1.174495	1.204076
C61	C	-0.366594	1.167911	1.110649
H62	H	-0.588462	1.303828	0.541081
H63	H	-0.171674	1.420948	0.900751
F64	F	-0.415980	0.902729	0.463419
H65	H	-0.936926	1.183474	0.661503
F66	F	-0.194423	1.391364	1.228293
F67	F	-0.380394	0.576933	0.494216
F68	F	-0.426409	0.705298	0.454435
F69	F	-0.148394	1.451109	1.079836
H70	H	-0.208735	0.949312	0.642497
F71	F	-0.616747	1.362462	0.482725
F72	F	-0.380366	1.150059	0.921319
F73	F	-0.426388	1.090302	1.069781
F74	F	-0.159127	0.639270	0.685420
F75	F	-0.701954	1.456501	0.388750
F76	F	-0.825769	1.484111	0.361283
F77	F	-0.996169	1.446995	0.398492
F78	F	-0.996193	1.221636	0.623451
H79	H	-0.862059	1.100751	0.744016
F80	F	-0.748557	1.057246	0.787367
H81	H	-0.403117	1.120470	1.248889
H82	H	-0.162726	0.820952	0.682282
F83	F	-0.578151	1.094361	0.750175
