data_functionalizedCrystal
_audit_creation_method	'MofGen! by Chris Wilmer'
_symmetry_space_group_name_H-M	'P1'
_symmetry_Int_Tables_number	1
_symmetry_cell_setting	triclinic
loop_
_symmetry_equiv_pos_as_xyz
  x,y,z
_cell_length_a	16.120530
_cell_length_b	25.639239
_cell_length_c	16.120297
_cell_angle_alpha	92.868703
_cell_angle_beta	90.128140
_cell_angle_gamma	87.134054
loop_
_atom_site_label
_atom_site_type_symbol
_atom_site_fract_x
_atom_site_fract_y
_atom_site_fract_z
Zn1	Zn	1.247330	-0.264883	-0.534536
Zn2	Zn	1.747330	0.235117	-0.034536
Zn3	Zn	1.254246	-0.348114	-0.395469
Zn4	Zn	1.754246	0.151886	0.104531
Zn5	Zn	1.115324	-0.256048	-0.388455
Zn6	Zn	1.615324	0.243952	0.111545
Zn7	Zn	1.108202	-0.347633	-0.527439
Zn8	Zn	1.608202	0.152367	-0.027439
O9	O	1.181275	-0.304170	-0.461475
O10	O	1.681275	0.195830	0.038525
O11	O	1.364612	-0.279823	-0.521994
O12	O	1.864612	0.220177	-0.021994
O13	O	1.241692	-0.332406	-0.278174
O14	O	1.741692	0.167594	0.221826
O15	O	1.132921	-0.184058	-0.407868
O16	O	1.632921	0.315942	0.092132
O17	O	1.369693	-0.340973	-0.419823
O18	O	1.869693	0.159027	0.080177
O19	O	1.229905	-0.190549	-0.515193
O20	O	1.729905	0.309451	-0.015193
O21	O	1.139627	-0.264765	-0.273020
O22	O	1.639627	0.235235	0.226980
O23	O	0.998015	-0.264298	-0.400986
O24	O	1.498015	0.235702	0.099014
O25	O	1.120783	-0.340152	-0.644745
O26	O	1.620783	0.159848	-0.144745
O27	O	0.992782	-0.331585	-0.503096
O28	O	1.492782	0.168415	-0.003096
O29	O	1.223000	-0.279356	-0.649960
O30	O	1.723000	0.220644	-0.149960
O31	O	1.234787	-0.421212	-0.412941
O32	O	1.734787	0.078788	0.087059
O33	O	1.127489	-0.420858	-0.509898
O34	O	1.627489	0.079142	-0.009898
C35	C	0.965226	-0.296931	-0.450510
C36	C	1.465226	0.203069	0.049490
C37	C	0.872799	-0.293847	-0.445839
C38	C	1.372799	0.206153	0.054161
C39	C	1.181138	-0.440006	-0.461430
C40	C	1.681138	0.059994	0.038570
C41	C	1.181153	-0.498121	-0.461442
C42	C	1.681153	0.001879	0.038558
C43	C	0.703571	-0.288206	-0.437318
C44	C	1.203571	0.211794	0.062682
C45	C	0.659817	-0.320174	-0.485692
C46	C	1.159817	0.179826	0.014308
C47	C	0.565653	-0.317035	-0.480951
C48	C	1.065653	0.182965	0.019049
C49	C	0.797744	-0.291344	-0.442058
C50	C	1.297744	0.208656	0.057942
C51	C	1.237279	-0.858668	-0.411087
C52	C	1.737279	-0.358668	0.088913
C53	C	1.237311	-0.913274	-0.411099
C54	C	1.737311	-0.413274	0.088901
O55	O	1.284889	-0.941661	-0.368236
O56	O	1.784889	-0.441661	0.131764
N57	N	1.181419	-0.940415	-0.461537
N58	N	1.681419	-0.440415	0.038463
C59	C	1.125497	-0.912948	-0.511972
C60	C	1.625497	-0.412948	-0.011972
O61	O	1.077960	-0.941048	-0.554875
O62	O	1.577960	-0.441048	-0.054875
C63	C	1.125470	-0.858344	-0.511963
C64	C	1.625470	-0.358344	-0.011963
C65	C	1.181360	-0.831205	-0.461515
C66	C	1.681360	-0.331205	0.038485
C67	C	1.293166	-0.831529	-0.360644
C68	C	1.793166	-0.331529	0.139356
C69	C	1.293133	-0.776927	-0.360630
C70	C	1.793133	-0.276927	0.139370
C71	C	1.237214	-0.749464	-0.411059
C72	C	1.737214	-0.249464	0.088941
C73	C	1.181327	-0.776603	-0.461502
C74	C	1.681327	-0.276603	0.038498
C75	C	1.069553	-0.830878	-0.562401
C76	C	1.569553	-0.330878	-0.062401
C77	C	1.069531	-0.776270	-0.562388
C78	C	1.569531	-0.276270	-0.062388
C79	C	1.125421	-0.749131	-0.511941
C80	C	1.625421	-0.249131	-0.011941
C81	C	1.125375	-0.694538	-0.511917
C82	C	1.625375	-0.194538	-0.011917
N83	N	1.181267	-0.667396	-0.461479
N84	N	1.681267	-0.167396	0.038521
C85	C	1.237187	-0.694860	-0.411050
C86	C	1.737187	-0.194860	0.088950
C87	C	1.125559	-1.027621	-0.511988
C88	C	1.625559	-0.527621	-0.011988
C89	C	1.125581	-1.082224	-0.511993
C90	C	1.625581	-0.582224	-0.011993
C91	C	1.237397	-1.082546	-0.411121
C92	C	1.737397	-0.582546	0.088879
C93	C	1.237370	-1.027942	-0.411113
C94	C	1.737370	-0.527942	0.088887
C95	C	1.181451	-1.000480	-0.461550
C96	C	1.681451	-0.500480	0.038450
C97	C	1.237113	-0.580191	-0.411025
C98	C	1.737113	-0.080191	0.088975
C99	C	1.237072	-0.525584	-0.411013
C100	C	1.737072	-0.025584	0.088987
C101	C	1.125260	-0.525267	-0.511887
C102	C	1.625260	-0.025267	-0.011887
C103	C	1.125297	-0.579869	-0.511896
C104	C	1.625297	-0.079869	-0.011896
C105	C	1.181230	-0.607330	-0.461463
C106	C	1.681230	-0.107330	0.038537
O107	O	1.077824	-0.666116	-0.554760
O108	O	1.577824	-0.166116	-0.054760
O109	O	1.284723	-0.666754	-0.368163
O110	O	1.784723	-0.166754	0.131837
C111	C	1.398168	-0.311437	-0.472483
C112	C	1.898168	0.188563	0.027517
C113	C	1.490595	-0.314534	-0.477173
C114	C	1.990595	0.185466	0.022827
C115	C	1.170326	-0.310686	-0.678368
C116	C	1.670326	0.189314	-0.178368
C117	C	1.165659	-0.313462	-0.770795
C118	C	1.665659	0.186538	-0.270795
C119	C	1.181436	-0.167804	-0.461539
C120	C	1.681436	0.332196	0.038461
C121	C	1.181504	-0.109693	-0.461567
C122	C	1.681504	0.390307	0.038433
C123	C	1.157110	-0.318520	-0.940019
C124	C	1.657110	0.181480	-0.440019
C125	C	1.205605	-0.289668	-0.983790
C126	C	1.705605	0.210332	-0.483790
C127	C	1.200848	-0.292482	-1.077952
C128	C	1.700848	0.207518	-0.577952
C129	C	1.161866	-0.315706	-0.845849
C130	C	1.661866	0.184294	-0.345849
C131	C	1.192231	-0.297643	-0.245427
C132	C	1.692231	0.202357	0.254573
C133	C	1.197058	-0.294724	-0.153009
C134	C	1.697058	0.205276	0.346991
H135	H	0.693077	-0.349899	-0.530667
H136	H	1.193077	0.150101	-0.030667
H137	H	1.282932	-1.104917	-0.370062
H138	H	1.782932	-0.604917	0.129938
H139	H	1.250696	-0.262854	-0.950546
H140	H	1.750696	0.237146	-0.450546
H141	H	0.670314	-0.258482	-0.392347
H142	H	1.170314	0.241518	0.107653
N143	N	1.297358	-0.496314	-0.356602
N144	N	1.797358	0.003686	0.143398
H145	H	1.332789	-0.522001	-0.324663
H146	H	1.832789	-0.022001	0.175337
H147	H	1.334089	-0.475930	-0.392431
H148	H	1.834089	0.024070	0.107569
N149	N	1.097371	-0.354028	-0.984046
N150	N	1.597371	0.145972	-0.484046
H151	H	1.102397	-0.351025	-1.046045
H152	H	1.602397	0.148975	-0.546045
H153	H	1.111010	-0.391360	-0.969574
H154	H	1.611010	0.108640	-0.469574
N155	N	1.065298	-1.111495	-0.566398
N156	N	1.565298	-0.611495	-0.066398
H157	H	1.028509	-1.131879	-0.530626
H158	H	1.528509	-0.631879	-0.030626
H159	H	1.029926	-1.085777	-0.598332
H160	H	1.529926	-0.585777	-0.098332
N161	N	1.009208	-0.746655	-0.616788
N162	N	1.509208	-0.246655	-0.116788
H163	H	0.972392	-0.721730	-0.581005
H164	H	1.472392	-0.221730	-0.081005
H165	H	1.041066	-0.726288	-0.657054
H166	H	1.541066	-0.226288	-0.157054
H167	H	1.079729	-0.502898	-0.552943
H168	H	1.579729	-0.002898	-0.052943
N169	N	1.297439	-0.609805	-0.356631
N170	N	1.797439	-0.109805	0.143369
H171	H	1.332832	-0.584321	-0.324677
H172	H	1.832832	-0.084321	0.175323
H173	H	1.265581	-0.630204	-0.316407
H174	H	1.765581	-0.130204	0.183593
N175	N	1.353426	-0.747661	-0.306232
N176	N	1.853426	-0.247661	0.193768
H177	H	1.388856	-0.773352	-0.274297
H178	H	1.888856	-0.273352	0.225703
H179	H	1.390157	-0.727282	-0.342068
H180	H	1.890157	-0.227282	0.157932
N181	N	1.353485	-0.861145	-0.306249
N182	N	1.853485	-0.361145	0.193751
H183	H	1.388878	-0.835659	-0.274298
H184	H	1.888878	-0.335659	0.225702
H185	H	1.321624	-0.881540	-0.266023
H186	H	1.821624	-0.381540	0.233977
N187	N	1.297653	-0.998673	-0.356706
N188	N	1.797653	-0.498673	0.143294
H189	H	1.333078	-1.024362	-0.324762
H190	H	1.833078	-0.524362	0.175238
H191	H	1.334389	-0.978293	-0.392534
H192	H	1.834389	-0.478293	0.107466
N193	N	1.065237	-0.998003	-0.566384
N194	N	1.565237	-0.498003	-0.066384
H195	H	1.029836	-1.023486	-0.598332
H196	H	1.529836	-0.523486	-0.098332
H197	H	1.028479	-0.973075	-0.530548
H198	H	1.528479	-0.473075	-0.030548
H199	H	1.024037	-0.852965	-0.603477
H200	H	1.524037	-0.352965	-0.103477
H201	H	1.079789	-0.601967	-0.552977
H202	H	1.579789	-0.101967	-0.052977
