data_functionalizedCrystal
_audit_creation_method	'MofGen! by Chris Wilmer'
_symmetry_space_group_name_H-M	'P1'
_symmetry_Int_Tables_number	1
_symmetry_cell_setting	triclinic
loop_
_symmetry_equiv_pos_as_xyz
  x,y,z
_cell_length_a	19.188930
_cell_length_b	17.666332
_cell_length_c	14.519709
_cell_angle_alpha	89.993850
_cell_angle_beta	96.587538
_cell_angle_gamma	90.023133
loop_
_atom_site_label
_atom_site_type_symbol
_atom_site_fract_x
_atom_site_fract_y
_atom_site_fract_z
O1	O	0.926560	0.063193	-0.115135
O2	O	0.723303	0.063142	-0.130634
O3	O	0.830321	0.063162	0.011387
O4	O	0.819543	0.063173	-0.257157
O5	O	0.830302	-0.062735	0.011391
O6	O	0.723285	-0.062755	-0.130630
O7	O	0.926541	-0.062703	-0.115131
Cu8	Cu	0.824911	-0.074225	-0.122880
Cu9	Cu	0.824933	0.074663	-0.122885
O10	O	0.819524	-0.062724	-0.257153
C11	C	0.697281	0.000187	-0.130130
C12	C	0.619771	0.000167	-0.128624
C13	C	0.575144	0.000182	-0.211957
C14	C	0.502315	0.000190	-0.210542
C15	C	0.474117	0.000198	-0.125788
C16	C	0.518754	0.000179	-0.042444
C17	C	0.591581	0.000163	-0.043861
N18	N	0.365913	0.043074	-0.061006
N19	N	0.296729	0.043091	-0.059665
C20	C	0.254693	0.000245	-0.121511
N21	N	0.284453	-0.042610	-0.184763
N22	N	0.353642	-0.042623	-0.186107
C23	C	0.395149	0.000215	-0.124241
C24	C	0.131096	0.000268	-0.203315
C25	C	0.058266	0.000271	-0.201896
C26	C	0.074706	0.000268	-0.033796
C27	C	0.147535	0.000256	-0.035217
C28	C	0.175725	0.000260	-0.119980
N29	N	0.824900	-0.178944	-0.122876
C30	C	0.867308	-0.218534	-0.178676
C31	C	0.867319	-0.297781	-0.178674
C32	C	0.824910	-0.337436	-0.122882
C33	C	0.782499	-0.297837	-0.067071
C34	C	0.782495	-0.218591	-0.067068
N35	N	0.763753	-0.461891	-0.120610
N36	N	0.763759	-0.537172	-0.120618
C37	C	0.824922	-0.576200	-0.122885
N38	N	0.886079	-0.537104	-0.125162
N39	N	0.886072	-0.461817	-0.125159
C40	C	0.824910	-0.423365	-0.122878
C41	C	0.867346	-0.701719	-0.178685
C42	C	0.867358	-0.780968	-0.178676
C43	C	0.782532	-0.781022	-0.067078
C44	C	0.782526	-0.701775	-0.067082
C45	C	0.824932	-0.662128	-0.122890
C46	C	0.952563	0.000253	-0.115635
C47	C	1.030073	0.000278	-0.117142
C48	C	0.829809	0.000213	0.045746
C49	C	0.828304	0.000213	0.148118
N50	N	0.824949	0.179382	-0.122882
C51	C	0.820035	0.000227	-0.291511
C52	C	0.821541	0.000232	-0.393883
C53	C	0.822762	0.000231	0.522979
C54	C	0.824301	0.000226	0.418681
C55	C	0.825533	0.000221	0.335552
C56	C	0.827072	0.000217	0.231247
H57	H	0.021931	0.000279	-0.269760
F58	F	0.912500	-0.823102	-0.238064
H59	H	0.627917	0.000151	0.024001
H60	H	0.495790	0.000196	0.026564
H61	H	0.747970	-0.330129	-0.021643
H62	H	0.154049	0.000260	-0.272334
F63	F	0.912489	-0.659521	-0.238064
H64	H	0.051748	0.000321	0.035213
F65	F	0.737403	-0.823221	-0.007690
H66	H	0.598091	0.000186	-0.280978
F67	F	0.454811	0.000204	-0.299240
H68	H	0.183871	0.000248	0.032642
H69	H	0.901841	-0.186258	-0.224116
H70	H	0.901853	-0.330021	-0.224115
H71	H	0.747990	-0.669541	-0.021647
H72	H	0.747960	-0.186357	-0.021628
