data_functionalizedCrystal
_audit_creation_method	'MofGen! by Chris Wilmer'
_symmetry_space_group_name_H-M	'P1'
_symmetry_Int_Tables_number	1
_symmetry_cell_setting	triclinic
loop_
_symmetry_equiv_pos_as_xyz
  x,y,z
_cell_length_a	10.540539
_cell_length_b	14.853567
_cell_length_c	13.930277
_cell_angle_alpha	90.000757
_cell_angle_beta	89.996361
_cell_angle_gamma	95.919789
loop_
_atom_site_label
_atom_site_type_symbol
_atom_site_fract_x
_atom_site_fract_y
_atom_site_fract_z
O1	O	1.684495	-0.127051	-0.079743
O2	O	1.314950	-0.139022	-0.079761
O3	O	1.509593	-0.001861	-0.079755
O4	O	1.489851	-0.264211	-0.079750
O5	O	1.509566	-0.001858	0.079907
O6	O	1.314923	-0.139019	0.079900
O7	O	1.684468	-0.127048	0.079919
Zn8	Zn	1.499691	-0.133033	0.105259
Zn9	Zn	1.499727	-0.133037	-0.105102
O10	O	1.489824	-0.264208	0.079912
C11	C	1.267643	-0.138122	0.000067
C12	C	1.126725	-0.135437	0.000060
C13	C	1.508685	0.031734	0.000074
C14	C	1.506005	0.131832	0.000065
C15	C	1.731774	-0.127947	0.000088
C16	C	1.872693	-0.130633	0.000089
C17	C	2.054987	-0.233550	0.000428
C18	C	1.908399	-0.230828	0.000084
C19	C	1.934871	-0.082416	-0.091092
C20	C	2.081377	-0.085836	-0.091184
C21	C	2.081939	-0.083795	0.090382
C22	C	1.934967	-0.082872	0.091602
C23	C	1.490732	-0.297803	0.000082
C24	C	1.493413	-0.397902	0.000084
N25	N	1.499676	-0.133029	0.248826
C26	C	1.379051	0.545071	0.000077
C27	C	1.610292	0.565069	0.000088
C28	C	1.612812	0.471021	0.000083
C29	C	1.498450	0.413994	0.000076
C30	C	1.381568	0.451014	0.000074
C31	C	1.729693	0.433993	0.000094
C32	C	1.732218	0.339940	0.000090
C33	C	1.617854	0.282911	0.000076
C34	C	1.500967	0.319937	0.000073
C35	C	1.386605	0.262910	0.000066
C36	C	1.269717	0.299934	0.000057
C37	C	1.267204	0.393985	0.000060
C38	C	1.620367	0.188860	0.000072
C39	C	1.389122	0.168853	0.000064
N40	N	1.499752	-0.133033	-0.248668
C41	C	1.413535	-0.193747	0.701092
C42	C	1.585953	-0.072320	0.701067
C43	C	1.585938	-0.072317	0.600572
C44	C	1.499721	-0.133031	0.550331
C45	C	1.413520	-0.193748	0.600587
C46	C	1.672146	-0.011607	0.550308
C47	C	1.672136	-0.011602	0.449807
C48	C	1.585912	-0.072313	0.399565
C49	C	1.499706	-0.133032	0.449826
C50	C	1.413490	-0.193746	0.399586
C51	C	1.327277	-0.254461	0.449846
C52	C	1.327296	-0.254459	0.550345
C53	C	1.585892	-0.072315	0.299066
C54	C	1.413474	-0.193747	0.299081
H55	H	2.083161	-0.273129	0.065806
H56	H	1.172040	0.424139	0.000054
H57	H	1.742348	0.037821	0.591217
H58	H	1.257084	-0.303899	0.408929
H59	H	2.113145	-0.116221	0.159483
C60	C	1.243088	-0.313765	0.691005
C61	C	1.318765	-0.260480	0.756330
H62	H	1.184575	-0.354958	0.725110
H63	H	1.295973	-0.346562	0.651808
H64	H	1.197376	-0.275912	0.651806
H65	H	1.364484	-0.298333	0.795525
H66	H	1.265873	-0.227681	0.795544
C67	C	1.842561	0.108433	0.459888
C68	C	1.766887	0.055142	0.394566
H69	H	1.901047	0.149643	0.425782
H70	H	1.888292	0.070592	0.499072
H71	H	1.789662	0.141218	0.499101
H72	H	1.819785	0.022352	0.355357
H73	H	1.721153	0.092989	0.355365
H74	H	1.295993	0.122427	0.000054
C75	C	1.757332	0.094695	0.082158
C76	C	1.748839	0.148165	0.000084
H77	H	1.836655	0.069580	0.082165
H78	H	1.689595	0.047275	0.082141
H79	H	1.751525	0.130975	0.137831
H80	H	1.754637	0.111884	-0.055589
H81	H	1.816595	0.195592	0.000093
H82	H	1.283883	0.575220	0.000066
H83	H	1.343261	-0.243185	0.258181
H84	H	1.656091	-0.022886	0.258149
H85	H	1.866216	-0.269033	-0.065380
C86	C	1.040881	0.289594	0.000042
C87	C	1.144011	0.237244	0.000051
H88	H	0.963280	0.250888	0.000044
H89	H	1.044714	0.326689	-0.055633
H90	H	1.044699	0.326699	0.055722
H91	H	1.140198	0.200144	-0.055633
H92	H	1.140176	0.200134	0.055732
C93	C	1.709101	0.718121	0.000102
C94	C	1.735994	0.627750	0.000098
H95	H	1.786710	0.756819	0.000102
H96	H	1.661183	0.729415	0.055776
H97	H	1.661189	0.729419	-0.055580
H98	H	1.783898	0.616450	0.055784
H99	H	1.783932	0.616451	-0.055582
C100	C	1.926030	0.480001	-0.081967
C101	C	1.855392	0.496678	0.000102
H102	H	2.003636	0.518701	-0.081959
H103	H	1.878120	0.491304	-0.137638
H104	H	1.944256	0.418688	-0.081952
H105	H	1.837157	0.557989	0.000083
H106	H	1.903311	0.485382	0.055787
H107	H	1.257106	-0.303892	0.591273
C108	C	1.869212	0.245785	-0.081991
C109	C	1.860696	0.299246	0.000089
H110	H	1.948527	0.220658	-0.081989
H111	H	1.863434	0.282067	-0.137654
H112	H	1.801459	0.198364	-0.081986
H113	H	1.928444	0.346672	0.000081
H114	H	1.866487	0.262962	0.055766
H115	H	1.656154	-0.022892	0.741976
H116	H	1.865385	-0.268772	0.065443
C117	C	2.009478	-0.159437	-0.237704
C118	C	2.118914	-0.133955	-0.183186
H119	H	2.032649	-0.189150	-0.294499
H120	H	1.969578	-0.107112	-0.254354
H121	H	1.951999	-0.199342	-0.201235
H122	H	2.176390	-0.094044	-0.219653
H123	H	2.158834	-0.186286	-0.166537
H124	H	2.084752	-0.272969	-0.064593
C125	C	2.054628	0.072531	-0.100077
C126	C	2.147212	0.011435	-0.096806
H127	H	2.095270	0.132579	-0.103562
H128	H	2.003521	0.066042	-0.043853
H129	H	2.002315	0.060413	-0.155048
H130	H	2.199519	0.023548	-0.041831
H131	H	2.198341	0.017928	-0.153036
H132	H	1.913326	-0.008836	-0.094479
H133	H	1.891859	-0.115890	-0.158937
C134	C	1.820163	-0.068532	0.238760
C135	C	1.879186	-0.130425	0.182668
H136	H	1.785726	-0.097890	0.294980
H137	H	1.753575	-0.045968	0.202965
H138	H	1.881171	-0.019768	0.256387
H139	H	1.818175	-0.179186	0.165034
H140	H	1.945782	-0.153003	0.218469
H141	H	2.129956	-0.011424	0.090988
H142	H	1.911553	-0.009822	0.097110
