data_functionalizedCrystal
_audit_creation_method	'MofGen! by Chris Wilmer'
_symmetry_space_group_name_H-M	'P1'
_symmetry_Int_Tables_number	1
_symmetry_cell_setting	triclinic
loop_
_symmetry_equiv_pos_as_xyz
  x,y,z
_cell_length_a	21.395362
_cell_length_b	16.959453
_cell_length_c	21.395355
_cell_angle_alpha	90.017325
_cell_angle_beta	90.043940
_cell_angle_gamma	90.035866
loop_
_atom_site_label
_atom_site_type_symbol
_atom_site_fract_x
_atom_site_fract_y
_atom_site_fract_z
Zn1	Zn	0.957906	-0.314438	0.354591
Zn2	Zn	1.457906	0.185562	0.854591
Zn3	Zn	0.957828	-0.446599	0.249816
Zn4	Zn	1.457828	0.053401	0.749816
Zn5	Zn	0.853121	-0.314475	0.249792
Zn6	Zn	1.353121	0.185525	0.749792
Zn7	Zn	0.853110	-0.446615	0.354520
Zn8	Zn	1.353110	0.053385	0.854520
O9	O	0.905491	-0.380532	0.302180
O10	O	1.405491	0.119468	0.802180
O11	O	1.045574	-0.331947	0.340731
O12	O	1.545574	0.168053	0.840731
O13	O	0.943911	-0.429081	0.162134
O14	O	1.443911	0.070919	0.662134
O15	O	0.867058	-0.203859	0.263714
O16	O	1.367058	0.296141	0.763714
O17	O	1.045516	-0.429045	0.263754
O18	O	1.545516	0.070955	0.763754
O19	O	0.944043	-0.203832	0.340709
O20	O	1.444043	0.296168	0.840709
O21	O	0.866983	-0.332010	0.162117
O22	O	1.366983	0.167990	0.662117
O23	O	0.765442	-0.332026	0.263645
O24	O	1.265442	0.167974	0.763645
O25	O	0.867039	-0.429073	0.442208
O26	O	1.367039	0.070927	0.942208
O27	O	0.765433	-0.429109	0.340588
O28	O	1.265433	0.070891	0.840588
O29	O	0.944033	-0.331963	0.442259
O30	O	1.444033	0.168037	0.942259
O31	O	0.943900	-0.557212	0.263685
O32	O	1.443900	-0.057212	0.763685
O33	O	0.866964	-0.557224	0.340611
O34	O	1.366964	-0.057224	0.840611
C35	C	0.742704	-0.380574	0.302107
C36	C	1.242704	0.119426	0.802107
C37	C	0.673062	-0.380610	0.302091
C38	C	1.173062	0.119390	0.802091
C39	C	0.640361	-0.431228	0.342095
C40	C	1.140361	0.068772	0.842095
C41	C	0.574926	-0.431209	0.342123
C42	C	1.074926	0.068791	0.842123
C43	C	0.542194	-0.380580	0.302135
C44	C	1.042194	0.119420	0.802135
C45	C	0.574903	-0.329952	0.262128
C46	C	1.074903	0.170048	0.762128
C47	C	0.640337	-0.329967	0.262106
C48	C	1.140337	0.170033	0.762106
C49	C	0.438468	-0.374212	0.245730
C50	C	0.938468	0.125788	0.745730
C51	C	0.373035	-0.374203	0.245751
C52	C	0.873035	0.125797	0.745751
C53	C	0.340373	-0.380528	0.302205
C54	C	0.840373	0.119472	0.802205
C55	C	0.373152	-0.386881	0.358638
C56	C	0.873152	0.113119	0.858638
C57	C	0.438586	-0.386896	0.358616
C58	C	0.938586	0.113104	0.858616
C59	C	0.471242	-0.380558	0.302155
C60	C	0.971242	0.119442	0.802155
C61	C	0.236720	-0.431128	0.342243
C62	C	0.736720	0.068872	0.842243
C63	C	0.171283	-0.431103	0.342272
C64	C	0.671283	0.068897	0.842272
C65	C	0.171262	-0.329850	0.262271
C66	C	0.671262	0.170150	0.762271
C67	C	0.236697	-0.329871	0.262248
C68	C	0.736697	0.170129	0.762248
C69	C	0.269422	-0.380514	0.302233
C70	C	0.769422	0.119486	0.802233
C71	C	0.905439	-0.585898	0.302157
C72	C	1.405439	-0.085898	0.802157
C73	C	0.905474	-0.673755	0.302168
C74	C	1.405474	-0.173755	0.802168
C75	C	0.945629	-1.045158	0.342347
C76	C	1.445629	-0.545158	0.842347
C77	C	0.865529	-1.045303	0.262106
C78	C	1.365529	-0.545303	0.762106
C79	C	0.865506	-0.962757	0.262091
C80	C	1.365506	-0.462757	0.762091
C81	C	0.905544	-0.921408	0.302206
C82	C	1.405544	-0.421408	0.802206
C83	C	0.945605	-0.962604	0.342335
C84	C	1.445605	-0.462604	0.842335
C85	C	0.825440	-0.921554	0.221968
C86	C	1.325440	-0.421554	0.721968
C87	C	0.825415	-0.839003	0.221952
C88	C	1.325415	-0.339003	0.721952
C89	C	0.865457	-0.797652	0.262064
C90	C	1.365457	-0.297652	0.762064
C91	C	0.905521	-0.838854	0.302194
C92	C	1.405521	-0.338854	0.802194
C93	C	0.945559	-0.797505	0.342309
C94	C	1.445559	-0.297505	0.842309
C95	C	0.985626	-0.838705	0.382436
C96	C	1.485626	-0.338705	0.882436
C97	C	0.985647	-0.921253	0.382447
C98	C	1.485647	-0.421253	0.882447
C99	C	0.865436	-0.715104	0.262053
C100	C	1.365436	-0.215104	0.762053
C101	C	0.945536	-0.714951	0.342297
C102	C	1.445536	-0.214951	0.842297
C103	C	1.068915	-0.380490	0.302253
C104	C	1.568915	0.119510	0.802253
C105	C	1.138556	-0.380473	0.302284
C106	C	1.638556	0.119527	0.802284
C107	C	0.905543	-0.380516	0.465603
C108	C	1.405543	0.119484	0.965603
C109	C	0.905566	-0.380509	0.535244
C110	C	1.405566	0.119491	1.035244
C111	C	0.905561	-0.174363	0.302216
C112	C	1.405561	0.325637	0.802216
C113	C	0.905590	-0.086507	0.302232
C114	C	1.405590	0.413493	0.802232
C115	C	0.905476	-0.380491	0.139392
C116	C	1.405476	0.119509	0.639392
C117	C	0.905575	-0.380275	0.069751
C118	C	1.405575	0.119725	0.569751
C119	C	0.945654	-0.329942	0.567985
C120	C	1.445654	0.170058	1.067985
C121	C	0.945653	-0.329908	0.633421
C122	C	1.445653	0.170092	1.133421
C123	C	0.905570	-0.380455	0.666113
C124	C	1.405570	0.119545	1.166113
C125	C	0.865474	-0.431026	0.633364
C126	C	1.365474	0.068974	1.133364
C127	C	0.865471	-0.431053	0.567929
C128	C	1.365471	0.068947	1.067929
C129	C	0.900605	-0.451628	0.769778
C130	C	1.400605	0.048372	1.269778
C131	C	0.900612	-0.451602	0.835211
C132	C	1.400612	0.048398	1.335211
C133	C	0.905574	-0.380372	0.867934
C134	C	1.405574	0.119628	1.367934
C135	C	0.910543	-0.309164	0.835215
C136	C	1.410543	0.190836	1.335215
C137	C	0.910541	-0.309191	0.769781
C138	C	1.410541	0.190809	1.269781
C139	C	0.905568	-0.380431	0.737065
C140	C	1.405568	0.119569	1.237065
C141	C	0.945664	-0.329763	0.971627
C142	C	1.445664	0.170237	1.471627
C143	C	0.945659	-0.329728	1.037064
C144	C	1.445659	0.170272	1.537064
C145	C	0.865483	-0.430853	1.037005
C146	C	1.365483	0.069147	1.537005
C147	C	0.865485	-0.430881	0.971570
C148	C	1.365485	0.069119	1.471570
C149	C	0.905579	-0.380337	0.938885
C150	C	1.405579	0.119663	1.438885
H151	H	0.346352	-0.369035	0.199799
H152	H	0.846352	0.130965	0.699799
C153	C	0.781347	-0.793686	0.177814
C154	C	1.281347	-0.293686	0.677814
H155	H	0.787064	-0.738601	0.183553
H156	H	1.287064	-0.238601	0.683553
H157	H	0.790539	-0.807232	0.135730
H158	H	1.290539	-0.307232	0.635730
H159	H	0.739246	-0.807260	0.186939
H160	H	1.239246	-0.307260	0.686939
C161	C	1.029710	-0.966574	0.426588
C162	C	1.529710	-0.466574	0.926588
H163	H	1.023982	-1.021659	0.420855
H164	H	1.523982	-0.521659	0.920855
H165	H	1.071810	-0.953005	0.417475
H166	H	1.571810	-0.453005	0.917475
H167	H	1.020508	-0.953028	0.468673
H168	H	1.520508	-0.453028	0.968673
H169	H	0.978252	-1.078706	0.375016
H170	H	1.478252	-0.578706	0.875016
H171	H	0.666962	-0.288746	0.229529
H172	H	1.166962	0.211254	0.729529
C173	C	0.989759	-0.274101	1.073079
C174	C	1.489759	0.225899	1.573079
H175	H	1.013640	-0.244011	1.044239
H176	H	1.513640	0.255989	1.544239
H177	H	0.965808	-0.239653	1.098586
H178	H	1.465808	0.260347	1.598586
H179	H	1.017048	-0.304329	1.098626
H180	H	1.517048	0.195671	1.598626
H181	H	0.978297	-0.288725	0.660084
H182	H	1.478297	0.211275	1.160084
C183	C	0.474391	-0.367210	0.183631
C184	C	0.974391	0.132790	0.683631
H185	H	0.445499	-0.363423	0.150026
H186	H	0.945499	0.136577	0.650026
H187	H	0.499935	-0.321390	0.184521
H188	H	0.999935	0.178610	0.684521
H189	H	0.499893	-0.412496	0.178031
H190	H	0.999893	0.087504	0.678031
C191	C	0.538944	-0.486892	0.386126
C192	C	1.038944	0.013108	0.886126
H193	H	0.495287	-0.479626	0.380414
H194	H	0.995287	0.020374	0.880414
H195	H	0.549623	-0.539985	0.376875
H196	H	1.049623	-0.039985	0.876875
H197	H	0.549719	-0.475406	0.428240
H198	H	1.049719	0.024594	0.928240
H199	H	0.548249	-0.288728	0.229571
H200	H	1.048249	0.211272	0.729571
H201	H	0.832929	-1.078974	0.229449
H202	H	1.332929	-0.578974	0.729449
H203	H	0.465272	-0.392066	0.404566
H204	H	0.965272	0.107934	0.904566
C205	C	0.781407	-0.967038	0.177842
C206	C	1.281407	-0.467038	0.677842
H207	H	0.787167	-1.022101	0.183591
H208	H	1.287167	-0.522101	0.683591
H209	H	0.739298	-0.953564	0.186952
H210	H	1.239298	-0.453564	0.686952
H211	H	0.790600	-0.953519	0.135753
H212	H	1.290600	-0.453519	0.635753
H213	H	0.832811	-0.681563	0.229385
H214	H	1.332811	-0.181563	0.729385
H215	H	0.978301	-0.288784	0.541377
H216	H	1.478301	0.211216	1.041377
C217	C	0.989573	-0.669473	0.386429
C218	C	1.489573	-0.169473	0.886429
H219	H	1.013432	-0.705835	0.410332
H220	H	1.513432	-0.205835	0.910332
H221	H	1.016875	-0.637244	0.362498
H222	H	1.516875	-0.137244	0.862498
H223	H	0.965573	-0.637292	0.413697
H224	H	1.465573	-0.137292	0.913697
H225	H	1.018223	-0.805029	0.415101
H226	H	1.518223	-0.305029	0.915101
C227	C	0.989754	-0.274155	0.935671
C228	C	1.489754	0.225845	1.435671
H229	H	1.013622	-0.244023	0.964545
H230	H	1.513622	0.255977	1.464545
H231	H	1.017046	-0.304389	0.910164
H232	H	1.517046	0.195611	1.410164
H233	H	0.965789	-0.239733	0.910129
H234	H	1.465789	0.260267	1.410129
H235	H	0.914585	-0.251211	0.743145
H236	H	1.414585	0.248789	1.243145
H237	H	0.914585	-0.251161	0.861857
H238	H	1.414585	0.248839	1.361857
H239	H	0.832840	-0.472002	1.063622
H240	H	1.332840	0.027998	1.563622
C241	C	0.821391	-0.486512	0.935553
C242	C	1.321391	0.013488	1.435553
H243	H	0.797521	-0.516616	0.964393
H244	H	1.297521	-0.016616	1.464393
H245	H	0.794102	-0.456293	0.910006
H246	H	1.294102	0.043707	1.410006
H247	H	0.845350	-0.520960	0.910046
H248	H	1.345350	-0.020960	1.410046
C249	C	0.272670	-0.274201	0.218234
C250	C	0.772670	0.225799	0.718234
H251	H	0.243806	-0.244049	0.194418
H252	H	0.743806	0.255951	0.694418
H253	H	0.298247	-0.239811	0.242239
H254	H	0.798247	0.260189	0.742239
H255	H	0.298143	-0.304401	0.190882
H256	H	0.798143	0.195599	0.690882
C257	C	0.895154	-0.529925	0.871198
C258	C	1.395154	-0.029925	1.371198
H259	H	0.895877	-0.519709	0.914854
H260	H	1.395877	-0.019709	1.414854
H261	H	0.857002	-0.555215	0.860451
H262	H	1.357002	-0.055215	1.360451
H263	H	0.929230	-0.563167	0.860495
H264	H	1.429230	-0.063167	1.360495
C265	C	0.895009	-0.529972	0.733789
C266	C	1.395009	-0.029972	1.233789
H267	H	0.892019	-0.572371	0.762644
H268	H	1.392019	-0.072371	1.262644
H269	H	0.858657	-0.528851	0.708287
H270	H	1.358657	-0.028851	1.208287
H271	H	0.930870	-0.537026	0.708239
H272	H	1.430870	-0.037026	1.208239
C273	C	0.821381	-0.486690	0.531913
C274	C	1.321381	0.013310	1.031913
H275	H	0.797511	-0.516795	0.560752
H276	H	1.297511	-0.016795	1.060752
H277	H	0.794091	-0.456479	0.506360
H278	H	1.294091	0.043521	1.006360
H279	H	0.845347	-0.521137	0.506411
H280	H	1.345347	-0.021137	1.006411
C281	C	0.676356	-0.486925	0.386084
C282	C	1.176356	0.013075	0.886084
H283	H	0.647504	-0.517063	0.409917
H284	H	1.147504	-0.017063	0.909917
H285	H	0.701836	-0.521326	0.362062
H286	H	1.201836	-0.021326	0.862062
H287	H	0.701928	-0.456738	0.413421
H288	H	1.201928	0.043262	0.913421
C289	C	0.337233	-0.393836	0.420740
C290	C	0.837233	0.106164	0.920740
H291	H	0.293569	-0.392908	0.412675
H292	H	0.793569	0.107092	0.912675
H293	H	0.347946	-0.441996	0.440705
H294	H	0.847946	0.058004	0.940705
H295	H	0.348017	-0.350884	0.447151
H296	H	0.848017	0.149116	0.947151
H297	H	0.263366	-0.472361	0.374804
H298	H	0.763366	0.027639	0.874804
C299	C	0.135312	-0.486797	0.386270
C300	C	0.635312	0.013203	0.886270
H301	H	0.164176	-0.516966	0.410071
H302	H	0.664176	-0.016966	0.910071
H303	H	0.109832	-0.456620	0.413627
H304	H	0.609832	0.043380	0.913627
H305	H	0.109741	-0.521182	0.362248
H306	H	0.609741	-0.021182	0.862248
H307	H	0.832836	-0.472179	0.659986
H308	H	1.332836	0.027821	1.159986
C309	C	0.135264	-0.274149	0.218293
C310	C	0.635264	0.225851	0.718293
H311	H	0.091610	-0.281389	0.224035
H312	H	0.591610	0.218611	0.724035
H313	H	0.146038	-0.221064	0.227539
H314	H	0.646038	0.278936	0.727539
H315	H	0.145929	-0.285639	0.176171
H316	H	0.645929	0.214361	0.676171
