data_functionalizedCrystal
_audit_creation_method	'MofGen! by Chris Wilmer'
_symmetry_space_group_name_H-M	'P1'
_symmetry_Int_Tables_number	1
_symmetry_cell_setting	triclinic
loop_
_symmetry_equiv_pos_as_xyz
  x,y,z
_cell_length_a	14.853567
_cell_length_b	17.699083
_cell_length_c	13.330367
_cell_angle_alpha	89.995693
_cell_angle_beta	89.997850
_cell_angle_gamma	96.541194
loop_
_atom_site_label
_atom_site_type_symbol
_atom_site_fract_x
_atom_site_fract_y
_atom_site_fract_z
O1	O	0.113998	-1.004373	0.083398
O2	O	0.613998	-0.504373	0.583398
O3	O	0.128832	-0.784033	0.083403
O4	O	0.628832	-0.284033	0.583403
O5	O	-0.009836	-0.900089	0.083403
O6	O	0.490164	-0.400089	0.583403
O7	O	0.252667	-0.888317	0.083398
O8	O	0.752667	-0.388317	0.583398
O9	O	-0.009832	-0.900077	-0.083444
O10	O	0.490168	-0.400077	0.416556
O11	O	0.128836	-0.784021	-0.083444
O12	O	0.628836	-0.284021	0.416556
O13	O	0.114002	-1.004361	-0.083449
O14	O	0.614002	-0.504361	0.416551
Cu15	Cu	0.121420	-0.894190	-0.098681
Cu16	Cu	0.621420	-0.394190	0.401319
Cu17	Cu	0.121415	-0.894204	0.098635
Cu18	Cu	0.621415	-0.394204	0.598635
O19	O	0.252671	-0.888305	-0.083450
O20	O	0.752671	-0.388305	0.416550
C21	C	0.128302	-0.755829	-0.000020
C22	C	0.628302	-0.255829	0.499980
C23	C	0.126708	-0.671806	-0.000018
C24	C	0.626708	-0.171806	0.499982
C25	C	-0.043421	-0.899549	-0.000017
C26	C	0.456579	-0.399549	0.499983
C27	C	-0.143499	-0.897951	-0.000009
C28	C	0.356501	-0.397951	0.499991
C29	C	0.125959	-0.632331	-0.090967
C30	C	0.625959	-0.132331	0.409033
C31	C	0.124447	-0.553384	-0.090968
C32	C	0.624447	-0.053384	0.409032
C33	C	0.123690	-0.513915	-0.000018
C34	C	0.623690	-0.013915	0.499982
C35	C	0.124437	-0.553396	0.090938
C36	C	0.624437	-0.053396	0.590938
C37	C	0.125942	-0.632342	0.090938
C38	C	0.625942	-0.132342	0.590938
C39	C	0.118363	-0.235018	0.090941
C40	C	0.618363	0.264982	0.590941
C41	C	0.116859	-0.156067	0.090934
C42	C	0.616859	0.343933	0.590934
C43	C	0.116867	-0.156061	-0.090964
C44	C	0.616867	0.343939	0.409036
C45	C	0.118373	-0.235006	-0.090965
C46	C	0.618373	0.264994	0.409035
C47	C	0.119115	-0.274481	-0.000009
C48	C	0.619115	0.225519	0.499991
C49	C	0.120753	-0.360084	-0.000009
C50	C	0.620753	0.139916	0.499991
C51	C	0.122059	-0.428313	-0.000017
C52	C	0.622059	0.071687	0.499983
C53	C	-0.555754	-0.822255	-0.000026
C54	C	-0.055754	-0.322255	0.499974
C55	C	-0.577543	-0.960132	-0.000029
C56	C	-0.077543	-0.460132	0.499971
C57	C	-0.483515	-0.961635	-0.000023
C58	C	0.016485	-0.461635	0.499977
C59	C	-0.425601	-0.893447	-0.000020
C60	C	0.074399	-0.393447	0.499980
C61	C	-0.461716	-0.823756	-0.000023
C62	C	0.038284	-0.323756	0.499977
C63	C	-0.447392	-1.031324	-0.000030
C64	C	0.052608	-0.531324	0.499970
C65	C	-0.353359	-1.032830	-0.000025
C66	C	0.146641	-0.532830	0.499975
C67	C	-0.295444	-0.964641	-0.000015
C68	C	0.204556	-0.464641	0.499985
C69	C	-0.331564	-0.894947	-0.000017
C70	C	0.168436	-0.394947	0.499983
C71	C	-0.273651	-0.826759	-0.000014
C72	C	0.226349	-0.326759	0.499986
C73	C	-0.309770	-0.757065	-0.000009
C74	C	0.190230	-0.257065	0.499991
C75	C	-0.403801	-0.755567	-0.000013
C76	C	0.096199	-0.255567	0.499987
C77	C	-0.201412	-0.966139	-0.000011
C78	C	0.298588	-0.466139	0.499989
C79	C	-0.179614	-0.828260	-0.000012
C80	C	0.320386	-0.328260	0.499988
C81	C	0.286255	-0.888845	-0.000027
C82	C	0.786255	-0.388845	0.499973
C83	C	0.386333	-0.890443	-0.000029
C84	C	0.886333	-0.390443	0.499971
C85	C	0.114526	-0.032566	-0.000023
C86	C	0.614526	0.467434	0.499977
C87	C	0.116104	-0.116590	-0.000016
C88	C	0.616104	0.383410	0.499984
N89	N	0.121422	-0.894185	-0.237463
N90	N	0.621422	-0.394185	0.262537
C91	C	0.182806	-0.842789	-0.289988
C92	C	0.682806	-0.342789	0.210012
C93	C	0.060035	-0.945587	-0.289965
C94	C	0.560035	-0.445587	0.210035
C95	C	0.060032	-0.945594	-0.394984
C96	C	0.560032	-0.445594	0.105016
C97	C	0.121415	-0.894198	-0.447509
C98	C	0.621415	-0.394198	0.052491
C99	C	0.182803	-0.842794	-0.395016
C100	C	0.682803	-0.342794	0.104984
C101	C	-0.001360	-0.996992	-0.447484
C102	C	0.498640	-0.496992	0.052516
C103	C	-0.001367	-0.997002	-0.552509
C104	C	0.498633	-0.497002	-0.052509
C105	C	0.060021	-0.945608	-0.605036
C106	C	0.560021	-0.445608	-0.105036
C107	C	0.121412	-0.894202	-0.552537
C108	C	0.621412	-0.394202	-0.052537
C109	C	0.182795	-0.842806	-0.605063
C110	C	0.682795	-0.342806	-0.105063
C111	C	0.244191	-0.791403	-0.552565
C112	C	0.744191	-0.291403	-0.052565
C113	C	0.244191	-0.791400	-0.447544
C114	C	0.744191	-0.291400	0.052456
C115	C	0.060021	-0.945611	-0.710058
C116	C	0.560021	-0.445611	-0.210058
C117	C	0.182792	-0.842810	-0.710091
C118	C	0.682792	-0.342810	-0.210091
N119	N	0.121405	-0.894215	0.237416
N120	N	0.621405	-0.394215	0.737416
H121	H	0.126583	-0.664460	-0.165029
H122	H	0.626583	-0.164460	0.334971
C123	C	0.123644	-0.509962	-0.191020
C124	C	0.623644	-0.009962	0.308980
N125	N	0.123046	-0.477257	-0.266383
N126	N	0.623046	0.022743	0.233617
H127	H	0.010054	-0.987429	-0.247196
H128	H	0.510054	-0.487429	0.252804
H129	H	-0.624701	-1.015647	-0.000039
H130	H	-0.124701	-0.515647	0.499961
H131	H	-0.494552	-1.086839	-0.000042
H132	H	0.005448	-0.586839	0.499958
H133	H	0.126554	-0.664482	0.164998
H134	H	0.626554	-0.164482	0.664998
C135	C	-0.161685	-1.042798	-0.000017
C136	C	0.338315	-0.542798	0.499983
N137	N	-0.131765	-1.100542	-0.000019
N138	N	0.368235	-0.600542	0.499981
H139	H	0.116242	-0.123933	0.165001
H140	H	0.616242	0.376067	0.665001
C141	C	0.119170	-0.278431	0.190995
C142	C	0.619170	0.221569	0.690995
N143	N	0.119775	-0.311133	0.266361
N144	N	0.619775	0.188867	0.766361
C145	C	0.250336	-0.786247	-0.232241
C146	C	0.750336	-0.286247	0.267759
N147	N	0.301200	-0.743659	-0.188745
N148	N	0.801200	-0.243659	0.311255
C149	C	0.116041	-0.112632	-0.191019
C150	C	0.616041	0.387368	0.308981
N151	N	0.115420	-0.079923	-0.266377
N152	N	0.615420	0.420077	0.233623
H153	H	-0.323960	-1.089579	-0.000028
H154	H	0.176040	-0.589579	0.499972
C155	C	-0.068908	-1.053499	-0.389700
C156	C	0.431092	-0.553499	0.110300
N157	N	-0.119796	-1.096054	-0.346172
N158	N	0.380204	-0.596054	0.153828
H159	H	0.232781	-0.800959	-0.752851
H160	H	0.732781	-0.300959	-0.252851
C161	C	-0.115916	-0.753246	-0.000005
C162	C	0.384084	-0.253246	0.499995
N163	N	-0.067939	-0.696745	-0.000001
N164	N	0.432061	-0.196745	0.499999
C165	C	0.119203	-0.278419	-0.191016
C166	C	0.619203	0.221581	0.308984
N167	N	0.119824	-0.311116	-0.266377
N168	N	0.619824	0.188884	0.233623
C169	C	0.123601	-0.509977	0.190984
C170	C	0.623601	-0.009977	0.690984
N171	N	0.122975	-0.477274	0.266340
N172	N	0.622975	0.022726	0.766340
C173	C	-0.595485	-0.745595	-0.000029
C174	C	-0.095485	-0.245595	0.499971
N175	N	-0.625411	-0.687854	-0.000036
N176	N	-0.125411	-0.187854	0.499964
H177	H	-0.262604	-0.701547	-0.000014
H178	H	0.237396	-0.201547	0.499986
C179	C	0.311704	-0.734863	-0.610357
C180	C	0.811704	-0.234863	-0.110357
N181	N	0.362552	-0.692277	-0.653890
N182	N	0.862552	-0.192277	-0.153890
C183	C	-0.443540	-0.678910	-0.000028
C184	C	0.056460	-0.178910	0.499972
N185	N	-0.473474	-0.621172	-0.000048
N186	N	0.026526	-0.121172	0.499952
H187	H	0.294176	-0.749549	-0.404794
H188	H	0.794176	-0.249549	0.095206
H189	H	-0.051357	-1.038857	-0.595246
H190	H	0.448643	-0.538857	-0.095246
C191	C	-0.007508	-1.002152	-0.767800
C192	C	0.492492	-0.502152	-0.267800
N193	N	-0.058372	-1.044743	-0.811291
N194	N	0.441628	-0.544743	-0.311291
