data_functionalizedCrystal
_audit_creation_method	'MofGen! by Chris Wilmer'
_symmetry_space_group_name_H-M	'P1'
_symmetry_Int_Tables_number	1
_symmetry_cell_setting	triclinic
loop_
_symmetry_equiv_pos_as_xyz
  x,y,z
_cell_length_a	17.699077
_cell_length_b	10.489716
_cell_length_c	16.176319
_cell_angle_alpha	89.997268
_cell_angle_beta	89.993140
_cell_angle_gamma	83.904856
loop_
_atom_site_label
_atom_site_type_symbol
_atom_site_fract_x
_atom_site_fract_y
_atom_site_fract_z
O1	O	1.005128	0.161261	-0.068728
O2	O	1.505128	0.661261	0.431272
O3	O	0.784885	0.182255	-0.068731
O4	O	1.284885	0.682255	0.431269
O5	O	0.900028	-0.013935	-0.068733
O6	O	1.400028	0.486065	0.431267
O7	O	0.889986	0.357451	-0.068727
O8	O	1.389986	0.857451	0.431273
O9	O	0.900012	-0.013948	0.068760
O10	O	1.400012	0.486052	0.568760
O11	O	0.784869	0.182242	0.068762
O12	O	1.284869	0.682242	0.568762
O13	O	1.005112	0.161249	0.068765
O14	O	1.505112	0.661249	0.568765
Cu15	Cu	0.894989	0.171744	0.081318
Cu16	Cu	1.394989	0.671744	0.581318
Cu17	Cu	0.895008	0.171759	-0.081284
Cu18	Cu	1.395008	0.671759	0.418716
O19	O	0.889969	0.357439	0.068766
O20	O	1.389969	0.857439	0.568766
C21	C	0.756675	0.181497	0.000015
C22	C	1.256675	0.681497	0.500015
C23	C	0.672642	0.179245	0.000013
C24	C	1.172642	0.679245	0.500013
C25	C	0.633159	0.178176	0.074962
C26	C	1.133159	0.678176	0.574962
C27	C	0.554203	0.176039	0.074962
C28	C	1.054203	0.676039	0.574962
C29	C	0.514730	0.174980	0.000014
C30	C	1.014730	0.674980	0.500014
C31	C	0.554219	0.176044	-0.074940
C32	C	1.054219	0.676044	0.425060
C33	C	0.633175	0.178172	-0.074940
C34	C	1.133175	0.678172	0.425060
C35	C	0.235800	0.167461	-0.074942
C36	C	0.735800	0.667461	0.425058
C37	C	0.156839	0.165336	-0.074936
C38	C	0.656839	0.665336	0.425064
C39	C	0.156828	0.165328	0.074961
C40	C	0.656828	0.665328	0.574961
C41	C	0.235784	0.167456	0.074961
C42	C	0.735784	0.667456	0.574961
C43	C	0.275266	0.168513	0.000007
C44	C	0.775266	0.668513	0.500007
C45	C	0.360880	0.170828	0.000007
C46	C	0.860880	0.670828	0.500007
C47	C	0.429118	0.172674	0.000013
C48	C	0.929118	0.672674	0.500013
C49	C	0.899265	-0.061460	0.000011
C50	C	1.399265	0.438540	0.500011
C51	C	0.897008	-0.203049	0.000004
C52	C	1.397008	0.296951	0.500004
C53	C	0.967617	-0.302037	0.000012
C54	C	1.467617	0.197963	0.500012
C55	C	0.930313	-0.378697	-0.067777
C56	C	1.430313	0.121303	0.432223
C57	C	0.930281	-0.378673	0.067780
C58	C	1.430281	0.121327	0.567780
C59	C	0.859734	-0.277844	-0.067842
C60	C	1.359734	0.222156	0.432158
C61	C	0.859712	-0.277814	0.067777
C62	C	1.359712	0.222186	0.567777
C63	C	0.822357	-0.354424	-0.000030
C64	C	1.322357	0.145576	0.499970
C65	C	1.033322	0.162006	0.000017
C66	C	1.533322	0.662006	0.500017
C67	C	1.117355	0.164259	0.000013
C68	C	1.617355	0.664259	0.500013
C69	C	0.890732	0.404963	0.000020
C70	C	1.390732	0.904963	0.500020
C71	C	0.892989	0.546552	0.000022
C72	C	1.392989	1.046552	0.500022
N73	N	0.894981	0.171733	0.195683
N74	N	1.394981	0.671733	0.695683
N75	N	0.895022	0.171760	-0.195649
N76	N	1.395022	0.671760	0.304351
C77	C	0.945982	0.084896	0.238946
C78	C	1.445982	0.584896	0.738946
C79	C	0.945986	0.084894	0.325494
C80	C	1.445986	0.584894	0.825494
C81	C	0.894992	0.171738	0.368775
C82	C	1.394992	0.671738	0.868775
C83	C	0.843986	0.258579	0.325506
C84	C	1.343986	0.758579	0.825506
C85	C	0.843979	0.258573	0.238960
C86	C	1.343979	0.758573	0.738960
C87	C	0.844012	0.258603	0.674534
C88	C	1.344012	0.758603	1.174534
C89	C	0.844024	0.258605	0.761086
C90	C	1.344024	0.758605	1.261086
C91	C	0.946019	0.084924	0.761067
C92	C	1.446019	0.584924	1.261067
C93	C	0.946012	0.084918	0.674522
C94	C	1.446012	0.584918	1.174522
C95	C	0.895003	0.171755	0.631260
C96	C	1.395003	0.671755	1.131260
C97	C	0.894999	0.171754	0.537416
C98	C	1.394999	0.671754	1.037416
C99	C	0.895000	0.171746	0.462618
C100	C	1.395000	0.671746	0.962618
H101	H	0.267918	0.168325	0.135991
H102	H	0.767918	0.668325	0.635991
C103	C	0.970552	-0.438143	0.145206
C104	C	1.470552	0.061857	0.645206
H105	H	1.022120	-0.420600	0.145116
H106	H	1.522120	0.079400	0.645116
H107	H	0.968409	-0.528245	0.144924
H108	H	1.468409	-0.028245	0.644924
H109	H	0.945979	-0.402248	0.193345
H110	H	1.445979	0.097752	0.693345
C111	C	0.819476	-0.218270	0.145201
C112	C	1.319476	0.281730	0.645201
H113	H	0.844645	-0.252968	0.193325
H114	H	1.344645	0.247032	0.693325
H115	H	0.768154	-0.237115	0.145689
H116	H	1.268154	0.262885	0.645689
H117	H	0.820824	-0.127984	0.144363
H118	H	1.320824	0.372016	0.644363
H119	H	0.802480	0.329311	0.639317
H120	H	1.302480	0.829311	1.139317
C121	C	0.676606	0.179356	-0.157383
C122	C	1.176606	0.679356	0.342617
H123	H	0.641789	0.178433	-0.202020
H124	H	1.141789	0.678433	0.297980
H125	H	0.712781	0.105837	-0.160501
H126	H	1.212781	0.605837	0.339499
H127	H	0.702031	0.254547	-0.160496
H128	H	1.202031	0.754547	0.339504
C129	C	0.113400	0.164152	0.157412
C130	C	0.613400	0.664152	0.657412
H131	H	0.148217	0.165103	0.202047
H132	H	0.648217	0.665103	0.702047
H133	H	0.087973	0.088971	0.160533
H134	H	0.587973	0.588971	0.660533
H135	H	0.077226	0.237682	0.160526
H136	H	0.577226	0.737682	0.660526
H137	H	1.029035	-0.278504	-0.000056
H138	H	1.529035	0.221496	0.499944
C139	C	0.739329	-0.385896	-0.000078
C140	C	1.239329	0.114104	0.499922
H141	H	0.714370	-0.351033	-0.048279
H142	H	1.214370	0.148967	0.451721
H143	H	0.714073	-0.349823	0.047620
H144	H	1.214073	0.150177	0.547620
H145	H	0.738323	-0.476263	0.000375
H146	H	1.238323	0.023737	0.500375
H147	H	0.802462	0.329284	0.360751
H148	H	1.302462	0.829284	0.860751
C149	C	1.002117	-0.010583	0.626912
C150	C	1.502117	0.489417	1.126912
H151	H	0.994817	0.001865	0.569172
H152	H	1.494817	0.501865	1.069172
H153	H	0.993458	-0.095701	0.641094
H154	H	1.493458	0.404299	1.141094
H155	H	1.052700	0.003194	0.641090
H156	H	1.552700	0.503194	1.141090
H157	H	0.960127	-0.422742	-0.125089
H158	H	1.460127	0.077258	0.374911
C159	C	0.819512	-0.218601	-0.145359
C160	C	1.319512	0.281399	0.354641
H161	H	0.821236	-0.128391	-0.144908
H162	H	1.321236	0.371609	0.355092
H163	H	0.768075	-0.236834	-0.145559
H164	H	1.268075	0.263166	0.354441
H165	H	0.844428	-0.254019	-0.193437
H166	H	1.344428	0.245981	0.306563
H167	H	0.802448	0.329284	0.203736
H168	H	1.302448	0.829284	0.703736
H169	H	0.522061	0.175148	0.135993
H170	H	1.022061	0.675148	0.635993
H171	H	0.987510	0.014183	0.203712
H172	H	1.487510	0.514183	0.703712
C173	C	0.113420	0.164165	-0.157383
C174	C	0.613420	0.664165	0.342617
H175	H	0.148243	0.165089	-0.202023
H176	H	0.648243	0.665089	0.297977
H177	H	0.077248	0.237688	-0.160499
H178	H	0.577248	0.737688	0.339501
H179	H	0.087993	0.088977	-0.160493
H180	H	0.587993	0.588977	0.339507
H181	H	0.267938	0.168318	-0.135974
H182	H	0.767938	0.668318	0.364026
H183	H	0.522075	0.175172	-0.135965
H184	H	1.022075	0.675172	0.364035
H185	H	0.987514	0.014184	0.360718
H186	H	1.487514	0.514184	0.860718
H187	H	0.802496	0.329325	0.796324
H188	H	1.302496	0.829325	1.296324
C189	C	0.676574	0.179319	0.157406
C190	C	1.176574	0.679319	0.657406
H191	H	0.641750	0.178357	0.202042
H192	H	1.141750	0.678357	0.702042
H193	H	0.702007	0.254491	0.160535
H194	H	1.202007	0.754491	0.660535
H195	H	0.712743	0.105780	0.160510
H196	H	1.212743	0.605780	0.660510
H197	H	0.987551	0.014213	0.796300
H198	H	1.487551	0.514213	1.296300
