data_functionalizedCrystal
_audit_creation_method	'MofGen! by Chris Wilmer'
_symmetry_space_group_name_H-M	'P1'
_symmetry_Int_Tables_number	1
_symmetry_cell_setting	triclinic
loop_
_symmetry_equiv_pos_as_xyz
  x,y,z
_cell_length_a	18.101398
_cell_length_b	18.101396
_cell_length_c	11.169409
_cell_angle_alpha	90.035042
_cell_angle_beta	89.986085
_cell_angle_gamma	89.967420
loop_
_atom_site_label
_atom_site_type_symbol
_atom_site_fract_x
_atom_site_fract_y
_atom_site_fract_z
Zn1	Zn	1.132121	0.294858	-0.678331
Zn2	Zn	1.131995	0.418724	-0.477638
Zn3	Zn	1.008271	0.294891	-0.477686
Zn4	Zn	1.008218	0.418652	-0.678304
O5	O	1.070151	0.356781	-0.577990
O6	O	1.235737	0.311305	-0.651700
O7	O	1.115552	0.402341	-0.309695
O8	O	1.024775	0.191254	-0.504333
O9	O	1.235645	0.402309	-0.504252
O10	O	1.115767	0.191229	-0.651746
O11	O	1.024653	0.311362	-0.309730
O12	O	0.904631	0.311292	-0.504307
O13	O	1.024684	0.402186	-0.846257
O14	O	0.904592	0.402219	-0.651700
O15	O	1.115715	0.311235	-0.846277
O16	O	1.115501	0.522347	-0.504226
O17	O	1.024562	0.522295	-0.651654
C18	C	0.877741	0.356752	-0.578006
C19	C	0.795427	0.356757	-0.578042
C20	C	0.496336	0.356801	-0.577992
C21	C	0.527661	0.414286	-0.670270
C22	C	0.613279	0.414106	-0.670649
C23	C	0.644718	0.356780	-0.578017
C24	C	0.613673	0.278774	-0.612576
C25	C	0.528028	0.279120	-0.613232
C26	C	0.527875	0.376634	-0.450932
C27	C	0.613525	0.378345	-0.451611
C28	C	0.728578	0.356763	-0.578029
C29	C	0.412476	0.356812	-0.577983
C30	C	1.070032	0.549192	-0.577958
C31	C	1.070049	0.631506	-0.577984
C32	C	1.070181	0.930597	-0.578054
C33	C	1.013101	0.899269	-0.671042
C34	C	1.012838	0.813651	-0.670749
C35	C	1.070115	0.782214	-0.578021
C36	C	1.048977	0.813375	-0.451538
C37	C	1.048600	0.899020	-0.452096
C38	C	1.148527	0.898944	-0.610436
C39	C	1.148075	0.813292	-0.613208
C40	C	1.070080	0.698355	-0.577994
C41	C	1.070215	1.014456	-0.578073
C42	C	1.263313	0.356811	-0.577974
C43	C	1.345627	0.356824	-0.577967
C44	C	1.070208	0.356699	-0.891032
C45	C	1.070232	0.356664	-1.024432
C46	C	1.070265	1.163619	-0.578052
C47	C	1.070247	1.081305	-0.578091
C48	C	1.070137	0.356810	-0.266165
C49	C	1.070256	0.356636	-0.132765
H50	H	0.634926	0.339517	-0.379165
O51	O	0.981439	0.787788	-0.418075
C52	C	0.988150	0.747269	-0.310857
H53	H	1.047332	0.726568	-0.301098
H54	H	0.948791	0.698146	-0.313134
H55	H	0.973755	0.784326	-0.231640
O56	O	1.028627	0.923678	-0.783380
C57	C	0.976495	0.894652	-0.864502
H58	H	0.951216	0.842257	-0.825503
H59	H	1.005008	0.881061	-0.952834
H60	H	0.931110	0.937166	-0.880769
O61	O	0.502926	0.483485	-0.644803
C62	C	0.425111	0.484638	-0.650076
H63	H	0.404958	0.437368	-0.709094
H64	H	0.405899	0.539490	-0.689370
H65	H	0.401555	0.477991	-0.556031
H66	H	0.955382	0.920853	-0.649864
H67	H	0.506254	0.432543	-0.419524
H68	H	0.507618	0.334762	-0.382176
O69	O	1.171602	0.924720	-0.718491
C70	C	1.238103	0.964218	-0.703837
H71	H	1.242611	0.984392	-0.607412
H72	H	1.238611	1.013644	-0.767035
H73	H	1.286860	0.926558	-0.725215
H74	H	0.506156	0.401330	-0.763869
H75	H	0.507308	0.234753	-0.549103
O76	O	1.096986	0.789206	-0.366490
C77	C	1.076401	0.818197	-0.254132
H78	H	1.042208	0.870432	-0.267678
H79	H	1.128118	0.832048	-0.200412
H80	H	1.042234	0.775554	-0.203449
H81	H	0.634267	0.471951	-0.648990
H82	H	0.508073	0.262300	-0.706119
O83	O	0.637759	0.446780	-0.420306
C84	C	0.678963	0.442096	-0.313470
H85	H	0.662156	0.390310	-0.262243
H86	H	0.667690	0.492930	-0.255983
H87	H	0.740359	0.439263	-0.335791
H88	H	1.088371	0.919747	-0.380452
O89	O	1.167001	0.788894	-0.724242
C90	C	1.110008	0.743953	-0.769990
H91	H	1.076027	0.720771	-0.692731
H92	H	1.135076	0.696483	-0.823452
H93	H	1.072836	0.778261	-0.830778
O94	O	0.943549	0.789243	-0.645365
C95	C	0.917281	0.745975	-0.741326
H96	H	0.948146	0.761469	-0.826663
H97	H	0.855682	0.756450	-0.754134
H98	H	0.926775	0.685022	-0.720777
O99	O	0.637875	0.226200	-0.534983
C100	C	0.609005	0.156906	-0.568628
H101	H	0.556780	0.165323	-0.623995
H102	H	0.595170	0.123638	-0.484952
H103	H	0.651718	0.125724	-0.624143
O104	O	0.980277	0.923023	-0.419548
C105	C	0.949782	0.965703	-0.512829
H106	H	0.996126	0.988477	-0.571226
H107	H	0.916778	1.013465	-0.473149
H108	H	0.911784	0.929682	-0.569541
O109	O	1.201410	0.787718	-0.538162
C110	C	1.169255	0.740910	-0.451825
H111	H	1.108079	0.754705	-0.442295
H112	H	1.198045	0.749239	-0.362066
H113	H	1.175640	0.680935	-0.481298
O114	O	1.199178	0.923210	-0.529579
C115	C	1.164032	0.968541	-0.444092
H116	H	1.110932	0.991955	-0.483737
H117	H	1.202414	1.015837	-0.418226
H118	H	1.150330	0.934488	-0.361188
H119	H	0.635144	0.261651	-0.704453
O120	O	0.637654	0.398538	-0.783046
C121	C	0.611400	0.452659	-0.863202
H122	H	0.559930	0.479899	-0.824238
H123	H	0.597098	0.425601	-0.952418
H124	H	0.655941	0.496242	-0.877766
H125	H	1.026064	0.792580	-0.764536
