data_functionalizedCrystal
_audit_creation_method	'MofGen! by Chris Wilmer'
_symmetry_space_group_name_H-M	'P1'
_symmetry_Int_Tables_number	1
_symmetry_cell_setting	triclinic
loop_
_symmetry_equiv_pos_as_xyz
  x,y,z
_cell_length_a	19.077105
_cell_length_b	12.759400
_cell_length_c	12.759393
_cell_angle_alpha	90.029330
_cell_angle_beta	92.318830
_cell_angle_gamma	87.709695
loop_
_atom_site_label
_atom_site_type_symbol
_atom_site_fract_x
_atom_site_fract_y
_atom_site_fract_z
Zn1	Zn	1.076063	-0.482847	0.658539
Zn2	Zn	1.075996	-0.658558	0.482858
Zn3	Zn	0.958361	-0.475828	0.475818
Zn4	Zn	0.958356	-0.651414	0.651443
O5	O	1.017194	-0.567162	0.567164
O6	O	1.174546	-0.512082	0.641150
O7	O	1.060366	-0.634371	0.334902
O8	O	0.974004	-0.329740	0.500079
O9	O	1.174497	-0.641176	0.512079
O10	O	1.060480	-0.334896	0.634323
O11	O	0.973939	-0.500120	0.329729
O12	O	0.859868	-0.493193	0.493198
O13	O	0.973996	-0.629001	0.799407
O14	O	0.859865	-0.622196	0.622230
O15	O	1.060475	-0.505155	0.804620
O16	O	1.060361	-0.804630	0.505198
O17	O	0.973931	-0.799381	0.629057
C18	C	0.834329	-0.556158	0.556181
C19	C	0.756098	-0.551476	0.551507
C20	C	0.719362	-0.616543	0.616385
C21	C	0.645856	-0.612130	0.611998
C22	C	0.609087	-0.542655	0.542727
C23	C	0.645829	-0.477581	0.477847
C24	C	0.719334	-0.481990	0.482239
C25	C	0.389250	-0.522252	0.522402
C26	C	0.315741	-0.517850	0.518012
C27	C	0.315772	-0.652398	0.652166
C28	C	0.389278	-0.656805	0.656548
C29	C	0.426014	-0.591727	0.591671
N30	N	0.533953	-0.538145	0.538240
N31	N	0.501147	-0.596233	0.596165
C32	C	1.017157	-0.840127	0.567146
C33	C	1.017206	-0.956907	0.567176
C34	C	1.062211	-1.014372	0.637131
C35	C	1.062244	-1.124098	0.637159
C36	C	0.972264	-1.118883	0.497268
C37	C	0.972228	-1.009159	0.497246
C38	C	1.107189	-0.962120	0.707062
C39	C	1.152198	-1.019586	0.777021
C40	C	1.152231	-1.129312	0.777049
C41	C	1.107254	-1.181572	0.707117
C42	C	1.200774	-0.578209	0.578192
C43	C	1.279004	-0.582917	0.582891
C44	C	1.017243	-0.567064	0.841201
C45	C	1.017263	-0.567022	0.957979
C46	C	1.017250	-0.293132	0.567207
C47	C	1.017274	-0.176357	0.567226
C48	C	1.017186	-0.567186	0.294196
C49	C	1.017302	-0.566940	0.177427
C50	C	1.062268	-0.636901	1.015532
C51	C	1.062289	-0.636858	1.125257
C52	C	0.972295	-0.497053	1.119866
C53	C	0.972278	-0.497092	1.010143
C54	C	1.107253	-0.706831	0.963367
C55	C	1.152260	-0.776717	1.020920
C56	C	1.152281	-0.776673	1.130646
C57	C	1.107295	-0.706744	1.182818
H58	H	0.615948	-0.665115	0.664828
N59	N	1.107281	-1.299919	0.707143
H60	H	1.094324	-1.325531	0.778427
H61	H	1.155587	-1.329135	0.690751
N62	N	1.200697	-0.963219	0.852451
H63	H	1.233316	-0.919652	0.811744
H64	H	1.229165	-1.016336	0.896760
N65	N	0.923738	-0.421721	0.948065
H66	H	0.873449	-0.435002	0.964131
H67	H	0.930616	-0.432391	0.870664
N68	N	0.923761	-1.175243	0.421838
H69	H	0.930615	-1.253473	0.432464
H70	H	0.934740	-1.156761	0.347475
H71	H	0.935580	-0.962369	0.440283
N72	N	0.923765	-0.421653	1.176132
H73	H	0.930600	-0.432239	1.254374
H74	H	0.873496	-0.435004	1.153918
N75	N	1.200819	-0.852050	1.192720
H76	H	1.194007	-0.841416	1.270146
H77	H	1.251087	-0.838740	1.176563
H78	H	1.107169	-0.872776	0.707045
N79	N	1.200751	-1.191296	0.852532
H80	H	1.229231	-1.141540	0.896834
H81	H	1.233357	-1.238790	0.811796
H82	H	1.188890	-0.833644	0.978435
N83	N	1.107323	-0.706685	1.301165
H84	H	1.142663	-0.761561	1.329711
H85	H	1.059018	-0.723045	1.324612
N86	N	0.759016	-0.691484	0.691092
H87	H	0.724587	-0.732032	0.731526
H88	H	0.789535	-0.650608	0.741609
N89	N	1.107229	-0.706871	0.845022
H90	H	1.094267	-0.778171	0.817804
H91	H	1.155521	-0.690437	0.821578
N92	N	0.428934	-0.731744	0.731256
H93	H	0.394508	-0.772295	0.771691
H94	H	0.459455	-0.690870	0.781773
N95	N	0.276072	-0.442944	0.443274
H96	H	0.245578	-0.392485	0.484213
H97	H	0.245609	-0.483873	0.392725
N98	N	0.276147	-0.722580	0.722135
H99	H	0.245670	-0.678114	0.769075
H100	H	0.310636	-0.767249	0.766617
N101	N	0.428854	-0.452047	0.452433
H102	H	0.416036	-0.467499	0.376571
H103	H	0.480988	-0.465390	0.465807
N104	N	0.606171	-0.402667	0.403117
H105	H	0.575683	-0.352202	0.444058
H106	H	0.575703	-0.443578	0.352560
N107	N	0.758960	-0.411805	0.412272
H108	H	0.724515	-0.367123	0.367722
H109	H	0.789441	-0.456335	0.365398
