data_functionalizedCrystal
_audit_creation_method	'MofGen! by Chris Wilmer'
_symmetry_space_group_name_H-M	'P1'
_symmetry_Int_Tables_number	1
_symmetry_cell_setting	triclinic
loop_
_symmetry_equiv_pos_as_xyz
  x,y,z
_cell_length_a	25.639243
_cell_length_b	25.639240
_cell_length_c	12.759393
_cell_angle_alpha	89.955560
_cell_angle_beta	89.976868
_cell_angle_gamma	90.035481
loop_
_atom_site_label
_atom_site_type_symbol
_atom_site_fract_x
_atom_site_fract_y
_atom_site_fract_z
Zn1	Zn	0.799284	-0.208081	-0.594050
Zn2	Zn	0.799205	-0.295528	-0.418331
Zn3	Zn	0.711849	-0.208112	-0.418372
Zn4	Zn	0.711814	-0.295491	-0.593955
O5	O	0.755538	-0.251803	-0.506177
O6	O	0.872438	-0.219683	-0.570763
O7	O	0.787599	-0.283961	-0.271316
O8	O	0.723495	-0.134943	-0.441733
O9	O	0.872381	-0.283930	-0.441664
O10	O	0.787733	-0.134920	-0.570803
O11	O	0.723419	-0.219737	-0.271345
O12	O	0.638679	-0.219701	-0.441641
O13	O	0.723435	-0.283868	-0.740989
O14	O	0.638654	-0.283898	-0.570641
O15	O	0.787699	-0.219647	-0.741059
O16	O	0.787565	-0.368688	-0.441572
O17	O	0.723359	-0.368661	-0.570602
C18	C	0.619695	-0.251800	-0.506135
C19	C	0.561581	-0.251811	-0.506143
C20	C	0.201243	-0.218402	-0.573511
C21	C	0.146638	-0.218402	-0.573518
O22	O	0.118422	-0.189987	-0.630746
N23	N	0.119299	-0.251802	-0.506206
C24	C	0.146567	-0.285200	-0.438876
O25	O	0.118298	-0.313609	-0.381621
C26	C	0.201170	-0.285198	-0.438865
C27	C	0.228507	-0.251799	-0.506188
C28	C	0.228580	-0.185006	-0.640829
C29	C	0.283180	-0.185008	-0.640824
C30	C	0.310444	-0.218405	-0.573501
C31	C	0.283107	-0.251801	-0.506183
C32	C	0.228436	-0.318593	-0.371530
C33	C	0.283044	-0.318588	-0.371524
C34	C	0.310380	-0.285189	-0.438848
C35	C	0.364971	-0.285199	-0.438855
N36	N	0.392311	-0.251799	-0.506167
C37	C	0.365047	-0.218402	-0.573490
C38	C	0.031896	-0.285202	-0.438903
C39	C	-0.022706	-0.285208	-0.438918
C40	C	-0.022631	-0.218409	-0.573559
C41	C	0.031973	-0.218406	-0.573548
C42	C	0.059235	-0.251803	-0.506215
C43	C	0.479712	-0.218408	-0.573474
C44	C	0.534318	-0.218413	-0.573466
C45	C	0.534237	-0.285211	-0.438821
C46	C	0.479637	-0.285207	-0.438833
C47	C	0.452375	-0.251801	-0.506163
O48	O	0.393222	-0.313598	-0.381653
O49	O	0.393322	-0.189993	-0.630724
C50	C	0.755464	-0.387646	-0.506095
C51	C	0.755480	-0.445760	-0.506095
C52	C	0.789003	-0.806072	-0.573505
C53	C	0.789019	-0.860677	-0.573526
O54	O	0.817433	-0.888870	-0.630757
N55	N	0.755611	-0.888042	-0.506279
C56	C	0.722181	-0.860801	-0.439013
O57	O	0.693766	-0.889091	-0.381816
C58	C	0.722163	-0.806197	-0.438997
C59	C	0.755577	-0.778835	-0.506242
C60	C	0.822414	-0.778709	-0.640745
C61	C	0.822399	-0.724109	-0.640722
C62	C	0.788974	-0.696871	-0.573459
C63	C	0.755563	-0.724234	-0.506219
C64	C	0.688732	-0.778957	-0.371737
C65	C	0.688717	-0.724350	-0.371729
C66	C	0.722131	-0.696987	-0.438973
C67	C	0.722122	-0.642396	-0.438933
N68	N	0.755530	-0.615030	-0.506181
C69	C	0.788956	-0.642268	-0.573444
C70	C	0.722220	-0.975471	-0.439051
C71	C	0.722240	-1.030074	-0.439060
C72	C	0.789077	-1.029946	-0.573576
C73	C	0.789059	-0.975342	-0.573561
C74	C	0.755628	-0.948106	-0.506299
C75	C	0.788922	-0.527603	-0.573390
C76	C	0.788906	-0.472997	-0.573358
C77	C	0.722067	-0.473130	-0.438847
C78	C	0.722085	-0.527731	-0.438874
C79	C	0.755515	-0.554966	-0.506154
O80	O	0.693720	-0.614167	-0.381735
O81	O	0.817361	-0.613971	-0.630641
C82	C	0.891911	-0.251807	-0.506220
C83	C	0.950025	-0.251809	-0.506238
C84	C	0.755572	-0.251750	-0.780211
C85	C	0.755586	-0.251727	-0.896987
C86	C	0.755626	-0.115430	-0.506283
C87	C	0.755664	-0.057316	-0.506328
C88	C	0.722182	-0.218280	-0.951871
C89	C	0.722198	-0.218264	-1.061595
C90	C	0.789027	-0.285145	-1.061542
C91	C	0.789008	-0.285163	-0.951820
C92	C	0.688760	-0.184844	-0.897038
C93	C	0.655353	-0.151393	-0.951922
C94	C	0.655369	-0.151378	-1.061646
C95	C	0.688792	-0.184813	-1.116486
C96	C	0.755534	-0.251818	-0.233210
C97	C	0.755621	-0.251694	-0.116434
H98	H	0.054227	-0.191209	-0.628367
H99	H	0.816239	-0.312365	-1.106202
C100	C	-0.052773	-0.321951	-0.364869
C101	C	-0.045285	-0.317615	-0.245450
C102	C	-0.075349	-0.354358	-0.171394
C103	C	-0.112900	-0.395436	-0.216757
C104	C	-0.120390	-0.399774	-0.336182
C105	C	-0.090326	-0.363032	-0.410238
H106	H	-0.017486	-0.287205	-0.211865
H107	H	-0.069805	-0.351147	-0.082988
H108	H	-0.135155	-0.422635	-0.161936
H109	H	-0.148189	-0.430184	-0.369768
H110	H	-0.095870	-0.366243	-0.498645
H111	H	0.695037	-1.052348	-0.384292
H112	H	0.054090	-0.312403	-0.384074
H113	H	0.694881	-0.550011	-0.384110
H114	H	0.694854	-0.450945	-0.384079
H115	H	0.688745	-0.184852	-0.807695
C116	C	0.825812	-0.945246	-0.647536
C117	C	0.885254	-0.952704	-0.639081
C118	C	0.922007	-0.922611	-0.713062
C119	C	0.899318	-0.885058	-0.795498
C120	C	0.839873	-0.877598	-0.803957
C121	C	0.803120	-0.907692	-0.729976
H122	H	0.902052	-0.980504	-0.578053
H123	H	0.966012	-0.928134	-0.706799
H124	H	0.926525	-0.862781	-0.850263
H125	H	0.823075	-0.849798	-0.864984
H126	H	0.759115	-0.902169	-0.736239
H127	H	0.816216	-0.312392	-0.907133
H128	H	0.305433	-0.157811	-0.695644
H129	H	0.849633	-0.800880	-0.695525
C130	C	0.198374	-0.355328	-0.297464
C131	C	0.160822	-0.396411	-0.342808
C132	C	0.130759	-0.433146	-0.268735
C133	C	0.138249	-0.428799	-0.149318
C134	C	0.175803	-0.387714	-0.103968
C135	C	0.205866	-0.350979	-0.178041
H136	H	0.155275	-0.399631	-0.431213
H137	H	0.102959	-0.463560	-0.302307
H138	H	0.115995	-0.455992	-0.094485
H139	H	0.181350	-0.384494	-0.015564
H140	H	0.233666	-0.320565	-0.144470
H141	H	0.556573	-0.191216	-0.628292
H142	H	0.305238	-0.345783	-0.316690
H143	H	0.457523	-0.191204	-0.628297
C144	C	0.618588	-0.114619	-0.891603
C145	C	0.618568	-0.114633	-0.770913
C146	C	0.581801	-0.077858	-0.710597
C147	C	0.545054	-0.041068	-0.770971
C148	C	0.545072	-0.041053	-0.891667
C149	C	0.581839	-0.077828	-0.951984
H150	H	0.645772	-0.141867	-0.726214
H151	H	0.581788	-0.077869	-0.621249
H152	H	0.517837	-0.013845	-0.726321
H153	H	0.517868	-0.013818	-0.936366
H154	H	0.581853	-0.077816	-1.041332
C155	C	0.825662	-0.442900	-0.647335
C156	C	0.866717	-0.405348	-0.601882
C157	C	0.903471	-0.375253	-0.675858
C158	C	0.899170	-0.382709	-0.795288
C159	C	0.858114	-0.420262	-0.840748
C160	C	0.821360	-0.450357	-0.766771
H161	H	0.869902	-0.399828	-0.513467
H162	H	0.933863	-0.347454	-0.642205
H163	H	0.926377	-0.360430	-0.850050
H164	H	0.854929	-0.425782	-0.929162
H165	H	0.790967	-0.478156	-0.800424
C166	C	0.449561	-0.321946	-0.364783
C167	C	0.457048	-0.317607	-0.245364
C168	C	0.426976	-0.354341	-0.171304
C169	C	0.389417	-0.395414	-0.216664
C170	C	0.381929	-0.399754	-0.336088
C171	C	0.412001	-0.363020	-0.410148
H172	H	0.484853	-0.287201	-0.211781
H173	H	0.432520	-0.351128	-0.082898
H174	H	0.367156	-0.422607	-0.161840
H175	H	0.354124	-0.430160	-0.369672
H176	H	0.406457	-0.366233	-0.498555
H177	H	0.628164	-0.124144	-1.106329
H178	H	0.816140	-0.549771	-0.628183
H179	H	0.688801	-0.184799	-1.205831
H180	H	0.206387	-0.157807	-0.695652
C181	C	-0.052629	-0.181668	-0.647610
C182	C	-0.045094	-0.122225	-0.639265
C183	C	-0.075095	-0.085488	-0.713311
C184	C	-0.112632	-0.108194	-0.795703
C185	C	-0.120169	-0.167640	-0.804051
C186	C	-0.090168	-0.204377	-0.730005
H187	H	-0.017305	-0.105414	-0.578271
H188	H	-0.069515	-0.041482	-0.707131
H189	H	-0.134840	-0.080999	-0.850516
H190	H	-0.147958	-0.184451	-0.865046
H191	H	-0.095748	-0.248384	-0.736186
H192	H	0.816293	-1.052132	-0.628347
C193	C	0.685449	-0.945514	-0.365044
C194	C	0.689757	-0.953079	-0.245621
C195	C	0.652987	-0.923125	-0.171615
C196	C	0.611907	-0.885606	-0.217032
C197	C	0.607597	-0.878039	-0.336461
C198	C	0.644368	-0.907993	-0.410467
H199	H	0.720168	-0.980854	-0.211995
H200	H	0.656177	-0.928726	-0.083205
H201	H	0.584687	-0.863432	-0.162249
H202	H	0.577186	-0.850263	-0.370087
H203	H	0.641177	-0.902391	-0.498877
H204	H	0.556445	-0.312403	-0.384010
H205	H	0.661522	-0.801226	-0.316979
C206	C	0.651942	-0.694390	-0.297735
C207	C	0.656243	-0.701953	-0.178310
C208	C	0.619470	-0.671994	-0.104316
C209	C	0.578397	-0.634472	-0.149747
C210	C	0.574095	-0.626907	-0.269177
C211	C	0.610868	-0.656866	-0.343172
H212	H	0.686649	-0.729730	-0.144674
H213	H	0.622655	-0.677594	-0.015905
H214	H	0.551176	-0.612294	-0.094972
H215	H	0.543689	-0.599129	-0.302813
H216	H	0.607683	-0.651266	-0.431583
H217	H	0.849606	-0.701833	-0.695482
