data_functionalizedCrystal
_audit_creation_method	'MofGen! by Chris Wilmer'
_symmetry_space_group_name_H-M	'P1'
_symmetry_Int_Tables_number	1
_symmetry_cell_setting	triclinic
loop_
_symmetry_equiv_pos_as_xyz
  x,y,z
_cell_length_a	23.096457
_cell_length_b	20.875641
_cell_length_c	20.875625
_cell_angle_alpha	64.253531
_cell_angle_beta	92.969478
_cell_angle_gamma	57.580711
loop_
_atom_site_label
_atom_site_type_symbol
_atom_site_fract_x
_atom_site_fract_y
_atom_site_fract_z
Zr1	Zr	0.531631	0.702256	-0.058576
O2	O	0.430150	0.836110	-0.156114
O3	O	0.565675	0.568405	-0.032061
O4	O	0.555172	0.702257	-0.160999
O5	O	0.445599	0.702256	0.078385
O6	O	0.650455	0.702255	-0.161001
O7	O	0.440652	0.702258	-0.027175
O8	O	0.669241	0.462818	0.069646
O9	O	0.426812	0.941692	-0.152263
O10	O	0.647757	0.623457	-0.016663
O11	O	0.580341	0.623457	0.062117
O12	O	0.567975	0.781051	-0.089692
O13	O	0.500559	0.781051	-0.010912
Zr14	Zr	0.691485	0.702249	0.109777
Zr15	Zr	0.683595	0.702252	-0.058579
Zr16	Zr	0.539521	0.702253	0.109781
Zr17	Zr	0.526308	0.870648	-0.052433
Zr18	Zr	0.696808	0.533857	0.103635
O19	O	0.657441	0.836099	0.083262
O20	O	0.646223	0.836104	-0.156119
O21	O	0.441368	0.836105	0.083267
O22	O	0.792966	0.568395	0.207315
O23	O	0.781748	0.568400	-0.032066
O24	O	0.576892	0.568401	0.207321
O25	O	0.777517	0.702249	-0.027183
O26	O	0.667944	0.702248	0.212201
O27	O	0.572661	0.702250	0.212203
O28	O	0.782464	0.702247	0.078377
O29	O	0.547603	0.941689	-0.152265
O30	O	0.675512	0.462816	0.203467
O31	O	0.796304	0.462813	0.203464
O32	O	0.790033	0.462815	0.069643
O33	O	0.433083	0.941690	-0.018442
O34	O	0.553875	0.941686	-0.018445
O35	O	0.655140	0.623454	0.140893
O36	O	0.722557	0.623454	0.062113
O37	O	0.642775	0.781047	-0.010915
O38	O	0.575359	0.781048	0.067865
C39	C	0.618216	0.491620	0.017918
C40	C	0.620476	0.420133	0.015310
C41	C	0.586333	0.386563	0.055192
C42	C	0.588422	0.319431	0.052703
C43	C	0.624659	0.285866	0.010336
C44	C	0.658802	0.319442	-0.029550
C45	C	0.656709	0.386578	-0.027065
C46	C	0.634690	0.085084	-0.001510
C47	C	0.636783	0.017942	-0.003990
C48	C	0.566401	0.017936	0.078262
C49	C	0.564314	0.085069	0.080747
C50	C	0.598454	0.118643	0.040857
N51	N	0.626797	0.217244	0.007793
N52	N	0.596312	0.187268	0.043397
C53	C	0.421474	0.702257	0.025605
C54	C	0.356961	0.702259	0.025607
C55	C	0.323933	0.702267	-0.032551
C56	C	0.263321	0.702259	-0.032551
C57	C	0.235730	0.702261	0.025601
C58	C	0.268769	0.702248	0.083769
C59	C	0.329384	0.702247	0.083772
N60	N	0.116579	0.753629	0.045080
N61	N	0.058996	0.753632	0.045073
C62	C	0.053101	0.702261	0.025597
N63	N	0.106958	0.650900	0.006115
N64	N	0.164544	0.650901	0.006118
C65	C	0.170004	0.702261	0.025605
C66	C	-0.045650	0.702259	-0.032564
C67	C	-0.106260	0.702245	-0.032559
C68	C	-0.100815	0.702243	0.083758
C69	C	-0.040201	0.702248	0.083756
C70	C	-0.012625	0.702260	0.025591
C71	C	0.801642	0.702247	0.025596
C72	C	0.866155	0.702246	0.025595
C73	C	0.601689	0.702256	-0.184987
C74	C	0.598340	0.702258	-0.256459
C75	C	0.604899	0.912885	0.033284
C76	C	0.602640	0.984372	0.035891
C77	C	0.649258	0.702258	-0.290038
C78	C	0.646113	0.702251	-0.357189
C79	C	0.592047	0.702251	-0.390764
C80	C	0.541126	0.702248	-0.357179
C81	C	0.544275	0.702248	-0.290026
C82	C	0.577004	0.702244	-0.591601
C83	C	0.573858	0.702247	-0.658761
C84	C	0.678846	0.702248	-0.658765
C85	C	0.681987	0.702254	-0.591613
C86	C	0.631069	0.702246	-0.558032
N87	N	0.588829	0.702247	-0.459405
N88	N	0.634290	0.702244	-0.489389
C89	C	0.621427	0.702248	0.236189
C90	C	0.624776	0.702247	0.307661
C91	C	0.808301	0.491615	0.017913
C92	C	0.875073	0.420126	0.015304
C93	C	0.628085	0.491616	0.228506
C94	C	0.633694	0.420127	0.297370
C95	C	0.818169	0.491611	0.228501
C96	C	0.888291	0.420121	0.297364
C97	C	0.404947	0.912894	-0.177300
C98	C	0.334825	0.984384	-0.246162
C99	C	0.414815	0.912890	0.033289
C100	C	0.348043	0.984379	0.035898
C101	C	0.595031	0.912889	-0.177304
C102	C	0.589422	0.984377	-0.246168
C103	C	0.867385	0.386556	-0.027049
C104	C	0.930118	0.319394	-0.029516
C105	C	1.000539	0.285799	0.010375
C106	C	1.008226	0.319376	0.052729
C107	C	0.945493	0.386541	0.055191
C108	C	0.675373	0.386554	0.370837
C109	C	0.680641	0.319393	0.435549
C110	C	0.644233	0.285801	0.426792
C111	C	0.602549	0.319381	0.353317
C112	C	0.597278	0.386546	0.288607
C113	C	0.956418	0.386548	0.288580
C114	C	1.022310	0.319385	0.353277
C115	C	1.020074	0.285791	0.426758
C116	C	0.951940	0.319370	0.435541
C117	C	0.886049	0.386537	0.370844
C118	C	0.266697	1.017965	-0.237378
C119	C	0.200805	1.085149	-0.302075
C120	C	0.203041	1.118746	-0.375555
C121	C	0.271175	1.085163	-0.384338
C122	C	0.337066	1.017984	-0.319642
C123	C	0.355730	1.017956	0.078244
C124	C	0.292995	1.085136	0.080693
C125	C	0.222575	1.118734	0.040800
C126	C	0.214888	1.085154	-0.001552
C127	C	0.277622	1.017979	-0.004005
C128	C	0.625839	1.017947	-0.237387
C129	C	0.620583	1.085109	-0.302086
C130	C	0.578905	1.118704	-0.375566
C131	C	0.542488	1.085128	-0.384346
C132	C	0.547748	1.017963	-0.319648
H133	H	0.666294	-0.009384	-0.038492
C134	C	0.573124	1.192590	-0.446728
N135	N	0.568771	1.248242	-0.500325
H136	H	0.951763	0.413865	0.089684
C137	C	-0.003862	0.702228	0.147740
N138	N	0.023513	0.702202	0.195941
C139	C	0.496675	1.122060	-0.465182
N140	N	0.462177	1.149871	-0.526070
C141	C	1.097250	0.282452	0.343599
N142	N	1.153693	0.254634	0.336307
C143	C	0.715424	0.423497	0.380489
N144	N	0.745589	0.451323	0.387765
C145	C	0.698663	0.282519	-0.076155
N146	N	0.728690	0.254706	-0.111255
C147	C	0.264219	0.981026	-0.156555
N148	N	0.262347	0.953213	-0.095680
H149	H	0.392537	0.990644	-0.326803
H150	H	0.149382	1.173446	-0.428229
C151	C	0.694271	0.423502	-0.070936
N152	N	0.722563	0.451315	-0.103983
H153	H	0.299268	1.112465	0.115183
C154	C	0.125865	1.122077	-0.292397
N155	N	0.069422	1.149889	-0.285105
C156	C	0.354270	0.702267	-0.096528
N157	N	0.377123	0.702262	-0.144714
C158	C	0.921647	0.282464	-0.076103
N159	N	0.915265	0.254649	-0.111190
H160	H	0.413065	0.990606	0.110735
C161	C	0.273623	1.122121	-0.465174
N162	N	0.275464	1.149955	-0.526062
C163	C	0.520905	0.702408	-0.554751
N164	N	0.478618	0.702593	-0.527021
H165	H	0.171499	1.173431	0.042804
H166	H	0.810050	0.413909	-0.059543
H167	H	0.538604	-0.009406	0.110736
H168	H	0.271353	0.990643	-0.038486
C169	C	1.069541	0.211909	0.007664
N170	N	1.121511	0.156252	0.005623
H171	H	-0.123276	0.702240	0.131109
C172	C	0.708736	0.702258	-0.253112
N173	N	0.753539	0.702253	-0.225299
C174	C	0.507672	0.981055	-0.329320
N175	N	0.477482	0.953262	-0.336610
H176	H	0.563340	0.413873	0.228789
H177	H	0.157543	1.112519	-0.034031
H178	H	1.065570	0.292013	0.085206
H179	H	0.662490	0.112413	-0.033988
H180	H	0.714587	0.292060	0.495369
H181	H	0.236424	0.702265	-0.079911
C182	C	0.671694	0.981001	-0.156565
N183	N	0.706238	0.953172	-0.095692
C184	C	-0.015307	0.702260	-0.096540
N185	N	0.007547	0.702258	-0.144726
H186	H	0.648532	0.231111	0.479490
H187	H	0.650238	1.112440	-0.294922
C188	C	0.958896	0.423494	0.207757
N189	N	0.960768	0.451322	0.146883
C190	C	0.546473	0.423475	0.101802
N191	N	0.516447	0.451276	0.136909
C192	C	0.524487	0.121948	0.127389
N193	N	0.494504	0.149710	0.162536
C194	C	0.741468	0.702248	-0.554683
N195	N	0.786270	0.702243	-0.526867
C196	C	0.238429	0.702229	0.147747
N197	N	0.215583	0.702203	0.195942
C198	C	0.550931	0.282435	0.096644
N199	N	0.522716	0.254546	0.129767
H200	H	1.073732	0.231100	0.479432
H201	H	0.830580	0.413863	0.378007
H202	H	0.950130	0.292009	0.495377
H203	H	0.356277	0.702241	0.131132
H204	H	0.687575	0.702251	-0.384529
C205	C	-0.142582	0.702235	-0.096532
N206	N	-0.169938	0.702223	-0.144715
C207	C	0.734857	0.702246	-0.695705
N208	N	0.777050	0.702239	-0.723525
C209	C	0.514380	0.702242	-0.695689
N210	N	0.469583	0.702240	-0.723505
H211	H	0.497106	0.702242	-0.384517
H212	H	0.502813	0.702246	-0.262686
H213	H	0.572908	0.292021	0.346199
