data_functionalizedCrystal
_audit_creation_method	'MofGen! by Chris Wilmer'
_symmetry_space_group_name_H-M	'P1'
_symmetry_Int_Tables_number	1
_symmetry_cell_setting	triclinic
loop_
_symmetry_equiv_pos_as_xyz
  x,y,z
_cell_length_a	21.395362
_cell_length_b	21.295417
_cell_length_c	21.395355
_cell_angle_alpha	90.021451
_cell_angle_beta	90.043940
_cell_angle_gamma	90.046383
loop_
_atom_site_label
_atom_site_type_symbol
_atom_site_fract_x
_atom_site_fract_y
_atom_site_fract_z
Zn1	Zn	0.957860	-0.250415	0.354573
Zn2	Zn	1.457860	0.249585	0.854573
Zn3	Zn	0.957763	-0.355667	0.249790
Zn4	Zn	1.457763	0.144333	0.749790
Zn5	Zn	0.853075	-0.250445	0.249774
Zn6	Zn	1.353075	0.249555	0.749774
Zn7	Zn	0.853045	-0.355680	0.354495
Zn8	Zn	1.353045	0.144320	0.854495
O9	O	0.905436	-0.303052	0.302158
O10	O	1.405436	0.196948	0.802158
O11	O	1.045525	-0.264359	0.340713
O12	O	1.545525	0.235641	0.840713
O13	O	0.943848	-0.341716	0.162110
O14	O	1.443848	0.158284	0.662110
O15	O	0.867029	-0.162351	0.263702
O16	O	1.367029	0.337649	0.763702
O17	O	1.045454	-0.341687	0.263729
O18	O	1.545454	0.158313	0.763729
O19	O	0.944014	-0.162330	0.340697
O20	O	1.444014	0.337670	0.840697
O21	O	0.866934	-0.264409	0.162098
O22	O	1.366934	0.235591	0.662098
O23	O	0.765393	-0.264422	0.263626
O24	O	1.265393	0.235578	0.763626
O25	O	0.866977	-0.341709	0.442183
O26	O	1.366977	0.158291	0.942183
O27	O	0.765371	-0.341738	0.340564
O28	O	1.265371	0.158262	0.840564
O29	O	0.943984	-0.264372	0.442240
O30	O	1.443984	0.235628	0.942240
O31	O	0.943819	-0.443758	0.263653
O32	O	1.443819	0.056242	0.763653
O33	O	0.866883	-0.443767	0.340579
O34	O	1.366883	0.056233	0.840579
C35	C	0.742648	-0.303085	0.302085
C36	C	1.242648	0.196915	0.802085
C37	C	0.673007	-0.303114	0.302069
C38	C	1.173007	0.196886	0.802069
C39	C	0.640299	-0.343426	0.342070
C40	C	1.140299	0.156574	0.842070
C41	C	0.574863	-0.343411	0.342098
C42	C	1.074863	0.156589	0.842098
C43	C	0.542139	-0.303090	0.302114
C44	C	1.042139	0.196910	0.802114
C45	C	0.574855	-0.262771	0.262109
C46	C	1.074855	0.237229	0.762109
C47	C	0.640289	-0.262783	0.262087
C48	C	1.140289	0.237217	0.762087
C49	C	0.438414	-0.298019	0.245709
C50	C	0.938414	0.201981	0.745709
C51	C	0.372981	-0.298011	0.245730
C52	C	0.872981	0.201989	0.745730
C53	C	0.340318	-0.303049	0.302183
C54	C	0.840318	0.196951	0.802183
C55	C	0.373096	-0.308108	0.358616
C56	C	0.873096	0.191892	0.858616
C57	C	0.438530	-0.308120	0.358594
C58	C	0.938530	0.191880	0.858594
C59	C	0.471186	-0.303072	0.302134
C60	C	0.971186	0.196928	0.802134
C61	C	0.236657	-0.343346	0.342218
C62	C	0.736657	0.156654	0.842218
C63	C	0.171221	-0.343326	0.342247
C64	C	0.671221	0.156674	0.842247
C65	C	0.171214	-0.262690	0.262252
C66	C	0.671214	0.237310	0.762252
C67	C	0.236649	-0.262706	0.262229
C68	C	0.736649	0.237294	0.762229
C69	C	0.269367	-0.303038	0.302211
C70	C	0.769367	0.196962	0.802211
C71	C	0.905354	-0.466603	0.302123
C72	C	1.405354	0.033397	0.802123
C73	C	0.905376	-0.536571	0.302129
C74	C	1.405376	-0.036571	0.802129
C75	C	0.945472	-0.569412	0.262115
C76	C	1.445472	-0.069412	0.762115
C77	C	0.945502	-0.635155	0.262129
C78	C	1.445502	-0.135155	0.762129
C79	C	0.905424	-0.668054	0.302151
C80	C	1.405424	-0.168054	0.802151
C81	C	0.865324	-0.635205	0.342173
C82	C	1.365324	-0.135205	0.842173
C83	C	0.865301	-0.569464	0.342162
C84	C	1.365301	-0.069464	0.842162
N85	N	0.850614	-0.771336	0.306903
N86	N	1.350614	-0.271336	0.806903
N87	N	0.850638	-0.833787	0.306910
N88	N	1.350638	-0.333787	0.806910
C89	C	0.905494	-0.866129	0.302187
C90	C	1.405494	-0.366129	0.802187
N91	N	0.960325	-0.833659	0.297445
N92	N	1.460325	-0.333659	0.797445
N93	N	0.960300	-0.771202	0.297435
N94	N	1.460300	-0.271202	0.797435
C95	C	0.905445	-0.739339	0.302167
C96	C	1.405445	-0.239339	0.802167
C97	C	0.945625	-0.970255	0.262186
C98	C	1.445625	-0.470255	0.762186
C99	C	0.945656	-1.035999	0.262204
C100	C	1.445656	-0.535999	0.762204
C101	C	0.865473	-1.036048	0.342245
C102	C	1.365473	-0.536048	0.842245
C103	C	0.865448	-0.970305	0.342230
C104	C	1.365448	-0.470305	0.842230
C105	C	0.905523	-0.937413	0.302197
C106	C	1.405523	-0.437413	0.802197
C107	C	1.068859	-0.303019	0.302231
C108	C	1.568859	0.196981	0.802231
C109	C	1.138501	-0.303005	0.302262
C110	C	1.638501	0.196995	0.802262
C111	C	0.905488	-0.303039	0.465581
C112	C	1.405488	0.196961	0.965581
C113	C	0.905510	-0.303033	0.535223
C114	C	1.405510	0.196967	1.035223
C115	C	0.905535	-0.138861	0.302206
C116	C	1.405535	0.361139	0.802206
C117	C	0.905578	-0.068893	0.302227
C118	C	1.405578	0.431107	0.802227
C119	C	0.905420	-0.303019	0.139370
C120	C	1.405420	0.196981	0.639370
C121	C	0.905519	-0.302847	0.069729
C122	C	1.405519	0.197153	0.569729
C123	C	0.945606	-0.262762	0.567967
C124	C	1.445606	0.237238	1.067967
C125	C	0.945605	-0.262735	0.633402
C126	C	1.445605	0.237265	1.133402
C127	C	0.905515	-0.302991	0.666091
C128	C	1.405515	0.197009	1.166091
C129	C	0.865411	-0.343265	0.633339
C130	C	1.365411	0.156735	1.133339
C131	C	0.865409	-0.343286	0.567905
C132	C	1.365409	0.156714	1.067905
C133	C	0.900539	-0.359672	0.769752
C134	C	1.400539	0.140328	1.269752
C135	C	0.900546	-0.359652	0.835185
C136	C	1.400546	0.140348	1.335185
C137	C	0.905519	-0.302924	0.867912
C138	C	1.405519	0.197076	1.367912
C139	C	0.910498	-0.246215	0.835198
C140	C	1.410498	0.253785	1.335198
C141	C	0.910496	-0.246237	0.769763
C142	C	1.410496	0.253763	1.269763
C143	C	0.905513	-0.302972	0.737043
C144	C	1.405513	0.197028	1.237043
C145	C	0.945616	-0.262620	0.971608
C146	C	1.445616	0.237380	1.471608
C147	C	0.945611	-0.262592	1.037045
C148	C	1.445611	0.237408	1.537045
C149	C	0.865420	-0.343127	1.036981
C150	C	1.365420	0.156873	1.536981
C151	C	0.865422	-0.343150	0.971545
C152	C	1.365422	0.156850	1.471545
C153	C	0.905523	-0.302897	0.938863
C154	C	1.405523	0.197103	1.438863
H155	H	0.465215	-0.312237	0.404544
H156	H	0.965215	0.187763	0.904544
C157	C	0.336932	-0.292442	0.183653
C158	C	0.836932	0.207558	0.683653
N159	N	0.309781	-0.288244	0.136895
N160	N	0.809781	0.211756	0.636895
C161	C	0.821387	-1.072233	0.386271
C162	C	1.321387	-0.572233	0.886271
N163	N	0.788182	-1.099491	0.419433
N164	N	1.288182	-0.599491	0.919433
H165	H	0.832767	-0.376039	0.659959
H166	H	1.332767	0.123961	1.159959
H167	H	0.832795	-0.943565	0.374811
H168	H	1.332795	-0.443565	0.874811
C169	C	0.989609	-0.671287	0.218105
C170	C	1.489609	-0.171287	0.718105
N171	N	1.022829	-0.698500	0.184945
N172	N	1.522829	-0.198500	0.684945
H173	H	0.832771	-0.375897	1.063595
H174	H	1.332771	0.124103	1.563595
H175	H	0.832775	-0.375947	0.944885
H176	H	1.332775	0.124053	1.444885
H177	H	0.346503	-0.312209	0.404586
H178	H	0.846503	0.187791	0.904586
C179	C	0.989711	-0.218475	0.532020
C180	C	1.489711	0.281525	1.032020
N181	N	1.022928	-0.185114	0.504944
N182	N	1.522928	0.314886	1.004944
C183	C	0.915964	-0.183857	0.733780
C184	C	1.415964	0.316143	1.233780
N185	N	0.920079	-0.136872	0.706678
N186	N	1.420079	0.363128	1.206678
H187	H	0.465003	-0.293914	0.199735
H188	H	0.965003	0.206086	0.699735
H189	H	0.666933	-0.376266	0.374628
H190	H	1.166933	0.123734	0.874628
C191	C	0.821236	-0.671396	0.386195
C192	C	1.321236	-0.171396	0.886195
N193	N	0.788028	-0.698654	0.419354
N194	N	1.288028	-0.198654	0.919354
C195	C	0.135241	-0.387680	0.386249
C196	C	0.635241	0.112320	0.886249
N197	N	0.108142	-0.421091	0.419389
N198	N	0.608142	0.078909	0.919389
H199	H	0.978261	-0.229795	1.063704
H200	H	1.478261	0.270205	1.563704
H201	H	0.548227	-0.376237	0.374675
H202	H	1.048227	0.123763	0.874675
H203	H	0.263297	-0.376183	0.374777
H204	H	0.763297	0.123817	0.874777
H205	H	0.144570	-0.229857	0.229699
H206	H	0.644570	0.270143	0.729699
C207	C	0.676269	-0.218438	0.218077
C208	C	1.176269	0.281562	0.718077
N209	N	0.703371	-0.185038	0.184926
N210	N	1.203371	0.314962	0.684926
C211	C	0.821198	-0.533338	0.386191
C212	C	1.321198	-0.033338	0.886191
N213	N	0.787981	-0.506127	0.419357
N214	N	1.287981	-0.006127	0.919357
C215	C	0.272630	-0.218365	0.218218
C216	C	0.772630	0.281635	0.718218
N217	N	0.299730	-0.184965	0.185067
N218	N	0.799730	0.315035	0.685067
H219	H	0.548206	-0.229940	0.229555
H220	H	1.048206	0.270060	0.729555
H221	H	0.896496	-0.405828	0.861816
H222	H	1.396496	0.094172	1.361816
C223	C	0.989720	-0.218436	0.669428
C224	C	1.489720	0.281564	1.169428
N225	N	1.022948	-0.185071	0.696560
N226	N	1.522948	0.314929	1.196560
H227	H	0.978266	-0.229840	0.944997
H228	H	1.478266	0.270160	1.444997
H229	H	0.978105	-0.542633	0.229519
H230	H	1.478105	-0.042633	0.729519
C231	C	0.989718	-0.934071	0.218158
C232	C	1.489718	-0.434071	0.718158
N233	N	1.022931	-0.906819	0.184999
N234	N	1.522931	-0.406819	0.684999
H235	H	0.978311	-1.062736	0.229621
H236	H	1.478311	-0.562736	0.729621
C237	C	0.915967	-0.183809	0.871192
C238	C	1.415967	0.316191	1.371192
N239	N	0.920087	-0.136807	0.898306
N240	N	1.420087	0.363193	1.398306
C241	C	0.895081	-0.422082	0.733759
C242	C	1.395081	0.077918	1.233759
N243	N	0.890974	-0.469088	0.706650
N244	N	1.390974	0.030912	1.206650
C245	C	0.821299	-0.387591	0.531885
C246	C	1.321299	0.112409	1.031885
N247	N	0.788076	-0.420963	0.504754
N248	N	1.288076	0.079037	1.004754
