data_functionalizedCrystal
_audit_creation_method	'MofGen! by Chris Wilmer'
_symmetry_space_group_name_H-M	'P1'
_symmetry_Int_Tables_number	1
_symmetry_cell_setting	triclinic
loop_
_symmetry_equiv_pos_as_xyz
  x,y,z
_cell_length_a	19.288864
_cell_length_b	17.699083
_cell_length_c	18.366186
_cell_angle_alpha	89.992864
_cell_angle_beta	89.977106
_cell_angle_gamma	83.209630
loop_
_atom_site_label
_atom_site_type_symbol
_atom_site_fract_x
_atom_site_fract_y
_atom_site_fract_z
O1	O	0.921465	0.094417	-0.060785
O2	O	0.719219	0.107154	-0.060735
O3	O	0.826056	-0.009412	-0.060755
O4	O	0.814628	0.210983	-0.060765
O5	O	0.826038	-0.009417	0.060345
O6	O	0.719201	0.107148	0.060364
O7	O	0.921446	0.094412	0.060315
Zn8	Zn	0.820321	0.100779	0.079567
Zn9	Zn	0.820345	0.100786	-0.079987
O10	O	0.814610	0.210977	0.060335
C11	C	0.693333	0.106741	-0.000179
C12	C	0.616228	0.105511	-0.000160
C13	C	0.571613	0.173906	-0.000174
C14	C	0.499164	0.172751	-0.000182
C15	C	0.471334	0.103196	-0.000190
C16	C	0.515959	0.034791	-0.000172
C17	C	0.588406	0.035949	-0.000156
C18	C	0.363014	0.048520	-0.042639
C19	C	0.290568	0.047365	-0.042659
C20	C	0.247884	0.099622	-0.000234
C21	C	0.277654	0.153047	0.042200
C22	C	0.350101	0.154205	0.042216
C23	C	0.392779	0.101932	-0.000206
C24	C	0.124712	0.166769	-0.000256
C25	C	0.052262	0.165610	-0.000260
C26	C	0.069059	0.027649	-0.000257
C27	C	0.141507	0.028809	-0.000246
C28	C	0.169329	0.098371	-0.000249
C29	C	0.825637	-0.037611	-0.000205
C30	C	0.824409	-0.121627	-0.000204
C31	C	0.887120	-0.170336	-0.000219
C32	C	0.885961	-0.249278	-0.000225
C33	C	0.822091	-0.279509	-0.000211
C34	C	0.759375	-0.230794	-0.000199
C35	C	0.760535	-0.151854	-0.000198
C36	C	0.754699	-0.549150	-0.000204
C37	C	0.753545	-0.628097	-0.000203
C38	C	0.880126	-0.646575	-0.000230
C39	C	0.881285	-0.567635	-0.000230
C40	C	0.818570	-0.518926	-0.000221
C41	C	0.819827	-0.433329	-0.000216
C42	C	0.820834	-0.365105	-0.000211
C43	C	0.947332	0.094824	-0.000243
C44	C	1.024437	0.096054	-0.000267
C45	C	0.815028	0.239176	-0.000217
C46	C	0.816257	0.323193	-0.000222
N47	N	0.820310	0.100773	0.188458
N48	N	0.820361	0.100786	-0.188878
C49	C	0.867632	0.049183	0.226550
C50	C	0.867637	0.049180	0.302777
C51	C	0.820325	0.100780	0.340911
C52	C	0.772993	0.152373	0.302810
C53	C	0.772986	0.152370	0.226583
C54	C	0.811108	0.169742	0.461669
C55	C	0.811121	0.169746	0.537894
C56	C	0.820345	0.100789	0.576018
C57	C	0.829571	0.031825	0.537908
C58	C	0.829563	0.031822	0.461681
C59	C	0.820328	0.100788	0.423565
C60	C	0.867675	0.049191	0.696765
C61	C	0.867674	0.049187	0.772994
C62	C	0.773034	0.152387	0.773025
C63	C	0.773031	0.152385	0.696797
C64	C	0.820355	0.100788	0.658672
H65	H	0.266335	0.003866	-0.077214
C66	C	0.800967	0.245599	0.419740
H67	H	0.795485	0.286670	0.453352
H68	H	0.760520	0.247247	0.390023
H69	H	0.840650	0.249681	0.389986
H70	H	0.046401	-0.028984	-0.000308
C71	C	0.720933	0.209127	0.184681
H72	H	0.692758	0.239861	0.218306
H73	H	0.692067	0.181982	0.154961
H74	H	0.745868	0.240567	0.154931
H75	H	0.906208	0.007172	0.804009
C76	C	0.720983	0.209143	0.654894
H77	H	0.692810	0.239878	0.688520
H78	H	0.692115	0.181997	0.625176
H79	H	0.745917	0.240581	0.625142
C80	C	0.602213	0.250421	-0.000165
H81	H	0.565261	0.290990	-0.000167
H82	H	0.630153	0.253747	-0.042386
H83	H	0.630097	0.253736	0.042080
H84	H	0.837073	-0.024330	0.430655
H85	H	0.709469	-0.112195	-0.000187
H86	H	0.906165	0.007168	0.195510
C87	C	0.685717	-0.495578	-0.000195
H88	H	0.695550	-0.444233	-0.000207
H89	H	0.659512	-0.504720	0.042039
H90	H	0.659535	-0.504720	-0.042427
H91	H	0.734510	0.194397	0.804072
C92	C	0.949115	-0.700153	-0.000248
H93	H	0.987318	-0.670841	-0.000247
H94	H	0.951305	-0.731326	-0.042479
H95	H	0.951286	-0.731336	0.041986
H96	H	0.397762	0.005964	-0.077190
C97	C	0.003182	0.240847	-0.000277
H98	H	-0.043950	0.230197	-0.000277
H99	H	0.011627	0.269377	-0.042508
H100	H	0.011582	0.269380	0.041957
C101	C	0.720954	0.209134	0.344753
H102	H	0.727741	0.201753	0.395607
H103	H	0.674612	0.201043	0.332289
H104	H	0.728412	0.259628	0.332246
C105	C	0.919695	-0.007570	0.344687
H106	H	0.947879	-0.038296	0.311063
H107	H	0.894770	-0.039007	0.374444
H108	H	0.948562	0.019589	0.374401
H109	H	0.462831	0.228448	-0.000192
H110	H	0.707371	-0.255414	-0.000193
H111	H	0.374336	0.197703	0.076770
C112	C	0.800974	0.245599	0.579812
H113	H	0.802308	0.235726	0.630669
H114	H	0.757119	0.272706	0.567340
H115	H	0.837247	0.275159	0.567293
C116	C	0.839722	-0.044033	0.579830
H117	H	0.845221	-0.085102	0.546216
H118	H	0.800048	-0.048128	0.609588
H119	H	0.880175	-0.045671	0.609544
C120	C	0.485350	-0.041717	-0.000185
H121	H	0.435812	-0.032612	-0.000204
H122	H	0.500646	-0.069874	0.042048
H123	H	0.500699	-0.069864	-0.042417
C124	C	0.230711	0.210537	0.088865
H125	H	0.183302	0.202194	0.082785
H126	H	0.236498	0.260801	0.073945
H127	H	0.243367	0.204073	0.138657
H128	H	0.939130	-0.145729	-0.000225
C129	C	0.954943	-0.302855	-0.000233
H130	H	0.993147	-0.273544	-0.000230
H131	H	0.957136	-0.334030	-0.042463
H132	H	0.957110	-0.334037	0.042002
C133	C	0.155319	0.243282	-0.000253
H134	H	0.118368	0.283852	-0.000252
H135	H	0.183253	0.246604	-0.042479
H136	H	0.183209	0.246598	0.041987
C137	C	0.637488	-0.039287	-0.000146
H138	H	0.684620	-0.028635	-0.000133
H139	H	0.629088	-0.067819	-0.042376
H140	H	0.629044	-0.067819	0.042090
C141	C	0.190586	-0.046427	-0.000241
H142	H	0.163638	-0.088018	-0.000253
H143	H	0.219175	-0.048847	0.041993
H144	H	0.219218	-0.048837	-0.042472
C145	C	0.951542	-0.534384	-0.000247
H146	H	0.988725	-0.574701	-0.000264
H147	H	0.954621	-0.503977	0.041980
H148	H	0.954627	-0.503971	-0.042485
H149	H	0.701531	-0.652707	-0.000190
H150	H	0.906207	0.007175	0.665722
