data_functionalizedCrystal
_audit_creation_method	'MofGen! by Chris Wilmer'
_symmetry_space_group_name_H-M	'P1'
_symmetry_Int_Tables_number	1
_symmetry_cell_setting	triclinic
loop_
_symmetry_equiv_pos_as_xyz
  x,y,z
_cell_length_a	12.759401
_cell_length_b	12.759400
_cell_length_c	12.759393
_cell_angle_alpha	89.974659
_cell_angle_beta	89.981504
_cell_angle_gamma	90.003207
loop_
_atom_site_label
_atom_site_type_symbol
_atom_site_fract_x
_atom_site_fract_y
_atom_site_fract_z
Zn1	Zn	1.606340	-0.418200	-0.594027
Zn2	Zn	1.606271	-0.593919	-0.418366
Zn3	Zn	1.430642	-0.418255	-0.418366
Zn4	Zn	1.430667	-0.593838	-0.594007
O5	O	1.518480	-0.506053	-0.506192
O6	O	1.753352	-0.441520	-0.570733
O7	O	1.582934	-0.570673	-0.271345
O8	O	1.453968	-0.271226	-0.441676
O9	O	1.753301	-0.570620	-0.441676
O10	O	1.583053	-0.271186	-0.570733
O11	O	1.453900	-0.441614	-0.271345
O12	O	1.283625	-0.441535	-0.441657
O13	O	1.454010	-0.570482	-0.741031
O14	O	1.283643	-0.570535	-0.570700
O15	O	1.583076	-0.441442	-0.741045
O16	O	1.582957	-0.740929	-0.441657
O17	O	1.453942	-0.740869	-0.570700
C18	C	1.245513	-0.506033	-0.506177
C19	C	1.128736	-0.506050	-0.506196
C20	C	1.518516	-0.232019	-0.506207
C21	C	1.518531	-0.115243	-0.506213
C22	C	1.518473	-0.779020	-0.506199
C23	C	1.518566	-0.895797	-0.506238
C24	C	1.073911	-0.573328	-0.573278
C25	C	0.964187	-0.573342	-0.573289
C26	C	0.964123	-0.438796	-0.439128
C27	C	1.073845	-0.438778	-0.439123
C28	C	1.128802	-0.640600	-0.640351
C29	C	1.073977	-0.707884	-0.707437
C30	C	0.964253	-0.707898	-0.707448
C31	C	0.909354	-0.640627	-0.640374
C32	C	1.792513	-0.506073	-0.506207
C33	C	1.909290	-0.506082	-0.506213
C34	C	1.518554	-0.505947	-0.780225
C35	C	1.518585	-0.505902	-0.897002
C36	C	1.451336	-0.060400	-0.439024
C37	C	1.451351	0.049324	-0.439038
C38	C	1.585764	0.049353	-0.573435
C39	C	1.585743	-0.060369	-0.573425
C40	C	1.384124	-0.115274	-0.371812
C41	C	1.316925	-0.060431	-0.304616
C42	C	1.316940	0.049293	-0.304631
C43	C	1.384154	0.104174	-0.371841
C44	C	1.585799	-0.438704	-0.951873
C45	C	1.585824	-0.438666	-1.061597
C46	C	1.451418	-0.573032	-1.061569
C47	C	1.451388	-0.573064	-0.951847
C48	C	1.652996	-0.371541	-0.897028
C49	C	1.720217	-0.304339	-0.951899
C50	C	1.720242	-0.304301	-1.061623
C51	C	1.653046	-0.371465	-1.116476
C52	C	1.518467	-0.506083	-0.233224
C53	C	1.518639	-0.505832	-0.116448
H54	H	1.118683	-0.762647	-0.762053
O55	O	1.126946	-0.373402	-0.373852
C56	C	1.054973	-0.314022	-0.314661
H57	H	0.976758	-0.357057	-0.310962
H58	H	1.086644	-0.302724	-0.231899
H59	H	1.043317	-0.234272	-0.353256
H60	H	1.218145	-0.640599	-0.640347
O61	O	1.386057	-0.638312	-1.114688
C62	C	1.326743	-0.697652	-1.042727
H63	H	1.323085	-0.654641	-0.964520
H64	H	1.243974	-0.708846	-1.074427
H65	H	1.365205	-0.777450	-1.031046
O66	O	1.653236	-0.371330	-1.223062
C67	C	1.726949	-0.297595	-1.259735
H68	H	1.788316	-0.282904	-1.196510
H69	H	1.766833	-0.329281	-1.333137
H70	H	1.685306	-0.220979	-1.279215
O71	O	1.384356	0.210761	-0.371854
C72	C	1.485037	0.247406	-0.344858
H73	H	1.545552	0.184179	-0.362804
H74	H	1.503731	0.320826	-0.392256
H75	H	1.487242	0.266846	-0.257686
O76	O	1.386255	-0.638394	-0.898412
C77	C	1.446062	-0.706279	-0.834959
H78	H	1.525683	-0.669230	-0.818553
H79	H	1.403261	-0.720369	-0.757787
H80	H	1.457601	-0.784132	-0.877225
O81	O	0.911110	-0.773198	-0.772761
C82	C	0.937943	-0.750346	-0.877510
H83	H	1.017606	-0.709949	-0.879748
H84	H	0.941724	-0.826228	-0.924492
H85	H	0.876200	-0.696384	-0.912994
H86	H	0.820009	-0.640634	-0.640397
O87	O	0.910753	-0.373613	-0.373854
C88	C	0.847252	-0.433366	-0.305921
H89	H	0.880328	-0.516099	-0.299305
H90	H	0.845976	-0.395279	-0.225126
H91	H	0.764107	-0.437037	-0.338400
H92	H	1.262196	-0.105123	-0.249903
O93	O	1.383942	-0.221858	-0.371699
C94	C	1.310233	-0.258535	-0.297951
H95	H	1.248855	-0.195305	-0.283236
H96	H	1.270362	-0.331927	-0.329638
H97	H	1.351877	-0.278030	-0.221347
O98	O	1.651201	0.102544	-0.638664
C99	C	1.755904	0.075731	-0.615693
H100	H	1.758057	-0.003949	-0.575298
H101	H	1.803030	0.071997	-0.691522
H102	H	1.791290	0.137460	-0.561687
H103	H	1.774968	-0.249574	-1.106296
O104	O	1.251630	0.102406	-0.239266
C105	C	1.192287	0.030440	-0.179966
H106	H	1.235308	-0.047778	-0.176326
H107	H	1.181067	0.062115	-0.097191
H108	H	1.112500	0.018791	-0.218429
O109	O	1.650950	-0.113543	-0.638843
C110	C	1.627986	-0.086711	-0.743553
H111	H	1.587633	-0.007030	-0.745730
H112	H	1.703813	-0.082972	-0.790686
H113	H	1.573945	-0.148434	-0.778914
H114	H	1.652985	-0.371567	-0.807685
H115	H	1.774918	-0.249649	-0.907230
