data_functionalizedCrystal
_audit_creation_method	'MofGen! by Chris Wilmer'
_symmetry_space_group_name_H-M	'P1'
_symmetry_Int_Tables_number	1
_symmetry_cell_setting	triclinic
loop_
_symmetry_equiv_pos_as_xyz
  x,y,z
_cell_length_a	15.944557
_cell_length_b	19.188924
_cell_length_c	14.421503
_cell_angle_alpha	89.999530
_cell_angle_beta	89.991071
_cell_angle_gamma	96.678333
loop_
_atom_site_label
_atom_site_type_symbol
_atom_site_fract_x
_atom_site_fract_y
_atom_site_fract_z
O1	O	-1.114168	0.090064	-0.077076
O2	O	-0.614168	0.590064	0.422924
O3	O	-0.869577	0.101162	-0.077087
O4	O	-0.369577	0.601162	0.422913
O5	O	-0.998934	-0.006024	-0.077070
O6	O	-0.498934	0.493976	0.422930
O7	O	-0.984811	0.197251	-0.077093
O8	O	-0.484811	0.697251	0.422907
O9	O	-0.998949	-0.006018	0.077153
O10	O	-0.498949	0.493982	0.577153
O11	O	-0.869593	0.101169	0.077136
O12	O	-0.369593	0.601169	0.577136
O13	O	-1.114183	0.090071	0.077147
O14	O	-0.614183	0.590071	0.577147
Cu15	Cu	-0.991889	0.095621	0.091224
Cu16	Cu	-0.491889	0.595621	0.591224
Cu17	Cu	-0.991871	0.095612	-0.091163
Cu18	Cu	-0.491871	0.595612	0.408837
O19	O	-0.984827	0.197258	0.077131
O20	O	-0.484827	0.697258	0.577131
C21	C	-0.838293	0.100704	0.000023
C22	C	-0.338293	0.600704	0.500023
C23	C	-0.745052	0.099320	0.000019
C24	C	-0.245052	0.599320	0.500019
C25	C	-0.474687	0.028744	0.000042
C26	C	0.025313	0.528744	0.500042
C27	C	-0.525148	0.062771	0.076080
C28	C	-0.025148	0.562771	0.576080
C29	C	-0.409429	0.094386	0.000042
C30	C	0.090571	0.594386	0.500042
C31	C	-0.525113	0.062781	-0.075973
C32	C	-0.025113	0.562781	0.424027
C33	C	-0.574332	0.096807	0.000029
C34	C	-0.074332	0.596807	0.500029
C35	C	-0.458661	0.128395	0.076142
C36	C	0.041339	0.628395	0.576142
C37	C	-0.458623	0.128396	-0.075978
C38	C	0.041377	0.628396	0.424022
C39	C	-0.509051	0.162471	0.000078
C40	C	-0.009051	0.662471	0.500078
C41	C	-0.314433	0.092990	0.000050
C42	C	0.185567	0.592990	0.500050
C43	C	-0.669326	0.098208	0.000028
C44	C	-0.169326	0.598208	0.500028
C45	C	-0.998485	-0.032033	0.000042
C46	C	-0.498485	0.467967	0.500042
C47	C	-0.997115	-0.109542	0.000045
C48	C	-0.497115	0.390458	0.500045
C49	C	-0.996467	-0.145946	-0.084023
C50	C	-0.496467	0.354054	0.415977
C51	C	-0.995168	-0.218772	-0.084030
C52	C	-0.495168	0.281228	0.415970
C53	C	-0.994534	-0.255193	0.000035
C54	C	-0.494534	0.244807	0.500035
C55	C	-0.995177	-0.218779	0.084114
C56	C	-0.495177	0.281221	0.584114
C57	C	-0.996468	-0.145954	0.084118
C58	C	-0.496468	0.354046	0.584118
N59	N	-1.040313	-0.374734	0.062605
N60	N	-0.540313	0.125266	0.562605
N61	N	-1.039089	-0.443916	0.062595
N62	N	-0.539089	0.056084	0.562595
C63	C	-0.990643	-0.474612	0.000026
C64	C	-0.490643	0.025388	0.500026
N65	N	-0.943479	-0.433515	-0.062546
N66	N	-0.443479	0.066485	0.437454
N67	N	-0.944707	-0.364327	-0.062539
N68	N	-0.444707	0.135673	0.437461
C69	C	-0.993134	-0.334160	0.000039
C70	C	-0.493134	0.165840	0.500039
C71	C	-0.988585	-0.589983	-0.084055
C72	C	-0.488585	-0.089983	0.415945
C73	C	-0.987281	-0.662810	-0.084059
C74	C	-0.487281	-0.162810	0.415941
C75	C	-0.987298	-0.662816	0.084088
C76	C	-0.487298	-0.162816	0.584088
C77	C	-0.988594	-0.589990	0.084089
C78	C	-0.488594	-0.089990	0.584089
C79	C	-0.989242	-0.553578	0.000015
C80	C	-0.489242	-0.053578	0.500015
C81	C	-0.145469	0.090520	0.000039
C82	C	0.354531	0.590520	0.500039
C83	C	-0.238714	0.091875	0.000051
C84	C	0.261286	0.591875	0.500051
C85	C	-0.985275	0.223266	0.000016
C86	C	-0.485275	0.723266	0.500016
C87	C	-0.986645	0.300775	0.000007
C88	C	-0.486645	0.800775	0.500007
N89	N	-0.991909	0.095626	0.219505
N90	N	-0.491909	0.595626	0.719505
N91	N	-0.991858	0.095602	-0.219445
N92	N	-0.491858	0.595602	0.280555
C93	C	-1.051736	0.046052	0.469141
C94	C	-0.551736	0.546052	0.969141
C95	C	-0.975888	0.032488	0.530937
C96	C	-0.475888	0.532488	1.030937
C97	C	-0.991890	0.095618	0.408666
C98	C	-0.491890	0.595618	0.908666
C99	C	-1.067720	0.109141	0.530965
C100	C	-0.567720	0.609141	1.030965
C101	C	-0.991879	0.095608	0.591388
C102	C	-0.491879	0.595608	1.091388
C103	C	-0.916004	0.082022	0.469101
C104	C	-0.416004	0.582022	0.969101
C105	C	-1.007886	0.158703	0.469123
C106	C	-0.507886	0.658703	0.969123
C107	C	-0.931983	0.145165	0.530891
C108	C	-0.431983	0.645165	1.030891
C109	C	-0.991898	0.095621	0.303405
C110	C	-0.491898	0.595621	0.803405
C111	C	-0.991862	0.095605	0.696647
C112	C	-0.491862	0.595605	1.196647
H113	H	-0.429754	0.156099	0.140497
H114	H	0.070246	0.656099	0.640497
H115	H	-0.986775	-0.692469	0.152535
H116	H	-0.486775	-0.192469	0.652535
N117	N	-0.561576	0.027992	0.156729
N118	N	-0.061576	0.527992	0.656729
N119	N	-0.553853	-0.035284	0.170285
N120	N	-0.053853	0.464716	0.670285
H121	H	-0.579577	-0.059850	0.227241
H122	H	-0.079577	0.440150	0.727241
H123	H	-0.962347	-0.020866	0.558089
H124	H	-0.462347	0.479134	1.058089
N125	N	-0.868433	0.197747	0.564716
N126	N	-0.368433	0.697747	1.064716
N127	N	-0.888691	0.246542	0.614289
N128	N	-0.388691	0.746542	1.114289
H129	H	-0.843809	0.283676	0.638182
H130	H	-0.343809	0.783676	1.138182
H131	H	-1.021450	0.212040	0.441951
H132	H	-0.521450	0.712040	0.941951
N133	N	-0.528206	0.233449	0.000127
N134	N	-0.028206	0.733449	0.500127
N135	N	-0.503670	0.273521	0.065469
N136	N	-0.003670	0.773521	0.565469
H137	H	-0.517197	0.323650	0.065506
H138	H	-0.017197	0.823650	0.565506
H139	H	-0.989129	-0.560350	0.152546
H140	H	-0.489129	-0.060350	0.652546
H141	H	-0.554128	0.035045	-0.140254
H142	H	-0.054128	0.535045	0.359746
N143	N	-1.148163	0.123510	0.565070
N144	N	-0.648163	0.623510	1.065070
N145	N	-1.160834	0.126318	0.650454
N146	N	-0.660834	0.626318	1.150454
H147	H	-1.217648	0.136462	0.674540
H148	H	-0.717648	0.636462	1.174540
N149	N	-0.455307	-0.042173	0.000120
N150	N	0.044693	0.457827	0.500120
N151	N	-0.480731	-0.082633	-0.064498
N152	N	0.019269	0.417367	0.435502
H153	H	-0.467042	-0.132717	-0.064441
H154	H	0.032958	0.367283	0.435559
N155	N	-0.986630	-0.699984	-0.169948
N156	N	-0.486630	-0.199984	0.330052
N157	N	-1.045971	-0.698277	-0.226224
N158	N	-0.545971	-0.198277	0.273776
H159	H	-1.045514	-0.724530	-0.286888
H160	H	-0.545514	-0.224530	0.213112
N161	N	-0.422178	0.163136	-0.156638
N162	N	0.077822	0.663136	0.343362
N163	N	-0.443652	0.140739	-0.235535
N164	N	0.056348	0.640739	0.264465
H165	H	-0.417913	0.165270	-0.292509
H166	H	0.082087	0.665270	0.207491
N167	N	-0.994546	-0.255980	0.169985
N168	N	-0.494546	0.244020	0.669985
N169	N	-1.053890	-0.254282	0.226280
N170	N	-0.553890	0.245718	0.726280
H171	H	-1.053442	-0.280554	0.286930
H172	H	-0.553442	0.219446	0.786930
N173	N	-0.835533	0.067593	0.435148
N174	N	-0.335533	0.567593	0.935148
N175	N	-0.822560	0.065246	0.349784
N176	N	-0.322560	0.565246	0.849784
H177	H	-0.765729	0.055055	0.325802
H178	H	-0.265729	0.555055	0.825802
H179	H	-0.996992	-0.116304	-0.152482
H180	H	-0.496992	0.383696	0.347518
N181	N	-1.115160	-0.006547	0.435102
N182	N	-0.615160	0.493453	0.935102
N183	N	-1.173750	0.010533	0.385538
N184	N	-0.673750	0.510533	0.885538
H185	H	-1.218540	-0.026615	0.361495
H186	H	-0.718540	0.473385	0.861495
N187	N	-0.994503	-0.255958	-0.169915
N188	N	-0.494503	0.244042	0.330085
N189	N	-0.995078	-0.223438	-0.244971
N190	N	-0.495078	0.276562	0.255029
H191	H	-0.994609	-0.249698	-0.305629
H192	H	-0.494609	0.250302	0.194371
H193	H	-0.996992	-0.116313	0.152578
H194	H	-0.496992	0.383687	0.652578
H195	H	-0.989108	-0.560334	-0.152513
H196	H	-0.489108	-0.060334	0.347487
