data_functionalizedCrystal
_audit_creation_method	'MofGen! by Chris Wilmer'
_symmetry_space_group_name_H-M	'P1'
_symmetry_Int_Tables_number	1
_symmetry_cell_setting	triclinic
loop_
_symmetry_equiv_pos_as_xyz
  x,y,z
_cell_length_a	27.732048
_cell_length_b	12.837943
_cell_length_c	26.210047
_cell_angle_alpha	90.015667
_cell_angle_beta	89.990787
_cell_angle_gamma	91.264202
loop_
_atom_site_label
_atom_site_type_symbol
_atom_site_fract_x
_atom_site_fract_y
_atom_site_fract_z
O1	O	0.125564	-1.373461	-0.042431
O2	O	0.119362	-1.071755	-0.042434
O3	O	0.052530	-1.231978	-0.042423
O4	O	0.192395	-1.213238	-0.042442
O5	O	0.052529	-1.231927	0.042435
O6	O	0.119360	-1.071704	0.042424
O7	O	0.125562	-1.373410	0.042427
Cu8	Cu	0.122461	-1.222552	0.050174
Cu9	Cu	0.122463	-1.222613	-0.050181
O10	O	0.192394	-1.213187	0.042416
C11	C	0.117265	-1.033142	-0.000005
C12	C	0.111016	-0.918165	-0.000006
C13	C	0.034503	-1.231559	0.000008
C14	C	-0.019210	-1.230375	0.000012
C15	C	0.127659	-1.412023	-0.000003
C16	C	0.133908	-1.527000	-0.000006
C17	C	-0.353704	-1.317599	-0.000014
C18	C	-0.555581	-1.313204	-0.000021
O19	O	-0.582885	-1.392964	-0.000043
N20	N	-0.579412	-1.218198	-0.000021
C21	C	-0.552771	-1.124284	-0.000023
O22	O	-0.577672	-1.043375	-0.000029
C23	C	-0.350894	-1.128680	-0.000020
C24	C	-0.327066	-1.223692	-0.000014
C25	C	-0.329876	-1.412603	-0.000009
C26	C	-0.279409	-1.413701	-0.000004
C27	C	-0.252771	-1.319794	-0.000005
C28	C	-0.276600	-1.224790	-0.000010
C29	C	-0.324253	-1.034768	-0.000025
C30	C	-0.273781	-1.035875	-0.000025
C31	C	-0.249953	-1.130887	-0.000020
C32	C	-0.199495	-1.131981	-0.000005
N33	N	-0.175664	-1.226987	-0.000005
C34	C	-0.202302	-1.320894	-0.000005
C35	C	-0.658759	-1.121983	-0.000024
C36	C	-0.709228	-1.120883	-0.000024
C37	C	-0.712035	-1.309804	-0.000023
C38	C	-0.661565	-1.310902	-0.000019
C39	C	-0.634928	-1.216989	-0.000024
C40	C	-0.096319	-1.323192	0.000005
C41	C	-0.045848	-1.324281	0.000012
C42	C	-0.043046	-1.135362	0.000008
C43	C	-0.093512	-1.134272	0.000004
C44	C	-0.120148	-1.228195	0.000001
O45	O	-0.172161	-1.052264	0.000011
O46	O	-0.177392	-1.401791	-0.000010
C47	C	-0.404170	-1.316501	-0.000018
C48	C	-0.427999	-1.221497	-0.000023
C49	C	-0.401361	-1.127590	-0.000024
C50	C	-0.478468	-1.220398	-0.000023
C51	C	-0.505106	-1.314304	-0.000023
C52	C	-0.481275	-1.409310	-0.000023
C53	C	-0.430808	-1.410408	-0.000018
C54	C	-0.425191	-1.032584	-0.000024
C55	C	-0.475658	-1.031494	-0.000028
C56	C	-0.502296	-1.125401	-0.000028
C57	C	0.210421	-1.213605	-0.000016
C58	C	0.264134	-1.214790	-0.000024
N59	N	0.122459	-1.222517	0.120758
C60	C	0.186145	-0.676003	-0.000009
C61	C	0.180275	-0.567972	-0.000009
C62	C	0.093408	-0.594068	-0.000002
C63	C	0.099277	-0.702100	-0.000002
C64	C	0.145647	-0.743063	-0.000006
C65	C	0.151516	-0.851097	-0.000010
C66	C	0.064649	-0.877191	0.000001
C67	C	0.058780	-0.769159	0.000001
C68	C	0.154666	-1.284947	0.473268
C69	C	0.154669	-1.284975	0.686926
O70	O	0.182044	-1.338035	0.714545
N71	N	0.122465	-1.222628	0.713651
C72	C	0.090255	-1.160274	0.686958
O73	O	0.062861	-1.107253	0.714592
C74	C	0.090251	-1.160252	0.473301
C75	C	0.122460	-1.222596	0.446579
C76	C	0.186873	-1.347287	0.446546
C77	C	0.186874	-1.347275	0.393134
C78	C	0.154668	-1.284924	0.366445
C79	C	0.122461	-1.222584	0.393167
C80	C	0.058040	-1.097905	0.446609
C81	C	0.058041	-1.097907	0.393191
C82	C	0.090250	-1.160251	0.366469
C83	C	0.090256	-1.160221	0.313067
N84	N	0.122460	-1.222568	0.286342
C85	C	0.154666	-1.284920	0.313031
C86	C	0.090261	-1.160288	0.799132
C87	C	0.090262	-1.160292	0.852546
C88	C	0.154675	-1.284995	0.852510
C89	C	0.154676	-1.284985	0.799095
C90	C	0.122465	-1.222636	0.772407
C91	C	0.154666	-1.284889	0.200863
C92	C	0.154665	-1.284869	0.147447
C93	C	0.090251	-1.160170	0.147487
C94	C	0.090253	-1.160186	0.200899
C95	C	0.122462	-1.222554	0.227585
O96	O	0.062892	-1.107198	0.285415
O97	O	0.182050	-1.337951	0.285388
C98	C	0.154665	-1.284959	0.526679
C99	C	0.122459	-1.222620	0.553402
C100	C	0.090253	-1.160269	0.526712
C101	C	0.122460	-1.222624	0.606816
C102	C	0.154666	-1.284975	0.633505
C103	C	0.186870	-1.347323	0.606780
C104	C	0.186871	-1.347311	0.553368
C105	C	0.058049	-1.097921	0.553437
C106	C	0.058051	-1.097937	0.606849
C107	C	0.090257	-1.160289	0.633538
N108	N	0.122468	-1.222644	0.879235
H109	H	-0.026450	-1.401655	0.000018
H110	H	0.031673	-0.931804	-0.000001
Br111	Br	0.014344	-1.013275	0.517225
Br112	Br	0.198385	-1.369473	0.111184
H113	H	-0.021348	-1.058906	0.000010
H114	H	0.055655	-0.560696	0.000043
H115	H	-0.728624	-1.043515	-0.000019
Br116	Br	-0.125851	-1.005326	0.000009
H117	H	-0.351559	-1.489078	-0.000011
Br118	Br	-0.132460	-1.450661	0.000001
H119	H	0.223901	-0.709356	-0.000013
Br120	Br	0.198378	-1.369533	0.237072
H121	H	0.064031	-1.109402	0.125747
Br122	Br	-0.004148	-0.713556	0.000009
H123	H	0.064029	-1.109513	0.777407
Br124	Br	0.230597	-1.431868	0.356877
Br125	Br	-0.356579	-0.905814	-0.000034
Br126	Br	0.230586	-1.431919	0.482757
Br127	Br	-0.247079	-1.542653	-0.000011
H128	H	-0.733732	-1.386266	-0.000022
H129	H	0.031811	-1.047139	0.468357
Br130	Br	0.230580	-1.431935	0.643012
H131	H	0.180904	-1.335750	0.777341
H132	H	0.189273	-0.884447	-0.000012
H133	H	0.213253	-0.513374	-0.000010
Br134	Br	0.198382	-1.369617	0.888741
H135	H	0.064039	-1.109513	0.874299
Br136	Br	0.014319	-1.013297	0.356974
Br137	Br	0.046545	-1.075564	0.237166
Br138	Br	0.014337	-1.013311	0.643108
H139	H	-0.637075	-1.045503	-0.000027
Br140	Br	-0.629232	-1.439851	-0.000011
H141	H	0.213100	-1.398077	0.531616
H142	H	-0.252096	-0.959398	-0.000030
Br143	Br	-0.517436	-1.536753	-0.000018
Br144	Br	-0.398478	-1.539360	-0.000014
Br145	Br	-0.507990	-0.902537	-0.000031
H146	H	-0.403508	-0.956112	-0.000025
