data_functionalizedCrystal
_audit_creation_method	'MofGen! by Chris Wilmer'
_symmetry_space_group_name_H-M	'P1'
_symmetry_Int_Tables_number	1
_symmetry_cell_setting	triclinic
loop_
_symmetry_equiv_pos_as_xyz
  x,y,z
_cell_length_a	10.654545
_cell_length_b	19.288865
_cell_length_c	18.366186
_cell_angle_alpha	90.006786
_cell_angle_beta	90.005951
_cell_angle_gamma	83.809663
loop_
_atom_site_label
_atom_site_type_symbol
_atom_site_fract_x
_atom_site_fract_y
_atom_site_fract_z
O1	O	1.665761	0.097536	0.060552
O2	O	2.165761	0.597536	0.560552
O3	O	1.300083	0.106834	0.060556
O4	O	1.800083	0.606834	0.560556
O5	O	1.493488	0.001124	0.060539
O6	O	1.993488	0.501124	0.560539
O7	O	1.472355	0.203246	0.060568
O8	O	1.972355	0.703246	0.560568
O9	O	1.493463	0.001127	-0.060560
O10	O	1.993463	0.501127	0.439440
O11	O	1.300058	0.106838	-0.060544
O12	O	1.800058	0.606838	0.439456
O13	O	1.665736	0.097540	-0.060548
O14	O	2.165736	0.597540	0.439452
Zn15	Zn	1.482893	0.102189	-0.079773
Zn16	Zn	1.982893	0.602189	0.420227
Zn17	Zn	1.482926	0.102185	0.079781
Zn18	Zn	1.982926	0.602185	0.579781
O19	O	1.472330	0.203250	-0.060531
O20	O	1.972330	0.703250	0.439469
C21	C	1.253287	0.106154	0.000006
C22	C	1.753287	0.606154	0.500006
C23	C	1.113887	0.104113	0.000007
C24	C	1.613887	0.604113	0.500007
C25	C	1.048389	0.103155	-0.066005
C26	C	1.548389	0.603155	0.433995
C27	C	0.917411	0.101226	-0.066005
C28	C	1.417411	0.601226	0.433995
C29	C	0.917439	0.101217	0.066024
C30	C	1.417439	0.601217	0.566024
C31	C	1.048416	0.103141	0.066024
C32	C	1.548416	0.603141	0.566024
C33	C	1.492796	-0.024755	-0.000013
C34	C	1.992796	0.475245	0.499987
C35	C	1.490754	-0.101872	-0.000019
C36	C	1.990754	0.398128	0.499981
C37	C	1.604236	-0.145826	-0.000024
C38	C	2.104236	0.354174	0.499976
C39	C	1.602318	-0.218286	-0.000012
C40	C	2.102318	0.281714	0.499988
C41	C	1.486913	-0.246788	-0.000011
C42	C	1.986913	0.253212	0.499989
C43	C	1.373416	-0.202824	-0.000002
C44	C	1.873416	0.297176	0.499998
C45	C	1.375337	-0.130366	-0.000006
C46	C	1.875337	0.369634	0.499994
C47	C	1.396181	-0.355668	-0.042428
C48	C	1.896181	0.144332	0.457572
C49	C	1.394265	-0.428125	-0.042428
C50	C	1.894265	0.071875	0.457572
C51	C	1.480983	-0.470272	0.000006
C52	C	1.980983	0.029728	0.500006
C53	C	1.569638	-0.439956	0.042431
C54	C	2.069638	0.060044	0.542431
C55	C	1.571559	-0.367498	0.042427
C56	C	2.071559	0.132502	0.542427
C57	C	1.484817	-0.325356	-0.000006
C58	C	1.984817	0.174644	0.499994
C59	C	1.592393	-0.592796	0.000015
C60	C	2.092393	-0.092796	0.500015
C61	C	1.590471	-0.665257	0.000031
C62	C	2.090471	-0.165257	0.500031
C63	C	1.361565	-0.649793	0.000034
C64	C	1.861565	-0.149793	0.500034
C65	C	1.363491	-0.577334	0.000025
C66	C	1.863491	-0.077334	0.500025
C67	C	1.478908	-0.548840	0.000012
C68	C	1.978908	-0.048840	0.500012
C69	C	1.712532	0.098220	0.000003
C70	C	2.212532	0.598220	0.500003
C71	C	1.851932	0.100261	0.000007
C72	C	2.351932	0.600261	0.500007
C73	C	1.473023	0.229129	0.000022
C74	C	1.973023	0.729129	0.500022
C75	C	1.475064	0.306246	0.000034
C76	C	1.975064	0.806246	0.500034
N77	N	1.482879	0.102192	-0.188664
N78	N	1.982879	0.602192	0.311336
C79	C	1.558870	0.144687	-0.773208
C80	C	2.058870	0.644687	-0.273208
C81	C	1.558857	0.144693	-0.696980
C82	C	2.058857	0.644693	-0.196980
C83	C	1.482937	0.102177	-0.658875
C84	C	1.982937	0.602177	-0.158875
C85	C	1.407001	0.059664	-0.697004
C86	C	1.907001	0.559664	-0.197004
C87	C	1.407007	0.059664	-0.773231
C88	C	1.907007	0.559664	-0.273231
C89	C	1.479815	0.039532	-0.538118
C90	C	1.979815	0.539532	-0.038118
C91	C	1.479819	0.039531	-0.461893
C92	C	1.979819	0.539531	0.038107
C93	C	1.482912	0.102179	-0.423768
C94	C	1.982912	0.602179	0.076232
C95	C	1.486029	0.164828	-0.461877
C96	C	1.986029	0.664828	0.038123
C97	C	1.486035	0.164828	-0.538103
C98	C	1.986035	0.664828	-0.038103
C99	C	1.482922	0.102173	-0.576221
C100	C	1.982922	0.602173	-0.076221
C101	C	1.558823	0.144700	-0.302993
C102	C	2.058823	0.644700	0.197007
C103	C	1.558801	0.144708	-0.226764
C104	C	2.058801	0.644708	0.273236
C105	C	1.406953	0.059672	-0.226789
C106	C	1.906953	0.559672	0.273211
C107	C	1.406968	0.059670	-0.303017
C108	C	1.906968	0.559670	0.196983
C109	C	1.482910	0.102183	-0.341114
C110	C	1.982910	0.602183	0.158886
N111	N	1.482949	0.102176	0.188672
N112	N	1.982949	0.602176	0.688672
H113	H	1.101746	0.103920	0.119782
H114	H	1.601746	0.603920	0.619782
H115	H	0.864089	0.100445	-0.119758
H116	H	1.364089	0.600445	0.380242
H117	H	0.864116	0.100426	0.119773
H118	H	1.364116	0.600426	0.619773
H119	H	1.279452	-0.226035	0.000001
H120	H	1.779452	0.273965	0.500001
H121	H	1.345185	0.025048	-0.665975
H122	H	1.845185	0.525048	-0.165975
H123	H	1.345181	0.025046	-0.804268
H124	H	1.845181	0.525046	-0.304268
H125	H	1.488569	0.215840	-0.569128
H126	H	1.988569	0.715840	-0.069128
H127	H	1.282924	-0.094578	-0.000002
H128	H	1.782924	0.405422	0.499998
H129	H	1.101692	0.103946	-0.119760
H130	H	1.601692	0.603946	0.380240
H131	H	1.325562	-0.321356	-0.076987
H132	H	1.825562	0.178644	0.423013
H133	H	1.620705	0.179305	-0.804222
H134	H	2.120705	0.679305	-0.304222
H135	H	1.271082	-0.541546	0.000025
H136	H	1.771082	-0.041546	0.500025
H137	H	1.620679	0.179314	-0.665937
H138	H	2.120679	0.679314	-0.165937
H139	H	1.488549	0.215842	-0.430837
H140	H	1.988549	0.715842	0.069163
H141	H	1.698218	-0.122632	-0.000032
H142	H	2.198218	0.377368	0.499968
H143	H	1.694731	-0.254080	-0.000013
H144	H	2.194731	0.245920	0.499987
H145	H	1.620653	0.179320	-0.334013
H146	H	2.120653	0.679320	0.165987
H147	H	1.322072	-0.452802	-0.076969
H148	H	1.822072	0.047198	0.423031
H149	H	1.643743	-0.342817	0.076972
H150	H	2.143743	0.157183	0.576972
H151	H	1.620622	0.179330	-0.195728
H152	H	2.120622	0.679330	0.304272
H153	H	1.640252	-0.474272	0.076985
H154	H	2.140252	0.025728	0.576985
H155	H	1.686373	-0.569595	0.000007
H156	H	2.186373	-0.069595	0.500007
H157	H	1.682885	-0.701044	0.000031
H158	H	2.182885	-0.201044	0.500031
H159	H	1.267600	-0.672999	0.000039
H160	H	1.767600	-0.172999	0.500039
H161	H	1.345130	0.025058	-0.195765
H162	H	1.845130	0.525058	0.304235
H163	H	1.345150	0.025051	-0.334055
H164	H	1.845150	0.525051	0.165945
H165	H	1.477289	-0.011483	-0.430870
H166	H	1.977289	0.488517	0.069130
H167	H	1.477284	-0.011486	-0.569153
H168	H	1.977284	0.488514	-0.069153
