data_functionalizedCrystal
_audit_creation_method	'MofGen! by Chris Wilmer'
_symmetry_space_group_name_H-M	'P1'
_symmetry_Int_Tables_number	1
_symmetry_cell_setting	triclinic
loop_
_symmetry_equiv_pos_as_xyz
  x,y,z
_cell_length_a	10.540539
_cell_length_b	19.288864
_cell_length_c	9.016244
_cell_angle_alpha	90.018443
_cell_angle_beta	90.003718
_cell_angle_gamma	96.169131
loop_
_atom_site_label
_atom_site_type_symbol
_atom_site_fract_x
_atom_site_fract_y
_atom_site_fract_z
O1	O	0.158331	-0.922406	-0.123810
O2	O	0.179692	-0.720288	-0.123707
O3	O	-0.015798	-0.825958	-0.123759
O4	O	0.353821	-0.816735	-0.123758
O5	O	-0.015780	-0.825947	0.122922
O6	O	0.179709	-0.720277	0.122973
O7	O	0.158349	-0.922395	0.122871
Cu8	Cu	0.169031	-0.821335	0.145446
Cu9	Cu	0.169010	-0.821348	-0.146282
O10	O	0.353838	-0.816725	0.122923
C11	C	0.179013	-0.694401	-0.000354
C12	C	0.176950	-0.617284	-0.000315
C13	C	-0.063077	-0.825261	-0.000421
C14	C	-0.203978	-0.823192	-0.000428
C15	C	0.159027	-0.948281	-0.000486
C16	C	0.161091	-1.025399	-0.000534
C17	C	-0.385638	-0.743903	-0.000941
C18	C	-0.239067	-0.746000	-0.000387
C19	C	-0.266454	-0.860333	0.140420
C20	C	-0.412940	-0.857699	0.140540
C21	C	-0.413513	-0.859281	-0.139983
C22	C	-0.266547	-0.859992	-0.141846
C23	C	0.401117	-0.817422	-0.000419
C24	C	0.542019	-0.819491	-0.000421
N25	N	0.169045	-0.821331	0.350632
C26	C	0.291654	-0.573353	-0.000338
C27	C	0.289716	-0.500893	-0.000355
C28	C	0.173067	-0.472367	-0.000378
C29	C	0.058347	-0.516308	-0.000346
C30	C	0.060289	-0.588766	-0.000315
C31	C	0.081361	-0.363497	-0.086851
C32	C	0.079425	-0.291039	-0.086891
C33	C	0.167074	-0.248881	-0.000468
C34	C	0.256681	-0.279188	0.085978
C35	C	0.258622	-0.351647	0.086009
C36	C	0.170949	-0.393799	-0.000411
C37	C	0.279684	-0.126380	-0.000506
C38	C	0.277741	-0.053919	-0.000513
C39	C	0.046369	-0.069336	-0.000520
C40	C	0.048315	-0.141795	-0.000498
C41	C	0.164976	-0.170313	-0.000498
C42	C	0.273604	-0.764779	0.413630
C43	C	0.273316	-0.764584	0.585521
C44	C	0.036496	-0.805157	0.586117
C45	C	0.037130	-0.804741	0.414173
C46	C	0.195799	-0.894243	0.413932
C47	C	0.198790	-0.893779	0.585889
N48	N	0.169009	-0.821347	0.648531
H49	H	-0.195819	-0.716775	-0.101351
H50	H	0.290379	-0.909702	0.370571
Cl51	Cl	0.371260	-0.389745	0.194684
H52	H	0.009985	-0.397817	-0.157237
Cl53	Cl	0.438314	-0.609200	-0.000331
H54	H	0.296284	-0.906048	0.626659
H55	H	0.006466	-0.266369	-0.157286
Cl56	Cl	0.421955	0.001310	-0.000535
Cl57	Cl	-0.095893	-0.197026	-0.000478
Cl58	Cl	0.000764	-0.722627	0.352330
Cl59	Cl	0.426209	-0.779498	0.349802
Cl60	Cl	-0.233894	-0.947854	0.148472
H61	H	-0.413566	-0.713415	-0.101944
H62	H	-0.036629	-0.493077	-0.000386
Cl63	Cl	-0.083923	-0.643997	-0.000288
H64	H	-0.461982	-0.915036	-0.140958
Cl65	Cl	-0.199792	-0.820486	0.302292
Cl66	Cl	0.366877	-0.226197	0.194632
H67	H	-0.048609	-0.046111	-0.000631
Cl68	Cl	-0.086554	-0.867043	0.649117
H69	H	-0.444517	-0.834303	-0.246738
Cl70	Cl	0.247581	-0.681724	0.347009
H71	H	0.371815	-0.774280	0.627724
H72	H	-0.462145	-0.913214	0.146903
Cl73	Cl	-0.231084	-0.946883	-0.155034
Cl74	Cl	0.246889	-0.681069	0.649127
Cl75	Cl	-0.455526	-0.815301	0.303132
Cl76	Cl	-0.086616	-0.865884	0.349815
Cl77	Cl	-0.000787	-0.723987	0.652676
Cl78	Cl	-0.201801	-0.818385	-0.302743
Cl79	Cl	0.088832	-0.961855	0.652098
Cl80	Cl	0.078083	-0.959226	0.351010
H81	H	-0.415162	-0.713530	0.099526
H82	H	0.383125	-0.465117	-0.000369
Cl83	Cl	0.426340	-0.162235	-0.000492
Cl84	Cl	-0.173565	-0.700546	0.155797
