data_functionalizedCrystal
_audit_creation_method	'MofGen! by Chris Wilmer'
_symmetry_space_group_name_H-M	'P1'
_symmetry_Int_Tables_number	1
_symmetry_cell_setting	triclinic
loop_
_symmetry_equiv_pos_as_xyz
  x,y,z
_cell_length_a	12.759401
_cell_length_b	16.625545
_cell_length_c	12.759393
_cell_angle_alpha	90.032957
_cell_angle_beta	89.980324
_cell_angle_gamma	89.975537
loop_
_atom_site_label
_atom_site_type_symbol
_atom_site_fract_x
_atom_site_fract_y
_atom_site_fract_z
Zn1	Zn	1.606198	0.320953	-0.593967
Zn2	Zn	2.106198	0.820953	-0.093967
Zn3	Zn	1.606061	0.455808	-0.418279
Zn4	Zn	2.106061	0.955808	0.081721
Zn5	Zn	1.430497	0.320994	-0.418306
Zn6	Zn	1.930497	0.820994	0.081694
Zn7	Zn	1.430460	0.455749	-0.593920
Zn8	Zn	1.930460	0.955749	-0.093920
O9	O	1.518304	0.388376	-0.506118
O10	O	2.018304	0.888376	-0.006118
O11	O	1.753201	0.338850	-0.570670
O12	O	2.253201	0.838850	-0.070670
O13	O	1.582730	0.437966	-0.271262
O14	O	2.082730	0.937966	0.228738
O15	O	1.453877	0.208156	-0.441638
O16	O	1.953877	0.708156	0.058362
O17	O	1.753100	0.437927	-0.441593
O18	O	2.253100	0.937927	0.058407
O19	O	1.582964	0.208126	-0.570695
O20	O	2.082964	0.708126	-0.070695
O21	O	1.453744	0.338919	-0.271281
O22	O	1.953744	0.838919	0.228719
O23	O	1.283471	0.338862	-0.441593
O24	O	1.783471	0.838862	0.058407
O25	O	1.453814	0.437826	-0.740948
O26	O	1.953814	0.937826	-0.240948
O27	O	1.283444	0.437865	-0.570616
O28	O	1.783444	0.937865	-0.070616
O29	O	1.582928	0.338793	-0.740982
O30	O	2.082928	0.838793	-0.240982
O31	O	1.582694	0.568632	-0.441548
O32	O	2.082694	1.068632	0.058452
O33	O	1.453681	0.568589	-0.570591
O34	O	1.953681	1.068589	-0.070591
C35	C	1.245337	0.388362	-0.506103
C36	C	1.745337	0.888362	-0.006103
C37	C	1.128560	0.388376	-0.506122
C38	C	1.628560	0.888376	-0.006122
C39	C	1.073751	0.336879	-0.573436
C40	C	1.573751	0.836879	-0.073436
C41	C	0.964027	0.336888	-0.573443
C42	C	1.464027	0.836888	-0.073443
C43	C	0.963930	0.439895	-0.438819
C44	C	1.463930	0.939895	0.061181
C45	C	1.073652	0.439882	-0.438807
C46	C	1.573652	0.939882	0.061193
C47	C	1.518197	0.597867	-0.506084
C48	C	2.018197	1.097867	-0.006084
C49	C	1.518247	0.687488	-0.506105
C50	C	2.018247	1.187488	-0.006105
C51	C	1.518419	1.015663	-0.506231
C52	C	2.018419	1.515663	-0.006231
C53	C	1.518368	0.924355	-0.506199
C54	C	2.018368	1.424355	-0.006199
C55	C	1.518332	0.851579	-0.506167
C56	C	2.018332	1.351579	-0.006167
C57	C	1.518283	0.760264	-0.506136
C58	C	2.018283	1.260264	-0.006136
C59	C	1.792337	0.388390	-0.506134
C60	C	2.292337	0.888390	-0.006134
C61	C	1.909114	0.388397	-0.506140
C62	C	2.409114	0.888397	-0.006140
C63	C	1.518383	0.388299	-0.780152
C64	C	2.018383	0.888299	-0.280152
C65	C	1.518416	0.388266	-0.896928
C66	C	2.018416	0.888266	-0.396928
C67	C	1.518431	1.178067	-0.506187
C68	C	2.018431	1.678067	-0.006187
C69	C	1.518462	1.088446	-0.506248
C70	C	2.018462	1.588446	-0.006248
C71	C	1.585651	0.336691	-0.951810
C72	C	2.085651	0.836691	-0.451810
C73	C	1.585669	0.336656	-1.061534
C74	C	2.085669	0.836656	-0.561534
C75	C	1.451214	0.439778	-1.061485
C76	C	1.951214	0.939778	-0.561485
C77	C	1.451192	0.439808	-0.951763
C78	C	1.951192	0.939808	-0.451763
C79	C	1.518286	0.388395	-0.233151
C80	C	2.018286	0.888395	0.266849
C81	C	1.518456	0.388201	-0.116375
C82	C	2.018456	0.888201	0.383625
H83	H	1.118279	0.481817	-0.383987
H84	H	1.618279	0.981817	0.116013
C85	C	1.659581	0.279986	-0.891494
C86	C	2.159581	0.779986	-0.391494
H87	H	1.699617	0.249259	-0.939899
H88	H	2.199617	0.749259	-0.439899
H89	H	1.705331	0.310838	-0.848686
H90	H	2.205331	0.810838	-0.348686
H91	H	1.619393	0.244862	-0.848701
H92	H	2.119393	0.744862	-0.348701
H93	H	1.118454	0.294937	-0.628244
H94	H	1.618454	0.794937	-0.128244
H95	H	1.640416	0.294657	-1.106213
H96	H	2.140416	0.794657	-0.606213
H97	H	1.396485	0.481744	-1.106146
H98	H	1.896485	0.981744	-0.606146
H99	H	1.396434	0.481806	-0.907078
H100	H	1.896434	0.981806	-0.407078
H101	H	0.919211	0.481831	-0.384015
H102	H	1.419211	0.981831	0.115985
C103	C	0.903742	0.280246	-0.647493
C104	C	1.403742	0.780246	-0.147493
H105	H	0.952161	0.249576	-0.687584
H106	H	1.452161	0.749576	-0.187584
H107	H	0.860934	0.245079	-0.607395
H108	H	1.360934	0.745079	-0.107395
H109	H	0.860950	0.311144	-0.693204
H110	H	1.360950	0.811144	-0.193204
