data_functionalizedCrystal
_audit_creation_method	'MofGen! by Chris Wilmer'
_symmetry_space_group_name_H-M	'P1'
_symmetry_Int_Tables_number	1
_symmetry_cell_setting	triclinic
loop_
_symmetry_equiv_pos_as_xyz
  x,y,z
_cell_length_a	16.959455
_cell_length_b	17.640968
_cell_length_c	16.959454
_cell_angle_alpha	78.771412
_cell_angle_beta	90.017095
_cell_angle_gamma	78.769829
loop_
_atom_site_label
_atom_site_type_symbol
_atom_site_fract_x
_atom_site_fract_y
_atom_site_fract_z
Zn1	Zn	1.298820	-0.447079	-0.224355
Zn2	Zn	1.272005	-0.314902	-0.383266
Zn3	Zn	1.139910	-0.314896	-0.251100
Zn4	Zn	1.166604	-0.447033	-0.356498
O5	O	1.219335	-0.380977	-0.303805
O6	O	1.405878	-0.429567	-0.245445
O7	O	1.232089	-0.204284	-0.388129
O8	O	1.161040	-0.332447	-0.136938
O9	O	1.386177	-0.332457	-0.362196
O10	O	1.277791	-0.429561	-0.117289
O11	O	1.135039	-0.204280	-0.291027
O12	O	1.032836	-0.332402	-0.265071
O13	O	1.206536	-0.557656	-0.316573
O14	O	1.052447	-0.429483	-0.342507
O15	O	1.303674	-0.557689	-0.219489
O16	O	1.257973	-0.332413	-0.490329
O17	O	1.180535	-0.429489	-0.470663
C18	C	1.013960	-0.380938	-0.303787
C19	C	0.926104	-0.380939	-0.303795
C20	C	0.544362	-0.330386	-0.364552
C21	C	0.564930	-0.431664	-0.243103
C22	C	0.647471	-0.431645	-0.243094
C23	C	0.678463	-0.380997	-0.303816
C24	C	0.626912	-0.330367	-0.364546
C25	C	0.699029	-0.482279	-0.182369
C26	C	0.781577	-0.482263	-0.182358
C27	C	0.812569	-0.431610	-0.243077
C28	C	0.761012	-0.380978	-0.303810
C29	C	0.792004	-0.330329	-0.364531
C30	C	0.740448	-0.279692	-0.425261
C31	C	0.657904	-0.279714	-0.425265
C32	C	0.895113	-0.431588	-0.243073
C33	C	0.874553	-0.330310	-0.364525
C34	C	1.261074	-0.587156	-0.262062
C35	C	1.278860	-0.675017	-0.244273
C36	C	1.084514	-0.963894	-0.438511
C37	C	1.101244	-1.046453	-0.421786
C38	C	1.202386	-1.046478	-0.320700
C39	C	1.185662	-0.963917	-0.337414
C40	C	1.126726	-0.922632	-0.396321
C41	C	1.227873	-0.922655	-0.295224
C42	C	1.211153	-0.840101	-0.311939
C43	C	1.152221	-0.798810	-0.370845
C44	C	1.110006	-0.840078	-0.413036
C45	C	1.286813	-0.963941	-0.236321
C46	C	1.329025	-0.922679	-0.194131
C47	C	1.312301	-0.840124	-0.210842
C48	C	1.253369	-0.798833	-0.269748
C49	C	1.354517	-0.798856	-0.168651
C50	C	1.337796	-0.716303	-0.185367
C51	C	1.236649	-0.716280	-0.286464
C52	C	1.425511	-0.381018	-0.303823
C53	C	1.513371	-0.381035	-0.303831
C54	C	1.219266	-0.380964	-0.509174
C55	C	1.219314	-0.380985	-0.597026
C56	C	1.177803	-0.175601	-0.345328
C57	C	1.160170	-0.087740	-0.362894
C58	C	1.179085	-0.431520	-0.958294
C59	C	1.259821	-0.330516	-0.978696
C60	C	1.259792	-0.330508	-0.896152
C61	C	1.219408	-0.381007	-0.844675
C62	C	1.179052	-0.431512	-0.875742
C63	C	1.300139	-0.279998	-0.865079
C64	C	1.300111	-0.279988	-0.782530
C65	C	1.259731	-0.330491	-0.731051
C66	C	1.219375	-0.380999	-0.762123
C67	C	1.178991	-0.431498	-0.710645
C68	C	1.138639	-0.482010	-0.741715
C69	C	1.138673	-0.482015	-0.824262
C70	C	1.259698	-0.330486	-0.648503
C71	C	1.178959	-0.431490	-0.628093
C72	C	1.219429	-0.381008	-0.097630
C73	C	1.219469	-0.381021	-0.009771
H74	H	0.615920	-0.238488	-0.474708
H75	H	1.402508	-0.832483	-0.120695
O76	O	0.494274	-0.281315	-0.423605
C77	C	0.455610	-0.326239	-0.465624
H78	H	0.493110	-0.388484	-0.457999
H79	H	0.393615	-0.329013	-0.440634
C80	C	0.400409	-0.211030	-0.564947
C81	C	0.446470	-0.287479	-0.555587
H82	H	0.394767	-0.187120	-0.620440
H83	H	0.426454	-0.180763	-0.536637
H84	H	0.348751	-0.213353	-0.544117
H85	H	0.498129	-0.285154	-0.576408
H86	H	0.420432	-0.317745	-0.583903
O87	O	1.139668	-0.480437	-0.578027
C88	C	1.079494	-0.435378	-0.539463
H89	H	1.095290	-0.375499	-0.539214
H90	H	1.019169	-0.426641	-0.573091
C91	C	1.054515	-0.552394	-0.452555
C92	C	1.073919	-0.478852	-0.452243
H93	H	1.051073	-0.579211	-0.398754
H94	H	1.095053	-0.582752	-0.478538
H95	H	1.004246	-0.545102	-0.480582
H96	H	1.124192	-0.486145	-0.424225
H97	H	1.033390	-0.448496	-0.426253
O98	O	1.378847	-0.676337	-0.144284
C99	C	1.434462	-0.730478	-0.088720
H100	H	1.414008	-0.789323	-0.074062
H101	H	1.496261	-0.739259	-0.115892
C102	C	1.464484	-0.625992	-0.029123
C103	C	1.439359	-0.698265	-0.011114
H104	H	1.467508	-0.606120	0.018747
H105	H	1.427018	-0.589515	-0.066559
H106	H	1.515982	-0.633319	-0.051768
H107	H	1.387858	-0.690934	0.011521
H108	H	1.476817	-0.734739	0.026328
H109	H	0.539692	-0.472905	-0.193670
H110	H	0.673791	-0.523520	-0.132937
H111	H	1.300427	-1.031162	-0.222715
H112	H	1.292694	-0.289398	-1.020614
H113	H	1.105754	-0.523123	-0.699793
O114	O	1.140006	-0.480623	-0.988550
C115	C	1.195335	-0.531744	-1.025888
H116	H	1.249632	-0.503927	-1.043854
H117	H	1.215819	-0.590327	-0.982190
C118	C	1.088066	-0.580190	-1.079370
C119	C	1.154752	-0.546022	-1.101442
H120	H	1.063032	-0.589001	-1.125973
H121	H	1.050789	-0.545752	-1.054212
H122	H	1.105146	-0.629006	-1.042953
H123	H	1.137670	-0.497203	-1.137849
H124	H	1.192025	-0.580453	-1.126608
H125	H	1.105819	-0.523139	-0.849567
O126	O	1.052849	-0.799871	-0.470314
C127	C	1.088176	-0.752135	-0.531042
H128	H	1.145593	-0.739797	-0.505666
H129	H	1.103271	-0.783936	-0.583185
C130	C	0.958294	-0.688851	-0.592386
C131	C	1.028811	-0.673692	-0.561217
H132	H	0.921675	-0.640466	-0.611003
H133	H	0.934493	-0.721014	-0.551475
H134	H	0.970884	-0.715355	-0.635835
H135	H	1.016222	-0.647198	-0.517763
H136	H	1.052608	-0.641523	-0.602122
O137	O	1.027276	-0.923905	-0.495797
C138	C	0.993591	-0.978024	-0.529445
H139	H	1.037873	-1.036882	-0.520251
H140	H	0.935333	-0.986784	-0.498738
C141	C	0.921284	-0.873510	-0.631395
C142	C	0.975676	-0.945798	-0.620108
H143	H	0.910229	-0.853631	-0.687319
H144	H	0.943976	-0.837048	-0.608724
H145	H	0.872742	-0.880820	-0.605800
H146	H	1.024219	-0.938486	-0.645693
H147	H	0.952991	-0.982259	-0.642785
O148	O	0.831704	-0.531529	-0.123461
C149	C	0.889803	-0.582483	-0.158213
H150	H	0.865891	-0.587269	-0.219511
H151	H	0.947402	-0.558022	-0.165838
C152	C	0.937129	-0.658844	-0.027784
C153	C	0.907758	-0.664727	-0.103068
H154	H	0.948208	-0.709576	0.006233
H155	H	0.897990	-0.624514	-0.004370
H156	H	0.985125	-0.638457	-0.034149
H157	H	0.859757	-0.685104	-0.096703
H158	H	0.946890	-0.699063	-0.126480
H159	H	1.333011	-0.238879	-0.906999
O160	O	1.060352	-1.086574	-0.462843
C161	C	1.115004	-1.134343	-0.504214
H162	H	1.172218	-1.109471	-0.514146
H163	H	1.130411	-1.196910	-0.467102
C164	C	1.006332	-1.166152	-0.573924
C165	C	1.076601	-1.135600	-0.586128
H166	H	0.982643	-1.166931	-0.624451
H167	H	0.969512	-1.133972	-0.546049
H168	H	1.019181	-1.218288	-0.542994
H169	H	1.063750	-1.083461	-0.617048
H170	H	1.113419	-1.167771	-0.614010
O171	O	1.339252	-0.230818	-0.752462
C172	C	1.306086	-0.152016	-0.788599
H173	H	1.275381	-0.150348	-0.848891
H174	H	1.260059	-0.125346	-0.747568
C175	C	1.411221	-0.106264	-0.728005
C176	C	1.373515	-0.104216	-0.802060
H177	H	1.452813	-0.076777	-0.736305
H178	H	1.433565	-0.159354	-0.703656
H179	H	1.372858	-0.084040	-0.693820
H180	H	1.411877	-0.126448	-0.836239
H181	H	1.351180	-0.051128	-0.826415
H182	H	0.899778	-0.289062	-0.413971
O183	O	1.259584	-1.086707	-0.263481
C184	C	1.265308	-1.168420	-0.257789
H185	H	1.206581	-1.179687	-0.281392
H186	H	1.316923	-1.191843	-0.295142
C187	C	1.353298	-1.196978	-0.140241
C188	C	1.281166	-1.210817	-0.169224
H189	H	1.363084	-1.223131	-0.085611
H190	H	1.349445	-1.141927	-0.144077
H191	H	1.396302	-1.216498	-0.171376
H192	H	1.238162	-1.191288	-0.138095
H193	H	1.285012	-1.265865	-0.165380
H194	H	1.188638	-0.682663	-0.334412
O195	O	0.770667	-0.230605	-0.484262
C196	C	0.827498	-0.275519	-0.526297
H197	H	0.852021	-0.335471	-0.486373
H198	H	0.797417	-0.284106	-0.583154
C199	C	0.866969	-0.158364	-0.598374
C200	C	0.897093	-0.231996	-0.549337
H201	H	0.909897	-0.131516	-0.612590
H202	H	0.828679	-0.128104	-0.570057
H203	H	0.841901	-0.165530	-0.645749
H204	H	0.922151	-0.224829	-0.501959
H205	H	0.935390	-0.262254	-0.577646
O206	O	1.386223	-0.962909	-0.136912
C207	C	1.391947	-1.044621	-0.131220
H208	H	1.333220	-1.055888	-0.154823
H209	H	1.443561	-1.068045	-0.168573
C210	C	1.479937	-1.073179	-0.013672
C211	C	1.407804	-1.087018	-0.042655
H212	H	1.489722	-1.099333	0.040958
H213	H	1.476083	-1.018128	-0.017508
H214	H	1.522941	-1.092699	-0.044807
H215	H	1.364801	-1.067489	-0.011526
H216	H	1.411651	-1.142067	-0.038811
H217	H	0.937086	-0.472817	-0.193629
H218	H	1.138612	-0.731590	-0.384457
H219	H	1.292547	-0.289356	-0.623211
