data_functionalizedCrystal
_audit_creation_method	'MofGen! by Chris Wilmer'
_symmetry_space_group_name_H-M	'P1'
_symmetry_Int_Tables_number	1
_symmetry_cell_setting	triclinic
loop_
_symmetry_equiv_pos_as_xyz
  x,y,z
_cell_length_a	16.120530
_cell_length_b	16.120444
_cell_length_c	18.215399
_cell_angle_alpha	87.129468
_cell_angle_beta	92.916648
_cell_angle_gamma	90.168401
loop_
_atom_site_label
_atom_site_type_symbol
_atom_site_fract_x
_atom_site_fract_y
_atom_site_fract_z
Zn1	Zn	1.254465	-0.395615	0.489893
Zn2	Zn	1.504465	-0.145615	0.739893
Zn3	Zn	1.754465	0.104385	0.989893
Zn4	Zn	2.004465	0.354385	1.239893
Zn5	Zn	1.247306	-0.534674	0.372727
Zn6	Zn	1.497306	-0.284674	0.622727
Zn7	Zn	1.747306	-0.034674	0.872727
Zn8	Zn	1.997306	0.215326	1.122727
Zn9	Zn	1.115405	-0.388580	0.360309
Zn10	Zn	1.365405	-0.138580	0.610309
Zn11	Zn	1.615405	0.111420	0.860309
Zn12	Zn	1.865405	0.361420	1.110309
Zn13	Zn	1.108315	-0.527569	0.489221
Zn14	Zn	1.358315	-0.277569	0.739221
Zn15	Zn	1.608315	-0.027569	0.989221
Zn16	Zn	1.858315	0.222431	1.239221
O17	O	1.181373	-0.461609	0.428038
O18	O	1.431373	-0.211609	0.678038
O19	O	1.681373	0.038391	0.928038
O20	O	1.931373	0.288391	1.178038
O21	O	1.369881	-0.419979	0.479829
O22	O	1.619881	-0.169979	0.729829
O23	O	1.869881	0.080021	0.979829
O24	O	2.119881	0.330021	1.229829
O25	O	1.229780	-0.515323	0.268096
O26	O	1.479780	-0.265323	0.518096
O27	O	1.729780	-0.015323	0.768096
O28	O	1.979780	0.234677	1.018096
O29	O	1.139815	-0.273150	0.372583
O30	O	1.389815	-0.023150	0.622583
O31	O	1.639815	0.226850	0.872583
O32	O	1.889815	0.476850	1.122583
O33	O	1.364621	-0.522145	0.393748
O34	O	1.614621	-0.272145	0.643748
O35	O	1.864621	-0.022145	0.893748
O36	O	2.114621	0.227855	1.143748
O37	O	1.241982	-0.278318	0.467788
O38	O	1.491982	-0.028318	0.717788
O39	O	1.741982	0.221682	0.967788
O40	O	1.991982	0.471682	1.217788
O41	O	1.132873	-0.407989	0.258972
O42	O	1.382873	-0.157989	0.508972
O43	O	1.632873	0.092011	0.758972
O44	O	1.882873	0.342011	1.008972
O45	O	0.998099	-0.401100	0.371931
O46	O	1.248099	-0.151100	0.621931
O47	O	1.498099	0.098900	0.871931
O48	O	1.748099	0.348900	1.121931
O49	O	1.127731	-0.510035	0.592295
O50	O	1.377731	-0.260035	0.842295
O51	O	1.627731	-0.010035	1.092295
O52	O	1.877731	0.239965	1.342295
O53	O	0.992890	-0.503214	0.466642
O54	O	1.242890	-0.253214	0.716642
O55	O	1.492890	-0.003214	0.966642
O56	O	1.742890	0.246786	1.216642
O57	O	1.235107	-0.413090	0.592788
O58	O	1.485107	-0.163090	0.842788
O59	O	1.735107	0.086910	1.092788
O60	O	1.985107	0.336910	1.342788
O61	O	1.222905	-0.650095	0.393096
O62	O	1.472905	-0.400095	0.643096
O63	O	1.722905	-0.150095	0.893096
O64	O	1.972905	0.099905	1.143096
O65	O	1.120789	-0.644875	0.478684
O66	O	1.370789	-0.394875	0.728684
O67	O	1.620789	-0.144875	0.978684
O68	O	1.870789	0.105125	1.228684
C69	C	0.965322	-0.450623	0.417867
C70	C	1.215322	-0.200623	0.667867
C71	C	1.465322	0.049377	0.917867
C72	C	1.715322	0.299377	1.167867
C73	C	0.872894	-0.445943	0.413534
C74	C	1.122894	-0.195943	0.663534
C75	C	1.372894	0.054057	0.913534
C76	C	1.622894	0.304057	1.163534
C77	C	1.170323	-0.677658	0.437182
C78	C	1.420323	-0.427658	0.687182
C79	C	1.670323	-0.177658	0.937182
C80	C	1.920323	0.072342	1.187182
C81	C	1.165672	-0.770088	0.441122
C82	C	1.415672	-0.520088	0.691122
C83	C	1.665672	-0.270088	0.941122
C84	C	1.915672	-0.020088	1.191122
C85	C	0.703667	-0.437379	0.405629
C86	C	0.953667	-0.187379	0.655629
C87	C	1.203667	0.062621	0.905629
C88	C	1.453667	0.312621	1.155629
C89	C	0.659916	-0.485901	0.450503
C90	C	0.909916	-0.235901	0.700503
C91	C	1.159916	0.014099	0.950503
C92	C	1.409916	0.264099	1.200503
C93	C	0.565752	-0.481136	0.446104
C94	C	0.815752	-0.231136	0.696104
C95	C	1.065752	0.018864	0.946104
C96	C	1.315752	0.268864	1.196104
C97	C	0.797839	-0.442143	0.410026
C98	C	1.047839	-0.192143	0.660026
C99	C	1.297839	0.057857	0.910026
C100	C	1.547839	0.307857	1.160026
C101	C	1.205703	-0.983061	0.407766
C102	C	1.455703	-0.733061	0.657766
C103	C	1.705703	-0.483061	0.907766
C104	C	1.955703	-0.233061	1.157766
C105	C	1.157197	-0.939315	0.448324
C106	C	1.407197	-0.689315	0.698324
C107	C	1.657197	-0.439315	0.948324
C108	C	1.907197	-0.189315	1.198324
C109	C	1.161914	-0.845148	0.444316
C110	C	1.411914	-0.595148	0.694316
C111	C	1.661914	-0.345148	0.944316
C112	C	1.911914	-0.095148	1.194316
C113	C	1.200987	-1.077236	0.411774
C114	C	1.450987	-0.827236	0.661774
C115	C	1.700987	-0.577236	0.911774
C116	C	1.950987	-0.327236	1.161774
C117	C	1.398267	-0.472639	0.438249
C118	C	1.648267	-0.222639	0.688249
C119	C	1.898267	0.027361	0.938249
C120	C	2.148267	0.277361	1.188249
C121	C	1.490694	-0.477339	0.442600
C122	C	1.740694	-0.227339	0.692600
C123	C	1.990694	0.022661	0.942600
C124	C	2.240694	0.272661	1.192600
C125	C	1.181426	-0.461555	0.619991
C126	C	1.431426	-0.211555	0.869991
C127	C	1.681426	0.038445	1.119991
C128	C	1.931426	0.288445	1.369991
C129	C	1.181449	-0.461531	0.701790
C130	C	1.431449	-0.211531	0.951790
C131	C	1.681449	0.038469	1.201790
C132	C	1.931449	0.288469	1.451790
C133	C	1.192488	-0.244719	0.418875
C134	C	1.442488	0.005281	0.668875
C135	C	1.692488	0.255281	0.918875
C136	C	1.942488	0.505281	1.168875
C137	C	1.197224	-0.152293	0.414970
C138	C	1.447224	0.097707	0.664970
C139	C	1.697224	0.347707	0.914970
C140	C	1.947224	0.597707	1.164970
C141	C	1.181370	-0.461606	0.236831
C142	C	1.431370	-0.211606	0.486831
C143	C	1.681370	0.038394	0.736831
C144	C	1.931370	0.288394	0.986831
C145	C	1.181520	-0.461404	0.155030
C146	C	1.431520	-0.211404	0.405030
C147	C	1.681520	0.038596	0.655030
C148	C	1.931520	0.288596	0.905030
C149	C	1.237381	-0.411003	0.890241
C150	C	1.487381	-0.161003	1.140241
C151	C	1.737381	0.088997	1.390241
C152	C	1.987381	0.338997	1.640241
C153	C	1.237393	-0.410979	0.967099
C154	C	1.487393	-0.160979	1.217099
C155	C	1.737393	0.089021	1.467099
C156	C	1.987393	0.339021	1.717099
C157	C	1.125582	-0.511934	0.966574
C158	C	1.375582	-0.261934	1.216574
C159	C	1.625582	-0.011934	1.466574
C160	C	1.875582	0.238066	1.716574
C161	C	1.125568	-0.511953	0.889717
C162	C	1.375568	-0.261953	1.139717
C163	C	1.625568	-0.011953	1.389717
C164	C	1.875568	0.238047	1.639717
C165	C	1.181472	-0.461489	0.851552
C166	C	1.431472	-0.211489	1.101552
C167	C	1.681472	0.038511	1.351552
C168	C	1.931472	0.288511	1.601552
C169	C	1.181498	-0.461446	1.005268
C170	C	1.431498	-0.211446	1.255268
C171	C	1.681498	0.038554	1.505268
C172	C	1.931498	0.288554	1.755268
C173	C	1.181509	-0.461421	1.088601
C174	C	1.431509	-0.211421	1.338601
C175	C	1.681509	0.038579	1.588601
C176	C	1.931509	0.288579	1.838601
C177	C	1.181459	-0.461513	0.768214
C178	C	1.431459	-0.211513	1.018214
C179	C	1.681459	0.038487	1.268214
C180	C	1.931459	0.288487	1.518214
H181	H	0.693179	-0.531018	0.492225
H182	H	0.943179	-0.281018	0.742225
H183	H	1.193179	-0.031018	0.992225
H184	H	1.443179	0.218982	1.242225
Br185	Br	1.082073	-0.994760	0.511215
Br186	Br	1.332073	-0.744760	0.761215
Br187	Br	1.582073	-0.494760	1.011215
Br188	Br	1.832073	-0.244760	1.261215
Br189	Br	1.280819	-0.927613	0.344877
Br190	Br	1.530819	-0.677613	0.594877
Br191	Br	1.780819	-0.427613	0.844877
Br192	Br	2.030819	-0.177613	1.094877
H193	H	1.282900	-0.369909	0.859169
H194	H	1.532900	-0.119909	1.109169
H195	H	1.782900	0.130091	1.359169
H196	H	2.032900	0.380091	1.609169
Br197	Br	0.648230	-0.362182	0.336095
Br198	Br	0.898230	-0.112182	0.586095
Br199	Br	1.148230	0.137818	0.836095
Br200	Br	1.398230	0.387818	1.086095
H201	H	1.282918	-0.369867	0.998595
H202	H	1.532918	-0.119867	1.248595
H203	H	1.782918	0.130133	1.498595
H204	H	2.032918	0.380133	1.748595
H205	H	1.080069	-0.553022	0.997657
H206	H	1.330069	-0.303022	1.247657
H207	H	1.580069	-0.053022	1.497657
H208	H	1.830069	0.196978	1.747657
H209	H	1.080034	-0.553063	0.858215
H210	H	1.330034	-0.303063	1.108215
H211	H	1.580034	-0.053063	1.358215
H212	H	1.830034	0.196937	1.608215
