data_functionalizedCrystal
_audit_creation_method	'MofGen! by Chris Wilmer'
_symmetry_space_group_name_H-M	'P1'
_symmetry_Int_Tables_number	1
_symmetry_cell_setting	triclinic
loop_
_symmetry_equiv_pos_as_xyz
  x,y,z
_cell_length_a	12.759394
_cell_length_b	13.032831
_cell_length_c	13.037736
_cell_angle_alpha	90.811084
_cell_angle_beta	97.165975
_cell_angle_gamma	82.819699
loop_
_atom_site_label
_atom_site_type_symbol
_atom_site_fract_x
_atom_site_fract_y
_atom_site_fract_z
Zn1	Zn	-0.709901	1.499595	-0.780537
Zn2	Zn	-0.866354	1.521107	-0.608623
Zn3	Zn	-0.665920	1.349183	-0.586852
Zn4	Zn	-0.860745	1.327563	-0.758691
O5	O	-0.775730	1.424362	-0.683676
O6	O	-0.751409	1.646395	-0.775986
O7	O	-0.823708	1.516353	-0.461873
O8	O	-0.524743	1.369181	-0.612576
O9	O	-0.866354	1.662201	-0.649682
O10	O	-0.557056	1.479687	-0.754876
O11	O	-0.676449	1.390041	-0.445878
O12	O	-0.671010	1.202368	-0.591393
O13	O	-0.856794	1.332332	-0.905451
O14	O	-0.814147	1.186484	-0.717642
O15	O	-0.745970	1.458723	-0.921501
O16	O	-1.012622	1.495388	-0.628498
O17	O	-1.008500	1.353192	-0.738752
C18	C	-0.737198	1.157102	-0.649785
C19	C	-0.720742	1.042764	-0.635311
C20	C	-0.784319	0.983969	-0.691230
C21	C	-0.767312	0.865794	-0.676271
C22	C	-1.048686	1.424303	-0.683643
C23	C	-1.165475	1.424368	-0.683675
C24	C	-1.169738	1.572524	-0.568979
C25	C	-1.226736	1.646627	-0.511646
C26	C	-1.336469	1.646683	-0.511681
C27	C	-1.389208	1.572631	-0.569059
C28	C	-1.332210	1.498528	-0.626391
C29	C	-1.222474	1.498477	-0.626347
C30	C	-1.327948	1.350379	-0.741093
C31	C	-1.218214	1.350316	-0.741052
C32	C	-1.380687	1.276326	-0.798470
C33	C	-1.323688	1.202217	-0.855798
C34	C	-1.213948	1.202163	-0.855759
C35	C	-1.161216	1.276213	-0.798385
C36	C	-0.501715	1.424446	-0.683735
C37	C	-0.384946	1.424482	-0.683760
C38	C	-0.805662	1.390716	-0.951820
C39	C	-0.818417	1.376378	-1.066088
C40	C	-0.814413	1.692665	-0.717699
C41	C	-0.830898	1.807000	-0.732198
C42	C	-0.745847	1.457936	-0.416582
C43	C	-0.732825	1.472473	-0.302340
C44	C	-0.768894	1.431938	-0.125178
C45	C	-0.782355	1.416905	-0.243252
H46	H	-0.700283	0.828647	-0.617323
H47	H	-0.897918	0.844145	-0.791157
C48	C	-0.630197	0.992586	-0.555679
H49	H	-0.630648	0.919742	-0.556069
H50	H	-0.563835	1.008256	-0.573053
H51	H	-0.640260	1.018796	-0.488778
H52	H	-0.851336	1.021119	-0.750182
H53	H	-1.478561	1.572692	-0.569092
C54	C	-1.399168	1.728192	-0.448615
H55	H	-1.352047	1.772283	-0.414433
H56	H	-1.452772	1.768063	-0.493666
H57	H	-1.431354	1.694508	-0.398820
H58	H	-1.366638	1.141934	-0.902515
C59	C	-0.698155	1.511236	-0.075443
H60	H	-0.698395	1.510943	-0.002609
H61	H	-0.627443	1.493471	-0.091179
H62	H	-0.725004	1.578228	-0.101851
C63	C	-0.853105	1.337610	-0.292983
H64	H	-0.852879	1.337915	-0.365818
H65	H	-0.826275	1.270620	-0.266577
H66	H	-0.923821	1.355394	-0.277248
C67	C	-0.662079	1.551774	-0.252612
H68	H	-0.662316	1.551481	-0.179778
H69	H	-0.591368	1.534005	-0.268350
H70	H	-0.688927	1.618766	-0.279020
C71	C	-0.889164	1.297087	-0.115824
H72	H	-0.888937	1.297392	-0.188659
H73	H	-0.862333	1.230096	-0.089418
H74	H	-0.959880	1.314871	-0.100089
H75	H	-1.183787	1.706921	-0.464932
H76	H	-1.167547	1.141823	-0.902451
C77	C	-1.501390	1.276386	-0.798507
H78	H	-1.527782	1.331117	-0.756137
H79	H	-1.536136	1.285812	-0.867118
H80	H	-1.514714	1.212261	-0.772268
H81	H	-1.071864	1.276170	-0.798341
H82	H	-1.080384	1.572473	-0.568929
