data_functionalizedCrystal
_audit_creation_method	'MofGen! by Chris Wilmer'
_symmetry_space_group_name_H-M	'P1'
_symmetry_Int_Tables_number	1
_symmetry_cell_setting	triclinic
loop_
_symmetry_equiv_pos_as_xyz
  x,y,z
_cell_length_a	19.805407
_cell_length_b	13.031981
_cell_length_c	19.805399
_cell_angle_alpha	82.788388
_cell_angle_beta	89.983114
_cell_angle_gamma	97.191459
loop_
_atom_site_label
_atom_site_type_symbol
_atom_site_fract_x
_atom_site_fract_y
_atom_site_fract_z
Zn1	Zn	1.000555	-0.416121	-0.348474
Zn2	Zn	1.500555	0.083879	0.151526
Zn3	Zn	0.986125	-0.590913	-0.220900
Zn4	Zn	1.486125	-0.090913	0.279100
Zn5	Zn	0.887372	-0.416154	-0.235295
Zn6	Zn	1.387372	0.083846	0.264705
Zn7	Zn	0.872988	-0.590853	-0.334052
Zn8	Zn	1.372988	-0.090853	0.165948
O9	O	0.936760	-0.503510	-0.284680
O10	O	1.436760	-0.003510	0.215320
O11	O	1.093357	-0.439318	-0.331562
O12	O	1.593357	0.060682	0.168438
O13	O	0.973006	-0.567770	-0.128090
O14	O	1.473006	-0.067770	0.371910
O15	O	0.914445	-0.269886	-0.262369
O16	O	1.414445	0.230114	0.237631
O17	O	1.082755	-0.567738	-0.237834
O18	O	1.582755	-0.067738	0.262166
O19	O	0.997600	-0.269862	-0.345520
O20	O	1.497600	0.230138	0.154480
O21	O	0.900453	-0.439375	-0.138666
O22	O	1.400453	0.060625	0.361334
O23	O	0.790749	-0.439317	-0.248385
O24	O	1.290749	0.060683	0.251615
O25	O	0.889929	-0.567636	-0.430685
O26	O	1.389929	-0.067636	0.069315
O27	O	0.780181	-0.567668	-0.320941
O28	O	1.280181	-0.067668	0.179059
O29	O	0.983652	-0.439260	-0.441280
O30	O	1.483652	0.060740	0.058720
O31	O	0.959058	-0.737169	-0.223850
O32	O	1.459058	-0.237169	0.276150
O33	O	0.875937	-0.737125	-0.306982
O34	O	1.375937	-0.237125	0.193018
C35	C	0.760906	-0.503490	-0.284660
C36	C	1.260906	-0.003490	0.215340
C37	C	0.685672	-0.503507	-0.284665
C38	C	1.185672	-0.003507	0.215335
C39	C	0.644835	-0.570440	-0.322367
C40	C	1.144835	-0.070440	0.177633
C41	C	0.574146	-0.570442	-0.322376
C42	C	1.074146	-0.070442	0.177624
C43	C	0.544296	-0.503515	-0.284680
C44	C	1.044296	-0.003515	0.215320
C45	C	0.585139	-0.436575	-0.246977
C46	C	1.085139	0.063425	0.253023
C47	C	0.655827	-0.436568	-0.246972
C48	C	1.155827	0.063432	0.253028
C49	C	0.300064	-0.436598	-0.246998
C50	C	0.800064	0.063402	0.253002
C51	C	0.229371	-0.436612	-0.247004
C52	C	0.729371	0.063388	0.252996
C53	C	0.218384	-0.570471	-0.322402
C54	C	0.718384	-0.070471	0.177598
C55	C	0.289071	-0.570465	-0.322397
C56	C	0.789071	-0.070465	0.177603
C57	C	0.329908	-0.503521	-0.284697
C58	C	0.829908	-0.003521	0.215303
C59	C	0.406557	-0.503518	-0.284688
C60	C	0.906557	-0.003518	0.215312
C61	C	0.467648	-0.503522	-0.284684
C62	C	0.967648	-0.003522	0.215316
C63	C	0.914389	-0.775071	-0.262304
C64	C	1.414389	-0.275071	0.237696
C65	C	0.904881	-0.891246	-0.252754
C66	C	1.404881	-0.391246	0.247246
C67	C	0.941759	-0.942945	-0.289678
C68	C	1.441759	-0.442945	0.210322
C69	C	0.931932	-1.063018	-0.279809
C70	C	1.431932	-0.563018	0.220191
C71	C	1.113301	-0.503531	-0.284701
C72	C	1.613301	-0.003531	0.215299
C73	C	1.188532	-0.503540	-0.284710
C74	C	1.688532	-0.003540	0.215290
C75	C	0.936796	-0.503438	-0.461229
C76	C	1.436796	-0.003438	0.038771
C77	C	0.936811	-0.503407	-0.536464
C78	C	1.436811	-0.003407	-0.036464
C79	C	0.959237	-0.230889	-0.307159
C80	C	1.459237	0.269111	0.192841
C81	C	0.968815	-0.114714	-0.316738
C82	C	1.468815	0.385286	0.183262
C83	C	0.899045	-0.436545	-0.577315
C84	C	1.399045	0.063455	-0.077315
C85	C	0.899056	-0.436525	-0.648005
C86	C	1.399056	0.063475	-0.148005
C87	C	0.936837	-0.503362	-0.677843
C88	C	1.436837	-0.003362	-0.177843
C89	C	0.974604	-0.570230	-0.636986
C90	C	1.474604	-0.070230	-0.136986
C91	C	0.974589	-0.570255	-0.566297
C92	C	1.474589	-0.070255	-0.066297
C93	C	0.974666	-0.570133	-0.922068
C94	C	1.474666	-0.070133	-0.422068
C95	C	0.974680	-0.570100	-0.992763
C96	C	1.474680	-0.070100	-0.492763
C97	C	0.899133	-0.436402	-1.003776
C98	C	1.399133	0.063598	-0.503776
C99	C	0.899118	-0.436427	-0.933086
C100	C	1.399118	0.063573	-0.433086
C101	C	0.936882	-0.503299	-0.892236
C102	C	1.436882	-0.003299	-0.392236
C103	C	0.936869	-0.503322	-0.815585
C104	C	1.436869	-0.003322	-0.315585
C105	C	0.936855	-0.503334	-0.754492
C106	C	1.436855	-0.003334	-0.254492
C107	C	0.936770	-0.503507	-0.108825
C108	C	1.436770	-0.003507	0.391175
C109	C	0.936910	-0.503243	-0.033615
C110	C	1.436910	-0.003243	0.466385
H111	H	0.669133	-0.624943	-0.353061
H112	H	1.169133	-0.124943	0.146939
H113	H	0.893079	-1.107646	-0.240890
H114	H	1.393079	-0.607646	0.259110
N115	N	0.552946	-0.364407	-0.206304
N116	N	1.052946	0.135593	0.293696
H117	H	0.501968	-0.374577	-0.212019
H118	H	1.001968	0.125423	0.287981
H119	H	0.563961	-0.380603	-0.156617
H120	H	1.063961	0.119397	0.343383
N121	N	1.020273	-1.055614	-0.368300
N122	N	1.520273	-0.555614	0.131700
H123	H	1.019999	-0.978216	-0.368045
H124	H	1.519999	-0.478216	0.131955
H125	H	1.067079	-1.074587	-0.356263
H126	H	1.567079	-0.574587	0.143737
H127	H	0.689077	-0.382059	-0.216276
H128	H	1.189077	0.117941	0.283724
N129	N	1.015352	-0.642314	-0.669174
N130	N	1.515352	-0.142314	-0.169174
H131	H	1.065048	-0.626094	-0.658215
H132	H	1.565048	-0.126094	-0.158215
H133	H	0.998625	-0.716970	-0.650702
H134	H	1.498625	-0.216970	-0.150702
N135	N	0.853420	-0.950352	-0.201200
N136	N	1.353420	-0.450352	0.298800
H137	H	0.853695	-1.027750	-0.201457
H138	H	1.353695	-0.527750	0.298543
H139	H	0.865532	-0.931360	-0.154421
H140	H	1.365532	-0.431360	0.345579
N141	N	0.858390	-0.364288	-1.047836
N142	N	1.358390	0.135712	-0.547836
H143	H	0.808691	-0.380523	-1.034181
H144	H	1.308691	0.119477	-0.534181
H145	H	0.875112	-0.289643	-1.041677
H146	H	1.375112	0.210357	-0.541677
N147	N	0.858303	-0.364446	-0.545136
N148	N	1.358303	0.135554	-0.045136
H149	H	0.834381	-0.322087	-0.581744
H150	H	1.334381	0.177913	-0.081744
H151	H	0.823465	-0.406993	-0.512292
H152	H	1.323465	0.093007	-0.012292
H153	H	0.540899	-0.624946	-0.353076
H154	H	1.040899	-0.124946	0.146924
H155	H	0.205070	-0.382105	-0.216307
H156	H	0.705070	0.117895	0.283693
H157	H	0.333305	-0.382096	-0.216294
H158	H	0.833305	0.117904	0.283706
H159	H	1.005347	-0.624693	-0.533037
H160	H	1.505347	-0.124693	-0.033037
N161	N	1.015430	-0.642192	-1.024947
N162	N	1.515430	-0.142192	-0.524947
H163	H	1.039350	-0.684562	-0.988343
H164	H	1.539350	-0.184562	-0.488343
H165	H	0.983894	-0.690540	-1.050287
H166	H	1.483894	-0.190540	-0.550287
H167	H	0.185125	-0.624976	-0.353102
H168	H	0.685125	-0.124976	0.146898
N169	N	1.015395	-0.642253	-0.878011
N170	N	1.515395	-0.142253	-0.378011
H171	H	1.039334	-0.684586	-0.907640
H172	H	1.539334	-0.184586	-0.407640
H173	H	1.050219	-0.599722	-0.852192
H174	H	1.550219	-0.099722	-0.352192
N175	N	0.321266	-0.642655	-0.363050
N176	N	0.821266	-0.142655	0.136950
H177	H	0.284669	-0.685058	-0.386936
H178	H	0.784669	-0.185058	0.113064
H179	H	0.354106	-0.600169	-0.397916
H180	H	0.854106	-0.100169	0.102084
N181	N	0.993211	-0.883839	-0.341240
N182	N	1.493211	-0.383839	0.158760
H183	H	0.992935	-0.806441	-0.340984
H184	H	1.492935	-0.306441	0.159016
H185	H	1.040018	-0.902808	-0.329206
H186	H	1.540018	-0.402808	0.170794
N187	N	0.858321	-0.364414	-0.692066
N188	N	1.358321	0.135586	-0.192066
H189	H	0.834388	-0.322074	-0.662438
H190	H	1.334388	0.177926	-0.162438
H191	H	0.889866	-0.316040	-0.725390
H192	H	1.389866	0.183960	-0.225390
N193	N	0.858379	-0.364326	-0.900905
N194	N	1.358379	0.135674	-0.400905
H195	H	0.834457	-0.321963	-0.937511
H196	H	1.334457	0.178037	-0.437511
H197	H	0.823542	-0.406871	-0.868061
H198	H	1.323542	0.093129	-0.368061
