data_functionalizedCrystal
_audit_creation_method	'MofGen! by Chris Wilmer'
_symmetry_space_group_name_H-M	'P1'
_symmetry_Int_Tables_number	1
_symmetry_cell_setting	triclinic
loop_
_symmetry_equiv_pos_as_xyz
  x,y,z
_cell_length_a	14.971486
_cell_length_b	15.995350
_cell_length_c	13.448316
_cell_angle_alpha	90.004373
_cell_angle_beta	90.001801
_cell_angle_gamma	83.553252
loop_
_atom_site_label
_atom_site_type_symbol
_atom_site_fract_x
_atom_site_fract_y
_atom_site_fract_z
O1	O	1.186823	0.109116	0.082572
O2	O	0.926408	0.122183	0.082599
O3	O	1.063734	-0.006231	0.082584
O4	O	1.049497	0.237530	0.082587
O5	O	1.063717	-0.006239	-0.082800
O6	O	0.926390	0.122175	-0.082785
O7	O	1.186805	0.109109	-0.082811
Cu8	Cu	1.056596	0.115641	-0.097899
Cu9	Cu	1.056617	0.115651	0.097687
O10	O	1.049479	0.237523	-0.082796
C11	C	0.893075	0.121595	-0.000090
C12	C	0.793780	0.119844	-0.000079
C13	C	1.063137	-0.037430	-0.000106
C14	C	1.061372	-0.130382	-0.000100
C15	C	0.736468	0.195284	-0.000080
C16	C	0.643171	0.193633	-0.000095
C17	C	0.607187	0.116542	-0.000102
C18	C	0.664505	0.041097	-0.000104
C19	C	0.757801	0.042748	-0.000097
C20	C	0.470047	0.037660	-0.000118
C21	C	0.376745	0.036008	-0.000124
C22	C	0.355417	0.188545	-0.000116
C23	C	0.448712	0.190197	-0.000108
C24	C	0.506025	0.114751	-0.000109
C25	C	1.055035	-0.468136	-0.000103
C26	C	0.957234	-0.420800	0.000278
C27	C	0.958999	-0.324108	-0.000095
C28	C	1.058178	-0.300572	-0.000101
C29	C	1.106407	-0.341606	-0.094546
C30	C	1.103951	-0.438244	-0.094625
C31	C	1.105990	-0.438591	0.093447
C32	C	1.105967	-0.341646	0.094695
C33	C	1.059960	-0.205873	-0.000103
C34	C	1.053256	-0.562835	-0.000107
C35	C	1.220138	0.109697	-0.000121
C36	C	1.319433	0.111448	-0.000124
C37	C	1.050077	0.268722	-0.000104
C38	C	1.051841	0.361674	-0.000104
N39	N	1.056589	0.115634	-0.235463
C40	C	1.117415	0.058796	-0.287510
C41	C	1.117421	0.058795	-0.391613
C42	C	1.056603	0.115637	-0.443668
C43	C	0.995770	0.172478	-0.391614
C44	C	0.995761	0.172474	-0.287512
C45	C	0.995795	0.172484	-0.608594
C46	C	0.995805	0.172489	-0.712702
C47	C	1.117455	0.058805	-0.712695
C48	C	1.117446	0.058801	-0.608594
C49	C	1.056613	0.115643	-0.556546
N50	N	1.056632	0.115651	0.235251
H51	H	0.765759	0.258060	-0.000073
N52	N	0.819615	-0.038622	-0.000102
H53	H	0.808043	-0.072252	0.061203
H54	H	0.884152	-0.025812	-0.000138
H55	H	0.596511	0.255064	-0.000094
N56	N	0.487528	0.273342	-0.000081
H57	H	0.437066	0.320886	-0.000081
H58	H	0.525779	0.277351	-0.061384
N59	N	1.183076	-0.002490	-0.768835
H60	H	1.246546	0.007273	-0.750706
H61	H	1.173770	0.006177	-0.842661
N62	N	0.337918	-0.047132	-0.000140
H63	H	0.358811	-0.080195	0.061162
H64	H	0.358821	-0.080119	-0.061494
N65	N	0.293608	0.269921	-0.000112
H66	H	0.229045	0.257180	-0.000122
H67	H	0.305262	0.303516	-0.061415
H68	H	0.635200	-0.021672	-0.000125
H69	H	0.921087	-0.295720	0.067608
H70	H	1.178099	-0.470280	0.094077
N71	N	0.531865	-0.043712	-0.000126
H72	H	0.494914	-0.092800	-0.000128
H73	H	0.571036	-0.046345	0.061187
N74	N	0.905453	-0.445392	0.089987
H75	H	0.944885	-0.487458	0.131253
H76	H	0.850463	-0.471386	0.067371
N77	N	0.905667	-0.446801	-0.088924
H78	H	0.945384	-0.489111	-0.129580
H79	H	0.886160	-0.395713	-0.131019
N80	N	0.908435	-0.287241	-0.089919
H81	H	0.844155	-0.300656	-0.087011
H82	H	0.937972	-0.312180	-0.152353
H83	H	1.070706	-0.314429	0.164563
H84	H	1.068767	-0.456584	-0.165220
N85	N	1.199057	-0.480874	-0.100314
H86	H	1.242390	-0.436864	-0.102764
H87	H	1.206208	-0.516754	-0.162216
H88	H	1.179272	-0.327407	-0.098063
H89	H	1.072896	-0.313261	-0.164825
N90	N	1.183035	-0.002493	-0.447762
H91	H	1.222622	0.029586	-0.490941
H92	H	1.148804	-0.039605	-0.490911
N93	N	1.183041	-0.002502	-0.552441
H94	H	1.246522	0.007240	-0.570544
H95	H	1.172670	-0.061919	-0.570585
N96	N	1.063653	-0.465835	0.188272
H97	H	1.011008	-0.497611	0.171545
H98	H	1.042112	-0.414600	0.229255
H99	H	1.178294	-0.326211	0.100393
N100	N	1.183018	-0.002508	-0.231369
H101	H	1.221550	-0.038516	-0.280142
H102	H	1.148776	-0.039580	-0.188187
N103	N	0.930219	0.233804	-0.768851
H104	H	0.891679	0.269811	-0.720085
H105	H	0.890688	0.201691	-0.812062
H106	H	0.946255	0.218769	-0.566220
N107	N	0.930171	0.233781	-0.447760
H108	H	0.964351	0.270911	-0.490939
H109	H	0.891648	0.269731	-0.398930
N110	N	0.930151	0.233774	-0.231371
H111	H	0.891624	0.269785	-0.280141
H112	H	0.964381	0.270843	-0.188164
