data_functionalizedCrystal
_audit_creation_method	'MofGen! by Chris Wilmer'
_symmetry_space_group_name_H-M	'P1'
_symmetry_Int_Tables_number	1
_symmetry_cell_setting	triclinic
loop_
_symmetry_equiv_pos_as_xyz
  x,y,z
_cell_length_a	15.944493
_cell_length_b	15.944551
_cell_length_c	18.366186
_cell_angle_alpha	89.992809
_cell_angle_beta	89.991519
_cell_angle_gamma	83.486891
loop_
_atom_site_label
_atom_site_type_symbol
_atom_site_fract_x
_atom_site_fract_y
_atom_site_fract_z
O1	O	1.114560	0.108101	-0.060542
O2	O	0.870004	0.121508	-0.060545
O3	O	0.998960	-0.007471	-0.060537
O4	O	0.985603	0.237081	-0.060550
O5	O	0.998938	-0.007478	0.060563
O6	O	0.869982	0.121502	0.060554
O7	O	1.114538	0.108095	0.060558
Zn8	Zn	0.992256	0.114797	0.079783
Zn9	Zn	0.992285	0.114806	-0.079771
O10	O	0.985582	0.237075	0.060549
C11	C	0.838698	0.120957	0.000004
C12	C	0.745449	0.119314	0.000003
C13	C	0.998395	-0.038768	0.000013
C14	C	0.996732	-0.132014	0.000013
C15	C	0.509689	0.195235	-0.000002
C16	C	0.459120	0.154291	0.059712
C17	C	0.574728	0.116270	0.000004
C18	C	0.459146	0.154278	-0.059683
C19	C	0.409819	0.113336	0.000003
C20	C	0.525387	0.075348	0.059767
C21	C	0.525417	0.075347	-0.059681
C22	C	0.474880	0.034345	0.000047
C23	C	0.669728	0.117963	0.000006
C24	C	0.314821	0.111637	0.000006
C25	C	0.912826	-0.346853	0.000002
C26	C	0.951778	-0.407882	0.059712
C27	C	0.993725	-0.302739	0.000008
C28	C	0.951819	-0.407859	-0.059682
C29	C	0.990814	-0.467651	-0.000001
C30	C	1.032700	-0.362540	0.059767
C31	C	1.032729	-0.362510	-0.059681
C32	C	1.071741	-0.423521	0.000043
C33	C	0.995399	-0.207737	0.000013
C34	C	0.989146	-0.562652	-0.000001
C35	C	1.145844	0.108646	0.000007
C36	C	1.239092	0.110289	0.000003
C37	C	0.986147	0.268372	-0.000002
C38	C	0.987809	0.361617	-0.000007
N39	N	0.992243	0.114791	0.188674
N40	N	0.992305	0.114805	-0.188662
C41	C	1.049363	0.057707	0.226778
C42	C	1.049369	0.057703	0.303006
C43	C	0.992261	0.114798	0.341127
C44	C	0.935130	0.171887	0.303014
C45	C	0.935121	0.171883	0.226787
C46	C	0.981261	0.191299	0.461883
C47	C	0.981276	0.191304	0.538108
C48	C	0.992285	0.114809	0.576234
C49	C	1.003298	0.038306	0.538127
C50	C	1.003288	0.038303	0.461900
C51	C	0.992265	0.114808	0.423782
C52	C	1.049415	0.057716	0.696994
C53	C	1.049414	0.057711	0.773223
C54	C	0.935180	0.171902	0.773229
C55	C	0.935176	0.171899	0.697001
C56	C	0.992298	0.114807	0.658888
H57	H	0.430174	0.187636	0.110191
H58	H	1.012252	-0.023988	0.430876
H59	H	1.066879	-0.342559	0.110302
O60	O	0.559892	0.035650	0.120035
C61	C	0.687042	-0.007361	0.187624
C62	C	0.648073	0.037632	0.119351
H63	H	0.758344	-0.005790	0.187086
H64	H	0.659179	0.026056	0.238472
H65	H	0.672452	-0.075720	0.187834
H66	H	0.662650	0.105991	0.119070
H67	H	0.675938	0.004148	0.068534
H68	H	0.917600	-0.427926	-0.110166
H69	H	0.459415	-0.033726	0.000086
O70	O	0.559924	0.035725	-0.119977
C71	C	0.565132	0.032550	-0.251083
C72	C	0.525998	0.077502	-0.182852
H73	H	0.537706	0.066297	-0.301934
H74	H	0.636486	0.033701	-0.250262
H75	H	0.550132	-0.035675	-0.251560
H76	H	0.540934	0.145744	-0.182330
H77	H	0.454654	0.076282	-0.183699
H78	H	1.138950	-0.456694	0.000078
O79	O	0.528385	0.276362	-0.000069
C80	C	0.596347	0.382784	-0.063019
C81	C	0.575213	0.290900	-0.063047
H82	H	0.634226	0.394562	-0.113924
H83	H	0.535364	0.427661	-0.062506
H84	H	0.635148	0.394137	-0.012570
H85	H	0.536435	0.279466	-0.113488
H86	H	0.636228	0.246071	-0.063523
H87	H	1.095873	0.011218	0.195749
O88	O	0.424502	0.194082	-0.119851
C89	C	0.297319	0.236361	-0.187626
C90	C	0.336436	0.191268	-0.119453
H91	H	0.226115	0.234086	-0.187335
H92	H	0.311239	0.304933	-0.187548
H93	H	0.325664	0.203394	-0.238499
H94	H	0.308114	0.224165	-0.068544
H95	H	0.322524	0.122695	-0.119596
O96	O	1.104936	0.002214	0.339918
C97	C	1.218202	-0.111082	0.331874
C98	C	1.155336	-0.048271	0.289984
H99	H	1.258955	-0.151928	0.291520
H100	H	1.260223	-0.074841	0.367529
H101	H	1.181921	-0.153019	0.367593
H102	H	1.191548	-0.006319	0.254225
H103	H	1.113315	-0.084565	0.254375
O104	O	0.879588	0.227281	0.810217
C105	C	0.733540	0.276472	0.833526
C106	C	0.796409	0.213696	0.791602
H107	H	0.666277	0.265522	0.818480
H108	H	0.743282	0.266671	0.894562
H109	H	0.744528	0.343747	0.818535
H110	H	0.785460	0.146396	0.806532
H111	H	0.786653	0.223571	0.730576
H112	H	0.845675	-0.313532	0.000061
H113	H	1.066926	-0.342385	-0.110163
H114	H	0.917552	-0.427986	0.110191
O115	O	1.013843	-0.035994	0.575180
C116	C	0.954676	-0.127008	0.661288
C117	C	0.942612	-0.042849	0.619358
H118	H	0.897104	-0.132570	0.697027
H119	H	0.962496	-0.181713	0.620986
H120	H	1.013400	-0.129021	0.696932
H121	H	0.883886	-0.040754	0.583712
H122	H	0.934842	0.011817	0.659699
O123	O	1.104925	0.002172	0.660078
C124	C	1.218260	-0.111056	0.668116
C125	C	1.155428	-0.048212	0.710010
H126	H	1.259119	-0.151796	0.708467
H127	H	1.182035	-0.153091	0.632460
H128	H	1.260180	-0.074757	0.632396
H129	H	1.113491	-0.084442	0.745768
H130	H	1.191705	-0.006177	0.745619
O131	O	0.879778	0.227476	0.660017
C132	C	0.830528	0.373512	0.636722
C133	C	0.893331	0.310662	0.678637
H134	H	0.841451	0.440781	0.651772
H135	H	0.840327	0.363779	0.575684
H136	H	0.763262	0.362495	0.651718
H137	H	0.960622	0.321641	0.663702
H138	H	0.883458	0.320410	0.739664
H139	H	1.095926	0.011222	0.804248
H140	H	0.972314	0.253596	0.569129
O141	O	0.970602	0.265689	0.424964
C142	C	0.948742	0.417441	0.432990
C143	C	0.960818	0.333261	0.474890
H144	H	0.940811	0.472095	0.473338
H145	H	1.006344	0.423113	0.397314
H146	H	0.890065	0.419428	0.397291
H147	H	1.019464	0.331217	0.510629
H148	H	0.903172	0.327624	0.510520
O149	O	0.879622	0.227234	0.340122
C150	C	0.764891	0.245065	0.426177
C151	C	0.827725	0.182294	0.384211
H152	H	0.722904	0.208755	0.461821
H153	H	0.801114	0.287034	0.461897
H154	H	0.724099	0.285883	0.385832
H155	H	0.868533	0.141419	0.424503
H156	H	0.791450	0.140382	0.348480
H157	H	0.888605	0.218369	0.195762
