data_functionalizedCrystal
_audit_creation_method	'MofGen! by Chris Wilmer'
_symmetry_space_group_name_H-M	'P1'
_symmetry_Int_Tables_number	1
_symmetry_cell_setting	triclinic
loop_
_symmetry_equiv_pos_as_xyz
  x,y,z
_cell_length_a	15.944551
_cell_length_b	10.654554
_cell_length_c	9.730223
_cell_angle_alpha	90.001137
_cell_angle_beta	89.997716
_cell_angle_gamma	83.992741
loop_
_atom_site_label
_atom_site_type_symbol
_atom_site_fract_x
_atom_site_fract_y
_atom_site_fract_z
O1	O	0.117991	1.666304	-0.114251
O2	O	0.129227	1.300681	-0.114263
O3	O	0.001392	1.493477	-0.114244
O4	O	0.245826	1.473508	-0.114269
O5	O	0.001395	1.493475	0.114336
O6	O	0.129230	1.300679	0.114317
O7	O	0.117994	1.666302	0.114329
Zn8	Zn	0.123613	1.483490	0.150615
Zn9	Zn	0.123608	1.483493	-0.150549
O10	O	0.245829	1.473506	0.114310
C11	C	0.128403	1.253893	0.000026
C12	C	0.125932	1.114482	0.000021
C13	C	0.198881	0.903029	0.000026
C14	C	0.201203	1.034021	0.000015
C15	C	0.048334	1.063945	0.000024
C16	C	0.046013	0.932956	0.000025
C17	C	0.274156	0.822574	0.000034
C18	C	0.351754	0.873101	0.000029
C19	C	0.354076	1.004092	0.000018
C20	C	0.278800	1.084557	0.000012
C21	C	-0.029905	1.492647	0.000046
C22	C	-0.123166	1.490161	0.000047
C23	C	-0.338750	1.364717	0.000024
C24	C	-0.399428	1.422968	0.112729
C25	C	-0.293918	1.485665	0.000036
C26	C	-0.399414	1.422999	-0.112633
C27	C	-0.458856	1.481313	0.000020
C28	C	-0.353367	1.543950	0.112835
C29	C	-0.353347	1.543963	-0.112628
C30	C	-0.414007	1.602302	0.000105
C31	C	-0.198901	1.488169	0.000047
C32	C	-0.553871	1.478819	0.000019
C33	C	0.277126	1.474336	0.000017
C34	C	0.370387	1.476821	0.000008
C35	C	0.118818	1.713090	0.000038
C36	C	0.121289	1.852501	0.000033
N37	N	0.123615	1.483497	0.356152
N38	N	0.123599	1.483496	-0.356085
C39	C	0.067029	1.568889	0.428086
C40	C	0.067019	1.568886	0.571969
C41	C	0.180188	1.398095	0.571970
C42	C	0.180193	1.398093	0.428090
C43	C	0.010451	1.654293	0.356147
C44	C	-0.046139	1.739692	0.428082
C45	C	-0.046150	1.739689	0.571965
C46	C	0.010430	1.654286	0.643913
H47	H	-0.017169	0.891816	0.000029
H48	H	-0.333079	1.595062	0.208223
H49	H	-0.419789	1.371828	-0.207923
Cl50	Cl	-0.464306	1.757434	0.000203
H51	H	0.010455	1.654306	0.238991
H52	H	-0.012952	1.129469	0.000021
Cl53	Cl	-0.321808	1.622880	-0.259742
H54	H	0.413041	0.807579	0.000023
Cl55	Cl	-0.288224	1.209721	0.000183
Cl56	Cl	-0.117296	1.847036	0.662396
H57	H	0.226270	1.328558	0.369520
Cl58	Cl	-0.430931	1.343989	0.259836
Cl59	Cl	0.271242	0.657899	0.000054
Cl60	Cl	0.451626	1.067609	-0.000007
H61	H	-0.092210	1.809218	0.369494
H62	H	0.010411	1.654283	0.761073
H63	H	0.226254	1.328564	0.630560
H64	H	0.280697	1.191218	-0.000025
