data_functionalizedCrystal
_audit_creation_method	'MofGen! by Chris Wilmer'
_symmetry_space_group_name_H-M	'P1'
_symmetry_Int_Tables_number	1
_symmetry_cell_setting	triclinic
loop_
_symmetry_equiv_pos_as_xyz
  x,y,z
_cell_length_a	6.394989
_cell_length_b	16.992694
_cell_length_c	15.455313
_cell_angle_alpha	92.857794
_cell_angle_beta	87.254133
_cell_angle_gamma	88.582967
loop_
_atom_site_label
_atom_site_type_symbol
_atom_site_fract_x
_atom_site_fract_y
_atom_site_fract_z
O1	O	-0.435072	-1.048122	-0.072012
O2	O	-0.430202	-0.819790	-0.072038
O3	O	-0.129113	-0.937197	-0.072026
O4	O	-0.736160	-0.930715	-0.072025
O5	O	-0.146255	-0.930482	0.072236
O6	O	-0.447343	-0.813075	0.072223
O7	O	-0.452214	-1.041407	0.072249
Cu8	Cu	-0.451344	-0.926628	0.085408
Cu9	Cu	-0.431071	-0.934569	-0.085198
O10	O	-0.753302	-0.924000	0.072236
C11	C	-0.432511	-0.787158	0.000089
C12	C	-0.413829	-0.699930	0.000079
C13	C	-0.449904	-1.074039	0.000120
C14	C	-0.468586	-1.161267	0.000124
N15	N	-0.465602	-0.921049	0.205403
C16	C	-0.059649	-0.932558	0.000102
C17	C	0.177240	-0.928641	0.000100
N18	N	-0.416798	-0.940154	-0.205192
C19	C	-0.594077	-0.651470	0.000080
C20	C	-0.576513	-0.569510	0.000092
C21	C	-0.378698	-0.536010	0.000097
C22	C	-0.198437	-0.584476	0.000099
C23	C	-0.216003	-0.666434	0.000093
C24	C	-0.305891	-0.291692	0.000120
C25	C	-0.288338	-0.209727	0.000123
C26	C	-0.666416	-0.194766	0.000118
C27	C	-0.683964	-0.276728	0.000107
C28	C	-0.503704	-0.325186	0.000113
N29	N	-0.360740	-0.452233	0.000106
N30	N	-0.521664	-0.408961	0.000110
C31	C	-0.337742	-0.970946	0.250803
C32	C	-0.348545	-0.966733	0.341610
C33	C	-0.487220	-0.912628	0.387016
C34	C	-0.615085	-0.862725	0.341611
C35	C	-0.604270	-0.866934	0.250805
C36	C	-0.533847	-0.894461	0.658596
C37	C	-0.544658	-0.890257	0.749408
C38	C	-0.278114	-0.994265	0.749401
C39	C	-0.267319	-0.998472	0.658594
C40	C	-0.395176	-0.948567	0.613196
N41	N	-0.498271	-0.908323	0.479836
N42	N	-0.384114	-0.952869	0.520378
H43	H	-0.755159	-0.678739	0.000075
N44	N	-0.764642	-0.804366	0.390587
H45	H	-0.866825	-0.833545	0.428252
H46	H	-0.843852	-0.773406	0.347993
N47	N	-0.021586	-0.718700	0.000097
H48	H	0.070477	-0.710192	-0.053379
H49	H	-0.062897	-0.775681	0.000129
H50	H	-0.813173	-0.155303	0.000115
H51	H	-0.244431	-1.007363	0.378574
N52	N	-0.742163	-0.813113	0.201834
H53	H	-0.831656	-0.778199	0.244376
H54	H	-0.835238	-0.845835	0.164146
N55	N	0.014913	-0.548340	0.000114
H56	H	0.036990	-0.517150	-0.053361
H57	H	0.126309	-0.591516	0.000149
H58	H	-0.154399	-1.042529	0.621626
H59	H	-0.845045	-0.303997	0.000093
N60	N	-0.770994	-0.517278	0.000109
H61	H	-0.765864	-0.485409	-0.053357
H62	H	-0.778420	-0.480518	0.053634
N63	N	-0.694213	-0.831895	0.798393
H64	H	-0.796393	-0.861077	0.836057
H65	H	-0.773428	-0.800928	0.755807
H66	H	-0.637958	-0.853827	0.621640
H67	H	-0.174016	-1.034894	0.786373
N68	N	-0.074970	-0.173593	0.000123
H69	H	0.036561	-0.216726	0.000127
H70	H	-0.065813	-0.137427	0.053602
N71	N	-0.111459	-0.343942	0.000127
H72	H	-0.019404	-0.335429	-0.053349
H73	H	-0.152744	-0.400926	0.000161
N74	N	-0.188183	-1.029308	0.201832
H75	H	-0.108823	-1.060276	0.244375
H76	H	-0.086135	-1.000076	0.164164
