data_functionalizedCrystal
_audit_creation_method	'MofGen! by Chris Wilmer'
_symmetry_space_group_name_H-M	'P1'
_symmetry_Int_Tables_number	1
_symmetry_cell_setting	triclinic
loop_
_symmetry_equiv_pos_as_xyz
  x,y,z
_cell_length_a	18.215407
_cell_length_b	18.215404
_cell_length_c	18.215399
_cell_angle_alpha	89.972485
_cell_angle_beta	89.980167
_cell_angle_gamma	90.024271
loop_
_atom_site_label
_atom_site_type_symbol
_atom_site_fract_x
_atom_site_fract_y
_atom_site_fract_z
Zn1	Zn	-1.125077	0.292983	0.416118
Zn2	Zn	-0.625077	0.792983	0.916118
Zn3	Zn	-1.124988	0.416054	0.293053
Zn4	Zn	-0.624988	0.916054	0.793053
Zn5	Zn	-1.002010	0.293007	0.293065
Zn6	Zn	-0.502010	0.793007	0.793065
Zn7	Zn	-1.001978	0.416013	0.416078
Zn8	Zn	-0.501978	0.916013	0.916078
O9	O	-1.063513	0.354514	0.354578
O10	O	-0.563513	0.854514	0.854578
O11	O	-1.228050	0.309316	0.399805
O12	O	-0.728050	0.809316	0.899805
O13	O	-1.108651	0.399759	0.190070
O14	O	-0.608651	0.899759	0.690070
O15	O	-1.018386	0.190020	0.309411
O16	O	-0.518386	0.690020	0.809411
O17	O	-1.227984	0.399736	0.309389
O18	O	-0.727984	0.899736	0.809389
O19	O	-1.108803	0.190002	0.399817
O20	O	-0.608803	0.690002	0.899817
O21	O	-1.018299	0.309357	0.190079
O22	O	-0.518299	0.809357	0.690079
O23	O	-0.899021	0.309317	0.309372
O24	O	-0.399021	0.809317	0.809372
O25	O	-1.018332	0.399666	0.519067
O26	O	-0.518332	0.899666	1.019067
O27	O	-0.898998	0.399689	0.399748
O28	O	-0.398998	0.899689	0.899748
O29	O	-1.108772	0.309276	0.519097
O30	O	-0.608772	0.809276	1.019097
O31	O	-1.108620	0.519033	0.309350
O32	O	-0.608620	1.019033	0.809350
O33	O	-1.018245	0.519003	0.399736
O34	O	-0.518245	1.019003	0.899736
C35	C	-0.872307	0.354502	0.354557
C36	C	-0.372307	0.854502	0.854557
C37	C	-0.790508	0.354514	0.354566
C38	C	-0.290508	0.854514	0.854566
C39	C	-1.063439	0.545721	0.354553
C40	C	-0.563439	1.045721	0.854553
C41	C	-1.063475	0.627520	0.354567
C42	C	-0.563475	1.127520	0.854567
C43	C	-1.063558	0.354464	0.546531
C44	C	-0.563558	0.854464	1.046531
C45	C	-1.063577	0.354442	0.628330
C46	C	-0.563577	0.854442	1.128330
C47	C	-1.255466	0.354528	0.354600
C48	C	-0.755466	0.854528	0.854600
C49	C	-1.337265	0.354533	0.354609
C50	C	-0.837265	0.854533	0.854609
C51	C	-0.602321	0.401645	0.401566
C52	C	-0.102321	0.901645	0.901566
C53	C	-0.525463	0.401647	0.401575
C54	C	-0.025463	0.901647	0.901575
C55	C	-0.525457	0.307397	0.307607
C56	C	-0.025457	0.807397	0.807607
C57	C	-0.602315	0.307392	0.307602
C58	C	-0.102315	0.807392	0.807602
C59	C	-0.640745	0.354520	0.354581
C60	C	-0.140745	0.854520	0.854581
C61	C	-0.487029	0.354528	0.354595
C62	C	0.012971	0.854528	0.854595
C63	C	-0.403695	0.354530	0.354604
C64	C	0.096305	0.854530	0.854604
C65	C	-0.724084	0.354517	0.354572
C66	C	-0.224084	0.854517	0.854572
C67	C	-1.110647	0.815705	0.307600
C68	C	-0.610647	1.315705	0.807600
C69	C	-1.110681	0.892563	0.307622
C70	C	-0.610681	1.392563	0.807622
C71	C	-1.016492	0.892572	0.401663
C72	C	-0.516492	1.392572	0.901663
C73	C	-1.016462	0.815715	0.401644
C74	C	-0.516462	1.315715	0.901644
C75	C	-1.063539	0.777283	0.354609
C76	C	-0.563539	1.277283	0.854609
C77	C	-1.063603	0.930999	0.354649
C78	C	-0.563603	1.430999	0.854649
C79	C	-1.063640	1.014333	0.354673
C80	C	-0.563640	1.514333	0.854673
C81	C	-1.063503	0.693944	0.354585
C82	C	-0.563503	1.193944	0.854585
C83	C	-1.063613	1.162561	0.354633
C84	C	-0.563613	1.662561	0.854633
C85	C	-1.063667	1.080763	0.354691
C86	C	-0.563667	1.580763	0.854691
C87	C	-1.063511	0.354512	0.163372
C88	C	-0.563511	0.854512	0.663372
C89	C	-1.063635	0.354326	0.081574
C90	C	-0.563635	0.854326	0.581574
C91	C	-1.110687	0.307332	0.816541
C92	C	-0.610687	0.807332	1.316541
C93	C	-1.110695	0.307311	0.893400
C94	C	-0.610695	0.807311	1.393400
C95	C	-1.016520	0.401438	0.893358
C96	C	-0.516520	0.901438	1.393358
C97	C	-1.016508	0.401455	0.816500
C98	C	-0.516508	0.901455	1.316500
C99	C	-1.063596	0.354403	0.778094
C100	C	-0.563596	0.854403	1.278094
C101	C	-1.063616	0.354365	0.931810
C102	C	-0.563616	0.854365	1.431810
C103	C	-1.063625	0.354342	1.015144
C104	C	-0.563625	0.854342	1.515144
C105	C	-1.063586	0.354425	0.694755
C106	C	-0.563586	0.854425	1.194755
H107	H	-0.494182	0.440020	0.439836
H108	H	0.005818	0.940020	0.939836
H109	H	-0.978101	0.784430	0.439928
H110	H	-0.478101	1.284430	0.939928
O111	O	-0.488011	0.261690	0.261997
O112	O	0.011989	0.761690	0.761997
C113	C	-0.369606	0.219891	0.220395
C114	C	0.130394	0.719891	0.720395
C115	C	-0.411920	0.271705	0.272073
C116	C	0.088080	0.771705	0.772073
H117	H	-0.308079	0.227960	0.228534
H118	H	0.191921	0.727960	0.728534
H119	H	-0.384633	0.232737	0.161013
H120	H	0.115367	0.732737	0.661013
H121	H	-0.384790	0.160574	0.233416
H122	H	0.115210	0.660574	0.733416
H123	H	-0.396759	0.331040	0.259119
H124	H	0.103241	0.831040	0.759119
H125	H	-0.396890	0.258797	0.331440
H126	H	0.103110	0.758797	0.831440
O127	O	-0.639734	0.447315	0.447240
O128	O	-0.139734	0.947315	0.947240
C129	C	-0.726509	0.457327	0.546609
C130	C	-0.226509	0.957327	1.046609
C131	C	-0.684201	0.405524	0.494914
C132	C	-0.184201	0.905524	0.994914
H133	H	-0.762459	0.423559	0.585177
H134	H	-0.262459	0.923559	1.085177
H135	H	-0.762514	0.495754	0.512796
H136	H	-0.262514	0.995754	1.012796
H137	H	-0.685827	0.491023	0.580159
H138	H	-0.185827	0.991023	1.080159
H139	H	-0.724830	0.371780	0.461353
H140	H	-0.224830	0.871780	0.961353
H141	H	-0.648185	0.367146	0.528769
H142	H	-0.148185	0.867146	1.028769
O143	O	-0.639530	0.261589	0.261888
O144	O	-0.139530	0.761589	0.761888
C145	C	-0.631421	0.168075	0.168716
C146	C	-0.131421	0.668075	0.668716
C147	C	-0.589183	0.219920	0.220432
C148	C	-0.089183	0.719920	0.720432
H149	H	-0.590734	0.134361	0.135197
H150	H	-0.090734	0.634361	0.635197
H151	H	-0.667357	0.201777	0.130127
H152	H	-0.167357	0.701777	0.630127
H153	H	-0.667450	0.129667	0.202583
H154	H	-0.167450	0.629667	0.702583
H155	H	-0.553114	0.258338	0.186625
H156	H	-0.053114	0.758338	0.686625
H157	H	-0.553294	0.186172	0.259023
H158	H	-0.053294	0.686172	0.759023
O159	O	-0.970864	0.447221	0.779067
O160	O	-0.470864	0.947221	1.279067
C161	C	-0.960910	0.546624	0.692293
C162	C	-0.460910	1.046624	1.192293
C163	C	-1.012682	0.494836	0.734627
C164	C	-0.512682	0.994836	1.234627
H165	H	-0.994699	0.585144	0.656365
H166	H	-0.494699	1.085144	1.156365
H167	H	-0.922452	0.512881	0.656262
H168	H	-0.422452	1.012881	1.156262
H169	H	-0.927245	0.580220	0.732957
H170	H	-0.427245	1.080220	1.232957
H171	H	-1.046395	0.461228	0.694016
H172	H	-0.546395	0.961228	1.194016
H173	H	-1.051091	0.528621	0.770669
H174	H	-0.551091	1.028621	1.270669
H175	H	-1.149026	0.269017	0.785273
H176	H	-0.649026	0.769017	1.285273
O177	O	-1.156560	0.929896	0.262083
O178	O	-0.656560	1.429896	0.762083
C179	C	-1.256004	1.016553	0.252371
C180	C	-0.756004	1.516553	0.752371
C181	C	-1.204075	0.974322	0.304014
C182	C	-0.704075	1.474322	0.804014
H183	H	-1.294423	1.052493	0.286250
H184	H	-0.794423	1.552493	0.786250
H185	H	-1.289695	0.975887	0.218795
H186	H	-0.789695	1.475887	0.718795
H187	H	-1.222296	1.052583	0.213824
H188	H	-0.722296	1.552583	0.713824
H189	H	-1.237725	0.938291	0.342605
H190	H	-0.737725	1.438291	0.842605
H191	H	-1.170381	1.015028	0.337537
H192	H	-0.670381	1.515028	0.837537
H193	H	-0.978164	0.923873	0.439957
H194	H	-0.478164	1.423873	0.939957
O195	O	-1.156406	0.261484	0.930664
O196	O	-0.656406	0.761484	1.430664
C197	C	-1.192164	0.136293	0.954241
C198	C	-0.692164	0.636293	1.454241
C199	C	-1.140361	0.188113	0.911983
C200	C	-0.640361	0.688113	1.411983
H201	H	-1.179200	0.076961	0.939165
H202	H	-0.679200	0.576961	1.439165
H203	H	-1.251508	0.149164	0.939124
H204	H	-0.751508	0.649164	1.439124
H205	H	-1.184099	0.144394	1.015768
H206	H	-0.684099	0.644394	1.515768
H207	H	-1.148361	0.180041	0.850447
H208	H	-0.648361	0.680041	1.350447
H209	H	-1.081036	0.175230	0.927161
H210	H	-0.581036	0.675230	1.427161
H211	H	-1.148980	0.784415	0.269301
H212	H	-0.648980	1.284415	0.769301
H213	H	-0.978185	0.439748	0.924637
H214	H	-0.478185	0.939748	1.424637
