data_functionalizedCrystal
_audit_creation_method	'MofGen! by Chris Wilmer'
_symmetry_space_group_name_H-M	'P1'
_symmetry_Int_Tables_number	1
_symmetry_cell_setting	triclinic
loop_
_symmetry_equiv_pos_as_xyz
  x,y,z
_cell_length_a	17.640280
_cell_length_b	15.297475
_cell_length_c	15.298259
_cell_angle_alpha	91.629109
_cell_angle_beta	71.449796
_cell_angle_gamma	112.532054
loop_
_atom_site_label
_atom_site_type_symbol
_atom_site_fract_x
_atom_site_fract_y
_atom_site_fract_z
Zn1	Zn	-0.423586	-1.364895	-0.648284
Zn2	Zn	-0.593367	-1.434784	-0.470367
Zn3	Zn	-0.431834	-1.245917	-0.474981
Zn4	Zn	-0.545615	-1.250470	-0.600344
O5	O	-0.498600	-1.324017	-0.548494
O6	O	-0.462640	-1.501095	-0.642815
O7	O	-0.595375	-1.437073	-0.344055
O8	O	-0.312068	-1.230546	-0.519965
O9	O	-0.587377	-1.552441	-0.512100
O10	O	-0.306008	-1.317959	-0.647290
O11	O	-0.476698	-1.298314	-0.347446
O12	O	-0.430395	-1.119593	-0.473479
O13	O	-0.505992	-1.238306	-0.733627
O14	O	-0.513990	-1.122938	-0.565582
O15	O	-0.416337	-1.322373	-0.768848
O16	O	-0.705704	-1.441488	-0.465614
O17	O	-0.670621	-1.306074	-0.561108
C18	C	-0.467907	-1.088354	-0.514830
C19	C	-0.454792	-0.987538	-0.500446
C20	C	-0.718932	-1.381879	-0.507681
C21	C	-0.813197	-1.406710	-0.490263
C22	C	-0.454918	-1.273052	-0.785068
C23	C	-0.436303	-1.251333	-0.885881
C24	C	-1.032059	-1.135685	-0.681198
C25	C	-1.120640	-1.159024	-0.664803
C26	C	-1.157094	-1.300078	-0.565493
C27	C	-1.068514	-1.276752	-0.581883
C28	C	-1.006003	-1.194554	-0.639736
C29	C	-1.042458	-1.335622	-0.540421
C30	C	-0.953886	-1.312295	-0.556807
C31	C	-0.891370	-1.230099	-0.614654
C32	C	-0.917430	-1.171227	-0.656121
C33	C	-1.104971	-1.417816	-0.482564
C34	C	-1.078915	-1.476686	-0.441102
C35	C	-0.990341	-1.453363	-0.457492
C36	C	-0.927825	-1.371167	-0.515340
C37	C	-0.964280	-1.512235	-0.416025
C38	C	-0.875708	-1.488908	-0.432411
C39	C	-0.839253	-1.347840	-0.531725
C40	C	-0.277408	-1.265949	-0.589490
C41	C	-0.183148	-1.241203	-0.606960
C42	C	-0.529415	-1.560599	-0.582290
C43	C	-0.542546	-1.661417	-0.596692
C44	C	-0.592338	-0.710587	-0.651300
C45	C	-0.604666	-0.805311	-0.664811
C46	C	-0.567199	-0.850873	-0.623721
C47	C	-0.517401	-0.801700	-0.569117
C48	C	-0.505076	-0.706969	-0.555599
C49	C	-0.479937	-0.847254	-0.528020
C50	C	-0.430139	-0.798082	-0.473417
C51	C	-0.417817	-0.703359	-0.459902
C52	C	-0.455285	-0.657798	-0.500992
C53	C	-0.492261	-0.941986	-0.541538
C54	C	-0.405000	-0.938367	-0.445838
C55	C	-0.392672	-0.843643	-0.432327
C56	C	-0.630995	-1.479098	-1.162988
C57	C	-0.648489	-1.499500	-1.068267
C58	C	-0.595444	-1.437460	-1.022666
C59	C	-0.524902	-1.355015	-1.071795
C60	C	-0.507410	-1.334607	-1.166524
C61	C	-0.471859	-1.292969	-1.026202
C62	C	-0.401316	-1.210524	-1.075331
C63	C	-0.383827	-1.190120	-1.170050
C64	C	-0.436872	-1.252159	-1.215651
C65	C	-0.489351	-1.313377	-0.931473
C66	C	-0.365766	-1.168886	-0.935009
C67	C	-0.348271	-1.148484	-1.029730
C68	C	-0.542059	-1.374819	-0.312860
C69	C	-0.560458	-1.396650	-0.212116
H70	H	-0.819250	-1.211103	-0.627987
C71	C	-0.726077	-1.590180	-1.014228
H72	H	-0.728904	-1.593444	-0.951282
H73	H	-0.718745	-1.644526	-1.040753
H74	H	-0.778460	-1.588508	-1.017296
C75	C	-0.566938	-1.404061	-0.877439
H76	H	-0.569766	-1.407330	-0.814492
H77	H	-0.559602	-1.458403	-0.903969
H78	H	-0.619321	-1.402389	-0.880507
H79	H	-0.674182	-1.529597	-1.200124
C80	C	-0.770482	-1.257428	-0.595368
H81	H	-0.714001	-1.251974	-0.599190
H82	H	-0.779567	-1.203198	-0.570653
H83	H	-0.775442	-1.261348	-0.655532
H84	H	-0.422630	-1.235554	-1.292782
C85	C	-0.306236	-1.099430	-1.224089
H86	H	-0.277144	-1.065408	-1.183369
H87	H	-0.326701	-1.060463	-1.249385
H88	H	-0.266983	-1.116476	-1.272844
C89	C	-0.963288	-1.045272	-0.744840
H90	H	-0.906807	-1.039818	-0.748662
H91	H	-0.972373	-0.991042	-0.720125
H92	H	-0.968248	-1.049193	-0.805005
C93	C	-0.270682	-1.057795	-1.083772
H94	H	-0.241588	-1.023769	-1.043055
H95	H	-0.291149	-1.018831	-1.109070
H96	H	-0.231429	-1.074843	-1.132527
C97	C	-0.441741	-0.553607	-0.486114
H98	H	-0.471194	-0.533522	-0.518400
H99	H	-0.381340	-0.514399	-0.508960
H100	H	-0.464357	-0.548628	-0.421791
C101	C	-0.307411	-1.100641	-0.884858
H102	H	-0.327926	-1.124607	-0.821411
H103	H	-0.309015	-1.039610	-0.889374
H104	H	-0.249293	-1.095620	-0.912840
C105	C	-0.337900	-0.789553	-0.372263
H106	H	-0.317343	-0.830245	-0.349730
H107	H	-0.372779	-0.769621	-0.321416
H108	H	-0.289773	-0.735425	-0.408598
H109	H	-0.866530	-1.104298	-0.703238
H110	H	-1.208002	-1.367002	-0.518386
C111	C	-1.149302	-1.094264	-0.710411
H112	H	-1.211006	-1.119922	-0.692362
H113	H	-1.125234	-1.090522	-0.775942
H114	H	-1.129361	-1.032393	-0.691047
C115	C	-1.202400	-1.443479	-0.464534
H116	H	-1.235897	-1.500856	-0.424132
H117	H	-1.213646	-1.451779	-0.521605
H118	H	-1.217765	-1.393633	-0.436723
C119	C	-0.363779	-0.988473	-0.400641
H120	H	-0.378243	-1.051927	-0.416521
H121	H	-0.385334	-0.989310	-0.335179
H122	H	-0.302326	-0.955102	-0.422359
H123	H	-1.129823	-1.543609	-0.393995
H124	H	-0.609693	-1.454076	-0.945540
H125	H	-0.532807	-0.982013	-0.585998
H126	H	-0.577239	-0.928002	-0.634725
H127	H	-1.015189	-1.579155	-0.368915
H128	H	-0.854494	-1.536845	-0.398647
H129	H	-0.645214	-0.845342	-0.709266
H130	H	-0.622845	-0.673485	-0.684743
C131	C	-0.363046	-0.649273	-0.399836
H132	H	-0.342489	-0.689969	-0.377306
H133	H	-0.397925	-0.629344	-0.348987
H134	H	-0.314918	-0.595145	-0.436168
