data_functionalizedCrystal
_audit_creation_method	'MofGen! by Chris Wilmer'
_symmetry_space_group_name_H-M	'P1'
_symmetry_Int_Tables_number	1
_symmetry_cell_setting	triclinic
loop_
_symmetry_equiv_pos_as_xyz
  x,y,z
_cell_length_a	14.853569
_cell_length_b	14.519731
_cell_length_c	13.330367
_cell_angle_alpha	89.994378
_cell_angle_beta	89.994419
_cell_angle_gamma	83.662209
loop_
_atom_site_label
_atom_site_type_symbol
_atom_site_fract_x
_atom_site_fract_y
_atom_site_fract_z
O1	O	1.196424	0.120410	-0.083380
O2	O	0.933971	0.134752	-0.083392
O3	O	1.072146	-0.006659	-0.083377
O4	O	1.058249	0.261821	-0.083395
O5	O	1.072126	-0.006662	0.083471
O6	O	0.933951	0.134749	0.083455
O7	O	1.196404	0.120407	0.083467
Cu8	Cu	1.065175	0.127578	0.098696
Cu9	Cu	1.065199	0.127581	-0.098621
O10	O	1.058229	0.261818	0.083452
C11	C	0.900372	0.134100	0.000030
C12	C	0.800287	0.132152	0.000025
C13	C	0.763872	0.047237	0.000028
C14	C	0.742660	0.215237	0.000027
C15	C	0.648625	0.213410	0.000029
C16	C	0.612209	0.128495	0.000031
C17	C	0.669828	0.045407	0.000032
C18	C	0.590999	0.296495	0.000038
C19	C	0.496958	0.294671	0.000040
C20	C	0.460540	0.209755	0.000035
C21	C	0.518166	0.126664	0.000035
C22	C	0.481750	0.041749	0.000038
C23	C	0.539374	-0.041342	0.000031
C24	C	0.633411	-0.039509	0.000027
C25	C	0.366503	0.207922	0.000038
C26	C	0.387706	0.039919	0.000042
C27	C	1.071485	-0.041020	0.000047
C28	C	1.069533	-0.143399	0.000048
C29	C	1.067948	-0.226543	0.000045
C30	C	1.065967	-0.330850	0.000038
C31	C	1.064394	-0.413989	0.000031
C32	C	1.062414	-0.518304	0.000025
C33	C	1.230003	0.121059	0.000043
C34	C	1.330087	0.123007	0.000041
C35	C	1.058890	0.296179	0.000026
C36	C	1.060841	0.398558	0.000019
N37	N	1.065165	0.127574	0.237477
N38	N	1.065216	0.127577	-0.237402
C39	C	1.004013	0.190173	0.710093
C40	C	1.126410	0.064982	0.710075
C41	C	1.126400	0.064979	0.605057
C42	C	1.065196	0.127575	0.552552
C43	C	1.004002	0.190174	0.605065
C44	C	1.187598	0.002388	0.552535
C45	C	1.187591	0.002383	0.447510
C46	C	1.126382	0.064976	0.395004
C47	C	1.065186	0.127576	0.447523
C48	C	1.003982	0.190172	0.395019
C49	C	0.942780	0.252770	0.447536
C50	C	0.942794	0.252767	0.552558
C51	C	1.126369	0.064978	0.289982
C52	C	1.003972	0.190173	0.289990
H53	H	0.954129	0.241144	0.247247
H54	H	0.810793	-0.020414	0.000018
H55	H	0.954180	0.241137	0.752856
N56	N	0.880282	0.316714	0.606188
N57	N	0.825637	0.372598	0.559301
H58	H	0.781488	0.417761	0.597179
N59	N	0.779841	0.301977	0.000040
N60	N	0.762232	0.358010	0.070372
H61	H	0.788493	0.419275	0.070382
H62	H	0.680336	-0.107158	0.000024
N63	N	0.502170	-0.128079	0.000015
N64	N	0.519762	-0.184111	-0.070321
H65	H	0.493484	-0.245367	-0.070334
N66	N	0.880278	0.316710	0.393883
N67	N	0.880291	0.316702	0.300114
H68	H	0.836151	0.361860	0.262217
N69	N	0.628210	0.383220	0.000045
N70	N	0.712174	0.384838	0.000037
H71	H	0.738460	0.446090	0.000041
H72	H	0.319590	0.275574	0.000053
N73	N	0.438115	0.379551	0.000049
N74	N	0.470642	0.455360	0.000050
H75	H	0.429083	0.515309	0.000054
H76	H	1.176245	0.014023	0.752828
N77	N	1.250142	-0.061505	0.606181
N78	N	1.250157	-0.061476	0.699950
H79	H	1.294342	-0.106591	0.737843
H80	H	1.237424	-0.048587	0.404757
N81	N	1.188788	0.000987	0.236297
N82	N	1.187318	-0.084245	0.248043
H83	H	1.231370	-0.129462	0.210108
N84	N	0.350527	-0.046830	0.000034
N85	N	0.401988	-0.121005	0.000024
H86	H	0.375731	-0.182272	0.000018
