data_functionalizedCrystal
_audit_creation_method	'MofGen! by Chris Wilmer'
_symmetry_space_group_name_H-M	'P1'
_symmetry_Int_Tables_number	1
_symmetry_cell_setting	triclinic
loop_
_symmetry_equiv_pos_as_xyz
  x,y,z
_cell_length_a	10.968094
_cell_length_b	11.026607
_cell_length_c	10.065918
_cell_angle_alpha	82.346549
_cell_angle_beta	92.197571
_cell_angle_gamma	96.379842
loop_
_atom_site_label
_atom_site_type_symbol
_atom_site_fract_x
_atom_site_fract_y
_atom_site_fract_z
O1	O	1.645788	0.131913	0.273542
O2	O	1.300464	0.159693	0.192331
O3	O	1.444505	-0.030149	0.226211
O4	O	1.501747	0.321755	0.239663
O5	O	1.406139	-0.060885	0.444178
O6	O	1.262098	0.128958	0.410298
O7	O	1.607423	0.101177	0.491509
Zn8	Zn	1.428669	0.110188	0.485510
Zn9	Zn	1.479217	0.150683	0.198330
O10	O	1.463381	0.291020	0.457629
C11	C	1.236385	0.144627	0.290756
C12	C	1.102605	0.145513	0.259295
C13	C	1.414763	-0.090469	0.332709
C14	C	1.383284	-0.224411	0.325302
C15	C	0.884811	0.130889	0.325656
C16	C	1.023078	0.129981	0.358187
C17	C	1.470204	-0.300347	0.345741
C18	C	1.437672	-0.438783	0.338085
C19	C	1.671502	0.116243	0.393081
C20	C	1.805283	0.115359	0.424534
C21	C	1.493124	0.351340	0.351128
C22	C	1.524604	0.485283	0.358527
N23	N	1.394180	0.082550	0.681506
N24	N	1.513714	0.178311	0.002337
C25	C	1.467210	0.141067	0.766458
C26	C	1.440674	0.119785	0.917385
H27	H	0.850535	0.144850	0.216921
C28	C	1.250211	-0.275034	0.294008
N29	N	1.149977	-0.313162	0.270442
C30	C	1.624728	0.267289	0.949659
N31	N	1.708340	0.334309	0.909981
C32	C	1.603275	-0.249725	0.377046
N33	N	1.703506	-0.211599	0.400630
H34	H	1.057347	0.116006	0.466929
H35	H	1.312013	0.016691	0.720511
H36	H	1.339167	-0.476253	0.314911
H37	H	0.839559	0.101386	0.533269
H38	H	1.623129	-0.477234	0.381595
H39	H	1.068337	0.159483	0.150552
C40	C	1.578227	0.230026	0.713773
N41	N	1.661850	0.297030	0.674094
C42	C	1.329658	0.030812	0.970065
N43	N	1.246040	-0.036200	1.009746
