data_functionalizedCrystal
_audit_creation_method	'MofGen! by Chris Wilmer'
_symmetry_space_group_name_H-M	'P1'
_symmetry_Int_Tables_number	1
_symmetry_cell_setting	triclinic
loop_
_symmetry_equiv_pos_as_xyz
  x,y,z
_cell_length_a	15.995300
_cell_length_b	10.723024
_cell_length_c	9.798715
_cell_angle_alpha	90.001978
_cell_angle_beta	89.994728
_cell_angle_gamma	96.030162
loop_
_atom_site_label
_atom_site_type_symbol
_atom_site_fract_x
_atom_site_fract_y
_atom_site_fract_z
O1	O	1.111933	-0.160540	-0.113538
O2	O	0.868267	-0.180467	-0.113529
O3	O	0.995720	0.011146	-0.113528
O4	O	0.984479	-0.352153	-0.113538
O5	O	0.995711	0.011146	0.113454
O6	O	0.868257	-0.180467	0.113453
O7	O	1.111924	-0.160539	0.113445
Zn8	Zn	0.990089	-0.170503	0.149487
Zn9	Zn	0.990101	-0.170504	-0.149572
O10	O	0.984470	-0.352153	0.113444
C11	C	0.837062	-0.179654	-0.000037
C12	C	0.744095	-0.177218	-0.000033
C13	C	0.573886	-0.172718	-0.000044
C14	C	0.527204	-0.309150	-0.000044
C15	C	0.430502	-0.306661	-0.000563
C16	C	0.406304	-0.168289	-0.000052
C17	C	0.447053	-0.100600	-0.129413
C18	C	0.543707	-0.104052	-0.129518
C19	C	0.543963	-0.102032	0.128612
C20	C	0.447019	-0.102044	0.130309
C21	C	0.311594	-0.165779	-0.000062
C22	C	0.668596	-0.175224	-0.000044
C23	C	0.994898	0.057635	-0.000039
C24	C	0.992450	0.196157	-0.000044
C25	C	1.143129	-0.161352	-0.000051
C26	C	1.236095	-0.163789	-0.000063
C27	C	0.985293	-0.398642	-0.000048
C28	C	0.987740	-0.537164	-0.000053
N29	N	0.990086	-0.170502	0.353587
C30	C	1.063767	0.272069	-0.000048
C31	C	1.061239	0.415240	-0.000053
N32	N	0.990110	-0.170495	-0.353671
C33	C	1.043601	-0.089697	0.421364
C34	C	1.043614	-0.089693	0.578527
H35	H	0.402962	-0.359620	-0.093837
O36	O	0.552117	-0.381788	0.122803
H37	H	0.535296	-0.333123	0.217325
O38	O	0.929408	-0.262121	0.569133
H39	H	0.965149	-0.322564	0.504001
H40	H	1.126695	0.231067	-0.000042
O41	O	0.929412	-0.262159	0.430816
H42	H	0.888348	-0.209752	0.495947
H43	H	0.562310	-0.152836	-0.226586
H44	H	0.402340	-0.359848	0.092147
O45	O	1.104315	0.001941	0.655717
H46	H	1.092927	0.099174	0.628372
H47	H	0.547127	-0.363162	-0.092673
H48	H	0.929522	0.237160	-0.000050
O49	O	0.585705	0.028644	-0.136845
H50	H	0.536954	0.094994	-0.140307
H51	H	0.432370	0.001073	-0.133858
H52	H	0.926684	0.397615	-0.000040
O53	O	0.571441	-0.161529	0.258539
H54	H	0.606736	-0.242154	0.232859
O55	O	1.104257	0.001979	0.344126
H56	H	1.094719	-0.012398	0.232804
H57	H	0.418939	-0.147006	-0.226048
O58	O	0.411193	-0.167523	0.257089
H59	H	0.364576	-0.246911	0.227396
H60	H	0.431101	-0.001161	0.138505
O61	O	1.142115	0.501631	-0.000044
H62	H	1.179124	0.483858	-0.092551
H63	H	0.575166	-0.001442	0.129859
