data_functionalizedCrystal
_audit_creation_method	'MofGen! by Chris Wilmer'
_symmetry_space_group_name_H-M	'P1'
_symmetry_Int_Tables_number	1
_symmetry_cell_setting	triclinic
loop_
_symmetry_equiv_pos_as_xyz
  x,y,z
_cell_length_a	19.288840
_cell_length_b	10.967829
_cell_length_c	18.366186
_cell_angle_alpha	77.865925
_cell_angle_beta	89.983729
_cell_angle_gamma	83.934359
loop_
_atom_site_label
_atom_site_type_symbol
_atom_site_fract_x
_atom_site_fract_y
_atom_site_fract_z
O1	O	0.922378	0.155513	-0.080183
O2	O	0.720253	0.176544	-0.082796
O3	O	0.825975	-0.015650	-0.058691
O4	O	0.816656	0.347706	-0.104287
O5	O	0.825956	-0.015659	0.062409
O6	O	0.720234	0.176534	0.038305
O7	O	0.922360	0.155503	0.040918
Zn8	Zn	0.821294	0.166017	0.058839
Zn9	Zn	0.821318	0.166030	-0.100717
O10	O	0.816638	0.347697	0.016813
C11	C	0.694362	0.175868	-0.022158
C12	C	0.617245	0.173852	-0.021896
C13	C	0.581045	0.172889	-0.087788
C14	C	0.508585	0.170981	-0.087557
C15	C	0.472330	0.170011	-0.021428
C16	C	0.508539	0.170981	0.044472
C17	C	0.580996	0.172902	0.044238
C18	C	0.362498	0.093877	0.038687
C19	C	0.290043	0.091948	0.038920
C20	C	0.248848	0.164093	-0.020704
C21	C	0.280118	0.238150	-0.080570
C22	C	0.352575	0.240070	-0.080804
C23	C	0.393763	0.167929	-0.021167
C24	C	0.134079	0.161063	-0.086351
C25	C	0.061618	0.159163	-0.086119
C26	C	0.061574	0.159151	0.045914
C27	C	0.134033	0.161064	0.045679
C28	C	0.170282	0.162014	-0.020455
C29	C	0.825286	-0.062141	0.007691
C30	C	0.823253	-0.200655	0.025069
C31	C	0.822357	-0.262398	-0.029918
C32	C	0.820256	-0.405559	-0.011959
C33	C	0.948250	0.156179	-0.019721
C34	C	1.025368	0.158195	-0.019989
C35	C	0.817327	0.394188	-0.049571
C36	C	0.819359	0.532702	-0.066953
N37	N	0.821283	0.166008	0.167731
N38	N	0.821335	0.166029	-0.209608
C39	C	0.868113	0.080946	0.216500
C40	C	0.868117	0.080941	0.292728
C41	C	0.821299	0.166018	0.320182
C42	C	0.774460	0.251087	0.271404
C43	C	0.774453	0.251081	0.195178
C44	C	0.812742	0.279714	0.426676
C45	C	0.812755	0.279721	0.502900
C46	C	0.821318	0.166034	0.555288
C47	C	0.829884	0.052335	0.531443
C48	C	0.829877	0.052330	0.455217
C49	C	0.821301	0.166033	0.402835
C50	C	0.868155	0.080959	0.686713
C51	C	0.868155	0.080952	0.762943
C52	C	0.774501	0.251109	0.741616
C53	C	0.774499	0.251105	0.665389
C54	C	0.821329	0.166032	0.637942
H55	H	0.479105	0.170198	-0.141217
N56	N	0.918615	-0.010817	0.186897
H57	H	0.949590	0.036722	0.149291
H58	H	0.948235	-0.064681	0.229408
N59	N	0.723997	0.342862	0.771218
H60	H	0.750798	0.397994	0.795914
H61	H	0.694343	0.396664	0.728716
H62	H	0.822462	-0.253780	0.085441
N63	N	0.620044	0.173922	0.115315
H64	H	0.671446	0.175280	0.105132
H65	H	0.602103	0.250923	0.134479
N66	N	0.022575	0.158120	-0.157194
H67	H	-0.002220	0.079990	-0.150329
H68	H	-0.012717	0.234713	-0.169715
H69	H	0.820139	-0.414177	-0.127330
N70	N	0.620131	0.173932	-0.159123
H71	H	0.644924	0.252066	-0.171870
H72	H	0.655428	0.097343	-0.152414
H73	H	0.479015	0.170195	0.098315
H74	H	0.906287	0.011678	0.802654
N75	N	0.918626	-0.010810	0.345342
H76	H	0.948290	-0.064706	0.316388
H77	H	0.949557	0.036828	0.370974
H78	H	0.836849	-0.040247	0.435806
N79	N	0.823310	-0.192021	-0.109893
H80	H	0.824634	-0.099717	-0.111388
H81	H	0.865937	-0.224994	-0.134668
N82	N	0.723993	0.342870	0.612788
H83	H	0.750793	0.397993	0.574230
H84	H	0.693020	0.295244	0.587196
H85	H	0.396034	0.035124	0.087244
N86	N	0.819213	-0.475909	0.068018
H87	H	0.817862	-0.568207	0.069512
H88	H	0.862526	-0.463591	0.095308
H89	H	0.836857	-0.040240	0.574097
N90	N	0.386305	0.319936	-0.145368
H91	H	0.349218	0.365350	-0.183107
H92	H	0.412106	0.383158	-0.126644
N93	N	0.723961	0.342842	0.301015
H94	H	0.750766	0.397973	0.325706
H95	H	0.694303	0.396644	0.258515
H96	H	0.906285	0.011683	0.664366
H97	H	0.805784	0.372301	0.522308
H98	H	0.805756	0.372298	0.384026
N99	N	0.723939	0.342826	0.142572
H100	H	0.694277	0.396720	0.171528
H101	H	0.750786	0.397867	0.104024
N102	N	0.235698	0.315967	-0.144887
H103	H	0.185052	0.303521	-0.135655
H104	H	0.242154	0.407466	-0.149595
H105	H	0.163508	0.161840	0.099336
N106	N	0.173183	0.162094	-0.157677
H107	H	0.139251	0.161204	-0.199388
H108	H	0.197981	0.240225	-0.170353
N109	N	0.022482	0.158097	0.117243
H110	H	-0.028913	0.156731	0.107394
H111	H	0.040409	0.081086	0.155728
N112	N	0.256319	0.012071	0.103482
H113	H	0.293408	-0.033329	0.141223
H114	H	0.222423	0.067337	0.127599
