data_functionalizedCrystal
_audit_creation_method	'MofGen! by Chris Wilmer'
_symmetry_space_group_name_H-M	'P1'
_symmetry_Int_Tables_number	1
_symmetry_cell_setting	triclinic
loop_
_symmetry_equiv_pos_as_xyz
  x,y,z
_cell_length_a	16.120530
_cell_length_b	18.101395
_cell_length_c	16.120256
_cell_angle_alpha	92.874436
_cell_angle_beta	90.128265
_cell_angle_gamma	87.126665
loop_
_atom_site_label
_atom_site_type_symbol
_atom_site_fract_x
_atom_site_fract_y
_atom_site_fract_z
Zn1	Zn	1.247384	-0.375205	-0.534567
Zn2	Zn	1.580717	-0.041871	-0.201234
Zn3	Zn	1.914051	0.291462	0.132099
Zn4	Zn	1.254317	-0.493093	-0.395509
Zn5	Zn	1.587650	-0.159760	-0.062176
Zn6	Zn	1.920984	0.173574	0.271157
Zn7	Zn	1.115376	-0.362686	-0.388485
Zn8	Zn	1.448710	-0.029353	-0.055152
Zn9	Zn	1.782043	0.303980	0.278182
Zn10	Zn	1.108274	-0.492415	-0.527479
Zn11	Zn	1.441607	-0.159081	-0.194146
Zn12	Zn	1.774940	0.174252	0.139187
O13	O	1.181338	-0.430850	-0.461510
O14	O	1.514671	-0.097516	-0.128177
O15	O	1.848004	0.235817	0.205156
O16	O	1.364669	-0.396365	-0.522027
O17	O	1.698002	-0.063032	-0.188694
O18	O	2.031336	0.270301	0.144639
O19	O	1.241760	-0.470839	-0.278212
O20	O	1.575094	-0.137506	0.055122
O21	O	1.908427	0.195827	0.388455
O22	O	1.132958	-0.260718	-0.407890
O23	O	1.466292	0.072615	-0.074556
O24	O	1.799625	0.405948	0.258777
O25	O	1.369763	-0.482978	-0.419862
O26	O	1.703096	-0.149644	-0.086529
O27	O	2.036429	0.183689	0.246805
O28	O	1.229944	-0.269915	-0.515216
O29	O	1.563277	0.063418	-0.181883
O30	O	1.896610	0.396751	0.151451
O31	O	1.139681	-0.375030	-0.273051
O32	O	1.473014	-0.041697	0.060283
O33	O	1.806348	0.291637	0.393616
O34	O	0.998069	-0.374372	-0.401017
O35	O	1.331402	-0.041039	-0.067683
O36	O	1.664735	0.292294	0.265650
O37	O	1.120853	-0.481821	-0.644785
O38	O	1.454186	-0.148488	-0.311452
O39	O	1.787519	0.184845	0.021881
O40	O	0.992850	-0.469683	-0.503135
O41	O	1.326184	-0.136350	-0.169802
O42	O	1.659517	0.196984	0.163532
O43	O	1.223057	-0.395708	-0.649993
O44	O	1.556390	-0.062374	-0.316660
O45	O	1.889723	0.270959	0.016674
O46	O	1.234873	-0.596632	-0.412989
O47	O	1.568207	-0.263298	-0.079656
O48	O	1.901540	0.070035	0.253678
O49	O	1.127576	-0.596133	-0.509947
O50	O	1.460909	-0.262800	-0.176613
O51	O	1.794242	0.070533	0.156720
C52	C	0.965287	-0.420596	-0.450545
C53	C	1.298620	-0.087263	-0.117212
C54	C	1.631954	0.246070	0.216122
C55	C	0.872859	-0.416229	-0.445874
C56	C	1.206192	-0.082895	-0.112540
C57	C	1.539525	0.250438	0.220793
C58	C	0.703630	-0.408237	-0.437352
C59	C	1.036964	-0.074904	-0.104019
C60	C	1.370297	0.258430	0.229315
C61	C	0.659882	-0.453519	-0.485729
C62	C	0.993216	-0.120186	-0.152396
C63	C	1.326549	0.213147	0.180938
C64	C	0.565718	-0.449073	-0.480988
C65	C	0.899051	-0.115740	-0.147654
C66	C	1.232385	0.217594	0.185679
C67	C	0.797803	-0.412683	-0.442092
C68	C	1.131137	-0.079349	-0.108759
C69	C	1.464470	0.253984	0.224574
C70	C	1.181228	-0.623254	-0.461480
C71	C	1.514561	-0.289921	-0.128147
C72	C	1.847894	0.043413	0.205186
C73	C	1.181255	-0.705570	-0.461499
C74	C	1.514589	-0.372237	-0.128166
C75	C	1.847922	-0.038903	0.205168
C76	C	1.181435	-1.004672	-0.461553
C77	C	1.514769	-0.671338	-0.128220
C78	C	1.848102	-0.338005	0.205114
C79	C	1.114068	-0.973078	-0.522723
C80	C	1.447401	-0.639744	-0.189390
C81	C	1.780734	-0.306411	0.143943
C82	C	1.113773	-0.887437	-0.522506
C83	C	1.447107	-0.554103	-0.189173
C84	C	1.780440	-0.220770	0.144160
C85	C	1.181346	-0.856284	-0.461527
C86	C	1.514679	-0.522951	-0.128194
C87	C	1.848013	-0.189617	0.205140
C88	C	1.162064	-0.882558	-0.372687
C89	C	1.495397	-0.549225	-0.039354
C90	C	1.828731	-0.215892	0.293979
C91	C	1.161631	-0.968200	-0.373052
C92	C	1.494965	-0.634867	-0.039718
C93	C	1.828298	-0.301534	0.293615
C94	C	1.268265	-0.978145	-0.488458
C95	C	1.601598	-0.644812	-0.155125
C96	C	1.934931	-0.311478	0.178208
C97	C	1.267650	-0.892552	-0.490354
C98	C	1.600983	-0.559219	-0.157021
C99	C	1.934317	-0.225885	0.176313
C100	C	1.181297	-0.772421	-0.461507
C101	C	1.514630	-0.439088	-0.128174
C102	C	1.847964	-0.105755	0.205160
C103	C	1.181483	-1.088534	-0.461567
C104	C	1.514816	-0.755200	-0.128234
C105	C	1.848149	-0.421867	0.205100
C106	C	1.398232	-0.441144	-0.472519
C107	C	1.731565	-0.107810	-0.139186
C108	C	2.064898	0.225523	0.194148
C109	C	1.490659	-0.445530	-0.477210
C110	C	1.823993	-0.112197	-0.143877
C111	C	2.157326	0.221136	0.189456
C112	C	1.170389	-0.440085	-0.678405
C113	C	1.503722	-0.106752	-0.345072
C114	C	1.837056	0.226581	-0.011739
C115	C	1.165723	-0.444021	-0.770833
C116	C	1.499057	-0.110688	-0.437500
C117	C	1.832390	0.222646	-0.104166
C118	C	1.181470	-0.237696	-0.461560
C119	C	1.514803	0.095637	-0.128227
C120	C	1.848137	0.428971	0.205107
C121	C	1.181526	-0.155385	-0.461581
C122	C	1.514860	0.177948	-0.128248
C123	C	1.848193	0.511281	0.205086
C124	C	1.205667	-0.410307	-0.983817
C125	C	1.539000	-0.076973	-0.650484
C126	C	1.872334	0.256360	-0.317150
C127	C	1.157177	-0.451174	-0.940053
C128	C	1.490510	-0.117841	-0.606720
C129	C	1.823844	0.215492	-0.273387
C130	C	1.161934	-0.447193	-0.845890
C131	C	1.495267	-0.113860	-0.512557
C132	C	1.828600	0.219474	-0.179224
C133	C	1.200912	-0.414287	-1.077988
C134	C	1.534245	-0.080954	-0.744655
C135	C	1.867578	0.252380	-0.411322
C136	C	1.192292	-0.421599	-0.245461
C137	C	1.525625	-0.088266	0.087872
C138	C	1.858958	0.245068	0.421205
C139	C	1.197118	-0.417462	-0.153042
C140	C	1.530452	-0.084129	0.180291
C141	C	1.863785	0.249204	0.513624
H142	H	0.670366	-0.366134	-0.392377
H143	H	1.003700	-0.032801	-0.059044
H144	H	1.337033	0.300532	0.274289
H145	H	1.125322	-0.869858	-0.588241
H146	H	1.458655	-0.536525	-0.254908
H147	H	1.791989	-0.203192	0.078426
Br148	Br	1.056062	-0.995175	-0.335926
Br149	Br	1.389396	-0.661842	-0.002592
Br150	Br	1.722729	-0.328508	0.330741
H151	H	1.125459	-0.997113	-0.588661
H152	H	1.458792	-0.663780	-0.255327
H153	H	1.792125	-0.330446	0.078006
Br154	Br	1.280796	-0.346998	-0.928399
Br155	Br	1.614130	-0.013665	-0.595065
Br156	Br	1.947463	0.319668	-0.261732
Br157	Br	1.007293	-1.002910	-0.492802
Br158	Br	1.340627	-0.669576	-0.159469
Br159	Br	1.673960	-0.336243	0.173865
Br160	Br	1.240257	-1.002720	-0.294094
Br161	Br	1.573591	-0.669387	0.039240
Br162	Br	1.906924	-0.336053	0.372573
Br163	Br	1.006351	-0.847178	-0.492223
Br164	Br	1.339684	-0.513845	-0.158890
Br165	Br	1.673017	-0.180512	0.174444
Br166	Br	0.715323	-0.523694	-0.560704
Br167	Br	1.048656	-0.190361	-0.227371
Br168	Br	1.381989	0.142973	0.105962
Br169	Br	1.241599	-0.848664	-0.294323
Br170	Br	1.574932	-0.515331	0.039011
Br171	Br	1.908265	-0.181997	0.372344
H172	H	1.099423	-0.857330	-0.350107
H173	H	1.432756	-0.523996	-0.016773
H174	H	1.766090	-0.190663	0.316560
H175	H	1.286710	-1.003408	-0.552370
H176	H	1.620044	-0.670075	-0.219037
H177	H	1.953377	-0.336741	0.114296
Br178	Br	1.292024	-0.864632	-0.599365
Br179	Br	1.625357	-0.531299	-0.266032
Br180	Br	1.958690	-0.197965	0.067302
H181	H	1.320141	-0.871660	-0.449403
H182	H	1.653474	-0.538326	-0.116069
H183	H	1.986808	-0.204993	0.217264
Br184	Br	1.351833	-1.012335	-0.414306
Br185	Br	1.685167	-0.679002	-0.080973
Br186	Br	2.018500	-0.345669	0.252361
H187	H	1.112087	-0.489148	-0.973304
H188	H	1.445420	-0.155815	-0.639971
H189	H	1.778753	0.177519	-0.306637
