data_functionalizedCrystal
_audit_creation_method	'MofGen! by Chris Wilmer'
_symmetry_space_group_name_H-M	'P1'
_symmetry_Int_Tables_number	1
_symmetry_cell_setting	triclinic
loop_
_symmetry_equiv_pos_as_xyz
  x,y,z
_cell_length_a	16.109301
_cell_length_b	23.532407
_cell_length_c	14.586319
_cell_angle_alpha	89.991566
_cell_angle_beta	89.998857
_cell_angle_gamma	83.155131
loop_
_atom_site_label
_atom_site_type_symbol
_atom_site_fract_x
_atom_site_fract_y
_atom_site_fract_z
O1	O	1.102555	0.073203	-0.076200
O2	O	1.602555	0.573203	0.423800
O3	O	0.860421	0.082312	-0.076214
O4	O	1.360421	0.582312	0.423786
O5	O	0.988790	-0.005147	-0.076189
O6	O	1.488790	0.494853	0.423811
O7	O	0.974187	0.160662	-0.076224
O8	O	1.474187	0.660662	0.423776
O9	O	0.988781	-0.005149	0.076291
O10	O	1.488781	0.494851	0.576291
O11	O	0.860413	0.082311	0.076267
O12	O	1.360413	0.582311	0.576267
O13	O	1.102546	0.073201	0.076281
O14	O	1.602546	0.573201	0.576281
Cu15	Cu	0.981479	0.077756	0.090197
Cu16	Cu	1.481479	0.577756	0.590197
Cu17	Cu	0.981489	0.077758	-0.090129
Cu18	Cu	1.481489	0.577758	0.409871
O19	O	0.974178	0.160661	0.076257
O20	O	1.474178	0.660661	0.576257
C21	C	0.829445	0.081943	0.000025
C22	C	1.329445	0.581943	0.500025
C23	C	0.737158	0.080836	0.000021
C24	C	1.237158	0.580836	0.500021
C25	C	0.427781	0.129116	0.000027
C26	C	0.927781	0.629116	0.500027
C27	C	0.514493	0.130161	0.000021
C28	C	1.014493	0.630161	0.500021
C29	C	0.535182	0.026393	0.000030
C30	C	1.035182	0.526393	0.500030
C31	C	0.448471	0.025349	0.000029
C32	C	0.948471	0.525349	0.500029
C33	C	0.394773	0.076712	0.000032
C34	C	0.894773	0.576712	0.500032
C35	C	0.568195	0.078801	0.000028
C36	C	1.068195	0.578801	0.500028
C37	C	0.662212	0.079934	0.000022
C38	C	1.162212	0.579934	0.500022
C39	C	0.300749	0.075580	0.000036
C40	C	0.800749	0.575580	0.500036
C41	C	0.988414	-0.026365	0.000053
C42	C	1.488414	0.473635	0.500053
C43	C	0.987296	-0.089586	0.000060
C44	C	1.487296	0.410414	0.500060
C45	C	1.133523	0.073571	0.000040
C46	C	1.633523	0.573571	0.500040
C47	C	1.225809	0.074677	0.000039
C48	C	1.725809	0.574677	0.500039
C49	C	1.056249	-0.488435	0.000014
C50	C	1.556249	0.011565	0.500014
C51	C	1.055210	-0.547839	0.000007
C52	C	1.555210	-0.047839	0.500007
O53	O	1.119130	-0.584348	-0.000023
O54	O	1.619130	-0.084348	0.499977
N55	N	0.978895	-0.570747	0.000003
N56	N	1.478895	-0.070747	0.500003
C57	C	0.903614	-0.534247	-0.000003
C58	C	1.403614	-0.034247	0.499997
O59	O	0.838607	-0.559187	-0.000007
O60	O	1.338607	-0.059187	0.499993
C61	C	0.904653	-0.474844	-0.000002
C62	C	1.404653	0.025156	0.499998
C63	C	0.980973	-0.451940	0.000011
C64	C	1.480973	0.048060	0.500011
C65	C	1.132562	-0.465530	0.000026
C66	C	1.632562	0.034470	0.500026
C67	C	1.133601	-0.406130	0.000035
C68	C	1.633601	0.093870	0.500035
C69	C	1.058325	-0.369635	0.000032
C70	C	1.558325	0.130365	0.500032
C71	C	0.982011	-0.392540	0.000020
C72	C	1.482011	0.107460	0.500020
C73	C	0.829373	-0.438346	-0.000015
C74	C	1.329373	0.061654	0.499985
C75	C	0.830419	-0.378939	-0.000015
C76	C	1.330419	0.121061	0.499985
C77	C	0.906739	-0.356035	-0.000002
C78	C	1.406739	0.143965	0.499998
C79	C	0.907774	-0.296645	0.000025
C80	C	1.407774	0.203355	0.500025
N81	N	0.984089	-0.273737	0.000029
N82	N	1.484089	0.226263	0.500029
C83	C	1.059365	-0.310232	0.000032
C84	C	1.559365	0.189768	0.500032
C85	C	0.901437	-0.658998	-0.000005
C86	C	1.401437	-0.158998	0.499995
C87	C	0.900396	-0.718399	0.000001
C88	C	1.400396	-0.218399	0.500001
C89	C	1.051993	-0.731987	0.000009
C90	C	1.551993	-0.231987	0.500009
C91	C	1.053032	-0.672585	0.000009
C92	C	1.553032	-0.172585	0.500009
C93	C	0.977752	-0.636090	-0.000002
C94	C	1.477752	-0.136090	0.499998
C95	C	1.061539	-0.185487	0.000051
C96	C	1.561539	0.314513	0.500051
C97	C	1.062571	-0.126082	0.000064
C98	C	1.562571	0.373918	0.500064
C99	C	0.910975	-0.112499	0.000051
C100	C	1.410975	0.387501	0.500051
C101	C	0.909943	-0.171899	0.000043
C102	C	1.409943	0.328101	0.500043
C103	C	0.985232	-0.208393	0.000040
C104	C	1.485232	0.291607	0.500040
O105	O	0.843888	-0.260101	0.000051
O106	O	1.343888	0.239899	0.500051
O107	O	1.124361	-0.285284	0.000025
O108	O	1.624361	0.214716	0.500025
C109	C	0.974554	0.181879	0.000012
C110	C	1.474554	0.681879	0.500012
C111	C	0.975672	0.245100	-0.000001
C112	C	1.475672	0.745100	0.499999
N113	N	0.981477	0.077755	0.217029
N114	N	1.481477	0.577755	0.717029
N115	N	0.981497	0.077755	-0.216961
N116	N	1.481497	0.577755	0.283039
C117	C	1.038337	0.039041	0.452046
C118	C	1.538337	0.539041	0.952046
C119	C	1.038340	0.039039	0.548027
C120	C	1.538340	0.539039	1.048027
C121	C	0.924631	0.116471	0.548015
C122	C	1.424631	0.616471	1.048015
C123	C	0.924625	0.116469	0.452036
C124	C	1.424625	0.616469	0.952036
C125	C	0.981483	0.077754	0.404053
C126	C	1.481483	0.577754	0.904053
C127	C	0.981491	0.077755	0.596014
C128	C	1.481491	0.577755	1.096014
C129	C	0.981493	0.077754	0.700081
C130	C	1.481493	0.577754	1.200081
C131	C	0.981480	0.077755	0.299980
C132	C	1.481480	0.577755	0.799980
H133	H	1.124722	-0.107437	0.000077
H134	H	1.624722	0.392563	0.500077
Br135	Br	0.725789	-0.469414	-0.000036
Br136	Br	1.225789	0.030586	0.499964
Br137	Br	1.237183	-0.375056	0.000027
Br138	Br	1.737183	0.124944	0.500027
Br139	Br	0.403670	-0.045776	0.000020
Br140	Br	0.903670	0.454224	0.500020
H141	H	1.122847	-0.215194	0.000045
H142	H	1.622847	0.284806	0.500045
H143	H	1.084635	0.007514	0.587100
H144	H	1.584635	0.507514	1.087100
Br145	Br	0.847454	0.169008	0.386895
Br146	Br	1.347454	0.669008	0.886895
H147	H	0.541363	0.172834	0.000016
H148	H	1.041363	0.672834	0.500016
H149	H	1.084633	0.007516	0.412981
H150	H	1.584633	0.507516	0.912981
H151	H	1.193864	-0.495239	0.000026
H152	H	1.693864	0.004761	0.500026
Br153	Br	0.799260	-0.609474	-0.000012
Br154	Br	1.299260	-0.109474	0.499988
H155	H	0.384061	0.170940	0.000028
H156	H	0.884061	0.670940	0.500028
H157	H	0.578914	-0.015425	0.000030
H158	H	1.078914	0.484575	0.500030
Br159	Br	0.796815	-0.749476	0.000005
Br160	Br	1.296815	-0.249476	0.500005
Br161	Br	1.154153	-0.781528	0.000010
Br162	Br	1.654153	-0.281528	0.500010
Br163	Br	1.156612	-0.641507	0.000029
Br164	Br	1.656612	-0.141507	0.500029
Br165	Br	0.806365	-0.202985	0.000046
Br166	Br	1.306365	0.297015	0.500046
Br167	Br	0.728246	-0.329414	-0.000034
Br168	Br	1.228246	0.170586	0.499966
Br169	Br	0.808820	-0.062959	0.000047
Br170	Br	1.308820	0.437041	0.500047
Br171	Br	0.847471	0.169011	0.613137
Br172	Br	1.347471	0.669011	1.113137
