data_functionalizedCrystal
_audit_creation_method	'MofGen! by Chris Wilmer'
_symmetry_space_group_name_H-M	'P1'
_symmetry_Int_Tables_number	1
_symmetry_cell_setting	triclinic
loop_
_symmetry_equiv_pos_as_xyz
  x,y,z
_cell_length_a	18.050591
_cell_length_b	16.625546
_cell_length_c	18.050582
_cell_angle_alpha	89.976222
_cell_angle_beta	89.979078
_cell_angle_gamma	90.018474
loop_
_atom_site_label
_atom_site_type_symbol
_atom_site_fract_x
_atom_site_fract_y
_atom_site_fract_z
Zn1	Zn	1.135322	-0.321139	-0.420025
Zn2	Zn	1.635322	0.178861	0.079975
Zn3	Zn	1.135245	-0.455966	-0.295833
Zn4	Zn	1.635245	0.044034	0.204167
Zn5	Zn	1.011141	-0.321142	-0.295836
Zn6	Zn	1.511141	0.178858	0.204164
Zn7	Zn	1.011102	-0.455924	-0.419968
Zn8	Zn	1.511102	0.044076	0.080032
O9	O	1.073203	-0.388543	-0.357916
O10	O	1.573203	0.111457	0.142084
O11	O	1.239237	-0.339040	-0.403573
O12	O	1.739237	0.160960	0.096427
O13	O	1.118767	-0.438101	-0.191908
O14	O	1.618767	0.061899	0.308092
O15	O	1.027663	-0.208309	-0.312336
O16	O	1.527663	0.291691	0.187664
O17	O	1.239180	-0.438098	-0.312329
O18	O	1.739180	0.061902	0.187671
O19	O	1.118898	-0.208307	-0.403577
O20	O	1.618898	0.291693	0.096423
O21	O	1.027588	-0.339046	-0.191911
O22	O	1.527588	0.160954	0.308089
O23	O	0.907212	-0.339005	-0.312280
O24	O	1.407212	0.160995	0.187720
O25	O	1.027596	-0.438025	-0.523900
O26	O	1.527596	0.061975	-0.023900
O27	O	0.907183	-0.438028	-0.403479
O28	O	1.407183	0.061972	0.096521
O29	O	1.118860	-0.338999	-0.523942
O30	O	1.618860	0.161001	-0.023942
O31	O	1.118729	-0.568793	-0.312274
O32	O	1.618729	-0.068793	0.187726
O33	O	1.027521	-0.568762	-0.403476
O34	O	1.527521	-0.068762	0.096524
C35	C	1.073132	-0.598034	-0.357884
C36	C	1.573132	-0.098034	0.142116
C37	C	1.073170	-0.687655	-0.357896
C38	C	1.573170	-0.187655	0.142104
C39	C	0.880251	-0.388513	-0.357874
C40	C	1.380251	0.111487	0.142126
C41	C	0.797705	-0.388519	-0.357875
C42	C	1.297705	0.111481	0.142125
C43	C	1.073300	-1.015830	-0.357973
C44	C	1.573300	-0.515830	0.142027
C45	C	1.073261	-0.924522	-0.357954
C46	C	1.573261	-0.424522	0.142046
C47	C	1.073235	-0.851745	-0.357934
C48	C	1.573235	-0.351745	0.142066
C49	C	1.073197	-0.760431	-0.357916
C50	C	1.573197	-0.260431	0.142084
C51	C	0.598248	-0.334608	-0.308395
C52	C	1.098248	0.165392	0.191605
C53	C	0.548836	-0.408150	-0.290117
C54	C	1.048836	0.091850	0.209883
C55	C	0.646574	-0.388544	-0.357908
C56	C	1.146574	0.111456	0.142092
C57	C	0.548906	-0.315027	-0.376184
C58	C	1.048906	0.184973	0.123816
C59	C	0.500589	-0.388561	-0.357939
C60	C	1.000589	0.111439	0.142061
C61	C	0.598249	-0.462124	-0.339595
C62	C	1.098249	0.037876	0.160405
C63	C	0.598323	-0.368952	-0.425693
C64	C	1.098323	0.131048	0.074307
C65	C	0.548933	-0.442545	-0.407441
C66	C	1.048933	0.057455	0.092559
C67	C	0.730673	-0.388533	-0.357888
C68	C	1.230673	0.111467	0.142112
C69	C	0.416493	-0.388580	-0.357959
C70	C	0.916493	0.111420	0.142041
C71	C	1.266908	-0.388573	-0.357957
C72	C	1.766908	0.111427	0.142043
C73	C	1.349454	-0.388586	-0.357975
C74	C	1.849454	0.111414	0.142025
C75	C	1.073232	-0.388507	-0.551621
C76	C	1.573232	0.111493	-0.051621
C77	C	1.073244	-0.388492	-0.634167
C78	C	1.573244	0.111508	-0.134167
C79	C	1.073294	-0.178234	-0.357963
C80	C	1.573294	0.321766	0.142037
C81	C	1.073332	-0.088613	-0.357983
C82	C	1.573332	0.411387	0.142017
C83	C	1.023653	-0.442268	-0.833595
C84	C	1.523653	0.057732	-0.333595
C85	C	1.091410	-0.461983	-0.882993
C86	C	1.591410	0.038017	-0.382993
C87	C	1.073281	-0.388430	-0.785297
C88	C	1.573281	0.111570	-0.285297
C89	C	1.005561	-0.368693	-0.882981
C90	C	1.505561	0.131307	-0.382981
C91	C	1.073310	-0.388372	-0.931283
C92	C	1.573310	0.111628	-0.431283
C93	C	1.141073	-0.408183	-0.833608
C94	C	1.641073	0.091817	-0.333608
C95	C	1.055179	-0.314859	-0.833592
C96	C	1.555179	0.185141	-0.333592
C97	C	1.122983	-0.334546	-0.882968
C98	C	1.622983	0.165454	-0.382968
C99	C	1.073263	-0.388466	-0.701199
C100	C	1.573263	0.111534	-0.201199
C101	C	1.073336	-0.388337	-1.015379
C102	C	1.573336	0.111663	-0.515379
C103	C	1.073216	-0.388520	-0.164963
C104	C	1.573216	0.111480	0.335037
C105	C	1.073348	-0.388308	-0.082418
C106	C	1.573348	0.111692	0.417582
H107	H	0.619902	-0.289045	-0.266477
H108	H	1.119902	0.210955	0.233523
H109	H	1.165013	-0.288992	-0.904509
H110	H	1.665013	0.211008	-0.404509
H111	H	0.620077	-0.352347	-0.482987
H112	H	1.120077	0.147653	0.017013
H113	H	0.619833	-0.524322	-0.324087
H114	H	1.119833	-0.024322	0.175913
N115	N	0.933701	-0.347765	-0.910174
N116	N	1.433701	0.152235	-0.410174
N117	N	0.905572	-0.281520	-0.893450
N118	N	1.405572	0.218480	-0.393450
H119	H	0.854819	-0.266744	-0.912652
H120	H	1.354819	0.233256	-0.412652
N121	N	1.035919	-0.236861	-0.806355
N122	N	1.535919	0.263139	-0.306355
N123	N	0.974445	-0.206820	-0.822144
N124	N	1.474445	0.293180	-0.322144
H125	H	0.960835	-0.151732	-0.802908
H126	H	1.460835	0.348268	-0.302908
H127	H	1.106738	-0.524176	-0.904692
H128	H	1.606738	-0.024176	-0.404692
N129	N	0.521564	-0.428939	-0.218220
N130	N	1.021564	0.071061	0.281780
N131	N	0.481049	-0.380904	-0.183649
N132	N	0.981049	0.119096	0.316351
H133	H	0.461792	-0.395580	-0.132869
H134	H	0.961792	0.104420	0.367131
N135	N	0.521945	-0.499843	-0.459985
N136	N	1.021945	0.000157	0.040015
N137	N	0.537913	-0.572611	-0.453062
N138	N	1.037913	-0.072611	0.046938
H139	H	0.518853	-0.613081	-0.490168
H140	H	1.018853	-0.113081	0.009832
H141	H	0.981723	-0.487857	-0.811917
H142	H	1.481723	0.012143	-0.311917
N143	N	0.521714	-0.237023	-0.395551
N144	N	1.021714	0.262977	0.104449
N145	N	0.537523	-0.177577	-0.356233
N146	N	1.037523	0.322423	0.143767
H147	H	0.518320	-0.122484	-0.369905
H148	H	1.018320	0.377516	0.130095
H149	H	1.198372	-0.424923	-0.812011
H150	H	1.698372	0.075077	-0.312011
