data_functionalizedCrystal
_audit_creation_method	'MofGen! by Chris Wilmer'
_symmetry_space_group_name_H-M	'P1'
_symmetry_Int_Tables_number	1
_symmetry_cell_setting	triclinic
loop_
_symmetry_equiv_pos_as_xyz
  x,y,z
_cell_length_a	16.120484
_cell_length_b	12.759395
_cell_length_c	12.759387
_cell_angle_alpha	90.020837
_cell_angle_beta	92.863831
_cell_angle_gamma	87.073908
loop_
_atom_site_label
_atom_site_type_symbol
_atom_site_fract_x
_atom_site_fract_y
_atom_site_fract_z
Zn1	Zn	-0.331852	-1.584970	-0.615217
Zn2	Zn	-0.471288	-1.575922	-0.448429
Zn3	Zn	-0.331895	-1.409270	-0.439551
Zn4	Zn	-0.471227	-1.400322	-0.624059
O5	O	-0.401565	-1.492621	-0.531814
O6	O	-0.350357	-1.730791	-0.593107
O7	O	-0.452840	-1.553774	-0.300233
O8	O	-0.215224	-1.440108	-0.455438
O9	O	-0.452799	-1.724143	-0.470569
O10	O	-0.215193	-1.569195	-0.584499
O11	O	-0.350429	-1.431335	-0.293710
O12	O	-0.350370	-1.261062	-0.464011
O13	O	-0.452695	-1.424857	-0.769905
O14	O	-0.452736	-1.254488	-0.599569
O15	O	-0.350298	-1.560518	-0.763408
O16	O	-0.587945	-1.545097	-0.479143
O17	O	-0.587900	-1.416084	-0.608177
C18	C	-0.401552	-1.219654	-0.531787
C19	C	-0.401566	-1.102877	-0.531801
C20	C	-0.618173	-1.478666	-0.545606
C21	C	-0.710838	-1.472793	-0.551541
C22	C	-0.508333	-1.096059	-0.672751
C23	C	-0.561722	-1.037788	-0.743227
C24	C	-0.561731	-0.928066	-0.743237
C25	C	-0.508343	-0.876612	-0.672765
C26	C	-0.454953	-0.934883	-0.602289
C27	C	-0.454952	-1.044607	-0.602284
C28	C	-0.348183	-0.941701	-0.461346
C29	C	-0.348178	-1.051423	-0.461329
C30	C	-0.294795	-0.890247	-0.390874
C31	C	-0.241409	-0.948517	-0.320391
C32	C	-0.241403	-1.058246	-0.320383
C33	C	-0.294788	-1.109693	-0.390853
C34	C	-0.880499	-1.462075	-0.562399
C35	C	-0.921791	-1.523356	-0.501246
C36	C	-1.016196	-1.517392	-0.507288
C37	C	-0.786086	-1.468037	-0.556359
C38	C	-0.184112	-1.506659	-0.517991
C39	C	-0.091447	-1.512641	-0.512101
C40	C	-0.401485	-1.492699	-0.805843
C41	C	-0.401451	-1.492732	-0.922617
C42	C	-0.401577	-0.766654	-0.531834
C43	C	-0.401573	-0.883431	-0.531823
C44	C	-0.294765	-1.634065	-1.135292
C45	C	-0.241467	-1.704682	-1.077049
C46	C	-0.241495	-1.704651	-0.967329
C47	C	-0.294828	-1.633997	-0.915850
C48	C	-0.348125	-1.563380	-0.974094
C49	C	-0.348090	-1.563417	-1.083816
C50	C	-0.454748	-1.422115	-0.980860
C51	C	-0.454718	-1.422140	-1.090580
C52	C	-0.508081	-1.351461	-0.929382
C53	C	-0.561376	-1.280837	-0.987625
C54	C	-0.561345	-1.280871	-1.097351
C55	C	-0.508015	-1.351523	-1.148824
C56	C	-0.401585	-1.492608	-0.258848
C57	C	-0.401385	-1.492794	-0.142059
H58	H	-0.508337	-1.185399	-0.672742
H59	H	-0.294726	-1.634085	-1.224631
H60	H	-0.605189	-1.079694	-0.800605
N61	N	-0.183949	-1.780889	-1.132570
H62	H	-0.192014	-1.770195	-1.210916
H63	H	-0.124412	-1.768375	-1.109606
N64	N	-0.618886	-1.204641	-0.932092
H65	H	-0.605922	-1.130416	-0.950350
H66	H	-0.678429	-1.217197	-0.954993
H67	H	-0.604750	-1.223370	-1.144767
H68	H	-0.605201	-0.880623	-0.800630
H69	H	-0.198097	-1.762155	-0.919907
H70	H	-0.508347	-0.787271	-0.672788
N71	N	-0.874711	-1.598785	-0.425883
H72	H	-0.812967	-1.592406	-0.432192
H73	H	-0.889940	-1.581524	-0.351791
H74	H	-0.197940	-0.906615	-0.263024
N75	N	-0.294806	-0.771905	-0.390874
H76	H	-0.336733	-0.742796	-0.446206
H77	H	-0.310034	-0.744564	-0.319698
H78	H	-0.916047	-1.405136	-0.619286
N79	N	-0.294870	-1.633973	-0.797511
H80	H	-0.253018	-1.689433	-0.768426
H81	H	-0.279573	-1.562849	-0.770180
N82	N	-0.294791	-1.228035	-0.390845
H83	H	-0.279541	-1.255475	-0.461980
H84	H	-0.252876	-1.257062	-0.335462
N85	N	-0.183809	-1.121093	-0.244379
H86	H	-0.149991	-1.071844	-0.199745
H87	H	-0.217686	-1.164416	-0.197832
N88	N	-0.508120	-1.351418	-0.811043
H89	H	-0.523455	-1.422491	-0.785588
H90	H	-0.450924	-1.335743	-0.781060
H91	H	-0.507980	-1.351551	-1.238163
