data_functionalizedCrystal
_audit_creation_method	'MofGen! by Chris Wilmer'
_symmetry_space_group_name_H-M	'P1'
_symmetry_Int_Tables_number	1
_symmetry_cell_setting	triclinic
loop_
_symmetry_equiv_pos_as_xyz
  x,y,z
_cell_length_a	16.109301
_cell_length_b	16.109304
_cell_length_c	15.186229
_cell_angle_alpha	90.000934
_cell_angle_beta	90.000638
_cell_angle_gamma	83.462059
loop_
_atom_site_label
_atom_site_type_symbol
_atom_site_fract_x
_atom_site_fract_y
_atom_site_fract_z
O1	O	1.103132	0.106866	0.073167
O2	O	1.603132	0.606866	0.573167
O3	O	0.861070	0.120165	0.073181
O4	O	1.361070	0.620165	0.573181
O5	O	0.988749	-0.007515	0.073174
O6	O	1.488749	0.492485	0.573174
O7	O	0.975452	0.234546	0.073174
O8	O	1.475452	0.734546	0.573174
O9	O	0.988741	-0.007517	-0.073283
O10	O	1.488741	0.492483	0.426717
O11	O	0.861061	0.120163	-0.073277
O12	O	1.361061	0.620163	0.426723
O13	O	1.103123	0.106864	-0.073290
O14	O	1.603123	0.606864	0.426710
Zn15	Zn	0.982091	0.113513	-0.096537
Zn16	Zn	1.482091	0.613513	0.403463
Zn17	Zn	0.982102	0.113516	0.096427
Zn18	Zn	1.482102	0.613516	0.596427
O19	O	0.975444	0.234545	-0.073283
O20	O	1.475444	0.734545	0.426717
C21	C	0.830091	0.119626	-0.000046
C22	C	1.330091	0.619626	0.499954
C23	C	0.737795	0.118010	-0.000041
C24	C	1.237795	0.618010	0.499959
C25	C	0.515524	0.190018	-0.000051
C26	C	1.015524	0.690018	0.499949
C27	C	0.428803	0.188494	-0.000057
C28	C	0.928803	0.688494	0.499943
C29	C	0.448676	0.037005	-0.000053
C30	C	0.948676	0.537005	0.499947
C31	C	0.535395	0.038530	-0.000054
C32	C	1.035395	0.538530	0.499946
C33	C	0.568816	0.115039	-0.000048
C34	C	1.068816	0.615039	0.499952
C35	C	0.395377	0.111990	-0.000053
C36	C	0.895377	0.611990	0.499947
C37	C	0.301351	0.110337	-0.000059
C38	C	0.801351	0.610337	0.499941
C39	C	0.662848	0.116693	-0.000044
C40	C	1.162848	0.616693	0.499956
C41	C	0.988206	-0.038491	-0.000052
C42	C	1.488206	0.461509	0.499948
C43	C	0.986590	-0.130786	-0.000046
C44	C	1.486590	0.369214	0.499954
C45	C	0.982861	-0.343123	0.079784
C46	C	1.482861	0.156877	0.579784
C47	C	0.981335	-0.429843	0.079784
C48	C	1.481335	0.070157	0.579784
C49	C	0.981330	-0.429842	-0.079892
C50	C	1.481330	0.070158	0.420108
C51	C	0.982850	-0.343122	-0.079890
C52	C	1.482850	0.156878	0.420110
C53	C	0.983620	-0.299766	-0.000050
C54	C	1.483620	0.200234	0.499950
C55	C	0.980573	-0.473205	-0.000052
C56	C	1.480573	0.026795	0.499948
C57	C	0.978919	-0.567231	-0.000053
C58	C	1.478919	-0.067231	0.499947
C59	C	0.985273	-0.205734	-0.000048
C60	C	1.485273	0.294266	0.499952
C61	C	1.134102	0.107404	-0.000061
C62	C	1.634102	0.607404	0.499939
C63	C	1.226398	0.109019	-0.000061
C64	C	1.726398	0.609019	0.499939
C65	C	0.975987	0.265520	-0.000055
C66	C	1.475987	0.765520	0.499945
C67	C	0.977603	0.357816	-0.000055
C68	C	1.477603	0.857816	0.499945
N69	N	0.982089	0.113511	-0.228229
N70	N	1.482089	0.613511	0.271771
C71	C	1.038645	0.056993	-0.453955
C72	C	1.538645	0.556993	0.046045
C73	C	1.038648	0.056991	-0.546145
C74	C	1.538648	0.556991	-0.046145
C75	C	0.925549	0.170032	-0.546148
C76	C	1.425549	0.670032	-0.046148
C77	C	0.925543	0.170029	-0.453960
C78	C	1.425543	0.670029	0.046040
C79	C	0.982096	0.113511	-0.407866
C80	C	1.482096	0.613511	0.092134
C81	C	0.982104	0.113512	-0.592243
C82	C	1.482104	0.613512	-0.092243
C83	C	0.982107	0.113510	-0.692200
C84	C	1.482107	0.613510	-0.192200
C85	C	0.982092	0.113511	-0.307903
C86	C	1.482092	0.613511	0.192097
N87	N	0.982110	0.113511	0.228120
N88	N	1.482110	0.613511	0.728120
H89	H	0.542732	0.252316	-0.000053
H90	H	1.042732	0.752316	0.499947
N91	N	0.864560	0.230987	-0.595871
N92	N	1.364560	0.730987	-0.095871
H93	H	0.896322	0.267810	-0.634113
H94	H	1.396322	0.767810	-0.134113
H95	H	0.828746	0.266734	-0.552630
H96	H	1.328746	0.766734	-0.052630
H97	H	0.980715	-0.465140	0.144792
H98	H	1.480715	0.034860	0.644792
N99	N	1.099626	-0.003965	-0.404226
N100	N	1.599626	0.496035	0.095774
H101	H	1.158632	0.005620	-0.420260
H102	H	1.658632	0.505620	0.079740
H103	H	1.089993	-0.062949	-0.420290
H104	H	1.589993	0.437051	0.079710
N105	N	0.371343	0.269377	-0.000095
N106	N	0.871343	0.769377	0.499905
H107	H	0.382085	0.302774	0.054186
H108	H	0.882085	0.802774	0.554186
H109	H	0.311353	0.256757	-0.000144
H110	H	0.811353	0.756757	0.499856
N111	N	0.592883	-0.042343	-0.000061
N112	N	1.092883	0.457657	0.499939
H113	H	0.558553	-0.091043	-0.000059
H114	H	1.058553	0.408957	0.499941
H115	H	0.629300	-0.045010	0.054230
H116	H	1.129300	0.454990	0.554230
N117	N	0.864541	0.230984	-0.404241
N118	N	1.364541	0.730984	0.095759
H119	H	0.828718	0.266791	-0.447429
H120	H	1.328718	0.766791	0.052571
H121	H	0.896352	0.267747	-0.365983
H122	H	1.396352	0.767747	0.134017
H123	H	0.983485	-0.307824	0.144796
H124	H	1.483485	0.192176	0.644796
N125	N	0.412629	-0.045511	-0.000063
N126	N	0.912629	0.454489	0.499937
H127	H	0.349606	-0.035102	-0.000063
H128	H	0.849606	0.464898	0.499937
H129	H	0.432126	-0.078322	0.054229
H130	H	0.932126	0.421678	0.554229
H131	H	0.980705	-0.465154	-0.144896
H132	H	1.480705	0.034846	0.355104
N133	N	0.983665	-0.296351	-0.166001
N134	N	1.483665	0.203649	0.333999
H135	H	0.982954	-0.336975	-0.216580
H136	H	1.482954	0.163025	0.283420
H137	H	1.035805	-0.267124	-0.169476
H138	H	1.535805	0.232876	0.330524
N139	N	1.099651	-0.003955	-0.595856
N140	N	1.599651	0.496045	-0.095856
H141	H	1.135478	-0.039753	-0.552664
H142	H	1.635478	0.460247	-0.052664
H143	H	1.136390	0.027901	-0.634095
H144	H	1.636390	0.527901	-0.134095
