data_functionalizedCrystal
_audit_creation_method	'MofGen! by Chris Wilmer'
_symmetry_space_group_name_H-M	'P1'
_symmetry_Int_Tables_number	1
_symmetry_cell_setting	triclinic
loop_
_symmetry_equiv_pos_as_xyz
  x,y,z
_cell_length_a	12.837943
_cell_length_b	10.654541
_cell_length_c	11.295483
_cell_angle_alpha	94.135029
_cell_angle_beta	85.461227
_cell_angle_gamma	89.656434
loop_
_atom_site_label
_atom_site_type_symbol
_atom_site_fract_x
_atom_site_fract_y
_atom_site_fract_z
O1	O	1.384727	0.319125	-0.099003
O2	O	1.082806	0.302983	-0.099010
O3	O	1.240709	0.129073	-0.098999
O4	O	1.226824	0.493035	-0.099014
O5	O	1.226840	0.144321	0.099051
O6	O	1.068937	0.318232	0.099040
O7	O	1.370858	0.334373	0.099047
Cu8	Cu	1.218631	0.327695	0.117127
Cu9	Cu	1.235033	0.309662	-0.117090
O10	O	1.212955	0.508284	0.099036
C11	C	1.037211	0.305155	0.000014
C12	C	0.922018	0.288892	0.000012
C13	C	0.682463	0.484397	0.000021
C14	C	0.574227	0.469123	0.000019
C15	C	0.597309	0.243071	0.000016
C16	C	0.705544	0.258345	0.000017
C17	C	0.748117	0.379012	0.000018
C18	C	0.856355	0.394285	0.000011
C19	C	0.879434	0.168234	0.000016
C20	C	0.771198	0.152960	0.000014
C21	C	1.232755	0.089788	0.000025
C22	C	1.229706	-0.049989	0.000023
C23	C	1.418522	-0.057353	0.000043
C24	C	1.511493	-0.126701	0.000055
C25	C	1.508622	-0.258033	0.000051
C26	C	1.412770	-0.320020	0.000031
C27	C	1.319799	-0.250672	0.000019
C28	C	1.322680	-0.119337	0.000027
C29	C	1.130987	-0.243308	-0.000009
C30	C	1.133855	-0.111975	0.000004
C31	C	1.035135	-0.305294	-0.000028
C32	C	0.942161	-0.235946	-0.000032
C33	C	0.945036	-0.104606	-0.000027
C34	C	1.040884	-0.042627	-0.000008
C35	C	1.416452	0.332202	0.000020
C36	C	1.531646	0.348464	0.000015
C37	C	1.220908	0.547569	0.000009
C38	C	1.223958	0.687344	0.000003
N39	N	1.207102	0.340379	0.281862
N40	N	1.246569	0.296969	-0.281825
C41	C	1.329558	0.205592	0.531160
C42	C	1.320854	0.215188	0.655823
C43	C	1.180983	0.369157	0.655854
C44	C	1.189688	0.359562	0.531191
C45	C	1.263979	0.277778	0.468848
C46	C	1.272688	0.268191	0.344183
C47	C	1.132814	0.422153	0.344216
C48	C	1.124109	0.431748	0.468879
H49	H	0.736519	0.054717	0.000027
H50	H	1.032805	-0.412232	-0.000039
H51	H	0.864127	-0.286427	-0.000055
O52	O	1.409658	0.117365	0.463899
H53	H	1.464433	0.171952	0.407078
O54	O	1.352806	0.179978	0.276934
H55	H	1.396935	0.131384	0.341213
H56	H	0.891016	0.492538	0.000013
O57	O	0.728387	0.614539	0.000026
H58	H	0.707727	0.659596	-0.080692
O59	O	1.043996	0.519965	0.536130
H60	H	0.999856	0.568548	0.471853
O61	O	1.391585	0.137332	0.723037
H62	H	1.438415	0.200684	0.779826
H63	H	0.562620	0.144837	0.000113
H64	H	1.410442	-0.426958	0.000014
H65	H	0.520775	0.554939	0.000025
O66	O	1.100859	0.457362	0.723102
H67	H	1.105831	0.451906	0.820256
H68	H	0.932903	0.082421	0.000006
O69	O	1.421609	0.084299	0.000064
H70	H	1.468776	0.111144	-0.080650
H71	H	1.589533	-0.076216	0.000081
H72	H	1.079417	0.480935	0.293467
H73	H	0.869327	-0.048151	-0.000042
H74	H	1.584328	-0.314497	0.000051
H75	H	1.043233	0.064310	0.000003
