data_functionalizedCrystal
_audit_creation_method	'MofGen! by Chris Wilmer'
_symmetry_space_group_name_H-M	'P1'
_symmetry_Int_Tables_number	1
_symmetry_cell_setting	triclinic
loop_
_symmetry_equiv_pos_as_xyz
  x,y,z
_cell_length_a	15.944493
_cell_length_b	15.944551
_cell_length_c	15.021413
_cell_angle_alpha	90.003065
_cell_angle_beta	89.993251
_cell_angle_gamma	83.486891
loop_
_atom_site_label
_atom_site_type_symbol
_atom_site_fract_x
_atom_site_fract_y
_atom_site_fract_z
O1	O	1.114559	0.108089	-0.074022
O2	O	0.870003	0.121496	-0.074027
O3	O	0.998959	-0.007484	-0.074016
O4	O	0.985603	0.237069	-0.074033
O5	O	0.998939	-0.007465	0.074048
O6	O	0.869982	0.121514	0.074037
O7	O	1.114539	0.108107	0.074042
Zn8	Zn	0.992257	0.114814	0.097548
Zn9	Zn	0.992284	0.114790	-0.097533
O10	O	0.985582	0.237087	0.074032
C11	C	0.838698	0.120957	0.000005
C12	C	0.745449	0.119314	0.000003
C13	C	0.509689	0.195235	-0.000002
C14	C	0.459121	0.154303	0.073008
C15	C	0.574728	0.116270	0.000005
C16	C	0.459146	0.154266	-0.072972
C17	C	0.409819	0.113336	0.000003
C18	C	0.525388	0.075360	0.073075
C19	C	0.525416	0.075334	-0.072970
C20	C	0.474880	0.034345	0.000058
C21	C	0.669728	0.117963	0.000007
C22	C	0.314821	0.111637	0.000008
C23	C	0.998395	-0.038768	0.000016
C24	C	0.996732	-0.132014	0.000016
C25	C	0.912826	-0.346853	0.000003
C26	C	0.951779	-0.407870	0.073008
C27	C	0.993725	-0.302739	0.000010
C28	C	0.951818	-0.407871	-0.072972
C29	C	0.990814	-0.467651	-0.000001
C30	C	1.032700	-0.362527	0.073075
C31	C	1.032728	-0.362523	-0.072970
C32	C	1.071741	-0.423521	0.000053
C33	C	0.995399	-0.207737	0.000016
C34	C	0.989146	-0.562652	-0.000001
C35	C	1.145844	0.108646	0.000009
C36	C	1.239092	0.110289	0.000004
C37	C	0.986147	0.268372	-0.000003
C38	C	0.987809	0.361617	-0.000009
N39	N	0.992245	0.114830	0.230686
N40	N	0.992303	0.114767	-0.230670
C41	C	0.932606	0.174442	0.470364
C42	C	1.008509	0.190733	0.529699
C43	C	0.992266	0.114809	0.412293
C44	C	0.916385	0.098536	0.529700
C45	C	0.992280	0.114791	0.587717
C46	C	1.068207	0.131138	0.470321
C47	C	0.976033	0.038908	0.470317
C48	C	1.051990	0.055167	0.529624
C49	C	0.992257	0.114822	0.311235
C50	C	0.992298	0.114777	0.688772
H51	H	0.430216	0.187622	-0.134688
H52	H	0.962266	-0.025251	0.444213
H53	H	1.066925	-0.342407	-0.134692
H54	H	0.554371	0.042004	-0.134692
H55	H	0.917553	-0.427963	0.134727
H56	H	0.852207	0.084781	0.555785
O57	O	1.024786	0.267295	0.560932
C58	C	0.956623	0.302348	0.613872
H59	H	0.920437	0.249722	0.639892
H60	H	0.981646	0.337618	0.672412
H61	H	0.912669	0.348049	0.572124
O62	O	0.424550	0.193957	0.146696
C63	C	0.383406	0.136578	0.197589
H64	H	0.411312	0.069323	0.181290
H65	H	0.392497	0.149381	0.271427
H66	H	0.313139	0.144634	0.181207
O67	O	0.910883	-0.431721	-0.146578
C68	C	0.827128	-0.392309	-0.146287
H69	H	0.823096	-0.332904	-0.103548
H70	H	0.807003	-0.374603	-0.217285
H71	H	0.783559	-0.437548	-0.117796
O72	O	0.832704	-0.307132	0.000240
C73	C	0.790346	-0.330112	0.077346
H74	H	0.838558	-0.352106	0.130879
H75	H	0.747135	-0.273315	0.102822
H76	H	0.751093	-0.383496	0.060689
H77	H	1.102504	0.004726	0.555481
H78	H	1.138950	-0.456694	0.000096
O79	O	1.073531	-0.338834	0.146818
C80	C	1.100516	-0.410730	0.198402
H81	H	1.106057	-0.469222	0.154207
H82	H	1.164627	-0.403348	0.229157
H83	H	1.052687	-0.417757	0.253554
O84	O	0.872568	0.234758	0.439353
C85	C	0.890007	0.314668	0.469631
H86	H	0.959994	0.312288	0.486266
H87	H	0.873161	0.363669	0.415362
H88	H	0.850969	0.332667	0.531746
H89	H	1.132399	0.144970	0.444348
H90	H	0.554207	0.042040	0.134861
O91	O	0.528302	0.276389	0.000231
C92	C	0.494357	0.317737	0.077337
H93	H	0.485050	0.268969	0.130872
H94	H	0.539605	0.362755	0.102809
H95	H	0.430971	0.354923	0.060681
H96	H	0.459415	-0.033726	0.000105
