data_functionalizedCrystal
_audit_creation_method	'MofGen! by Chris Wilmer'
_symmetry_space_group_name_H-M	'P1'
_symmetry_Int_Tables_number	1
_symmetry_cell_setting	triclinic
loop_
_symmetry_equiv_pos_as_xyz
  x,y,z
_cell_length_a	15.298530
_cell_length_b	13.032831
_cell_length_c	13.033255
_cell_angle_alpha	76.666554
_cell_angle_beta	91.339298
_cell_angle_gamma	88.690182
loop_
_atom_site_label
_atom_site_type_symbol
_atom_site_fract_x
_atom_site_fract_y
_atom_site_fract_z
Zn1	Zn	0.603830	1.561599	-0.667851
Zn2	Zn	1.103830	2.061599	-0.167851
Zn3	Zn	0.726573	1.510781	-0.462075
Zn4	Zn	1.226573	2.010781	0.037925
Zn5	Zn	0.562054	1.371009	-0.477333
Zn6	Zn	1.062054	1.871009	0.022667
Zn7	Zn	0.726496	1.355810	-0.617134
Zn8	Zn	1.226496	1.855810	-0.117134
O9	O	0.654738	1.449800	-0.556099
O10	O	1.154738	1.949800	-0.056099
O11	O	0.637628	1.699476	-0.655394
O12	O	1.137628	2.199476	-0.155394
O13	O	0.687298	1.477333	-0.319474
O14	O	1.187298	1.977333	0.180526
O15	O	0.447407	1.423919	-0.530217
O16	O	0.947407	1.923919	-0.030217
O17	O	0.727806	1.662140	-0.504212
O18	O	1.227806	2.162140	-0.004212
O19	O	0.478100	1.563944	-0.670189
O20	O	0.978100	2.063944	-0.170189
O21	O	0.566426	1.374643	-0.330684
O22	O	1.066426	1.874643	0.169316
O23	O	0.566351	1.224375	-0.481038
O24	O	1.066351	1.724375	0.018962
O25	O	0.727675	1.398015	-0.768487
O26	O	1.227675	1.898015	-0.268487
O27	O	0.687166	1.213208	-0.583750
O28	O	1.187166	1.713208	-0.083750
O29	O	0.637553	1.549207	-0.805749
O30	O	1.137553	2.049207	-0.305749
O31	O	0.846751	1.462596	-0.455033
O32	O	1.346751	1.962596	0.044967
O33	O	0.846694	1.348740	-0.568955
O34	O	1.346694	1.848740	-0.068955
C35	C	0.622218	1.181293	-0.528547
C36	C	1.122218	1.681293	-0.028547
C37	C	0.608329	1.066423	-0.516780
C38	C	1.108329	1.566423	-0.016780
C39	C	0.430719	1.501296	-0.607562
C40	C	0.930719	2.001296	-0.107562
C41	C	0.335255	1.523240	-0.629493
C42	C	0.835255	2.023240	-0.129493
C43	C	0.661987	1.009684	-0.562240
C44	C	1.161987	1.509684	-0.062240
C45	C	0.647633	0.890959	-0.550079
C46	C	1.147633	1.390959	-0.050079
C47	C	0.002239	1.293488	-0.399801
C48	C	0.502239	1.793488	0.100199
C49	C	0.091931	1.272872	-0.379189
C50	C	0.591931	1.772872	0.120811
C51	C	0.152767	1.335462	-0.441763
C52	C	0.652767	1.835462	0.058237
C53	C	0.123901	1.418672	-0.524953
C54	C	0.623901	1.918672	-0.024953
C55	C	0.034200	1.439295	-0.545562
C56	C	0.534200	1.939295	-0.045562
C57	C	0.184728	1.481269	-0.587525
C58	C	0.684728	1.981269	-0.087525
C59	C	0.155862	1.564480	-0.670714
C60	C	0.655862	2.064480	-0.170714
C61	C	0.066170	1.585099	-0.691320
C62	C	0.566170	2.085099	-0.191320
C63	C	0.005335	1.522509	-0.628746
C64	C	0.505335	2.022509	-0.128746
C65	C	0.274429	1.460646	-0.566916
C66	C	0.774429	1.960646	-0.066916
C67	C	0.306390	1.606453	-0.712677
C68	C	0.806390	2.106453	-0.212677
C69	C	0.216698	1.627070	-0.733289
C70	C	0.716698	2.127070	-0.233289
C71	C	0.877892	1.398534	-0.504860
C72	C	1.377892	1.898534	-0.004860
C73	C	0.973373	1.376701	-0.482985
C74	C	1.473373	1.876701	0.017015
C75	C	0.687265	1.477584	-0.825666
C76	C	1.187265	1.977584	-0.325666
C77	C	0.701126	1.489425	-0.940540
C78	C	1.201126	1.989425	-0.440540
C79	C	0.687386	1.719354	-0.583758
C80	C	1.187386	2.219354	-0.083758
C81	C	0.701298	1.834222	-0.595545
C82	C	1.201298	2.334222	-0.095545
C83	C	0.661826	1.456138	-1.116035
C84	C	1.161826	1.956138	-0.616035
C85	C	0.647497	1.443893	-0.997306
C86	C	1.147497	1.943893	-0.497306
C87	C	0.622283	1.422197	-0.287600
C88	C	1.122283	1.922197	0.212400
C89	C	0.608204	1.410612	-0.172803
C90	C	1.108204	1.910612	0.327197
H91	H	0.718548	1.049004	-0.610167
H92	H	1.218548	1.549004	-0.110167
Cl93	Cl	0.180398	1.731672	-0.837868
Cl94	Cl	0.680398	2.231672	-0.337868
H95	H	-0.047297	1.242539	-0.348855
H96	H	0.452703	1.742539	0.151145
Cl97	Cl	-0.107427	1.548219	-0.654859
Cl98	Cl	0.392573	2.048219	-0.154859
H99	H	0.042669	1.652861	-0.759050
H100	H	0.542669	2.152861	-0.259050
H101	H	0.355923	1.657421	-0.763628
H102	H	0.855923	2.157421	-0.263628
Cl103	Cl	0.788394	1.563599	-1.001193
Cl104	Cl	1.288394	2.063599	-0.501193
H105	H	0.590978	1.395844	-0.958013
H106	H	1.090978	1.895844	-0.458013
Cl107	Cl	0.520947	1.336430	-1.112139
Cl108	Cl	1.020947	1.836430	-0.612139
H109	H	0.551763	1.027105	-0.468862
H110	H	1.051763	1.527105	0.031138
Cl111	Cl	0.560292	0.830269	-0.476090
Cl112	Cl	1.060292	1.330269	0.023910
H113	H	0.757862	0.873537	-0.643479
H114	H	1.257862	1.373537	-0.143479
Cl115	Cl	0.310706	1.356041	-0.462339
Cl116	Cl	0.810706	1.856041	0.037661
H117	H	0.225797	1.318671	-0.424976
H118	H	0.725797	1.818671	0.075024
H119	H	0.115427	1.205123	-0.311454
H120	H	0.615427	1.705123	0.188546
Cl121	Cl	0.749091	1.530305	-1.176694
Cl122	Cl	1.249091	2.030305	-0.676694
