data_functionalizedCrystal
_audit_creation_method	'MofGen! by Chris Wilmer'
_symmetry_space_group_name_H-M	'P1'
_symmetry_Int_Tables_number	1
_symmetry_cell_setting	triclinic
loop_
_symmetry_equiv_pos_as_xyz
  x,y,z
_cell_length_a	16.109301
_cell_length_b	19.188930
_cell_length_c	14.586319
_cell_angle_alpha	89.991095
_cell_angle_beta	89.999213
_cell_angle_gamma	83.303131
loop_
_atom_site_label
_atom_site_type_symbol
_atom_site_fract_x
_atom_site_fract_y
_atom_site_fract_z
O1	O	1.102833	0.089744	-0.076193
O2	O	1.602833	0.589744	0.423807
O3	O	0.860734	0.100912	-0.076209
O4	O	1.360734	0.600912	0.423791
O5	O	0.988770	-0.006311	-0.076182
O6	O	1.488770	0.493689	0.423818
O7	O	0.974797	0.196968	-0.076219
O8	O	1.474797	0.696968	0.423781
O9	O	0.988762	-0.006313	0.076298
O10	O	1.488762	0.493687	0.576298
O11	O	0.860726	0.100911	0.076272
O12	O	1.360726	0.600911	0.576272
O13	O	1.102825	0.089742	0.076288
O14	O	1.602825	0.589742	0.576288
Cu15	Cu	0.981774	0.095326	0.090203
Cu16	Cu	1.481774	0.595326	0.590203
Cu17	Cu	0.981785	0.095328	-0.090124
Cu18	Cu	1.481785	0.595328	0.409876
O19	O	0.974789	0.196966	0.076262
O20	O	1.474789	0.696966	0.576262
C21	C	0.829757	0.100459	0.000030
C22	C	1.329757	0.600459	0.500030
C23	C	0.737466	0.099103	0.000025
C24	C	1.237466	0.599103	0.500025
C25	C	0.514993	0.159573	0.000024
C26	C	1.014993	0.659573	0.500024
C27	C	0.428277	0.158294	0.000030
C28	C	0.928277	0.658294	0.500030
C29	C	0.448573	0.031076	0.000050
C30	C	0.948573	0.531076	0.500050
C31	C	0.535287	0.032357	0.000050
C32	C	1.035287	0.532357	0.500050
C33	C	0.568495	0.096608	0.000033
C34	C	1.068495	0.596608	0.500033
C35	C	0.395064	0.094047	0.000038
C36	C	0.895064	0.594047	0.500038
C37	C	0.301043	0.092659	0.000045
C38	C	0.801043	0.592659	0.500045
C39	C	0.662522	0.097996	0.000028
C40	C	1.162522	0.597996	0.500028
C41	C	0.988313	-0.032324	0.000061
C42	C	1.488313	0.467676	0.500061
C43	C	0.986955	-0.109832	0.000068
C44	C	1.486955	0.390168	0.500068
C45	C	1.062082	-0.154580	0.000078
C46	C	1.562082	0.345420	0.500078
C47	C	1.060806	-0.227407	0.000063
C48	C	1.560806	0.272593	0.500063
C49	C	0.984399	-0.255482	0.000057
C50	C	1.484399	0.244518	0.500057
C51	C	0.909261	-0.210724	0.000043
C52	C	1.409261	0.289276	0.500043
C53	C	0.910540	-0.137899	0.000048
C54	C	1.410540	0.362101	0.500048
N55	N	0.925991	-0.363624	0.051945
N56	N	1.425991	0.136376	0.551945
N57	N	0.924782	-0.432805	0.051942
N58	N	1.424782	0.067195	0.551942
C59	C	0.980543	-0.474900	0.000038
C60	C	1.480543	0.025100	0.500038
N61	N	1.037571	-0.445200	-0.051850
N62	N	1.537571	0.054800	0.448150
N63	N	1.038783	-0.376013	-0.051843
N64	N	1.538783	0.123987	0.448157
C65	C	0.983004	-0.334448	0.000051
C66	C	1.483004	0.165552	0.500051
C67	C	1.054292	-0.598616	0.000030
C68	C	1.554292	-0.098616	0.500030
C69	C	1.053012	-0.671443	0.000010
C70	C	1.553012	-0.171443	0.500010
C71	C	0.901465	-0.654759	-0.000001
C72	C	1.401465	-0.154759	0.499999
C73	C	0.902747	-0.581933	0.000010
C74	C	1.402747	-0.081933	0.500010
C75	C	0.979162	-0.553866	0.000030
C76	C	1.479162	-0.053866	0.500030
C77	C	1.133802	0.090196	0.000047
C78	C	1.633802	0.590196	0.500047
C79	C	1.226093	0.091552	0.000046
C80	C	1.726093	0.591552	0.500046
C81	C	0.975246	0.222979	0.000017
C82	C	1.475246	0.722979	0.500017
C83	C	0.976604	0.300486	0.000003
C84	C	1.476604	0.800486	0.500003
N85	N	0.981773	0.095325	0.217034
N86	N	1.481773	0.595325	0.717034
N87	N	0.981793	0.095325	-0.216955
N88	N	1.481793	0.595325	0.283045
C89	C	1.038486	0.047862	0.452052
C90	C	1.538486	0.547862	0.952052
C91	C	1.038488	0.047860	0.548034
C92	C	1.538488	0.547860	1.048034
C93	C	0.925074	0.142790	0.548020
C94	C	1.425074	0.642790	1.048020
C95	C	0.925068	0.142787	0.452040
C96	C	1.425068	0.642787	0.952040
C97	C	0.981779	0.095324	0.404059
C98	C	1.481779	0.595324	0.904059
C99	C	0.981787	0.095325	0.596020
C100	C	1.481787	0.595325	1.096020
C101	C	0.981789	0.095323	0.700087
C102	C	1.481789	0.595323	1.200087
C103	C	0.981776	0.095325	0.299985
C104	C	1.481776	0.595325	0.799985
H105	H	0.384719	0.209567	0.000025
H106	H	0.884719	0.709567	0.500025
N107	N	1.141845	-0.275676	0.000085
N108	N	1.641845	0.224324	0.500085
H109	H	1.144678	-0.306268	0.056611
H110	H	1.644678	0.193732	0.556611
H111	H	1.144657	-0.306213	-0.056476
H112	H	1.644657	0.193787	0.443524
N113	N	1.099662	-0.003321	0.599799
N114	N	1.599662	0.496679	1.099799
H115	H	1.135589	-0.033383	0.554836
H116	H	1.635589	0.466617	1.054836
H117	H	1.136312	0.023431	0.639605
H118	H	1.636312	0.523431	1.139605
N119	N	0.826849	-0.240999	0.000032
N120	N	1.326849	0.259001	0.500032
H121	H	0.837438	-0.293925	0.000032
H122	H	1.337438	0.206075	0.500032
H123	H	0.793980	-0.224635	0.056555
H124	H	1.293980	0.275365	0.556555
N125	N	1.134045	-0.719714	0.000021
N126	N	1.634045	-0.219714	0.500021
H127	H	1.167404	-0.710677	-0.056494
H128	H	1.667404	-0.210677	0.443506
H129	H	1.167316	-0.710675	0.056593
H130	H	1.667316	-0.210675	0.556593
N131	N	0.821716	-0.533663	0.000006
N132	N	1.321716	-0.033663	0.500006
H133	H	0.773117	-0.562496	0.000000
H134	H	1.273117	-0.062496	0.500000
H135	H	0.818943	-0.503093	0.056534
H136	H	1.318943	-0.003093	0.556534
H137	H	0.878902	0.181434	0.587096
H138	H	1.378902	0.681434	1.087096
H139	H	1.084662	0.009214	0.412988
H140	H	1.584662	0.509214	0.912988
N141	N	0.550805	0.228872	0.000008
N142	N	1.050805	0.728872	0.500008
H143	H	0.531277	0.256454	0.056529
H144	H	1.031277	0.756454	0.556529
H145	H	0.613851	0.220075	-0.000029
H146	H	1.113851	0.720075	0.499971
H147	H	0.578851	-0.018920	0.000059
H148	H	1.078851	0.481080	0.500059
N149	N	0.412756	-0.038220	0.000073
N150	N	0.912756	0.461780	0.500073
H151	H	0.349704	-0.029478	0.000071
H152	H	0.849704	0.470522	0.500071
H153	H	0.432345	-0.065774	-0.056447
H154	H	0.932345	0.434226	0.443553
N155	N	1.144498	-0.124308	0.000098
N156	N	1.644498	0.375692	0.500098
H157	H	1.191898	-0.163711	0.000101
H158	H	1.691898	0.336289	0.500101
H159	H	1.148336	-0.094447	-0.056427
H160	H	1.648336	0.405553	0.443573
H161	H	1.116514	-0.575763	0.000042
H162	H	1.616514	-0.075763	0.500042
N163	N	0.863906	0.193987	0.400271
N164	N	1.363906	0.693987	0.900271
H165	H	0.872507	0.186781	0.332188
H166	H	1.372507	0.686781	0.832188
H167	H	0.804959	0.185908	0.417054
H168	H	1.304959	0.685908	0.917054
N169	N	0.829507	-0.089629	0.000038
N170	N	1.329507	0.410371	0.500038
H171	H	0.780906	-0.118462	0.000029
H172	H	1.280906	0.381538	0.500029
H173	H	0.826732	-0.059061	0.056568
H174	H	1.326732	0.440939	0.556568
H175	H	0.839253	-0.677617	-0.000010
H176	H	1.339253	-0.177617	0.499990
