data_functionalizedCrystal
_audit_creation_method	'MofGen! by Chris Wilmer'
_symmetry_space_group_name_H-M	'P1'
_symmetry_Int_Tables_number	1
_symmetry_cell_setting	triclinic
loop_
_symmetry_equiv_pos_as_xyz
  x,y,z
_cell_length_a	16.120484
_cell_length_b	16.120530
_cell_length_c	16.120297
_cell_angle_alpha	89.871860
_cell_angle_beta	95.614431
_cell_angle_gamma	89.832673
loop_
_atom_site_label
_atom_site_type_symbol
_atom_site_fract_x
_atom_site_fract_y
_atom_site_fract_z
Zn1	Zn	-0.422264	-1.224987	-0.554813
Zn2	Zn	-0.172264	-0.974987	-0.304813
Zn3	Zn	0.077736	-0.724987	-0.054813
Zn4	Zn	0.327736	-0.474987	0.195187
Zn5	Zn	-0.554948	-1.224883	-0.422118
Zn6	Zn	-0.304948	-0.974883	-0.172118
Zn7	Zn	-0.054948	-0.724883	0.077882
Zn8	Zn	0.195052	-0.474883	0.327882
Zn9	Zn	-0.408180	-1.093726	-0.408056
Zn10	Zn	-0.158180	-0.843726	-0.158056
Zn11	Zn	0.091820	-0.593726	0.091944
Zn12	Zn	0.341820	-0.343726	0.341944
Zn13	Zn	-0.554181	-1.078880	-0.554051
Zn14	Zn	-0.304181	-0.828880	-0.304051
Zn15	Zn	-0.054181	-0.578880	-0.054051
Zn16	Zn	0.195819	-0.328880	0.195949
O17	O	-0.484893	-1.155619	-0.484760
O18	O	-0.234893	-0.905619	-0.234760
O19	O	0.015107	-0.655619	0.015240
O20	O	0.265107	-0.405619	0.265240
O21	O	-0.446081	-1.341009	-0.543415
O22	O	-0.196081	-1.091009	-0.293415
O23	O	0.053919	-0.841009	-0.043415
O24	O	0.303919	-0.591009	0.206585
O25	O	-0.529906	-1.213654	-0.303620
O26	O	-0.279906	-0.963654	-0.053620
O27	O	-0.029906	-0.713654	0.196380
O28	O	0.220094	-0.463654	0.446380
O29	O	-0.293418	-1.117395	-0.421958
O30	O	-0.043418	-0.867395	-0.171958
O31	O	0.206582	-0.617395	0.078042
O32	O	0.456582	-0.367395	0.328042
O33	O	-0.543563	-1.340932	-0.445925
O34	O	-0.293563	-1.090932	-0.195925
O35	O	-0.043563	-0.840932	0.054075
O36	O	0.206437	-0.590932	0.304075
O37	O	-0.303765	-1.213832	-0.529780
O38	O	-0.053765	-0.963832	-0.279780
O39	O	0.196235	-0.713832	-0.029780
O40	O	0.446235	-0.463832	0.220220
O41	O	-0.422076	-1.117294	-0.293289
O42	O	-0.172076	-0.867294	-0.043289
O43	O	0.077924	-0.617294	0.206711
O44	O	0.327924	-0.367294	0.456711
O45	O	-0.421332	-0.975721	-0.421218
O46	O	-0.171332	-0.725721	-0.171218
O47	O	0.078668	-0.475721	0.078782
O48	O	0.328668	-0.225721	0.328782
O49	O	-0.542255	-1.092092	-0.670785
O50	O	-0.292255	-0.842092	-0.420785
O51	O	-0.042255	-0.592092	-0.170785
O52	O	0.207745	-0.342092	0.079215
O53	O	-0.528598	-0.964814	-0.528480
O54	O	-0.278598	-0.714814	-0.278480
O55	O	-0.028598	-0.464814	-0.028480
O56	O	0.221402	-0.214814	0.221520
O57	O	-0.445336	-1.199436	-0.671345
O58	O	-0.195336	-0.949436	-0.421345
O59	O	0.054664	-0.699436	-0.171345
O60	O	0.304664	-0.449436	0.078655
O61	O	-0.671477	-1.199258	-0.445185
O62	O	-0.421477	-0.949258	-0.195185
O63	O	-0.171477	-0.699258	0.054815
O64	O	0.078523	-0.449258	0.304815
O65	O	-0.670913	-1.091990	-0.542116
O66	O	-0.420913	-0.841990	-0.292116
O67	O	-0.170913	-0.591990	-0.042116
O68	O	0.079087	-0.341990	0.207884
C69	C	-0.701438	-1.144023	-0.495113
C70	C	-0.451438	-0.894023	-0.245113
C71	C	-0.201438	-0.644023	0.004887
C72	C	0.048562	-0.394023	0.254887
C73	C	-0.794083	-1.139137	-0.499574
C74	C	-0.544083	-0.889137	-0.249574
C75	C	-0.294083	-0.639137	0.000426
C76	C	-0.044083	-0.389137	0.250426
C77	C	-0.473354	-0.940181	-0.473241
C78	C	-0.223354	-0.690181	-0.223241
C79	C	0.026646	-0.440181	0.026759
C80	C	0.276646	-0.190181	0.276759
C81	C	-0.468438	-0.848013	-0.468334
C82	C	-0.218438	-0.598013	-0.218334
C83	C	0.031562	-0.348013	0.031666
C84	C	0.281562	-0.098013	0.281666
C85	C	-0.495281	-1.144119	-0.702152
C86	C	-0.245281	-0.894119	-0.452152
C87	C	0.004719	-0.644119	-0.202152
C88	C	0.254719	-0.394119	0.047848
C89	C	-0.499708	-1.139219	-0.794791
C90	C	-0.249708	-0.889219	-0.544791
C91	C	0.000292	-0.639219	-0.294791
C92	C	0.250292	-0.389219	-0.044791
C93	C	-0.963706	-1.130220	-0.507736
C94	C	-0.713706	-0.880220	-0.257736
C95	C	-0.463706	-0.630220	-0.007736
C96	C	-0.213706	-0.380220	0.242264
C97	C	-1.005249	-1.181166	-0.461804
C98	C	-0.755249	-0.931166	-0.211804
C99	C	-0.505249	-0.681166	0.038196
C100	C	-0.255249	-0.431166	0.288196
C101	C	-1.099633	-1.176204	-0.466346
C102	C	-0.849633	-0.926204	-0.216346
C103	C	-0.599633	-0.676204	0.033654
C104	C	-0.349633	-0.426204	0.283654
C105	C	-0.869313	-1.135180	-0.503196
C106	C	-0.619313	-0.885180	-0.253196
C107	C	-0.369313	-0.635180	-0.003196
C108	C	-0.119313	-0.385180	0.246804
C109	C	-0.267505	-1.167282	-0.474385
C110	C	-0.017505	-0.917282	-0.224385
C111	C	0.232495	-0.667282	0.025615
C112	C	0.482495	-0.417282	0.275615
C113	C	-0.174867	-1.172251	-0.469964
C114	C	0.075133	-0.922251	-0.219964
C115	C	0.325133	-0.672251	0.030036
C116	C	0.575133	-0.422251	0.280036
C117	C	-0.496479	-1.371899	-0.496324
C118	C	-0.246479	-1.121899	-0.246324
C119	C	0.003521	-0.871899	0.003676
C120	C	0.253521	-0.621899	0.253676
C121	C	-0.501416	-1.464064	-0.501252
C122	C	-0.251416	-1.214064	-0.251252
C123	C	-0.001416	-0.964064	-0.001252
C124	C	0.248584	-0.714064	0.248748
C125	C	-0.459445	-0.679262	-0.459381
C126	C	-0.209445	-0.429262	-0.209381
C127	C	0.040555	-0.179262	0.040619
C128	C	0.290555	0.070738	0.290619
C129	C	-0.510407	-0.632810	-0.510202
C130	C	-0.260407	-0.382810	-0.260202
C131	C	-0.010407	-0.132810	-0.010202
C132	C	0.239593	0.117190	0.239798
C133	C	-0.505403	-0.538911	-0.505220
C134	C	-0.255403	-0.288911	-0.255220
C135	C	-0.005403	-0.038911	-0.005220
C136	C	0.244597	0.211089	0.244780
C137	C	-0.464448	-0.773169	-0.464361
C138	C	-0.214448	-0.523169	-0.214361
C139	C	0.035552	-0.273169	0.035639
C140	C	0.285552	-0.023169	0.285639
C141	C	-0.507770	-1.130243	-0.964403
C142	C	-0.257770	-0.880243	-0.714403
C143	C	-0.007770	-0.630243	-0.464403
C144	C	0.242230	-0.380243	-0.214403
C145	C	-0.461776	-1.181172	-1.005965
C146	C	-0.211776	-0.931172	-0.755965
C147	C	0.038224	-0.681172	-0.505965
C148	C	0.288224	-0.431172	-0.255965
C149	C	-0.466262	-1.176177	-1.100342
C150	C	-0.216262	-0.926177	-0.850342
C151	C	0.033738	-0.676177	-0.600342
C152	C	0.283738	-0.426177	-0.350342
C153	C	-0.503285	-1.135236	-0.870017
C154	C	-0.253285	-0.885236	-0.620017
C155	C	-0.003285	-0.635236	-0.370017
C156	C	0.246715	-0.385236	-0.120017
C157	C	-0.474489	-1.167125	-0.268213
C158	C	-0.224489	-0.917125	-0.018213
C159	C	0.025511	-0.667125	0.231787
C160	C	0.275511	-0.417125	0.481787
C161	C	-0.469836	-1.172198	-0.175571
C162	C	-0.219836	-0.922198	0.074429
C163	C	0.030164	-0.672198	0.324429
C164	C	0.280164	-0.422198	0.574429
H165	H	-0.969931	-1.228508	-0.419069
H166	H	-0.719931	-0.978508	-0.169069
H167	H	-0.469931	-0.728508	0.080931
H168	H	-0.219931	-0.478508	0.330931
H169	H	-0.557794	-0.663563	-0.557453
H170	H	-0.307794	-0.413563	-0.307453
H171	H	-0.057794	-0.163563	-0.057453
H172	H	0.192206	0.086437	0.192547
H173	H	-0.412060	-0.648511	-0.412135
H174	H	-0.162060	-0.398511	-0.162135
H175	H	0.087940	-0.148511	0.087865
H176	H	0.337940	0.101489	0.337865
H177	H	-0.550512	-1.082894	-0.999698
H178	H	-0.300512	-0.832894	-0.749698
H179	H	-0.050512	-0.582894	-0.499698
H180	H	0.199488	-0.332894	-0.249698
H181	H	-0.419031	-1.228524	-0.970668
H182	H	-0.169031	-0.978524	-0.720668
H183	H	0.080969	-0.728524	-0.470668
H184	H	0.330969	-0.478524	-0.220668
Br185	Br	-1.022568	-1.051316	-0.578960
Br186	Br	-0.772568	-0.801316	-0.328960
Br187	Br	-0.522568	-0.551316	-0.078960
Br188	Br	-0.272568	-0.301316	0.171040
