data_functionalizedCrystal
_audit_creation_method	'MofGen! by Chris Wilmer'
_symmetry_space_group_name_H-M	'P1'
_symmetry_Int_Tables_number	1
_symmetry_cell_setting	triclinic
loop_
_symmetry_equiv_pos_as_xyz
  x,y,z
_cell_length_a	15.944551
_cell_length_b	19.188930
_cell_length_c	15.021413
_cell_angle_alpha	89.998889
_cell_angle_beta	89.997174
_cell_angle_gamma	83.321760
loop_
_atom_site_label
_atom_site_type_symbol
_atom_site_fract_x
_atom_site_fract_y
_atom_site_fract_z
O1	O	1.114192	0.090039	-0.073949
O2	O	0.869601	0.101141	-0.073973
O3	O	0.998955	-0.006048	-0.073943
O4	O	0.984838	0.197227	-0.073979
O5	O	0.998934	-0.006033	0.074121
O6	O	0.869580	0.101156	0.074091
O7	O	1.114171	0.090054	0.074115
Zn8	Zn	0.991873	0.095607	0.097611
Zn9	Zn	0.991900	0.095587	-0.097470
O10	O	0.984817	0.197242	0.074085
C11	C	0.838298	0.100687	0.000056
C12	C	0.745057	0.099306	0.000048
C13	C	0.530462	0.029563	0.000078
C14	C	0.469331	0.061941	-0.072931
C15	C	0.574341	0.096806	0.000059
C16	C	0.469332	0.061972	0.073048
C17	C	0.409437	0.094386	0.000074
C18	C	0.514438	0.129203	-0.073010
C19	C	0.514446	0.129225	0.073035
C20	C	0.453332	0.161652	0.000008
C21	C	0.669338	0.098198	0.000050
C22	C	0.314441	0.093000	0.000076
C23	C	0.998487	-0.032052	0.000091
C24	C	0.997115	-0.109560	0.000099
C25	C	1.073016	-0.154288	0.000111
C26	C	1.071726	-0.227115	0.000096
C27	C	0.994532	-0.255211	0.000088
C28	C	0.918622	-0.210474	0.000072
C29	C	0.919913	-0.137648	0.000077
N30	N	0.935519	-0.363364	0.050472
N31	N	0.934298	-0.432546	0.050468
C32	C	0.990637	-0.474630	0.000070
N33	N	1.048256	-0.444921	-0.050314
N34	N	1.049480	-0.375733	-0.050307
C35	C	0.993123	-0.334178	0.000082
C36	C	1.065145	-0.598326	0.000064
C37	C	1.063852	-0.671154	0.000044
C38	C	0.910745	-0.654511	0.000029
C39	C	0.912040	-0.581685	0.000040
C40	C	0.989242	-0.553597	0.000062
C41	C	1.145474	0.090507	0.000083
C42	C	1.238715	0.091889	0.000086
C43	C	0.985285	0.223247	0.000048
C44	C	0.986657	0.300755	0.000035
N45	N	0.991860	0.095621	0.230749
N46	N	0.991919	0.095568	-0.230607
C47	C	0.932038	0.145161	0.470418
C48	C	1.007887	0.158716	0.529757
C49	C	0.991882	0.095603	0.412356
C50	C	0.916053	0.082064	0.529759
C51	C	0.991896	0.095588	0.587780
C52	C	1.067770	0.109189	0.470388
C53	C	0.975885	0.032510	0.470384
C54	C	1.051789	0.046038	0.529697
C55	C	0.991872	0.095614	0.311299
C56	C	0.991914	0.095577	0.688835
H57	H	0.449344	0.033525	0.134770
C58	C	0.833706	-0.241376	0.000062
C59	C	0.832282	-0.321481	0.000060
C60	C	0.747363	-0.352381	0.000043
C61	C	0.663870	-0.303177	0.000029
C62	C	0.665291	-0.223068	0.000031
C63	C	0.750210	-0.192167	0.000048
H64	H	0.894092	-0.357909	0.000070
H65	H	0.746312	-0.411684	0.000042
H66	H	0.601008	-0.326052	0.000017
H67	H	0.603482	-0.186640	0.000021
H68	H	0.751262	-0.132864	0.000049
C69	C	1.026184	0.230779	0.565017
C70	C	1.109338	0.259570	0.540291
C71	C	1.127628	0.331632	0.575556
C72	C	1.062763	0.374903	0.635548
C73	C	0.979603	0.346112	0.660278
C74	C	0.961314	0.274050	0.625012
H75	H	1.157360	0.227538	0.495878
H76	H	1.189189	0.352944	0.557249
H77	H	1.076302	0.428247	0.661654
H78	H	0.931581	0.378145	0.704690
H79	H	0.899753	0.252738	0.643319
H80	H	1.125662	-0.707571	0.000049
C81	C	0.825827	-0.685405	0.000020
C82	C	0.762840	-0.668528	0.076899
C83	C	0.677919	-0.699424	0.076886
C84	C	0.655984	-0.747196	-0.000006
C85	C	0.718973	-0.764075	-0.076891
C86	C	0.803894	-0.733179	-0.076878
H87	H	0.779076	-0.633162	0.133824
H88	H	0.631291	-0.686929	0.133802
H89	H	0.593120	-0.770067	-0.000016
H90	H	0.702737	-0.799441	-0.133817
H91	H	0.850522	-0.745674	-0.133794
C92	C	0.836418	-0.088442	0.000071
C93	C	0.816243	-0.036094	0.076962
C94	C	0.732747	0.013114	0.076958
C95	C	0.669426	0.009974	0.000065
C96	C	0.689599	-0.042377	-0.076831
C97	C	0.773094	-0.091585	-0.076828
H98	H	0.863119	-0.033767	0.133888
H99	H	0.717814	0.051867	0.133882
H100	H	0.607617	0.046401	0.000063
H101	H	0.642723	-0.044703	-0.133757
H102	H	0.788027	-0.130338	-0.133752
C103	C	0.957559	-0.039538	0.435115
C104	C	0.873707	-0.067719	0.458494
C105	C	0.855370	-0.139766	0.423222
C106	C	0.920885	-0.183632	0.364570
C107	C	1.004743	-0.155452	0.341187
C108	C	1.023080	-0.083404	0.376459
H109	H	0.825204	-0.035246	0.501915
H110	H	0.793293	-0.160627	0.440532
H111	H	0.907311	-0.236966	0.338459
H112	H	1.053246	-0.187924	0.297766
H113	H	1.085157	-0.062544	0.359150
C114	C	0.829415	0.066595	0.564989
C115	C	0.749409	0.116099	0.541590
C116	C	0.662771	0.100637	0.576817
C117	C	0.656138	0.035671	0.635443
C118	C	0.736147	-0.013837	0.658844
C119	C	0.822785	0.001625	0.623618
H120	H	0.754317	0.164194	0.498189
H121	H	0.603543	0.137286	0.559493
H122	H	0.592003	0.024225	0.661520
H123	H	0.731239	-0.061932	0.702245
H124	H	0.882013	-0.035024	0.640941
H125	H	1.135880	-0.131424	0.000125
H126	H	1.133536	-0.263540	0.000102
H127	H	0.419965	0.217516	-0.000043
H128	H	1.131917	0.120698	0.444419
H129	H	0.534463	0.157649	0.134752
H130	H	0.564003	-0.026244	-0.000002
H131	H	0.449335	0.033494	-0.134646
H132	H	0.850233	-0.545266	0.000035
C133	C	1.120234	-0.010592	0.564647
C134	C	1.213624	-0.007088	0.540984
C135	C	1.282070	-0.063714	0.575936
C136	C	1.257127	-0.123844	0.634551
C137	C	1.163733	-0.127350	0.658218
C138	C	1.095286	-0.070724	0.623265
H139	H	1.232093	0.037425	0.497590
H140	H	1.351207	-0.061119	0.558416
H141	H	1.307795	-0.165762	0.660425
H142	H	1.145264	-0.171863	0.701611
H143	H	1.026150	-0.073319	0.640785
C144	C	0.541298	0.167582	-0.156494
C145	C	0.522968	0.139681	-0.249762
C146	C	0.549830	0.178056	-0.333246
C147	C	0.595020	0.244333	-0.323462
C148	C	0.613352	0.272238	-0.230190
C149	C	0.586491	0.233863	-0.146706
H150	H	0.489513	0.090615	-0.257008
H151	H	0.536259	0.157398	-0.402292
H152	H	0.614905	0.272741	-0.385262
H153	H	0.646808	0.321304	-0.222944
H154	H	0.600062	0.254521	-0.077660
C155	C	1.150063	-0.567423	0.000081
C156	C	1.233557	-0.616627	0.000082
C157	C	1.318475	-0.585726	0.000101
C158	C	1.319900	-0.505622	0.000118
C159	C	1.236403	-0.456413	0.000117
C160	C	1.151485	-0.487313	0.000099
H161	H	1.232505	-0.675930	0.000070
H162	H	1.380285	-0.622155	0.000102
H163	H	1.382761	-0.482747	0.000132
H164	H	1.237455	-0.397110	0.000130
H165	H	1.089675	-0.450885	0.000098
H166	H	0.881481	0.187105	0.444391
