data_functionalizedCrystal
_audit_creation_method	'MofGen! by Chris Wilmer'
_symmetry_space_group_name_H-M	'P1'
_symmetry_Int_Tables_number	1
_symmetry_cell_setting	triclinic
loop_
_symmetry_equiv_pos_as_xyz
  x,y,z
_cell_length_a	19.077105
_cell_length_b	13.032721
_cell_length_c	19.076919
_cell_angle_alpha	80.861841
_cell_angle_beta	89.923776
_cell_angle_gamma	95.201395
loop_
_atom_site_label
_atom_site_type_symbol
_atom_site_fract_x
_atom_site_fract_y
_atom_site_fract_z
Zn1	Zn	1.013397	-0.505360	0.481832
Zn2	Zn	1.346731	-0.172026	0.815166
Zn3	Zn	1.680064	0.161307	1.148499
Zn4	Zn	1.003124	-0.673317	0.378090
Zn5	Zn	1.336457	-0.339984	0.711423
Zn6	Zn	1.669790	-0.006651	1.044756
Zn7	Zn	0.901858	-0.491366	0.358479
Zn8	Zn	1.235191	-0.158033	0.691812
Zn9	Zn	1.568524	0.175301	1.025145
Zn10	Zn	0.881001	-0.672687	0.490791
Zn11	Zn	1.214335	-0.339354	0.824124
Zn12	Zn	1.547668	-0.006021	1.157457
O13	O	0.949845	-0.585683	0.427298
O14	O	1.283178	-0.252349	0.760631
O15	O	1.616512	0.080984	1.093964
O16	O	1.109823	-0.533760	0.472529
O17	O	1.443156	-0.200426	0.805862
O18	O	1.776490	0.132907	1.139195
O19	O	0.994119	-0.643588	0.276699
O20	O	1.327453	-0.310255	0.610032
O21	O	1.660786	0.023078	0.943365
O22	O	0.929682	-0.347048	0.362886
O23	O	1.263015	-0.013714	0.696219
O24	O	1.596349	0.319619	1.029552
O25	O	1.102275	-0.657157	0.396309
O26	O	1.435608	-0.323824	0.729643
O27	O	1.768942	0.009509	1.062976
O28	O	1.011630	-0.357329	0.453513
O29	O	1.344963	-0.023995	0.786846
O30	O	1.678296	0.309338	1.120179
O31	O	0.919720	-0.509909	0.262291
O32	O	1.253053	-0.176576	0.595624
O33	O	1.586386	0.156757	0.928957
O34	O	0.801303	-0.509299	0.371572
O35	O	1.134636	-0.175965	0.704905
O36	O	1.467969	0.157368	1.038239
O37	O	0.894135	-0.656084	0.588392
O38	O	1.227468	-0.322750	0.921725
O39	O	1.560802	0.010583	1.255059
O40	O	0.785980	-0.642515	0.468781
O41	O	1.119313	-0.309181	0.802114
O42	O	1.452646	0.024152	1.135448
O43	O	0.991406	-0.533149	0.581810
O44	O	1.324739	-0.199815	0.915144
O45	O	1.658073	0.133518	1.248477
O46	O	0.973896	-0.819408	0.404996
O47	O	1.307229	-0.486075	0.738329
O48	O	1.640562	-0.152742	1.071663
O49	O	0.884173	-0.818945	0.487797
O50	O	1.217506	-0.485612	0.821130
O51	O	1.550840	-0.152279	1.154464
C52	C	0.768286	-0.574321	0.419021
C53	C	1.101619	-0.240987	0.752355
C54	C	1.434952	0.092346	1.085688
C55	C	0.690611	-0.569486	0.415499
C56	C	1.023944	-0.236153	0.748833
C57	C	1.357277	0.097181	1.082166
C58	C	0.646154	-0.636670	0.464393
C59	C	0.979487	-0.303336	0.797727
C60	C	1.312820	0.029997	1.131060
C61	C	0.573171	-0.632114	0.461086
C62	C	0.906504	-0.298780	0.794420
C63	C	1.239838	0.034553	1.127753
C64	C	0.544646	-0.560378	0.408881
C65	C	0.877980	-0.227045	0.742215
C66	C	1.211313	0.106289	1.075548
C67	C	0.589109	-0.493187	0.359985
C68	C	0.922443	-0.159854	0.693318
C69	C	1.255776	0.173480	1.026652
C70	C	0.662091	-0.497739	0.363296
C71	C	0.995424	-0.164405	0.696629
C72	C	1.328758	0.168928	1.029962
C73	C	0.327230	-0.539312	0.393562
C74	C	0.660563	-0.205978	0.726896
C75	C	0.993896	0.127355	1.060229
C76	C	0.254242	-0.534767	0.390254
C77	C	0.587576	-0.201434	0.723587
C78	C	0.920909	0.131900	1.056921
C79	C	0.238309	-0.673693	0.491357
C80	C	0.571642	-0.340359	0.824690
C81	C	0.904976	-0.007026	1.158023
C82	C	0.311292	-0.678243	0.494660
C83	C	0.644626	-0.344909	0.827993
C84	C	0.977959	-0.011576	1.161327
C85	C	0.355749	-0.611048	0.445766
C86	C	0.689082	-0.277715	0.779099
C87	C	1.022416	0.055619	1.112433
N88	N	0.470046	-0.555721	0.405499
N89	N	0.803380	-0.222388	0.738832
N90	N	1.136713	0.110945	1.072165
N91	N	0.430348	-0.615700	0.449153
N92	N	0.763681	-0.282367	0.782486
N93	N	1.097015	0.050966	1.115819
C94	C	0.925675	-0.857080	0.449513
C95	C	1.259008	-0.523747	0.782846
C96	C	1.592341	-0.190414	1.116179
C97	C	0.915397	-0.973191	0.459043
C98	C	1.248731	-0.639857	0.792376
C99	C	1.582064	-0.306524	1.125710
C100	C	0.955245	-1.025155	0.422357
C101	C	1.288578	-0.691822	0.755691
C102	C	1.621911	-0.358488	1.089024
C103	C	0.944623	-1.145161	0.432206
C104	C	1.277957	-0.811828	0.765540
C105	C	1.611290	-0.478495	1.098873
C106	C	1.132113	-0.597090	0.435607
C107	C	1.465447	-0.263756	0.768941
C108	C	1.798780	0.069577	1.102274
C109	C	1.209785	-0.601951	0.439148
C110	C	1.543118	-0.268617	0.772482
C111	C	1.876452	0.064716	1.105815
C112	C	0.941590	-0.596107	0.611432
C113	C	1.274923	-0.262774	0.944766
C114	C	1.608257	0.070560	1.278099
C115	C	0.938072	-0.600549	0.689899
C116	C	1.271406	-0.267216	1.023233
C117	C	1.604739	0.066118	1.356566
C118	C	0.974128	-0.313227	0.405012
C119	C	1.307462	0.020106	0.738346
C120	C	1.640795	0.353440	1.071679
C121	C	0.984476	-0.197123	0.395516
C122	C	1.317810	0.136211	0.728849
C123	C	1.651143	0.469544	1.062182
C124	C	0.958115	-0.575226	0.243875
C125	C	1.291448	-0.241893	0.577209
C126	C	1.624782	0.091441	0.910542
C127	C	0.961794	-0.570498	0.165391
C128	C	1.295128	-0.237165	0.498724
C129	C	1.628461	0.096169	0.832057
C130	C	0.987061	-0.538633	0.723338
C131	C	1.320394	-0.205300	1.056671
C132	C	1.653727	0.128033	1.390005
C133	C	0.983747	-0.542803	0.797065
C134	C	1.317080	-0.209469	1.130399
C135	C	1.650414	0.123864	1.463732
C136	C	0.931448	-0.608894	0.837354
C137	C	1.264781	-0.275561	1.170687
C138	C	1.598114	0.057773	1.504020
C139	C	0.882454	-0.670812	0.803910
C140	C	1.215788	-0.337479	1.137243
C141	C	1.549121	-0.004146	1.470577
C142	C	0.885765	-0.666637	0.730183
C143	C	1.219099	-0.333303	1.063517
C144	C	1.552432	0.000030	1.396850
C145	C	0.916112	-0.628240	1.058220
C146	C	1.249445	-0.294907	1.391554
C147	C	1.582778	0.038426	1.724887
C148	C	0.912806	-0.632414	1.131952
C149	C	1.246139	-0.299080	1.465285
C150	C	1.579472	0.034253	1.798619
C151	C	1.014098	-0.504402	1.125102
C152	C	1.347432	-0.171069	1.458436
C153	C	1.680765	0.162265	1.791769
C154	C	1.017407	-0.500237	1.051375
C155	C	1.350741	-0.166904	1.384708
C156	C	1.684074	0.166430	1.718042
C157	C	0.968412	-0.562151	1.017937
C158	C	1.301745	-0.228818	1.351271
C159	C	1.635078	0.104516	1.684604
N160	N	0.928061	-0.613160	0.912715
N161	N	1.261394	-0.279827	1.246049
N162	N	1.594727	0.053507	1.579382
N163	N	0.971796	-0.557879	0.942576
N164	N	1.305129	-0.224546	1.275910
N165	N	1.638463	0.108788	1.609243
H166	H	0.363418	-0.484604	0.353745
H167	H	0.696751	-0.151271	0.687078
H168	H	1.030084	0.182062	1.020411
H169	H	0.873422	-1.017547	0.497745
H170	H	1.206756	-0.684213	0.831079
H171	H	1.540089	-0.350880	1.164412
Cl172	Cl	1.052815	-0.455548	0.672698
Cl173	Cl	1.386149	-0.122214	1.006031
Cl174	Cl	1.719482	0.211119	1.339364
Cl175	Cl	1.075686	-0.426568	1.167142
Cl176	Cl	1.409020	-0.093235	1.500476
Cl177	Cl	1.742353	0.240098	1.833809
H178	H	0.202105	-0.728397	0.531164
H179	H	0.535438	-0.395064	0.864498
H180	H	0.868771	-0.061731	1.197831
H181	H	0.565879	-0.434774	0.317481
H182	H	0.899213	-0.101441	0.650815
H183	H	1.232546	0.231893	0.984148
H184	H	0.845867	-0.717044	0.702958
H185	H	1.179201	-0.383711	1.036291
H186	H	1.512534	-0.050377	1.369624
H187	H	0.839869	-0.724621	0.836718
H188	H	1.173202	-0.391288	1.170051
H189	H	1.506535	-0.057955	1.503385
H190	H	0.902645	-1.189513	0.470911
H191	H	1.235979	-0.856180	0.804245
H192	H	1.569312	-0.522846	1.137578
H193	H	0.876225	-0.678671	1.031006
H194	H	1.209558	-0.345338	1.364339
H195	H	1.542892	-0.012005	1.697673
Cl196	Cl	1.049296	-1.128657	0.335765
Cl197	Cl	1.382629	-0.795324	0.669098
Cl198	Cl	1.715962	-0.461991	1.002431
H199	H	0.870215	-0.686236	1.164753
H200	H	1.203548	-0.352902	1.498087
H201	H	1.536881	-0.019569	1.831420
H202	H	1.023640	-0.492387	0.824288
H203	H	1.356974	-0.159054	1.157621
H204	H	1.690307	0.174280	1.490955
H205	H	0.669372	-0.695088	0.506902
H206	H	1.002705	-0.361755	0.840235
H207	H	1.336039	-0.028422	1.173569
H208	H	1.059997	-0.446421	1.018577
H209	H	1.393330	-0.113088	1.351911
H210	H	1.726663	0.220245	1.685244
H211	H	0.231022	-0.476339	0.347746
H212	H	0.564355	-0.143006	0.681079
H213	H	0.897688	0.190327	1.014413
H214	H	0.536976	-0.686823	0.500901
H215	H	0.870310	-0.353489	0.834234
H216	H	1.203643	-0.020156	1.167567
H217	H	0.698288	-0.443025	0.323484
H218	H	1.031622	-0.109692	0.656817
H219	H	1.364955	0.223641	0.990151
H220	H	0.334511	-0.736660	0.537169
H221	H	0.667844	-0.403326	0.870503
H222	H	1.001178	-0.069993	1.203836
Cl223	Cl	1.020062	-0.956683	0.362611
Cl224	Cl	1.353395	-0.623350	0.695944
Cl225	Cl	1.686728	-0.290016	1.029278
