data_functionalizedCrystal
_audit_creation_method	'MofGen! by Chris Wilmer'
_symmetry_space_group_name_H-M	'P1'
_symmetry_Int_Tables_number	1
_symmetry_cell_setting	triclinic
loop_
_symmetry_equiv_pos_as_xyz
  x,y,z
_cell_length_a	10.654550
_cell_length_b	19.288865
_cell_length_c	9.130313
_cell_angle_alpha	89.990258
_cell_angle_beta	89.999724
_cell_angle_gamma	83.810589
loop_
_atom_site_label
_atom_site_type_symbol
_atom_site_fract_x
_atom_site_fract_y
_atom_site_fract_z
O1	O	1.665751	0.097555	-0.121709
O2	O	1.300074	0.106849	-0.121738
O3	O	1.493479	0.001141	-0.121693
O4	O	1.472346	0.203263	-0.121753
O5	O	1.493466	0.001138	0.121905
O6	O	1.300061	0.106846	0.121861
O7	O	1.665738	0.097552	0.121890
Cu8	Cu	1.482898	0.102198	0.144118
Cu9	Cu	1.482914	0.102202	-0.143966
O10	O	1.472333	0.203260	0.121846
C11	C	1.253284	0.106165	0.000059
C12	C	1.113884	0.104123	0.000049
C13	C	1.033066	0.166363	0.000035
C14	C	0.902087	0.164440	0.000061
C15	C	0.932756	0.038033	0.000109
C16	C	1.063733	0.039956	0.000094
C17	C	1.492792	-0.024742	0.000110
C18	C	1.490751	-0.101859	0.000123
C19	C	1.604232	-0.145812	0.000139
C20	C	1.602315	-0.218272	0.000116
C21	C	1.486909	-0.246775	0.000106
C22	C	1.373413	-0.202812	0.000081
C23	C	1.375334	-0.130354	0.000090
C24	C	1.396183	-0.355657	0.085426
C25	C	1.394266	-0.428114	0.085426
C26	C	1.480980	-0.470259	0.000073
C27	C	1.569631	-0.439940	-0.085263
C28	C	1.571552	-0.367482	-0.085254
C29	C	1.484814	-0.325343	0.000095
C30	C	1.592390	-0.592782	0.000061
C31	C	1.590467	-0.665243	0.000029
C32	C	1.361562	-0.649781	0.000009
C33	C	1.363488	-0.577322	0.000027
C34	C	1.478905	-0.548827	0.000060
C35	C	1.712528	0.098236	0.000090
C36	C	1.851928	0.100277	0.000091
C37	C	1.473020	0.229142	0.000039
C38	C	1.475061	0.306259	0.000016
N39	N	1.482896	0.102195	0.346741
N40	N	1.482925	0.102200	-0.346588
C41	C	1.568565	0.055408	0.423412
C42	C	1.568577	0.055408	0.576749
C43	C	1.397248	0.148990	0.576729
C44	C	1.397231	0.148986	0.423395
H45	H	0.891906	-0.014209	0.000154
N46	N	0.814891	0.231559	0.000048
H47	H	0.759883	0.233567	0.090365
H48	H	0.866602	0.272470	-0.000033
N49	N	1.150913	-0.027176	0.000126
H50	H	1.099270	-0.068117	0.000149
H51	H	1.205923	-0.029133	-0.090180
H52	H	1.638334	0.017308	0.639171
N53	N	1.728712	-0.115078	0.000172
H54	H	1.800312	-0.153922	0.000178
H55	H	1.734506	-0.085343	-0.090130
H56	H	1.327464	0.187086	0.360965
N57	N	1.724712	-0.265694	0.000158
H58	H	1.729031	-0.296096	-0.090142
H59	H	1.798051	-0.236603	0.000237
N60	N	1.304868	0.199463	0.659400
H61	H	1.215788	0.191004	0.632737
H62	H	1.317986	0.192346	0.768146
H63	H	1.640241	-0.474253	-0.154767
N64	N	1.087162	0.235567	-0.000015
H65	H	1.016084	0.274703	-0.000018
H66	H	1.140847	0.239120	0.090280
H67	H	1.643732	-0.342798	-0.154740
H68	H	1.686369	-0.569580	0.000081
H69	H	1.682881	-0.701029	0.000034
H70	H	1.638317	0.017307	0.361003
H71	H	1.322076	-0.452794	0.154903
N72	N	1.237086	-0.680513	-0.000018
H73	H	1.253086	-0.733085	-0.000026
H74	H	1.187435	-0.664483	0.090283
H75	H	1.271079	-0.541534	0.000022
H76	H	1.325567	-0.321348	0.154939
H77	H	1.282921	-0.094566	0.000077
N78	N	1.248938	-0.233549	0.000063
H79	H	1.264940	-0.286121	0.000064
H80	H	1.199289	-0.217516	0.090362
