data_functionalizedCrystal
_audit_creation_method	'MofGen! by Chris Wilmer'
_symmetry_space_group_name_H-M	'P1'
_symmetry_Int_Tables_number	1
_symmetry_cell_setting	triclinic
loop_
_symmetry_equiv_pos_as_xyz
  x,y,z
_cell_length_a	15.944551
_cell_length_b	19.288865
_cell_length_c	17.766277
_cell_angle_alpha	90.011603
_cell_angle_beta	89.986447
_cell_angle_gamma	96.682508
loop_
_atom_site_label
_atom_site_type_symbol
_atom_site_fract_x
_atom_site_fract_y
_atom_site_fract_z
O1	O	1.114185	-0.089583	-0.062676
O2	O	1.614185	0.410417	0.437324
O3	O	0.869593	-0.100628	-0.062663
O4	O	1.369593	0.399372	0.437337
O5	O	0.998956	0.006006	-0.062655
O6	O	1.498956	0.506006	0.437345
O7	O	0.984821	-0.196217	-0.062684
O8	O	1.484821	0.303783	0.437316
O9	O	0.998934	0.006012	0.062534
O10	O	1.498934	0.506012	0.562534
O11	O	0.869570	-0.100622	0.062526
O12	O	1.369570	0.399378	0.562526
O13	O	1.114162	-0.089578	0.062512
O14	O	1.614162	0.410422	0.562512
Cu15	Cu	0.991864	-0.095100	0.073950
Cu16	Cu	1.491864	0.404900	0.573950
Cu17	Cu	0.991891	-0.095106	-0.074100
Cu18	Cu	1.491891	0.404894	0.425900
O19	O	0.984799	-0.196212	0.062505
O20	O	1.484799	0.303788	0.562505
C21	C	0.998490	0.031887	-0.000058
C22	C	1.498490	0.531887	0.499942
C23	C	0.997125	0.108994	-0.000052
C24	C	1.497125	0.608994	0.499948
C25	C	0.838289	-0.100167	-0.000067
C26	C	1.338289	0.399833	0.499933
C27	C	0.745048	-0.098792	-0.000061
C28	C	1.245048	0.401208	0.499939
C29	C	1.145466	-0.090039	-0.000085
C30	C	1.645466	0.409961	0.499915
C31	C	1.238707	-0.091414	-0.000096
C32	C	1.738707	0.408586	0.499904
C33	C	1.453296	-0.160796	-0.000089
C34	C	1.953296	0.339204	0.499911
C35	C	1.514451	-0.128580	-0.061808
C36	C	2.014451	0.371420	0.438192
C37	C	1.409423	-0.093900	-0.000086
C38	C	1.909423	0.406100	0.499914
C39	C	1.514407	-0.128559	0.061618
C40	C	2.014407	0.371441	0.561618
C41	C	1.574326	-0.096307	-0.000072
C42	C	2.074326	0.403693	0.499928
C43	C	1.469350	-0.061666	-0.061856
C44	C	1.969350	0.438334	0.438144
C45	C	1.469299	-0.061654	0.061626
C46	C	1.969299	0.438346	0.561626
C47	C	1.530437	-0.029389	-0.000109
C48	C	2.030437	0.470611	0.499891
C49	C	1.314426	-0.092516	-0.000094
C50	C	1.814426	0.407484	0.499906
C51	C	1.669322	-0.097687	-0.000069
C52	C	2.169322	0.402313	0.499931
C53	C	0.985265	-0.222092	-0.000094
C54	C	1.485265	0.277908	0.499906
C55	C	0.986630	-0.299199	-0.000105
C56	C	1.486630	0.200801	0.499895
N57	N	0.991851	-0.095095	0.178080
N58	N	1.491851	0.404905	0.678080
C59	C	1.073030	0.153490	-0.000052
C60	C	1.573030	0.653490	0.499948
C61	C	1.071747	0.225941	-0.000064
C62	C	1.571747	0.725941	0.499936
C63	C	0.994555	0.253891	-0.000060
C64	C	1.494555	0.753891	0.499940
C65	C	0.918641	0.209385	-0.000064
C66	C	1.418641	0.709385	0.499936
C67	C	0.919925	0.136936	-0.000060
C68	C	1.419925	0.636936	0.499940
C69	C	0.933866	0.362341	0.043794
C70	C	1.433866	0.862341	0.543794
C71	C	0.932584	0.434788	0.043794
C72	C	1.432584	0.934788	0.543794
C73	C	0.990589	0.477347	-0.000077
C74	C	1.490589	0.977347	0.499923
C75	C	1.049890	0.447451	-0.043939
C76	C	1.549890	0.947451	0.456061
C77	C	1.051175	0.375002	-0.043934
C78	C	1.551175	0.875002	0.456066
C79	C	0.993154	0.332449	-0.000065
C80	C	1.493154	0.832449	0.499935
C81	C	1.065108	0.600403	-0.000091
C82	C	1.565108	1.100403	0.499909
C83	C	1.063822	0.672855	-0.000108
C84	C	1.563822	1.172855	0.499892
C85	C	0.910714	0.656298	-0.000100
C86	C	1.410714	1.156298	0.499900
C87	C	0.912002	0.583848	-0.000091
C88	C	1.412002	1.083848	0.499909
C89	C	0.989201	0.555906	-0.000083
C90	C	1.489201	1.055906	0.499917
N91	N	0.991910	-0.095105	-0.178230
N92	N	1.491910	0.404895	0.321770
C93	C	1.049152	-0.047900	0.217470
C94	C	1.549152	0.452100	0.717470
C95	C	1.049157	-0.047897	0.296272
C96	C	1.549157	0.452103	0.796272
C97	C	0.991869	-0.095100	0.335681
C98	C	1.491869	0.404900	0.835681
C99	C	0.934558	-0.142298	0.296281
C100	C	1.434558	0.357702	0.796281
C101	C	0.934549	-0.142295	0.217481
C102	C	1.434549	0.357705	0.717481
C103	C	0.980624	-0.158358	0.460510
C104	C	1.480624	0.341642	0.960510
C105	C	0.980639	-0.158362	0.539309
C106	C	1.480639	0.341638	1.039309
C107	C	0.991892	-0.095109	0.578727
C108	C	1.491892	0.404891	1.078727
C109	C	1.003147	-0.031849	0.539337
C110	C	1.503147	0.468151	1.039337
C111	C	1.003138	-0.031846	0.460536
C112	C	1.503138	0.468154	0.960536
C113	C	0.991872	-0.095108	0.421126
C114	C	1.491872	0.404892	0.921126
C115	C	1.049201	-0.047907	0.703563
C116	C	1.549201	0.452093	1.203563
C117	C	1.049200	-0.047903	0.782367
C118	C	1.549200	0.452097	1.282367
C119	C	0.934604	-0.142310	0.782374
C120	C	1.434604	0.357690	1.282374
C121	C	0.934601	-0.142308	0.703572
C122	C	1.434601	0.357692	1.203572
C123	C	0.991904	-0.095107	0.664171
C124	C	1.491904	0.404893	1.164171
H125	H	1.419776	-0.216323	-0.000158
H126	H	1.919776	0.283677	0.499842
C127	C	0.871537	-0.194219	0.339632
C128	C	1.371537	0.305781	0.839632
N129	N	0.824065	-0.233324	0.372283
N130	N	1.324065	0.266676	0.872283
H131	H	1.095858	-0.009468	0.814439
H132	H	1.595858	0.490532	1.314439
C133	C	1.442509	-0.023480	-0.132430
C134	C	1.942509	0.476520	0.367570
N135	N	1.422290	0.005279	-0.185586
N136	N	1.922290	0.505279	0.314414
C137	C	1.116399	0.342119	-0.092187
C138	C	1.616399	0.842119	0.407813
N139	N	1.165524	0.317350	-0.128535
N140	N	1.665524	0.817350	0.371465
H141	H	0.887887	-0.180727	0.185408
H142	H	1.387887	0.319273	0.685408
C143	C	0.871587	-0.194235	0.825718
C144	C	1.371587	0.305765	1.325718
N145	N	0.824121	-0.233345	0.858369
N146	N	1.324121	0.266655	1.358369
H147	H	0.971446	-0.209870	0.428422
H148	H	1.471446	0.290130	0.928422
H149	H	1.563804	0.026188	-0.000132
H150	H	2.063804	0.526188	0.499868
C151	C	1.442226	-0.023463	0.132133
C152	C	1.942226	0.476537	0.632133
N153	N	1.421830	0.005297	0.185245
N154	N	1.921830	0.505297	0.685245
C155	C	1.541497	-0.166810	-0.132305
C156	C	2.041497	0.333190	0.367695
N157	N	1.561869	-0.195610	-0.185398
N158	N	2.061869	0.304390	0.314602
C159	C	1.541378	-0.166794	0.132110
C160	C	2.041378	0.333206	0.632110
N161	N	1.561689	-0.195597	0.185203
N162	N	2.061689	0.304403	0.685203
C163	C	1.112226	0.004021	0.660220
C164	C	1.612226	0.504021	1.160220
N165	N	1.159696	0.043134	0.627576
N166	N	1.659696	0.543134	1.127576
H167	H	1.135891	0.130744	-0.000048
H168	H	1.635891	0.630744	0.499952
C169	C	1.150029	0.569664	-0.000094
C170	C	1.650029	1.069664	0.499906
N171	N	1.213991	0.546513	-0.000098
N172	N	1.713991	1.046513	0.499902
C173	C	1.155251	0.274896	-0.000060
C174	C	1.655251	0.774896	0.499940
N175	N	1.218147	0.311767	-0.000054
N176	N	1.718147	0.811767	0.499946
H177	H	0.850192	0.547618	-0.000087
H178	H	1.350192	1.047618	0.499913
C179	C	1.112179	0.004029	0.174135
C180	C	1.612179	0.504029	0.674135
N181	N	1.159648	0.043144	0.141493
N182	N	1.659648	0.543144	0.641493
H183	H	1.125636	0.709084	-0.000112
H184	H	1.625636	1.209084	0.499888
H185	H	0.884294	0.459124	0.079505
H186	H	1.384294	0.959124	0.579505
H187	H	0.847863	0.679055	-0.000101
H188	H	1.347863	1.179055	0.499899
C189	C	0.833729	0.240133	-0.000054
C190	C	1.333729	0.740133	0.499946
N191	N	0.769772	0.263291	-0.000047
N192	N	1.269772	0.763291	0.499953
C193	C	1.113699	0.494261	-0.092204
C194	C	1.613699	0.994261	0.407796
N195	N	1.161758	0.529521	-0.128556
N196	N	1.661758	1.029521	0.371444
C197	C	0.870054	0.315532	0.092062
C198	C	1.370054	0.815532	0.592062
N199	N	0.821994	0.280278	0.128418
N200	N	1.321994	0.780278	0.628418
H201	H	0.858113	0.100707	-0.000059
H202	H	1.358113	0.600707	0.499941
H203	H	0.887945	-0.180741	0.671498
H204	H	1.387945	0.319259	1.171498
C205	C	1.112203	0.004016	0.339610
C206	C	1.612203	0.504016	0.839610
N207	N	1.159693	0.043114	0.372250
N208	N	1.659693	0.543114	0.872250
H209	H	0.971479	-0.209872	0.571374
H210	H	1.471479	0.290128	1.071374
H211	H	1.012301	0.019662	0.428468
H212	H	1.512301	0.519662	0.928468
C213	C	1.015524	0.037736	0.582691
C214	C	1.515524	0.537736	1.082691
N215	N	1.024847	0.090145	0.615348
N216	N	1.524847	0.590145	1.115348
