data_functionalizedCrystal
_audit_creation_method	'MofGen! by Chris Wilmer'
_symmetry_space_group_name_H-M	'P1'
_symmetry_Int_Tables_number	1
_symmetry_cell_setting	triclinic
loop_
_symmetry_equiv_pos_as_xyz
  x,y,z
_cell_length_a	12.837939
_cell_length_b	12.503584
_cell_length_c	12.811415
_cell_angle_alpha	88.122923
_cell_angle_beta	90.588266
_cell_angle_gamma	93.891371
loop_
_atom_site_label
_atom_site_type_symbol
_atom_site_fract_x
_atom_site_fract_y
_atom_site_fract_z
O1	O	-1.384313	-0.115207	0.265909
O2	O	-0.884313	0.384793	0.765909
O3	O	-1.082362	-0.113906	0.252505
O4	O	-0.582362	0.386094	0.752505
O5	O	-1.239950	-0.099831	0.108077
O6	O	-0.739950	0.400169	0.608077
O7	O	-1.226725	-0.129283	0.410337
O8	O	-0.726725	0.370717	0.910337
O9	O	-1.228098	0.077750	0.118961
O10	O	-0.728098	0.577750	0.618961
O11	O	-1.070510	0.063675	0.263389
O12	O	-0.570510	0.563675	0.763389
O13	O	-1.372461	0.062374	0.276793
O14	O	-0.872461	0.562374	0.776793
Cu15	Cu	-1.220403	0.079239	0.271085
Cu16	Cu	-0.720403	0.579239	0.771085
Cu17	Cu	-1.234420	-0.130772	0.258213
Cu18	Cu	-0.734420	0.369228	0.758213
O19	O	-1.214873	0.048299	0.421221
O20	O	-0.714873	0.548299	0.921221
C21	C	-1.037767	-0.024675	0.253419
C22	C	-0.537767	0.475325	0.753419
C23	C	-0.922543	-0.023362	0.239913
C24	C	-0.422543	0.476638	0.739913
C25	C	-0.683343	-0.039165	0.402275
C26	C	-0.183343	0.460835	0.902275
C27	C	-0.575080	-0.037930	0.389591
C28	C	-0.075080	0.462070	0.889591
C29	C	-0.597751	-0.019650	0.201861
C30	C	-0.097751	0.480350	0.701861
C31	C	-0.706014	-0.020884	0.214546
C32	C	-0.206014	0.479116	0.714546
C33	C	-0.748806	-0.030644	0.314756
C34	C	-0.248806	0.469356	0.814756
C35	C	-0.857072	-0.031886	0.327439
C36	C	-0.357072	0.468114	0.827439
C37	C	-0.879740	-0.013598	0.139711
C38	C	-0.379740	0.486402	0.639711
C39	C	-0.771477	-0.012364	0.127026
C40	C	-0.271477	0.487636	0.627026
N41	N	-1.210553	0.226949	0.280138
N42	N	-0.710553	0.726949	0.780138
C43	C	-1.196062	0.444765	0.293464
C44	C	-0.696062	0.944765	0.793464
C45	C	-1.258762	0.503708	0.235840
C46	C	-0.758762	1.003708	0.735840
C47	C	-1.250699	0.624909	0.243255
C48	C	-0.750699	1.124909	0.743255
C49	C	-1.204123	0.323554	0.286050
C50	C	-0.704123	0.823554	0.786050
C51	C	-0.417056	-0.026858	0.275880
C52	C	0.082944	0.473142	0.775880
C53	C	-0.532280	-0.028174	0.289387
C54	C	-0.032280	0.471826	0.789387
C55	C	-1.232919	-0.007247	0.074562
C56	C	-0.732919	0.492753	0.574562
C57	C	-1.229617	0.004057	-0.041518
C58	C	-0.729617	0.504057	0.458482
N59	N	-1.244275	0.721518	0.249163
N60	N	-0.744275	1.221518	0.749163
C61	C	-1.236315	-0.168324	-0.271502
C62	C	-0.736315	0.331676	0.228498
C63	C	-1.233212	-0.157708	-0.380570
C64	C	-0.733212	0.342292	0.119430
C65	C	-1.220301	0.035902	-0.368723
C66	C	-0.720301	0.535902	0.131277
C67	C	-1.223404	0.025287	-0.259656
C68	C	-0.723404	0.525287	0.240344
C69	C	-1.231412	-0.076830	-0.211049
C70	C	-0.731412	0.423170	0.288951
C71	C	-1.234523	-0.087444	-0.101979
C72	C	-0.734523	0.412556	0.398021
C73	C	-1.221604	0.106165	-0.090135
C74	C	-0.721604	0.606165	0.409865
C75	C	-1.218502	0.116781	-0.199203
C76	C	-0.718502	0.616781	0.300797
C77	C	-1.221904	-0.044288	0.454736
C78	C	-0.721904	0.455712	0.954736
C79	C	-1.225207	-0.055599	0.570815
C80	C	-0.725207	0.444401	1.070815
H81	H	-0.718185	-0.047113	0.483870
H82	H	-0.218185	0.452887	0.983870
F83	F	-1.211753	0.144573	-0.420471
F84	F	-0.711753	0.644573	0.079529
H85	H	-1.242845	-0.251471	-0.231926
H86	H	-0.742845	0.248529	0.268074
F87	F	-0.505412	-0.046996	0.482742
F88	F	-0.005412	0.453004	0.982742
H89	H	-1.211977	0.199921	-0.238793
H90	H	-0.711977	0.699921	0.261207
F91	F	-1.117990	0.497778	0.365222
F92	F	-0.617990	0.997778	0.865222
F93	F	-1.216395	0.203547	-0.025789
F94	F	-0.716395	0.703547	0.474211
F95	F	-1.243050	-0.196124	-0.050250
F96	F	-0.743050	0.303876	0.449750
F97	F	-1.337155	0.450661	0.164423
F98	F	-0.837155	0.950661	0.664423
H99	H	-1.237200	-0.232213	-0.429787
H100	H	-0.737200	0.267787	0.070213
H101	H	-0.891911	-0.039831	0.409035
H102	H	-0.391911	0.460169	0.909035
F103	F	-0.949420	-0.004542	0.046560
F104	F	-0.449420	0.495458	0.546560
F105	F	-0.725922	-0.001974	0.020381
F106	F	-0.225922	0.498026	0.520381
F107	F	-0.552189	-0.009251	0.095220
F108	F	-0.052189	0.490749	0.595220
