data_functionalizedCrystal
_audit_creation_method	'MofGen! by Chris Wilmer'
_symmetry_space_group_name_H-M	'P1'
_symmetry_Int_Tables_number	1
_symmetry_cell_setting	triclinic
loop_
_symmetry_equiv_pos_as_xyz
  x,y,z
_cell_length_a	16.625539
_cell_length_b	11.169417
_cell_length_c	11.169416
_cell_angle_alpha	89.990722
_cell_angle_beta	89.977153
_cell_angle_gamma	90.019099
loop_
_atom_site_label
_atom_site_type_symbol
_atom_site_fract_x
_atom_site_fract_y
_atom_site_fract_z
Zn1	Zn	-0.455908	-1.834932	-0.477839
Zn2	Zn	0.044092	-1.334932	0.022161
Zn3	Zn	-0.321088	-1.834830	-0.678551
Zn4	Zn	0.178912	-1.334830	-0.178551
Zn5	Zn	-0.321092	-1.634227	-0.477877
Zn6	Zn	0.178908	-1.134227	0.022123
Zn7	Zn	-0.455882	-1.634225	-0.678475
Zn8	Zn	0.044118	-1.134225	-0.178475
O9	O	-0.388493	-1.734553	-0.578186
O10	O	0.111507	-1.234553	-0.078186
O11	O	-0.438034	-2.002868	-0.504480
O12	O	0.061966	-1.502868	-0.004480
O13	O	-0.208256	-1.808178	-0.651980
O14	O	0.291744	-1.308178	-0.151980
O15	O	-0.338989	-1.660894	-0.309922
O16	O	0.161011	-1.160894	0.190078
O17	O	-0.338982	-2.002793	-0.651942
O18	O	0.161018	-1.502793	-0.151942
O19	O	-0.438037	-1.808351	-0.309894
O20	O	0.061963	-1.308351	0.190106
O21	O	-0.208259	-1.660795	-0.504545
O22	O	0.291741	-1.160795	-0.004545
O23	O	-0.338963	-1.466277	-0.504471
O24	O	0.161037	-0.966277	-0.004471
O25	O	-0.568718	-1.660891	-0.651812
O26	O	-0.068718	-1.160891	-0.151812
O27	O	-0.437992	-1.466276	-0.651849
O28	O	0.062008	-0.966276	-0.151849
O29	O	-0.568737	-1.808349	-0.504406
O30	O	-0.068737	-1.308349	-0.004406
O31	O	-0.338956	-1.808176	-0.846491
O32	O	0.161044	-1.308176	-0.346491
O33	O	-0.437988	-1.660793	-0.846435
O34	O	0.062012	-1.160793	-0.346435
C35	C	-0.388476	-1.422729	-0.578157
C36	C	0.111524	-0.922729	-0.078157
C37	C	-0.388487	-1.289329	-0.578174
C38	C	0.111513	-0.789329	-0.078174
C39	C	-0.598802	-1.734631	-0.578096
C40	C	-0.098802	-1.234631	-0.078096
C41	C	-0.688423	-1.734665	-0.578058
C42	C	-0.188423	-1.234665	-0.078058
C43	C	-1.016599	-1.734720	-0.577924
C44	C	-0.516599	-1.234720	-0.077924
C45	C	-0.925290	-1.734701	-0.577965
C46	C	-0.425290	-1.234701	-0.077965
C47	C	-0.852514	-1.734693	-0.577992
C48	C	-0.352514	-1.234693	-0.077992
C49	C	-0.761199	-1.734673	-0.578031
C50	C	-0.261199	-1.234673	-0.078031
C51	C	-0.179002	-1.734545	-0.578188
C52	C	0.320998	-1.234545	-0.078188
C53	C	-0.089381	-1.734744	-0.577888
C54	C	0.410619	-1.234744	-0.077888
C55	C	-0.388487	-1.734506	-0.890010
C56	C	0.111513	-1.234506	-0.390010
C57	C	-0.388511	-1.734595	-1.023410
C58	C	0.111489	-1.234595	-0.523410
C59	C	-0.388504	-1.047596	-0.578205
C60	C	0.111496	-0.547596	-0.078205
C61	C	-0.388492	-1.180996	-0.578188
C62	C	0.111508	-0.680996	-0.078188
C63	C	-0.388516	-1.734634	-0.265143
C64	C	0.111484	-1.234634	0.234857
C65	C	-0.388527	-1.734668	-0.131743
C66	C	0.111473	-1.234668	0.368257
