data_functionalizedCrystal
_audit_creation_method	'MofGen! by Chris Wilmer'
_symmetry_space_group_name_H-M	'P1'
_symmetry_Int_Tables_number	1
_symmetry_cell_setting	triclinic
loop_
_symmetry_equiv_pos_as_xyz
  x,y,z
_cell_length_a	10.654541
_cell_length_b	23.532407
_cell_length_c	9.130307
_cell_angle_alpha	89.992076
_cell_angle_beta	89.999822
_cell_angle_gamma	83.666303
loop_
_atom_site_label
_atom_site_type_symbol
_atom_site_fract_x
_atom_site_fract_y
_atom_site_fract_z
O1	O	1.665305	0.079977	-0.121771
O2	O	1.299584	0.087599	-0.121786
O3	O	1.493473	0.000928	-0.121751
O4	O	1.471416	0.166648	-0.121806
O5	O	1.493467	0.000928	0.121848
O6	O	1.299578	0.087598	0.121813
O7	O	1.665299	0.079977	0.121828
Cu8	Cu	1.482438	0.083787	0.144063
Cu9	Cu	1.482445	0.083788	-0.144021
O10	O	1.471410	0.166647	0.121793
C11	C	1.252801	0.087039	0.000012
C12	C	1.113410	0.085366	0.000008
C13	C	1.082156	0.189004	-0.000044
C14	C	1.001045	0.240035	-0.000076
C15	C	0.870077	0.238459	-0.000077
C16	C	0.820218	0.185847	-0.000042
C17	C	0.901329	0.134816	-0.000010
C18	C	1.032299	0.136398	-0.000013
C19	C	0.932583	0.031179	0.000053
C20	C	1.063552	0.032754	0.000043
C21	C	0.882725	-0.021433	0.000088
C22	C	0.963837	-0.072465	0.000110
C23	C	1.094812	-0.070887	0.000109
C24	C	1.144663	-0.018277	0.000075
C25	C	1.492908	-0.020292	0.000052
C26	C	1.491219	-0.083520	0.000063
C27	C	1.595367	-0.481945	-0.000013
C28	C	1.593798	-0.541355	-0.000024
O29	O	1.690344	-0.577471	-0.000074
N30	N	1.478531	-0.564732	-0.000028
C31	C	1.364826	-0.528695	-0.000035
O32	O	1.266639	-0.554034	-0.000040
C33	C	1.366396	-0.469285	-0.000034
C34	C	1.481670	-0.445912	-0.000016
C35	C	1.710632	-0.458571	0.000004
C36	C	1.712200	-0.399164	0.000018
C37	C	1.598503	-0.363132	0.000015
C38	C	1.483238	-0.386506	-0.000002
C39	C	1.252692	-0.433249	-0.000052
C40	C	1.254272	-0.373836	-0.000052
C41	C	1.369546	-0.350463	-0.000034
C42	C	1.371110	-0.291067	0.000009
N43	N	1.486377	-0.267690	0.000013
C44	C	1.600073	-0.303723	0.000016
C45	C	1.361537	-0.653459	-0.000039
C46	C	1.359966	-0.712867	-0.000029
C47	C	1.588939	-0.725523	-0.000021
C48	C	1.590509	-0.666114	-0.000020
C49	C	1.476804	-0.630082	-0.000035
C50	C	1.603358	-0.178964	0.000046
C51	C	1.604916	-0.119552	0.000066
C52	C	1.375944	-0.106901	0.000050
C53	C	1.374385	-0.166308	0.000038
C54	C	1.488102	-0.202339	0.000031
O55	O	1.274615	-0.254916	0.000054
O56	O	1.698244	-0.278375	0.000002
C57	C	1.712082	0.080536	0.000026
C58	C	1.851472	0.082210	0.000021
C59	C	1.471975	0.187867	-0.000013
C60	C	1.473663	0.251096	-0.000034
N61	N	1.482442	0.083786	0.346686
N62	N	1.482451	0.083785	-0.346644
C63	C	1.654199	0.007062	0.346706
C64	C	1.740086	-0.031299	0.423383
C65	C	1.740098	-0.031299	0.576717
C66	C	1.654212	0.007064	0.653377
C67	C	1.568325	0.045425	0.576700
C68	C	1.568325	0.045422	0.423363
C69	C	1.396564	0.122146	0.576679
C70	C	1.396555	0.122150	0.423346
C71	C	1.310678	0.160509	0.653339
C72	C	1.224795	0.198873	0.576662
C73	C	1.224787	0.198872	0.423320
C74	C	1.310669	0.160510	0.346669
H75	H	1.698790	-0.100525	0.000085
H76	H	1.654218	0.007057	0.778229
O77	O	0.791330	0.288044	-0.000369
C78	C	0.813847	0.319957	-0.126531
H79	H	0.859004	0.290069	-0.214692
H80	H	0.720627	0.342419	-0.168897
H81	H	0.880116	0.353189	-0.098025
H82	H	1.810030	-0.062538	0.639147
O83	O	1.821169	-0.493509	-0.000184
C84	C	1.891192	-0.482841	-0.126354
H85	H	1.859760	-0.437907	-0.168426
H86	H	1.995974	-0.486588	-0.097963
H87	H	1.874467	-0.515400	-0.214697
O88	O	1.823520	-0.068483	0.348689
C89	C	1.805108	-0.060255	0.196910
H90	H	1.757517	-0.015190	0.175975
H91	H	1.900299	-0.066141	0.138667
H92	H	1.742624	-0.092780	0.153355
H93	H	0.923230	-0.115298	0.000137
H94	H	1.268939	-0.624124	-0.000038
O95	O	1.140602	-0.455850	-0.000141
C96	C	1.040605	-0.411297	-0.000117
H97	H	1.075312	-0.370804	-0.046220
H98	H	0.960083	-0.424021	-0.070859
H99	H	1.005558	-0.403038	0.116745
H100	H	1.188795	0.190293	-0.000076
O101	O	1.310675	0.160615	0.802286
C102	C	1.335532	0.214779	0.853484
H103	H	1.309363	0.248219	0.765105
H104	H	1.277135	0.226189	0.956064
H105	H	1.440193	0.213726	0.880685
H106	H	1.160847	-0.112443	0.000140
O107	O	0.693019	0.184244	-0.000228
C108	C	0.657824	0.155303	-0.126392
H109	H	0.742419	0.125953	-0.168446
H110	H	0.577886	0.128774	-0.098000
H111	H	0.624707	0.187779	-0.214749
H112	H	1.654208	0.007063	0.221854
H113	H	1.280520	-0.185339	0.000064
H114	H	1.154867	0.230103	0.639088
O115	O	1.141306	0.236192	0.349067
C116	C	1.065490	0.270037	0.449615
H117	H	1.116970	0.270898	0.558913
H118	H	1.045744	0.315436	0.405303
H119	H	0.972450	0.251146	0.465935
H120	H	0.776083	-0.022713	0.000096
O121	O	1.248021	-0.735595	0.000226
C122	C	1.240261	-0.769603	0.126360
H123	H	1.305700	-0.755304	0.214550
H124	H	1.138986	-0.764678	0.168699
H125	H	1.269819	-0.816328	0.097826
H126	H	1.283375	-0.077553	0.000053
H127	H	1.684375	-0.647088	-0.000007
H128	H	1.041654	0.282871	-0.000101
O129	O	1.713739	-0.214017	0.000241
C130	C	1.719700	-0.248760	0.126417
H131	H	1.620066	-0.252176	0.168465
H132	H	1.767070	-0.293211	0.098043
H133	H	1.776784	-0.228989	0.214771
H134	H	1.251302	-0.016987	0.000058
O135	O	1.699420	-0.760509	0.000226
C136	C	1.769476	-0.749849	0.126369
H137	H	1.702932	-0.729817	0.214557
H138	H	1.820362	-0.791797	0.168706
H139	H	1.841782	-0.719315	0.097849
H140	H	1.161677	-0.344501	-0.000066
H141	H	1.806068	-0.380140	0.000027
H142	H	1.310674	0.160508	0.221817
