data_functionalizedCrystal
_audit_creation_method	'MofGen! by Chris Wilmer'
_symmetry_space_group_name_H-M	'P1'
_symmetry_Int_Tables_number	1
_symmetry_cell_setting	triclinic
loop_
_symmetry_equiv_pos_as_xyz
  x,y,z
_cell_length_a	11.026607
_cell_length_b	26.210047
_cell_length_c	11.026607
_cell_angle_alpha	90.007718
_cell_angle_beta	71.413983
_cell_angle_gamma	90.010318
loop_
_atom_site_label
_atom_site_type_symbol
_atom_site_fract_x
_atom_site_fract_y
_atom_site_fract_z
O1	O	1.726740	0.042428	-0.533608
O2	O	2.226740	0.542428	-0.033608
O3	O	1.360160	0.042429	-0.472844
O4	O	1.860160	0.542429	0.027156
O5	O	1.513068	0.042426	-0.319936
O6	O	2.013068	0.542426	0.180064
O7	O	1.573832	0.042430	-0.686516
O8	O	2.073832	0.542430	-0.186516
O9	O	1.513037	-0.042432	-0.319958
O10	O	2.013037	0.457568	0.180042
O11	O	1.360129	-0.042429	-0.472866
O12	O	1.860129	0.457571	0.027134
O13	O	1.726709	-0.042430	-0.533630
O14	O	2.226709	0.457570	-0.033630
Cu15	Cu	1.543416	-0.050178	-0.503250
Cu16	Cu	2.043416	0.449822	-0.003250
Cu17	Cu	1.543453	0.050176	-0.503224
Cu18	Cu	2.043453	0.550176	-0.003224
O19	O	1.573801	-0.042428	-0.686538
O20	O	2.073801	0.457572	-0.186538
C21	C	1.312485	-0.000000	-0.461645
C22	C	1.812485	0.500000	0.038355
C23	C	1.170471	-0.000000	-0.428228
C24	C	1.670471	0.500000	0.071772
N25	N	1.543399	-0.120762	-0.503270
N26	N	2.043399	0.379238	-0.003270
C27	C	1.116821	0.000001	-0.520498
C28	C	1.616821	0.500001	-0.020498
C29	C	0.970043	0.000002	-0.485962
C30	C	1.470043	0.500002	0.014038
C31	C	1.611156	-0.473277	-0.435534
C32	C	2.111156	0.026723	0.064466
C33	C	1.611180	-0.686936	-0.435522
C34	C	2.111180	-0.186936	0.064478
O35	O	1.668741	-0.714558	-0.377925
O36	O	2.168741	-0.214558	0.122075
N37	N	1.543453	-0.713656	-0.503197
N38	N	2.043453	-0.213656	-0.003197
C39	C	1.475709	-0.686958	-0.570873
C40	C	1.975709	-0.186958	-0.070873
O41	O	1.418093	-0.714588	-0.628424
O42	O	1.918093	-0.214588	-0.128424
C43	C	1.475678	-0.473301	-0.570877
C44	C	1.975678	0.026699	-0.070877
C45	C	1.543420	-0.446583	-0.503208
C46	C	2.043420	0.053417	-0.003208
C47	C	1.678891	-0.446559	-0.367869
C48	C	2.178891	0.053441	0.132131
C49	C	1.678890	-0.393148	-0.367878
C50	C	2.178890	0.106852	0.132122
C51	C	1.611154	-0.366454	-0.435552
C52	C	2.111154	0.133546	0.064448
C53	C	1.543419	-0.393172	-0.503217
C54	C	2.043419	0.106828	-0.003217
C55	C	1.407927	-0.446604	-0.638544
C56	C	1.907927	0.053396	-0.138544
C57	C	1.407923	-0.393186	-0.638537
C58	C	1.907923	0.106814	-0.138537
C59	C	1.475664	-0.366469	-0.570868
C60	C	1.975664	0.133531	-0.070868
C61	C	1.475682	-0.313066	-0.570900
C62	C	1.975682	0.186934	-0.070900
N63	N	1.543408	-0.286346	-0.503225
N64	N	2.043408	0.213654	-0.003225
C65	C	1.611144	-0.313040	-0.435551
C66	C	2.111144	0.186960	0.064449
C67	C	1.475732	-0.799132	-0.570869
C68	C	1.975732	-0.299132	-0.070869
C69	C	1.475741	-0.852546	-0.570870
C70	C	1.975741	-0.352546	-0.070870
C71	C	1.611211	-0.852519	-0.435517
C72	C	2.111211	-0.352519	0.064483
C73	C	1.611208	-0.799104	-0.435524
C74	C	2.111208	-0.299104	0.064476
C75	C	1.543459	-0.772411	-0.503194
C76	C	2.043459	-0.272411	-0.003194
C77	C	1.611138	-0.200872	-0.435576
C78	C	2.111138	0.299128	0.064424
C79	C	1.611135	-0.147456	-0.435596
C80	C	2.111135	0.352544	0.064404
C81	C	1.475661	-0.147487	-0.570943
C82	C	1.975661	0.352513	-0.070943
C83	C	1.475668	-0.200898	-0.570930
C84	C	1.975668	0.299102	-0.070930
C85	C	1.543410	-0.227590	-0.503237
C86	C	2.043410	0.272410	-0.003237
O87	O	1.418139	-0.285411	-0.628455
O88	O	1.918139	0.214589	-0.128455
O89	O	1.668729	-0.285401	-0.377986
O90	O	2.168729	0.214599	0.122014
C91	C	1.611157	-0.526689	-0.435524
C92	C	2.111157	-0.026689	0.064476
C93	C	1.543422	-0.553406	-0.503189
C94	C	2.043422	-0.053406	-0.003189
C95	C	1.475686	-0.526712	-0.570863
C96	C	1.975686	-0.026712	-0.070863
C97	C	1.543431	-0.606820	-0.503190
C98	C	2.043431	-0.106820	-0.003190
C99	C	1.611167	-0.633514	-0.435516
C100	C	2.111167	-0.133514	0.064484
C101	C	1.678894	-0.606794	-0.367841
C102	C	2.178894	-0.106794	0.132159
C103	C	1.678893	-0.553382	-0.367851
C104	C	2.178893	-0.053382	0.132149
C105	C	1.407959	-0.553433	-0.638538
C106	C	1.907959	-0.053433	-0.138538
C107	C	1.407967	-0.606844	-0.638525
C108	C	1.907967	-0.106844	-0.138525
C109	C	1.475703	-0.633538	-0.570851
C110	C	1.975703	-0.133538	-0.070851
C111	C	1.774384	-0.000000	-0.544828
C112	C	2.274384	0.500000	-0.044828
C113	C	1.916398	0.000003	-0.578245
C114	C	2.416398	0.500003	-0.078245
C115	C	1.501843	-0.000002	-0.272287
C116	C	2.001843	0.499998	0.227713
C117	C	1.468426	-0.000000	-0.130273
C118	C	1.968426	0.500000	0.369727
N119	N	1.543477	0.120760	-0.503196
N120	N	2.043477	0.620760	-0.003196
C121	C	1.585026	0.000001	-0.734187
C122	C	2.085026	0.500001	-0.234187
C123	C	1.618443	0.000003	-0.876200
C124	C	2.118443	0.500003	-0.376200
C125	C	1.560695	0.000000	-0.076624
C126	C	2.060695	0.500000	0.423376
C127	C	1.526160	0.000002	0.070155
C128	C	2.026160	0.500002	0.570155
H129	H	1.179555	-0.000001	-0.625061
H130	H	1.679555	0.499999	-0.125061
F131	F	1.403577	-0.119069	-0.642967
F132	F	1.903577	0.380931	-0.142967
H133	H	1.421590	0.000006	0.132884
H134	H	1.921590	0.500006	0.632884
H135	H	0.907314	0.000014	-0.381393
H136	H	1.407314	0.500014	0.118607
F137	F	1.403623	-0.770728	-0.642899
F138	F	1.903623	-0.270728	-0.142899
H139	H	1.352765	-0.468350	-0.693646
H140	H	1.852765	0.031650	-0.193646
F141	F	1.683241	-0.119024	-0.363573
F142	F	2.183241	0.380976	0.136427
H143	H	1.363863	0.000003	-0.067540
H144	H	1.863863	0.500003	0.432460
F145	F	1.755125	0.000005	0.041816
F146	F	2.255125	0.500005	0.541816
H147	H	0.979125	0.000000	-0.682816
H148	H	1.479125	0.500000	-0.182816
H149	H	1.107738	0.000012	-0.323666
H150	H	1.607738	0.500012	0.176334
F151	F	1.683236	-0.229271	-0.363530
F152	F	2.183236	0.270729	0.136470
F153	F	1.683301	-0.880939	-0.363493
F154	F	2.183301	-0.380939	0.136507
F155	F	1.750982	-0.364718	-0.295849
F156	F	2.250982	0.135282	0.204151
H157	H	1.734054	-0.531633	-0.312748
H158	H	2.234054	-0.031633	0.187252
F159	F	1.335869	-0.635274	-0.710560
F160	F	1.835869	-0.135274	-0.210560
F161	F	1.335862	-0.525029	-0.710569
F162	F	1.835862	-0.025029	-0.210569
H163	H	1.666368	-0.777354	-0.380421
H164	H	2.166368	-0.277354	0.119579
F165	F	1.750989	-0.474962	-0.295833
F166	F	2.250989	0.025038	0.204167
H167	H	1.420596	-0.874296	-0.625989
H168	H	1.920596	-0.374296	-0.125989
F169	F	1.697370	0.000003	-0.158615
F170	F	2.197370	0.500003	0.341385
F171	F	1.403585	-0.229332	-0.642968
F172	F	1.903585	0.270668	-0.142968
F173	F	1.335809	-0.364781	-0.710560
F174	F	1.835809	0.135219	-0.210560
H175	H	1.734053	-0.628537	-0.312744
H176	H	2.234053	-0.128537	0.187256
