data_functionalizedCrystal
_audit_creation_method	'MofGen! by Chris Wilmer'
_symmetry_space_group_name_H-M	'P1'
_symmetry_Int_Tables_number	1
_symmetry_cell_setting	triclinic
loop_
_symmetry_equiv_pos_as_xyz
  x,y,z
_cell_length_a	8.597340
_cell_length_b	16.109301
_cell_length_c	14.586319
_cell_angle_alpha	89.998857
_cell_angle_beta	97.703492
_cell_angle_gamma	95.596555
loop_
_atom_site_label
_atom_site_type_symbol
_atom_site_fract_x
_atom_site_fract_y
_atom_site_fract_z
O1	O	-0.201731	1.104800	-0.092121
O2	O	-0.226836	0.862946	-0.094116
O3	O	0.014185	0.988632	-0.075070
O4	O	-0.442751	0.979115	-0.111167
O5	O	0.014188	0.988623	0.077411
O6	O	-0.226832	0.862937	0.058365
O7	O	-0.201728	1.104792	0.060360
Cu8	Cu	-0.214280	0.983864	0.073285
Cu9	Cu	-0.214284	0.983874	-0.107041
O10	O	-0.442748	0.979106	0.041314
C11	C	-0.225817	0.831959	-0.017797
C12	C	-0.222768	0.739638	-0.017561
C13	C	-0.355818	0.431741	-0.028056
C14	C	-0.358697	0.518485	-0.028288
C15	C	-0.072734	0.535991	-0.005710
C16	C	-0.069857	0.449249	-0.005484
C17	C	-0.211403	0.397126	-0.016652
C18	C	-0.217160	0.570612	-0.017111
C19	C	-0.220281	0.664664	-0.017364
C20	C	-0.208282	0.303068	-0.016402
C21	C	-0.501220	0.980133	-0.039545
C22	C	-0.675445	0.983190	-0.053309
C23	C	0.072657	0.987605	0.005788
C24	C	0.246881	0.984548	0.019545
C25	C	-0.202746	1.135779	-0.015961
C26	C	-0.205795	1.228100	-0.016203
N27	N	-0.214276	0.983862	0.200117
N28	N	-0.214275	0.983882	-0.233872
C29	C	-0.107588	1.039535	0.443555
C30	C	-0.107584	1.039537	0.539536
C31	C	-0.320968	0.928203	0.522683
C32	C	-0.320963	0.928198	0.426704
C33	C	-0.214275	0.983868	0.387142
C34	C	-0.214276	0.983876	0.579103
C35	C	-0.214273	0.983878	0.683170
C36	C	-0.214276	0.983865	0.283068
H37	H	0.042507	0.578440	0.003385
O38	O	-0.004010	1.093534	0.594472
C39	C	-0.026907	1.081618	0.687669
H40	H	-0.085526	1.015997	0.696152
H41	H	0.091943	1.089906	0.733535
H42	H	-0.105652	1.129313	0.708681
O43	O	-0.754883	0.984551	-0.140357
C44	C	-0.647681	0.982699	-0.205326
H45	H	-0.537448	0.954399	-0.172334
H46	H	-0.705079	0.943276	-0.267964
H47	H	-0.613832	1.048921	-0.228217
H48	H	-0.020713	1.084864	0.411346
O49	O	-0.493164	0.380989	-0.038862
C50	C	-0.459665	0.297003	-0.036241
H51	H	-0.336393	0.292675	0.002365
H52	H	-0.549885	0.258446	0.000900
H53	H	-0.465628	0.271975	-0.109865
O54	O	-0.673317	0.983026	0.106479
C55	C	-0.596466	0.909536	0.117460
H56	H	-0.578025	0.885175	0.046729
H57	H	-0.477277	0.923659	0.161979
H58	H	-0.671949	0.860350	0.152551
H59	H	-0.407834	0.882879	0.554904
O60	O	-0.424826	0.874204	0.371924
C61	C	-0.580198	0.888968	0.383111
H62	H	-0.581005	0.955537	0.409426
H63	H	-0.658952	0.880042	0.313767
H64	H	-0.626277	0.843265	0.435185
O65	O	-0.499118	0.551973	-0.039332
C66	C	-0.623424	0.487364	-0.049166
H67	H	-0.579448	0.428098	-0.016824
H68	H	-0.724246	0.506304	-0.012856
H69	H	-0.667094	0.475445	-0.125765
H70	H	0.047750	0.421065	0.003799
