data_functionalizedCrystal
_audit_creation_method	'MofGen! by Chris Wilmer'
_symmetry_space_group_name_H-M	'P1'
_symmetry_Int_Tables_number	1
_symmetry_cell_setting	triclinic
loop_
_symmetry_equiv_pos_as_xyz
  x,y,z
_cell_length_a	14.519709
_cell_length_b	22.610064
_cell_length_c	14.519731
_cell_angle_alpha	89.996905
_cell_angle_beta	96.315501
_cell_angle_gamma	89.997894
loop_
_atom_site_label
_atom_site_type_symbol
_atom_site_fract_x
_atom_site_fract_y
_atom_site_fract_z
O1	O	-1.223883	0.049102	0.120878
O2	O	-0.955407	0.049122	0.135114
O3	O	-1.096753	0.049106	-0.006241
O4	O	-1.082537	0.049118	0.262233
O5	O	-1.096728	-0.049263	-0.006221
O6	O	-0.955382	-0.049248	0.135135
O7	O	-1.223858	-0.049268	0.120898
Zn8	Zn	-1.089616	-0.064876	0.128020
Zn9	Zn	-1.089649	0.064730	0.127992
O10	O	-1.082512	-0.049252	0.262253
C11	C	-0.921035	-0.000061	0.134461
C12	C	-0.818654	-0.000053	0.132473
C13	C	-0.443757	-0.000078	0.125153
C14	C	-0.548065	-0.000071	0.127186
C15	C	-0.631202	-0.000065	0.128813
C16	C	-0.735517	-0.000059	0.130846
N17	N	-1.089600	-0.153328	0.128038
C18	C	-1.152240	-0.561977	0.065410
C19	C	-1.152245	-0.623897	0.065403
O20	O	-1.205464	-0.655921	0.012169
N21	N	-1.089648	-0.654865	0.127973
C22	C	-1.027037	-0.623911	0.190548
O23	O	-0.973794	-0.655938	0.243767
C24	C	-1.027029	-0.561992	0.190549
C25	C	-1.089635	-0.531027	0.127981
C26	C	-1.214841	-0.531011	0.002846
C27	C	-1.214837	-0.469095	0.002855
C28	C	-1.152232	-0.438145	0.065426
C29	C	-1.089632	-0.469111	0.127990
C30	C	-0.964414	-0.531039	0.253119
C31	C	-0.964410	-0.469116	0.253114
C32	C	-1.027017	-0.438151	0.190547
C33	C	-1.027023	-0.376245	0.190569
N34	N	-1.089619	-0.345277	0.127999
C35	C	-1.152224	-0.376227	0.065428
C36	C	-1.027058	-0.753945	0.190539
C37	C	-1.027070	-0.815862	0.190542
C38	C	-1.152277	-0.815844	0.065396
C39	C	-1.152269	-0.753925	0.065398
C40	C	-1.089655	-0.722976	0.127969
C41	C	-1.152212	-0.246199	0.065450
C42	C	-1.152205	-0.184278	0.065466
C43	C	-1.026996	-0.184302	0.190608
C44	C	-1.027005	-0.246218	0.190596
C45	C	-1.089617	-0.277165	0.128009
O46	O	-0.973829	-0.344181	0.243774
O47	O	-1.205450	-0.344192	0.012209
C48	C	-0.258230	-0.000083	0.121551
C49	C	-0.360612	-0.000082	0.123539
C50	C	-1.096075	-0.000079	-0.040591
C51	C	-1.094079	-0.000079	-0.142971
N52	N	-1.089672	0.153182	0.127967
C53	C	-1.092457	-0.000078	-0.226115
C54	C	-1.090430	-0.000073	-0.330424
C55	C	-1.088822	-0.000069	-0.413563
C56	C	-1.086795	-0.000066	-0.517878
C57	C	-1.083191	-0.000066	0.296603
C58	C	-1.085187	-0.000062	0.398983
H59	H	-1.203190	-0.159068	0.014516
C60	C	-0.838934	-0.600666	0.272841
C61	C	-0.895587	-0.565066	0.321891
H62	H	-0.796443	-0.621673	0.315301
H63	H	-0.805713	-0.576508	0.234377
H64	H	-0.876226	-0.627967	0.235590
H65	H	-0.858295	-0.537762	0.359137
H66	H	-0.928810	-0.589225	0.360370
H67	H	-1.203252	-0.841054	0.014446
C68	C	-1.275976	-0.239944	-0.058249
C69	C	-1.221036	-0.280210	-0.003345
H70	H	-1.318470	-0.260942	-0.100713
H71	H	-1.237529	-0.215795	-0.091499
H72	H	-1.309202	-0.215795	-0.019767
H73	H	-1.187805	-0.304357	-0.041826
H74	H	-1.259489	-0.304370	0.029908
H75	H	-1.203248	-0.728716	0.014449
C76	C	-1.338585	-0.475316	-0.120853
C77	C	-1.283646	-0.435063	-0.065934
H78	H	-1.381060	-0.454307	-0.163328
H79	H	-1.371823	-0.499462	-0.082390
H80	H	-1.300127	-0.499470	-0.154100
H81	H	-1.322103	-0.410912	-0.032681
H82	H	-1.250406	-0.410907	-0.104402
H83	H	-1.265821	-0.556205	-0.048111
H84	H	-0.976100	-0.841070	0.241501
H85	H	-0.976026	-0.159093	0.241556
C86	C	-0.903308	-0.760193	0.314252
C87	C	-0.958239	-0.719929	0.259336
H88	H	-0.860827	-0.739194	0.356727
H89	H	-0.870077	-0.784341	0.275787
H90	H	-0.941770	-0.784344	0.347499
H91	H	-0.919778	-0.695780	0.226084
H92	H	-0.991473	-0.695770	0.297807
H93	H	-0.913419	-0.443921	0.304066
H94	H	-0.976034	-0.271431	0.241553
