data_functionalizedCrystal
_audit_creation_method	'MofGen! by Chris Wilmer'
_symmetry_space_group_name_H-M	'P1'
_symmetry_Int_Tables_number	1
_symmetry_cell_setting	triclinic
loop_
_symmetry_equiv_pos_as_xyz
  x,y,z
_cell_length_a	21.395362
_cell_length_b	13.032721
_cell_length_c	21.395355
_cell_angle_alpha	82.834036
_cell_angle_beta	90.043940
_cell_angle_gamma	97.222741
loop_
_atom_site_label
_atom_site_type_symbol
_atom_site_fract_x
_atom_site_fract_y
_atom_site_fract_z
Zn1	Zn	0.926247	-0.415745	0.386233
Zn2	Zn	1.426247	0.084255	0.886233
Zn3	Zn	0.912862	-0.590486	0.294757
Zn4	Zn	1.412862	-0.090486	0.794757
Zn5	Zn	0.821458	-0.415794	0.281438
Zn6	Zn	1.321458	0.084206	0.781438
Zn7	Zn	0.808142	-0.590507	0.399463
Zn8	Zn	1.308142	-0.090507	0.899463
O9	O	0.867177	-0.503133	0.340473
O10	O	1.367177	-0.003133	0.840473
O11	O	1.012151	-0.438895	0.374135
O12	O	1.512151	0.061105	0.874135
O13	O	0.900708	-0.567324	0.205313
O14	O	1.400708	-0.067324	0.705313
O15	O	0.846533	-0.269539	0.284228
O16	O	1.346533	0.230461	0.784228
O17	O	1.002318	-0.567277	0.306928
O18	O	1.502318	-0.067277	0.806928
O19	O	0.923520	-0.269504	0.361220
O20	O	1.423520	0.230496	0.861220
O21	O	0.833554	-0.438978	0.195527
O22	O	1.333554	0.061022	0.695527
O23	O	0.732011	-0.438999	0.297057
O24	O	1.232011	0.061001	0.797057
O25	O	0.823837	-0.567313	0.485385
O26	O	1.323837	-0.067313	0.985385
O27	O	0.722228	-0.567361	0.383770
O28	O	1.222228	-0.067361	0.883770
O29	O	0.910608	-0.438916	0.475665
O30	O	1.410608	0.061084	0.975665
O31	O	0.887796	-0.736737	0.319757
O32	O	1.387796	-0.236737	0.819757
O33	O	0.810859	-0.736753	0.396685
O34	O	1.310859	-0.236753	0.896685
C35	C	0.704385	-0.503188	0.340404
C36	C	1.204385	-0.003188	0.840404
C37	C	0.634740	-0.503237	0.340392
C38	C	1.134740	-0.003237	0.840392
C39	C	0.596943	-0.570163	0.385490
C40	C	1.096943	-0.070163	0.885490
C41	C	0.531509	-0.570138	0.385516
C42	C	1.031509	-0.070138	0.885516
C43	C	0.503875	-0.503197	0.340433
C44	C	1.003875	-0.003197	0.840433
C45	C	0.541681	-0.436257	0.295331
C46	C	1.041681	0.063743	0.795331
C47	C	0.607114	-0.436278	0.295311
C48	C	1.107114	0.063722	0.795311
C49	C	0.400790	-0.494778	0.283387
C50	C	0.900790	0.005222	0.783387
C51	C	0.335358	-0.494765	0.283407
C52	C	0.835358	0.005235	0.783407
C53	C	0.302059	-0.503129	0.340497
C54	C	0.802059	-0.003129	0.840497
C55	C	0.334199	-0.511527	0.397570
C56	C	0.834199	-0.011527	0.897570
C57	C	0.399631	-0.511547	0.397549
C58	C	0.899631	-0.011547	0.897549
C59	C	0.432925	-0.503167	0.340451
C60	C	0.932925	-0.003167	0.840451
C61	C	0.193311	-0.570031	0.385627
C62	C	0.693311	-0.070031	0.885627
C63	C	0.127877	-0.569998	0.385654
C64	C	0.627877	-0.069998	0.885654
C65	C	0.138050	-0.436123	0.295464
C66	C	0.638050	0.063877	0.795464
C67	C	0.203483	-0.436150	0.295443
C68	C	0.703483	0.063850	0.795443
C69	C	0.231110	-0.503110	0.340524
C70	C	0.731110	-0.003110	0.840524
C71	C	0.846447	-0.774665	0.361116
C72	C	1.346447	-0.274665	0.861116
C73	C	0.837636	-0.890828	0.369968
C74	C	1.337636	-0.390828	0.869968
C75	C	0.871809	-0.942574	0.335881
C76	C	1.371809	-0.442574	0.835881
C77	C	0.862703	-1.062634	0.345029
C78	C	1.362703	-0.562634	0.845029
C79	C	1.030605	-0.503078	0.340542
C80	C	1.530605	-0.003078	0.840542
C81	C	1.100248	-0.503055	0.340571
C82	C	1.600248	-0.003055	0.840571
C83	C	0.867231	-0.503112	0.503894
C84	C	1.367231	-0.003112	1.003894
C85	C	0.867254	-0.503103	0.573535
C86	C	1.367254	-0.003103	1.073535
C87	C	0.888005	-0.230541	0.319763
C88	C	1.388005	0.269459	0.819763
C89	C	0.896880	-0.114378	0.310937
C90	C	1.396880	0.385622	0.810937
C91	C	0.867165	-0.503079	0.177681
C92	C	1.367165	-0.003079	0.677681
C93	C	0.867286	-0.502793	0.108018
C94	C	1.367286	-0.002793	0.608018
C95	C	0.912434	-0.436244	0.601188
C96	C	1.412434	0.063756	1.101188
C97	C	0.912436	-0.436199	0.666620
C98	C	1.412436	0.063801	1.166620
C99	C	0.867264	-0.503032	0.704398
C100	C	1.367264	-0.003032	1.204398
C101	C	0.822076	-0.569895	0.676738
C102	C	1.322076	-0.069895	1.176738
C103	C	0.822070	-0.569931	0.611306
C104	C	1.322070	-0.069931	1.111306
C105	C	0.855132	-0.597135	0.815225
C106	C	1.355132	-0.097135	1.315225
C107	C	0.855142	-0.597102	0.880656
C108	C	1.355142	-0.097102	1.380656
C109	C	0.867276	-0.502921	0.906210
C110	C	1.367276	-0.002921	1.406210
C111	C	0.879414	-0.408772	0.866327
C112	C	1.379414	0.091228	1.366327
C113	C	0.879409	-0.408807	0.800895
C114	C	1.379409	0.091193	1.300895
C115	C	0.867264	-0.503000	0.775348
C116	C	1.367264	-0.003000	1.275348
C117	C	0.912462	-0.436008	1.004811
C118	C	1.412462	0.063992	1.504811
C119	C	0.912460	-0.435961	1.070245
C120	C	1.412460	0.064039	1.570245
C121	C	0.822102	-0.569667	1.080362
C122	C	1.322102	-0.069667	1.580362
C123	C	0.822101	-0.569704	1.014930
C124	C	1.322101	-0.069704	1.514930
C125	C	0.867284	-0.502876	0.977158
C126	C	1.367284	-0.002876	1.477158
H127	H	0.425797	-0.518383	0.444020
H128	H	0.925797	-0.018383	0.944020
H129	H	0.845085	-0.673809	0.794423
H130	H	1.345085	-0.173809	1.294423
H131	H	0.307088	-0.518336	0.444058
H132	H	0.807088	-0.018336	0.944058
Br133	Br	0.777641	-0.965122	0.429905
Br134	Br	1.277641	-0.465122	0.929905
Br135	Br	0.895889	-0.280946	0.900999
Br136	Br	1.395889	0.219054	1.400999
Br137	Br	0.956889	-1.040090	0.251007
Br138	Br	1.456889	-0.540090	0.751007
Br139	Br	0.973751	-0.345545	0.549929
Br140	Br	1.473751	0.154455	1.049929
Br141	Br	0.802705	-1.136925	0.404969
Br142	Br	1.302705	-0.636925	0.904969
H143	H	0.619432	-0.624686	0.422199
H144	H	1.119432	-0.124686	0.922199
H145	H	0.309195	-0.487933	0.236936
H146	H	0.809195	0.012067	0.736936
Br147	Br	0.230808	-0.660897	0.446809
Br148	Br	0.730808	-0.160897	0.946809
H149	H	0.889291	-0.332148	0.768424
H150	H	1.389291	0.167852	1.268424
H151	H	0.785316	-0.624073	1.111120
H152	H	1.285316	-0.124073	1.611120
Br153	Br	0.760782	-0.660449	0.977399
Br154	Br	1.260782	-0.160449	1.477399
Br155	Br	0.658415	-0.345440	0.234102
Br156	Br	1.158415	0.154560	0.734102
H157	H	0.949226	-0.381748	0.689138
H158	H	1.449226	0.118252	1.189138
Br159	Br	0.973778	-0.345311	0.953546
Br160	Br	1.473778	0.154689	1.453546
H161	H	0.845262	-0.673764	0.913124
H162	H	1.345262	-0.173764	1.413124
Br163	Br	0.760766	-0.660591	0.728006
Br164	Br	1.260766	-0.160591	1.228006
H165	H	0.234259	-0.381657	0.258716
H166	H	0.734259	0.118343	0.758716
H167	H	0.097103	-0.624495	0.422382
H168	H	0.597103	-0.124495	0.922382
Br169	Br	0.931816	-0.868279	0.275955
Br170	Br	1.431816	-0.368279	0.775955
H171	H	0.949251	-0.381510	1.092757
H172	H	1.449251	0.118490	1.592757
H173	H	0.500729	-0.624637	0.422242
H174	H	1.000729	-0.124637	0.922242
Br175	Br	0.100555	-0.345263	0.234284
Br176	Br	0.600555	0.154737	0.734284
Br177	Br	0.445975	-0.483427	0.205901
Br178	Br	0.945975	0.016573	0.705901
H179	H	0.785276	-0.624375	0.588793
H180	H	1.285276	-0.124375	1.088793
H181	H	0.519178	-0.381752	0.258626
H182	H	1.019178	0.118248	0.758626
