data_functionalizedCrystal
_audit_creation_method	'MofGen! by Chris Wilmer'
_symmetry_space_group_name_H-M	'P1'
_symmetry_Int_Tables_number	1
_symmetry_cell_setting	triclinic
loop_
_symmetry_equiv_pos_as_xyz
  x,y,z
_cell_length_a	17.038275
_cell_length_b	17.038272
_cell_length_c	7.540329
_cell_angle_alpha	89.996404
_cell_angle_beta	89.997743
_cell_angle_gamma	91.110915
loop_
_atom_site_label
_atom_site_type_symbol
_atom_site_fract_x
_atom_site_fract_y
_atom_site_fract_z
O1	O	-1.048751	-0.170523	0.147521
O2	O	-0.548751	0.329477	0.647521
O3	O	-0.820939	-0.167818	0.147517
O4	O	-0.320939	0.332182	0.647517
O5	O	-0.933491	-0.055265	0.147505
O6	O	-0.433491	0.444735	0.647505
O7	O	-0.936199	-0.283076	0.147533
O8	O	-0.436199	0.216924	0.647533
O9	O	-0.933487	-0.055264	-0.147460
O10	O	-0.433487	0.444736	0.352540
O11	O	-0.820935	-0.167817	-0.147448
O12	O	-0.320935	0.332183	0.352552
O13	O	-1.048747	-0.170522	-0.147444
O14	O	-0.548747	0.329478	0.352556
Cu15	Cu	-0.934841	-0.169169	-0.174379
Cu16	Cu	-0.434841	0.330831	0.325621
Cu17	Cu	-0.934846	-0.169171	0.174452
Cu18	Cu	-0.434846	0.330829	0.674452
O19	O	-0.936195	-0.283075	-0.147432
O20	O	-0.436195	0.216925	0.352568
C21	C	-0.791645	-0.165355	0.000034
C22	C	-0.291645	0.334645	0.500034
C23	C	-0.704361	-0.158008	0.000032
C24	C	-0.204361	0.341992	0.500032
C25	C	-0.210935	-0.112871	0.000023
C26	C	0.289065	0.387129	0.500023
C27	C	-0.292947	-0.119781	0.000015
C28	C	0.207053	0.380219	0.500015
C29	C	-0.329347	-0.194154	0.000033
C30	C	0.170653	0.305846	0.500033
C31	C	-0.283730	-0.261622	0.000041
C32	C	0.216270	0.238378	0.500041
C33	C	-0.201720	-0.254712	0.000036
C34	C	0.298280	0.245288	0.500036
C35	C	-0.576734	-0.218566	0.000035
C36	C	-0.076734	0.281434	0.500035
C37	C	-0.658751	-0.225471	0.000045
C38	C	-0.158751	0.274529	0.500045
C39	C	-0.667962	-0.083629	0.000016
C40	C	-0.167962	0.416371	0.500016
C41	C	-0.585949	-0.076725	0.000022
C42	C	-0.085949	0.423275	0.500022
C43	C	-0.540340	-0.144193	0.000021
C44	C	-0.040340	0.355807	0.500021
C45	C	-0.413176	-0.201218	0.000030
C46	C	0.086824	0.298782	0.500030
C47	C	-0.456513	-0.137128	0.000011
C48	C	0.043487	0.362872	0.500011
C49	C	-0.931026	-0.025972	0.000022
C50	C	-0.431026	0.474028	0.500022
C51	C	-0.923678	0.061312	0.000023
C52	C	-0.423678	0.561312	0.500023
C53	C	-0.078041	-0.172986	0.000038
C54	C	0.421959	0.327014	0.500038
C55	C	-0.165325	-0.180334	0.000036
C56	C	0.334675	0.319666	0.500036
C57	C	-0.938660	-0.312369	0.000054
C58	C	-0.438660	0.187631	0.500054
C59	C	-0.946008	-0.399652	0.000065
C60	C	-0.446008	0.100348	0.500065
N61	N	-0.934843	-0.169168	-0.419727
N62	N	-0.434843	0.330832	0.080273
C63	C	-0.991142	0.106922	0.000022
C64	C	-0.491142	0.606922	0.500022
C65	C	-0.984233	0.188934	0.000039
C66	C	-0.484233	0.688934	0.500039
C67	C	-0.909860	0.225334	0.000044
C68	C	-0.409860	0.725334	0.500044
C69	C	-0.842391	0.179718	0.000049
C70	C	-0.342391	0.679718	0.500049
C71	C	-0.849301	0.097708	0.000045
C72	C	-0.349301	0.597708	0.500045
C73	C	-0.885449	0.472722	0.000067
C74	C	-0.385449	0.972722	0.500067
C75	C	-0.878544	0.554738	0.000066
C76	C	-0.378544	1.054738	0.500066
C77	C	-1.020387	0.563948	0.000059
C78	C	-0.520387	1.063948	0.500059
C79	C	-1.027290	0.481936	0.000044
C80	C	-0.527290	0.981936	0.500044
C81	C	-0.959821	0.436327	0.000059
C82	C	-0.459821	0.936327	0.500059
C83	C	-0.902796	0.309163	0.000055
C84	C	-0.402796	0.809163	0.500055
C85	C	-0.966886	0.352499	0.000061
C86	C	-0.466886	0.852499	0.500061
N87	N	-0.934849	-0.169166	0.419800
N88	N	-0.434849	0.330834	0.919800
H89	H	-0.313374	-0.322179	0.000044
H90	H	0.186626	0.177821	0.500044
H91	H	-1.075316	0.601091	0.000050
H92	H	-0.575316	1.101091	0.500050
H93	H	-0.426872	-0.076574	0.000016
H94	H	0.073128	0.423426	0.500016
Cl95	Cl	-0.540196	0.016777	0.000063
Cl96	Cl	-0.040196	0.516777	0.500063
Cl97	Cl	-0.725303	0.001183	0.000003
Cl98	Cl	-0.225303	0.501183	0.500003
Cl99	Cl	-0.704509	-0.318976	0.000065
Cl100	Cl	-0.204509	0.181024	0.500065
H101	H	-0.817978	0.584372	0.000041
H102	H	-0.317978	1.084372	0.500041
H103	H	-1.087853	0.452305	0.000040
H104	H	-0.587853	0.952305	0.500040
Cl105	Cl	-0.809300	0.354930	0.000070
Cl106	Cl	-0.309300	0.854930	0.500070
Cl107	Cl	-1.060380	0.306738	0.000064
Cl108	Cl	-0.560380	0.806738	0.500064
H109	H	-0.539609	-0.273504	0.000043
H110	H	-0.039609	0.226496	0.500043
H111	H	-0.794364	0.060572	0.000046
H112	H	-0.294364	0.560572	0.500046
Cl113	Cl	-0.144381	-0.339527	0.000041
Cl114	Cl	0.355619	0.160473	0.500041
H115	H	-0.442822	-0.261774	0.000050
H116	H	0.057178	0.238226	0.500050
Cl117	Cl	-1.084644	0.061170	-0.000002
Cl118	Cl	-0.584644	0.561170	0.499998
H119	H	-1.039169	0.226066	0.000035
H120	H	-0.539169	0.726066	0.500035
Cl121	Cl	-0.800630	0.415395	0.000091
Cl122	Cl	-0.300630	0.915395	0.500091
H123	H	-0.781834	0.209361	0.000064
H124	H	-0.281834	0.709361	0.500064
H125	H	-0.330080	-0.064844	-0.000004
H126	H	0.169920	0.435156	0.499996
Cl127	Cl	-0.165184	-0.019368	0.000007
Cl128	Cl	0.334816	0.480632	0.500007
