data_functionalizedCrystal
_audit_creation_method	'MofGen! by Chris Wilmer'
_symmetry_space_group_name_H-M	'P1'
_symmetry_Int_Tables_number	1
_symmetry_cell_setting	triclinic
loop_
_symmetry_equiv_pos_as_xyz
  x,y,z
_cell_length_a	12.837943
_cell_length_b	15.538191
_cell_length_c	11.295483
_cell_angle_alpha	92.465302
_cell_angle_beta	85.461227
_cell_angle_gamma	71.050517
loop_
_atom_site_label
_atom_site_type_symbol
_atom_site_fract_x
_atom_site_fract_y
_atom_site_fract_z
O1	O	1.295381	0.231359	-0.098983
O2	O	0.997979	0.219657	-0.098991
O3	O	1.204572	0.093575	-0.098991
O4	O	1.088787	0.357441	-0.098983
O5	O	1.186434	0.104630	0.099060
O6	O	0.979840	0.230712	0.099060
O7	O	1.277242	0.242415	0.099068
Cu8	Cu	1.126885	0.237573	0.117148
Cu9	Cu	1.148336	0.224499	-0.117070
O10	O	1.070649	0.368496	0.099068
C11	C	0.951777	0.221232	0.000033
C12	C	0.841136	0.209441	0.000030
C13	C	0.546845	0.351179	0.000051
C14	C	0.442886	0.340106	0.000049
C15	C	0.529256	0.176222	0.000031
C16	C	0.633215	0.187296	0.000033
C17	C	0.642004	0.274777	0.000042
C18	C	0.745966	0.285849	0.000036
C19	C	0.832333	0.121967	0.000026
C20	C	0.728374	0.110893	0.000024
C21	C	1.207617	0.065094	0.000031
C22	C	1.243702	-0.036241	0.000020
C23	C	0.885218	-0.356209	0.000036
C24	C	0.919149	-0.451429	0.000039
C25	C	1.110005	-0.456740	0.000044
C26	C	1.076091	-0.361519	0.000035
C27	C	0.963696	-0.311261	0.000032
C28	C	1.154568	-0.316570	0.000031
C29	C	1.120655	-0.221357	0.000027
C30	C	1.008265	-0.171093	0.000028
C31	C	0.929783	-0.216048	0.000029
C32	C	1.266962	-0.366829	0.000042
C33	C	1.345439	-0.321881	0.000038
C34	C	1.311528	-0.226667	0.000026
C35	C	1.199137	-0.176402	0.000027
C36	C	1.390010	-0.181712	0.000026
C37	C	1.356097	-0.086499	0.000023
C38	C	1.165224	-0.081189	0.000024
C39	C	1.323445	0.240840	0.000041
C40	C	1.434086	0.252630	0.000037
C41	C	1.067604	0.396977	0.000044
C42	C	1.031520	0.498312	0.000047
N43	N	1.111805	0.246768	0.281884
N44	N	1.163426	0.215297	-0.281807
C45	C	1.271998	0.149051	0.531173
C46	C	1.260607	0.156007	0.655837
C47	C	1.077629	0.267632	0.655877
C48	C	1.089021	0.260676	0.531213
C49	C	1.186209	0.201384	0.468866
C50	C	1.197602	0.194433	0.344200
C51	C	1.014622	0.306053	0.344242
C52	C	1.003231	0.313009	0.468906
H53	H	0.365407	0.402321	0.000060
H54	H	0.924100	0.361281	0.519684
O55	O	1.056027	-0.032466	-0.000148
C56	C	1.015662	-0.059825	-0.102742
H57	H	1.070546	-0.131624	-0.136932
H58	H	0.927399	-0.059356	-0.079684
H59	H	1.016399	-0.010621	-0.174567
O60	O	0.931415	0.356942	0.283589
C61	C	0.970542	0.413999	0.211503
H62	H	1.064353	0.383738	0.192803
H63	H	0.931280	0.419760	0.123851
H64	H	0.947631	0.484637	0.259562
H65	H	0.909827	0.059754	0.000011
O66	O	0.754637	0.370786	0.000202
C67	C	0.802773	0.387825	0.102789
H68	H	0.852711	0.320247	0.136977
H69	H	0.859712	0.429005	0.079723
H70	H	0.734823	0.427999	0.174619
H71	H	0.793696	-0.315287	0.000025
O72	O	0.555269	0.436189	-0.000106
C73	C	0.513017	0.477597	-0.102694
H74	H	0.452944	0.444352	-0.136892
H75	H	0.467846	0.553467	-0.079625
H76	H	0.584092	0.468457	-0.174517
H77	H	0.855233	-0.488021	0.000060
H78	H	0.522069	0.105004	0.000122
O79	O	1.366457	0.091388	0.470786
C80	C	1.439752	0.046710	0.552515
H81	H	1.390920	0.046925	0.641390
H82	H	1.485727	-0.026690	0.516485
H83	H	1.501877	0.083765	0.565756
H84	H	0.980654	-0.093564	0.000032
H85	H	0.721200	0.039669	0.000031
O86	O	1.299940	-0.459310	0.000254
C87	C	1.354242	-0.486850	0.102816
H88	H	1.326446	-0.427931	0.174509
H89	H	1.332655	-0.547482	0.137242
H90	H	1.447533	-0.507409	0.079634
H91	H	0.838260	-0.175125	0.000018
O92	O	1.219142	-0.505705	-0.000007
C93	C	1.232246	-0.599380	0.000030
H94	H	1.158292	-0.612198	-0.037459
H95	H	1.311348	-0.640474	-0.057470
H96	H	1.237696	-0.621216	0.095047
H97	H	1.436951	-0.362814	0.000045
H98	H	1.330464	0.113391	0.706564
O99	O	1.499178	-0.230485	0.000244
C100	C	1.539561	-0.203082	0.102798
H101	H	1.467832	-0.171345	0.174486
H102	H	1.601997	-0.264977	0.137236
H103	H	1.581508	-0.150768	0.079600
H104	H	1.420001	-0.049901	0.000021
H105	H	1.276739	0.146158	0.293438
H106	H	0.998497	0.315899	0.706657
