data_functionalizedCrystal
_audit_creation_method	'MofGen! by Chris Wilmer'
_symmetry_space_group_name_H-M	'P1'
_symmetry_Int_Tables_number	1
_symmetry_cell_setting	triclinic
loop_
_symmetry_equiv_pos_as_xyz
  x,y,z
_cell_length_a	19.188924
_cell_length_b	16.109295
_cell_length_c	18.266242
_cell_angle_alpha	90.006012
_cell_angle_beta	89.992796
_cell_angle_gamma	96.699425
loop_
_atom_site_label
_atom_site_type_symbol
_atom_site_fract_x
_atom_site_fract_y
_atom_site_fract_z
O1	O	0.089726	-1.102840	-0.060834
O2	O	0.339726	-0.852840	0.189166
O3	O	0.589726	-0.602840	0.439166
O4	O	0.839726	-0.352840	0.689166
O5	O	0.100899	-0.860740	-0.060847
O6	O	0.350899	-0.610740	0.189153
O7	O	0.600899	-0.360740	0.439153
O8	O	0.850899	-0.110740	0.689153
O9	O	-0.006327	-0.988780	-0.060832
O10	O	0.243673	-0.738780	0.189168
O11	O	0.493673	-0.488780	0.439168
O12	O	0.743673	-0.238780	0.689168
O13	O	0.196952	-0.974801	-0.060850
O14	O	0.446952	-0.724801	0.189150
O15	O	0.696952	-0.474801	0.439150
O16	O	0.946952	-0.224801	0.689150
O17	O	-0.006330	-0.988758	0.060930
O18	O	0.243670	-0.738758	0.310930
O19	O	0.493670	-0.488758	0.560930
O20	O	0.743670	-0.238758	0.810930
O21	O	0.100896	-0.860718	0.060915
O22	O	0.350896	-0.610718	0.310915
O23	O	0.600896	-0.360718	0.560915
O24	O	0.850896	-0.110718	0.810915
O25	O	0.089723	-1.102818	0.060928
O26	O	0.339723	-0.852818	0.310928
O27	O	0.589723	-0.602818	0.560928
O28	O	0.839723	-0.352818	0.810928
Zn29	Zn	0.095309	-0.981765	0.080253
Zn30	Zn	0.345309	-0.731765	0.330253
Zn31	Zn	0.595309	-0.481765	0.580253
Zn32	Zn	0.845309	-0.231765	0.830253
Zn33	Zn	0.095313	-0.981794	-0.080173
Zn34	Zn	0.345313	-0.731794	0.169827
Zn35	Zn	0.595313	-0.481794	0.419827
Zn36	Zn	0.845313	-0.231794	0.669827
O37	O	0.196949	-0.974779	0.060912
O38	O	0.446949	-0.724779	0.310912
O39	O	0.696949	-0.474779	0.560912
O40	O	0.946949	-0.224779	0.810912
C41	C	0.100446	-0.829756	0.000032
C42	C	0.350446	-0.579756	0.250032
C43	C	0.600446	-0.329756	0.500032
C44	C	0.850446	-0.079756	0.750032
C45	C	0.099091	-0.737465	0.000028
C46	C	0.349091	-0.487465	0.250028
C47	C	0.599091	-0.237465	0.500028
C48	C	0.849091	0.012535	0.750028
C49	C	-0.032341	-0.988317	0.000050
C50	C	0.217659	-0.738317	0.250050
C51	C	0.467659	-0.488317	0.500050
C52	C	0.717659	-0.238317	0.750050
C53	C	-0.109849	-0.986961	0.000052
C54	C	0.140151	-0.736961	0.250052
C55	C	0.390151	-0.486961	0.500052
C56	C	0.640151	-0.236961	0.750052
C57	C	0.159565	-0.514990	0.000030
C58	C	0.409565	-0.264990	0.250030
C59	C	0.659565	-0.014990	0.500030
C60	C	0.909565	0.235010	0.750030
C61	C	0.158287	-0.428273	0.000035
C62	C	0.408287	-0.178273	0.250035
C63	C	0.658287	0.071727	0.500035
C64	C	0.908287	0.321727	0.750035
C65	C	0.031069	-0.448573	0.000043
C66	C	0.281069	-0.198573	0.250043
C67	C	0.531069	0.051427	0.500043
C68	C	0.781069	0.301427	0.750043
C69	C	0.032348	-0.535288	0.000043
C70	C	0.282348	-0.285288	0.250043
C71	C	0.532348	-0.035288	0.500043
C72	C	0.782348	0.214712	0.750043
C73	C	0.096598	-0.568493	0.000033
C74	C	0.346598	-0.318493	0.250033
C75	C	0.596598	-0.068493	0.500033
C76	C	0.846598	0.181507	0.750033
C77	C	0.094041	-0.395062	0.000037
C78	C	0.344041	-0.145062	0.250037
C79	C	0.594041	0.104938	0.500037
C80	C	0.844041	0.354938	0.750037
C81	C	0.092654	-0.301041	0.000042
C82	C	0.342654	-0.051041	0.250042
C83	C	0.592654	0.198959	0.500042
C84	C	0.842654	0.448959	0.750042
C85	C	0.097985	-0.662521	0.000030
C86	C	0.347985	-0.412521	0.250030
C87	C	0.597985	-0.162521	0.500030
C88	C	0.847985	0.087479	0.750030
C89	C	-0.146247	-0.986340	-0.066321
C90	C	0.103753	-0.736340	0.183679
C91	C	0.353753	-0.486340	0.433679
C92	C	0.603753	-0.236340	0.683679
C93	C	-0.219073	-0.985054	-0.066327
C94	C	0.030927	-0.735054	0.183673
C95	C	0.280927	-0.485054	0.433673
C96	C	0.530927	-0.235054	0.683673
C97	C	-0.255499	-0.984406	0.000044
C98	C	-0.005499	-0.734406	0.250044
C99	C	0.244501	-0.484406	0.500044
C100	C	0.494501	-0.234406	0.750044
C101	C	-0.219091	-0.985022	0.066426
C102	C	0.030909	-0.735022	0.316426
C103	C	0.280909	-0.485022	0.566426
C104	C	0.530909	-0.235022	0.816426
C105	C	-0.146266	-0.986300	0.066429
C106	C	0.103734	-0.736300	0.316429
C107	C	0.353734	-0.486300	0.566429
C108	C	0.603734	-0.236300	0.816429
N109	N	-0.375059	-1.029704	0.049445
N110	N	-0.125059	-0.779704	0.299445
N111	N	0.124941	-0.529704	0.549445
N112	N	0.374941	-0.279704	0.799445
N113	N	-0.444240	-1.028492	0.049437
N114	N	-0.194240	-0.778492	0.299437
N115	N	0.055760	-0.528492	0.549437
N116	N	0.305760	-0.278492	0.799437
C117	C	-0.474917	-0.980555	0.000037
C118	C	-0.224917	-0.730555	0.250037
C119	C	0.025083	-0.480555	0.500037
C120	C	0.275083	-0.230555	0.750037
N121	N	-0.433801	-0.933886	-0.049366
N122	N	-0.183801	-0.683886	0.200634
N123	N	0.066199	-0.433886	0.450634
N124	N	0.316199	-0.183886	0.700634
N125	N	-0.364614	-0.935102	-0.049360
N126	N	-0.114614	-0.685102	0.200640
N127	N	0.135386	-0.435102	0.450640
N128	N	0.385386	-0.185102	0.700640
C129	C	-0.334466	-0.983020	0.000047
C130	C	-0.084466	-0.733020	0.250047
C131	C	0.165534	-0.483020	0.500047
C132	C	0.415534	-0.233020	0.750047
C133	C	-0.590282	-0.978538	-0.066346
C134	C	-0.340282	-0.728538	0.183654
C135	C	-0.090282	-0.478538	0.433654
C136	C	0.159718	-0.228538	0.683654
C137	C	-0.663108	-0.977247	-0.066349
C138	C	-0.413108	-0.727247	0.183651
C139	C	-0.163108	-0.477247	0.433651
C140	C	0.086892	-0.227247	0.683651
C141	C	-0.663126	-0.977224	0.066405
C142	C	-0.413126	-0.727224	0.316405
C143	C	-0.163126	-0.477224	0.566405
C144	C	0.086874	-0.227224	0.816405
C145	C	-0.590300	-0.978507	0.066406
C146	C	-0.340300	-0.728507	0.316406
C147	C	-0.090300	-0.478507	0.566406
C148	C	0.159700	-0.228507	0.816406
C149	C	-0.553883	-0.979168	0.000028
C150	C	-0.303883	-0.729168	0.250028
C151	C	-0.053883	-0.479168	0.500028
C152	C	0.196117	-0.229168	0.750028
C153	C	0.222963	-0.975242	0.000029
C154	C	0.472963	-0.725242	0.250029
C155	C	0.722963	-0.475242	0.500029
C156	C	0.972963	-0.225242	0.750029
C157	C	0.300471	-0.976598	0.000022
C158	C	0.550471	-0.726598	0.250022
C159	C	0.800471	-0.476598	0.500022
C160	C	1.050471	-0.226598	0.750022
C161	C	0.090181	-0.133802	0.000046
C162	C	0.340181	0.116198	0.250046
C163	C	0.590181	0.366198	0.500046
C164	C	0.840181	0.616198	0.750046
C165	C	0.091548	-0.226091	0.000043
C166	C	0.341548	0.023909	0.250043
C167	C	0.591548	0.273909	0.500043
C168	C	0.841548	0.523909	0.750043
N169	N	0.095306	-0.981752	0.189740
N170	N	0.345306	-0.731752	0.439740
N171	N	0.595306	-0.481752	0.689740
N172	N	0.845306	-0.231752	0.939740
N173	N	0.095311	-0.981814	-0.189660
N174	N	0.345311	-0.731814	0.060340
N175	N	0.595311	-0.481814	0.310340
N176	N	0.845311	-0.231814	0.560340
C177	C	0.137668	-1.032012	0.228042
C178	C	0.387668	-0.782012	0.478042
C179	C	0.637668	-0.532012	0.728042
C180	C	0.887668	-0.282012	0.978042
C181	C	0.137666	-1.032026	0.304687
C182	C	0.387666	-0.782026	0.554687
C183	C	0.637666	-0.532026	0.804687
C184	C	0.887666	-0.282026	1.054687
C185	C	0.095310	-0.981764	0.343027
C186	C	0.345310	-0.731764	0.593027
C187	C	0.595310	-0.481764	0.843027
C188	C	0.845310	-0.231764	1.093027
C189	C	0.052939	-0.931500	0.304716
C190	C	0.302939	-0.681500	0.554716
C191	C	0.552939	-0.431500	0.804716
C192	C	0.802939	-0.181500	1.054716
C193	C	0.052937	-0.931494	0.228073
C194	C	0.302937	-0.681494	0.478073
C195	C	0.552937	-0.431494	0.728073
C196	C	0.802937	-0.181494	0.978073
N197	N	0.093421	-0.908950	0.463376
N198	N	0.343421	-0.658950	0.713376
N199	N	0.593421	-0.408950	0.963376
N200	N	0.843421	-0.158950	1.213376
N201	N	0.093427	-0.908958	0.536184
N202	N	0.343427	-0.658958	0.786184
N203	N	0.593427	-0.408958	1.036184
N204	N	0.843427	-0.158958	1.286184
C205	C	0.095313	-0.981780	0.573950
C206	C	0.345313	-0.731780	0.823950
C207	C	0.595313	-0.481780	1.073950
C208	C	0.845313	-0.231780	1.323950
N209	N	0.097206	-1.054595	0.536156
N210	N	0.347206	-0.804595	0.786156
N211	N	0.597206	-0.554595	1.036156
N212	N	0.847206	-0.304595	1.286156
N213	N	0.097203	-1.054586	0.463342
N214	N	0.347203	-0.804586	0.713342
N215	N	0.597203	-0.554586	0.963342
N216	N	0.847203	-0.304586	1.213342
C217	C	0.095307	-0.981765	0.426134
C218	C	0.345307	-0.731765	0.676134
C219	C	0.595307	-0.481765	0.926134
C220	C	0.845307	-0.231765	1.176134
C221	C	0.137675	-1.032060	0.695358
C222	C	0.387675	-0.782060	0.945358
C223	C	0.637675	-0.532060	1.195358
C224	C	0.887675	-0.282060	1.445358
C225	C	0.137668	-1.032076	0.772005
C226	C	0.387668	-0.782076	1.022005
C227	C	0.637668	-0.532076	1.272005
C228	C	0.887668	-0.282076	1.522005
C229	C	0.052945	-0.931542	0.772033
C230	C	0.302945	-0.681542	1.022033
C231	C	0.552945	-0.431542	1.272033
C232	C	0.802945	-0.181542	1.522033
C233	C	0.052948	-0.931534	0.695388
C234	C	0.302948	-0.681534	0.945388
C235	C	0.552948	-0.431534	1.195388
C236	C	0.802948	-0.181534	1.445388
C237	C	0.095317	-0.981792	0.657055
C238	C	0.345317	-0.731792	0.907055
C239	C	0.595317	-0.481792	1.157055
C240	C	0.845317	-0.231792	1.407055
H241	H	0.211882	-0.542023	0.000027
H242	H	0.461882	-0.292023	0.250027
H243	H	0.711882	-0.042023	0.500027
H244	H	0.961882	0.207977	0.750027
F245	F	-0.257859	-0.984327	0.137062
F246	F	-0.007859	-0.734327	0.387062
F247	F	0.242141	-0.484327	0.637062
F248	F	0.492141	-0.234327	0.887062
F249	F	-0.551521	-0.979237	-0.136990
F250	F	-0.301521	-0.729237	0.113010
F251	F	-0.051521	-0.479237	0.363010
F252	F	0.198479	-0.229237	0.613010
F253	F	-0.701888	-0.976530	0.137042
F254	F	-0.451888	-0.726530	0.387042
F255	F	-0.201888	-0.476530	0.637042
F256	F	0.048112	-0.226530	0.887042
F257	F	-0.037307	-0.413225	0.000050
F258	F	0.212693	-0.163225	0.250050
F259	F	0.462693	0.086775	0.500050
F260	F	0.712693	0.336775	0.750050
H261	H	0.018455	-0.890603	0.664202
H262	H	0.268455	-0.640603	0.914202
H263	H	0.518455	-0.390603	1.164202
H264	H	0.768455	-0.140603	1.414202
F265	F	0.182755	-1.085577	0.812768
F266	F	0.432755	-0.835577	1.062768
F267	F	0.682755	-0.585577	1.312768
F268	F	0.932755	-0.335577	1.562768
H269	H	-0.116630	-0.986802	0.120480
H270	H	0.133370	-0.736802	0.370480
H271	H	0.383370	-0.486802	0.620480
H272	H	0.633370	-0.236802	0.870480
H273	H	0.172174	-1.072984	0.664146
H274	H	0.422174	-0.822984	0.914146
H275	H	0.672174	-0.572984	1.164146
H276	H	0.922174	-0.322984	1.414146
H277	H	-0.248714	-0.984543	-0.120377
H278	H	0.001286	-0.734543	0.129623
H279	H	0.251286	-0.484543	0.379623
H280	H	0.501286	-0.234543	0.629623
H281	H	0.018457	-0.890618	0.803249
H282	H	0.268457	-0.640618	1.053249
H283	H	0.518457	-0.390618	1.303249
H284	H	0.768457	-0.140618	1.553249
H285	H	0.209561	-0.384713	0.000033
H286	H	0.459561	-0.134713	0.250033
H287	H	0.709561	0.115287	0.500033
H288	H	0.959561	0.365287	0.750033
H289	H	-0.018930	-0.578853	0.000048
H290	H	0.231070	-0.328853	0.250048
H291	H	0.481070	-0.078853	0.500048
H292	H	0.731070	0.171147	0.750048
F293	F	-0.107493	-0.987039	-0.136966
F294	F	0.142507	-0.737039	0.113034
F295	F	0.392507	-0.487039	0.363034
F296	F	0.642507	-0.237039	0.613034
F297	F	0.182772	-1.085488	0.187250
F298	F	0.432772	-0.835488	0.437250
F299	F	0.682772	-0.585488	0.687250
F300	F	0.932772	-0.335488	0.937250
F301	F	-0.701846	-0.976580	-0.136996
F302	F	-0.451846	-0.726580	0.113004
F303	F	-0.201846	-0.476580	0.363004
F304	F	0.048154	-0.226580	0.613004
F305	F	0.182755	-1.085523	0.345459
F306	F	0.432755	-0.835523	0.595459
F307	F	0.682755	-0.585523	0.845459
F308	F	0.932755	-0.335523	1.095459
H309	H	-0.560664	-0.979019	0.120454
H310	H	-0.310664	-0.729019	0.370454
H311	H	-0.060664	-0.479019	0.620454
H312	H	0.189336	-0.229019	0.870454
H313	H	0.018452	-0.890577	0.335938
H314	H	0.268452	-0.640577	0.585938
H315	H	0.518452	-0.390577	0.835938
H316	H	0.768452	-0.140577	1.085938
F317	F	0.007851	-0.877993	0.187308
F318	F	0.257851	-0.627993	0.437308
F319	F	0.507851	-0.377993	0.687308
F320	F	0.757851	-0.127993	0.937308
