data_functionalizedCrystal
_audit_creation_method	'MofGen! by Chris Wilmer'
_symmetry_space_group_name_H-M	'P1'
_symmetry_Int_Tables_number	1
_symmetry_cell_setting	triclinic
loop_
_symmetry_equiv_pos_as_xyz
  x,y,z
_cell_length_a	8.497367
_cell_length_b	8.497374
_cell_length_c	10.686220
_cell_angle_alpha	85.634072
_cell_angle_beta	85.655257
_cell_angle_gamma	90.038609
loop_
_atom_site_label
_atom_site_type_symbol
_atom_site_fract_x
_atom_site_fract_y
_atom_site_fract_z
Zn1	Zn	0.442994	0.707578	1.929238
Zn2	Zn	0.706729	0.443986	1.929356
Zn3	Zn	0.463232	0.464021	1.718300
Zn4	Zn	0.726981	0.727936	1.718397
O5	O	0.584984	0.585880	1.823823
O6	O	0.461034	0.655708	2.105820
O7	O	0.674422	0.225881	1.901367
O8	O	0.239793	0.496195	1.746191
O9	O	0.654799	0.462048	2.105906
O10	O	0.224925	0.675135	1.901167
O11	O	0.495526	0.240601	1.746305
O12	O	0.515164	0.515935	1.541747
O13	O	0.689316	0.945998	1.746357
O14	O	0.708940	0.709831	1.541818
O15	O	0.480672	0.931042	1.901261
O16	O	0.930169	0.481788	1.901461
O17	O	0.945049	0.690404	1.746470
C18	C	0.616447	0.617267	1.496001
C19	C	0.629945	0.630732	1.355757
C20	C	1.173512	0.585743	1.823735
C21	C	0.994853	0.586016	1.823894
C22	C	0.584987	0.997362	1.823813
C23	C	0.585004	1.176005	1.823816
C24	C	0.553400	0.554372	2.152924
C25	C	0.539940	0.540945	2.293168
H26	H	0.452559	0.453773	1.346873
C27	C	0.748011	0.748501	1.283209
C28	C	0.852271	0.852509	1.355605
C29	C	0.970335	0.970276	1.283057
C30	C	0.984138	0.984034	1.138114
C31	C	0.879874	0.880022	1.065710
C32	C	0.761811	0.762256	1.138258
H33	H	0.842056	0.842327	1.462908
H34	H	1.047518	1.047272	1.336656
H35	H	1.071536	1.071212	1.084410
H36	H	0.890089	0.890204	0.958407
H37	H	0.684628	0.685259	1.084659
