data_functionalizedCrystal
_audit_creation_method	'MofGen! by Chris Wilmer'
_symmetry_space_group_name_H-M	'P1'
_symmetry_Int_Tables_number	1
_symmetry_cell_setting	triclinic
loop_
_symmetry_equiv_pos_as_xyz
  x,y,z
_cell_length_a	12.827893
_cell_length_b	18.050589
_cell_length_c	12.827885
_cell_angle_alpha	89.970449
_cell_angle_beta	89.980728
_cell_angle_gamma	90.028191
loop_
_atom_site_label
_atom_site_type_symbol
_atom_site_fract_x
_atom_site_fract_y
_atom_site_fract_z
Zn1	Zn	1.597576	-0.295624	-0.590850
Zn2	Zn	1.597431	-0.419832	-0.416111
Zn3	Zn	1.422818	-0.295660	-0.416124
Zn4	Zn	1.422764	-0.419777	-0.590811
O5	O	1.510147	-0.357723	-0.503474
O6	O	1.743793	-0.312109	-0.567682
O7	O	1.574230	-0.403399	-0.269877
O8	O	1.446083	-0.191731	-0.439323
O9	O	1.743687	-0.403364	-0.439302
O10	O	1.574478	-0.191704	-0.567694
O11	O	1.445943	-0.312170	-0.269886
O12	O	1.276575	-0.312117	-0.439286
O13	O	1.445991	-0.403269	-0.737053
O14	O	1.276535	-0.403304	-0.567628
O15	O	1.574425	-0.312055	-0.737081
O16	O	1.574178	-0.523749	-0.439264
O17	O	1.445851	-0.523709	-0.567615
C18	C	1.238638	-0.357709	-0.503454
C19	C	1.122484	-0.357721	-0.503471
C20	C	1.510021	-0.550675	-0.503457
C21	C	1.510063	-0.633221	-0.503484
C22	C	1.070708	-0.402914	-0.566880
C23	C	0.950657	-0.402927	-0.566899
C24	C	1.440347	-0.832677	-0.573257
C25	C	1.414870	-0.882124	-0.477900
C26	C	1.510166	-0.784351	-0.503498
C27	C	1.535694	-0.881986	-0.598866
C28	C	1.510263	-0.930337	-0.503520
C29	C	1.484639	-0.832712	-0.408091
C30	C	1.605506	-0.832569	-0.529120
C31	C	1.580066	-0.881994	-0.433698
C32	C	1.510107	-0.700253	-0.503487
C33	C	1.510322	-1.014433	-0.503520
C34	C	1.782718	-0.357738	-0.503495
C35	C	1.898871	-0.357745	-0.503504
C36	C	1.510219	-0.357652	-0.776045
C37	C	1.510249	-0.357622	-0.892198
C38	C	1.510303	-0.164018	-0.503515
C39	C	1.510369	-0.081472	-0.503532
C40	C	1.573809	-0.312477	-0.943997
C41	C	1.573842	-0.312444	-1.064047
C42	C	1.510137	-0.357741	-0.231964
C43	C	1.510309	-0.357562	-0.115812
H44	H	1.115256	-0.441593	-0.621158
H45	H	1.455894	-0.396217	-1.071273
C46	C	0.916815	-0.528705	-0.617482
C47	C	0.890558	-0.455162	-0.640192
H48	H	0.879705	-0.560951	-0.662730
H49	H	0.989597	-0.535543	-0.627088
H50	H	0.898933	-0.539498	-0.547228
H51	H	0.908447	-0.444367	-0.710444
H52	H	0.817759	-0.448320	-0.630594
C53	C	1.632896	-0.886045	-0.254242
C54	C	1.659826	-0.911053	-0.353985
H55	H	1.682131	-0.903990	-0.205031
H56	H	1.632892	-0.833429	-0.253409
H57	H	1.565406	-0.903767	-0.236636
H58	H	1.727314	-0.893326	-0.371594
H59	H	1.659841	-0.963680	-0.354821
C60	C	1.740789	-0.827982	-0.658350
C61	C	1.714260	-0.803155	-0.558410
H62	H	1.807926	-0.809817	-0.676441
H63	H	1.741463	-0.880595	-0.659195
H64	H	1.690976	-0.810358	-0.707196
H65	H	1.764069	-0.820784	-0.509563
H66	H	1.713594	-0.750531	-0.557558
C67	C	1.378037	-0.451516	-0.881450
C68	C	1.436815	-0.409768	-0.952299
H69	H	1.332696	-0.483706	-0.918554
H70	H	1.423495	-0.479964	-0.838880
H71	H	1.338043	-0.419188	-0.838877
H72	H	1.476815	-0.442095	-0.994867
H73	H	1.391351	-0.381318	-0.994887
H74	H	1.077936	-0.319036	-0.449201
H75	H	1.557247	-0.903630	-0.679509
H76	H	0.943391	-0.319054	-0.449210
H77	H	1.381217	-0.811021	-0.632167
H78	H	1.334289	-0.903907	-0.456249
H79	H	1.462993	-0.811157	-0.327426
C80	C	1.706048	-0.218556	-1.053346
C81	C	1.647309	-0.260266	-1.124172
H82	H	1.751408	-0.186346	-1.090468
H83	H	1.660566	-0.190131	-1.010781
H84	H	1.746019	-0.250907	-1.010766
H85	H	1.607332	-0.227915	-1.166747
H86	H	1.692796	-0.288693	-1.166755
H87	H	1.628197	-0.273848	-0.899467
