data_functionalizedCrystal
_audit_creation_method	'MofGen! by Chris Wilmer'
_symmetry_space_group_name_H-M	'P1'
_symmetry_Int_Tables_number	1
_symmetry_cell_setting	triclinic
loop_
_symmetry_equiv_pos_as_xyz
  x,y,z
_cell_length_a	14.044220
_cell_length_b	15.995350
_cell_length_c	12.503572
_cell_angle_alpha	93.525550
_cell_angle_beta	86.164750
_cell_angle_gamma	88.340626
loop_
_atom_site_label
_atom_site_type_symbol
_atom_site_fract_x
_atom_site_fract_y
_atom_site_fract_z
O1	O	1.263165	0.197434	-0.089196
O2	O	1.763165	0.697434	0.410804
O3	O	0.987198	0.190148	-0.089224
O4	O	1.487198	0.690148	0.410776
O5	O	1.132725	0.072467	-0.089208
O6	O	1.632725	0.572467	0.410792
O7	O	1.117638	0.315115	-0.089212
O8	O	1.617638	0.815115	0.410788
O9	O	1.121781	0.081333	0.089432
O10	O	1.621781	0.581333	0.589432
O11	O	0.976253	0.199014	0.089417
O12	O	1.476253	0.699014	0.589417
O13	O	1.252221	0.206300	0.089445
O14	O	1.752221	0.706300	0.589445
Cu15	Cu	1.113237	0.203467	0.105742
Cu16	Cu	1.613237	0.703467	0.605742
Cu17	Cu	1.126181	0.192981	-0.105521
Cu18	Cu	1.626181	0.692981	0.394479
O19	O	1.106693	0.323981	0.089429
O20	O	1.606693	0.823981	0.589429
C21	C	0.946411	0.191392	0.000093
C22	C	1.446411	0.691392	0.500093
C23	C	0.841186	0.181881	0.000082
C24	C	1.341186	0.681881	0.500082
C25	C	0.648523	0.164494	0.000104
C26	C	1.148523	0.664494	0.500104
C27	C	0.590890	0.231950	0.000107
C28	C	1.090890	0.731950	0.500107
C29	C	0.483686	0.222276	0.000119
C30	C	0.983686	0.722276	0.500119
C31	C	0.755737	0.174167	0.000092
C32	C	1.255737	0.674167	0.500092
C33	C	1.126629	0.045658	0.000110
C34	C	1.626629	0.545658	0.500110
C35	C	1.124760	-0.047432	0.000104
C36	C	1.624760	0.452568	0.500104
C37	C	1.118044	-0.385681	0.000107
C38	C	1.618044	0.114319	0.500107
C39	C	1.014426	-0.346008	-0.000304
C40	C	1.514426	0.153992	0.499696
C41	C	1.016272	-0.249158	0.000099
C42	C	1.516272	0.250842	0.500099
C43	C	1.121375	-0.217872	0.000105
C44	C	1.621375	0.282128	0.500105
C45	C	1.166245	-0.250068	0.102120
C46	C	1.666245	0.249932	0.602120
C47	C	1.163636	-0.346894	0.102206
C48	C	1.663636	0.153106	0.602206
C49	C	1.178223	-0.357175	-0.100942
C50	C	1.678223	0.142825	0.399058
C51	C	1.178281	-0.260298	-0.102290
C52	C	1.678281	0.239702	0.397710
C53	C	1.123263	-0.123033	0.000107
C54	C	1.623263	0.376967	0.500107
C55	C	1.116158	-0.480519	0.000111
C56	C	1.616158	0.019481	0.500111
C57	C	1.293007	0.205055	0.000125
C58	C	1.793007	0.705055	0.500125
C59	C	1.398233	0.214567	0.000129
C60	C	1.898233	0.714567	0.500129
C61	C	1.112789	0.350789	0.000108
C62	C	1.612789	0.850789	0.500108
C63	C	1.114659	0.443879	0.000108
C64	C	1.614659	0.943879	0.500108
N65	N	1.104141	0.210842	0.254333
N66	N	1.604141	0.710842	0.754333
N67	N	1.135285	0.185600	-0.254113
N68	N	1.635285	0.685600	0.245887
C69	C	1.090759	0.221698	0.473447
C70	C	1.590759	0.721698	0.973447
C71	C	1.148663	0.174747	0.526780
C72	C	1.648663	0.674747	1.026780
C73	C	1.141218	0.180787	0.648703
C74	C	1.641218	0.680787	1.148703
C75	C	1.098204	0.215658	0.351514
C76	C	1.598204	0.715658	0.851514
H77	H	0.980568	-0.227367	-0.073031
H78	H	1.480568	0.272633	0.426969
H79	H	1.126089	-0.220570	0.178033
H80	H	1.626089	0.279430	0.678033
O81	O	1.221742	0.115497	0.465979
O82	O	1.721742	0.615497	0.965979
H83	H	1.208245	0.050385	0.487482
H84	H	1.708245	0.550385	0.987482
O85	O	1.017706	0.280961	0.534251
O86	O	1.517706	0.780961	1.034251
H87	H	0.976434	0.314428	0.476377
H88	H	1.476434	0.814428	0.976377
H89	H	1.255304	-0.239517	-0.108445
H90	H	1.755304	0.260483	0.391555
H91	H	0.622061	0.296967	0.000101
H92	H	1.122061	0.796967	0.500101
H93	H	0.617354	0.099482	0.000111
H94	H	1.117354	0.599482	0.500111
H95	H	0.977483	-0.371265	-0.073462
H96	H	1.477483	0.128735	0.426538
O97	O	0.956750	-0.211422	0.097122
O98	O	1.456750	0.288578	0.597122
H99	H	1.002270	-0.172482	0.148118
H100	H	1.502270	0.327518	0.648118
O101	O	1.108064	-0.369813	0.203208
O102	O	1.608064	0.130187	0.703208
H103	H	1.154684	-0.408106	0.250815
H104	H	1.654684	0.091894	0.750815
O105	O	0.953888	-0.371241	0.096057
O106	O	1.453888	0.128759	0.596057
H107	H	0.997279	-0.411915	0.144243
H108	H	1.497279	0.088085	0.644243
O109	O	1.264045	-0.381787	0.108369
O110	O	1.764045	0.118213	0.608369
H111	H	1.314248	-0.329492	0.111284
H112	H	1.814248	0.170508	0.611284
H113	H	1.243229	-0.229986	0.105919
H114	H	1.743229	0.270014	0.605919
H115	H	1.149075	-0.384083	-0.178264
H116	H	1.649075	0.115917	0.321736
O117	O	1.134976	-0.232793	-0.202269
O118	O	1.634976	0.267207	0.297731
H119	H	1.073184	-0.189083	-0.179142
H120	H	1.573184	0.310917	0.320858
H121	H	1.254680	-0.383262	-0.101623
H122	H	1.754680	0.116738	0.398377
