data_functionalizedCrystal
_audit_creation_method	'MofGen! by Chris Wilmer'
_symmetry_space_group_name_H-M	'P1'
_symmetry_Int_Tables_number	1
_symmetry_cell_setting	triclinic
loop_
_symmetry_equiv_pos_as_xyz
  x,y,z
_cell_length_a	9.065215
_cell_length_b	15.944493
_cell_length_c	8.140239
_cell_angle_alpha	90.002357
_cell_angle_beta	89.997810
_cell_angle_gamma	84.244871
loop_
_atom_site_label
_atom_site_type_symbol
_atom_site_fract_x
_atom_site_fract_y
_atom_site_fract_z
O1	O	1.957477	0.123152	-0.136570
O2	O	1.527952	0.133257	-0.136575
O3	O	1.754488	0.006016	-0.136586
O4	O	1.730940	0.250394	-0.136559
O5	O	1.754476	0.006014	0.136641
O6	O	1.527939	0.133256	0.136652
O7	O	1.957464	0.123150	0.136657
Zn8	Zn	1.742700	0.128203	0.180035
Zn9	Zn	1.742716	0.128205	-0.179953
O10	O	1.730928	0.250392	0.136668
C11	C	1.472982	0.132286	0.000037
C12	C	1.309207	0.129384	0.000034
C13	C	1.753519	-0.025287	0.000020
C14	C	1.750634	-0.118558	-0.000001
C15	C	1.883979	-0.353308	0.000032
C16	C	1.812077	-0.404420	-0.134683
C17	C	1.745287	-0.289319	0.000020
C18	C	1.812032	-0.404398	0.134698
C19	C	1.740133	-0.454268	0.000046
C20	C	1.673423	-0.339202	-0.134807
C21	C	1.673399	-0.339177	0.134695
C22	C	1.601396	-0.390256	-0.000054
C23	C	1.748261	-0.194297	0.000003
C24	C	1.737149	-0.549288	0.000051
C25	C	2.012434	0.124122	0.000041
C26	C	2.176208	0.127024	0.000034
C27	C	1.731896	0.281695	0.000058
C28	C	1.734782	0.374965	0.000068
N29	N	1.742699	0.128201	0.425718
N30	N	1.742728	0.128200	-0.425636
H31	H	2.003443	-0.336775	-0.000102
H32	H	1.870653	-0.432922	-0.248575
O33	O	1.603727	-0.305224	-0.270794
C34	C	1.607365	-0.217032	-0.269184
H35	H	1.703496	-0.200320	-0.189330
H36	H	1.498688	-0.185802	-0.217124
C37	C	1.510219	-0.205983	-0.543699
C38	C	1.628297	-0.185457	-0.445632
H39	H	1.523124	-0.186505	-0.652540
H40	H	1.507762	-0.265400	-0.544783
H41	H	1.419666	-0.179957	-0.500296
H42	H	1.718845	-0.211492	-0.489024
H43	H	1.630770	-0.126044	-0.444560
H44	H	1.614873	-0.310660	0.248590
O45	O	1.458832	-0.409899	-0.000353
C46	C	1.434110	-0.458010	-0.141217
H47	H	1.544323	-0.490065	-0.187604
H48	H	1.380789	-0.414955	-0.241113
C49	C	1.194886	-0.486051	-0.040509
C50	C	1.330251	-0.525428	-0.097474
H51	H	1.130816	-0.527635	-0.013531
H52	H	1.211539	-0.453636	0.054391
H53	H	1.150472	-0.450174	-0.123766
H54	H	1.374672	-0.561296	-0.014211
H55	H	1.313604	-0.557851	-0.192360
H56	H	1.870627	-0.432886	0.248581
