data_functionalizedCrystal
_audit_creation_method	'MofGen! by Chris Wilmer'
_symmetry_space_group_name_H-M	'P1'
_symmetry_Int_Tables_number	1
_symmetry_cell_setting	triclinic
loop_
_symmetry_equiv_pos_as_xyz
  x,y,z
_cell_length_a	19.288859
_cell_length_b	14.519731
_cell_length_c	13.596369
_cell_angle_alpha	89.999010
_cell_angle_beta	89.992880
_cell_angle_gamma	83.411289
loop_
_atom_site_label
_atom_site_type_symbol
_atom_site_fract_x
_atom_site_fract_y
_atom_site_fract_z
O1	O	0.921774	0.115009	-0.081813
O2	O	0.719569	0.130534	-0.081811
O3	O	0.826025	-0.011500	-0.081803
O4	O	0.815318	0.257042	-0.081821
O5	O	0.826011	-0.011491	0.081780
O6	O	0.719555	0.130543	0.081772
O7	O	0.921760	0.115018	0.081770
Zn8	Zn	0.820655	0.122782	0.107743
Zn9	Zn	0.820674	0.122770	-0.107784
O10	O	0.815304	0.257051	0.081762
C11	C	0.693684	0.130040	-0.000019
C12	C	0.616575	0.128543	-0.000018
C13	C	0.052802	0.201757	-0.000024
C14	C	0.125253	0.203171	-0.000030
C15	C	0.169655	0.119832	-0.000022
C16	C	0.141601	0.035073	-0.000035
C17	C	0.069150	0.033661	-0.000039
C18	C	0.290694	0.057682	0.057296
C19	C	0.363142	0.059097	0.057307
C20	C	0.393117	0.124184	-0.000012
C21	C	0.350633	0.187871	-0.057329
C22	C	0.278182	0.186459	-0.057334
C23	C	0.248217	0.121354	-0.000018
C24	C	0.499724	0.210472	-0.000012
C25	C	0.572178	0.211883	-0.000024
C26	C	0.588524	0.043782	-0.000019
C27	C	0.516071	0.042373	-0.000018
C28	C	0.471676	0.125721	-0.000010
C29	C	0.825516	-0.045852	-0.000011
C30	C	0.824013	-0.148222	-0.000011
C31	C	0.822792	-0.231359	-0.000013
C32	C	0.821265	-0.335658	-0.000020
C33	C	0.820054	-0.418789	-0.000027
C34	C	0.818528	-0.523095	-0.000032
C35	C	0.947645	0.115512	-0.000024
C36	C	1.024755	0.117008	-0.000031
C37	C	0.815813	0.291403	-0.000032
C38	C	0.817316	0.393774	-0.000039
N39	N	0.820648	0.122789	0.254835
C40	C	0.820651	0.122792	0.343833
C41	C	0.820657	0.122786	0.455484
C42	C	0.820666	0.122776	0.544475
C43	C	0.820673	0.122772	0.656133
N44	N	0.820682	0.122762	0.745124
H45	H	0.148094	0.272186	-0.000015
H46	H	0.375036	0.240873	-0.104002
H47	H	0.016659	0.269625	-0.000023
H48	H	0.397728	0.007244	0.103983
Cl49	Cl	0.480810	-0.064174	-0.000030
Cl50	Cl	0.644337	-0.060989	-0.000025
H51	H	0.463575	0.278339	-0.000008
Cl52	Cl	0.197419	-0.069696	-0.000030
Cl53	Cl	0.253024	-0.024195	0.129303
H54	H	0.243594	0.238313	-0.104005
Cl55	Cl	0.033889	-0.072889	-0.000051
H56	H	0.595011	0.280898	-0.000026
