data_functionalizedCrystal
_audit_creation_method	'MofGen! by Chris Wilmer'
_symmetry_space_group_name_H-M	'P1'
_symmetry_Int_Tables_number	1
_symmetry_cell_setting	triclinic
loop_
_symmetry_equiv_pos_as_xyz
  x,y,z
_cell_length_a	17.019282
_cell_length_b	17.019234
_cell_length_c	12.996460
_cell_angle_alpha	86.112554
_cell_angle_beta	93.875637
_cell_angle_gamma	83.651806
loop_
_atom_site_label
_atom_site_type_symbol
_atom_site_fract_x
_atom_site_fract_y
_atom_site_fract_z
O1	O	1.046561	0.100445	-0.001703
O2	O	1.546561	0.600445	0.498297
O3	O	0.816880	0.113273	-0.023201
O4	O	1.316880	0.613273	0.476799
O5	O	0.938136	-0.007983	-0.001697
O6	O	1.438136	0.492017	0.498303
O7	O	0.925305	0.221701	-0.023207
O8	O	1.425305	0.721701	0.476793
O9	O	0.938123	-0.007990	0.169437
O10	O	1.438123	0.492010	0.669437
O11	O	0.816868	0.113266	0.147932
O12	O	1.316868	0.613266	0.647932
O13	O	1.046548	0.100438	0.169430
O14	O	1.546548	0.600438	0.669430
Cu15	Cu	0.931707	0.106852	0.174307
Cu16	Cu	1.431707	0.606852	0.674307
Cu17	Cu	0.931722	0.106859	-0.028078
Cu18	Cu	1.431722	0.606859	0.471922
O19	O	0.925292	0.221694	0.147926
O20	O	1.425292	0.721694	0.647926
C21	C	0.787485	0.112785	0.059803
C22	C	1.287485	0.612785	0.559803
C23	C	0.699917	0.111333	0.052169
C24	C	1.199917	0.611333	0.552169
C25	C	0.658775	0.110645	0.141870
C26	C	1.158775	0.610645	0.641870
C27	C	0.576497	0.109267	0.134701
C28	C	1.076497	0.609267	0.634701
C29	C	0.535361	0.108583	0.037830
C30	C	1.035361	0.608583	0.537830
C31	C	0.576509	0.109269	-0.051877
C32	C	1.076509	0.609269	0.448123
C33	C	0.658787	0.110641	-0.044707
C34	C	1.158787	0.610641	0.455293
C35	C	0.286937	0.104436	0.011514
C36	C	0.786937	0.604436	0.511514
C37	C	0.204653	0.103067	0.004350
C38	C	0.704653	0.603067	0.504350
C39	C	0.204647	0.103063	0.190930
C40	C	0.704647	0.603063	0.690930
C41	C	0.286925	0.104440	0.198091
C42	C	0.786925	0.604440	0.698091
C43	C	0.328067	0.105121	0.108384
C44	C	0.828067	0.605121	0.608384
C45	C	0.451259	0.107178	0.030500
C46	C	0.951259	0.607178	0.530500
C47	C	0.412168	0.106521	0.115716
C48	C	0.912168	0.606521	0.615716
C49	C	0.937646	-0.037376	0.086432
C50	C	1.437646	0.462624	0.586432
C51	C	0.936194	-0.124946	0.094064
C52	C	1.436194	0.375054	0.594064
C53	C	0.927913	-0.620217	0.141860
C54	C	1.427913	-0.120217	0.641860
C55	C	0.929284	-0.537936	0.134694
C56	C	1.429284	-0.037936	0.634694
C57	C	0.929983	-0.496784	0.037824
C58	C	1.429983	0.003216	0.537824
C59	C	0.929302	-0.537916	-0.051886
C60	C	1.429302	-0.037916	0.448114
C61	C	0.927925	-0.620194	-0.044720
C62	C	1.427925	-0.120194	0.455280
C63	C	0.934136	-0.248356	0.011520
C64	C	1.434136	0.251644	0.511520
C65	C	0.935516	-0.166072	0.004361
C66	C	1.435516	0.333928	0.504361
C67	C	0.935496	-0.166098	0.190941
C68	C	1.435496	0.333902	0.690941
C69	C	0.934124	-0.248378	0.198099
C70	C	1.434124	0.251622	0.698099
C71	C	0.933439	-0.289502	0.108388
C72	C	1.433439	0.210498	0.608388
C73	C	0.931387	-0.412681	0.030498
C74	C	1.431387	0.087319	0.530498
C75	C	0.932029	-0.373604	0.115715
C76	C	1.432029	0.126396	0.615715
C77	C	1.075943	0.100926	0.086424
C78	C	1.575943	0.600926	0.586424
C79	C	1.163511	0.102378	0.094051
C80	C	1.663511	0.602378	0.594051
C81	C	0.925783	0.251087	0.059795
C82	C	1.425783	0.751087	0.559795
C83	C	0.927234	0.338657	0.052156
C84	C	1.427234	0.838657	0.552156
N85	N	0.931702	0.106846	0.316654
N86	N	1.431702	0.606846	0.816654
N87	N	0.931733	0.106859	-0.170424
N88	N	1.431733	0.606859	0.329576
C89	C	0.931720	0.106860	0.736469
C90	C	1.431720	0.606860	1.236469
C91	C	0.931713	0.106859	0.619663
C92	C	1.431713	0.606859	1.119663
C93	C	0.931712	0.106853	0.526565
C94	C	1.431712	0.606853	1.026565
C95	C	0.931703	0.106851	0.409752
C96	C	1.431703	0.606851	0.909752
H97	H	0.543011	0.108707	-0.130751
H98	H	1.043011	0.608707	0.369249
O99	O	0.927184	-0.664558	-0.141470
O100	O	1.427184	-0.164558	0.358530
H101	H	0.927904	-0.622121	-0.210034
H102	H	1.427904	-0.122121	0.289966
H103	H	0.933585	-0.281830	-0.061529
H104	H	1.433585	0.218170	0.438471
O105	O	0.160287	0.102323	-0.100140
O106	O	0.660287	0.602323	0.399860
H107	H	0.115710	0.155445	-0.113271
H108	H	0.615710	0.655445	0.386729
H109	H	0.936084	-0.132569	-0.074526
H110	H	1.436084	0.367431	0.425474
H111	H	0.929867	-0.504403	-0.130760
H112	H	1.429867	-0.004403	0.369240
O113	O	0.936233	-0.121738	0.287692
O114	O	1.436233	0.378262	0.787692
H115	H	0.935522	-0.164178	0.356255
H116	H	1.435522	0.335822	0.856255
H117	H	0.445664	0.107074	0.194588
H118	H	0.945664	0.607074	0.694588
H119	H	0.320425	0.104988	-0.061532
H120	H	0.820425	0.604988	0.438468
H121	H	0.320413	0.104993	0.276974
H122	H	0.820413	0.604993	0.776974
H123	H	0.543004	0.108694	0.207747
H124	H	1.043004	0.608694	0.707747
O125	O	0.703167	0.111388	-0.141454
O126	O	1.203167	0.611388	0.358546
H127	H	0.660741	0.110690	-0.210021
H128	H	1.160741	0.610690	0.289979
O129	O	0.406893	0.106445	-0.073985
O130	O	0.906893	0.606445	0.426015
H131	H	0.362312	0.159564	-0.087107
H132	H	0.862312	0.659564	0.412893
O133	O	0.930016	-0.493574	0.231443
O134	O	1.430016	0.006426	0.731443
H135	H	0.984378	-0.463183	0.238027
H136	H	1.484378	0.036817	0.738027
O137	O	0.932141	-0.368296	-0.073983
O138	O	1.432141	0.131704	0.426017
H139	H	0.986510	-0.337913	-0.076310
H140	H	1.486510	0.162087	0.423690
O141	O	0.927156	-0.664601	0.246340
O142	O	1.427156	-0.164601	0.746340
H143	H	0.927850	-0.622175	0.307511
H144	H	1.427850	-0.122175	0.807511
H145	H	0.933559	-0.281879	0.276981
H146	H	1.433559	0.218121	0.776981
H147	H	0.171141	0.102507	0.263964
H148	H	0.671141	0.602507	0.763964
H149	H	0.931455	-0.407112	0.194586
H150	H	1.431455	0.092888	0.694586
H151	H	0.692261	0.111208	0.220753
H152	H	1.192261	0.611208	0.720753
