data_functionalizedCrystal
_audit_creation_method	'MofGen! by Chris Wilmer'
_symmetry_space_group_name_H-M	'P1'
_symmetry_Int_Tables_number	1
_symmetry_cell_setting	triclinic
loop_
_symmetry_equiv_pos_as_xyz
  x,y,z
_cell_length_a	16.109304
_cell_length_b	16.109301
_cell_length_c	14.586319
_cell_angle_alpha	89.998180
_cell_angle_beta	90.003149
_cell_angle_gamma	83.462111
loop_
_atom_site_label
_atom_site_type_symbol
_atom_site_fract_x
_atom_site_fract_y
_atom_site_fract_z
O1	O	0.106870	1.103128	0.076184
O2	O	0.120169	0.861066	0.076196
O3	O	-0.007511	0.988745	0.076190
O4	O	0.234550	0.975448	0.076190
O5	O	-0.007519	0.988744	-0.076290
O6	O	0.120161	0.861065	-0.076284
O7	O	0.106862	1.103127	-0.076297
Cu8	Cu	0.113511	0.982096	-0.090213
Cu9	Cu	0.113520	0.982097	0.090113
O10	O	0.234542	0.975447	-0.076291
C11	C	0.119626	0.830091	-0.000042
C12	C	0.118011	0.737795	-0.000038
C13	C	0.188494	0.428798	-0.000054
C14	C	0.190020	0.515518	-0.000048
C15	C	0.038531	0.535390	-0.000036
C16	C	0.037007	0.448671	-0.000035
C17	C	0.111991	0.395377	-0.000048
C18	C	0.115040	0.568816	-0.000044
C19	C	0.116694	0.662842	-0.000038
C20	C	0.110338	0.301345	-0.000052
C21	C	-0.038490	0.988206	-0.000048
C22	C	-0.130785	0.986590	-0.000042
C23	C	-0.343118	0.982857	0.083073
C24	C	-0.429838	0.981331	0.083072
C25	C	-0.429844	0.981334	-0.083171
C26	C	-0.343125	0.982854	-0.083169
C27	C	-0.299765	0.983620	-0.000045
C28	C	-0.473204	0.980573	-0.000047
C29	C	-0.567230	0.978919	-0.000049
C30	C	-0.205733	0.985273	-0.000043
C31	C	0.265521	0.975987	-0.000050
C32	C	0.357816	0.977603	-0.000051
C33	C	0.107405	1.134102	-0.000056
C34	C	0.109020	1.226398	-0.000055
N35	N	0.113521	0.982098	0.216945
N36	N	0.113504	0.982101	-0.217045
C37	C	0.057094	1.038744	0.451949
C38	C	0.057092	1.038746	0.547930
C39	C	0.169937	0.925453	0.547944
C40	C	0.169942	0.925455	0.451965
C41	C	0.113516	0.982100	0.403969
C42	C	0.113509	0.982100	0.595930
C43	C	0.113507	0.982102	0.699997
C44	C	0.113518	0.982099	0.299896
H45	H	0.249551	0.385408	-0.000064
H46	H	0.011149	1.084869	0.412873
Br47	Br	0.246511	0.848579	0.613084
Br48	Br	0.293850	0.560871	-0.000048
Br49	Br	-0.066827	0.403309	-0.000010
Br50	Br	-0.284274	0.983893	0.195884
H51	H	-0.022518	0.578792	-0.000027
Br52	Br	-0.019481	1.115628	0.613041
H53	H	-0.465133	0.980708	0.150754
Br54	Br	-0.488695	0.980292	-0.195978
H55	H	-0.307825	0.983470	-0.150858
Br56	Br	0.246527	0.848582	0.386843
