data_functionalizedCrystal
_audit_creation_method	'MofGen! by Chris Wilmer'
_symmetry_space_group_name_H-M	'P1'
_symmetry_Int_Tables_number	1
_symmetry_cell_setting	triclinic
loop_
_symmetry_equiv_pos_as_xyz
  x,y,z
_cell_length_a	15.995350
_cell_length_b	27.732048
_cell_length_c	14.472310
_cell_angle_alpha	89.993924
_cell_angle_beta	89.990621
_cell_angle_gamma	83.067515
loop_
_atom_site_label
_atom_site_type_symbol
_atom_site_fract_x
_atom_site_fract_y
_atom_site_fract_z
O1	O	1.110190	0.062301	-0.076773
O2	O	0.866316	0.069995	-0.076793
O3	O	0.995827	-0.004216	-0.076765
O4	O	0.980679	0.136512	-0.076801
O5	O	0.995794	-0.004212	0.076917
O6	O	0.866282	0.069999	0.076889
O7	O	1.110157	0.062306	0.076909
Cu8	Cu	0.988217	0.066153	0.090931
Cu9	Cu	0.988256	0.066148	-0.090815
O10	O	0.980646	0.136517	0.076881
C11	C	0.835108	0.069679	0.000045
C12	C	0.742170	0.068726	0.000038
C13	C	0.404467	0.065301	0.000059
C14	C	0.452585	0.012449	0.000415
C15	C	0.549263	0.013403	0.000062
C16	C	0.572006	0.067000	0.000049
C17	C	0.530600	0.093065	-0.087714
C18	C	0.433982	0.091738	-0.087781
C19	C	0.433591	0.092835	0.086984
C20	C	0.530536	0.092822	0.088138
C21	C	0.666691	0.067962	0.000041
C22	C	0.309782	0.064340	0.000061
C23	C	0.995493	-0.022222	0.000079
C24	C	0.994535	-0.075881	0.000086
C25	C	1.065040	-0.414392	0.000045
C26	C	1.061487	-0.616067	0.000031
O27	O	1.125959	-0.647045	-0.000004
N28	N	0.984692	-0.635522	0.000026
C29	C	0.908780	-0.604555	0.000018
O30	O	0.843380	-0.625730	0.000003
C31	C	0.912334	-0.402881	0.000024
C32	C	0.989134	-0.383429	0.000039
C33	C	1.141834	-0.394940	0.000058
C34	C	1.142721	-0.344524	0.000067
C35	C	1.066815	-0.313561	0.000061
C36	C	0.990021	-0.333013	0.000047
C37	C	0.836422	-0.371914	0.000009
C38	C	0.837317	-0.321493	0.000009
C39	C	0.914117	-0.302041	0.000023
C40	C	0.915002	-0.251634	0.000050
N41	N	0.991797	-0.232179	0.000056
C42	C	1.067703	-0.263142	0.000061
C43	C	0.906920	-0.710437	0.000016
C44	C	0.906031	-0.760855	0.000016
C45	C	1.058739	-0.772364	0.000028
C46	C	1.059627	-0.721945	0.000035
C47	C	0.983715	-0.690982	0.000021
C48	C	1.069561	-0.157265	0.000080
C49	C	1.070442	-0.106844	0.000092
C50	C	0.917734	-0.095340	0.000075
C51	C	0.916853	-0.145756	0.000067
C52	C	0.992773	-0.176718	0.000067
O53	O	0.850565	-0.220628	0.000075
O54	O	1.133094	-0.241958	0.000055
C55	C	1.064153	-0.464808	0.000036
C56	C	0.987359	-0.484260	0.000022
C57	C	0.911452	-0.453297	0.000017
C58	C	0.986470	-0.534679	0.000022
C59	C	1.062377	-0.565642	0.000028
C60	C	1.139172	-0.546187	0.000033
C61	C	1.140059	-0.495771	0.000042
C62	C	0.834657	-0.472752	0.000011
C63	C	0.833776	-0.523168	0.000004
C64	C	0.909683	-0.554132	0.000010
C65	C	1.141364	0.062621	0.000068
C66	C	1.234302	0.063575	0.000069
C67	C	0.980980	0.154523	0.000035
C68	C	0.981938	0.208182	0.000022
N69	N	0.988195	0.066156	0.218762
N70	N	0.988284	0.066141	-0.218646
C71	C	0.988255	0.066146	0.592853
C72	C	0.918727	0.105721	0.553672
C73	C	0.918884	0.105866	0.446584
C74	C	0.988225	0.066151	0.407262
C75	C	1.075447	0.077167	0.446103
C76	C	1.075055	0.077448	0.553225
C77	C	0.971342	0.015437	0.553394
C78	C	0.969334	0.015775	0.446267
C79	C	0.988213	0.066153	0.302374
C80	C	0.988272	0.066145	0.697742
H81	H	0.433277	-0.008581	-0.062166
Br82	Br	0.810269	0.094955	0.596620
Br83	Br	0.596133	-0.020830	-0.105146
H84	H	1.203650	-0.420146	0.000060
H85	H	0.905176	0.007416	0.420881
Br86	Br	0.403895	0.060051	-0.197111
Br87	Br	0.379392	0.156409	-0.094434
H88	H	0.843493	-0.776688	0.000020
H89	H	1.022053	-0.014014	0.578732
H90	H	0.544216	0.132441	-0.090987
H91	H	0.559223	0.074958	-0.153020
H92	H	0.775499	-0.296285	-0.000004
H93	H	1.128394	0.049108	0.420631
H94	H	0.401325	0.131802	0.087568
H95	H	0.434323	-0.008675	0.063354
H96	H	0.854029	0.099303	0.420325
Br97	Br	1.246955	-0.318133	0.000061
H98	H	0.577943	-0.007086	0.062975
Br99	Br	0.936733	0.168592	0.403836
H100	H	0.413265	0.075558	0.153506
H101	H	0.558085	0.073794	0.153064
H102	H	0.545395	0.131907	0.093429
H103	H	0.854317	-0.161595	0.000081
H104	H	1.122164	-0.706111	0.000046
Br105	Br	1.174677	-0.080449	0.000113
H106	H	1.131383	-0.182469	0.000075
Br107	Br	1.100063	0.139085	0.594844
Br108	Br	1.101086	0.138101	0.401361
H109	H	1.120545	-0.797583	0.000033
H110	H	0.855933	-0.070121	0.000073
Br111	Br	0.803886	-0.668422	-0.000004
Br112	Br	1.163736	0.031179	0.596428
Br113	Br	0.732187	-0.398300	-0.000015
H114	H	1.202598	-0.479938	0.000054
H115	H	0.929307	0.143140	0.580573
H116	H	1.200977	-0.571406	0.000042
Br117	Br	0.729537	-0.549560	-0.000009
Br118	Br	0.867676	-0.002208	0.598472
Br119	Br	1.048348	-0.035612	0.401675
H120	H	0.772844	-0.447546	0.000005
