data_functionalizedCrystal
_audit_creation_method	'MofGen! by Chris Wilmer'
_symmetry_space_group_name_H-M	'P1'
_symmetry_Int_Tables_number	1
_symmetry_cell_setting	triclinic
loop_
_symmetry_equiv_pos_as_xyz
  x,y,z
_cell_length_a	13.635800
_cell_length_b	20.560734
_cell_length_c	17.982934
_cell_angle_alpha	75.930017
_cell_angle_beta	77.548529
_cell_angle_gamma	58.655275
loop_
_atom_site_label
_atom_site_type_symbol
_atom_site_fract_x
_atom_site_fract_y
_atom_site_fract_z
V1	V	2.063545	-0.237866	0.106127
O2	O	2.120506	-0.233013	-0.004365
O3	O	1.977254	-0.236552	0.209725
O4	O	2.089375	-0.341465	0.104817
O5	O	2.007609	-0.127374	0.101269
V6	V	2.306922	-0.224613	0.092873
O7	O	2.190631	-0.266940	0.135201
O8	O	2.404934	-0.195539	0.063798
O9	O	2.281609	-0.225927	-0.010726
O10	O	2.308659	-0.229465	0.203365
O11	O	2.421556	-0.335105	0.097730
O12	O	2.169488	-0.121013	0.094183
V13	V	2.563545	-0.237866	0.106127
O14	O	2.620506	-0.233013	-0.004365
O15	O	2.477254	-0.236552	0.209725
O16	O	2.589375	-0.341465	0.104817
O17	O	2.507609	-0.127374	0.101269
V18	V	2.806922	-0.224613	0.092873
O19	O	2.690631	-0.266940	0.135201
O20	O	2.904934	-0.195539	0.063798
O21	O	2.781609	-0.225927	-0.010726
O22	O	2.808659	-0.229465	0.203365
O23	O	2.921556	-0.335105	0.097730
O24	O	2.669488	-0.121013	0.094183
C25	C	1.883031	-0.232880	0.234970
C26	C	1.853455	-0.232496	0.319665
C27	C	1.930137	-0.236134	0.363335
C28	C	1.902369	-0.235785	0.442918
C29	C	1.797914	-0.231792	0.478828
C30	C	1.721228	-0.228156	0.435152
C31	C	1.749001	-0.228511	0.355572
C32	C	2.026052	-0.366707	0.101148
C33	C	2.087402	-0.451402	0.100762
C34	C	2.207500	-0.229597	-0.035967
C35	C	2.226697	-0.229986	-0.120661
C36	C	2.206867	-0.495084	0.104399
C37	C	2.264505	-0.574664	0.104036
C38	C	2.202676	-0.610560	0.100042
C39	C	2.083201	-0.566871	0.096402
C40	C	2.025565	-0.487292	0.096760
C41	C	2.315636	-0.887804	0.094960
C42	C	2.373282	-0.967389	0.094605
C43	C	2.554576	-0.975175	0.102235
C44	C	2.496941	-0.895597	0.102593
C45	C	2.377472	-0.851914	0.098950
C46	C	2.314975	-0.765625	0.099342
C47	C	2.265170	-0.696849	0.099655
C48	C	2.564479	-0.095768	0.097854
C49	C	2.492751	-0.011072	0.098236
C50	C	2.322505	-0.226353	-0.164343
C51	C	2.340527	-0.226706	-0.243924
C52	C	2.262744	-0.230697	-0.279821
C53	C	2.166926	-0.234328	-0.236134
C54	C	2.148902	-0.233970	-0.156555
C55	C	2.239616	-0.235774	-0.557066
C56	C	2.257650	-0.236135	-0.636650
C57	C	2.431241	-0.228510	-0.644435
C58	C	2.413216	-0.228151	-0.564857
C59	C	2.317397	-0.231778	-0.521177
C60	C	2.297856	-0.231394	-0.434886
C61	C	2.282288	-0.231087	-0.366109
C62	C	2.383031	-0.232880	0.234970
C63	C	2.353455	-0.232496	0.319665
C64	C	2.064479	-0.095768	0.097854
C65	C	1.992751	-0.011072	0.098236
C66	C	2.526052	-0.366707	0.101148
C67	C	2.587402	-0.451402	0.100762
C68	C	2.707500	-0.229597	-0.035967
C69	C	2.726697	-0.229986	-0.120661
C70	C	1.872344	0.024818	0.102223
C71	C	1.804934	0.104399	0.102573
C72	C	1.857933	0.148088	0.098941
C73	C	1.978352	0.112193	0.094951
C74	C	2.045760	0.032614	0.094595
C75	C	2.706869	-0.495070	0.104391
C76	C	2.764530	-0.574649	0.104019
C77	C	2.702721	-0.610559	0.100023
C78	C	2.583244	-0.566884	0.096391
C79	C	2.525586	-0.487306	0.096758
C80	C	2.822510	-0.226350	-0.164331
C81	C	2.840551	-0.226703	-0.243913
C82	C	2.762783	-0.230697	-0.279823
C83	C	2.666961	-0.234331	-0.236148
C84	C	2.648917	-0.233972	-0.156568
H85	H	2.015191	-0.239380	0.334108
F86	F	2.391650	-0.621152	0.107914
F87	F	2.681732	-1.021671	0.106110
F88	F	2.782003	-0.231078	-0.364520
H89	H	2.143802	0.003398	0.091353
F90	F	2.517474	-0.605114	0.092146
H91	H	2.918581	-0.223745	-0.279462
H92	H	2.032863	-0.596104	0.093146
F93	F	2.562752	-0.857398	0.106848
H94	H	1.775314	-0.231504	0.543628
F95	F	2.405300	-0.222110	-0.126146
H96	H	2.322924	-0.996613	0.091350
F97	F	2.772674	-0.456867	0.108645
F98	F	2.891685	-0.621118	0.107889
F99	F	2.584200	-0.238578	-0.274378
F100	F	2.546939	-0.237845	-0.110099
F101	F	2.764102	-0.695255	0.099635
H102	H	2.428306	-0.451757	0.093804
H103	H	2.885845	-0.223098	-0.135104
F104	F	2.137631	-0.239624	-0.510590
H105	H	1.686548	-0.225545	0.320021
F106	F	1.676779	0.142586	0.106825
H107	H	2.218360	-0.852251	0.092020
F108	F	1.983996	-0.239652	0.489386
H109	H	1.636180	-0.224906	0.464403
H110	H	1.928293	-0.451724	0.093780
H111	H	1.803031	0.212885	0.099240
F112	F	2.442489	-0.222829	-0.290412
F113	F	2.034742	0.158700	0.091091
F114	F	2.272681	-0.456889	0.108655
H115	H	2.070899	-0.236944	-0.120987
H116	H	2.194304	-0.239385	-0.665875
F117	F	2.533219	-0.224646	-0.690930
F118	F	2.496007	-0.223907	-0.526657
H119	H	1.829169	-0.010744	0.105181
F120	F	2.084136	-0.238566	-0.274341
