data_functionalizedCrystal
_audit_creation_method	'MofGen! by Chris Wilmer'
_symmetry_space_group_name_H-M	'P1'
_symmetry_Int_Tables_number	1
_symmetry_cell_setting	triclinic
loop_
_symmetry_equiv_pos_as_xyz
  x,y,z
_cell_length_a	6.817900
_cell_length_b	16.417825
_cell_length_c	16.015572
_cell_angle_alpha	77.934294
_cell_angle_beta	104.485554
_cell_angle_gamma	103.385495
loop_
_atom_site_label
_atom_site_type_symbol
_atom_site_fract_x
_atom_site_fract_y
_atom_site_fract_z
V1	V	-3.991458	-0.033756	-0.269481
O2	O	-3.980177	0.086039	-0.264040
O3	O	-3.942703	-0.148123	-0.267938
O4	O	-3.927894	0.003804	-0.386875
O5	O	-3.995088	-0.066939	-0.144280
V6	V	-4.477097	-0.023804	-0.254470
O7	O	-4.248075	-0.055588	-0.302410
O8	O	-4.670677	-0.001973	-0.221541
O9	O	-4.302645	0.090562	-0.256013
O10	O	-4.605774	-0.143600	-0.259911
O11	O	-4.590863	0.009378	-0.379671
O12	O	-4.317454	-0.061364	-0.137076
C13	C	-3.788108	-0.177160	-0.263764
C14	C	-3.829431	-0.270418	-0.263284
C15	C	-3.894573	-0.497117	-0.183106
C16	C	-3.933421	-0.584742	-0.182662
C17	C	-3.993361	-0.560440	-0.340855
C18	C	-3.954526	-0.472818	-0.341298
C19	C	-3.905122	-0.441159	-0.262421
C20	C	-3.982805	-0.616406	-0.261533
C21	C	-4.024927	-0.711412	-0.261053
C22	C	-3.863001	-0.346146	-0.262901
C23	C	-3.769217	0.016638	-0.415479
C24	C	-3.798528	0.046591	-0.511450
C25	C	-4.086337	-0.219270	-0.889778
C26	C	-4.113884	-0.191098	-0.979954
C27	C	-4.037348	-0.045343	-0.954866
C28	C	-4.009784	-0.073503	-0.864686
C29	C	-4.034285	-0.160468	-0.832150
C30	C	-3.957732	-0.014701	-0.807058
C31	C	-3.930182	-0.042859	-0.716886
C32	C	-3.954683	-0.129820	-0.684342
C33	C	-4.006735	-0.188626	-0.741978
C34	C	-3.933247	0.072263	-0.839596
C35	C	-3.881195	0.131066	-0.781968
C36	C	-3.853629	0.102908	-0.691794
C37	C	-3.878131	0.015947	-0.659250
C38	C	-3.801578	0.161714	-0.634158
C39	C	-3.774027	0.133555	-0.543987
C40	C	-3.850580	-0.012212	-0.569079
C41	C	-4.120582	0.119595	-0.260185
C42	C	-4.058497	0.212853	-0.260670
C43	C	-4.139473	-0.074203	-0.108468
C44	C	-4.089401	-0.104151	-0.012495
H45	H	-3.924830	-0.630301	-0.118076
O46	O	-4.109546	-0.303711	-0.858008
C47	C	-3.923290	-0.321479	-0.802402
H48	H	-3.789506	-0.269716	-0.819656
H49	H	-3.898717	-0.385364	-0.810936
H50	H	-3.931036	-0.323724	-0.731650
H51	H	-3.870504	-0.083026	-0.542585
O52	O	-3.846973	-0.466408	-0.106475
C53	C	-4.010706	-0.498028	-0.062354
H54	H	-4.159460	-0.516964	-0.111387
H55	H	-4.029484	-0.446855	-0.028150
H56	H	-3.975572	-0.555832	-0.011847
O57	O	-3.960334	0.099657	-0.927190
C58	C	-4.120984	0.146361	-0.954612
H59	H	-4.226339	0.126957	-0.905796
H60	H	-4.213784	0.132895	-1.021750
H61	H	-4.052739	0.216994	-0.958467
H62	H	-3.861259	0.201872	-0.808472
O63	O	-4.041271	-0.591336	-0.417391
C64	C	-4.073330	-0.680675	-0.399995
H65	H	-3.989831	-0.702061	-0.330457
H66	H	-4.010532	-0.704645	-0.448038
H67	H	-4.245544	-0.707559	-0.407425
H68	H	-4.017413	0.025464	-0.981370
O69	O	-3.964770	-0.418569	-0.418425
C70	C	-4.016735	-0.465300	-0.487950
H71	H	-3.972579	-0.530299	-0.462950
H72	H	-3.929788	-0.429911	-0.541094
H73	H	-4.189854	-0.473476	-0.516026
O74	O	-3.723724	0.190748	-0.488092
C75	C	-3.879658	0.239259	-0.506656
H76	H	-3.968041	0.238089	-0.577089
H77	H	-3.806792	0.307501	-0.497316
H78	H	-3.990231	0.211417	-0.460574
O79	O	-3.928135	-0.157080	-0.596739
C80	C	-4.070439	-0.129227	-0.563912
H81	H	-4.121467	-0.071340	-0.609940
H82	H	-3.994402	-0.111634	-0.496476
H83	H	-4.210514	-0.182184	-0.558774
O84	O	-3.777481	0.246213	-0.665658
C85	C	-3.574985	0.286373	-0.631837
H86	H	-3.508337	0.246107	-0.568543
H87	H	-3.577834	0.351475	-0.618211
H88	H	-3.475041	0.294015	-0.681405
O89	O	-4.029943	-0.273067	-0.710208
C90	C	-3.843688	-0.290835	-0.654602
H91	H	-3.709904	-0.239072	-0.671856
H92	H	-3.819114	-0.354720	-0.663136
H93	H	-3.851433	-0.293080	-0.583850
H94	H	-4.156262	-0.238988	-1.026873
