data_functionalizedCrystal
_audit_creation_method	'MofGen! by Chris Wilmer'
_symmetry_space_group_name_H-M	'P1'
_symmetry_Int_Tables_number	1
_symmetry_cell_setting	triclinic
loop_
_symmetry_equiv_pos_as_xyz
  x,y,z
_cell_length_a	12.837943
_cell_length_b	27.732048
_cell_length_c	11.295483
_cell_angle_alpha	94.055952
_cell_angle_beta	85.461227
_cell_angle_gamma	88.735798
loop_
_atom_site_label
_atom_site_type_symbol
_atom_site_fract_x
_atom_site_fract_y
_atom_site_fract_z
O1	O	1.380472	0.122633	-0.099030
O2	O	1.078766	0.116430	-0.099036
O3	O	1.238988	0.049600	-0.099010
O4	O	1.220251	0.189464	-0.099056
O5	O	1.224916	0.055460	0.099039
O6	O	1.064694	0.122290	0.099013
O7	O	1.366400	0.128493	0.099019
Cu8	Cu	1.214262	0.125927	0.117099
Cu9	Cu	1.230904	0.118997	-0.117116
O10	O	1.206178	0.195323	0.098993
C11	C	1.033143	0.117265	-0.000012
C12	C	0.918166	0.111016	-0.000013
C13	C	1.231558	0.034504	0.000018
C14	C	1.230373	-0.019210	0.000027
C15	C	0.676005	0.186144	-0.000020
C16	C	0.567973	0.180275	-0.000021
C17	C	0.594068	0.093407	-0.000005
C18	C	0.702100	0.099277	-0.000005
C19	C	0.743064	0.145647	-0.000014
C20	C	0.851099	0.151516	-0.000023
C21	C	0.877191	0.064649	0.000002
C22	C	0.769159	0.058780	0.000001
C23	C	1.317601	-0.353705	-0.000032
C24	C	1.313207	-0.555583	-0.000049
O25	O	1.392971	-0.582888	-0.000099
N26	N	1.218201	-0.579414	-0.000050
C27	C	1.124288	-0.552772	-0.000054
O28	O	1.043380	-0.577674	-0.000067
C29	C	1.128684	-0.350895	-0.000046
C30	C	1.223695	-0.327067	-0.000033
C31	C	1.412605	-0.329876	-0.000021
C32	C	1.413702	-0.279410	-0.000010
C33	C	1.319795	-0.252772	-0.000011
C34	C	1.224792	-0.276600	-0.000022
C35	C	1.034772	-0.324255	-0.000058
C36	C	1.035879	-0.273783	-0.000059
C37	C	1.130890	-0.249954	-0.000047
C38	C	1.131982	-0.199496	-0.000012
N39	N	1.226988	-0.175665	-0.000012
C40	C	1.320895	-0.202303	-0.000011
C41	C	1.121987	-0.658760	-0.000056
C42	C	1.120887	-0.709229	-0.000056
C43	C	1.309807	-0.712036	-0.000053
C44	C	1.310905	-0.661566	-0.000045
C45	C	1.216993	-0.634929	-0.000055
C46	C	1.323191	-0.096319	0.000012
C47	C	1.324279	-0.045848	0.000028
C48	C	1.135361	-0.043045	0.000019
C49	C	1.134271	-0.093512	0.000010
C50	C	1.228195	-0.120148	0.000002
O51	O	1.052262	-0.172160	0.000025
O52	O	1.401793	-0.177392	-0.000024
C53	C	1.316504	-0.404172	-0.000043
C54	C	1.221501	-0.428000	-0.000054
C55	C	1.127594	-0.401362	-0.000055
C56	C	1.220401	-0.478469	-0.000054
C57	C	1.314308	-0.505107	-0.000053
C58	C	1.409314	-0.481276	-0.000053
C59	C	1.410411	-0.430810	-0.000042
C60	C	1.032588	-0.425193	-0.000056
C61	C	1.031499	-0.475660	-0.000065
C62	C	1.125405	-0.502298	-0.000064
C63	C	1.412023	0.127658	-0.000008
C64	C	1.527001	0.133908	-0.000015
C65	C	1.213608	0.210420	-0.000037
C66	C	1.214794	0.264133	-0.000055
N67	N	1.202564	0.130801	0.281834
N68	N	1.242610	0.114119	-0.281851
C69	C	1.326818	0.079005	0.531143
C70	C	1.317985	0.082692	0.655805
C71	C	1.176062	0.141860	0.655823
C72	C	1.184894	0.138173	0.531160
C73	C	1.260276	0.106745	0.468825
C74	C	1.269113	0.103060	0.344160
C75	C	1.127185	0.162225	0.344180
C76	C	1.118353	0.165912	0.468842
H77	H	0.884449	0.189273	-0.000028
H78	H	1.330495	0.077472	0.293408
H79	H	1.372168	0.060103	0.706541
H80	H	0.735790	0.021027	0.000023
O81	O	1.055410	0.192144	0.276956
H82	H	1.066318	0.231116	0.300864
H83	H	1.485775	-0.502974	-0.000047
H84	H	1.388203	0.053419	0.480389
O85	O	1.411098	-0.740771	-0.000053
H86	H	1.420843	-0.766212	-0.080782
H87	H	1.388271	-0.642169	-0.000035
O88	O	0.931298	-0.396465	-0.000052
H89	H	0.921549	-0.371021	0.080672
O90	O	0.720200	0.236154	-0.000029
H91	H	0.655418	0.263329	-0.000028
H92	H	0.513376	0.213252	-0.000022
O93	O	1.037063	0.199812	0.536086
H94	H	0.992277	0.218482	0.471804
H95	H	0.931804	0.031673	-0.000001
O96	O	1.020689	-0.630033	-0.000060
H97	H	1.010938	-0.604586	0.080658
H98	H	0.560689	0.055658	0.000101
O99	O	1.094762	0.175755	0.723063
H100	H	1.099806	0.173658	0.820217
O101	O	0.929016	-0.501359	-0.000076
H102	H	0.863908	-0.474352	-0.000086
O103	O	0.932295	-0.349949	-0.000076
H104	H	0.867193	-0.322940	-0.000092
H105	H	1.401652	-0.026449	0.000041
H106	H	1.399673	-0.118000	0.000002
O107	O	1.516180	-0.253712	-0.000031
H108	H	1.581287	-0.280721	-0.000052
H109	H	1.489079	-0.351560	-0.000025
H110	H	1.043518	-0.728625	-0.000045
H111	H	0.959403	-0.252098	-0.000070
H112	H	1.056903	-0.112913	0.000032
O113	O	1.034077	-0.014310	0.000017
H114	H	1.050812	0.024786	0.000012
O115	O	1.512888	-0.405112	-0.000052
H116	H	1.577995	-0.432121	-0.000069
