data_functionalizedCrystal
_audit_creation_method	'MofGen! by Chris Wilmer'
_symmetry_space_group_name_H-M	'P1'
_symmetry_Int_Tables_number	1
_symmetry_cell_setting	triclinic
loop_
_symmetry_equiv_pos_as_xyz
  x,y,z
_cell_length_a	14.971486
_cell_length_b	14.853567
_cell_length_c	13.448316
_cell_angle_alpha	89.997194
_cell_angle_beta	89.998199
_cell_angle_gamma	83.624529
loop_
_atom_site_label
_atom_site_type_symbol
_atom_site_fract_x
_atom_site_fract_y
_atom_site_fract_z
O1	O	1.186969	0.117488	-0.082569
O2	O	1.686969	0.617488	0.417431
O3	O	0.926571	0.131557	-0.082595
O4	O	1.426571	0.631557	0.417405
O5	O	1.063725	-0.006709	-0.082584
O6	O	1.563725	0.493291	0.417416
O7	O	1.049814	0.255753	-0.082580
O8	O	1.549814	0.755753	0.417420
O9	O	1.063708	-0.006717	0.082800
O10	O	1.563708	0.493283	0.582800
O11	O	0.926554	0.131549	0.082789
O12	O	1.426554	0.631549	0.582789
O13	O	1.186951	0.117479	0.082815
O14	O	1.686951	0.617479	0.582815
Cu15	Cu	1.056751	0.124513	0.097903
Cu16	Cu	1.556751	0.624513	0.597903
Cu17	Cu	1.056771	0.124523	-0.097683
Cu18	Cu	1.556771	0.624523	0.402317
O19	O	1.049797	0.255745	0.082804
O20	O	1.549797	0.755745	0.582804
C21	C	0.893238	0.130924	0.000093
C22	C	1.393238	0.630924	0.500093
C23	C	0.793940	0.129038	0.000083
C24	C	1.293940	0.629038	0.500083
C25	C	1.063087	-0.040301	0.000105
C26	C	1.563087	0.459699	0.500105
C27	C	1.061198	-0.140385	0.000096
C28	C	1.561198	0.359615	0.500096
C29	C	0.736730	0.210265	0.000086
C30	C	1.236730	0.710265	0.500086
C31	C	0.643430	0.208488	0.000101
C32	C	1.143430	0.708488	0.500101
C33	C	0.607342	0.125483	0.000106
C34	C	1.107342	0.625483	0.500106
C35	C	0.664560	0.044249	0.000106
C36	C	1.164560	0.544249	0.500106
C37	C	0.757858	0.046027	0.000098
C38	C	1.257858	0.546027	0.500098
C39	C	0.470097	0.040549	0.000119
C40	C	0.970097	0.540549	0.500119
C41	C	0.376793	0.038771	0.000125
C42	C	0.876793	0.538771	0.500125
C43	C	0.355669	0.203010	0.000122
C44	C	0.855669	0.703010	0.500122
C45	C	0.448967	0.204788	0.000114
C46	C	0.948967	0.704788	0.500114
C47	C	0.506178	0.123554	0.000113
C48	C	1.006178	0.623554	0.500113
C49	C	0.971740	-0.552902	0.000106
C50	C	1.471740	-0.052902	0.500106
C51	C	1.134683	-0.574213	0.000122
C52	C	1.634683	-0.074213	0.500122
C53	C	1.136459	-0.480180	0.000116
C54	C	1.636459	0.019820	0.500116
C55	C	1.055874	-0.422503	0.000107
C56	C	1.555874	0.077497	0.500107
C57	C	0.973514	-0.458860	0.000103
C58	C	1.473514	0.041140	0.500103
C59	C	1.218818	-0.443816	0.000130
C60	C	1.718818	0.056184	0.500130
C61	C	1.220597	-0.349777	0.000126
C62	C	1.720597	0.150223	0.500126
C63	C	1.140012	-0.292099	0.000109
C64	C	1.640012	0.207901	0.500109
C65	C	1.057648	-0.328461	0.000104
C66	C	1.557648	0.171539	0.500104
C67	C	0.977064	-0.270784	0.000095
C68	C	1.477064	0.229216	0.500095
C69	C	0.894699	-0.307144	0.000083
C70	C	1.394699	0.192856	0.500083
C71	C	0.892928	-0.401181	0.000087
C72	C	1.392928	0.098819	0.500087
C73	C	1.141782	-0.198061	0.000105
C74	C	1.641782	0.301939	0.500105
C75	C	0.978837	-0.176741	0.000092
C76	C	1.478837	0.323259	0.500092
C77	C	1.220285	0.118113	0.000124
C78	C	1.720285	0.618113	0.500124
C79	C	1.319582	0.119998	0.000128
C80	C	1.819582	0.619998	0.500128
C81	C	1.050436	0.289338	0.000113
C82	C	1.550436	0.789338	0.500113
C83	C	1.052325	0.389421	0.000115
C84	C	1.552325	0.889421	0.500115
N85	N	1.056743	0.124505	0.235467
N86	N	1.556743	0.624505	0.735467
N87	N	1.056786	0.124524	-0.235247
N88	N	1.556786	0.624524	0.264753
C89	C	1.117494	0.063307	0.287512
C90	C	1.617494	0.563307	0.787512
C91	C	1.117500	0.063306	0.391615
C92	C	1.617500	0.563306	0.891615
C93	C	1.056758	0.124509	0.443672
C94	C	1.556758	0.624509	0.943672
C95	C	0.996001	0.185711	0.391619
C96	C	1.496001	0.685711	0.891619
C97	C	0.995991	0.185707	0.287518
C98	C	1.495991	0.685707	0.787518
C99	C	0.996025	0.185717	0.608599
C100	C	1.496025	0.685717	1.108599
C101	C	0.996036	0.185723	0.712708
C102	C	1.496036	0.685723	1.212708
C103	C	1.117534	0.063316	0.712697
C104	C	1.617534	0.563316	1.212697
C105	C	1.117525	0.063312	0.608595
C106	C	1.617525	0.563312	1.108595
C107	C	1.056768	0.124515	0.556550
C108	C	1.556768	0.624515	1.056550
H109	H	0.766104	0.277858	0.000081
H110	H	1.266104	0.777858	0.500081
Cl111	Cl	1.235983	-0.646721	0.000150
Cl112	Cl	1.735983	-0.146721	0.500150
H113	H	0.516677	-0.025600	0.000120
H114	H	1.016677	0.474400	0.500120
Cl115	Cl	0.619193	-0.060101	0.000118
Cl116	Cl	1.119193	0.439899	0.500118
H117	H	1.166967	0.013473	0.433990
H118	H	1.666967	0.513473	0.933990
H119	H	1.166989	0.013480	0.566211
H120	H	1.666989	0.513480	1.066211
Cl121	Cl	1.193913	-0.013622	0.778128
Cl122	Cl	1.693913	0.486378	1.278128
H123	H	0.829087	-0.260172	0.000082
H124	H	1.329087	0.239828	0.500082
H125	H	0.596852	0.274632	0.000102
H126	H	1.096852	0.774632	0.500102
Cl127	Cl	0.494332	0.309139	0.000097
Cl128	Cl	0.994332	0.809139	0.500097
Cl129	Cl	0.919612	0.262643	0.222091
Cl130	Cl	1.419612	0.762643	0.722091
Cl131	Cl	0.829781	-0.056091	0.000099
Cl132	Cl	1.329781	0.443909	0.500099
Cl133	Cl	0.919669	0.262665	0.778142
Cl134	Cl	1.419669	0.762665	1.278142
Cl135	Cl	1.193864	-0.013635	0.222081
Cl136	Cl	1.693864	0.486365	0.722081
H137	H	1.287664	-0.320181	0.000134
H138	H	1.787664	0.179819	0.500134
Cl139	Cl	0.331427	-0.065580	0.000165
Cl140	Cl	0.831427	0.434420	0.500165
Cl141	Cl	1.320117	-0.516326	0.000164
Cl142	Cl	1.820117	-0.016326	0.500164
H143	H	0.904681	-0.582511	0.000092
H144	H	1.404681	-0.082511	0.500092
H145	H	0.309082	0.269154	0.000128
H146	H	0.809082	0.769154	0.500128
H147	H	0.913214	-0.129786	0.000080
H148	H	1.413214	0.370214	0.500080
H149	H	0.946548	0.235552	0.566228
H150	H	1.446548	0.735552	1.066228
Cl151	Cl	0.919634	0.262649	0.457059
Cl152	Cl	1.419634	0.762649	0.957059
H153	H	0.825871	-0.430795	0.000078
H154	H	1.325871	0.069205	0.500078
H155	H	1.208842	-0.168461	0.000122
H156	H	1.708842	0.331539	0.500122
