data_functionalizedCrystal
_audit_creation_method	'MofGen! by Chris Wilmer'
_symmetry_space_group_name_H-M	'P1'
_symmetry_Int_Tables_number	1
_symmetry_cell_setting	triclinic
loop_
_symmetry_equiv_pos_as_xyz
  x,y,z
_cell_length_a	17.077404
_cell_length_b	16.120484
_cell_length_c	17.077396
_cell_angle_alpha	92.868746
_cell_angle_beta	89.978556
_cell_angle_gamma	92.923903
loop_
_atom_site_label
_atom_site_type_symbol
_atom_site_fract_x
_atom_site_fract_y
_atom_site_fract_z
Zn1	Zn	1.184192	-0.331946	-0.459715
Zn2	Zn	1.517526	0.001387	-0.126382
Zn3	Zn	1.850859	0.334721	0.206951
Zn4	Zn	1.177437	-0.471370	-0.335099
Zn5	Zn	1.510770	-0.138036	-0.001766
Zn6	Zn	1.844103	0.195297	0.331568
Zn7	Zn	1.052923	-0.331970	-0.328460
Zn8	Zn	1.386256	0.001363	0.004873
Zn9	Zn	1.719590	0.334696	0.338207
Zn10	Zn	1.046232	-0.471315	-0.466315
Zn11	Zn	1.379565	-0.137982	-0.132982
Zn12	Zn	1.712899	0.195351	0.200351
O13	O	1.115196	-0.401650	-0.397397
O14	O	1.448529	-0.068317	-0.064064
O15	O	1.781863	0.265016	0.269269
O16	O	1.293142	-0.350453	-0.443201
O17	O	1.626476	-0.017120	-0.109867
O18	O	1.959809	0.316213	0.223466
O19	O	1.160893	-0.452911	-0.224373
O20	O	1.494226	-0.119578	0.108961
O21	O	1.827559	0.213756	0.442294
O22	O	1.075963	-0.215301	-0.340331
O23	O	1.409297	0.118032	-0.006997
O24	O	1.742630	0.451365	0.326336
O25	O	1.288179	-0.452887	-0.351646
O26	O	1.621513	-0.119554	-0.018312
O27	O	1.954846	0.213779	0.315021
O28	O	1.172406	-0.215284	-0.436763
O29	O	1.505740	0.118050	-0.103430
O30	O	1.839073	0.451383	0.229903
O31	O	1.069413	-0.350495	-0.219495
O32	O	1.402746	-0.017162	0.113838
O33	O	1.736079	0.316172	0.447172
O34	O	0.942189	-0.350442	-0.346730
O35	O	1.275522	-0.017109	-0.013397
O36	O	1.608856	0.316224	0.319936
O37	O	1.064560	-0.452795	-0.575285
O38	O	1.397893	-0.119461	-0.241952
O39	O	1.731227	0.213872	0.091381
O40	O	0.937273	-0.452818	-0.448012
O41	O	1.270607	-0.119485	-0.114679
O42	O	1.603940	0.213848	0.218654
O43	O	1.165919	-0.350401	-0.570436
O44	O	1.499252	-0.017067	-0.237103
O45	O	1.832585	0.316266	0.096231
O46	O	1.154405	-0.588028	-0.358046
O47	O	1.487738	-0.254695	-0.024712
O48	O	1.821072	0.078639	0.308621
O49	O	1.058009	-0.587988	-0.454450
O50	O	1.391343	-0.254655	-0.121117
O51	O	1.724676	0.078679	0.212217
C52	C	0.911249	-0.401628	-0.397368
C53	C	1.244583	-0.068294	-0.064034
C54	C	1.577916	0.265039	0.269299
C55	C	0.823999	-0.401638	-0.397375
C56	C	1.157332	-0.068305	-0.064041
C57	C	1.490666	0.265029	0.269292
C58	C	0.450760	-0.348432	-0.445185
C59	C	0.784093	-0.015098	-0.111851
C60	C	1.117426	0.318235	0.221482
C61	C	0.532740	-0.348426	-0.445176
C62	C	0.866074	-0.015092	-0.111842
C63	C	1.199407	0.318241	0.221491
C64	C	0.571149	-0.401668	-0.397418
C65	C	0.904482	-0.068335	-0.064085
C66	C	1.237815	0.264999	0.269249
C67	C	0.527571	-0.454925	-0.349672
C68	C	0.860905	-0.121592	-0.016339
C69	C	1.194238	0.211741	0.316995
C70	C	0.445592	-0.454935	-0.349686
C71	C	0.778925	-0.121602	-0.016352
C72	C	1.112259	0.211732	0.316981
C73	C	0.698443	-0.454900	-0.349645
C74	C	1.031776	-0.121567	-0.016312
C75	C	1.365109	0.211766	0.317021
C76	C	0.780428	-0.454890	-0.349631
C77	C	1.113761	-0.121556	-0.016297
C78	C	1.447094	0.211777	0.317036
C79	C	0.785591	-0.348391	-0.445135
C80	C	1.118924	-0.015058	-0.111802
C81	C	1.452258	0.318276	0.221531
C82	C	0.703612	-0.348401	-0.445149
C83	C	1.036945	-0.015067	-0.111816
C84	C	1.370278	0.318266	0.221518
C85	C	0.660040	-0.401657	-0.397402
C86	C	0.993373	-0.068324	-0.064069
C87	C	1.326707	0.265009	0.269265
C88	C	1.104769	-0.618258	-0.407702
C89	C	1.438103	-0.284925	-0.074368
C90	C	1.771436	0.048409	0.258965
C91	C	1.100381	-0.710924	-0.412136
C92	C	1.433714	-0.377591	-0.078803
C93	C	1.767047	-0.044257	0.254531
C94	C	1.092372	-0.880585	-0.420248
C95	C	1.425706	-0.547252	-0.086915
C96	C	1.759039	-0.213919	0.246419
C97	C	1.138160	-0.921875	-0.374559
C98	C	1.471493	-0.588541	-0.041226
C99	C	1.804827	-0.255208	0.292107
C100	C	1.133704	-1.016280	-0.379073
C101	C	1.467038	-0.682947	-0.045740
C102	C	1.800371	-0.349613	0.287594
C103	C	1.096827	-0.786171	-0.415735
C104	C	1.430161	-0.452838	-0.082402
C105	C	1.763494	-0.119505	0.250931
C106	C	1.319939	-0.401674	-0.397428
C107	C	1.653272	-0.068340	-0.064094
C108	C	1.986606	0.264993	0.269239
C109	C	1.407188	-0.401683	-0.397440
C110	C	1.740522	-0.068350	-0.064107
C111	C	2.073855	0.264983	0.269226
C112	C	1.115246	-0.401589	-0.602139
C113	C	1.448580	-0.068256	-0.268805
C114	C	1.781913	0.265078	0.064528
C115	C	1.115268	-0.401563	-0.689387
C116	C	1.448601	-0.068229	-0.356054
C117	C	1.781935	0.265104	-0.022721
C118	C	1.125685	-0.184197	-0.387070
C119	C	1.459018	0.149137	-0.053737
C120	C	1.792351	0.482470	0.279597
C121	C	1.130154	-0.091531	-0.382669
C122	C	1.463488	0.241803	-0.049336
C123	C	1.796821	0.575136	0.283997
C124	C	1.168047	-0.348242	-0.727854
C125	C	1.501381	-0.014908	-0.394520
C126	C	1.834714	0.318425	-0.061187
C127	C	1.168058	-0.348214	-0.809833
C128	C	1.501392	-0.014881	-0.476499
C129	C	1.834725	0.318453	-0.143166
C130	C	1.115293	-0.401512	-0.853344
C131	C	1.448626	-0.068179	-0.520011
C132	C	1.781959	0.265155	-0.186678
C133	C	1.062507	-0.454835	-0.814873
C134	C	1.395841	-0.121502	-0.481539
C135	C	1.729174	0.211831	-0.148206
C136	C	1.062494	-0.454858	-0.732895
C137	C	1.395827	-0.121525	-0.399561
C138	C	1.729160	0.211808	-0.066228
C139	C	1.062541	-0.454785	-0.985740
C140	C	1.395875	-0.121452	-0.652407
C141	C	1.729208	0.211881	-0.319074
C142	C	1.062556	-0.454764	-1.067724
C143	C	1.395889	-0.121430	-0.734391
C144	C	1.729223	0.211903	-0.401057
C145	C	1.168106	-0.348141	-1.062678
C146	C	1.501439	-0.014807	-0.729345
C147	C	1.834773	0.318526	-0.396012
C148	C	1.168092	-0.348164	-0.980701
C149	C	1.501426	-0.014830	-0.647367
C150	C	1.834759	0.318503	-0.314034
C151	C	1.115308	-0.401488	-0.942234
C152	C	1.448641	-0.068155	-0.608901
C153	C	1.781974	0.265178	-0.275568
C154	C	1.115194	-0.401651	-0.193450
C155	C	1.448527	-0.068318	0.139884
C156	C	1.781860	0.265015	0.473217
C157	C	1.115336	-0.401443	-0.106190
C158	C	1.448669	-0.068109	0.227143
C159	C	1.782002	0.265224	0.560476
H160	H	0.811697	-0.498247	-0.310744
H161	H	1.145030	-0.164913	0.022589
H162	H	1.478364	0.168420	0.355922
H163	H	1.019588	-0.498162	-1.103149
H164	H	1.352921	-0.164829	-0.769816
H165	H	1.686255	0.168505	-0.436482
Br166	Br	1.209073	-0.862624	-0.303711
Br167	Br	1.542406	-0.529291	0.029622
Br168	Br	1.875740	-0.195958	0.362955
Br169	Br	0.639309	-0.527191	-0.284858
Br170	Br	0.972643	-0.193857	0.048476
Br171	Br	1.305976	0.139476	0.381809
H172	H	0.821071	-0.305026	-0.484012
H173	H	1.154404	0.028307	-0.150679
H174	H	1.487738	0.361640	0.182655
Br175	Br	1.239668	-0.275911	-0.668810
Br176	Br	1.573001	0.057423	-0.335477
Br177	Br	1.906334	0.390756	-0.002143
H178	H	1.049829	-0.916135	-0.462749
H179	H	1.383162	-0.582801	-0.129416
H180	H	1.716496	-0.249468	0.203917
Br181	Br	1.239725	-0.275885	-0.862036
Br182	Br	1.573059	0.057448	-0.528703
Br183	Br	1.906392	0.390781	-0.195369
H184	H	1.019547	-0.498195	-0.954423
H185	H	1.352880	-0.164862	-0.621090
H186	H	1.686214	0.168472	-0.287757
H187	H	1.019507	-0.498269	-0.701576
H188	H	1.352841	-0.164936	-0.368243
H189	H	1.686174	0.168397	-0.034910
H190	H	1.211063	-0.304768	-0.945276
H191	H	1.544396	0.028565	-0.611942
H192	H	1.877729	0.361898	-0.278609
Br193	Br	0.990891	-0.527165	-0.873923
Br194	Br	1.324225	-0.193831	-0.540590
Br195	Br	1.657558	0.139502	-0.207256
H196	H	0.419494	-0.305071	-0.484069
H197	H	0.752827	0.028263	-0.150736
H198	H	1.086161	0.361596	0.182597
Br199	Br	0.651486	-0.276137	-0.509958
Br200	Br	0.984820	0.057196	-0.176625
Br201	Br	1.318153	0.390530	0.156709
Br202	Br	0.591870	-0.276159	-0.509981
Br203	Br	0.925203	0.057174	-0.176647
Br204	Br	1.258537	0.390508	0.156686
Br205	Br	0.579695	-0.527190	-0.284863
Br206	Br	0.913029	-0.193856	0.048471
Br207	Br	1.246362	0.139477	0.381804
H208	H	0.410117	-0.498300	-0.310809
H209	H	0.743450	-0.164966	0.022524
H210	H	1.076784	0.168367	0.355858
H211	H	1.211084	-0.304721	-1.094001
H212	H	1.544417	0.028613	-0.760668
H213	H	1.877751	0.361946	-0.427335
