data_functionalizedCrystal
_audit_creation_method	'MofGen! by Chris Wilmer'
_symmetry_space_group_name_H-M	'P1'
_symmetry_Int_Tables_number	1
_symmetry_cell_setting	triclinic
loop_
_symmetry_equiv_pos_as_xyz
  x,y,z
_cell_length_a	14.560438
_cell_length_b	20.875492
_cell_length_c	20.875641
_cell_angle_alpha	60.662107
_cell_angle_beta	90.001158
_cell_angle_gamma	58.317790
loop_
_atom_site_label
_atom_site_type_symbol
_atom_site_fract_x
_atom_site_fract_y
_atom_site_fract_z
Zr1	Zr	0.836567	0.731514	-0.117953
O2	O	0.685572	0.864509	-0.223430
O3	O	0.889847	0.593235	-0.080720
O4	O	0.887256	0.723895	-0.216368
O5	O	0.682254	0.741700	0.013645
O6	O	1.038394	0.723897	-0.216369
O7	O	0.688163	0.733848	-0.087783
O8	O	1.043030	0.490168	0.026279
O9	O	0.677619	0.975429	-0.229003
O10	O	1.016916	0.652069	-0.070760
O11	O	0.899713	0.657928	0.004936
O12	O	0.896662	0.811764	-0.154771
O13	O	0.779459	0.817623	-0.079076
Zr14	Zr	1.068191	0.744039	0.043812
Zr15	Zr	1.077616	0.731516	-0.117955
Zr16	Zr	0.827143	0.744037	0.043813
Zr17	Zr	0.823883	0.908418	-0.126841
Zr18	Zr	1.080876	0.567135	0.052699
O19	O	1.014912	0.882318	0.006579
O20	O	1.028312	0.864512	-0.223433
O21	O	0.672171	0.882316	0.006581
O22	O	1.219187	0.611044	0.149289
O23	O	1.232587	0.593237	-0.080723
O24	O	0.876447	0.611041	0.149291
O25	O	1.222505	0.733853	-0.087787
O26	O	1.017503	0.751658	0.142226
O27	O	0.866364	0.751657	0.142227
O28	O	1.216595	0.741705	0.013642
O29	O	0.869220	0.975430	-0.229004
O30	O	1.035538	0.500123	0.154862
O31	O	1.227140	0.500124	0.154861
O32	O	1.234631	0.490170	0.026278
O33	O	0.670127	0.985383	-0.100420
O34	O	0.861729	0.985385	-0.100421
O35	O	1.008096	0.663789	0.080630
O36	O	1.125299	0.657930	0.004934
O37	O	1.005045	0.817625	-0.079077
O38	O	0.887842	0.823484	-0.003382
C39	C	0.968246	0.516496	-0.025954
C40	C	0.973630	0.441396	-0.022181
C41	C	0.891767	0.462914	-0.079369
C42	C	0.896830	0.392361	-0.075851
C43	C	0.983754	0.300290	-0.015142
C44	C	1.065626	0.278772	0.042049
C45	C	1.060566	0.349325	0.038527
C46	C	1.007940	0.083192	0.001709
C47	C	1.012992	0.012639	0.005227
C48	C	0.844197	0.126233	-0.112674
C49	C	0.839141	0.196782	-0.116187
C50	C	0.921016	0.175258	-0.058999
N51	N	0.988930	0.228171	-0.011543
N52	N	0.915844	0.247376	-0.062602
C53	C	0.650864	0.737774	-0.037069
C54	C	0.548533	0.737773	-0.037068
C55	C	0.401040	0.742107	0.018805
C56	C	0.497197	0.742100	0.018810
C57	C	0.503714	0.733443	-0.092950
C58	C	0.407564	0.733443	-0.092951
C59	C	0.349702	0.746444	0.074682
C60	C	0.394515	0.750772	0.130565
C61	C	0.490672	0.750766	0.130570
C62	C	0.542015	0.746431	0.074692
C63	C	1.253894	0.737779	-0.037073
C64	C	1.356226	0.737780	-0.037074
C65	C	0.964168	0.722112	-0.239416
C66	C	0.968169	0.716795	-0.308091
C67	C	0.936513	0.959057	-0.048187
C68	C	0.931128	1.034157	-0.051960
C69	C	0.907279	0.797654	-0.384207
C70	C	0.911053	0.792654	-0.448731
C71	C	0.975711	0.706792	-0.437137
C72	C	1.036608	0.625927	-0.361012
C73	C	1.032840	0.630929	-0.296490
C74	C	0.993718	0.682894	-0.625405
C75	C	0.997479	0.677899	-0.689935
C76	C	0.871926	0.844626	-0.777649
C77	C	0.868158	0.849620	-0.713121
C78	C	0.929059	0.768755	-0.637003
N79	N	0.979568	0.701679	-0.503089
N80	N	0.925209	0.773870	-0.571052
C81	C	0.940591	0.753441	0.165275
C82	C	0.936590	0.758758	0.233949
C83	C	1.269761	0.516499	-0.025956
C84	C	1.377477	0.441399	-0.022184
C85	C	0.956457	0.532161	0.176391
C86	C	0.957841	0.462377	0.248838
C87	C	1.257972	0.532164	0.176389
C88	C	1.361687	0.462381	0.248835
C89	C	0.646787	0.943389	-0.250531
C90	C	0.543071	1.013172	-0.322977
C91	C	0.634998	0.959054	-0.048185
C92	C	0.527282	1.034154	-0.051957
C93	C	0.948302	0.943392	-0.250533
C94	C	0.946918	1.013176	-0.322980
C95	C	1.371487	0.403072	-0.059931
C96	C	1.472689	0.332516	-0.056402
C97	C	1.579880	0.300285	-0.015122
C98	C	1.585867	0.338620	0.022626
C99	C	1.484666	0.409178	0.019092
C100	C	1.015065	0.432666	0.322379
C101	C	1.016360	0.367107	0.390456
C102	C	0.960437	0.331256	0.384992
C103	C	0.903205	0.360973	0.311444
C104	C	0.901904	0.426536	0.243368
C105	C	1.471582	0.426552	0.243345
C106	C	1.569043	0.360992	0.311409
C107	C	1.556606	0.331259	0.384964
C108	C	1.446700	0.367095	0.390453
C109	C	1.349241	0.432658	0.322389
C110	C	0.433176	1.049010	-0.317487
C111	C	0.335714	1.114591	-0.385552
C112	C	0.348150	1.144329	-0.459107
C113	C	0.458057	1.108488	-0.464596
C114	C	0.555516	1.042913	-0.396531
C115	C	0.533271	1.072488	-0.014218
C116	C	0.432069	1.143062	-0.017765
C117	C	0.324878	1.175295	-0.059048
C118	C	0.318891	1.136957	-0.096793
C119	C	0.420092	1.066390	-0.093249
C120	C	1.002852	1.049006	-0.317490
C121	C	1.001574	1.114567	-0.385555
C122	C	0.944354	1.144300	-0.459110
C123	C	0.888418	1.108462	-0.464597
C124	C	0.889703	1.042898	-0.396533
H125	H	1.127228	0.331798	0.085095
H126	H	1.673155	0.312367	0.056236
O127	O	1.055733	1.149536	-0.380319
C128	C	0.975092	1.245702	-0.420231
H129	H	0.898025	1.272229	-0.465722
H130	H	0.945179	1.262600	-0.376545
C131	C	1.126171	1.259511	-0.405521
C132	C	1.031520	1.292092	-0.461398
H133	H	1.160978	1.288127	-0.430912
H134	H	1.180501	1.194721	-0.378629
H135	H	1.101230	1.273594	-0.369120
H136	H	1.056464	1.277999	-0.497792
H137	H	0.977195	1.356881	-0.488297
H138	H	0.271404	0.746452	0.074682
O139	O	1.434836	0.338072	0.461970
C140	C	1.544428	0.272536	0.520858
H141	H	1.611822	0.239751	0.497242
H142	H	1.565326	0.307853	0.539348
C143	C	1.462096	0.237791	0.621111
C144	C	1.544870	0.197519	0.592108
H145	H	1.462369	0.191519	0.665064
H146	H	1.388261	0.281947	0.581438
H147	H	1.479521	0.267221	0.636514
H148	H	1.527436	0.168100	0.576697
H149	H	1.618703	0.153356	0.631781
O150	O	0.844484	0.880987	-0.395334
C151	C	0.854233	0.868067	-0.322065
H152	H	0.878747	0.797108	-0.275560
H153	H	0.923470	0.873439	-0.305832
C154	C	0.708131	1.029705	-0.383897
C155	C	0.738230	0.942555	-0.326780
H156	H	0.636578	1.075654	-0.386805
H157	H	0.701566	1.038410	-0.433260
H158	H	0.765838	1.034168	-0.370363
H159	H	0.680531	0.938088	-0.340320
H160	H	0.744783	0.933850	-0.277419
O161	O	0.846314	0.455256	0.171996
C162	C	0.797220	0.409562	0.181781
H163	H	0.845175	0.342508	0.242962
H164	H	0.702821	0.455430	0.174164
C165	C	0.747429	0.470624	0.044968
C166	C	0.806335	0.388263	0.120110
H167	H	0.753046	0.457489	0.006925
H168	H	0.780500	0.501412	0.038375
H169	H	0.668768	0.508839	0.038632
H170	H	0.884996	0.350055	0.126448
H171	H	0.773277	0.357468	0.126703
H172	H	1.481730	0.450750	0.183459
H173	H	0.830168	0.409890	-0.122419
H174	H	0.777540	0.143747	-0.159234
H175	H	0.352712	0.754294	0.176063
O176	O	0.214856	1.168186	-0.136947
C177	C	0.231253	1.119205	-0.169482
H178	H	0.319581	1.089524	-0.175865
H179	H	0.225617	1.060785	-0.129363
C180	C	0.028975	1.221164	-0.242754
C181	C	0.137457	1.184717	-0.250600
H182	H	-0.028886	1.261573	-0.292790
H183	H	0.017926	1.254162	-0.220832
H184	H	0.024295	1.172473	-0.209318
H185	H	0.142140	1.233406	-0.284027
H186	H	0.148504	1.151728	-0.272529
O187	O	0.534031	0.755011	0.184887
C188	C	0.468115	0.758815	0.234214
H189	H	0.378731	0.786499	0.202597
H190	H	0.512128	0.686781	0.289994
C191	C	0.567184	0.788875	0.294287
C192	C	0.457397	0.822885	0.255452
H193	H	0.560577	0.828393	0.307391
H194	H	0.611597	0.786310	0.261056
H195	H	0.603850	0.728848	0.340765
H196	H	0.420740	0.882906	0.208970
H197	H	0.412978	0.825462	0.288675
O198	O	0.553772	0.729120	-0.147126
C199	C	0.669216	0.649649	-0.108805
H200	H	0.700675	0.626999	-0.046397
H201	H	0.675532	0.592054	-0.107207
C202	C	0.705654	0.699057	-0.230061
C203	C	0.744296	0.671242	-0.153411
H204	H	0.751968	0.712373	-0.257576
H205	H	0.627877	0.752596	-0.255879
H206	H	0.710919	0.651056	-0.228718
H207	H	0.739018	0.719246	-0.154754
H208	H	0.822075	0.617711	-0.127594
O209	O	1.242578	0.467327	0.327870
C210	C	1.252515	0.427032	0.407388
H211	H	1.341451	0.358184	0.445380
H212	H	1.240204	0.474782	0.424076
C213	C	1.050627	0.496079	0.373724
C214	C	1.159858	0.411514	0.420386
H215	H	0.993470	0.486510	0.381742
H216	H	1.043931	0.523229	0.320151
H217	H	1.040384	0.535862	0.387636
H218	H	1.170104	0.371737	0.406467
H219	H	1.166553	0.384356	0.473957
O220	O	0.364141	0.729276	-0.147307
C221	C	0.430081	0.725431	-0.196616
H222	H	0.475861	0.755656	-0.195472
H223	H	0.496557	0.650734	-0.175198
C224	C	0.294244	0.744185	-0.282363
C225	C	0.350465	0.781315	-0.280963
H226	H	0.245136	0.778652	-0.334392
H227	H	0.249821	0.746771	-0.249142
H228	H	0.349651	0.681938	-0.264511
H229	H	0.295059	0.843556	-0.298806
H230	H	0.394877	0.778740	-0.314190
H231	H	0.841830	1.132682	-0.524494
O232	O	0.851790	0.871290	-0.522617
C233	C	0.793929	0.948145	-0.519015
H234	H	0.780732	0.927266	-0.460162
H235	H	0.847500	0.974318	-0.525639
C236	C	0.692394	1.050589	-0.657914
C237	C	0.676177	1.024947	-0.585632
H238	H	0.619761	1.097966	-0.699008
H239	H	0.731379	0.998811	-0.660342
H240	H	0.737040	1.072394	-0.663424
H241	H	0.631544	1.003132	-0.580120
H242	H	0.637181	1.076723	-0.583205
H243	H	0.468169	1.132709	-0.524492
O244	O	0.754659	0.286168	-0.175234
C245	C	0.683469	0.290033	-0.224946
H246	H	0.733064	0.222036	-0.218880
H247	H	0.604216	0.302669	-0.207919
C248	C	0.584858	0.452555	-0.317891
C249	C	0.645774	0.369042	-0.310446
H250	H	0.561600	0.501294	-0.370632
H251	H	0.632816	0.449953	-0.284399
H252	H	0.518821	0.463073	-0.303698
H253	H	0.711816	0.358521	-0.324630
H254	H	0.597826	0.371645	-0.343943
O255	O	0.253564	1.207928	-0.525272
C256	C	0.258697	1.170093	-0.566762
H257	H	0.351965	1.111176	-0.549652
H258	H	0.205661	1.142992	-0.551802
C259	C	0.095401	1.317326	-0.676419
C260	C	0.209957	1.244967	-0.655409
H261	H	0.065331	1.363511	-0.731101
H262	H	0.091939	1.342815	-0.648465
H263	H	0.051220	1.294730	-0.663946
H264	H	0.254138	1.267561	-0.667873
H265	H	0.213424	1.219483	-0.683367
H266	H	1.489559	0.440376	0.049835
O267	O	0.849008	0.326004	0.306284
C268	C	0.862427	0.261775	0.382144
H269	H	0.941653	0.234261	0.426453
H270	H	0.782969	0.296792	0.396886
C271	C	0.780095	0.215270	0.330820
C272	C	0.877407	0.181472	0.385241
H273	H	0.789329	0.165738	0.332731
H274	H	0.771049	0.258545	0.279711
H275	H	0.713889	0.244451	0.343112
H276	H	0.943607	0.152302	0.372943
H277	H	0.886464	0.138190	0.436348
O278	O	1.058540	1.020200	-0.246105
C279	C	1.107607	1.065908	-0.255873
H280	H	1.120531	1.090526	-0.314915
H281	H	1.047735	1.127604	-0.253664
C282	C	1.208754	0.969008	-0.117253
C283	C	1.224636	0.999236	-0.189767
H284	H	1.280941	0.927883	-0.076475
H285	H	1.175693	0.938215	-0.110672
H286	H	1.158857	1.020428	-0.115424
H287	H	1.274521	0.947817	-0.191600
H288	H	1.257709	1.030019	-0.196347
O289	O	0.414411	1.028991	-0.129784
C290	C	0.470596	0.934051	-0.074083
H291	H	0.535255	0.908143	-0.020580
H292	H	0.404410	0.921975	-0.055720
C293	C	0.454613	0.913473	-0.176034
C294	C	0.534036	0.881651	-0.110322
H295	H	0.493742	0.881149	-0.198388
H296	H	0.416756	0.977436	-0.213561
H297	H	0.399464	0.903408	-0.160722
H298	H	0.589174	0.891727	-0.125637
H299	H	0.571904	0.817688	-0.072799
H300	H	1.467792	0.301313	-0.087142
O301	O	0.637293	1.041319	0.025894
C302	C	0.620855	1.090284	0.058453
H303	H	0.531733	1.159408	0.023863
H304	H	0.628472	1.048762	0.122106
C305	C	0.822459	1.021585	0.097241
C306	C	0.713002	1.106488	0.054754
H307	H	0.879302	1.031577	0.094963
H308	H	0.833536	0.988593	0.075308
H309	H	0.828790	0.986992	0.150282
H310	H	0.706668	1.141075	0.001713
H311	H	0.701926	1.139486	0.076678
O312	O	0.437759	1.180271	0.018968
C313	C	0.383694	1.167304	0.075303
H314	H	0.319741	1.157261	0.059124
H315	H	0.451363	1.103826	0.135383
C316	C	0.398165	1.264788	0.097405
C317	C	0.319609	1.252461	0.077531
H318	H	0.358638	1.317315	0.098783
H319	H	0.434593	1.273522	0.059454
H320	H	0.454550	1.211885	0.147471
H321	H	0.263234	1.305359	0.027462
H322	H	0.283169	1.243738	0.115474
H323	H	0.815510	0.919538	-0.722571
H324	H	0.820972	0.537881	-0.128797
O325	O	1.052677	0.604400	-0.551439
C326	C	0.975117	0.602306	-0.511519
H327	H	0.893697	0.675439	-0.539923
H328	H	0.952115	0.559274	-0.514778
C329	C	1.131453	0.469532	-0.390254
C330	C	1.031455	0.559357	-0.425136
H331	H	1.166205	0.443035	-0.336968
H332	H	1.183707	0.470940	-0.417149
H333	H	1.112270	0.433683	-0.392978
H334	H	1.050641	0.595206	-0.422420
H335	H	0.979205	0.557953	-0.398238
H336	H	0.644995	1.013733	-0.401011
O337	O	0.226545	1.243956	-0.062623
C338	C	0.160612	1.319800	-0.141488
H339	H	0.219178	1.316889	-0.177901
H340	H	0.092392	1.317414	-0.164706
C341	C	0.029698	1.413380	-0.102360
C342	C	0.101632	1.409809	-0.147082
H343	H	-0.006689	1.468902	-0.105811
H344	H	0.074115	1.362282	-0.049227
H345	H	-0.027143	1.411388	-0.121713
H346	H	0.158479	1.411790	-0.127721
H347	H	0.057222	1.460910	-0.200211
H348	H	0.620319	0.746416	0.074706
H349	H	0.822344	0.910462	-0.839629
O350	O	1.097395	-0.076766	0.064299
C351	C	1.089360	-0.091192	0.136843
H352	H	1.042328	-0.022857	0.130045
H353	H	1.039792	-0.120989	0.156937
C354	C	1.268842	-0.242941	0.206478
C355	C	1.211084	-0.159011	0.198129
H356	H	1.343926	-0.284777	0.244283
H357	H	1.274253	-0.233224	0.157604
H358	H	1.227522	-0.267760	0.223219
H359	H	1.252396	-0.134188	0.181378
H360	H	1.205683	-0.168725	0.247002
H361	H	1.658524	0.331821	0.306926
H362	H	0.943316	1.197687	-0.514526
H363	H	1.062969	0.342919	0.450335
H364	H	1.284217	0.429313	-0.093556
H365	H	0.844150	1.013732	-0.401014
H366	H	1.136406	0.203801	0.091476
O367	O	1.087551	0.062326	0.057169
C368	C	1.147789	0.096861	0.021123
H369	H	1.142061	0.105804	-0.037507
H370	H	1.108138	0.166245	0.011102
C371	C	1.281927	0.017796	0.146493
C372	C	1.274899	0.028772	0.074486
H373	H	1.360333	-0.024201	0.179411
H374	H	1.241341	-0.005469	0.170779
H375	H	1.248878	0.075621	0.138132
H376	H	1.307934	-0.029049	0.082847
H377	H	1.315493	0.052026	0.050203
O378	O	1.060202	0.594560	-0.678805
C379	C	1.050490	0.607482	-0.752075
H380	H	0.968133	0.678439	-0.798579
H381	H	1.127812	0.602118	-0.768310
C382	C	1.147835	0.445842	-0.690245
C383	C	1.046677	0.532990	-0.747361
H384	H	1.145488	0.399890	-0.687337
H385	H	1.154382	0.437135	-0.640881
H386	H	1.212259	0.441385	-0.703781
H387	H	0.982256	0.537450	-0.733819
H388	H	1.040119	0.541696	-0.796722
H389	H	1.082422	0.565084	-0.234513
H390	H	1.089260	0.556017	-0.351577
H391	H	1.662275	0.242831	-0.012250
H392	H	1.060605	0.461850	0.326843
H393	H	0.961505	0.277871	0.440430
H394	H	1.635973	0.277873	0.440379
H395	H	0.423028	1.024802	-0.257601
H396	H	0.246233	1.143762	-0.381068
