data_functionalizedCrystal
_audit_creation_method	'MofGen! by Chris Wilmer'
_symmetry_space_group_name_H-M	'P1'
_symmetry_Int_Tables_number	1
_symmetry_cell_setting	triclinic
loop_
_symmetry_equiv_pos_as_xyz
  x,y,z
_cell_length_a	10.723024
_cell_length_b	14.044220
_cell_length_c	9.798715
_cell_angle_alpha	89.995876
_cell_angle_beta	89.996609
_cell_angle_gamma	88.828373
loop_
_atom_site_label
_atom_site_type_symbol
_atom_site_fract_x
_atom_site_fract_y
_atom_site_fract_z
O1	O	1.670498	0.133040	-0.113486
O2	O	1.308619	0.145774	-0.113491
O3	O	1.484127	0.001387	-0.113476
O4	O	1.494990	0.277427	-0.113502
O5	O	1.484112	0.001387	0.113507
O6	O	1.308605	0.145774	0.113491
O7	O	1.670483	0.133039	0.113496
Zn8	Zn	1.489542	0.139407	0.149532
Zn9	Zn	1.489561	0.139407	-0.149527
O10	O	1.494976	0.277427	0.113480
C11	C	1.262020	0.144847	-0.000001
C12	C	1.123188	0.142075	-0.000002
C13	C	1.479364	-0.033958	0.000016
C14	C	1.465180	-0.139276	0.000018
C15	C	1.056288	0.222866	-0.000011
C16	C	0.912798	0.220002	-0.000013
C17	C	1.439248	-0.332106	-0.000002
C18	C	1.539849	-0.389085	-0.000005
C19	C	1.525420	-0.496383	-0.000016
C20	C	1.453675	-0.224799	0.000009
C21	C	1.717083	0.133966	0.000002
C22	C	1.855914	0.136739	-0.000005
C23	C	1.499738	0.312772	-0.000015
C24	C	1.513923	0.418090	-0.000025
N25	N	1.489538	0.139406	0.353631
N26	N	1.489573	0.139401	-0.353627
C27	C	1.563202	0.078514	0.421415
C28	C	1.563222	0.078511	0.578578
H29	H	1.105243	0.294155	-0.000010
H30	H	1.342291	-0.363906	-0.000007
H31	H	1.426481	0.191531	0.411950
H32	H	1.636814	-0.357284	-0.000095
H33	H	1.426508	0.191538	0.588091
O34	O	1.638280	0.016318	0.351673
C35	C	1.564642	-0.042472	0.269024
H36	H	1.471214	-0.005195	0.247805
H37	H	1.548212	-0.112665	0.323966
C38	C	1.747358	-0.108014	0.159249
C39	C	1.632611	-0.062225	0.133178
H40	H	1.789285	-0.120203	0.075455
H41	H	1.796970	-0.068409	0.214935
H42	H	1.733650	-0.166503	0.205038
H43	H	1.646322	-0.003733	0.087406
H44	H	1.583002	-0.101822	0.077481
O45	O	0.924455	0.054192	-0.000240
C46	C	0.895853	0.001005	-0.117773
H47	H	0.856835	0.050757	-0.199942
H48	H	0.823512	-0.054400	-0.091188
C49	C	1.062964	-0.110566	-0.070152
C50	C	1.015050	-0.049457	-0.171078
H51	H	1.136488	-0.141697	-0.103032
H52	H	1.082231	-0.074735	0.009035
H53	H	1.002668	-0.156728	-0.048008
H54	H	1.075340	-0.003289	-0.193209
H55	H	0.995796	-0.085282	-0.250271
O56	O	1.638394	0.016183	0.647960
C57	C	1.607301	-0.077810	0.613184
H58	H	1.559249	-0.077991	0.509411
H59	H	1.541710	-0.107379	0.693589
C60	C	1.785867	-0.140074	0.734216
C61	C	1.726859	-0.140297	0.606756
H62	H	1.859614	-0.178621	0.730257
H63	H	1.806813	-0.076749	0.757650
H64	H	1.731195	-0.164713	0.801207
H65	H	1.781525	-0.115647	0.539771
H66	H	1.705925	-0.203619	0.583310
H67	H	0.855286	0.289166	-0.000026
H68	H	1.074234	0.070786	-0.000030
