data_functionalizedCrystal
_audit_creation_method	'MofGen! by Chris Wilmer'
_symmetry_space_group_name_H-M	'P1'
_symmetry_Int_Tables_number	1
_symmetry_cell_setting	triclinic
loop_
_symmetry_equiv_pos_as_xyz
  x,y,z
_cell_length_a	11.026607
_cell_length_b	17.699092
_cell_length_c	16.176319
_cell_angle_alpha	90.001079
_cell_angle_beta	89.992425
_cell_angle_gamma	95.936192
loop_
_atom_site_label
_atom_site_type_symbol
_atom_site_fract_x
_atom_site_fract_y
_atom_site_fract_z
O1	O	1.609250	0.316806	-0.068742
O2	O	2.109250	0.816806	0.431258
O3	O	1.256049	0.280731	-0.068743
O4	O	1.756049	0.780731	0.431257
O5	O	1.442623	0.189950	-0.068741
O6	O	1.942623	0.689950	0.431259
O7	O	1.422676	0.407587	-0.068744
O8	O	1.922676	0.907587	0.431256
O9	O	1.442595	0.189952	0.068753
O10	O	1.942595	0.689952	0.568753
O11	O	1.256021	0.280733	0.068750
O12	O	1.756021	0.780733	0.568750
O13	O	1.609222	0.316808	0.068751
O14	O	2.109222	0.816808	0.568751
Cu15	Cu	1.432619	0.298771	0.081305
Cu16	Cu	1.932619	0.798771	0.581305
Cu17	Cu	1.432652	0.298768	-0.081297
Cu18	Cu	1.932652	0.798768	0.418703
O19	O	1.422648	0.407589	0.068749
O20	O	1.922648	0.907589	0.568749
C21	C	1.210843	0.274077	0.000003
C22	C	1.710843	0.774077	0.500003
C23	C	1.076187	0.254237	0.000002
C24	C	1.576187	0.754237	0.500002
C25	C	1.441893	0.161656	0.000005
C26	C	1.941893	0.661656	0.500005
C27	C	1.439743	0.077343	0.000001
C28	C	1.939743	0.577343	0.500001
C29	C	1.438752	0.037736	-0.074948
C30	C	1.938752	0.537736	0.425052
C31	C	1.436724	-0.041486	-0.074949
C32	C	1.936724	0.458514	0.425051
C33	C	1.435697	-0.081098	-0.000000
C34	C	1.935697	0.418902	0.500000
C35	C	1.436685	-0.041486	0.074954
C36	C	1.936685	0.458514	0.574954
C37	C	1.438704	0.037734	0.074954
C38	C	1.938704	0.537734	0.574954
C39	C	1.428543	-0.360970	0.074955
C40	C	1.928543	0.139030	0.574955
C41	C	1.426528	-0.440194	0.074949
C42	C	1.926528	0.059806	0.574949
C43	C	1.426563	-0.440189	-0.074948
C44	C	1.926563	0.059811	0.425052
C45	C	1.428582	-0.360970	-0.074947
C46	C	1.928582	0.139030	0.425053
C47	C	1.429563	-0.321364	0.000006
C48	C	1.929563	0.178636	0.500006
C49	C	1.431759	-0.235464	0.000006
C50	C	1.931759	0.264536	0.500006
C51	C	1.433510	-0.166997	0.000000
C52	C	1.933510	0.333003	0.500000
C53	C	1.002222	0.309017	0.000001
C54	C	1.502222	0.809017	0.500001
C55	C	0.863047	0.288514	0.000000
C56	C	1.363047	0.788514	0.500000
C57	C	1.654428	0.323462	0.000003
C58	C	2.154428	0.823462	0.500003
C59	C	1.789084	0.343302	-0.000001
C60	C	2.289084	0.843302	0.499999
C61	C	1.423378	0.435883	0.000002
C62	C	1.923378	0.935883	0.500002
C63	C	1.425528	0.520196	-0.000000
C64	C	1.925528	1.020196	0.500000
N65	N	1.432604	0.298774	0.195670
N66	N	1.932604	0.798774	0.695670
N67	N	1.432676	0.298761	-0.195662
N68	N	1.932676	0.798761	0.304338
C69	C	1.515302	0.258583	0.761054
C70	C	2.015302	0.758583	1.261054
C71	C	1.515296	0.258587	0.674507
C72	C	2.015296	0.758587	1.174507
C73	C	1.432659	0.298766	0.631245
C74	C	1.932659	0.798766	1.131245
C75	C	1.350029	0.338948	0.674536
C76	C	1.850029	0.838948	1.174536
C77	C	1.350042	0.338948	0.761081
C78	C	1.850042	0.838948	1.261081
C79	C	1.349980	0.338952	0.325507
C80	C	1.849980	0.838952	0.825507
C81	C	1.349972	0.338948	0.238956
C82	C	1.849972	0.838948	0.738956
C83	C	1.515235	0.258592	0.238933
C84	C	2.015235	0.758592	0.738933
C85	C	1.515247	0.258591	0.325479
C86	C	2.015247	0.758591	0.825479
C87	C	1.432622	0.298777	0.368761
C88	C	1.932622	0.798777	0.868761
C89	C	1.432631	0.298773	0.462605
C90	C	1.932631	0.798773	0.962605
C91	C	1.432644	0.298766	0.537403
C92	C	1.932644	0.798766	1.037403
H93	H	1.439594	0.069983	-0.135979
H94	H	1.939594	0.569983	0.364021
H95	H	1.439494	0.069980	0.135985
H96	H	1.939494	0.569980	0.635985
H97	H	0.828788	0.405385	0.000003
H98	H	1.328788	0.905385	0.500003
H99	H	1.036475	0.192159	-0.000018
H100	H	1.536475	0.692159	0.499982
H101	H	1.282761	0.371666	0.796322
H102	H	1.782761	0.871666	1.296322
H103	H	1.582589	0.225861	0.796272
H104	H	2.082589	0.725861	1.296272
H105	H	0.823342	0.226431	-0.000020
H106	H	1.323342	0.726431	0.499980
H107	H	1.425758	-0.472446	-0.135979
H108	H	1.925758	0.027554	0.364021
H109	H	1.582577	0.225872	0.639265
H110	H	2.082577	0.725872	1.139265
H111	H	1.582534	0.225871	0.360699
H112	H	2.082534	0.725871	0.860699
H113	H	1.435922	-0.073730	-0.135979
H114	H	1.935922	0.426270	0.364021
H115	H	1.282748	0.371667	0.639307
H116	H	1.782748	0.871667	1.139307
H117	H	1.041933	0.371096	0.000004
H118	H	1.541933	0.871096	0.500004
H119	H	1.582516	0.225873	0.203683
H120	H	2.082516	0.725873	0.703683
H121	H	1.282676	0.371668	0.203734
H122	H	1.782676	0.871668	0.703734
H123	H	1.282702	0.371671	0.360741
H124	H	1.782702	0.871671	0.860741
H125	H	1.435842	-0.073745	0.135978
H126	H	1.935842	0.426255	0.635978
H127	H	1.429366	-0.328731	0.135987
H128	H	1.929366	0.171269	0.635987
H129	H	1.425689	-0.472445	0.135985
H130	H	1.925689	0.027555	0.635985
H131	H	1.429424	-0.328721	-0.135978
H132	H	1.929424	0.171279	0.364022
