data_functionalizedCrystal
_audit_creation_method	'MofGen! by Chris Wilmer'
_symmetry_space_group_name_H-M	'P1'
_symmetry_Int_Tables_number	1
_symmetry_cell_setting	triclinic
loop_
_symmetry_equiv_pos_as_xyz
  x,y,z
_cell_length_a	19.077105
_cell_length_b	19.077068
_cell_length_c	19.076919
_cell_angle_alpha	94.470751
_cell_angle_beta	90.076224
_cell_angle_gamma	90.115316
loop_
_atom_site_label
_atom_site_type_symbol
_atom_site_fract_x
_atom_site_fract_y
_atom_site_fract_z
Zn1	Zn	1.044048	-0.340450	-0.453500
Zn2	Zn	1.544048	0.159550	0.046500
Zn3	Zn	1.043962	-0.453600	-0.340340
Zn4	Zn	1.543962	0.046400	0.159660
Zn5	Zn	0.931660	-0.331023	-0.330931
Zn6	Zn	1.431660	0.168977	0.169069
Zn7	Zn	0.921801	-0.453176	-0.453077
Zn8	Zn	1.421801	0.046824	0.046923
O9	O	0.985368	-0.394562	-0.394462
O10	O	1.485368	0.105438	0.105538
O11	O	1.142196	-0.359583	-0.442604
O12	O	1.642196	0.140417	0.057396
O13	O	1.033154	-0.433572	-0.240616
O14	O	1.533154	0.066428	0.259384
O15	O	0.950731	-0.233799	-0.343429
O16	O	1.450731	0.266201	0.156571
O17	O	1.142133	-0.442714	-0.359466
O18	O	1.642133	0.057286	0.140534
O19	O	1.033302	-0.240725	-0.433479
O20	O	1.533302	0.259275	0.066521
O21	O	0.950647	-0.343516	-0.233703
O22	O	1.450647	0.156484	0.266297
O23	O	0.832193	-0.343104	-0.343019
O24	O	1.332193	0.156896	0.156981
O25	O	0.933928	-0.441990	-0.551609
O26	O	1.433928	0.058010	-0.051609
O27	O	0.824949	-0.432849	-0.432759
O28	O	1.324949	0.067151	0.067241
O29	O	1.023742	-0.359171	-0.551919
O30	O	1.523742	0.140829	-0.051919
O31	O	1.023594	-0.552019	-0.359056
O32	O	1.523594	-0.052019	0.140944
O33	O	0.933844	-0.551707	-0.441883
O34	O	1.433844	-0.051707	0.058117
C35	C	0.803119	-0.386908	-0.386822
C36	C	1.303119	0.113092	0.113178
C37	C	0.725151	-0.383651	-0.383571
C38	C	1.225151	0.116349	0.116429
C39	C	0.684769	-0.428912	-0.428699
C40	C	1.184769	0.071088	0.071301
C41	C	0.611510	-0.425842	-0.425647
C42	C	1.111510	0.074158	0.074353
C43	C	0.578634	-0.377515	-0.377464
C44	C	1.078634	0.122485	0.122536
C45	C	0.619022	-0.332250	-0.332335
C46	C	1.119022	0.167750	0.167665
C47	C	0.692280	-0.335317	-0.335390
C48	C	1.192280	0.164683	0.164610
C49	C	0.359940	-0.363323	-0.363326
C50	C	0.859940	0.136677	0.136674
C51	C	0.286677	-0.360262	-0.360273
C52	C	0.786677	0.139738	0.139727
C53	C	0.279170	-0.453853	-0.453586
C54	C	0.779170	0.046147	0.046414
C55	C	0.352429	-0.456918	-0.456635
C56	C	0.852429	0.043082	0.043365
C57	C	0.392810	-0.411651	-0.411508
C58	C	0.892810	0.088349	0.088492
N59	N	0.503752	-0.374378	-0.374342
N60	N	1.003752	0.125622	0.125658
N61	N	0.467691	-0.414785	-0.414634
N62	N	0.967691	0.085215	0.085366
C63	C	0.977658	-0.577398	-0.401461
C64	C	1.477658	-0.077398	0.098539
C65	C	0.974423	-0.655619	-0.404482
C66	C	1.474423	-0.155619	0.095518
C67	C	1.019665	-0.692509	-0.362816
C68	C	1.519665	-0.192509	0.137184
C69	C	1.016626	-0.766007	-0.365661
C70	C	1.516626	-0.266007	0.134339
C71	C	0.968342	-0.802612	-0.410169
C72	C	1.468342	-0.302612	0.089831
C73	C	0.923098	-0.765717	-0.451839
C74	C	1.423098	-0.265717	0.048161
C75	C	0.926141	-0.692221	-0.448997
C76	C	1.426141	-0.192221	0.051003
C77	C	0.954231	-1.022406	-0.423292
C78	C	1.454231	-0.522406	0.076708
C79	C	0.951190	-1.095907	-0.426130
C80	C	1.451190	-0.595907	0.073870
C81	C	1.044720	-1.096192	-0.339952
C82	C	1.544720	-0.596192	0.160048
C83	C	1.047755	-1.022695	-0.337111
C84	C	1.547755	-0.522695	0.162889
C85	C	1.002514	-0.985806	-0.378784
C86	C	1.502514	-0.485806	0.121216
N87	N	0.965233	-0.877738	-0.413077
N88	N	1.465233	-0.377738	0.086923
N89	N	1.005627	-0.910681	-0.375880
N90	N	1.505627	-0.410681	0.124120
C91	C	1.168328	-0.402247	-0.402132
C92	C	1.668328	0.097753	0.097868
C93	C	1.246295	-0.405522	-0.405400
C94	C	1.746295	0.094478	0.094600
C95	C	0.977745	-0.401585	-0.578012
C96	C	1.477745	0.098415	-0.078012
C97	C	0.974497	-0.404578	-0.656230
C98	C	1.474497	0.095422	-0.156230
C99	C	0.993126	-0.211015	-0.387451
C100	C	1.493126	0.288985	0.112549
C101	C	0.996432	-0.132798	-0.384464
C102	C	1.496432	0.367202	0.115536
C103	C	1.019730	-0.362866	-0.693140
C104	C	1.519730	0.137134	-0.193140
C105	C	1.016669	-0.365675	-0.766634
C106	C	1.516669	0.134325	-0.266634
C107	C	0.968378	-0.410200	-0.803216
C108	C	1.468378	0.089800	-0.303216
C109	C	0.923140	-0.451913	-0.766301
C110	C	1.423140	0.048087	-0.266301
C111	C	0.926198	-0.449100	-0.692809
C112	C	1.426198	0.050900	-0.192809
C113	C	0.954216	-0.423233	-1.022998
C114	C	1.454216	0.076767	-0.522998
C115	C	0.951163	-0.426044	-1.096496
C116	C	1.451163	0.073956	-0.596496
C117	C	1.044691	-0.339805	-1.096823
C118	C	1.544691	0.160195	-0.596823
C119	C	1.047748	-0.337000	-1.023329
C120	C	1.547748	0.163000	-0.523329
C121	C	1.002507	-0.378710	-0.986421
C122	C	1.502507	0.121290	-0.486421
N123	N	0.965250	-0.413073	-0.878339
N124	N	1.465250	0.086927	-0.378339
N125	N	1.005632	-0.375832	-0.911299
N126	N	1.505632	0.124168	-0.411299
C127	C	0.993003	-0.387518	-0.211626
C128	C	1.493003	0.112482	0.288374
C129	C	0.996396	-0.384333	-0.133406
C130	C	1.496396	0.115667	0.366594
H131	H	0.259912	-0.320900	-0.321040
H132	H	0.759912	0.179100	0.178960
C133	C	0.876371	-0.651642	-0.494833
C134	C	1.376371	-0.151642	0.005167
N135	N	0.838885	-0.621079	-0.529360
N136	N	1.338885	-0.121079	-0.029360
H137	H	1.081554	-1.126235	-0.306026
H138	H	1.581554	-0.626235	0.193974
H139	H	1.059056	-0.326612	-0.663360
H140	H	1.559056	0.173388	-0.163360
C141	C	0.869982	-0.805985	-0.500796
C142	C	1.369982	-0.305985	-0.000796
N143	N	0.829971	-0.836315	-0.537668
N144	N	1.329971	-0.336315	-0.037668
H145	H	1.058980	-0.662710	-0.326570
H146	H	1.558980	-0.162710	0.173430
C147	C	0.898076	-1.136172	-0.475099
C148	C	1.398076	-0.636172	0.024901
N149	N	0.858072	-1.166500	-0.511981
N150	N	1.358072	-0.666500	-0.011981
C151	C	0.904498	-0.981841	-0.469172
C152	C	1.404498	-0.481841	0.030828
N153	N	0.867049	-0.951286	-0.503744
N154	N	1.367049	-0.451286	-0.003744
H155	H	1.053504	-0.331711	-0.796682
H156	H	1.553504	0.168289	-0.296682
H157	H	0.392810	-0.326468	-0.326576
H158	H	0.892810	0.173532	0.173424
C159	C	1.100865	-0.288012	-0.983093
C160	C	1.600865	0.211988	-0.483093
N161	N	1.140872	-0.251113	-0.952787
N162	N	1.640872	0.248887	-0.452787
H163	H	1.081523	-0.305846	-1.126882
H164	H	1.581523	0.194154	-0.626882
C165	C	0.870013	-0.500883	-0.806544
C166	C	1.370013	-0.000883	-0.306544
N167	N	0.829996	-0.537768	-0.836855
N168	N	1.329996	-0.037768	-0.336855
C169	C	0.898035	-0.475024	-1.136736
C170	C	1.398035	0.024976	-0.636736
N171	N	0.858021	-0.511915	-1.167044
N172	N	1.358021	-0.011915	-0.667044
H173	H	0.917388	-0.457207	-0.992957
H174	H	1.417388	0.042793	-0.492957
H175	H	0.889357	-0.483058	-0.662757
H176	H	1.389357	0.016942	-0.162757
C177	C	0.567092	-0.475645	-0.475278
C178	C	1.067092	0.024355	0.024722
N179	N	0.533637	-0.513164	-0.512659
N180	N	1.033637	-0.013164	-0.012659
C181	C	0.388586	-0.510085	-0.509637
C182	C	0.888586	-0.010085	-0.009637
N183	N	0.415820	-0.550134	-0.549556
N184	N	0.915820	-0.050134	-0.049556
C185	C	0.720925	-0.482076	-0.481704
C186	C	1.220925	0.017924	0.018296
N187	N	0.748155	-0.522118	-0.521631
N188	N	1.248155	-0.022118	-0.021631
H189	H	0.592249	-0.292898	-0.293106
H190	H	1.092249	0.207102	0.206894
H191	H	0.246283	-0.490707	-0.490327
H192	H	0.746283	0.009293	0.009673
C193	C	0.736700	-0.285528	-0.285745
C194	C	1.236700	0.214472	0.214255
N195	N	0.770157	-0.248024	-0.248351
N196	N	1.270157	0.251976	0.251649
H197	H	1.053467	-0.796040	-0.331732
H198	H	1.553467	-0.296040	0.168268
H199	H	1.087072	-0.992892	-0.300869
H200	H	1.587072	-0.492892	0.199131
