data_functionalizedCrystal
_audit_creation_method	'MofGen! by Chris Wilmer'
_symmetry_space_group_name_H-M	'P1'
_symmetry_Int_Tables_number	1
_symmetry_cell_setting	triclinic
loop_
_symmetry_equiv_pos_as_xyz
  x,y,z
_cell_length_a	6.817900
_cell_length_b	17.078472
_cell_length_c	19.453114
_cell_angle_alpha	96.644908
_cell_angle_beta	101.709288
_cell_angle_gamma	99.306020
loop_
_atom_site_label
_atom_site_type_symbol
_atom_site_fract_x
_atom_site_fract_y
_atom_site_fract_z
V1	V	-3.985867	-0.110593	-0.218928
O2	O	-3.995588	0.004464	-0.214833
O3	O	-3.917053	-0.218470	-0.217361
O4	O	-3.929033	-0.109265	-0.314442
O5	O	-3.983525	-0.105497	-0.117080
V6	V	-4.473232	-0.096787	-0.206755
O7	O	-4.238695	-0.140878	-0.245631
O8	O	-4.670601	-0.066502	-0.180051
O9	O	-4.318839	0.011090	-0.208322
O10	O	-4.580908	-0.211844	-0.210849
O11	O	-4.592971	-0.101883	-0.308602
O12	O	-4.306859	-0.098115	-0.111241
C13	C	-3.757361	-0.244756	-0.213889
C14	C	-3.782329	-0.332949	-0.213244
C15	C	-3.975078	-0.378437	-0.216443
C16	C	-3.998528	-0.461304	-0.215841
C17	C	-3.829224	-0.498682	-0.212036
C18	C	-3.636460	-0.453189	-0.208840
C19	C	-3.613015	-0.370324	-0.209447
C20	C	-3.879933	-0.746077	-0.209851
C21	C	-3.903393	-0.828948	-0.209243
C22	C	-4.265461	-0.837058	-0.216245
C23	C	-4.241997	-0.754190	-0.216847
C24	C	-4.049238	-0.708705	-0.213654
N25	N	-3.853188	-0.583385	-0.211419
N26	N	-4.025279	-0.624005	-0.214277
C27	C	-3.772641	-0.105453	-0.337725
C28	C	-3.807322	-0.105081	-0.415807
C29	C	-4.004644	-0.108889	-0.456062
C30	C	-4.037230	-0.108539	-0.529429
C31	C	-3.872490	-0.104398	-0.562540
C32	C	-3.675139	-0.100586	-0.522276
C33	C	-3.642555	-0.100927	-0.448909
N34	N	-3.804818	-0.146296	-0.681303
N35	N	-3.835784	-0.145973	-0.750998
C36	C	-3.970651	-0.103367	-0.783589
N37	N	-4.073416	-0.061106	-0.743854
N38	N	-4.042454	-0.061432	-0.674152
C39	C	-3.907801	-0.104027	-0.642094
C40	C	-4.203319	-0.106794	-0.903397
C41	C	-4.235897	-0.106440	-0.976765
C42	C	-3.873802	-0.098494	-0.969611
C43	C	-3.841227	-0.098841	-0.896244
C44	C	-4.005994	-0.102995	-0.863142
C45	C	-4.141873	0.037372	-0.211791
C46	C	-4.096143	0.125565	-0.212441
C47	C	-4.126593	-0.101929	-0.087954
C48	C	-4.071151	-0.102297	-0.009871
H49	H	-4.379870	-0.723765	-0.219950
H50	H	-4.138812	-0.112268	-0.429115
H51	H	-3.680551	-0.095749	-0.863469
C52	C	-3.425481	-0.096748	-0.404629
N53	N	-3.261978	-0.093604	-0.371276
H54	H	-3.722979	-0.709052	-0.207247
C55	C	-4.384559	-0.111353	-0.866981
N56	N	-4.521072	-0.114785	-0.839554
C57	C	-4.477493	-0.887101	-0.219770
N58	N	-4.637206	-0.924794	-0.222432
H59	H	-4.197920	-0.111644	-0.562211
H60	H	-3.765522	-0.859381	-0.206161
H61	H	-3.541007	-0.097211	-0.549240
C62	C	-3.450221	-0.494306	-0.204650
N63	N	-3.309939	-0.525274	-0.201489
H64	H	-3.739663	-0.095115	-0.996569
C65	C	-4.161336	-0.337330	-0.220633
N66	N	-4.301634	-0.306372	-0.223794
C67	C	-4.452973	-0.110619	-1.021044
N68	N	-4.616478	-0.113767	-1.054396
H69	H	-3.456061	-0.333289	-0.206845
H70	H	-4.155483	-0.498337	-0.218446
