data_functionalizedCrystal
_audit_creation_method	'MofGen! by Chris Wilmer'
_symmetry_space_group_name_H-M	'P1'
_symmetry_Int_Tables_number	1
_symmetry_cell_setting	triclinic
loop_
_symmetry_equiv_pos_as_xyz
  x,y,z
_cell_length_a	14.519709
_cell_length_b	14.519731
_cell_length_c	7.088929
_cell_angle_alpha	96.215673
_cell_angle_beta	96.229076
_cell_angle_gamma	96.315501
loop_
_atom_site_label
_atom_site_type_symbol
_atom_site_fract_x
_atom_site_fract_y
_atom_site_fract_z
O1	O	-0.130447	1.214405	-0.158963
O2	O	0.119553	1.464405	0.091037
O3	O	0.369553	1.714405	0.341037
O4	O	0.619553	1.964405	0.591037
O5	O	-0.144663	0.945931	-0.158963
O6	O	0.105337	1.195931	0.091037
O7	O	0.355337	1.445931	0.341037
O8	O	0.605337	1.695931	0.591037
O9	O	-0.003318	1.087285	-0.158981
O10	O	0.246682	1.337285	0.091019
O11	O	0.496682	1.587285	0.341019
O12	O	0.746682	1.837285	0.591019
O13	O	-0.271792	1.073051	-0.158946
O14	O	-0.021792	1.323051	0.091054
O15	O	0.228208	1.573051	0.341054
O16	O	0.478208	1.823051	0.591054
O17	O	0.015614	1.106176	0.158992
O18	O	0.265614	1.356176	0.408992
O19	O	0.515614	1.606176	0.658992
O20	O	0.765614	1.856176	0.908992
O21	O	-0.125731	0.964822	0.159010
O22	O	0.124269	1.214822	0.409010
O23	O	0.374269	1.464822	0.659010
O24	O	0.624269	1.714822	0.909010
O25	O	-0.111515	1.233296	0.159010
O26	O	0.138485	1.483296	0.409010
O27	O	0.388485	1.733296	0.659010
O28	O	0.638485	1.983296	0.909010
Cu29	Cu	-0.116894	1.100784	0.188043
Cu30	Cu	0.133106	1.350784	0.438043
Cu31	Cu	0.383106	1.600784	0.688043
Cu32	Cu	0.633106	1.850784	0.938043
Cu33	Cu	-0.139284	1.078443	-0.187997
Cu34	Cu	0.110716	1.328443	0.062003
Cu35	Cu	0.360716	1.578443	0.312003
Cu36	Cu	0.610716	1.828443	0.562003
O37	O	-0.252860	1.091942	0.159027
O38	O	-0.002860	1.341942	0.409027
O39	O	0.247140	1.591942	0.659027
O40	O	0.497140	1.841942	0.909027
C41	C	-0.134531	0.921017	0.000023
C42	C	0.115469	1.171017	0.250023
C43	C	0.365469	1.421017	0.500023
C44	C	0.615469	1.671017	0.750023
C45	C	-0.132535	0.818637	0.000022
C46	C	0.117465	1.068637	0.250022
C47	C	0.367465	1.318637	0.500022
C48	C	0.617465	1.568637	0.750022
C49	C	-0.130914	0.735492	0.000014
C50	C	0.119086	0.985492	0.250014
C51	C	0.369086	1.235492	0.500014
C52	C	0.619086	1.485492	0.750014
C53	C	-0.128887	0.631183	0.000013
C54	C	0.121113	0.881183	0.250013
C55	C	0.371113	1.131183	0.500013
C56	C	0.621113	1.381183	0.750013
C57	C	-0.127279	0.548044	0.000013
C58	C	0.122721	0.798044	0.250013
C59	C	0.372721	1.048044	0.500013
C60	C	0.622721	1.298044	0.750013
C61	C	-0.125253	0.443728	0.000008
C62	C	0.124747	0.693728	0.250008
C63	C	0.374747	0.943728	0.500008
C64	C	0.624747	1.193728	0.750008
C65	C	-0.296686	1.083160	0.000045
C66	C	-0.046686	1.333160	0.250045
C67	C	0.203314	1.583160	0.500045
C68	C	0.453314	1.833160	0.750045
C69	C	-0.399066	1.085149	0.000058
C70	C	-0.149066	1.335149	0.250058
C71	C	0.100934	1.585149	0.500058
C72	C	0.350934	1.835149	0.750058
C73	C	-0.773967	1.092464	-0.000018
C74	C	-0.523967	1.342464	0.249982
C75	C	-0.273967	1.592464	0.499982
C76	C	-0.023967	1.842464	0.749982
C77	C	-0.669658	1.090433	0.000004
C78	C	-0.419658	1.340433	0.250004
C79	C	-0.169658	1.590433	0.500004
C80	C	0.080342	1.840433	0.750004
C81	C	-0.586520	1.088807	0.000022
C82	C	-0.336520	1.338807	0.250022
C83	C	-0.086520	1.588807	0.500022
C84	C	0.163480	1.838807	0.750022
C85	C	-0.482204	1.086775	0.000040
C86	C	-0.232204	1.336775	0.250040
C87	C	0.017796	1.586775	0.500040
C88	C	0.267796	1.836775	0.750040
C89	C	0.040507	1.096067	-0.000003
C90	C	0.290507	1.346067	0.249997
C91	C	0.540507	1.596067	0.499997
C92	C	0.790507	1.846067	0.749997
C93	C	0.142887	1.094077	-0.000028
C94	C	0.392887	1.344077	0.249972
C95	C	0.642887	1.594077	0.499972
C96	C	0.892887	1.844077	0.749972
C97	C	-0.121648	1.258210	0.000019
C98	C	0.128352	1.508210	0.250019
C99	C	0.378352	1.758210	0.500019
C100	C	0.628352	2.008210	0.750019
C101	C	-0.123644	1.360589	0.000008
C102	C	0.126356	1.610589	0.250008
C103	C	0.376356	1.860589	0.500008
C104	C	0.626356	2.110589	0.750008
N105	N	-0.101146	1.116503	0.452529
N106	N	0.148854	1.366503	0.702529
N107	N	0.398854	1.616503	0.952529
N108	N	0.648854	1.866503	1.202529
N109	N	-0.155025	1.062731	-0.452483
N110	N	0.094975	1.312731	-0.202483
N111	N	0.344975	1.562731	0.047517
N112	N	0.594975	1.812731	0.297517
H113	H	-0.210858	1.007002	0.465878
H114	H	0.039142	1.257002	0.715878
H115	H	0.289142	1.507002	0.965878
H116	H	0.539142	1.757002	1.215878
H117	H	-0.045316	1.172242	0.534178
H118	H	0.204684	1.422242	0.784178
H119	H	0.454684	1.672242	1.034178
H120	H	0.704684	1.922242	1.284178
