data_functionalizedCrystal
_audit_creation_method	'MofGen! by Chris Wilmer'
_symmetry_space_group_name_H-M	'P1'
_symmetry_Int_Tables_number	1
_symmetry_cell_setting	triclinic
loop_
_symmetry_equiv_pos_as_xyz
  x,y,z
_cell_length_a	21.295418
_cell_length_b	12.827892
_cell_length_c	12.827885
_cell_angle_alpha	90.029976
_cell_angle_beta	89.959362
_cell_angle_gamma	89.968793
loop_
_atom_site_label
_atom_site_type_symbol
_atom_site_fract_x
_atom_site_fract_y
_atom_site_fract_z
Zn1	Zn	0.962403	0.415539	-0.591439
Zn2	Zn	1.462403	0.915539	-0.091439
Zn3	Zn	0.962339	0.590317	-0.416700
Zn4	Zn	1.462339	1.090317	0.083300
Zn5	Zn	0.857132	0.415639	-0.416648
Zn6	Zn	1.357132	0.915639	0.083352
Zn7	Zn	0.857123	0.590287	-0.591335
Zn8	Zn	1.357123	1.090287	-0.091335
O9	O	0.909749	0.502946	-0.504031
O10	O	1.409749	1.002946	-0.004031
O11	O	1.050484	0.438695	-0.568325
O12	O	1.550484	0.938695	-0.068325
O13	O	0.948359	0.567200	-0.270457
O14	O	1.448359	1.067200	0.229543
O15	O	0.871126	0.269390	-0.439857
O16	O	1.371126	0.769390	0.060143
O17	O	1.050436	0.567103	-0.439944
O18	O	1.550436	1.067103	0.060056
O19	O	0.948469	0.269316	-0.568275
O20	O	1.448469	0.769316	-0.068275
O21	O	0.871064	0.438865	-0.270419
O22	O	1.371064	0.938865	0.229581
O23	O	0.769041	0.438836	-0.439756
O24	O	1.269041	0.938836	0.060244
O25	O	0.871112	0.567052	-0.737585
O26	O	1.371112	1.067052	-0.237585
O27	O	0.769035	0.567149	-0.568097
O28	O	1.269035	1.067149	-0.068097
O29	O	0.948460	0.438666	-0.737662
O30	O	1.448460	0.938666	-0.237662
O31	O	0.948351	0.736549	-0.439843
O32	O	1.448351	1.236549	0.060157
O33	O	0.871050	0.736527	-0.568147
O34	O	1.371050	1.236527	-0.068147
C35	C	0.746197	0.503001	-0.503910
C36	C	1.246197	1.003001	-0.003910
C37	C	0.676229	0.503049	-0.503884
C38	C	1.176229	1.003049	-0.003884
C39	C	0.909710	0.774456	-0.504012
C40	C	1.409710	1.274456	-0.004012
C41	C	0.909750	0.890609	-0.504039
C42	C	1.409750	1.390609	-0.004039
C43	C	0.909792	0.502844	-0.776601
C44	C	1.409792	1.002844	-0.276601
C45	C	0.909811	0.502801	-0.892754
C46	C	1.409811	1.002801	-0.392754
C47	C	0.643376	0.569951	-0.570611
C48	C	1.143376	1.069951	-0.070611
C49	C	0.577633	0.569925	-0.570658
C50	C	1.077633	1.069925	-0.070658
C51	C	0.544747	0.503009	-0.503959
C52	C	1.044747	1.003009	-0.003959
C53	C	0.577608	0.436095	-0.437227
C54	C	1.077608	0.936095	0.062773
C55	C	0.643349	0.436115	-0.437189
C56	C	1.143349	0.936115	0.062811
N57	N	0.441472	0.494856	-0.412557
N58	N	0.941472	0.994856	0.087443
N59	N	0.379021	0.494843	-0.412596
N60	N	0.879021	0.994843	0.087404
C61	C	0.346672	0.502942	-0.504070
C62	C	0.846672	1.002942	-0.004070
N63	N	0.379134	0.511075	-0.595505
N64	N	0.879134	1.011075	-0.095505
N65	N	0.441591	0.511094	-0.595465
N66	N	0.941591	1.011094	-0.095465
C67	C	0.473461	0.502979	-0.503993
C68	C	0.973461	1.002979	-0.003993
C69	C	0.242533	0.569819	-0.570854
C70	C	0.742533	1.069819	-0.070854
C71	C	0.176789	0.569786	-0.570902
C72	C	0.676789	1.069786	-0.070902
C73	C	0.176765	0.435961	-0.437462
C74	C	0.676765	0.935961	0.062538
C75	C	0.242508	0.435989	-0.437422
C76	C	0.742508	0.935989	0.062578
C77	C	0.275388	0.502923	-0.504117
C78	C	0.775388	1.002923	-0.004117
C79	C	1.073939	0.502891	-0.504152
C80	C	1.573939	1.002891	-0.004152
C81	C	1.143907	0.502868	-0.504204
C82	C	1.643907	1.002868	-0.004204
C83	C	0.909806	0.230375	-0.504072
C84	C	1.409806	0.730375	-0.004072
C85	C	0.909830	0.114222	-0.504090
C86	C	1.409830	0.614222	-0.004090
C87	C	0.948047	0.942370	-0.440621
C88	C	1.448047	1.442370	0.059379
C89	C	0.948090	1.062420	-0.440647
C90	C	1.448090	1.562420	0.059353
C91	C	0.948108	0.439216	-1.064621
C92	C	1.448108	0.939216	-0.564621
C93	C	0.948089	0.439259	-0.944571
C94	C	1.448089	0.939259	-0.444571
C95	C	0.909742	0.502971	-0.232521
C96	C	1.409742	1.002971	0.267479
C97	C	0.909845	0.502720	-0.116368
C98	C	1.409845	1.002720	0.383632
H99	H	0.670142	0.624452	-0.624921
H100	H	1.170142	1.124452	-0.124921
H101	H	0.877077	0.557123	-1.071794
H102	H	1.377077	1.057123	-0.571794
H103	H	0.980844	0.384886	-0.900070
H104	H	1.480844	0.884886	-0.400070
H105	H	0.550828	0.381609	-0.382922
H106	H	1.050828	0.881609	0.117078
H107	H	0.877038	1.069717	-0.558384
H108	H	1.377038	1.569717	-0.058384
H109	H	0.876998	0.935171	-0.558358
H110	H	1.376998	1.435171	-0.058358
H111	H	0.670098	0.381633	-0.382851
H112	H	1.170098	0.881633	0.117149
H113	H	0.980875	1.106933	-0.386350
H114	H	1.480875	1.606933	0.113650
H115	H	0.269305	0.624316	-0.625166
H116	H	0.769305	1.124316	-0.125166
H117	H	0.980881	0.384820	-1.109196
H118	H	1.480881	0.884820	-0.609196
H119	H	0.550879	0.624403	-0.625000
H120	H	1.050879	1.124403	-0.125000
H121	H	0.877047	0.557165	-0.937249
H122	H	1.377047	1.057165	-0.437249
H123	H	0.150041	0.624263	-0.625247
H124	H	0.650041	1.124263	-0.125247
H125	H	0.980805	0.897810	-0.386310
H126	H	1.480805	1.397810	0.113690
H127	H	0.269257	0.381516	-0.383080
H128	H	0.769257	0.881516	0.116920
H129	H	0.149990	0.381472	-0.383159
H130	H	0.649990	0.881472	0.116841
