data_functionalizedCrystal
_audit_creation_method	'MofGen! by Chris Wilmer'
_symmetry_space_group_name_H-M	'P1'
_symmetry_Int_Tables_number	1
_symmetry_cell_setting	triclinic
loop_
_symmetry_equiv_pos_as_xyz
  x,y,z
_cell_length_a	10.686220
_cell_length_b	15.297327
_cell_length_c	10.686551
_cell_angle_alpha	96.042164
_cell_angle_beta	90.308082
_cell_angle_gamma	103.240265
loop_
_atom_site_label
_atom_site_type_symbol
_atom_site_fract_x
_atom_site_fract_y
_atom_site_fract_z
Zn1	Zn	1.923459	-0.219505	-0.619215
Zn2	Zn	1.870979	-0.382469	-0.451647
Zn3	Zn	1.692454	-0.242538	-0.431496
Zn4	Zn	1.677815	-0.380644	-0.676952
O5	O	1.791177	-0.306289	-0.544828
O6	O	2.094014	-0.232247	-0.581257
O7	O	1.831461	-0.374309	-0.276122
O8	O	1.751187	-0.113484	-0.423800
O9	O	2.055457	-0.351976	-0.458146
O10	O	1.920905	-0.096562	-0.561717
O11	O	1.700299	-0.271502	-0.261316
O12	O	1.512996	-0.269733	-0.479786
O13	O	1.726237	-0.348866	-0.842146
O14	O	1.502241	-0.371200	-0.660122
O15	O	1.906710	-0.230478	-0.799726
O16	O	1.817266	-0.508226	-0.514131
O17	O	1.675349	-0.506885	-0.679662
C18	C	1.461590	-0.322768	-0.574033
C19	C	1.320589	-0.329838	-0.586562
C20	C	1.739061	-0.540222	-0.605372
C21	C	1.716885	-0.640291	-0.631305
C22	C	1.950230	-0.925010	-0.359860
C23	C	1.971064	-0.830990	-0.335489
C24	C	1.907522	-0.783311	-0.409441
C25	C	1.823141	-0.829660	-0.507768
C26	C	1.802297	-0.923690	-0.532135
C27	C	1.759589	-0.781991	-0.581716
C28	C	1.675208	-0.828341	-0.680043
C29	C	1.654369	-0.922361	-0.704406
C30	C	1.717911	-0.970040	-0.630454
C31	C	1.780432	-0.687961	-0.557349
C32	C	1.632499	-0.686642	-0.729624
C33	C	1.611665	-0.780661	-0.753995
C34	C	2.122050	-0.289746	-0.515509
C35	C	2.263049	-0.282696	-0.503015
C36	C	1.820695	-0.286900	-0.867008
C37	C	1.833273	-0.278637	-1.004302
C38	C	1.843533	-0.071439	-0.484070
C39	C	1.865844	0.028640	-0.458179
C40	C	1.761861	-0.325535	-0.223877
C41	C	1.749584	-0.333531	-0.086497
H42	H	1.924489	-0.706756	-0.389591
H43	H	2.001949	-0.963839	-0.299652
O44	O	1.572400	-0.967531	-0.799833
C45	C	1.567657	-1.060739	-0.805503
H46	H	1.597695	-1.077235	-0.709847
H47	H	1.635975	-1.079569	-0.879734
C48	C	1.392717	-1.094574	-0.958125
C49	C	1.429600	-1.114836	-0.840636
H50	H	1.307559	-1.127944	-0.979802
H51	H	1.395915	-1.031777	-0.954310
H52	H	1.449660	-1.110266	-1.019970
H53	H	1.372667	-1.099134	-0.778791
H54	H	1.426389	-1.177631	-0.844441
O55	O	1.332849	-0.227969	-0.406284
C56	C	1.323059	-0.138222	-0.413114
H57	H	1.231598	-0.138319	-0.468584
H58	H	1.410172	-0.100445	-0.462307
C59	C	1.430572	-0.090965	-0.211061
C60	C	1.318232	-0.091085	-0.279182
H61	H	1.427600	-0.061887	-0.128447
H62	H	1.437173	-0.151429	-0.206461
H63	H	1.503154	-0.059486	-0.252069
H64	H	1.245654	-0.122574	-0.238182
H65	H	1.311619	-0.030625	-0.283772
O66	O	1.930350	-0.214999	-1.045441
C67	C	2.005611	-0.165604	-0.941454
H68	H	1.993448	-0.207737	-0.858585
H69	H	1.973161	-0.100358	-0.914202
C70	C	2.163027	-0.091123	-1.078399
C71	C	2.148097	-0.142874	-0.976622
H72	H	2.250918	-0.077098	-1.100092
H73	H	2.112320	-0.124398	-1.148458
H74	H	2.135977	-0.036757	-1.055675
H75	H	2.175131	-0.197244	-0.999352
H76	H	2.198811	-0.109608	-0.906567
O77	O	1.652779	-0.397186	-1.045009
C78	C	1.705285	-0.456179	-0.979037
H79	H	1.806762	-0.420757	-0.943101
H80	H	1.708841	-0.519256	-1.044721
C81	C	1.496124	-0.526770	-0.910921
C82	C	1.620755	-0.483261	-0.866776
H83	H	1.443980	-0.543479	-0.841676
H84	H	1.460748	-0.487028	-0.955372
H85	H	1.499105	-0.579328	-0.965658
H86	H	1.617774	-0.430698	-0.812052
H87	H	1.656129	-0.522995	-0.822313
O88	O	1.529855	-0.825634	-0.849656
C89	C	1.573846	-0.793802	-0.964370
H90	H	1.681503	-0.762437	-0.954989
H91	H	1.520845	-0.740726	-0.988506
C92	C	1.415842	-0.911621	-1.081267
C93	C	1.548070	-0.873104	-1.069748
H94	H	1.399938	-0.960537	-1.146272
H95	H	1.386201	-0.933065	-1.003983
H96	H	1.371691	-0.867383	-1.101376
H97	H	1.592218	-0.917340	-1.049625
H98	H	1.577719	-0.851670	-1.147032
O99	O	1.250494	-0.384376	-0.683293
C100	C	1.120588	-0.379549	-0.674679
H101	H	1.114391	-0.313337	-0.617964
H102	H	1.065069	-0.438713	-0.625887
C103	C	1.069665	-0.465123	-0.877451
C104	C	1.062055	-0.383795	-0.807802
H105	H	1.033556	-0.467746	-0.959567
H106	H	1.157184	-0.468377	-0.883254
H107	H	1.023400	-0.514417	-0.836777
H108	H	1.108333	-0.334503	-0.848468
H109	H	0.974542	-0.380532	-0.802010
H110	H	1.849135	-0.650232	-0.477290
H111	H	2.039765	-0.793256	-0.255431
H112	H	1.700956	-1.046599	-0.650294
H113	H	1.580754	-0.647822	-0.789840
