data_functionalizedCrystal
_audit_creation_method	'MofGen! by Chris Wilmer'
_symmetry_space_group_name_H-M	'P1'
_symmetry_Int_Tables_number	1
_symmetry_cell_setting	triclinic
loop_
_symmetry_equiv_pos_as_xyz
  x,y,z
_cell_length_a	9.065218
_cell_length_b	10.723024
_cell_length_c	8.140239
_cell_angle_alpha	89.997644
_cell_angle_beta	89.997198
_cell_angle_gamma	84.741877
loop_
_atom_site_label
_atom_site_type_symbol
_atom_site_fract_x
_atom_site_fract_y
_atom_site_fract_z
O1	O	1.959359	0.182984	-0.136613
O2	O	1.529989	0.197993	-0.136615
O3	O	1.754578	0.008953	-0.136608
O4	O	1.734770	0.372025	-0.136620
O5	O	1.754565	0.008950	0.136619
O6	O	1.529976	0.197991	0.136612
O7	O	1.959346	0.182982	0.136614
Zn8	Zn	1.744659	0.190486	0.179994
Zn9	Zn	1.744676	0.190489	-0.179995
O10	O	1.734757	0.372022	0.136607
C11	C	1.475004	0.196550	-0.000002
C12	C	1.311186	0.192237	-0.000003
C13	C	1.753130	-0.037554	0.000004
C14	C	1.748817	-0.176126	-0.000002
C15	C	1.874486	-0.250598	-0.000004
C16	C	1.870031	-0.393819	-0.000010
C17	C	2.014331	0.184425	-0.000003
C18	C	2.178150	0.188738	-0.000013
C19	C	1.736205	0.418529	-0.000008
C20	C	1.740518	0.557101	-0.000013
N21	N	1.744659	0.190483	0.425676
N22	N	1.744688	0.190482	-0.425677
H23	H	1.985373	-0.208325	0.000007
H24	H	1.632930	-0.378911	-0.000001
C25	C	2.013443	-0.479200	-0.000353
C26	C	2.018870	-0.554697	-0.140946
C27	C	2.150972	-0.633355	-0.141331
H28	H	2.017507	-0.530667	0.094813
H29	H	2.095317	-0.429872	-0.000441
H30	H	1.937019	-0.604021	-0.140843
H31	H	2.014831	-0.503264	-0.236136
H32	H	2.232846	-0.584027	-0.141419
H33	H	2.155024	-0.684813	-0.046158
H34	H	2.154678	-0.684581	-0.236728
C35	C	1.601057	-0.232647	-0.000264
C36	C	1.591025	-0.306651	-0.140818
C37	C	1.454934	-0.358747	-0.141105
H38	H	1.522662	-0.167483	-0.000346
H39	H	1.593954	-0.282975	0.094963
H40	H	1.598113	-0.256326	-0.236021
H41	H	1.669387	-0.371835	-0.140765
H42	H	1.447831	-0.409075	-0.045877
H43	H	1.376550	-0.293575	-0.141182
H44	H	1.448114	-0.408973	-0.236460
