data_functionalizedCrystal
_audit_creation_method	'MofGen! by Chris Wilmer'
_symmetry_space_group_name_H-M	'P1'
_symmetry_Int_Tables_number	1
_symmetry_cell_setting	triclinic
loop_
_symmetry_equiv_pos_as_xyz
  x,y,z
_cell_length_a	12.645331
_cell_length_b	12.594516
_cell_length_c	12.645323
_cell_angle_alpha	90.023946
_cell_angle_beta	90.022676
_cell_angle_gamma	90.015032
loop_
_atom_site_label
_atom_site_type_symbol
_atom_site_fract_x
_atom_site_fract_y
_atom_site_fract_z
Zn1	Zn	1.620743	-0.423763	0.599453
Zn2	Zn	1.620630	-0.601766	0.422196
Zn3	Zn	1.443458	-0.423799	0.422197
Zn4	Zn	1.443445	-0.601696	0.599411
O5	O	1.532069	-0.512756	0.510814
O6	O	1.769076	-0.447389	0.575956
O7	O	1.597086	-0.578202	0.273849
O8	O	1.467028	-0.274848	0.445729
O9	O	1.768992	-0.578167	0.445726
O10	O	1.597279	-0.274822	0.575958
O11	O	1.466918	-0.447451	0.273850
O12	O	1.295109	-0.447383	0.445688
O13	O	1.467006	-0.578049	0.747764
O14	O	1.295099	-0.578084	0.575887
O15	O	1.597266	-0.447322	0.747795
O16	O	1.597073	-0.750702	0.445686
O17	O	1.466896	-0.750651	0.575885
C18	C	1.256639	-0.512731	0.510784
C19	C	1.138809	-0.512745	0.510796
C20	C	0.971216	-0.430143	0.429340
C21	C	1.093776	-0.430357	0.428981
C22	C	1.094292	-0.624870	0.480283
C23	C	0.971694	-0.624419	0.479727
C24	C	0.971659	-0.484290	0.623079
C25	C	1.094265	-0.481785	0.622456
C26	C	1.532000	-0.789297	0.510804
C27	C	1.532067	-0.907602	0.510835
C28	C	1.461256	-0.976866	0.581601
C29	C	1.435425	-1.047727	0.484868
C30	C	1.557995	-1.047540	0.607584
C31	C	1.506184	-0.976905	0.414051
C32	C	1.628799	-0.976712	0.536833
C33	C	1.603004	-1.047541	0.440033
C34	C	1.808574	-0.512782	0.510846
C35	C	1.926404	-0.512793	0.510859
C36	C	1.532147	-0.512674	0.787320
C37	C	1.532180	-0.512639	0.905150
C38	C	1.532168	-0.235135	0.510848
C39	C	1.532210	-0.116830	0.510862
C40	C	1.532052	-0.512761	0.235385
C41	C	1.532224	-0.512496	0.117555
C42	C	1.449981	-0.594491	1.072695
C43	C	1.450196	-0.594897	0.950135
C44	C	1.643881	-0.543081	0.949670
C45	C	1.643430	-0.543595	1.072269
C46	C	1.503736	-0.399885	1.072346
C47	C	1.501244	-0.400561	0.949740
H48	H	1.123874	-0.347212	0.448106
H49	H	1.667577	-0.625916	1.100881
C50	C	1.133578	-0.370324	0.653546
H51	H	1.176963	-0.342764	0.598717
H52	H	1.074668	-0.324725	0.663974
H53	H	1.173383	-0.374724	0.717123
C54	C	1.133342	-0.455814	0.316646
H55	H	1.208468	-0.456022	0.316040
H56	H	1.107915	-0.523634	0.295755
H57	H	1.108063	-0.403474	0.268836
C58	C	1.337748	-0.569012	1.112502
H59	H	1.289303	-0.619403	1.084534
H60	H	1.336520	-0.572110	1.187547
H61	H	1.318171	-0.499804	1.089967
H62	H	1.662947	-1.078377	0.380132
H63	H	1.484217	-0.946006	0.332220
H64	H	1.468604	-0.677453	1.103515
H65	H	1.469003	-0.678380	0.920822
H66	H	0.943049	-0.648590	0.397688
H67	H	1.124924	-0.537592	0.686442
C68	C	1.587589	-1.089403	0.718105
H69	H	1.650183	-1.130833	0.713376
H70	H	1.599268	-1.031193	0.764458
H71	H	1.531581	-1.132011	0.744662
H72	H	1.423702	-0.372136	1.103250
H73	H	0.942051	-0.688084	0.536513
C74	C	1.380223	-0.934932	0.662324
H75	H	1.311575	-0.959252	0.643684
H76	H	1.397916	-0.960155	0.730868
H77	H	1.381173	-0.859508	0.662200
C78	C	1.133704	-0.710289	0.557963
H79	H	1.177769	-0.678254	0.609816
H80	H	1.074861	-0.742811	0.591579
H81	H	1.172821	-0.762494	0.520416
C82	C	1.325003	-1.089872	0.455169
H83	H	1.274720	-1.065681	0.505507
H84	H	1.306146	-1.064648	0.386936
H85	H	1.326016	-1.165294	0.454767
C86	C	0.929925	-0.375768	0.660575
H87	H	0.958181	-0.360082	0.728432
H88	H	0.950903	-0.322354	0.611888
H89	H	0.854935	-0.377924	0.664548
H90	H	1.668442	-0.624540	0.918983
H91	H	1.710519	-0.945498	0.558846
C92	C	0.931382	-0.317487	0.454869
H93	H	0.887061	-0.319844	0.515470
H94	H	0.990036	-0.272361	0.468486
H95	H	0.892440	-0.290761	0.396397
C96	C	0.929552	-0.455307	0.317657
H97	H	0.884968	-0.515965	0.320493
H98	H	0.890530	-0.396362	0.291730
H99	H	0.987464	-0.469143	0.271850
H100	H	1.367366	-0.575846	0.920033
C101	C	1.729030	-0.466441	1.112367
H102	H	1.763932	-0.434930	1.053727
H103	H	1.697019	-0.412587	1.154096
H104	H	1.778968	-0.504226	1.154000
H105	H	1.124948	-0.649457	0.399125
C106	C	1.390205	-0.369533	0.910420
H107	H	1.362807	-0.424642	0.867005
H108	H	1.344777	-0.359111	0.969325
H109	H	1.394535	-0.305708	0.870643
C110	C	0.932511	-0.565605	0.705135
H111	H	0.888799	-0.616679	0.671228
H112	H	0.991475	-0.600222	0.736395
H113	H	0.893084	-0.530076	0.758394
H114	H	1.706802	-0.485249	0.920534
C115	C	1.576257	-0.313666	0.908384
H116	H	1.627659	-0.344742	0.863187
H117	H	1.536773	-0.262319	0.870079
H118	H	1.610642	-0.280341	0.966383
C119	C	1.584642	-0.317353	1.111553
H120	H	1.635538	-0.351300	1.155262
H121	H	1.619097	-0.285927	1.052615
H122	H	1.549199	-0.263927	1.150999
