data_functionalizedCrystal
_audit_creation_method	'MofGen! by Chris Wilmer'
_symmetry_space_group_name_H-M	'P1'
_symmetry_Int_Tables_number	1
_symmetry_cell_setting	triclinic
loop_
_symmetry_equiv_pos_as_xyz
  x,y,z
_cell_length_a	19.805407
_cell_length_b	19.077432
_cell_length_c	19.805399
_cell_angle_alpha	92.324821
_cell_angle_beta	90.019573
_cell_angle_gamma	87.726944
loop_
_atom_site_label
_atom_site_type_symbol
_atom_site_fract_x
_atom_site_fract_y
_atom_site_fract_z
Zn1	Zn	1.045561	-0.280213	0.371904
Zn2	Zn	1.545561	0.219787	0.871904
Zn3	Zn	1.050023	-0.397910	0.254173
Zn4	Zn	1.550023	0.102090	0.754173
Zn5	Zn	0.932377	-0.280232	0.258728
Zn6	Zn	1.432377	0.219768	0.758728
Zn7	Zn	0.936885	-0.397873	0.367321
Zn8	Zn	1.436885	0.102127	0.867321
O9	O	0.991212	-0.339057	0.313032
O10	O	1.491212	0.160943	0.813032
O11	O	1.140870	-0.295833	0.356299
O12	O	1.640870	0.204167	0.856299
O13	O	1.034398	-0.382324	0.160060
O14	O	1.534398	0.117676	0.660060
O15	O	0.943637	-0.181740	0.277565
O16	O	1.443637	0.318260	0.777565
O17	O	1.144148	-0.382305	0.269802
O18	O	1.644148	0.117695	0.769802
O19	O	1.026793	-0.181726	0.360715
O20	O	1.526793	0.318274	0.860715
O21	O	0.947963	-0.295866	0.163406
O22	O	1.447963	0.204134	0.663406
O23	O	0.838258	-0.295830	0.273121
O24	O	1.338258	0.204170	0.773121
O25	O	0.951321	-0.382241	0.462647
O26	O	1.451321	0.117759	0.962647
O27	O	0.841570	-0.382260	0.352904
O28	O	1.341570	0.117740	0.852904
O29	O	1.031165	-0.295797	0.466014
O30	O	1.531165	0.204203	0.966014
O31	O	1.038770	-0.496394	0.265358
O32	O	1.538770	0.003606	0.765358
O33	O	0.955647	-0.496367	0.348488
O34	O	1.455647	0.003633	0.848488
C35	C	0.815355	-0.339043	0.313010
C36	C	1.315355	0.160957	0.813010
C37	C	0.740124	-0.339055	0.313016
C38	C	1.240124	0.160945	0.813016
C39	C	0.998200	-0.521918	0.305946
C40	C	1.498200	-0.021918	0.805946
C41	C	1.001252	-0.600146	0.302938
C42	C	1.501252	-0.100146	0.802938
C43	C	0.706525	-0.384126	0.354487
C44	C	1.206525	0.115874	0.854487
C45	C	0.635836	-0.384128	0.354496
C46	C	1.135836	0.115872	0.854496
C47	C	0.598748	-0.339060	0.313031
C48	C	1.098748	0.160940	0.813031
C49	C	0.632352	-0.293983	0.271559
C50	C	1.132352	0.206017	0.771559
C51	C	0.703039	-0.293979	0.271554
C52	C	1.203039	0.206021	0.771554
C53	C	0.347279	-0.293999	0.271581
C54	C	0.847279	0.206001	0.771581
C55	C	0.276588	-0.294008	0.271588
C56	C	0.776588	0.205992	0.771588
C57	C	0.280077	-0.384147	0.354524
C58	C	0.780077	0.115853	0.854524
C59	C	0.350763	-0.384143	0.354518
C60	C	0.850763	0.115857	0.854518
C61	C	0.384361	-0.339064	0.313049
C62	C	0.884361	0.160936	0.813049
C63	C	0.461009	-0.339062	0.313040
C64	C	0.961009	0.160938	0.813040
C65	C	0.522101	-0.339065	0.313036
C66	C	1.022101	0.160935	0.813036
C67	C	0.959379	-0.636910	0.344769
C68	C	1.459379	-0.136910	0.844769
C69	C	0.962249	-0.710414	0.341940
C70	C	1.462249	-0.210414	0.841940
C71	C	1.006996	-0.747153	0.297281
C72	C	1.506996	-0.247153	0.797281
C73	C	1.048871	-0.710385	0.255445
C74	C	1.548871	-0.210385	0.755445
C75	C	1.045997	-0.636882	0.258272
C76	C	1.545997	-0.136882	0.758272
C77	C	1.020233	-0.966982	0.284187
C78	C	1.520233	-0.466982	0.784187
C79	C	1.023106	-1.040490	0.281365
C80	C	1.523106	-0.540490	0.781365
C81	C	0.936482	-1.040514	0.367860
C82	C	1.436482	-0.540514	0.867860
C83	C	0.933615	-0.967010	0.370685
C84	C	1.433615	-0.467010	0.870685
C85	C	0.975487	-0.930248	0.328846
C86	C	1.475487	-0.430248	0.828846
N87	N	1.009933	-0.822286	0.294389
N88	N	1.509933	-0.322286	0.794389
N89	N	0.972547	-0.855116	0.331735
N90	N	1.472547	-0.355116	0.831735
C91	C	1.167755	-0.339071	0.313053
C92	C	1.667755	0.160929	0.813053
C93	C	1.242987	-0.339077	0.313063
C94	C	1.742987	0.160923	0.813063
C95	C	0.991248	-0.339013	0.489576
C96	C	1.491248	0.160987	0.989576
C97	C	0.991263	-0.338994	0.564809
C98	C	1.491263	0.161006	1.064809
C99	C	0.984214	-0.155482	0.320160
C100	C	1.484214	0.344518	0.820160
C101	C	0.981233	-0.077253	0.323197
C102	C	1.481233	0.422747	0.823197
C103	C	0.991213	-0.339050	0.137176
C104	C	1.491213	0.160950	0.637176
C105	C	0.991321	-0.338871	0.061951
C106	C	1.491321	0.161129	0.561951
C107	C	1.032839	-0.293980	0.601907
C108	C	1.532839	0.206020	1.101907
C109	C	1.032845	-0.293960	0.672597
C110	C	1.532845	0.206040	1.172597
C111	C	0.991279	-0.338957	0.706186
C112	C	1.491279	0.161043	1.206186
C113	C	0.949699	-0.383973	0.669082
C114	C	1.449699	0.116027	1.169082
C115	C	0.949689	-0.383989	0.598395
C116	C	1.449689	0.116011	1.098395
C117	C	0.949734	-0.383907	0.954158
C118	C	1.449734	0.116093	1.454158
C119	C	0.949748	-0.383889	1.024851
C120	C	1.449748	0.116111	1.524851
C121	C	1.032890	-0.293878	1.028360
C122	C	1.532890	0.206122	1.528360
C123	C	1.032881	-0.293894	0.957673
C124	C	1.532881	0.206106	1.457673
C125	C	0.991298	-0.338907	0.920575
C126	C	1.491298	0.161093	1.420575
C127	C	0.991291	-0.338927	0.843926
C128	C	1.491291	0.161073	1.343926
C129	C	0.991289	-0.338940	0.782834
C130	C	1.491289	0.161060	1.282834
H131	H	0.608483	-0.420830	0.388265
H132	H	1.108483	0.079170	0.888265
H133	H	0.736717	-0.420828	0.388250
H134	H	1.236717	0.079172	0.888250
H135	H	0.902391	-1.070453	0.401922
H136	H	1.402391	-0.570453	0.901922
N137	N	0.592352	-0.245380	0.226832
N138	N	1.092352	0.254620	0.726832
H139	H	0.624365	-0.216825	0.200560
H140	H	1.124365	0.283175	0.700560
H141	H	0.561788	-0.212848	0.255695
H142	H	1.061788	0.287152	0.755695
H143	H	1.059548	-1.070401	0.244999
H144	H	1.559548	-0.570401	0.744999
N145	N	1.097139	-0.750010	0.207282
N146	N	1.597139	-0.250010	0.707282
H147	H	1.123229	-0.715565	0.181210
H148	H	1.623229	-0.215565	0.681210
H149	H	1.070803	-0.780557	0.174758
H150	H	1.570803	-0.280557	0.674758
N151	N	1.077680	-0.245452	0.565685
N152	N	1.577680	0.254548	1.065685
H153	H	1.110134	-0.274069	0.535257
H154	H	1.610134	0.225931	1.035257
H155	H	1.103972	-0.216946	0.599962
H156	H	1.603972	0.283054	1.099962
H157	H	0.922944	-0.607001	0.381138
H158	H	1.422944	-0.107001	0.881138
H159	H	0.380957	-0.420844	0.388281
H160	H	0.880957	0.079156	0.888281
H161	H	0.252713	-0.420850	0.388292
H162	H	0.752713	0.079150	0.888292
H163	H	0.730394	-0.257273	0.237788
H164	H	1.230394	0.242727	0.737788
H165	H	1.066746	-0.257224	1.058574
H166	H	1.566746	0.242776	1.558574
N167	N	0.904914	-0.432423	1.061082
N168	N	1.404914	0.067577	1.561082
H169	H	0.878568	-0.460941	1.026856
H170	H	1.378568	0.039059	1.526856
H171	H	0.872508	-0.403761	1.091520
H172	H	1.372508	0.096239	1.591520
H173	H	0.897178	-0.937098	0.407050
H174	H	1.397178	-0.437098	0.907050
H175	H	1.054329	-0.937056	0.250122
H176	H	1.554329	-0.437056	0.750122
H177	H	1.066702	-0.257307	0.702799
H178	H	1.566702	0.242693	1.202799
N179	N	0.904846	-0.432544	0.558386
N180	N	1.404846	0.067456	1.058386
H181	H	0.933589	-0.465170	0.527794
H182	H	1.433589	0.034830	1.027794
H183	H	0.872391	-0.403896	0.530205
H184	H	1.372391	0.096104	1.030205
N185	N	0.917080	-0.750067	0.387052
N186	N	1.417080	-0.250067	0.887052
H187	H	0.888298	-0.715639	0.415773
H188	H	1.388298	-0.215639	0.915773
H189	H	0.945799	-0.780521	0.417230
H190	H	1.445799	-0.280521	0.917230
H191	H	0.246392	-0.257305	0.237823
H192	H	0.746392	0.242695	0.737823
N193	N	0.904864	-0.432446	0.914170
N194	N	1.404864	0.067554	1.414170
H195	H	0.917282	-0.482734	0.924519
H196	H	1.417282	0.017266	1.424519
H197	H	0.911162	-0.425576	0.864303
H198	H	1.411162	0.074424	1.364303
N199	N	0.383511	-0.245370	0.226867
N200	N	0.883511	0.254630	0.726867
H201	H	0.349288	-0.216820	0.200603
H202	H	0.849288	0.283180	0.700603
H203	H	0.413928	-0.273959	0.194384
H204	H	0.913928	0.226041	0.694384
N205	N	1.091158	-0.597227	0.213152
N206	N	1.591158	-0.097227	0.713152
H207	H	1.119943	-0.631653	0.184433
H208	H	1.619943	-0.131653	0.684433
H209	H	1.121270	-0.566680	0.241907
H210	H	1.621270	-0.066680	0.741907
H211	H	0.915852	-0.420608	0.696436
H212	H	1.415852	0.079392	1.196436
H213	H	1.066731	-0.257255	0.930328
H214	H	1.566731	0.242745	1.430328
