data_functionalizedCrystal
_audit_creation_method	'MofGen! by Chris Wilmer'
_symmetry_space_group_name_H-M	'P1'
_symmetry_Int_Tables_number	1
_symmetry_cell_setting	triclinic
loop_
_symmetry_equiv_pos_as_xyz
  x,y,z
_cell_length_a	16.120490
_cell_length_b	16.120256
_cell_length_c	16.120484
_cell_angle_alpha	95.616173
_cell_angle_beta	90.164100
_cell_angle_gamma	90.129807
loop_
_atom_site_label
_atom_site_type_symbol
_atom_site_fract_x
_atom_site_fract_y
_atom_site_fract_z
Zn1	Zn	1.224989	-0.554790	-0.422348
Zn2	Zn	1.474989	-0.304790	-0.172348
Zn3	Zn	1.724989	-0.054790	0.077652
Zn4	Zn	1.974989	0.195210	0.327652
Zn5	Zn	1.224885	-0.422094	-0.555028
Zn6	Zn	1.474885	-0.172094	-0.305028
Zn7	Zn	1.724885	0.077906	-0.055028
Zn8	Zn	1.974885	0.327906	0.194972
Zn9	Zn	1.093728	-0.408035	-0.408252
Zn10	Zn	1.343728	-0.158035	-0.158252
Zn11	Zn	1.593728	0.091965	0.091748
Zn12	Zn	1.843728	0.341965	0.341748
Zn13	Zn	1.078881	-0.554030	-0.554256
Zn14	Zn	1.328881	-0.304030	-0.304256
Zn15	Zn	1.578881	-0.054030	-0.054256
Zn16	Zn	1.828881	0.195970	0.195744
O17	O	1.155621	-0.484737	-0.484971
O18	O	1.405621	-0.234737	-0.234971
O19	O	1.655621	0.015263	0.015029
O20	O	1.905621	0.265263	0.265029
O21	O	1.341011	-0.543389	-0.446170
O22	O	1.591011	-0.293389	-0.196170
O23	O	1.841011	-0.043389	0.053830
O24	O	2.091011	0.206611	0.303830
O25	O	1.213656	-0.303596	-0.529981
O26	O	1.463656	-0.053596	-0.279981
O27	O	1.713656	0.196404	-0.029981
O28	O	1.963656	0.446404	0.220019
O29	O	1.117397	-0.421936	-0.293491
O30	O	1.367397	-0.171936	-0.043491
O31	O	1.617397	0.078064	0.206509
O32	O	1.867397	0.328064	0.456509
O33	O	1.340935	-0.445898	-0.543649
O34	O	1.590935	-0.195898	-0.293649
O35	O	1.840935	0.054102	-0.043649
O36	O	2.090935	0.304102	0.206351
O37	O	1.213834	-0.529756	-0.303847
O38	O	1.463834	-0.279756	-0.053847
O39	O	1.713834	-0.029756	0.196153
O40	O	1.963834	0.220244	0.446153
O41	O	1.117296	-0.293266	-0.422146
O42	O	1.367296	-0.043266	-0.172146
O43	O	1.617296	0.206734	0.077854
O44	O	1.867296	0.456734	0.327854
O45	O	0.975723	-0.421199	-0.421398
O46	O	1.225723	-0.171199	-0.171398
O47	O	1.475723	0.078801	0.078602
O48	O	1.725723	0.328801	0.328602
O49	O	1.092093	-0.670765	-0.542335
O50	O	1.342093	-0.420765	-0.292335
O51	O	1.592093	-0.170765	-0.042335
O52	O	1.842093	0.079235	0.207665
O53	O	0.964815	-0.528462	-0.528666
O54	O	1.214815	-0.278462	-0.278666
O55	O	1.464815	-0.028462	-0.028666
O56	O	1.714815	0.221538	0.221334
O57	O	1.199438	-0.671323	-0.445422
O58	O	1.449438	-0.421323	-0.195422
O59	O	1.699438	-0.171323	0.054578
O60	O	1.949438	0.078677	0.304578
O61	O	1.199260	-0.445162	-0.671556
O62	O	1.449260	-0.195162	-0.421556
O63	O	1.699260	0.054838	-0.171556
O64	O	1.949260	0.304838	0.078444
O65	O	1.091992	-0.542095	-0.670989
O66	O	1.341992	-0.292095	-0.420989
O67	O	1.591992	-0.042095	-0.170989
O68	O	1.841992	0.207905	0.079011
C69	C	0.940182	-0.473223	-0.473419
C70	C	1.190182	-0.223223	-0.223419
C71	C	1.440182	0.026777	0.026581
C72	C	1.690182	0.276777	0.276581
C73	C	0.848014	-0.468318	-0.468499
C74	C	1.098014	-0.218318	-0.218499
C75	C	1.348014	0.031682	0.031501
C76	C	1.598014	0.281682	0.281501
C77	C	0.632819	-0.510182	-0.510489
C78	C	0.882819	-0.260182	-0.260489
C79	C	1.132819	-0.010182	-0.010489
C80	C	1.382819	0.239818	0.239511
C81	C	0.679266	-0.459362	-0.459522
C82	C	0.929266	-0.209362	-0.209522
C83	C	1.179266	0.040638	0.040478
C84	C	1.429266	0.290638	0.290478
C85	C	0.773166	-0.464347	-0.464518
C86	C	1.023166	-0.214347	-0.214518
C87	C	1.273166	0.035653	0.035482
C88	C	1.523166	0.285653	0.285482
C89	C	0.538911	-0.505198	-0.505494
C90	C	0.788911	-0.255198	-0.255494
C91	C	1.038911	-0.005198	-0.005494
C92	C	1.288911	0.244802	0.244506
C93	C	1.144121	-0.702131	-0.495365
C94	C	1.394121	-0.452131	-0.245365
C95	C	1.644121	-0.202131	0.004635
C96	C	1.894121	0.047869	0.254635
C97	C	1.139220	-0.794771	-0.499794
C98	C	1.389220	-0.544771	-0.249794
C99	C	1.639220	-0.294771	0.000206
C100	C	1.889220	-0.044771	0.250206
C101	C	1.181177	-1.005935	-0.461852
C102	C	1.431177	-0.755935	-0.211852
C103	C	1.681177	-0.505935	0.038148
C104	C	1.931177	-0.255935	0.288148
C105	C	1.130247	-0.964378	-0.507844
C106	C	1.380247	-0.714378	-0.257844
C107	C	1.630247	-0.464378	-0.007844
C108	C	1.880247	-0.214378	0.242156
C109	C	1.135241	-0.870000	-0.503364
C110	C	1.385241	-0.620000	-0.253364
C111	C	1.635241	-0.370000	-0.003364
C112	C	1.885241	-0.120000	0.246636
C113	C	1.176183	-1.100321	-0.466331
C114	C	1.426183	-0.850321	-0.216331
C115	C	1.676183	-0.600321	0.033669
C116	C	1.926183	-0.350321	0.283669
C117	C	1.371901	-0.496297	-0.496568
C118	C	1.621901	-0.246297	-0.246568
C119	C	1.871901	0.003703	0.003432
C120	C	2.121901	0.253703	0.253432
C121	C	1.464067	-0.501223	-0.501510
C122	C	1.714067	-0.251223	-0.251510
C123	C	1.964067	-0.001223	-0.001510
C124	C	2.214067	0.248777	0.248490
C125	C	1.144025	-0.495091	-0.701515
C126	C	1.394025	-0.245091	-0.451515
C127	C	1.644025	0.004909	-0.201515
C128	C	1.894025	0.254909	0.048485
C129	C	1.139139	-0.499552	-0.794160
C130	C	1.389139	-0.249552	-0.544160
C131	C	1.639139	0.000448	-0.294160
C132	C	1.889139	0.250448	-0.044160
C133	C	1.167127	-0.268189	-0.474560
C134	C	1.417127	-0.018189	-0.224560
C135	C	1.667127	0.231811	0.025440
C136	C	1.917127	0.481811	0.275440
C137	C	1.172201	-0.175546	-0.469905
C138	C	1.422201	0.074454	-0.219905
C139	C	1.672201	0.324454	0.030095
C140	C	1.922201	0.574454	0.280095
C141	C	1.130221	-0.507715	-0.963782
C142	C	1.380221	-0.257715	-0.713782
C143	C	1.630221	-0.007715	-0.463782
C144	C	1.880221	0.242285	-0.213782
C145	C	1.181168	-0.461781	-1.005327
C146	C	1.431168	-0.211781	-0.755327
C147	C	1.681168	0.038219	-0.505327
C148	C	1.931168	0.288219	-0.255327
C149	C	1.176206	-0.466323	-1.099711
C150	C	1.426206	-0.216323	-0.849711
C151	C	1.676206	0.033677	-0.599711
C152	C	1.926206	0.283677	-0.349711
C153	C	1.135182	-0.503174	-0.869390
C154	C	1.385182	-0.253174	-0.619390
C155	C	1.635182	-0.003174	-0.369390
C156	C	1.885182	0.246826	-0.119390
C157	C	1.167283	-0.474362	-0.267583
C158	C	1.417283	-0.224362	-0.017583
C159	C	1.667283	0.025638	0.232417
C160	C	1.917283	0.275638	0.482417
C161	C	1.172253	-0.469941	-0.174945
C162	C	1.422253	-0.219941	0.075055
C163	C	1.672253	0.030059	0.325055
C164	C	1.922253	0.280059	0.575055
H165	H	0.663573	-0.557429	-0.557873
H166	H	0.913573	-0.307429	-0.307873
H167	H	1.163573	-0.057429	-0.057873
H168	H	1.413573	0.192571	0.192127
H169	H	0.648510	-0.412110	-0.412135
H170	H	0.898510	-0.162110	-0.162135
H171	H	1.148510	0.087890	0.087865
H172	H	1.398510	0.337890	0.337865
O173	O	1.243877	-0.405170	-0.958549
O174	O	1.493877	-0.155170	-0.708549
O175	O	1.743877	0.094830	-0.458549
O176	O	1.993877	0.344830	-0.208549
H177	H	1.280437	-0.372224	-1.003546
H178	H	1.530437	-0.122224	-0.753546
H179	H	1.780437	0.127776	-0.503546
H180	H	2.030437	0.377776	-0.253546
O181	O	1.067498	-0.564307	-1.010551
O182	O	1.317498	-0.314307	-0.760551
O183	O	1.567498	-0.064307	-0.510551
O184	O	1.817498	0.185693	-0.260551
H185	H	1.073388	-0.559022	-1.078417
H186	H	1.323388	-0.309022	-0.828417
H187	H	1.573388	-0.059022	-0.578417
H188	H	1.823388	0.190978	-0.328417
O189	O	1.067521	-1.011127	-0.564466
O190	O	1.317521	-0.761127	-0.314466
O191	O	1.567521	-0.511127	-0.064466
O192	O	1.817521	-0.261127	0.185534
H193	H	1.100305	-1.054805	-0.610709
H194	H	1.350305	-0.804805	-0.360709
H195	H	1.600305	-0.554805	-0.110709
H196	H	1.850305	-0.304805	0.139291
O197	O	1.243911	-0.959186	-0.405250
O198	O	1.493911	-0.709186	-0.155250
O199	O	1.743911	-0.459186	0.094750
O200	O	1.993911	-0.209186	0.344750
H201	H	1.238043	-0.891321	-0.410583
H202	H	1.488043	-0.641321	-0.160583
H203	H	1.738043	-0.391321	0.089417
H204	H	1.988043	-0.141321	0.339417
