data_functionalizedCrystal
_audit_creation_method	'MofGen! by Chris Wilmer'
_symmetry_space_group_name_H-M	'P1'
_symmetry_Int_Tables_number	1
_symmetry_cell_setting	triclinic
loop_
_symmetry_equiv_pos_as_xyz
  x,y,z
_cell_length_a	25.639239
_cell_length_b	25.639234
_cell_length_c	16.120530
_cell_angle_alpha	92.917284
_cell_angle_beta	92.865376
_cell_angle_gamma	89.974540
loop_
_atom_site_label
_atom_site_type_symbol
_atom_site_fract_x
_atom_site_fract_y
_atom_site_fract_z
Zn1	Zn	-0.248769	-0.336094	-1.274445
Zn2	Zn	0.251231	0.163906	-0.774445
Zn3	Zn	-0.336193	-0.248653	-1.274304
Zn4	Zn	0.163807	0.251347	-0.774304
Zn5	Zn	-0.244338	-0.244244	-1.135028
Zn6	Zn	0.255662	0.255756	-0.635028
Zn7	Zn	-0.331733	-0.331631	-1.134957
Zn8	Zn	0.168267	0.168369	-0.634957
O9	O	-0.290258	-0.290156	-1.204684
O10	O	0.209742	0.209844	-0.704684
O11	O	-0.264087	-0.328208	-1.391091
O12	O	0.235913	0.171792	-0.891091
O13	O	-0.324020	-0.174902	-1.255800
O14	O	0.175980	0.325098	-0.755800
O15	O	-0.171763	-0.256451	-1.153611
O16	O	0.328237	0.243549	-0.653611
O17	O	-0.328317	-0.263966	-1.390987
O18	O	0.171683	0.236034	-0.890987
O19	O	-0.175019	-0.323933	-1.256040
O20	O	0.324981	0.176067	-0.756040
O21	O	-0.256534	-0.171663	-1.153474
O22	O	0.243466	0.328337	-0.653474
O23	O	-0.252210	-0.252123	-1.018354
O24	O	0.247790	0.247877	-0.518354
O25	O	-0.320716	-0.405389	-1.153489
O26	O	0.179284	0.094611	-0.653489
O27	O	-0.316419	-0.316326	-1.018302
O28	O	0.183581	0.183674	-0.518302
O29	O	-0.259763	-0.408668	-1.255971
O30	O	0.240237	0.091332	-0.755971
O31	O	-0.408764	-0.259638	-1.255731
O32	O	0.091236	0.240362	-0.755731
O33	O	-0.405487	-0.320601	-1.153352
O34	O	0.094513	0.179399	-0.653352
C35	C	-0.283350	-0.283262	-0.988078
C36	C	0.216650	0.216738	-0.488078
C37	C	-0.280407	-0.280325	-0.895414
C38	C	0.219593	0.219675	-0.395414
C39	C	-0.426096	-0.290126	-1.204541
C40	C	0.073904	0.209874	-0.704541
C41	C	-0.484211	-0.290133	-1.204556
C42	C	0.015789	0.209867	-0.704556
C43	C	-0.733714	-0.321888	-1.151365
C44	C	-0.233714	0.178112	-0.651365
C45	C	-0.679109	-0.321881	-1.151334
C46	C	-0.179109	0.178119	-0.651334
O47	O	-0.649431	-0.348859	-1.105972
O48	O	-0.149431	0.151141	-0.605972
N49	N	-0.653488	-0.290164	-1.204661
N50	N	-0.153488	0.209836	-0.704661
C51	C	-0.682475	-0.258455	-1.258029
C52	C	-0.182475	0.241545	-0.758029
O53	O	-0.655669	-0.231477	-1.303385
O54	O	-0.155669	0.268523	-0.803385
C55	C	-0.737080	-0.258465	-1.258063
C56	C	-0.237080	0.241535	-0.758063
C57	C	-0.762698	-0.290181	-1.204727
C58	C	-0.262698	0.209819	-0.704727
C59	C	-0.759332	-0.353602	-1.098034
C60	C	-0.259332	0.146398	-0.598034
C61	C	-0.813934	-0.353608	-1.098064
C62	C	-0.313934	0.146392	-0.598064
C63	C	-0.842917	-0.321901	-1.151425
C64	C	-0.342917	0.178099	-0.651425
C65	C	-0.817299	-0.290187	-1.204757
C66	C	-0.317299	0.209813	-0.704757
C67	C	-0.766066	-0.226760	-1.311434
C68	C	-0.266066	0.273240	-0.811434
C69	C	-0.820674	-0.226773	-1.311465
C70	C	-0.320674	0.273227	-0.811465
C71	C	-0.846292	-0.258489	-1.258128
C72	C	-0.346292	0.241511	-0.758128
C73	C	-0.900884	-0.258486	-1.258148
C74	C	-0.400884	0.241514	-0.758148
N75	N	-0.926505	-0.290204	-1.204821
N76	N	-0.426505	0.209796	-0.704821
C77	C	-0.897522	-0.321911	-1.151460
C78	C	-0.397522	0.178089	-0.651460
C79	C	-0.567802	-0.258437	-1.257953
C80	C	-0.067802	0.241563	-0.757953
C81	C	-0.513199	-0.258423	-1.257915
C82	C	-0.013199	0.241577	-0.757915
C83	C	-0.509836	-0.321850	-1.151222
C84	C	-0.009836	0.178150	-0.651222
C85	C	-0.564441	-0.321861	-1.151256
C86	C	-0.064441	0.178139	-0.651256
C87	C	-0.593423	-0.290154	-1.204626
C88	C	-0.093423	0.209846	-0.704626
C89	C	-1.012189	-0.321921	-1.151526
C90	C	-0.512189	0.178079	-0.651526
C91	C	-1.066795	-0.321923	-1.151558
C92	C	-0.566795	0.178077	-0.651558
C93	C	-1.070153	-0.258498	-1.258255
C94	C	-0.570153	0.241502	-0.758255
C95	C	-1.015551	-0.258494	-1.258220
C96	C	-0.515551	0.241506	-0.758220
C97	C	-0.986571	-0.290210	-1.204853
C98	C	-0.486571	0.209790	-0.704853
O99	O	-0.930596	-0.231524	-1.303490
O100	O	-0.430596	0.268476	-0.803490
O101	O	-0.924336	-0.348890	-1.106118
O102	O	-0.424336	0.151110	-0.606118
C103	C	-0.290236	-0.426530	-1.204738
C104	C	0.209764	0.073470	-0.704738
C105	C	-0.290227	-0.484645	-1.204761
C106	C	0.209773	0.015355	-0.704761
C107	C	-0.153891	-0.290198	-1.204849
C108	C	0.346109	0.209802	-0.704849
C109	C	-0.095779	-0.290216	-1.204920
C110	C	0.404221	0.209784	-0.704920
C111	C	-0.255025	-0.843328	-1.151503
C112	C	0.244975	-0.343328	-0.651503
C113	C	-0.255016	-0.897932	-1.151508
C114	C	0.244984	-0.397932	-0.651508
O115	O	-0.225143	-0.924739	-1.106184
O116	O	0.274857	-0.424739	-0.606184
N117	N	-0.290146	-0.926929	-1.204789
N118	N	0.209854	-0.426929	-0.704789
C119	C	-0.325290	-0.901318	-1.258062
C120	C	0.174710	-0.401318	-0.758062
O121	O	-0.355170	-0.930996	-1.303382
O122	O	0.144830	-0.430996	-0.803382
C123	C	-0.325302	-0.846714	-1.258053
C124	C	0.174698	-0.346714	-0.758053
C125	C	-0.290166	-0.817721	-1.204775
C126	C	0.209834	-0.317721	-0.704775
C127	C	-0.219893	-0.814334	-1.098229
C128	C	0.280107	-0.314334	-0.598229
C129	C	-0.219902	-0.759734	-1.098225
C130	C	0.280098	-0.259734	-0.598225
C131	C	-0.255043	-0.734126	-1.151497
C132	C	0.244957	-0.234126	-0.651497
C133	C	-0.290175	-0.763120	-1.204772
C134	C	0.209825	-0.263120	-0.704772
C135	C	-0.360448	-0.821104	-1.311322
C136	C	0.139552	-0.321104	-0.811322
C137	C	-0.360457	-0.766497	-1.311308
C138	C	0.139543	-0.266497	-0.811308
C139	C	-0.325322	-0.737503	-1.258029
C140	C	0.174678	-0.237503	-0.758029
C141	C	-0.325325	-0.682912	-1.258040
C142	C	0.174675	-0.182912	-0.758040
N143	N	-0.290195	-0.653916	-1.204759
N144	N	0.209805	-0.153916	-0.704759
C145	C	-0.255055	-0.679523	-1.151488
C146	C	0.244945	-0.179523	-0.651488
C147	C	-0.325264	-1.015989	-1.258077
C148	C	0.174736	-0.515989	-0.758077
C149	C	-0.325251	-1.070592	-1.258091
C150	C	0.174749	-0.570592	-0.758091
C151	C	-0.254977	-1.067202	-1.151535
C152	C	0.245023	-0.567202	-0.651535
C153	C	-0.254989	-1.012599	-1.151526
C154	C	0.245011	-0.512599	-0.651526
C155	C	-0.290135	-0.986993	-1.204796
C156	C	0.209865	-0.486993	-0.704796
C157	C	-0.255075	-0.564858	-1.151485
C158	C	0.244925	-0.064858	-0.651485
C159	C	-0.255086	-0.510252	-1.151489
C160	C	0.244914	-0.010252	-0.651489
C161	C	-0.325361	-0.513646	-1.258042
C162	C	0.174639	-0.013646	-0.758042
C163	C	-0.325349	-0.568247	-1.258041
C164	C	0.174651	-0.068247	-0.758041
C165	C	-0.290204	-0.593851	-1.204756
C166	C	0.209796	-0.093851	-0.704756
O167	O	-0.355184	-0.656070	-1.303338
O168	O	0.144816	-0.156070	-0.803338
O169	O	-0.225184	-0.649838	-1.106168
O170	O	0.274816	-0.149838	-0.606168
C171	C	-0.290244	-0.154313	-1.204678
C172	C	0.209756	0.345687	-0.704678
C173	C	-0.290111	-0.096204	-1.204816
C174	C	0.209889	0.403796	-0.704816
C175	C	-0.297194	-0.297077	-1.422135
C176	C	0.202806	0.202923	-0.922135
C177	C	-0.300149	-0.300026	-1.514799
C178	C	0.199851	0.199974	-1.014799
C179	C	-0.275023	-0.274967	-0.725754
C180	C	0.224977	0.225033	-0.225754
C181	C	-0.305532	-0.305382	-0.684453
C182	C	0.194468	0.194618	-0.184453
C183	C	-0.302536	-0.302401	-0.590049
C184	C	0.197464	0.197599	-0.090049
C185	C	-0.278018	-0.277947	-0.820167
C186	C	0.221982	0.222053	-0.320167
H187	H	-1.087651	-0.347751	-1.108124
H188	H	-0.587651	0.152249	-0.608124
H189	H	-0.333902	-0.333661	-0.719995
H190	H	0.166098	0.166339	-0.219995
H191	H	-0.226472	-0.486648	-1.108104
H192	H	0.273528	0.013352	-0.608104
O193	O	-0.237459	-0.237494	-0.678687
O194	O	0.262541	0.262506	-0.178687
H195	H	-0.240984	-0.240996	-0.610850
H196	H	0.259016	0.259004	-0.110850
O197	O	-0.987926	-0.224291	-1.315762
O198	O	-0.487926	0.275709	-0.815762
H199	H	-0.964366	-0.249071	-1.358140
H200	H	-0.464366	0.250929	-0.858140
O201	O	-0.363240	-0.599522	-1.315512
O202	O	0.136760	-0.099522	-0.815512
H203	H	-0.388644	-0.623198	-1.278165
H204	H	0.111356	-0.123198	-0.778165
O205	O	-0.478573	-0.356048	-1.093657
O206	O	0.021427	0.143952	-0.593657
H207	H	-0.489474	-0.397547	-1.107915
H208	H	0.010526	0.102453	-0.607915
O209	O	-0.485570	-0.224216	-1.315442
O210	O	0.014430	0.275784	-0.815442
H211	H	-0.495631	-0.182722	-1.301194
H212	H	0.004369	0.317278	-0.801194
O213	O	-0.599066	-0.224235	-1.315511
O214	O	-0.099066	0.275765	-0.815511
H215	H	-0.588168	-0.182737	-1.301236
H216	H	-0.088168	0.317263	-0.801236
H217	H	-0.745216	-0.200934	-1.354866
H218	H	-0.245216	0.299066	-0.854866
H219	H	-1.093761	-0.232681	-1.301697
H220	H	-0.593761	0.267319	-0.801697
O221	O	-0.851935	-0.192572	-1.369024
O222	O	-0.351935	0.307428	-0.869024
H223	H	-0.824944	-0.170516	-1.406097
H224	H	-0.324944	0.329484	-0.906097
H225	H	-0.988599	-0.347748	-1.108071
H226	H	-0.488599	0.152252	-0.608071
H227	H	-0.834787	-0.379433	-1.054630
H228	H	-0.334787	0.120567	-0.554630
O229	O	-0.363262	-0.486024	-1.315499
O230	O	0.136738	0.013976	-0.815499
H231	H	-0.388676	-0.459950	-1.278142
H232	H	0.111324	0.040050	-0.778142
O233	O	-0.728081	-0.387796	-1.040457
O234	O	-0.228081	0.112204	-0.540457
H235	H	-0.738986	-0.429294	-1.054709
H236	H	-0.238986	0.070706	-0.554709
O237	O	-0.592071	-0.356072	-1.093737
O238	O	-0.092071	0.143928	-0.593737
H239	H	-0.562738	-0.378119	-1.056632
H240	H	-0.062738	0.121881	-0.556632
O241	O	-0.217166	-0.592471	-1.094024
O242	O	0.282834	-0.092471	-0.594024
H243	H	-0.192737	-0.563129	-1.056989
H244	H	0.307263	-0.063129	-0.556989
H245	H	-0.226364	-1.088062	-1.108158
H246	H	0.273636	-0.588062	-0.608158
H247	H	-0.191277	-0.835177	-1.054844
H248	H	0.308723	-0.335177	-0.554844
O249	O	-0.182004	-0.728464	-1.040765
O250	O	0.317996	-0.228464	-0.540765
H251	H	-0.157571	-0.755452	-1.003726
H252	H	0.342429	-0.255452	-0.503726
O253	O	-0.217094	-0.981328	-1.094062
O254	O	0.282906	-0.481328	-0.594062
H255	H	-0.192659	-1.008313	-1.057022
H256	H	0.307341	-0.508313	-0.557022
H257	H	-0.353856	-1.094194	-1.301485
H258	H	0.146144	-0.594194	-0.801485
H259	H	-0.353882	-0.995144	-1.301466
H260	H	0.146118	-0.495144	-0.801466
O261	O	-0.398365	-0.738883	-1.368774
O262	O	0.101635	-0.238883	-0.868774
H263	H	-0.423783	-0.712809	-1.331429
H264	H	0.076217	-0.212809	-0.831429
O265	O	-0.398357	-0.852368	-1.368766
O266	O	0.101643	-0.352368	-0.868766
H267	H	-0.422799	-0.825379	-1.405787
H268	H	0.077201	-0.325379	-0.905787
