data_functionalizedCrystal
_audit_creation_method	'MofGen! by Chris Wilmer'
_symmetry_space_group_name_H-M	'P1'
_symmetry_Int_Tables_number	1
_symmetry_cell_setting	triclinic
loop_
_symmetry_equiv_pos_as_xyz
  x,y,z
_cell_length_a	14.853567
_cell_length_b	15.995350
_cell_length_c	13.330367
_cell_angle_alpha	89.997588
_cell_angle_beta	89.995418
_cell_angle_gamma	83.563653
loop_
_atom_site_label
_atom_site_type_symbol
_atom_site_fract_x
_atom_site_fract_y
_atom_site_fract_z
O1	O	1.196221	0.109317	-0.083349
O2	O	0.933744	0.122339	-0.083366
O3	O	1.072158	-0.006051	-0.083356
O4	O	1.057808	0.237707	-0.083359
O5	O	1.072138	-0.006054	0.083491
O6	O	0.933724	0.122336	0.083481
O7	O	1.196201	0.109314	0.083498
Cu8	Cu	1.064961	0.115825	0.098724
Cu9	Cu	1.064985	0.115828	-0.098592
O10	O	1.057788	0.237704	0.083488
C11	C	0.900146	0.121748	0.000056
C12	C	0.800065	0.119980	0.000049
C13	C	0.387644	0.036238	0.000072
C14	C	0.366158	0.188769	0.000070
C15	C	0.460189	0.190432	0.000067
C16	C	0.517953	0.114996	0.000065
C17	C	0.481685	0.037899	0.000066
C18	C	0.496464	0.267528	0.000055
C19	C	0.590501	0.269194	0.000051
C20	C	0.648266	0.193758	0.000056
C21	C	0.611993	0.116657	0.000059
C22	C	0.669757	0.041221	0.000057
C23	C	0.633485	-0.035880	0.000067
C24	C	0.539450	-0.037538	0.000072
C25	C	0.742302	0.195415	0.000051
C26	C	0.763797	0.042882	0.000051
C27	C	1.071555	-0.037248	0.000065
C28	C	1.069776	-0.130201	0.000060
C29	C	1.063389	-0.467956	0.000063
C30	C	0.964813	-0.420636	-0.000318
C31	C	0.966592	-0.323944	0.000058
C32	C	1.066557	-0.300391	0.000061
C33	C	1.115167	-0.341414	0.095340
C34	C	1.112690	-0.438053	0.095419
C35	C	1.114749	-0.438405	-0.094317
C36	C	1.114726	-0.341460	-0.095576
C37	C	1.068353	-0.205692	0.000063
C38	C	1.061596	-0.562655	0.000067
C39	C	1.229799	0.109906	0.000074
C40	C	1.329881	0.111674	0.000074
C41	C	1.058391	0.268901	0.000064
C42	C	1.060170	0.361854	0.000064
N43	N	1.064951	0.115822	0.237506
N44	N	1.065002	0.115825	-0.237374
C45	C	1.003693	0.172657	0.710124
C46	C	1.126301	0.058993	0.710101
C47	C	1.126291	0.058990	0.605082
C48	C	1.064982	0.115823	0.552580
C49	C	1.003682	0.172658	0.605096
C50	C	1.187595	0.002162	0.552559
C51	C	1.187588	0.002158	0.447534
C52	C	1.126274	0.058987	0.395030
C53	C	1.064971	0.115824	0.447552
C54	C	1.003662	0.172656	0.395050
C55	C	0.942354	0.229490	0.447570
C56	C	0.942368	0.229487	0.552592
C57	C	1.126260	0.058989	0.290008
C58	C	1.003652	0.172657	0.290022
H59	H	0.358108	-0.026536	0.000084
H60	H	0.680529	-0.097299	0.000058
O61	O	0.434169	0.348889	0.000049
H62	H	0.447073	0.385782	0.068044
H63	H	1.082529	-0.458981	-0.166533
H64	H	0.892440	0.275767	0.404811
H65	H	0.925580	-0.440277	0.067623
O66	O	0.629623	0.352348	0.000064
H67	H	0.573657	0.404522	0.000078
O68	O	1.067717	-0.305354	-0.188949
H69	H	1.116518	-0.274505	-0.235373
H70	H	0.771830	0.258190	0.000045
O71	O	1.065709	-0.462352	0.189755
H72	H	1.112818	-0.506655	0.234218
H73	H	0.953774	0.218928	0.752889
O74	O	1.208548	-0.480668	0.101172
H75	H	1.256466	-0.432225	0.103893
O76	O	1.211294	-0.321009	-0.103194
H77	H	1.220160	-0.286707	-0.174260
H78	H	1.176222	0.012725	0.752851
H79	H	1.237516	-0.044106	0.595309
O80	O	0.303863	0.270130	0.000082
H81	H	0.232381	0.256023	0.000095
H82	H	1.188608	-0.327203	0.098885
H83	H	0.925422	-0.439212	-0.068644
H84	H	1.187429	-0.470081	-0.094956
O85	O	0.915976	-0.286340	-0.090406
H86	H	0.858348	-0.240981	-0.065286
H87	H	1.237507	-0.044120	0.404778
H88	H	0.928108	-0.296125	0.068470
H89	H	1.081388	-0.313073	0.166242
O90	O	0.876261	0.290790	0.609243
H91	H	0.805979	0.280003	0.589117
O92	O	1.192372	-0.002303	0.233357
H93	H	1.235004	-0.041824	0.287509
O94	O	0.937523	0.233950	0.233386
H95	H	0.949006	0.299245	0.253528
O96	O	0.826100	-0.038482	0.000050
H97	H	0.785077	-0.092369	0.000052
H98	H	0.509909	-0.100310	0.000103
