data_functionalizedCrystal
_audit_creation_method	'MofGen! by Chris Wilmer'
_symmetry_space_group_name_H-M	'P1'
_symmetry_Int_Tables_number	1
_symmetry_cell_setting	triclinic
loop_
_symmetry_equiv_pos_as_xyz
  x,y,z
_cell_length_a	19.188930
_cell_length_b	11.792241
_cell_length_c	10.868271
_cell_angle_alpha	90.000107
_cell_angle_beta	89.989749
_cell_angle_gamma	96.330901
loop_
_atom_site_label
_atom_site_type_symbol
_atom_site_fract_x
_atom_site_fract_y
_atom_site_fract_z
O1	O	0.095695	-1.505476	-0.102218
O2	O	0.105557	-1.174987	-0.102248
O3	O	-0.000975	-1.349769	-0.102208
O4	O	0.202228	-1.330695	-0.102258
O5	O	-0.000980	-1.349755	0.102437
O6	O	0.105553	-1.174973	0.102396
O7	O	0.095691	-1.505462	0.102427
Zn8	Zn	0.100621	-1.340215	0.134903
Zn9	Zn	0.100627	-1.340234	-0.134725
O10	O	0.202224	-1.330680	0.102387
C11	C	0.104936	-1.132699	0.000071
C12	C	0.103082	-1.006713	0.000060
C13	C	-0.026992	-1.349144	0.000118
C14	C	-0.104507	-1.347290	0.000128
C15	C	0.096313	-1.547751	0.000105
C16	C	0.098167	-1.673737	0.000108
C17	C	-0.148850	-1.449846	0.000143
C18	C	-0.221684	-1.448104	0.000123
C19	C	-0.250171	-1.343800	0.000113
C20	C	-0.205818	-1.241230	0.000091
C21	C	-0.132986	-1.242975	0.000098
N22	N	-0.358629	-1.264067	0.069750
N23	N	-0.427817	-1.262417	0.069746
C24	C	-0.469609	-1.338536	0.000088
N25	N	-0.439602	-1.416386	-0.069550
N26	N	-0.370408	-1.418040	-0.069540
C27	C	-0.329144	-1.341896	0.000104
C28	C	-0.592928	-1.439211	0.000080
C29	C	-0.665762	-1.437464	0.000052
C30	C	-0.649895	-1.230588	0.000032
C31	C	-0.577062	-1.232337	0.000047
C32	C	-0.548583	-1.336652	0.000077
C33	C	0.228240	-1.331305	0.000058
C34	C	0.305755	-1.333159	0.000040
N35	N	0.100617	-1.340211	0.318917
C36	C	0.099672	-0.776051	0.000096
C37	C	0.101566	-0.904408	0.000076
N38	N	0.100626	-1.340248	-0.318739
C39	C	0.100625	-1.340228	0.569923
C40	C	0.100623	-1.340215	0.430246
H41	H	-0.125667	-1.534787	0.000163
H42	H	-0.673089	-1.145661	0.000017
Br43	Br	-0.281875	-1.587297	0.000139
H44	H	-0.229017	-1.156305	0.000080
H45	H	-0.096881	-1.159459	0.000086
H46	H	-0.569739	-1.524150	0.000098
H47	H	-0.701866	-1.520981	0.000058
Br48	Br	-0.516878	-1.093146	0.000028
