data_functionalizedCrystal
_audit_creation_method	'MofGen! by Chris Wilmer'
_symmetry_space_group_name_H-M	'P1'
_symmetry_Int_Tables_number	1
_symmetry_cell_setting	triclinic
loop_
_symmetry_equiv_pos_as_xyz
  x,y,z
_cell_length_a	17.699083
_cell_length_b	14.971486
_cell_length_c	13.448316
_cell_angle_alpha	90.001801
_cell_angle_beta	89.992503
_cell_angle_gamma	96.551428
loop_
_atom_site_label
_atom_site_type_symbol
_atom_site_fract_x
_atom_site_fract_y
_atom_site_fract_z
O1	O	0.098633	-1.186608	-0.082580
O2	O	0.110445	-0.926168	-0.082607
O3	O	-0.005632	-1.063746	-0.082584
O4	O	0.214710	-1.049030	-0.082603
O5	O	-0.005639	-1.063729	0.082800
O6	O	0.110438	-0.926150	0.082777
O7	O	0.098626	-1.186591	0.082804
Cu8	Cu	0.104531	-1.056369	0.097891
Cu9	Cu	0.104540	-1.056390	-0.097694
O10	O	0.214703	-1.049013	0.082781
C11	C	-0.033834	-1.063210	0.000108
C12	C	-0.117856	-1.061628	0.000109
C13	C	0.109913	-0.892836	0.000082
C14	C	0.108330	-0.793544	0.000071
C15	C	0.099158	-1.219923	0.000114
C16	C	0.100741	-1.319214	0.000117
C17	C	-0.166278	-1.142384	0.000118
C18	C	-0.245225	-1.140892	0.000110
C19	C	-0.275748	-1.058644	0.000098
C20	C	-0.227320	-0.977882	0.000085
C21	C	-0.148374	-0.979375	0.000087
C22	C	-0.545698	-0.971860	0.000076
C23	C	-0.624649	-0.970374	0.000077
C24	C	-0.642548	-1.133378	0.000099
C25	C	-0.563603	-1.134871	0.000101
C26	C	-0.515181	-1.054109	0.000083
C27	C	-0.429578	-1.055728	0.000090
C28	C	-0.361350	-1.057024	0.000097
C29	C	0.242905	-1.049549	0.000087
C30	C	0.326927	-1.051131	0.000080
N31	N	0.104525	-1.056361	0.235456
C32	C	0.176522	-0.736085	0.000067
C33	C	0.175030	-0.642790	0.000082
C34	C	0.105346	-0.606958	0.000094
C35	C	0.037148	-0.664425	0.000102
C36	C	0.038641	-0.757717	0.000094
C37	C	0.034042	-0.469973	0.000116
C38	C	0.032549	-0.376674	0.000122
C39	C	0.170431	-0.355046	0.000104
C40	C	0.171924	-0.448339	0.000096
C41	C	0.103726	-0.505799	0.000102
N42	N	0.104540	-1.056404	-0.235258
C43	C	0.053147	-1.117300	0.287506
C44	C	0.053147	-1.117306	0.391610
C45	C	0.104528	-1.056376	0.443660
C46	C	0.155908	-0.995431	0.391602
C47	C	0.155904	-0.995422	0.287501
C48	C	0.155913	-0.995456	0.608582
C49	C	0.155918	-0.995466	0.712691
C50	C	0.053155	-1.117339	0.712691
C51	C	0.053152	-1.117330	0.608590
C52	C	0.104533	-1.056386	0.556539
H53	H	-0.141433	-1.209360	0.000134
C54	C	-0.044102	-0.337259	0.000141
H55	H	-0.084504	-0.384840	0.000157
H56	H	-0.047550	-0.301314	-0.057529
H57	H	-0.047545	-0.301316	0.057824
C58	C	-0.003374	-1.184322	0.230260
H59	H	-0.033977	-1.220609	0.276173
H60	H	0.023900	-1.221491	0.189636
H61	H	-0.034930	-1.152208	0.189665
C62	C	-0.039505	-0.625015	0.000114
H63	H	-0.079904	-0.672601	0.000124
H64	H	-0.042952	-0.589070	-0.057556
H65	H	-0.042955	-0.589074	0.057797
C66	C	-0.036370	-0.820923	0.000089
H67	H	-0.078086	-0.786222	0.000087
H68	H	-0.038659	-0.857771	0.057757
H69	H	-0.038648	-0.857760	-0.057596
H70	H	-0.252178	-0.910914	0.000069
H71	H	0.233267	-0.765252	0.000056
C72	C	0.250041	-0.579588	0.000074
H73	H	0.291756	-0.614291	0.000053
H74	H	0.252327	-0.542749	0.057750
H75	H	0.252325	-0.542743	-0.057603
H76	H	0.197751	-0.945826	0.566206
C77	C	-0.530031	-1.225343	0.000109
H78	H	-0.570178	-1.273226	0.000104
H79	H	-0.499610	-1.229311	0.057781
H80	H	-0.499603	-1.229314	-0.057572
C81	C	-0.003362	-1.184346	0.448861
H82	H	-0.033955	-1.220641	0.402952
H83	H	-0.034918	-1.152256	0.489486
H84	H	0.023930	-1.221519	0.489456
C85	C	0.212405	-0.928382	0.448851
H86	H	0.242992	-0.892074	0.402939
H87	H	0.243968	-0.960461	0.489464
H88	H	0.185100	-0.891223	0.489456
C89	C	-0.003369	-1.184370	0.769942
H90	H	0.003983	-1.175643	0.839396
H91	H	0.004933	-1.244043	0.752875
H92	H	-0.053898	-1.174762	0.752889
H93	H	0.011317	-1.166948	0.566210
C94	C	0.212387	-0.928389	0.769945
H95	H	0.242967	-0.892067	0.724038
H96	H	0.243961	-0.960439	0.810575
H97	H	0.185054	-0.891248	0.810536
H98	H	0.197740	-0.945799	0.245122
H99	H	-0.284648	-1.206652	0.000120
C100	C	-0.095107	-0.890546	0.000076
H101	H	-0.043719	-0.903214	0.000068
H102	H	-0.104369	-0.856802	0.057742
H103	H	-0.104363	-0.856825	-0.057611
C104	C	0.245449	-0.291848	0.000103
H105	H	0.287164	-0.326550	0.000082
H106	H	0.247735	-0.255008	0.057780
H107	H	0.247732	-0.255002	-0.057573
H108	H	-0.681983	-1.199138	0.000109
H109	H	-0.649498	-0.903394	0.000070
H110	H	-0.506282	-0.906099	0.000062
H111	H	0.228667	-0.477510	0.000076
H112	H	-0.021492	-0.516756	0.000122
