data_functionalizedCrystal
_audit_creation_method	'MofGen! by Chris Wilmer'
_symmetry_space_group_name_H-M	'P1'
_symmetry_Int_Tables_number	1
_symmetry_cell_setting	triclinic
loop_
_symmetry_equiv_pos_as_xyz
  x,y,z
_cell_length_a	9.065218
_cell_length_b	16.992695
_cell_length_c	7.540329
_cell_angle_alpha	89.996072
_cell_angle_beta	89.996962
_cell_angle_gamma	87.842054
loop_
_atom_site_label
_atom_site_type_symbol
_atom_site_fract_x
_atom_site_fract_y
_atom_site_fract_z
O1	O	1.971074	0.115065	-0.147490
O2	O	1.542664	0.124504	-0.147492
O3	O	1.755152	0.005630	-0.147477
O4	O	1.758586	0.233939	-0.147505
O5	O	1.755138	0.005628	0.147488
O6	O	1.542651	0.124502	0.147473
O7	O	1.971060	0.115064	0.147476
Cu8	Cu	1.756854	0.119783	0.174407
Cu9	Cu	1.756870	0.119785	-0.174424
O10	O	1.758573	0.233938	0.147460
C11	C	1.487587	0.123596	-0.000010
C12	C	1.323492	0.120884	-0.000011
C13	C	1.750726	-0.023615	0.000005
C14	C	1.737542	-0.110753	0.000005
C15	C	1.864748	-0.160090	0.000008
C16	C	1.852352	-0.241964	-0.000009
C17	C	1.712748	-0.274500	-0.000016
C18	C	1.585533	-0.225157	-0.000024
C19	C	1.597931	-0.143284	-0.000020
C20	C	1.661364	-0.518463	-0.000041
C21	C	1.648976	-0.600343	-0.000040
C22	C	1.915797	-0.617144	-0.000028
C23	C	1.928182	-0.535269	-0.000013
C24	C	1.800967	-0.485933	-0.000031
N25	N	1.700074	-0.358189	-0.000028
N26	N	1.813642	-0.402245	-0.000032
C27	C	2.026138	0.115972	-0.000011
C28	C	2.190232	0.118684	-0.000022
C29	C	1.762998	0.263183	-0.000026
C30	C	1.776182	0.350320	-0.000037
N31	N	1.756853	0.119781	0.419755
N32	N	1.756882	0.119780	-0.419772
H33	H	1.978428	-0.133606	0.000024
H34	H	1.535289	-0.626830	-0.000017
O35	O	2.063908	-0.503796	-0.000079
C36	C	2.173528	-0.564900	-0.000028
H37	H	2.125593	-0.620795	-0.055890
H38	H	2.213208	-0.576199	0.141486
C39	C	2.363299	-0.472224	-0.047066
C40	C	2.304427	-0.540875	-0.115691
H41	H	2.444048	-0.457404	-0.118405
H42	H	2.289447	-0.431057	-0.047094
H43	H	2.396354	-0.481650	0.070861
H44	H	2.271357	-0.531446	-0.233607
H45	H	2.378277	-0.582041	-0.115685
H46	H	1.471864	-0.251654	-0.000041
H47	H	1.955937	-0.282132	-0.000003
O48	O	1.474213	-0.095468	0.000056
C49	C	1.348335	-0.141739	0.000004
H50	H	1.378601	-0.202566	0.055854
H51	H	1.306012	-0.147861	-0.141509
C52	C	1.189948	-0.027140	0.047068
C53	C	1.227118	-0.101846	0.115679
H54	H	1.115172	-0.002531	0.118414
H55	H	1.274753	0.004035	0.047097
H56	H	1.154688	-0.032251	-0.070858
H57	H	1.262395	-0.096733	0.233594
H58	H	1.142316	-0.133019	0.115672
O59	O	2.039322	-0.665103	-0.000343
C60	C	2.040121	-0.712971	-0.153090
H61	H	1.968153	-0.683525	-0.259859
H62	H	1.994887	-0.772765	-0.118555
C63	C	2.287709	-0.760428	-0.091229
C64	C	2.199326	-0.724259	-0.222370
H65	H	2.385914	-0.767395	-0.133961
H66	H	2.287170	-0.728181	0.011684
H67	H	2.249997	-0.810253	-0.062462
H68	H	2.237029	-0.674431	-0.251118
H69	H	2.199876	-0.756498	-0.325290
H70	H	1.557776	-0.478303	-0.000055
