data_functionalizedCrystal
_audit_creation_method	'MofGen! by Chris Wilmer'
_symmetry_space_group_name_H-M	'P1'
_symmetry_Int_Tables_number	1
_symmetry_cell_setting	triclinic
loop_
_symmetry_equiv_pos_as_xyz
  x,y,z
_cell_length_a	16.974829
_cell_length_b	16.992695
_cell_length_c	15.455313
_cell_angle_alpha	87.152573
_cell_angle_beta	96.328434
_cell_angle_gamma	87.025716
loop_
_atom_site_label
_atom_site_type_symbol
_atom_site_fract_x
_atom_site_fract_y
_atom_site_fract_z
O1	O	1.062069	0.092978	0.146683
O2	O	1.395402	0.426311	0.480016
O3	O	1.728735	0.759644	0.813350
O4	O	0.831939	0.106468	0.130531
O5	O	1.165272	0.439802	0.463864
O6	O	1.498605	0.773135	0.797198
O7	O	0.946081	-0.014415	0.138535
O8	O	1.279414	0.318918	0.471869
O9	O	1.612747	0.652251	0.805202
O10	O	0.947927	0.213861	0.138679
O11	O	1.281260	0.547195	0.472012
O12	O	1.614593	0.880528	0.805345
O13	O	0.939552	-0.007531	-0.006185
O14	O	1.272885	0.325802	0.327149
O15	O	1.606219	0.659136	0.660482
O16	O	0.825410	0.113353	-0.014189
O17	O	1.158743	0.446686	0.319144
O18	O	1.492076	0.780019	0.652478
O19	O	1.055540	0.099862	0.001963
O20	O	1.388873	0.433195	0.335296
O21	O	1.722206	0.766529	0.668630
Cu22	Cu	0.939879	0.107236	-0.019327
Cu23	Cu	1.273212	0.440569	0.314006
Cu24	Cu	1.606545	0.773902	0.647340
Cu25	Cu	0.947600	0.099094	0.151821
Cu26	Cu	1.280933	0.432428	0.485154
Cu27	Cu	1.614266	0.765761	0.818488
O28	O	0.941398	0.220746	-0.006041
O29	O	1.274731	0.554079	0.327292
O30	O	1.608064	0.887412	0.660625
C31	C	0.799092	0.109524	0.056095
C32	C	1.132425	0.442858	0.389428
C33	C	1.465758	0.776191	0.722761
C34	C	0.710945	0.108364	0.049908
C35	C	1.044278	0.441698	0.383241
C36	C	1.377611	0.775031	0.716574
C37	C	0.214385	0.102263	0.006614
C38	C	0.547719	0.435597	0.339947
C39	C	0.881052	0.768930	0.673281
C40	C	0.297209	0.103353	0.012429
C41	C	0.630542	0.436687	0.345762
C42	C	0.963876	0.770020	0.679095
C43	C	0.342180	0.100139	0.094225
C44	C	0.675514	0.433473	0.427558
C45	C	1.008847	0.766806	0.760891
C46	C	0.304323	0.095844	0.170210
C47	C	0.637657	0.429177	0.503544
C48	C	0.970990	0.762510	0.836877
C49	C	0.221501	0.094760	0.164394
C50	C	0.554834	0.428093	0.497728
C51	C	0.888168	0.761426	0.831061
C52	C	0.590265	0.102984	0.120078
C53	C	0.923598	0.436318	0.453411
C54	C	1.256932	0.769651	0.786744
C55	C	0.673093	0.104066	0.125888
C56	C	1.006427	0.437400	0.459221
C57	C	1.339760	0.770733	0.792554
C58	C	0.665973	0.111577	-0.031894
C59	C	0.999306	0.444911	0.301439
C60	C	1.332640	0.778244	0.634772
C61	C	0.583150	0.110488	-0.037703
C62	C	0.916483	0.443821	0.295630
C63	C	1.249816	0.777155	0.628964
C64	C	0.545300	0.106197	0.038283
C65	C	0.878633	0.439530	0.371616
C66	C	1.211966	0.772863	0.704949
N67	N	0.426840	0.101251	0.100170
N68	N	0.760173	0.434584	0.433504
N69	N	1.093506	0.767918	0.766837
N70	N	0.460641	0.105091	0.032336
N71	N	0.793975	0.438424	0.365669
N72	N	1.127308	0.771758	0.699003
C73	C	0.940443	-0.040175	0.066009
C74	C	1.273776	0.293158	0.399342
C75	C	1.607109	0.626491	0.732675
C76	C	0.933361	-0.127188	0.065512
C77	C	1.266694	0.206145	0.398845
C78	C	1.600027	0.539478	0.732179
C79	C	1.001692	-0.177729	0.070307
C80	C	1.335026	0.155605	0.403640
C81	C	1.668359	0.488938	0.736974
C82	C	0.995034	-0.259487	0.069848
C83	C	1.328367	0.073847	0.403181
C84	C	1.661700	0.407180	0.736515
C85	C	0.920043	-0.290702	0.064587
C86	C	1.253376	0.042631	0.397921
C87	C	1.586709	0.375965	0.731254
C88	C	0.851706	-0.240155	0.059795
C89	C	1.185039	0.093178	0.393128
C90	C	1.518373	0.426511	0.726461
C91	C	0.858366	-0.158400	0.060260
C92	C	1.191699	0.174934	0.393593
C93	C	1.525032	0.508267	0.726927
C94	C	0.892441	-0.534179	0.062662
C95	C	1.225774	-0.200846	0.395996
C96	C	1.559108	0.132487	0.729329
C97	C	0.885786	-0.615942	0.062195
C98	C	1.219120	-0.282608	0.395528
C99	C	1.552453	0.050725	0.728861
C100	C	1.029115	-0.635267	0.072249
C101	C	1.362448	-0.301934	0.405583
C102	C	1.695782	0.031400	0.738916
C103	C	1.035768	-0.553508	0.072709
C104	C	1.369101	-0.220175	0.406042
C105	C	1.702434	0.113158	0.739376
C106	C	0.967431	-0.502969	0.067921
C107	C	1.300765	-0.169636	0.401254
C108	C	1.634098	0.163697	0.734588
N109	N	0.913234	-0.374271	0.064115
N110	N	1.246568	-0.040938	0.397449
N111	N	1.579901	0.292395	0.730782
N112	N	0.974240	-0.419402	0.068399
N113	N	1.307574	-0.086069	0.401733
N114	N	1.640907	0.247265	0.735066
C115	C	1.088387	0.096806	0.076401
C116	C	1.421720	0.430139	0.409735
C117	C	1.755053	0.763472	0.743068
C118	C	1.176534	0.097966	0.082594
C119	C	1.509867	0.431299	0.415927
C120	C	1.843201	0.764632	0.749260
C121	C	0.947036	0.246505	0.066487
C122	C	1.280369	0.579839	0.399820
C123	C	1.613702	0.913172	0.733154
C124	C	0.954118	0.333518	0.066990
C125	C	1.287451	0.666852	0.400323
C126	C	1.620785	1.000185	0.733656
N127	N	0.934454	0.112962	-0.139703
N128	N	1.267787	0.446295	0.193630
N129	N	1.601120	0.779628	0.526964
C130	C	0.982964	0.061625	-0.181695
C131	C	1.316298	0.394958	0.151638
C132	C	1.649631	0.728291	0.484971
C133	C	0.978869	0.065962	-0.272790
C134	C	1.312203	0.399295	0.060543
C135	C	1.645536	0.732629	0.393876
C136	C	0.926267	0.121641	-0.321891
C137	C	1.259601	0.454974	0.011442
C138	C	1.592934	0.788307	0.344775
C139	C	0.877751	0.172980	-0.279893
C140	C	1.211085	0.506313	0.053440
C141	C	1.544418	0.839646	0.386774
C142	C	0.881843	0.168638	-0.188800
C143	C	1.215176	0.501971	0.144533
C144	C	1.548509	0.835305	0.477867
C145	C	0.908606	0.140360	-0.594711
C146	C	1.241939	0.473693	-0.261378
C147	C	1.575273	0.807026	0.071955
C148	C	0.904520	0.144699	-0.685810
C149	C	1.237853	0.478033	-0.352477
C150	C	1.571187	0.811366	-0.019144
C151	C	1.005638	0.037680	-0.678701
C152	C	1.338971	0.371013	-0.345368
C153	C	1.672304	0.704347	-0.012035
C154	C	1.009728	0.033346	-0.587607
C155	C	1.343061	0.366680	-0.254273
C156	C	1.676394	0.700013	0.079060
C157	C	0.961209	0.084683	-0.545617
C158	C	1.294542	0.418016	-0.212283
C159	C	1.627875	0.751349	0.121050
N160	N	0.922082	0.126077	-0.415005
N161	N	1.255416	0.459410	-0.081672
N162	N	1.588749	0.792744	0.251662
N163	N	0.965390	0.080242	-0.452505
N164	N	1.298724	0.413575	-0.119171
N165	N	1.632057	0.746909	0.214162
N166	N	0.953031	0.093362	0.272197
N167	N	1.286364	0.426696	0.605531
N168	N	1.619697	0.760029	0.938864
H169	H	0.328024	0.106851	-0.049442
H170	H	0.661357	0.440184	0.283891
H171	H	0.994690	0.773518	0.617224
O172	O	0.180667	0.090124	0.246341
O173	O	0.514001	0.423457	0.579675
O174	O	0.847334	0.756790	0.913008
H175	H	0.146776	0.036029	0.247710
H176	H	0.480110	0.369363	0.581043
H177	H	0.813443	0.702696	0.914376
H178	H	1.062758	-0.152320	0.074585
H179	H	1.396091	0.181014	0.407919
H180	H	1.729425	0.514347	0.741252
H181	H	1.050677	-0.300634	0.073751
H182	H	1.384010	0.032700	0.407084
H183	H	1.717343	0.366033	0.740417
O184	O	1.057967	-0.017688	-0.723990
O185	O	1.391300	0.315646	-0.390656
O186	O	1.724634	0.648979	-0.057323
H187	H	1.044781	-0.079591	-0.707495
H188	H	1.378114	0.253742	-0.374161
H189	H	1.711447	0.587076	-0.040828
O190	O	0.352829	0.092380	0.258433
O191	O	0.686162	0.425714	0.591766
O192	O	1.019495	0.759047	0.925099
H193	H	0.312591	0.089218	0.310289
H194	H	0.645924	0.422551	0.643623
H195	H	0.979257	0.755885	0.976956
O196	O	1.116652	-0.519840	0.078404
O197	O	1.449985	-0.186507	0.411737
O198	O	1.783318	0.146826	0.745071
H199	H	1.163051	-0.568721	0.081674
H200	H	1.496384	-0.235388	0.415008
H201	H	1.829717	0.097946	0.748341
H202	H	0.802723	-0.117250	0.056356
H203	H	1.136056	0.216084	0.389689
H204	H	1.469389	0.549417	0.723022
H205	H	0.790647	-0.265578	0.055517
H206	H	1.123980	0.067756	0.388850
H207	H	1.457313	0.401089	0.722184
O208	O	0.804895	-0.649603	0.056521
O209	O	1.138228	-0.316270	0.389855
O210	O	1.471561	0.017063	0.723188
H211	H	0.795767	-0.683576	-0.002925
H212	H	1.129101	-0.350242	0.330408
H213	H	1.462434	-0.016909	0.663742
H214	H	0.836796	-0.493039	0.058763
H215	H	1.170130	-0.159706	0.392096
H216	H	1.503463	0.173627	0.725430
H217	H	1.052560	-0.011991	-0.547630
H218	H	1.385894	0.321342	-0.214297
H219	H	1.719227	0.654675	0.119036
H220	H	1.018370	0.024159	-0.306980
H221	H	1.351703	0.357492	0.026353
H222	H	1.685037	0.690826	0.359687
H223	H	1.025802	0.016289	-0.141723
H224	H	1.359135	0.349622	0.191611
H225	H	1.692469	0.682955	0.524944
H226	H	0.709707	0.101456	0.192499
H227	H	1.043040	0.434789	0.525832
H228	H	1.376374	0.768122	0.859166
O229	O	0.829512	0.223995	-0.143497
O230	O	1.162845	0.557329	0.189836
O231	O	1.496179	0.890662	0.523169
H232	H	0.867168	0.259985	-0.099453
H233	H	1.200502	0.593318	0.233881
H234	H	1.533835	0.926651	0.567214
O235	O	0.534740	0.113804	-0.125974
O236	O	0.868074	0.447138	0.207359
O237	O	1.201407	0.780471	0.540693
H238	H	0.500606	0.060001	-0.132071
H239	H	0.833940	0.393334	0.201262
H240	H	1.167273	0.726668	0.534596
H241	H	1.084750	-0.676424	0.076149
H242	H	1.418084	-0.343091	0.409483
H243	H	1.751417	-0.009758	0.742816
O244	O	0.549448	0.098307	0.202029
O245	O	0.882781	0.431640	0.535362
O246	O	1.216115	0.764973	0.868696
H247	H	0.594638	0.096230	0.259881
H248	H	0.927971	0.429563	0.593214
H249	H	1.261305	0.762896	0.926548
O250	O	0.847773	0.204746	-0.738776
O251	O	1.181106	0.538079	-0.405442
O252	O	1.514439	0.871412	-0.072109
H253	H	0.814713	0.239707	-0.694275
H254	H	1.148047	0.573041	-0.360942
H255	H	1.481380	0.906374	-0.027608
O256	O	0.856285	0.195734	-0.549425
O257	O	1.189619	0.529067	-0.216092
O258	O	1.522952	0.862400	0.117241
H259	H	0.819030	0.235185	-0.598874
H260	H	1.152363	0.568518	-0.265541
H261	H	1.485697	0.901852	0.067793
O262	O	0.821020	0.233041	-0.332845
O263	O	1.154354	0.566375	0.000488
O264	O	1.487687	0.899708	0.333821
H265	H	0.778519	0.202176	-0.377226
H266	H	1.111852	0.535509	-0.043892
H267	H	1.445186	0.868843	0.289441
O268	O	0.165881	0.105734	-0.081609
O269	O	0.499214	0.439067	0.251724
O270	O	0.832547	0.772400	0.585057
H271	H	0.206118	0.108915	-0.133465
H272	H	0.539452	0.442248	0.199868
H273	H	0.872785	0.775581	0.533202
H274	H	0.696799	0.115073	-0.093757
H275	H	1.030133	0.448406	0.239576
H276	H	1.363466	0.781740	0.572909
