data_functionalizedCrystal
_audit_creation_method	'MofGen! by Chris Wilmer'
_symmetry_space_group_name_H-M	'P1'
_symmetry_Int_Tables_number	1
_symmetry_cell_setting	triclinic
loop_
_symmetry_equiv_pos_as_xyz
  x,y,z
_cell_length_a	14.044220
_cell_length_b	14.044220
_cell_length_c	13.101039
_cell_angle_alpha	86.332523
_cell_angle_beta	86.340132
_cell_angle_gamma	86.811122
loop_
_atom_site_label
_atom_site_type_symbol
_atom_site_fract_x
_atom_site_fract_y
_atom_site_fract_z
O1	O	1.281968	-0.225348	-0.085109
O2	O	1.781968	0.274652	0.414891
O3	O	1.005298	-0.217041	-0.085135
O4	O	1.505298	0.282959	0.414865
O5	O	1.139480	-0.082860	-0.085112
O6	O	1.639480	0.417140	0.414888
O7	O	1.147787	-0.359530	-0.085132
O8	O	1.647787	0.140470	0.414868
O9	O	1.129854	-0.092504	0.085316
O10	O	1.629854	0.407496	0.585316
O11	O	0.995673	-0.226686	0.085293
O12	O	1.495673	0.273314	0.585293
O13	O	1.272343	-0.234993	0.085319
O14	O	1.772343	0.265007	0.585319
Zn15	Zn	1.132479	-0.232371	0.112365
Zn16	Zn	1.632479	0.267629	0.612365
Zn17	Zn	1.145162	-0.219663	-0.112181
Zn18	Zn	1.645162	0.280337	0.387819
O19	O	1.138161	-0.369175	0.085296
O20	O	1.638161	0.130825	0.585296
C21	C	0.964864	-0.218228	0.000076
C22	C	1.464864	0.281772	0.500076
C23	C	0.858722	-0.207383	0.000066
C24	C	1.358722	0.292617	0.500066
C25	C	1.131031	-0.052060	0.000102
C26	C	1.631031	0.447940	0.500102
C27	C	1.120187	0.054083	0.000102
C28	C	1.620187	0.554083	0.500102
C29	C	0.664383	-0.187558	0.000088
C30	C	1.164383	0.312442	0.500088
C31	C	0.613253	-0.264472	0.000087
C32	C	1.113253	0.235528	0.500087
C33	C	0.505116	-0.253441	0.000099
C34	C	1.005116	0.246559	0.500099
C35	C	0.772529	-0.198587	0.000076
C36	C	1.272529	0.301413	0.500076
C37	C	1.312777	-0.233806	0.000106
C38	C	1.812777	0.266194	0.500106
C39	C	1.418920	-0.244651	0.000109
C40	C	1.918920	0.255349	0.500109
C41	C	1.146610	-0.399974	0.000080
C42	C	1.646610	0.100026	0.500080
C43	C	1.157455	-0.506116	0.000073
C44	C	1.657455	-0.006116	0.500073
N45	N	1.123831	-0.241043	0.265612
N46	N	1.623831	0.258957	0.765612
C47	C	1.100362	0.248421	0.000086
C48	C	1.600362	0.748421	0.500086
C49	C	1.177276	0.299551	0.000090
C50	C	1.677276	0.799551	0.500090
C51	C	1.166245	0.407688	0.000080
C52	C	1.666245	0.907688	0.500080
C53	C	1.111391	0.140275	0.000095
C54	C	1.611391	0.640275	0.500095
N55	N	1.153817	-0.210984	-0.265428
N56	N	1.653817	0.289016	0.234572
C57	C	1.112065	-0.252851	0.474653
C58	C	1.612065	0.247149	0.974653
C59	C	1.165580	-0.199179	0.525538
C60	C	1.665580	0.300821	1.025538
C61	C	1.159034	-0.205749	0.641855
C62	C	1.659034	0.294251	1.141855
C63	C	1.118610	-0.246282	0.358325
C64	C	1.618610	0.253718	0.858325
H65	H	0.626945	-0.113431	0.000099
H66	H	1.126945	0.386569	0.500099
O67	O	1.051410	-0.313448	0.526845
O68	O	1.551410	0.186552	1.026845
C69	C	0.888401	-0.357425	0.559893
C70	C	1.388401	0.142575	1.059893
C71	C	0.956979	-0.288720	0.500723
C72	C	1.456979	0.211280	1.000723
H73	H	0.812041	-0.337470	0.538779
H74	H	1.312041	0.162530	1.038779
H75	H	0.893759	-0.351967	0.645765
H76	H	1.393759	0.148033	1.145765
H77	H	0.908650	-0.433755	0.538884
H78	H	1.408650	0.066245	1.038884
H79	H	0.936774	-0.212361	0.521646
H80	H	1.436774	0.287639	1.021646
H81	H	0.951610	-0.294262	0.414865
H82	H	1.451610	0.205738	0.914865
H83	H	1.251413	0.262115	0.000028
H84	H	1.751413	0.762115	0.500028
H85	H	0.650693	-0.338605	0.000077
H86	H	1.150693	0.161395	0.500077
H87	H	1.216314	-0.148295	0.481744
H88	H	1.716314	0.351705	0.981744
O89	O	1.011992	0.293226	0.000127
O90	O	1.511992	0.793226	0.500127
C91	C	0.920299	0.443440	0.000062
C92	C	1.420299	0.943440	0.500062
C93	C	1.020429	0.392805	0.000033
C94	C	1.520429	0.892805	0.500033
H95	H	0.927088	0.523958	-0.000035
H96	H	1.427088	1.023958	0.499965
H97	H	0.875806	0.417954	0.071405
H98	H	1.375806	0.917954	0.571405
H99	H	0.883875	0.425886	-0.071243
H100	H	1.383875	0.925886	0.428757
H101	H	1.056936	0.410335	0.071290
H102	H	1.556936	0.910335	0.571290
H103	H	1.064853	0.418294	-0.071357
H104	H	1.564853	0.918294	0.428643
