data_functionalizedCrystal
_audit_creation_method	'MofGen! by Chris Wilmer'
_symmetry_space_group_name_H-M	'P1'
_symmetry_Int_Tables_number	1
_symmetry_cell_setting	triclinic
loop_
_symmetry_equiv_pos_as_xyz
  x,y,z
_cell_length_a	23.532355
_cell_length_b	10.654541
_cell_length_c	9.730217
_cell_angle_alpha	89.997325
_cell_angle_beta	89.997408
_cell_angle_gamma	96.344287
loop_
_atom_site_label
_atom_site_type_symbol
_atom_site_fract_x
_atom_site_fract_y
_atom_site_fract_z
O1	O	0.756268	-0.152125	0.114103
O2	O	0.590545	-0.174250	0.114146
O3	O	0.677218	0.019674	0.114115
O4	O	0.669596	-0.346049	0.114134
O5	O	0.677212	0.019674	-0.114465
O6	O	0.590539	-0.174250	-0.114434
O7	O	0.756263	-0.152125	-0.114477
Zn8	Zn	0.673400	-0.163188	-0.150748
Zn9	Zn	0.673408	-0.163187	0.150416
O10	O	0.669590	-0.346050	-0.114446
C11	C	0.569322	-0.173697	-0.000138
C12	C	0.506092	-0.172034	-0.000122
C13	C	0.114007	-0.161587	-0.124779
C14	C	0.054598	-0.160005	-0.124784
O15	O	0.023871	-0.159145	-0.230750
N16	N	0.024887	-0.159221	-0.000186
C17	C	0.054590	-0.160005	0.124426
O18	O	0.023864	-0.159191	0.230406
C19	C	0.113999	-0.161578	0.124430
C20	C	0.143706	-0.162375	-0.000176
C21	C	0.143714	-0.162383	-0.249375
C22	C	0.203120	-0.163967	-0.249369
C23	C	0.232818	-0.164756	-0.124767
C24	C	0.203112	-0.163960	-0.000171
C25	C	0.143702	-0.162354	0.249041
C26	C	0.203115	-0.163926	0.249034
C27	C	0.232822	-0.164723	0.124427
C28	C	0.292216	-0.166332	0.124438
N29	N	0.321926	-0.167117	-0.000161
C30	C	0.292227	-0.166328	-0.124763
C31	C	-0.070173	-0.156700	0.124408
C32	C	-0.129581	-0.155136	0.124406
C33	C	-0.129570	-0.155134	-0.124805
C34	C	-0.070161	-0.156707	-0.124801
C35	C	-0.040462	-0.157484	-0.000190
C36	C	0.416983	-0.169656	-0.124741
C37	C	0.476394	-0.171246	-0.124724
C38	C	0.476377	-0.171241	0.124486
C39	C	0.416972	-0.169659	0.124470
C40	C	0.387276	-0.168862	-0.000155
O41	O	0.322981	-0.167188	0.230349
O42	O	0.322962	-0.167126	-0.230726
C43	C	0.676655	0.066454	-0.000174
C44	C	0.674982	0.205844	-0.000171
C45	C	0.777486	-0.152678	-0.000190
C46	C	0.840715	-0.154341	-0.000197
C47	C	0.670152	-0.392830	-0.000154
C48	C	0.671826	-0.532219	-0.000148
N49	N	0.673399	-0.163187	-0.356284
C50	C	0.778623	0.237141	-0.000216
C51	C	0.829655	0.318273	-0.000241
C52	C	0.828079	0.449241	-0.000236
C53	C	0.775465	0.499077	-0.000202
C54	C	0.724433	0.417945	-0.000178
C55	C	0.726015	0.286977	-0.000186
C56	C	0.620794	0.386649	-0.000123
C57	C	0.622368	0.255681	-0.000138
C58	C	0.568180	0.436485	-0.000089
C59	C	0.517147	0.355353	-0.000074
C60	C	0.518725	0.224378	-0.000080
C61	C	0.571337	0.174549	-0.000113
C62	C	0.750193	0.008493	-0.644036
C63	C	0.788578	0.094332	-0.572091
C64	C	0.788571	0.094335	-0.428211
C65	C	0.750176	0.008488	-0.356273
C66	C	0.711791	-0.077351	-0.428219
C67	C	0.711801	-0.077343	-0.572102
C68	C	0.635014	-0.249026	-0.428229
C69	C	0.635018	-0.249026	-0.572109
C70	C	0.596619	-0.334874	-0.356292
C71	C	0.558231	-0.420709	-0.428237
C72	C	0.558239	-0.420708	-0.572126
C73	C	0.596633	-0.334865	-0.644055
N74	N	0.673413	-0.163178	0.355953
H75	H	0.500568	-0.171889	0.225934
Cl76	Cl	0.836846	0.202247	-0.662529
H77	H	0.526984	-0.490613	-0.630696
Cl78	Cl	0.240446	-0.164901	0.405699
Cl79	Cl	0.454567	0.122393	-0.000039
H80	H	0.819829	0.164228	-0.369633
Cl81	Cl	0.895794	0.255615	-0.000275
H82	H	0.869633	0.515300	-0.000246
Cl83	Cl	-0.166921	-0.154159	0.281061
Cl84	Cl	0.379661	-0.168655	-0.281414
Cl85	Cl	0.106389	-0.161400	-0.406041
H86	H	0.474314	0.395942	-0.000038
H87	H	0.572627	0.067910	-0.000126
Cl88	Cl	0.773486	0.663724	-0.000103
H89	H	-0.045977	-0.157357	-0.226267
H90	H	0.566901	0.543127	-0.000077
Cl91	Cl	0.596646	-0.334850	-0.824933
H92	H	0.750177	0.008485	-0.239119
H93	H	0.750199	0.008510	-0.761191
Cl94	Cl	0.780608	0.072496	-0.000253
H95	H	0.227302	-0.164609	-0.350837
H96	H	0.596617	-0.334873	-0.239137
H97	H	0.500578	-0.171899	-0.226198
Cl98	Cl	-0.166916	-0.154137	-0.281450
Cl99	Cl	0.509971	-0.528628	-0.337798
Cl100	Cl	-0.032845	-0.157692	0.281079
Cl101	Cl	0.106371	-0.161346	0.405700
H102	H	0.392782	-0.169030	0.225935
