data_functionalizedCrystal
_audit_creation_method	'MofGen! by Chris Wilmer'
_symmetry_space_group_name_H-M	'P1'
_symmetry_Int_Tables_number	1
_symmetry_cell_setting	triclinic
loop_
_symmetry_equiv_pos_as_xyz
  x,y,z
_cell_length_a	12.759401
_cell_length_b	16.625546
_cell_length_c	16.625539
_cell_angle_alpha	90.030397
_cell_angle_beta	90.018781
_cell_angle_gamma	90.023993
loop_
_atom_site_label
_atom_site_type_symbol
_atom_site_fract_x
_atom_site_fract_y
_atom_site_fract_z
Zn1	Zn	1.606187	-0.320967	0.455859
Zn2	Zn	1.939521	0.012366	0.789193
Zn3	Zn	2.272854	0.345699	1.122526
Zn4	Zn	1.606061	-0.455811	0.321021
Zn5	Zn	1.939395	-0.122477	0.654355
Zn6	Zn	2.272728	0.210856	0.987688
Zn7	Zn	1.430493	-0.320999	0.321044
Zn8	Zn	1.763826	0.012334	0.654377
Zn9	Zn	2.097159	0.345667	0.987711
Zn10	Zn	1.430454	-0.455765	0.455816
Zn11	Zn	1.763787	-0.122432	0.789149
Zn12	Zn	2.097121	0.210901	1.122482
O13	O	1.518299	-0.388386	0.388435
O14	O	1.851632	-0.055052	0.721768
O15	O	2.184965	0.278281	1.055102
O16	O	1.753192	-0.338860	0.437982
O17	O	2.086525	-0.005527	0.771315
O18	O	2.419858	0.327806	1.104648
O19	O	1.582735	-0.437960	0.208192
O20	O	1.916068	-0.104626	0.541525
O21	O	2.249402	0.228707	0.874859
O22	O	1.453868	-0.208163	0.338955
O23	O	1.787201	0.125171	0.672288
O24	O	2.120534	0.458504	1.005622
O25	O	1.753099	-0.437929	0.338917
O26	O	2.086432	-0.104596	0.672250
O27	O	2.419766	0.228738	1.005584
O28	O	1.582950	-0.208139	0.438003
O29	O	1.916283	0.125194	0.771337
O30	O	2.249617	0.458527	1.104670
O31	O	1.453746	-0.338914	0.208208
O32	O	1.787079	-0.005581	0.541542
O33	O	2.120412	0.327752	0.874875
O34	O	1.283466	-0.338871	0.338913
O35	O	1.616800	-0.005537	0.672246
O36	O	1.950133	0.327796	1.005579
O37	O	1.453802	-0.437852	0.568654
O38	O	1.787135	-0.104519	0.901987
O39	O	2.120469	0.228815	1.235320
O40	O	1.283438	-0.437883	0.437929
O41	O	1.616772	-0.104549	0.771262
O42	O	1.950105	0.228784	1.104596
O43	O	1.582913	-0.338816	0.568686
O44	O	1.916246	-0.005483	0.902019
O45	O	2.249579	0.327850	1.235353
O46	O	1.582698	-0.568637	0.338875
O47	O	1.916031	-0.235304	0.672208
O48	O	2.249364	0.098030	1.005541
O49	O	1.453680	-0.568604	0.437907
O50	O	1.787013	-0.235270	0.771241
O51	O	2.120346	0.098063	1.104574
C52	C	1.245331	-0.388376	0.388419
C53	C	1.578665	-0.055042	0.721752
C54	C	1.911998	0.278291	1.055086
C55	C	1.128555	-0.388391	0.388431
C56	C	1.461888	-0.055058	0.721765
C57	C	1.795221	0.278276	1.055098
C58	C	1.073706	-0.440025	0.439908
C59	C	1.407039	-0.106692	0.773241
C60	C	1.740372	0.226642	1.106575
C61	C	0.963982	-0.440028	0.439924
C62	C	1.297315	-0.106695	0.773257
C63	C	1.630648	0.226639	1.106591
C64	C	0.963966	-0.336761	0.336980
C65	C	1.297299	-0.003427	0.670313
C66	C	1.630632	0.329906	1.003646
C67	C	1.073688	-0.336754	0.336968
C68	C	1.407021	-0.003421	0.670302
C69	C	1.740354	0.329912	1.003635
C70	C	1.518199	-0.597876	0.388401
C71	C	1.851533	-0.264543	0.721735
C72	C	2.184866	0.068790	1.055068
C73	C	1.518253	-0.687498	0.388414
C74	C	1.851586	-0.354164	0.721747
C75	C	2.184920	-0.020831	1.055080
C76	C	1.518436	-1.015673	0.388498
C77	C	1.851770	-0.682340	0.721831
C78	C	2.185103	-0.349006	1.055164
C79	C	1.518382	-0.924365	0.388477
C80	C	1.851715	-0.591031	0.721810
C81	C	2.185049	-0.257698	1.055143
C82	C	1.518344	-0.851588	0.388455
C83	C	1.851677	-0.518255	0.721789
C84	C	2.185010	-0.184922	1.055122
C85	C	1.518291	-0.760274	0.388435
C86	C	1.851624	-0.426941	0.721768
C87	C	2.184958	-0.093607	1.055102
C88	C	1.792332	-0.388396	0.388452
C89	C	2.125665	-0.055063	0.721785
C90	C	2.458999	0.278271	1.055118
C91	C	1.909109	-0.388401	0.388459
C92	C	2.242442	-0.055067	0.721792
C93	C	2.575775	0.278266	1.055125
C94	C	1.518367	-0.388326	0.598744
C95	C	1.851700	-0.054992	0.932077
C96	C	2.185034	0.278341	1.265411
C97	C	1.518396	-0.388300	0.688365
C98	C	1.851730	-0.054967	1.021699
C99	C	2.185063	0.278367	1.355032
C100	C	1.518427	-0.178077	0.388487
C101	C	1.851761	0.155257	0.721820
C102	C	2.185094	0.488590	1.055153
C103	C	1.518482	-0.088456	0.388509
C104	C	1.851815	0.244878	0.721842
C105	C	2.185149	0.578211	1.055175
C106	C	1.518291	-0.388387	0.178944
C107	C	1.851625	-0.055054	0.512278
C108	C	2.184958	0.278279	0.845611
C109	C	1.518466	-0.388186	0.089324
C110	C	1.851799	-0.054852	0.422657
C111	C	2.185132	0.278481	0.755990
C112	C	1.518445	-0.388210	1.016541
C113	C	1.851778	-0.054876	1.349874
C114	C	2.185111	0.278457	1.683208
C115	C	1.518428	-0.388237	0.925233
C116	C	1.851762	-0.054904	1.258566
C117	C	2.185095	0.278429	1.591899
C118	C	1.518421	-0.388255	0.852456
C119	C	1.851754	-0.054922	1.185789
C120	C	2.185088	0.278411	1.519123
C121	C	1.518403	-0.388282	0.761142
C122	C	1.851737	-0.054949	1.094475
C123	C	2.185070	0.278385	1.427808
H124	H	1.118347	-0.294703	0.295050
H125	H	1.451680	0.038631	0.628383
H126	H	1.785014	0.371964	0.961717
C127	C	1.133466	-0.496048	0.495699
C128	C	1.466800	-0.162715	0.829032
C129	C	1.800133	0.170619	1.162366
C130	C	1.241297	-0.485009	0.484659
C131	C	1.574630	-0.151675	0.817992
C132	C	1.907964	0.181658	1.151326
C133	C	1.296377	-0.536610	0.536036
C134	C	1.629711	-0.203276	0.869369
C135	C	1.963044	0.130057	1.202702
H136	H	1.115648	-0.484367	0.549930
H137	H	1.448981	-0.151034	0.883263
H138	H	1.782315	0.182300	1.216596
H139	H	1.115513	-0.550227	0.483796
H140	H	1.448846	-0.216894	0.817130
H141	H	1.782180	0.116440	1.150463
H142	H	1.259243	-0.430842	0.496567
H143	H	1.592577	-0.097509	0.829901
H144	H	1.925910	0.235825	1.163234
H145	H	1.259147	-0.496696	0.430439
H146	H	1.592480	-0.163362	0.763773
H147	H	1.925813	0.169971	1.097106
H148	H	1.278424	-0.590789	0.524133
H149	H	1.611757	-0.257456	0.857466
H150	H	1.945091	0.075878	1.190800
H151	H	1.278551	-0.524924	0.590263
H152	H	1.611884	-0.191591	0.923596
H153	H	1.945217	0.141742	1.256930
H154	H	1.369546	-0.529132	0.528547
H155	H	1.702879	-0.195799	0.861880
H156	H	2.036213	0.137535	1.195214
C157	C	0.904620	-0.496179	0.495842
C158	C	1.237954	-0.162845	0.829176
C159	C	1.571287	0.170488	1.162509
C160	C	0.976160	-0.541409	0.540892
C161	C	1.309493	-0.208075	0.874225
C162	C	1.642826	0.125258	1.207558
C163	C	0.921516	-0.593152	0.592407
C164	C	1.254849	-0.259818	0.925741
C165	C	1.588182	0.073515	1.259074
H166	H	0.861851	-0.465474	0.531109
H167	H	1.195185	-0.132141	0.864442
H168	H	1.528518	0.201193	1.197775
H169	H	0.861804	-0.531315	0.464957
H170	H	1.195137	-0.197982	0.798290
H171	H	1.528470	0.135351	1.131623
H172	H	1.018958	-0.506277	0.571775
H173	H	1.352292	-0.172943	0.905108
H174	H	1.685625	0.160390	1.238442
H175	H	1.018931	-0.572130	0.505646
H176	H	1.352264	-0.238797	0.838980
H177	H	1.685598	0.094537	1.172313
H178	H	0.878699	-0.628288	0.561522
H179	H	1.212032	-0.294955	0.894855
H180	H	1.545366	0.038378	1.228188
H181	H	0.878749	-0.562440	0.627668
H182	H	1.212082	-0.229107	0.961002
H183	H	1.545415	0.104226	1.294335
H184	H	0.970046	-0.623852	0.622974
H185	H	1.303380	-0.290518	0.956307
H186	H	1.636713	0.042815	1.289641
H187	H	0.919279	-0.294721	0.295079
H188	H	1.252613	0.038612	0.628413
H189	H	1.585946	0.371945	0.961746
