data_functionalizedCrystal
_audit_creation_method	'MofGen! by Chris Wilmer'
_symmetry_space_group_name_H-M	'P1'
_symmetry_Int_Tables_number	1
_symmetry_cell_setting	triclinic
loop_
_symmetry_equiv_pos_as_xyz
  x,y,z
_cell_length_a	18.101398
_cell_length_b	18.101395
_cell_length_c	12.759387
_cell_angle_alpha	89.967443
_cell_angle_beta	89.974584
_cell_angle_gamma	90.028835
loop_
_atom_site_label
_atom_site_type_symbol
_atom_site_fract_x
_atom_site_fract_y
_atom_site_fract_z
Zn1	Zn	1.132126	-0.294837	-0.594220
Zn2	Zn	1.132020	-0.418697	-0.418534
Zn3	Zn	1.008283	-0.294869	-0.418532
Zn4	Zn	1.008235	-0.418637	-0.594148
O5	O	1.070166	-0.356760	-0.506358
O6	O	1.235744	-0.311279	-0.570946
O7	O	1.115582	-0.402309	-0.271513
O8	O	1.024775	-0.191232	-0.441866
O9	O	1.235667	-0.402279	-0.441870
O10	O	1.115762	-0.191208	-0.570943
O11	O	1.024673	-0.311333	-0.271511
O12	O	0.904644	-0.311275	-0.441796
O13	O	1.024694	-0.402176	-0.741179
O14	O	0.904609	-0.402206	-0.570821
O15	O	1.115715	-0.311221	-0.741232
O16	O	1.115536	-0.522322	-0.441801
O17	O	1.024591	-0.522277	-0.570823
C18	C	0.877755	-0.356738	-0.506301
C19	C	0.795441	-0.356747	-0.506302
C20	C	0.644733	-0.356762	-0.506349
C21	C	0.613377	-0.299468	-0.425305
C22	C	0.527758	-0.299252	-0.425571
C23	C	0.496350	-0.356777	-0.506394
C24	C	0.527491	-0.335936	-0.617241
C25	C	0.613136	-0.335512	-0.616747
C26	C	0.613129	-0.435044	-0.477523
C27	C	0.527478	-0.434632	-0.475107
C28	C	0.412491	-0.356786	-0.506426
C29	C	0.728592	-0.356750	-0.506324
C30	C	1.070067	-0.549170	-0.506327
C31	C	1.070092	-0.631485	-0.506349
C32	C	1.070255	-0.930575	-0.506406
C33	C	1.013168	-0.899253	-0.587785
C34	C	1.012897	-0.813635	-0.587531
C35	C	1.070174	-0.782193	-0.506379
C36	C	1.049044	-0.813351	-0.395649
C37	C	1.048676	-0.898996	-0.396136
C38	C	1.148597	-0.898920	-0.534782
C39	C	1.148136	-0.813269	-0.537210
C40	C	1.070130	-0.698333	-0.506357
C41	C	1.070297	-1.014435	-0.506421
C42	C	1.263328	-0.356782	-0.506416
C43	C	1.345642	-0.356792	-0.506441
C44	C	1.070211	-0.356688	-0.780392
C45	C	1.070230	-0.356658	-0.897169
C46	C	1.070286	-0.163598	-0.506412
C47	C	1.070337	-0.081284	-0.506435
C48	C	1.164946	-0.451340	-1.116596
C49	C	1.212263	-0.498721	-1.061726
C50	C	1.212239	-0.498749	-0.952004
C51	C	1.164890	-0.451392	-0.897150
C52	C	1.117572	-0.404011	-0.952020
C53	C	1.117603	-0.403986	-1.061744
C54	C	1.022912	-0.309276	-0.952039
C55	C	1.022939	-0.309243	-1.061761
C56	C	0.975563	-0.261919	-0.897185
C57	C	0.928248	-0.214533	-0.952055
C58	C	0.928275	-0.214506	-1.061784
C59	C	0.975622	-0.261861	-1.116631
C60	C	1.070164	-0.356778	-0.233391
C61	C	1.070288	-0.356600	-0.116615
H62	H	0.633141	-0.278299	-0.641112
H63	H	0.955452	-0.920839	-0.569225
C64	C	1.101800	-0.903725	-0.727687
C65	C	1.030831	-0.926992	-0.698983
H66	H	1.112706	-0.920860	-0.796335
H67	H	1.103956	-0.851304	-0.726457
H68	H	1.136871	-0.923245	-0.679742
H69	H	0.995760	-0.907468	-0.746924
H70	H	1.028669	-0.979424	-0.700221
H71	H	0.506090	-0.479583	-0.529792
C72	C	1.094532	-0.470161	-1.273770
C73	C	1.164981	-0.451304	-1.237204
H74	H	1.094557	-0.470134	-1.348229
H75	H	1.081697	-0.517953	-1.248942
H76	H	1.059567	-0.435175	-1.248951
H77	H	1.199946	-0.486293	-1.262016
H78	H	1.177825	-0.403505	-1.262043
H79	H	0.507296	-0.241250	-0.444710
C80	C	1.239209	-0.813813	-0.674079
C81	C	1.169635	-0.785811	-0.647244
H82	H	1.252470	-0.796873	-0.742021
H83	H	1.274775	-0.797291	-0.624643
H84	H	1.237561	-0.866267	-0.673789
H85	H	1.171284	-0.733357	-0.647527
H86	H	1.134060	-0.802329	-0.696693
H87	H	1.164868	-0.451426	-0.807809
H88	H	0.975544	-0.261948	-0.807844
H89	H	0.506700	-0.312256	-0.343393
H90	H	1.192919	-0.791862	-0.482259
H91	H	0.634689	-0.454074	-0.398042
H92	H	1.191129	-0.919176	-0.475510
H93	H	0.507151	-0.376395	-0.679297
C94	C	0.580780	-0.421940	-0.751844
C95	C	0.641149	-0.389411	-0.701090
H96	H	0.598074	-0.455207	-0.803921
H97	H	0.551681	-0.448083	-0.702173
H98	H	0.551650	-0.384590	-0.783874
H99	H	0.670277	-0.426761	-0.669053
H100	H	0.670260	-0.363267	-0.750769
C101	C	0.886175	-0.172517	-0.783867
C102	C	0.876208	-0.162482	-0.891760
H103	H	0.854051	-0.140378	-0.746643
H104	H	0.875296	-0.222273	-0.765882
H105	H	0.935939	-0.161693	-0.765904
H106	H	0.826446	-0.173312	-0.909724
H107	H	0.887082	-0.112715	-0.909752
C108	C	0.526813	-0.241695	-0.749740
C109	C	0.498580	-0.259555	-0.650723
H110	H	0.508961	-0.194542	-0.770407
H111	H	0.579234	-0.240656	-0.746817
H112	H	0.511380	-0.277770	-0.799152
H113	H	0.514018	-0.223483	-0.601309
H114	H	0.446148	-0.260589	-0.653640
C115	C	0.828690	-0.204172	-1.185157
C116	C	0.876257	-0.162424	-1.122091
H117	H	0.796572	-0.172017	-1.222378
H118	H	0.856890	-0.232359	-1.233529
H119	H	0.800337	-0.236446	-1.142328
H120	H	0.904614	-0.130153	-1.164920
H121	H	0.848054	-0.134225	-1.073714
H122	H	1.167861	-0.920464	-0.614150
H123	H	0.507121	-0.450352	-0.393528
H124	H	1.250811	-0.537280	-1.106400
C125	C	1.046125	-0.242955	-1.273819
C126	C	0.975654	-0.261831	-1.237239
H127	H	1.046145	-0.242943	-1.348278
H128	H	1.058946	-0.195176	-1.249018
H129	H	1.081075	-0.277955	-1.248983
H130	H	0.940704	-0.226828	-1.262069
H131	H	0.962825	-0.309616	-1.262051
H132	H	0.633404	-0.477727	-0.536551
H133	H	0.633917	-0.312323	-0.342854
C134	C	0.971766	-0.742381	-0.735143
C135	C	1.030735	-0.785180	-0.698366
H136	H	0.982779	-0.724813	-0.803568
H137	H	0.928249	-0.771681	-0.737300
H138	H	0.964285	-0.701617	-0.689507
H139	H	1.038212	-0.825948	-0.743997
H140	H	1.074265	-0.755879	-0.696215
C141	C	0.582818	-0.174548	-0.471391
C142	C	0.642454	-0.221601	-0.450811
H143	H	0.600770	-0.126477	-0.487136
H144	H	0.555596	-0.192923	-0.529424
H145	H	0.551648	-0.172325	-0.411562
H146	H	0.673621	-0.223829	-0.510644
H147	H	0.669688	-0.203222	-0.392773
C148	C	0.887609	-0.846684	-0.547091
C149	C	0.934510	-0.786056	-0.562138
H150	H	0.839217	-0.829656	-0.531403
H151	H	0.886393	-0.875674	-0.609091
H152	H	0.905407	-0.875831	-0.490559
H153	H	0.916715	-0.756911	-0.618675
H154	H	0.935723	-0.757053	-0.500130
H155	H	0.991409	-0.919038	-0.372100
C156	C	1.134709	-0.866588	-0.260546
C157	C	1.102359	-0.926977	-0.311480
H158	H	1.167843	-0.883862	-0.208277
H159	H	1.160970	-0.837471	-0.310070
H160	H	1.097251	-0.837484	-0.228733
H161	H	1.139816	-0.956079	-0.343300
H162	H	1.076098	-0.956107	-0.261948
C163	C	1.248220	-0.624165	-0.918175
C164	C	1.264248	-0.550833	-0.891683
H165	H	1.280331	-0.656318	-0.880939
H166	H	1.198455	-0.634991	-0.900182
H167	H	1.255017	-0.630921	-0.991372
H168	H	1.257445	-0.544076	-0.818487
H169	H	1.314024	-0.540003	-0.909669
C170	C	0.924688	-0.844277	-0.346878
C171	C	0.972550	-0.784494	-0.362615
H172	H	0.877464	-0.826462	-0.326483
H173	H	0.920255	-0.871598	-0.410098
H174	H	0.943880	-0.875310	-0.293367
H175	H	0.953360	-0.753464	-0.416132
H176	H	0.976981	-0.757161	-0.299387
H177	H	1.089315	-0.792986	-0.333362
