data_functionalizedCrystal
_audit_creation_method	'MofGen! by Chris Wilmer'
_symmetry_space_group_name_H-M	'P1'
_symmetry_Int_Tables_number	1
_symmetry_cell_setting	triclinic
loop_
_symmetry_equiv_pos_as_xyz
  x,y,z
_cell_length_a	12.594517
_cell_length_b	18.215406
_cell_length_c	18.215399
_cell_angle_alpha	89.984834
_cell_angle_beta	89.989849
_cell_angle_gamma	89.996684
loop_
_atom_site_label
_atom_site_type_symbol
_atom_site_fract_x
_atom_site_fract_y
_atom_site_fract_z
Zn1	Zn	1.627366	-0.293073	-0.415991
Zn2	Zn	1.960699	0.040261	-0.082658
Zn3	Zn	2.294032	0.373594	0.250676
Zn4	Zn	1.627308	-0.416144	-0.292952
Zn5	Zn	1.960642	-0.082811	0.040381
Zn6	Zn	2.293975	0.250523	0.373714
Zn7	Zn	1.449374	-0.293087	-0.292959
Zn8	Zn	1.782707	0.040246	0.040374
Zn9	Zn	2.116040	0.373580	0.373707
Zn10	Zn	1.449399	-0.416093	-0.415998
Zn11	Zn	1.782733	-0.082760	-0.082665
Zn12	Zn	2.116066	0.250574	0.250669
O13	O	1.538362	-0.354599	-0.354475
O14	O	1.871695	-0.021266	-0.021142
O15	O	2.205028	0.312068	0.312191
O16	O	1.776304	-0.309414	-0.399664
O17	O	2.109637	0.023920	-0.066331
O18	O	2.442971	0.357253	0.267003
O19	O	1.603670	-0.399847	-0.189969
O20	O	1.937003	-0.066514	0.143364
O21	O	2.270337	0.266819	0.476698
O22	O	1.472998	-0.190101	-0.309280
O23	O	1.806332	0.143233	0.024054
O24	O	2.139665	0.476566	0.357387
O25	O	1.776262	-0.399833	-0.309268
O26	O	2.109595	-0.066500	0.024065
O27	O	2.442928	0.266833	0.357399
O28	O	1.603768	-0.190090	-0.399671
O29	O	1.937102	0.143243	-0.066337
O30	O	2.270435	0.476576	0.266996
O31	O	1.472942	-0.309438	-0.189974
O32	O	1.806276	0.023895	0.143359
O33	O	2.139609	0.357229	0.476693
O34	O	1.300431	-0.309389	-0.309286
O35	O	1.633765	0.023945	0.024047
O36	O	1.967098	0.357278	0.357380
O37	O	1.473042	-0.399747	-0.518981
O38	O	1.806375	-0.066414	-0.185648
O39	O	2.139708	0.266920	0.147685
O40	O	1.300450	-0.399761	-0.399682
O41	O	1.633783	-0.066427	-0.066349
O42	O	1.967117	0.266906	0.266984
O43	O	1.603793	-0.309364	-0.518976
O44	O	1.937126	0.023969	-0.185643
O45	O	2.270460	0.357302	0.147690
O46	O	1.603695	-0.519121	-0.309275
O47	O	1.937028	-0.185788	0.024059
O48	O	2.270361	0.147545	0.357392
O49	O	1.472986	-0.519084	-0.399676
O50	O	1.806319	-0.185751	-0.066342
O51	O	2.139652	0.147583	0.266991
C52	C	1.261821	-0.354571	-0.354486
C53	C	1.595154	-0.021238	-0.021153
C54	C	1.928487	0.312095	0.312180
C55	C	1.143515	-0.354577	-0.354509
C56	C	1.476849	-0.021244	-0.021175
C57	C	1.810182	0.312090	0.312158
C58	C	1.074303	-0.403827	-0.403580
C59	C	1.407637	-0.070493	-0.070247
C60	C	1.740970	0.262840	0.263087
C61	C	1.003468	-0.336728	-0.421670
C62	C	1.336802	-0.003395	-0.088336
C63	C	1.670135	0.329938	0.244997
C64	C	1.003551	-0.421731	-0.336403
C65	C	1.336885	-0.088398	-0.003069
C66	C	1.670218	0.244936	0.330264
C67	C	1.074239	-0.287443	-0.372633
C68	C	1.407572	0.045890	-0.039300
C69	C	1.740905	0.379224	0.294033
C70	C	1.074328	-0.372491	-0.287335
C71	C	1.407661	-0.039157	0.045998
C72	C	1.740995	0.294176	0.379331
C73	C	1.003525	-0.305346	-0.305399
C74	C	1.336858	0.027987	0.027934
C75	C	1.670192	0.361321	0.361267
C76	C	1.538366	-0.545805	-0.354491
C77	C	1.871699	-0.212472	-0.021158
C78	C	2.205032	0.120861	0.312176
C79	C	1.538465	-0.627604	-0.354523
C80	C	1.871798	-0.294271	-0.021189
C81	C	2.205131	0.039062	0.312144
C82	C	1.538427	-0.354548	-0.546428
C83	C	1.871760	-0.021215	-0.213095
C84	C	2.205093	0.312118	0.120238
C85	C	1.538454	-0.354527	-0.628227
C86	C	1.871788	-0.021193	-0.294894
C87	C	2.205121	0.312140	0.038440
C88	C	1.815983	-0.354628	-0.354464
C89	C	2.149316	-0.021294	-0.021131
C90	C	2.482649	0.312039	0.312202
C91	C	1.934288	-0.354640	-0.354460
C92	C	2.267621	-0.021306	-0.021126
C93	C	2.600955	0.312027	0.312207
C94	C	1.538387	-0.162646	-0.354475
C95	C	1.871720	0.170687	-0.021142
C96	C	2.205054	0.504020	0.312191
C97	C	1.538398	-0.080847	-0.354475
C98	C	1.871731	0.252486	-0.021142
C99	C	2.205064	0.585819	0.312191
C100	C	1.470339	0.107342	-0.307435
C101	C	1.803673	0.440676	0.025898
C102	C	2.137006	0.774009	0.359231
C103	C	1.470348	0.184201	-0.307444
C104	C	1.803682	0.517534	0.025889
C105	C	2.137015	0.850868	0.359223
C106	C	1.606526	0.184201	-0.401568
C107	C	1.939859	0.517534	-0.068235
C108	C	2.273192	0.850867	0.265099
C109	C	1.606511	0.107343	-0.401562
C110	C	1.939844	0.440677	-0.068229
C111	C	2.273178	0.774010	0.265105
C112	C	1.538419	0.068916	-0.354492
C113	C	1.871753	0.402250	-0.021158
C114	C	2.205086	0.735583	0.312175
C115	C	1.538443	0.222632	-0.354506
C116	C	1.871776	0.555966	-0.021173
C117	C	2.205110	0.889299	0.312160
C118	C	1.538453	0.305966	-0.354516
C119	C	1.871786	0.639299	-0.021183
C120	C	2.205120	0.972633	0.312150
C121	C	1.538408	-0.014423	-0.354482
C122	C	1.871741	0.318911	-0.021149
C123	C	2.205074	0.652244	0.312184
C124	C	1.606561	-0.307421	-0.816420
C125	C	1.939894	0.025913	-0.483086
C126	C	2.273228	0.359246	-0.149753
C127	C	1.606574	-0.307399	-0.893278
C128	C	1.939907	0.025934	-0.559945
C129	C	2.273240	0.359268	-0.226612
C130	C	1.470423	-0.401519	-0.893272
C131	C	1.803756	-0.068186	-0.559939
C132	C	2.137089	0.265147	-0.226606
C133	C	1.470406	-0.401536	-0.816415
C134	C	1.803739	-0.068203	-0.483082
C135	C	2.137072	0.265130	-0.149748
C136	C	1.538481	-0.354488	-0.777991
C137	C	1.871814	-0.021155	-0.444657
C138	C	2.205147	0.312179	-0.111324
C139	C	1.538511	-0.354449	-0.931707
C140	C	1.871844	-0.021116	-0.598374
C141	C	2.205177	0.312217	-0.265040
C142	C	1.538524	-0.354427	-1.015041
C143	C	1.871857	-0.021093	-0.681707
C144	C	2.205190	0.312240	-0.348374
C145	C	1.538466	-0.354510	-0.694652
C146	C	1.871800	-0.021177	-0.361318
C147	C	2.205133	0.312157	-0.027985
C148	C	1.538358	-0.354597	-0.163269
C149	C	1.871692	-0.021263	0.170064
C150	C	2.205025	0.312070	0.503398
C151	C	1.538537	-0.354411	-0.081470
C152	C	1.871870	-0.021078	0.251863
C153	C	2.205204	0.312256	0.585196
H154	H	0.972644	-0.263676	-0.263881
H155	H	1.305977	0.069657	0.069453
H156	H	1.639311	0.402991	0.402786
O157	O	0.962437	-0.496926	-0.316144
O158	O	1.295770	-0.163593	0.017189
O159	O	1.629103	0.169740	0.350522
H160	H	0.874316	-0.496144	-0.315802
H161	H	1.207649	-0.162811	0.017531
H162	H	1.540983	0.170522	0.350864
O163	O	1.397002	-0.452264	-0.934715
O164	O	1.730335	-0.118931	-0.601381
O165	O	2.063669	0.214402	-0.268048
H166	H	1.408456	-0.444350	-0.994615
H167	H	1.741789	-0.111017	-0.661282
H168	H	2.075122	0.222317	-0.327948
H169	H	1.414892	0.076057	-0.269109
H170	H	1.748226	0.409391	0.064224
H171	H	2.081559	0.742724	0.397558
H172	H	1.105476	-0.387640	-0.230565
H173	H	1.438809	-0.054307	0.102768
H174	H	1.772143	0.279026	0.436101
O175	O	1.679941	0.065895	-0.452324
O176	O	2.013274	0.399229	-0.118991
O177	O	2.346608	0.732562	0.214343
H178	H	1.668479	0.005996	-0.444418
H179	H	2.001812	0.339330	-0.111085
H180	H	2.335145	0.672663	0.222248
H181	H	1.661989	-0.269109	-0.785137
H182	H	1.995322	0.064225	-0.451803
H183	H	2.328656	0.397558	-0.118470
H184	H	1.414910	0.215486	-0.269128
H185	H	1.748244	0.548819	0.064206
H186	H	2.081577	0.882152	0.397539
O187	O	1.396942	-0.452283	-0.774958
O188	O	1.730276	-0.118950	-0.441624
O189	O	2.063609	0.214384	-0.108291
H190	H	1.349608	-0.484995	-0.814587
H191	H	1.682941	-0.151662	-0.481254
H192	H	2.016275	0.181671	-0.147921
H193	H	1.661966	0.215496	-0.439891
H194	H	1.995299	0.548829	-0.106557
H195	H	2.328633	0.882163	0.226776
H196	H	1.105383	-0.445395	-0.445131
H197	H	1.438716	-0.112062	-0.111798
H198	H	1.772050	0.221271	0.221535
H199	H	1.662010	-0.269071	-0.924564
H200	H	1.995343	0.064263	-0.591231
H201	H	2.328676	0.397596	-0.257897
H202	H	1.105160	-0.230662	-0.387991
H203	H	1.438493	0.102672	-0.054658
H204	H	1.771827	0.436005	0.278676
O205	O	0.962065	-0.316759	-0.496862
O206	O	1.295398	0.016574	-0.163529
O207	O	1.628731	0.349907	0.169805
H208	H	0.990344	-0.357720	-0.537511
H209	H	1.323677	-0.024387	-0.204178
H210	H	1.657010	0.308946	0.129155
