data_functionalizedCrystal
_audit_creation_method	'MofGen! by Chris Wilmer'
_symmetry_space_group_name_H-M	'P1'
_symmetry_Int_Tables_number	1
_symmetry_cell_setting	triclinic
loop_
_symmetry_equiv_pos_as_xyz
  x,y,z
_cell_length_a	6.394989
_cell_length_b	17.699083
_cell_length_c	16.776229
_cell_angle_alpha	90.001114
_cell_angle_beta	89.996513
_cell_angle_gamma	95.109637
loop_
_atom_site_label
_atom_site_type_symbol
_atom_site_fract_x
_atom_site_fract_y
_atom_site_fract_z
O1	O	0.264131	-1.006774	-0.066171
O2	O	0.298495	-0.786746	-0.066196
O3	O	-0.022767	-0.899883	-0.066184
O4	O	0.585393	-0.893637	-0.066183
O5	O	-0.022786	-0.899868	0.066392
O6	O	0.298476	-0.786731	0.066380
O7	O	0.264112	-1.006758	0.066406
Zn8	Zn	0.281290	-0.896742	0.087442
Zn9	Zn	0.281316	-0.896763	-0.087233
O10	O	0.585374	-0.893621	0.066393
C11	C	0.297254	-0.758529	0.000089
C12	C	0.293560	-0.674473	0.000079
C13	C	0.663199	-0.894864	0.000102
C14	C	0.899414	-0.898639	0.000100
C15	C	0.265353	-1.034976	0.000119
C16	C	0.269047	-1.119031	0.000124
N17	N	0.281271	-0.896733	0.206653
N18	N	0.281319	-0.896777	-0.206444
C19	C	0.482134	-0.627777	0.000079
C20	C	0.478651	-0.548798	0.000089
C21	C	0.286591	-0.516517	0.000094
C22	C	0.098003	-0.563220	0.000096
C23	C	0.101488	-0.642197	0.000091
C24	C	0.083942	-0.244713	0.000115
C25	C	0.080470	-0.165730	0.000117
C26	C	0.461104	-0.151314	0.000114
C27	C	0.464590	-0.230291	0.000109
C28	C	0.276002	-0.276987	0.000115
C29	C	0.279782	-0.362625	0.000106
C30	C	0.282810	-0.430881	0.000098
C31	C	0.139075	-0.946847	0.248376
C32	C	0.139073	-0.946851	0.331828
C33	C	0.281280	-0.896745	0.373556
C34	C	0.423483	-0.846626	0.331828
C35	C	0.423473	-0.846619	0.248377
C36	C	0.423524	-0.846654	0.668375
C37	C	0.423527	-0.846667	0.751832
C38	C	0.139124	-0.946886	0.751826
C39	C	0.139114	-0.946879	0.668375
C40	C	0.281309	-0.896758	0.626654
C41	C	0.281307	-0.896753	0.536166
C42	C	0.281294	-0.896753	0.464043
H43	H	0.638531	-0.654053	0.000075
C44	C	-0.017317	-1.001994	0.622474
C45	C	-0.017327	-1.001986	0.530682
C46	C	-0.173767	-1.057100	0.484781
C47	C	-0.330197	-1.112222	0.530673
C48	C	-0.330193	-1.112233	0.622470
C49	C	-0.173753	-1.057119	0.668371
H50	H	0.098477	-0.961179	0.496705
H51	H	-0.173769	-1.057092	0.416826
H52	H	-0.446003	-1.153021	0.496694
H53	H	-0.445997	-1.153040	0.656447
H54	H	-0.173751	-1.057127	0.736326
H55	H	0.023285	-0.987656	0.365798
H56	H	0.614661	-0.113284	0.000113
C57	C	0.579916	-0.791508	0.377725
C58	C	0.580044	-0.791549	0.469517
C59	C	0.736488	-0.736430	0.515411
C60	C	0.892804	-0.681271	0.469512
C61	C	0.892682	-0.681228	0.377715
C62	C	0.736238	-0.736346	0.331821
H63	H	0.464325	-0.832383	0.503499
H64	H	0.736578	-0.736462	0.583366
H65	H	1.008613	-0.640469	0.503485
H66	H	1.008401	-0.640394	0.343733
H67	H	0.736148	-0.736314	0.263866
H68	H	-0.069618	-0.282724	0.000121
H69	H	0.632207	-0.510780	0.000089
H70	H	-0.058376	-0.536930	0.000110
H71	H	0.023283	-0.987652	0.214406
C72	C	-0.105946	-0.693567	0.000088
C73	C	-0.263444	-0.688657	0.068934
C74	C	-0.470884	-0.740027	0.068936
C75	C	-0.520825	-0.796307	0.000093
C76	C	-0.363322	-0.801219	-0.068758
C77	C	-0.155882	-0.749849	-0.068760
H78	H	-0.226479	-0.646994	0.119900
H79	H	-0.587477	-0.736391	0.119904
H80	H	-0.674384	-0.834334	0.000094
H81	H	-0.400288	-0.842882	-0.119724
H82	H	-0.039289	-0.753485	-0.119728
H83	H	-0.075937	-0.139450	0.000122
H84	H	0.620984	-0.256569	0.000102
H85	H	0.539261	-0.805811	0.214408
H86	H	0.023334	-0.987695	0.785804
H87	H	0.539308	-0.805845	0.634412
H88	H	0.539333	-0.805862	0.785805
