data_functionalizedCrystal
_audit_creation_method	'MofGen! by Chris Wilmer'
_symmetry_space_group_name_H-M	'P1'
_symmetry_Int_Tables_number	1
_symmetry_cell_setting	triclinic
loop_
_symmetry_equiv_pos_as_xyz
  x,y,z
_cell_length_a	6.817900
_cell_length_b	8.749629
_cell_length_c	14.858572
_cell_angle_alpha	93.945660
_cell_angle_beta	104.524003
_cell_angle_gamma	105.181975
loop_
_atom_site_label
_atom_site_type_symbol
_atom_site_fract_x
_atom_site_fract_y
_atom_site_fract_z
V1	V	-4.045983	-0.219796	-0.288748
O2	O	-4.025280	0.009538	-0.284493
O3	O	-4.004918	-0.434833	-0.285579
O4	O	-4.002521	-0.216864	-0.415226
O5	O	-4.027694	-0.209940	-0.153949
V6	V	-4.528020	-0.192312	-0.272770
O7	O	-4.310500	-0.280084	-0.323797
O8	O	-4.713701	-0.132023	-0.237721
O9	O	-4.345878	0.022726	-0.275939
O10	O	-4.666120	-0.421646	-0.277024
O11	O	-4.663706	-0.202168	-0.407569
O12	O	-4.348276	-0.195243	-0.146292
C13	C	-3.851544	-0.487241	-0.280715
C14	C	-3.899289	-0.663039	-0.278967
C15	C	-3.848484	-0.209198	-0.446092
C16	C	-3.894281	-0.208224	-0.549480
C17	C	-4.061899	-0.204664	-0.928068
C18	C	-4.015254	-0.205655	-0.822733
C19	C	-3.978092	-0.206445	-0.738778
C20	C	-3.931444	-0.207433	-0.633436
C21	C	-4.162595	0.075125	-0.280800
C22	C	-4.094088	0.250922	-0.282554
C23	C	-4.165654	-0.202915	-0.115421
C24	C	-4.099096	-0.203881	-0.012032
H25	H	-4.224350	-0.688243	-0.286971
H26	H	-3.769039	-0.723870	-0.274560
