data_functionalizedCrystal
_audit_creation_method	'MofGen! by Chris Wilmer'
_symmetry_space_group_name_H-M	'P1'
_symmetry_Int_Tables_number	1
_symmetry_cell_setting	triclinic
loop_
_symmetry_equiv_pos_as_xyz
  x,y,z
_cell_length_a	16.625548
_cell_length_b	13.897448
_cell_length_c	16.625539
_cell_angle_alpha	90.025684
_cell_angle_beta	89.982945
_cell_angle_gamma	89.981240
loop_
_atom_site_label
_atom_site_type_symbol
_atom_site_fract_x
_atom_site_fract_y
_atom_site_fract_z
Zn1	Zn	1.232679	0.384003	-0.455914
Zn2	Zn	1.566013	0.717337	-0.122580
Zn3	Zn	1.899346	1.050670	0.210753
Zn4	Zn	1.232602	0.545311	-0.321083
Zn5	Zn	1.565935	0.878645	0.012251
Zn6	Zn	1.899269	1.211978	0.345584
Zn7	Zn	1.097849	0.384035	-0.321094
Zn8	Zn	1.431183	0.717368	0.012239
Zn9	Zn	1.764516	1.050702	0.345573
Zn10	Zn	1.097823	0.545261	-0.455872
Zn11	Zn	1.431156	0.878594	-0.122539
Zn12	Zn	1.764489	1.211928	0.210794
O13	O	1.165238	0.464653	-0.388491
O14	O	1.498572	0.797986	-0.055157
O15	O	1.831905	1.131319	0.278176
O16	O	1.345501	0.405409	-0.438040
O17	O	1.678835	0.738742	-0.104707
O18	O	2.012168	1.072076	0.228626
O19	O	1.214706	0.523952	-0.208252
O20	O	1.548039	0.857285	0.125082
O21	O	1.881372	1.190618	0.458415
O22	O	1.115778	0.249049	-0.339000
O23	O	1.449112	0.582382	-0.005667
O24	O	1.782445	0.915716	0.327666
O25	O	1.345445	0.523921	-0.338981
O26	O	1.678778	0.857255	-0.005647
O27	O	2.012111	1.190588	0.327686
O28	O	1.214837	0.249026	-0.438052
O29	O	1.548171	0.582359	-0.104718
O30	O	1.881504	0.915693	0.228615
O31	O	1.115703	0.405463	-0.208260
O32	O	1.449037	0.738796	0.125073
O33	O	1.782370	1.072129	0.458407
O34	O	0.985013	0.405414	-0.338960
O35	O	1.318347	0.738747	-0.005627
O36	O	1.651680	1.072081	0.327706
O37	O	1.115733	0.523836	-0.568710
O38	O	1.449066	0.857169	-0.235377
O39	O	1.782400	1.190502	0.097956
O40	O	0.984994	0.523866	-0.437981
O41	O	1.318327	0.857200	-0.104648
O42	O	1.651661	1.190533	0.228685
O43	O	1.214811	0.405360	-0.568741
O44	O	1.548145	0.738694	-0.235407
O45	O	1.881478	1.072027	0.097926
O46	O	1.214680	0.680286	-0.338941
O47	O	1.548013	1.013620	-0.005607
O48	O	1.881346	1.346953	0.327726
O49	O	1.115658	0.680249	-0.437970
O50	O	1.448991	1.013583	-0.104637
O51	O	1.782325	1.346916	0.228696
C52	C	0.955747	0.464639	-0.388468
C53	C	1.289081	0.797972	-0.055135
C54	C	1.622414	1.131306	0.278199
C55	C	0.866126	0.464656	-0.388478
C56	C	1.199460	0.797990	-0.055144
C57	C	1.532793	1.131323	0.278189
C58	C	1.165179	0.715267	-0.388467
C59	C	1.498513	1.048600	-0.055134
C60	C	1.831846	1.381934	0.278199
C61	C	1.165228	0.822481	-0.388484
C62	C	1.498561	1.155814	-0.055151
C63	C	1.831895	1.489148	0.278182
C64	C	1.165278	0.464589	-0.598800
C65	C	1.498611	0.797922	-0.265466
C66	C	1.831945	1.131256	0.067867
C67	C	1.165295	0.464562	-0.688421
C68	C	1.498628	0.797895	-0.355088
C69	C	1.831961	1.131229	-0.021754
C70	C	0.537951	0.464663	-0.388512
C71	C	0.871284	0.797996	-0.055179
C72	C	1.204617	1.131329	0.278155
C73	C	0.629259	0.464658	-0.388500
C74	C	0.962593	0.797991	-0.055167
C75	C	1.295926	1.131325	0.278167
C76	C	0.702036	0.464660	-0.388494
C77	C	1.035369	0.797993	-0.055161
C78	C	1.368702	1.131327	0.278172
C79	C	0.793350	0.464654	-0.388483
C80	C	1.126683	0.797988	-0.055150
C81	C	1.460017	1.131321	0.278183
C82	C	1.375547	0.464667	-0.388514
C83	C	1.708881	0.798001	-0.055180
C84	C	2.042214	1.131334	0.278153
C85	C	1.465168	0.464673	-0.388524
C86	C	1.798502	0.798007	-0.055190
C87	C	2.131835	1.131340	0.278143
C88	C	1.165319	0.213060	-0.388532
C89	C	1.498653	0.546393	-0.055198
C90	C	1.831986	0.879726	0.278135
C91	C	1.165354	0.105846	-0.388549
C92	C	1.498687	0.439179	-0.055216
C93	C	1.832021	0.772512	0.278117
C94	C	1.165313	1.018776	-0.388535
C95	C	1.498646	1.352109	-0.055202
C96	C	1.831979	1.685443	0.278132
C97	C	1.165263	0.909544	-0.388509
C98	C	1.498597	1.242877	-0.055176
C99	C	1.831930	1.576210	0.278157
C100	C	1.165308	0.464541	-0.761203
C101	C	1.498641	0.797874	-0.427870
C102	C	1.831975	1.131207	-0.094537
C103	C	1.165327	0.464505	-0.852512
C104	C	1.498660	0.797838	-0.519179
C105	C	1.831993	1.131171	-0.185845
C106	C	1.165346	0.464471	-0.925288
C107	C	1.498679	0.797804	-0.591955
C108	C	1.832012	1.131137	-0.258622
C109	C	1.165366	0.464436	-1.016603
C110	C	1.498699	0.797769	-0.683269
C111	C	1.832032	1.131103	-0.349936
C112	C	1.165245	0.464647	-0.179000
C113	C	1.498579	0.797980	0.154333
C114	C	1.831912	1.131313	0.487667
C115	C	1.165385	0.464402	-0.089379
C116	C	1.498718	0.797735	0.243954
C117	C	1.832051	1.131069	0.577287
