data_functionalizedCrystal
_audit_creation_method	'MofGen! by Chris Wilmer'
_symmetry_space_group_name_H-M	'P1'
_symmetry_Int_Tables_number	1
_symmetry_cell_setting	triclinic
loop_
_symmetry_equiv_pos_as_xyz
  x,y,z
_cell_length_a	23.532407
_cell_length_b	15.944551
_cell_length_c	15.021413
_cell_angle_alpha	90.002826
_cell_angle_beta	89.999348
_cell_angle_gamma	96.826292
loop_
_atom_site_label
_atom_site_type_symbol
_atom_site_fract_x
_atom_site_fract_y
_atom_site_fract_z
O1	O	0.073442	-1.113910	-0.073949
O2	O	0.082498	-0.869284	-0.073972
O3	O	-0.004933	-0.998974	-0.073943
O4	O	0.160873	-0.984220	-0.073977
O5	O	-0.004921	-0.998953	0.074121
O6	O	0.082510	-0.869263	0.074092
O7	O	0.073455	-1.113889	0.074116
Zn8	Zn	0.077985	-0.991573	0.097612
Zn9	Zn	0.077968	-0.991600	-0.097469
O10	O	0.160886	-0.984200	0.074087
C11	C	0.082128	-0.837983	0.000057
C12	C	0.081001	-0.744746	0.000049
C13	C	-0.026144	-0.998588	0.000091
C14	C	-0.089366	-0.997458	0.000098
C15	C	0.073824	-1.145190	0.000084
C16	C	0.074951	-1.238427	0.000087
C17	C	-0.488199	-1.067121	0.000056
C18	C	-0.547603	-1.066072	0.000049
O19	O	-0.584098	-1.130650	0.000022
N20	N	-0.570528	-0.988971	0.000042
C21	C	-0.534045	-0.912915	0.000033
O22	O	-0.558999	-0.847239	0.000026
C23	C	-0.474642	-0.913965	0.000034
C24	C	-0.451721	-0.991071	0.000049
C25	C	-0.465277	-1.144220	0.000070
C26	C	-0.405877	-1.145269	0.000079
C27	C	-0.369399	-1.069219	0.000073
C28	C	-0.392320	-0.992120	0.000058
C29	C	-0.438160	-0.837910	0.000018
C30	C	-0.378754	-0.838967	0.000018
C31	C	-0.355832	-0.916072	0.000034
C32	C	-0.296442	-0.917118	0.000060
N33	N	-0.273517	-0.994219	0.000067
C34	C	-0.309995	-1.070269	0.000073
C35	C	-0.658796	-0.910716	0.000031
C36	C	-0.718198	-0.909664	0.000037
C37	C	-0.731752	-1.062821	0.000050
C38	C	-0.672349	-1.063872	0.000051
C39	C	-0.635871	-0.987816	0.000037
C40	C	-0.185250	-1.072466	0.000092
C41	C	-0.125844	-1.073508	0.000104
C42	C	-0.112295	-0.920352	0.000085
C43	C	-0.171696	-0.919309	0.000078
C44	C	-0.208173	-0.995373	0.000078
O45	O	-0.259913	-0.852574	0.000083
O46	O	-0.285033	-1.135935	0.000069
C47	C	0.182097	-0.984586	0.000051
C48	C	0.245318	-0.985715	0.000038
N49	N	0.077995	-0.991561	0.230750
C50	C	0.024113	-0.530369	0.000078
C51	C	0.050524	-0.469137	-0.072931
C52	C	0.078962	-0.574038	0.000060
C53	C	0.050549	-0.469138	0.073049
C54	C	0.076989	-0.409142	0.000075
C55	C	0.105388	-0.514033	-0.073009
C56	C	0.105405	-0.514041	0.073036
C57	C	0.131856	-0.452826	0.000010
C58	C	0.080097	-0.669030	0.000051
C59	C	0.075858	-0.314150	0.000077
N60	N	0.077953	-0.991619	-0.230606
C61	C	0.118404	-0.931583	0.470420
C62	C	0.129461	-1.007390	0.529759
C63	C	0.077981	-0.991582	0.412357
C64	C	0.066938	-0.915796	0.529760
C65	C	0.077969	-0.991596	0.587781
C66	C	0.089063	-1.067428	0.470389
C67	C	0.026518	-0.975783	0.470385
C68	C	0.037552	-1.051645	0.529697
C69	C	0.077990	-0.991573	0.311300
C70	C	0.077960	-0.991614	0.688836
H71	H	-0.107185	-1.136300	0.000119
O72	O	-0.383549	-1.220118	-0.000036
C73	C	-0.324394	-1.310236	-0.076775
C74	C	-0.349624	-1.225426	-0.076738
H75	H	-0.296970	-1.314562	-0.138791
H76	H	-0.296886	-1.314577	-0.014853
H77	H	-0.360688	-1.364387	-0.076732
H78	H	-0.313366	-1.171227	-0.076812
H79	H	-0.377147	-1.221159	-0.138654
O80	O	0.100176	-1.143962	0.439436
C81	C	0.070480	-1.293845	0.435226
C82	C	0.057813	-1.207234	0.470342
H83	H	0.036244	-1.345025	0.460214
H84	H	0.070383	-1.293235	0.359335
H85	H	0.114221	-1.307397	0.460184
H86	H	0.014071	-1.193627	0.445450
H87	H	0.057947	-1.207887	0.546231
O88	O	-0.076936	-0.846403	0.000112
C89	C	-0.069744	-0.694381	0.000013
C90	C	-0.109855	-0.778065	0.000015
H91	H	-0.096344	-0.639108	-0.000084
H92	H	-0.041603	-0.690971	0.061990
H93	H	-0.041585	-0.691116	-0.061939
H94	H	-0.138051	-0.781387	0.061925
H95	H	-0.137958	-0.781440	-0.062003
O96	O	-0.003300	-1.112134	0.560601
C97	C	-0.089430	-1.142735	0.647285
C98	C	-0.043213	-1.074143	0.612328
H99	H	-0.121704	-1.112047	0.689128
H100	H	-0.112313	-1.177401	0.588679
H101	H	-0.068458	-1.189550	0.689978
H102	H	-0.064139	-1.027273	0.569648
H103	H	-0.020334	-1.039541	0.670973
O104	O	0.022794	-0.445511	0.146658
C105	C	-0.065386	-0.458467	0.229800
C106	C	-0.034013	-0.485307	0.146420
H107	H	-0.111324	-0.490616	0.229626
H108	H	-0.042489	-0.477855	0.292043
H109	H	-0.065578	-0.387004	0.229427
H110	H	-0.033812	-0.556766	0.146706
H111	H	-0.056920	-0.465857	0.084214
O112	O	0.133071	-0.537965	0.146593
C113	C	0.165503	-0.653160	0.228586
C114	C	0.134177	-0.626177	0.145226
H115	H	0.166397	-0.724483	0.227519
H116	H	0.211196	-0.620080	0.229221
H117	H	0.142069	-0.634892	0.290771
H118	H	0.157564	-0.644441	0.082997
H119	H	0.088482	-0.659251	0.144670
H120	H	0.152617	-0.880895	0.444393
O121	O	-0.025357	-0.959651	0.439281
C122	C	-0.095657	-0.861512	0.434232
C123	C	-0.036896	-0.879678	0.469502
H124	H	-0.105011	-0.796863	0.458667
H125	H	-0.095285	-0.862224	0.358344
H126	H	-0.130199	-0.912040	0.459626
H127	H	-0.002322	-0.829170	0.444174
H128	H	-0.037316	-0.878997	0.545388
O129	O	-0.030206	-0.570537	-0.000154
C130	C	-0.120482	-0.593330	-0.077357
C131	C	-0.058980	-0.547797	-0.077208
H132	H	-0.143767	-0.574948	-0.139639
H133	H	-0.119146	-0.664567	-0.076782
H134	H	-0.144077	-0.574136	-0.015717
H135	H	-0.035349	-0.566921	-0.138838
H136	H	-0.060356	-0.476570	-0.077737
O137	O	0.181413	-1.023206	0.560838
C138	C	0.282764	-0.977887	0.565853
C139	C	0.223962	-0.959872	0.530619
H140	H	0.317182	-0.926702	0.541420
H141	H	0.282165	-0.978310	0.641741
H142	H	0.292481	-1.042030	0.540432
H143	H	0.214208	-0.895728	0.555975
H144	H	0.224591	-0.959504	0.454732
H145	H	-0.190359	-0.856524	0.000090
H146	H	0.027320	-0.449230	-0.134645
O147	O	0.055864	-0.839260	0.560763
C148	C	0.086004	-0.689521	0.565843
C149	C	0.098599	-0.776143	0.530661
H150	H	0.120554	-0.638471	0.541536
H151	H	0.042486	-0.675488	0.540374
H152	H	0.085665	-0.690491	0.641728
H153	H	0.098968	-0.775238	0.454779
H154	H	0.142109	-0.790143	0.556199
O155	O	0.132997	-0.537797	-0.146702
C156	C	0.165061	-0.652876	-0.229355
C157	C	0.133773	-0.626080	-0.145872
H158	H	0.165710	-0.724252	-0.228702
H159	H	0.141834	-0.634067	-0.291519
H160	H	0.210844	-0.620128	-0.229616
H161	H	0.087990	-0.658815	-0.145525
H162	H	0.157045	-0.644873	-0.083745
H163	H	-0.214943	-1.134405	0.000089
O164	O	-0.343296	-0.765106	-0.000150
C165	C	-0.268336	-0.677437	-0.076836
C166	C	-0.308466	-0.761103	-0.076770
H167	H	-0.240158	-0.674180	-0.138767
H168	H	-0.294898	-0.622120	-0.076905
H169	H	-0.240215	-0.674096	-0.014841
H170	H	-0.336596	-0.764526	-0.138755
H171	H	-0.281870	-0.816380	-0.076654
O172	O	0.186224	-0.412840	-0.000203
C173	C	0.276535	-0.390409	-0.077345
C174	C	0.214975	-0.435732	-0.077220
H175	H	0.299801	-0.408914	-0.139597
H176	H	0.275318	-0.319147	-0.076810
H177	H	0.300072	-0.409660	-0.015674
H178	H	0.191402	-0.416551	-0.138881
H179	H	0.216233	-0.506986	-0.077709
H180	H	-0.761464	-1.124746	0.000052
O181	O	-0.500649	-1.218158	-0.000039
C182	C	-0.530418	-1.348740	-0.076746
C183	C	-0.490324	-1.265040	-0.076731
H184	H	-0.522093	-1.386660	-0.138754
H185	H	-0.522066	-1.386750	-0.014816
H186	H	-0.576812	-1.334745	-0.076702
H187	H	-0.443916	-1.278959	-0.076806
H188	H	-0.498726	-1.227056	-0.138655
O189	O	-0.650112	-1.138792	-0.000100
C190	C	-0.643565	-1.270048	-0.076772
C191	C	-0.668771	-1.185220	-0.076719
H192	H	-0.658650	-1.307617	-0.138702
H193	H	-0.594839	-1.257794	-0.076834
H194	H	-0.658578	-1.307560	-0.014776
H195	H	-0.653802	-1.147665	-0.138705
H196	H	-0.717494	-1.197533	-0.076611
O197	O	-0.740433	-0.834743	-0.000127
C198	C	-0.746977	-0.703505	-0.076824
C199	C	-0.721772	-0.788335	-0.076753
H200	H	-0.731890	-0.665953	-0.138760
H201	H	-0.795703	-0.715758	-0.076886
H202	H	-0.731964	-0.665978	-0.014834
H203	H	-0.736741	-0.825906	-0.138733
H204	H	-0.673049	-0.776023	-0.076645
O205	O	-0.623340	-0.836852	-0.000127
C206	C	-0.548386	-0.749165	-0.076808
C207	C	-0.588512	-0.832836	-0.076749
H208	H	-0.520209	-0.745899	-0.138740
H209	H	-0.574952	-0.693853	-0.076869
H210	H	-0.520264	-0.745827	-0.014814
H211	H	-0.616643	-0.836256	-0.138732
H212	H	-0.561912	-0.888109	-0.076642
H213	H	-0.456812	-0.775123	0.000000
