data_functionalizedCrystal
_audit_creation_method	'MofGen! by Chris Wilmer'
_symmetry_space_group_name_H-M	'P1'
_symmetry_Int_Tables_number	1
_symmetry_cell_setting	triclinic
loop_
_symmetry_equiv_pos_as_xyz
  x,y,z
_cell_length_a	10.654550
_cell_length_b	14.472310
_cell_length_c	10.654551
_cell_angle_alpha	89.998156
_cell_angle_beta	84.485132
_cell_angle_gamma	90.016585
loop_
_atom_site_label
_atom_site_type_symbol
_atom_site_fract_x
_atom_site_fract_y
_atom_site_fract_z
O1	O	1.667858	0.076911	0.176390
O2	O	1.302380	0.076895	0.193196
O3	O	1.493521	0.076904	0.002054
O4	O	1.476717	0.076902	0.367532
O5	O	1.493472	-0.076778	0.002065
O6	O	1.302330	-0.076787	0.193207
O7	O	1.667809	-0.076771	0.176401
Cu8	Cu	1.485065	-0.090811	0.184805
Cu9	Cu	1.485124	0.090935	0.184792
O10	O	1.476667	-0.076780	0.367543
C11	C	1.255557	0.000052	0.191968
C12	C	1.116114	0.000047	0.188276
N13	N	1.485033	-0.218642	0.184813
C14	C	1.036629	0.000060	0.300817
C15	C	0.905608	0.000076	0.297341
C16	C	0.933570	0.000070	0.068771
C17	C	1.064589	0.000047	0.072249
C18	C	1.088154	0.000059	0.416844
C19	C	1.008667	0.000073	0.529395
C20	C	0.877647	0.000089	0.525918
C21	C	0.826112	0.000091	0.409891
C22	C	1.485122	-0.592734	0.184787
C23	C	1.382497	-0.553572	0.286714
C24	C	1.382739	-0.446484	0.287092
C25	C	1.485077	-0.407143	0.184800
C26	C	1.616369	-0.445974	0.214563
C27	C	1.615794	-0.553096	0.215289
C28	C	1.457621	-0.553264	0.052802
C29	C	1.454623	-0.446136	0.053654
C30	C	1.485059	-0.302254	0.184805
C31	C	1.485148	-0.697622	0.184785
C32	C	1.714632	0.000074	0.177629
C33	C	1.854075	0.000085	0.181321
N34	N	1.485166	0.218766	0.184774
C35	C	1.492263	0.000065	-0.044739
C36	C	1.488570	0.000071	-0.184182
C37	C	1.486865	0.083841	-0.249700
C38	C	1.483385	0.083837	-0.380720
C39	C	1.483320	-0.083716	-0.380694
C40	C	1.486791	-0.083710	-0.249675
C41	C	1.488644	0.167622	-0.184207
C42	C	1.486940	0.251400	-0.249725
C43	C	1.483460	0.251395	-0.380745
C44	C	1.481683	0.167614	-0.446247
C45	C	1.477926	0.000061	0.414336
C46	C	1.481619	0.000061	0.553779
H47	H	1.050636	0.000064	0.623860
H48	H	1.488374	0.319611	-0.196383
H49	H	1.194836	0.000051	0.419687
H50	H	1.481875	-0.151927	-0.434036
H51	H	0.891600	0.000086	-0.025693
H52	H	1.129308	0.000039	-0.019392
H53	H	1.400420	-0.420849	0.385012
H54	H	1.482059	0.319611	-0.434085
H55	H	0.812932	0.000091	0.617562
C56	C	1.649257	-0.410383	0.341573
C57	C	1.664114	-0.485235	0.422075
C58	C	1.694420	-0.452488	0.539084
H59	H	1.583380	-0.371615	0.377459
H60	H	1.725634	-0.376173	0.330451
H61	H	1.587747	-0.519430	0.433200
H62	H	1.729995	-0.524010	0.386229
H63	H	1.770797	-0.418278	0.527962
H64	H	1.628538	-0.413720	0.574958
H65	H	1.704515	-0.503270	0.593715
H66	H	1.694606	-0.578998	0.144038
H67	H	1.358037	-0.420758	0.031094
C68	C	1.252555	-0.411654	0.263289
C69	C	1.172972	-0.487062	0.248426
C70	C	1.053027	-0.455018	0.226521
H71	H	1.258625	-0.375081	0.188920
H72	H	1.219094	-0.375347	0.332902
H73	H	1.206425	-0.523354	0.178820
H74	H	1.166865	-0.523643	0.322783
H75	H	1.019566	-0.418711	0.296134
H76	H	1.059110	-0.418445	0.152153
H77	H	0.999012	-0.506177	0.216445
H78	H	1.488153	-0.151924	-0.196325
C79	C	1.405540	-0.589568	0.416544
C80	C	1.300168	-0.639813	0.466850
C81	C	1.321362	-0.672998	0.586436
H82	H	1.419330	-0.539028	0.470423
H83	H	1.477601	-0.628552	0.409654
H84	H	1.228128	-0.600831	0.473747
H85	H	1.286361	-0.690366	0.413007
H86	H	1.393423	-0.711982	0.579546
H87	H	1.335153	-0.622453	0.640305
H88	H	1.249877	-0.707100	0.620579
H89	H	0.719425	0.000090	0.407069
C90	C	1.720534	-0.411855	0.118194
C91	C	1.668516	-0.355199	0.030115
C92	C	1.764433	-0.323741	-0.058669
H93	H	1.761055	-0.463195	0.076134
H94	H	1.780357	-0.377590	0.159781
H95	H	1.608715	-0.389463	-0.011468
H96	H	1.628003	-0.303846	0.072138
H97	H	1.824256	-0.289476	-0.017083
H98	H	1.804949	-0.375086	-0.100719
H99	H	1.729155	-0.285290	-0.118435
H100	H	1.284628	-0.579364	0.269091
H101	H	1.524428	-0.419359	-0.025837
H102	H	1.363899	-0.580335	0.024466
C103	C	1.557491	-0.586852	-0.048378
C104	C	1.620429	-0.510754	-0.106039
C105	C	1.712449	-0.541665	-0.199229
H106	H	1.518485	-0.621316	-0.109824
H107	H	1.616243	-0.624967	-0.011023
H108	H	1.561687	-0.472654	-0.143395
H109	H	1.659462	-0.476282	-0.044626
H110	H	1.771201	-0.579781	-0.161873
H111	H	1.673433	-0.576130	-0.260666
H112	H	1.755172	-0.490039	-0.238355
H113	H	1.639854	-0.578071	0.311580
H114	H	1.491481	0.167635	-0.077524
H115	H	1.478831	0.167617	-0.552931
