data_functionalizedCrystal
_audit_creation_method	'MofGen! by Chris Wilmer'
_symmetry_space_group_name_H-M	'P1'
_symmetry_Int_Tables_number	1
_symmetry_cell_setting	triclinic
loop_
_symmetry_equiv_pos_as_xyz
  x,y,z
_cell_length_a	18.050589
_cell_length_b	12.759401
_cell_length_c	18.050582
_cell_angle_alpha	89.988208
_cell_angle_beta	89.981795
_cell_angle_gamma	90.027265
loop_
_atom_site_label
_atom_site_type_symbol
_atom_site_fract_x
_atom_site_fract_y
_atom_site_fract_z
Zn1	Zn	-0.295726	1.606086	-0.419873
Zn2	Zn	0.204274	2.106086	0.080127
Zn3	Zn	-0.419909	1.605960	-0.295693
Zn4	Zn	0.080091	2.105960	0.204307
Zn5	Zn	-0.295735	1.430409	-0.295704
Zn6	Zn	0.204265	1.930409	0.204296
Zn7	Zn	-0.419876	1.430336	-0.419848
Zn8	Zn	0.080124	1.930336	0.080152
O9	O	-0.357811	1.518198	-0.357779
O10	O	0.142189	2.018198	0.142221
O11	O	-0.312208	1.753091	-0.403406
O12	O	0.187792	2.253091	0.096594
O13	O	-0.403455	1.582651	-0.191769
O14	O	0.096545	2.082651	0.308231
O15	O	-0.191809	1.453797	-0.312191
O16	O	0.308191	1.953797	0.187809
O17	O	-0.403445	1.752998	-0.312171
O18	O	0.096555	2.252998	0.187829
O19	O	-0.191802	1.582866	-0.403417
O20	O	0.308198	2.082866	0.096583
O21	O	-0.312225	1.453674	-0.191778
O22	O	0.187775	1.953674	0.308222
O23	O	-0.312193	1.283378	-0.312166
O24	O	0.187807	1.783378	0.187834
O25	O	-0.403390	1.453671	-0.523776
O26	O	0.096610	1.953671	-0.023776
O27	O	-0.403399	1.283324	-0.403374
O28	O	0.096601	1.783324	0.096626
O29	O	-0.312177	1.582795	-0.523794
O30	O	0.187823	2.082795	-0.023794
O31	O	-0.523829	1.582579	-0.312147
O32	O	-0.023829	2.082579	0.187853
O33	O	-0.523805	1.453549	-0.403363
O34	O	-0.023805	1.953549	0.096637
C35	C	-0.357794	1.245230	-0.357769
C36	C	0.142206	1.745230	0.142231
C37	C	-0.357804	1.128454	-0.357782
C38	C	0.142196	1.628454	0.142218
C39	C	-0.310387	1.073633	-0.405362
C40	C	0.189613	1.573633	0.094638
C41	C	-0.310401	0.963909	-0.405367
C42	C	0.189599	1.463909	0.094633
C43	C	-0.405257	0.963836	-0.310210
C44	C	0.094743	1.463836	0.189790
C45	C	-0.405238	1.073558	-0.310202
C46	C	0.094762	1.573558	0.189798
C47	C	-0.262953	1.128529	-0.452942
C48	C	0.237047	1.628529	0.047058
C49	C	-0.215533	1.073708	-0.500526
C50	C	0.284467	1.573708	-0.000526
C51	C	-0.215547	0.963984	-0.500531
C52	C	0.284453	1.463984	-0.000531
C53	C	-0.262982	0.909081	-0.452951
C54	C	0.237018	1.409081	0.047049
C55	C	-0.550764	1.518071	-0.357767
C56	C	-0.050764	2.018071	0.142233
C57	C	-0.633309	1.518113	-0.357787
C58	C	-0.133309	2.018113	0.142213
C59	C	-0.832774	1.448015	-0.407373
C60	C	-0.332774	1.948015	0.092627
C61	C	-0.882208	1.422412	-0.339606
C62	C	-0.382208	1.922412	0.160394
C63	C	-0.784440	1.518216	-0.357796
C64	C	-0.284440	2.018216	0.142204
C65	C	-0.882088	1.543870	-0.425570
C66	C	-0.382088	2.043870	0.074430
C67	C	-0.930425	1.518314	-0.357812
C68	C	-0.430425	2.018314	0.142188
C69	C	-0.832786	1.492563	-0.289994
C70	C	-0.332786	1.992563	0.210006
C71	C	-0.832662	1.614066	-0.376004
C72	C	-0.332662	2.114066	0.123996
C73	C	-0.882073	1.588499	-0.308191
C74	C	-0.382073	2.088499	0.191809
C75	C	-0.700341	1.518157	-0.357788
C76	C	-0.200341	2.018157	0.142212
C77	C	-1.014521	1.518373	-0.357812
C78	C	-0.514521	2.018373	0.142188
C79	C	-0.164106	1.518354	-0.357808
C80	C	0.335894	2.018354	0.142192
C81	C	-0.081560	1.518420	-0.357820
C82	C	0.418440	2.018420	0.142180
C83	C	-0.357779	1.518239	-0.551485
C84	C	0.142221	2.018239	-0.051485
C85	C	-0.357764	1.518256	-0.634031
C86	C	0.142236	2.018256	-0.134031
C87	C	-0.357830	1.792231	-0.357790
C88	C	0.142170	2.292231	0.142210
C89	C	-0.357837	1.909008	-0.357795
C90	C	0.142163	2.409008	0.142205
C91	C	-0.407298	1.448093	-0.833471
C92	C	0.092702	1.948093	-0.333471
C93	C	-0.425453	1.543946	-0.882861
C94	C	0.074547	2.043946	-0.382861
C95	C	-0.357708	1.518308	-0.785161
C96	C	0.142292	2.018308	-0.285161
C97	C	-0.339533	1.422508	-0.882854
C98	C	0.160467	1.922508	-0.382854
C99	C	-0.357654	1.518350	-0.931146
C100	C	0.142346	2.018350	-0.431146
C101	C	-0.375898	1.614211	-0.833463
C102	C	0.124102	2.114211	-0.333463
C103	C	-0.289946	1.492709	-0.833452
C104	C	0.210054	1.992709	-0.333452
C105	C	-0.308075	1.588628	-0.882819
C106	C	0.191925	2.088628	-0.382819
C107	C	-0.357740	1.518283	-0.701063
C108	C	0.142260	2.018283	-0.201063
C109	C	-0.357622	1.518386	-1.015243
C110	C	0.142378	2.018386	-0.515243
C111	C	-0.357791	1.518217	-0.164827
C112	C	0.142209	2.018217	0.335173
C113	C	-0.357596	1.518403	-0.082282
C114	C	0.142404	2.018403	0.417718
H115	H	-0.443877	0.919125	-0.271474
H116	H	0.056123	1.419125	0.228526
F117	F	-0.215095	1.464340	-0.805062
F118	F	0.284905	1.964340	-0.305062
H119	H	-0.482735	1.565623	-0.904563
H120	H	0.017265	2.065623	-0.404563
F121	F	-0.165047	1.132141	-0.551155
F122	F	0.334953	1.632141	-0.051155
H123	H	-0.324182	1.341474	-0.904550
H124	H	0.175818	1.841474	-0.404550
H125	H	-0.262974	0.819736	-0.452943
H126	H	0.237026	1.319736	0.047057
H127	H	-0.266115	1.648093	-0.904350
H128	H	0.233885	2.148093	-0.404350
F129	F	-0.165073	0.905642	-0.551168
F130	F	0.334927	1.405642	-0.051168
H131	H	-0.811220	1.470809	-0.232669
H132	H	-0.311220	1.970809	0.267331
H133	H	-0.262936	1.217872	-0.452943
H134	H	0.237064	1.717872	0.047057
F135	F	-0.455711	1.131906	-0.259568
F136	F	0.044289	1.631906	0.240432
H137	H	-0.903584	1.647908	-0.266224
H138	H	-0.403584	2.147908	0.233776
H139	H	-0.391313	1.695269	-0.811859
H140	H	0.108687	2.195269	-0.311859
H141	H	-0.811126	1.388561	-0.449238
H142	H	-0.311126	1.888561	0.050762
F143	F	-0.910651	1.316519	-0.319478
F144	F	-0.410651	1.816519	0.180522
F145	F	-0.910397	1.572180	-0.500477
F146	F	-0.410397	2.072180	-0.000477
F147	F	-0.462182	1.370553	-0.805148
F148	F	0.037818	1.870553	-0.305148
F149	F	-0.804196	1.719930	-0.396156
F150	F	-0.304196	2.219930	0.103844
