data_functionalizedCrystal
_audit_creation_method	'MofGen! by Chris Wilmer'
_symmetry_space_group_name_H-M	'P1'
_symmetry_Int_Tables_number	1
_symmetry_cell_setting	triclinic
loop_
_symmetry_equiv_pos_as_xyz
  x,y,z
_cell_length_a	21.295411
_cell_length_b	15.298093
_cell_length_c	21.295419
_cell_angle_alpha	80.325640
_cell_angle_beta	89.994777
_cell_angle_gamma	99.657499
loop_
_atom_site_label
_atom_site_type_symbol
_atom_site_fract_x
_atom_site_fract_y
_atom_site_fract_z
Zn1	Zn	-0.189337	1.379255	-0.417231
Zn2	Zn	0.143996	1.712588	-0.083897
Zn3	Zn	0.477330	2.045921	0.249436
Zn4	Zn	-0.084100	1.379191	-0.522475
Zn5	Zn	0.249233	1.712524	-0.189142
Zn6	Zn	0.582566	2.045857	0.144192
Zn7	Zn	-0.102310	1.228391	-0.399014
Zn8	Zn	0.231023	1.561724	-0.065681
Zn9	Zn	0.564357	1.895058	0.267653
Zn10	Zn	-0.207548	1.228423	-0.504253
Zn11	Zn	0.125785	1.561756	-0.170919
Zn12	Zn	0.459118	1.895090	0.162414
O13	O	-0.145824	1.303815	-0.460743
O14	O	0.187509	1.637148	-0.127410
O15	O	0.520843	1.970482	0.205924
O16	O	-0.160135	1.505480	-0.446442
O17	O	0.173198	1.838813	-0.113108
O18	O	0.506532	2.172147	0.220225
O19	O	0.001569	1.359147	-0.506100
O20	O	0.334902	1.692480	-0.172766
O21	O	0.668235	2.025813	0.160567
O22	O	-0.113854	1.248417	-0.313343
O23	O	0.219480	1.581750	0.019991
O24	O	0.552813	1.915084	0.353324
O25	O	-0.082818	1.505433	-0.523764
O26	O	0.250515	1.838766	-0.190431
O27	O	0.583849	2.172100	0.142903
O28	O	-0.177792	1.359256	-0.326727
O29	O	0.155541	1.692589	0.006607
O30	O	0.488875	2.025922	0.339940
O31	O	-0.011810	1.248355	-0.415394
O32	O	0.321524	1.581688	-0.082060
O33	O	0.654857	1.915021	0.251273
O34	O	-0.131512	1.102161	-0.397724
O35	O	0.201821	1.435495	-0.064391
O36	O	0.535154	1.768828	0.268943
O37	O	-0.293217	1.248471	-0.492707
O38	O	0.040116	1.581805	-0.159373
O39	O	0.373450	1.915138	0.173960
O40	O	-0.208830	1.102185	-0.475042
O41	O	0.124503	1.435518	-0.141709
O42	O	0.457836	1.768852	0.191624
O43	O	-0.279837	1.359287	-0.428772
O44	O	0.053496	1.692620	-0.095439
O45	O	0.386829	2.025953	0.237895
O46	O	-0.100477	1.359178	-0.608145
O47	O	0.232857	1.692511	-0.274812
O48	O	0.566190	2.025844	0.058521
O49	O	-0.191173	1.248409	-0.594758
O50	O	0.142160	1.581743	-0.261424
O51	O	0.475493	1.915076	0.071909
C52	C	-0.145836	1.303814	-0.624295
C53	C	0.187497	1.637148	-0.290961
C54	C	0.520831	1.970481	0.042372
C55	C	-0.145852	1.303897	-0.694273
C56	C	0.187481	1.637230	-0.360939
C57	C	0.520814	1.970563	-0.027606
C58	C	-0.310005	1.303890	-0.460739
C59	C	0.023328	1.637223	-0.127405
C60	C	0.356661	1.970556	0.205928
C61	C	-0.379969	1.303922	-0.460737
C62	C	-0.046636	1.637255	-0.127404
C63	C	0.286697	1.970588	0.205930
C64	C	-0.174124	1.069442	-0.432430
C65	C	0.159209	1.402776	-0.099096
C66	C	0.492543	1.736109	0.234237
C67	C	-0.186246	0.969177	-0.420332
C68	C	0.147088	1.302510	-0.086999
C69	C	0.480421	1.635843	0.246334
C70	C	-0.405871	1.361621	-0.427444
C71	C	-0.072537	1.694954	-0.094111
C72	C	0.260796	2.028287	0.239223
C73	C	-0.471613	1.361620	-0.427417
C74	C	-0.138280	1.694953	-0.094083
C75	C	0.195053	2.028286	0.239250
C76	C	-0.511451	1.303929	-0.460694
C77	C	-0.178118	1.637262	-0.127361
C78	C	0.155215	1.970595	0.205972
C79	C	-0.485543	1.246218	-0.493989
C80	C	-0.152210	1.579552	-0.160655
C81	C	0.181123	1.912885	0.172678
C82	C	-0.419803	1.246215	-0.494010
C83	C	-0.086469	1.579548	-0.160677
C84	C	0.246864	1.912881	0.172657
N85	N	-0.615518	1.297009	-0.514927
N86	N	-0.282185	1.630342	-0.181593
N87	N	0.051148	1.963675	0.151740
N88	N	-0.677969	1.297017	-0.514905
N89	N	-0.344636	1.630350	-0.181572
N90	N	-0.011302	1.963684	0.151761
C91	C	-0.709525	1.303934	-0.460631
C92	C	-0.376192	1.637268	-0.127298
C93	C	-0.042859	1.970601	0.206035
N94	N	-0.676270	1.310860	-0.406380
N95	N	-0.342937	1.644193	-0.073047
N96	N	-0.009603	1.977527	0.260286
N97	N	-0.613813	1.310856	-0.406403
N98	N	-0.280480	1.644190	-0.073070
N99	N	0.052853	1.977523	0.260264
C100	C	-0.582737	1.303926	-0.460675
C101	C	-0.249404	1.637259	-0.127341
C102	C	0.083930	1.970592	0.205992
C103	C	-0.806712	1.361635	-0.427306
C104	C	-0.473378	1.694968	-0.093972
C105	C	-0.140045	2.028302	0.239361
C106	C	-0.872456	1.361628	-0.427276
C107	C	-0.539123	1.694961	-0.093943
C108	C	-0.205790	2.028294	0.239390
C109	C	-0.886385	1.246231	-0.493855
C110	C	-0.553052	1.579564	-0.160521
C111	C	-0.219718	1.912898	0.172812
C112	C	-0.820642	1.246234	-0.493878
C113	C	-0.487309	1.579567	-0.160544
C114	C	-0.153975	1.912901	0.172789
C115	C	-0.780809	1.303941	-0.460605
C116	C	-0.447476	1.637274	-0.127271
C117	C	-0.114142	1.970607	0.206062
C118	C	0.017725	1.303792	-0.460708
C119	C	0.351058	1.637126	-0.127375
C120	C	0.684392	1.970459	0.205959
C121	C	0.087710	1.303935	-0.460554
C122	C	0.421043	1.637268	-0.127220
C123	C	0.754377	1.970602	0.206113
C124	C	-0.117414	1.539103	-0.489167
C125	C	0.215920	1.872436	-0.155834
C126	C	0.549253	2.205769	0.177499
C127	C	-0.105307	1.639368	-0.501280
C128	C	0.228026	1.972702	-0.167947
C129	C	0.561360	2.306035	0.165386
C130	C	-0.232189	1.922099	-0.374383
C131	C	0.101144	2.255432	-0.041049
C132	C	0.434477	2.588765	0.292284
C133	C	-0.243565	1.827894	-0.363000
C134	C	0.089769	2.161228	-0.029667
C135	C	0.423102	2.494561	0.303667
C136	C	-0.209002	1.780758	-0.397569
C137	C	0.124332	2.114091	-0.064236
C138	C	0.457665	2.447425	0.269097
C139	C	-0.163060	1.827836	-0.443523
C140	C	0.170273	2.161169	-0.110189
C141	C	0.503606	2.494503	0.223144
C142	C	-0.151680	1.922050	-0.454903
C143	C	0.181653	2.255383	-0.121570
C144	C	0.514987	2.588716	0.211764
C145	C	-0.128492	1.780709	-0.478090
C146	C	0.204841	2.114042	-0.144756
C147	C	0.538174	2.447376	0.188577
C148	C	-0.082551	1.827787	-0.524043
C149	C	0.250782	2.161120	-0.190710
C150	C	0.584115	2.494453	0.142624
C151	C	-0.071173	1.921991	-0.535422
C152	C	0.262160	2.255325	-0.202088
C153	C	0.595493	2.588658	0.131245
C154	C	-0.105737	1.969127	-0.500853
C155	C	0.227597	2.302461	-0.167519
C156	C	0.560930	2.635794	0.165814
C157	C	-0.139873	1.686495	-0.466709
C158	C	0.193461	2.019829	-0.133376
C159	C	0.526794	2.353162	0.199957
C160	C	-0.059364	1.686446	-0.547230
C161	C	0.273970	2.019779	-0.213896
C162	C	0.607303	2.353113	0.119437
C163	C	-0.047988	1.780651	-0.558612
C164	C	0.285345	2.113984	-0.225279
C165	C	0.618679	2.447317	0.108054
C166	C	-0.145823	1.303840	-0.296556
C167	C	0.187511	1.637173	0.036778
C168	C	0.520844	1.970507	0.370111
C169	C	-0.145822	1.303851	-0.226589
C170	C	0.187511	1.637184	0.106744
C171	C	0.520845	1.970517	0.440078
C172	C	-0.193040	1.246180	-0.186757
C173	C	0.140294	1.579513	0.146577
C174	C	0.473627	1.912846	0.479910
C175	C	-0.193047	1.246188	-0.121015
C176	C	0.140286	1.579522	0.212318
C177	C	0.473619	1.912855	0.545652
C178	C	-0.145828	1.303858	-0.095107
C179	C	0.187506	1.637192	0.238226
C180	C	0.520839	1.970525	0.571559
C181	C	-0.098606	1.361540	-0.134949
C182	C	0.234728	1.694874	0.198384
C183	C	0.568061	2.028207	0.531718
C184	C	-0.098603	1.361537	-0.200690
C185	C	0.234730	1.694870	0.132643
C186	C	0.568064	2.028203	0.465977
N187	N	-0.089898	1.310756	0.007277
N188	N	0.243436	1.644090	0.340611
N189	N	0.576769	1.977423	0.673944
N190	N	-0.089903	1.310755	0.069729
N191	N	0.243431	1.644088	0.403062
N192	N	0.576764	1.977421	0.736395
C193	C	-0.145834	1.303875	0.102965
C194	C	0.187499	1.637208	0.436299
C195	C	0.520833	1.970541	0.769632
N196	N	-0.201763	1.296979	0.071393
N197	N	0.131570	1.630312	0.404726
N198	N	0.464903	1.963645	0.738060
N199	N	-0.201758	1.296976	0.008936
N200	N	0.131575	1.630309	0.342270
N201	N	0.464909	1.963642	0.675603
C202	C	-0.145826	1.303869	-0.023823
C203	C	0.187508	1.637203	0.309510
C204	C	0.520841	1.970536	0.642843
C205	C	-0.193064	1.246210	0.214083
C206	C	0.140269	1.579543	0.547416
C207	C	0.473603	1.912877	0.880749
C208	C	-0.193072	1.246225	0.279824
C209	C	0.140261	1.579558	0.613158
C210	C	0.473595	1.912892	0.946491
C211	C	-0.098625	1.361573	0.265890
C212	C	0.234708	1.694906	0.599223
C213	C	0.568041	2.028239	0.932556
C214	C	-0.098622	1.361562	0.200149
C215	C	0.234711	1.694896	0.533482
C216	C	0.568044	2.028229	0.866815
C217	C	-0.145841	1.303876	0.174249
C218	C	0.187492	1.637210	0.507583
C219	C	0.520825	1.970543	0.840916
H220	H	-0.373442	1.408609	-0.400350
H221	H	-0.040109	1.741942	-0.067016
H222	H	0.293225	2.075276	0.266317
H223	H	-0.060152	1.408501	-0.233122
H224	H	0.273182	1.741835	0.100211
H225	H	0.606515	2.075168	0.433544
H226	H	-0.799553	1.199254	-0.520993
H227	H	-0.466220	1.532588	-0.187660
H228	H	-0.132886	1.865921	0.145674
H229	H	-0.060180	1.408532	0.286983
H230	H	0.273153	1.741866	0.620316
H231	H	0.606487	2.075199	0.953649
H232	H	-0.231519	1.199251	0.192993
H233	H	0.101814	1.532584	0.526326
H234	H	0.435147	1.865917	0.859660
H235	H	-0.231525	1.199265	0.312257
H236	H	0.101808	1.532599	0.645590
H237	H	0.435141	1.865932	0.978924
H238	H	-0.492707	1.408603	-0.400302
H239	H	-0.159373	1.741936	-0.066969
H240	H	0.173960	2.075270	0.266365
H241	H	-0.280971	1.789570	-0.325585
H242	H	0.052362	2.122904	0.007748
H243	H	0.385696	2.456237	0.341081
H244	H	-0.010582	1.818995	-0.596028
H245	H	0.322751	2.152328	-0.262695
H246	H	0.656085	2.485661	0.070638
H247	H	-0.398716	1.199225	-0.521120
H248	H	-0.065382	1.532558	-0.187786
H249	H	0.267951	1.865892	0.145547
H250	H	-0.517984	1.199243	-0.521081
H251	H	-0.184651	1.532576	-0.187748
H252	H	0.148683	1.865910	0.145585
H253	H	-0.231499	1.199224	-0.088578
H254	H	0.101834	1.532558	0.244756
H255	H	0.435167	1.865891	0.578089
H256	H	-0.033760	1.960319	-0.572835
H257	H	0.299574	2.293653	-0.239502
H258	H	0.632907	2.626986	0.093832
H259	H	-0.918821	1.199249	-0.520943
H260	H	-0.585488	1.532582	-0.187609
H261	H	-0.252155	1.865915	0.145724
H262	H	-0.031220	1.648068	-0.575379
H263	H	0.302114	1.981402	-0.242046
H264	H	0.635447	2.314735	0.091287
H265	H	-0.774278	1.408618	-0.400209
H266	H	-0.440945	1.741952	-0.066875
H267	H	-0.107612	2.075285	0.266458
H268	H	-0.177278	1.648174	-0.429292
H269	H	0.156056	1.981507	-0.095959
H270	H	0.489389	2.314840	0.237374
H271	H	-0.231488	1.199204	-0.207839
H272	H	0.101846	1.532538	0.125495
H273	H	0.435179	1.865871	0.458828
H274	H	-0.060170	1.408520	0.167716
H275	H	0.273163	1.741854	0.501050
H276	H	0.606497	2.075187	0.834383
H277	H	-0.218264	1.704053	-0.388297
H278	H	0.115069	2.037386	-0.054963
H279	H	0.448402	2.370719	0.278370
H280	H	-0.260322	1.960486	-0.346238
H281	H	0.073011	2.293819	-0.012905
H282	H	0.406344	2.627152	0.320428
H283	H	-0.096485	2.045837	-0.510126
H284	H	0.236848	2.379170	-0.176792
H285	H	0.570182	2.712503	0.156541
H286	H	-0.060159	1.408498	-0.113852
H287	H	0.273174	1.741831	0.219481
H288	H	0.606507	2.075165	0.552815
H289	H	-0.893543	1.408612	-0.400162
H290	H	-0.560210	1.741945	-0.066828
H291	H	-0.226877	2.075278	0.266505
