data_functionalizedCrystal
_audit_creation_method	'MofGen! by Chris Wilmer'
_symmetry_space_group_name_H-M	'P1'
_symmetry_Int_Tables_number	1
_symmetry_cell_setting	triclinic
loop_
_symmetry_equiv_pos_as_xyz
  x,y,z
_cell_length_a	23.532407
_cell_length_b	26.809956
_cell_length_c	23.532407
_cell_angle_alpha	90.000335
_cell_angle_beta	82.848678
_cell_angle_gamma	90.003435
loop_
_atom_site_label
_atom_site_type_symbol
_atom_site_fract_x
_atom_site_fract_y
_atom_site_fract_z
O1	O	0.755264	0.041422	0.069127
O2	O	1.005264	0.291422	0.319127
O3	O	1.255264	0.541422	0.569127
O4	O	1.505264	0.791422	0.819127
O5	O	0.589401	0.041438	0.079130
O6	O	0.839401	0.291438	0.329130
O7	O	1.089401	0.541438	0.579130
O8	O	1.339401	0.791438	0.829130
O9	O	0.677334	0.041420	-0.008803
O10	O	0.927334	0.291420	0.241197
O11	O	1.177334	0.541420	0.491197
O12	O	1.427334	0.791420	0.741197
O13	O	0.667331	0.041440	0.157060
O14	O	0.917331	0.291440	0.407060
O15	O	1.167331	0.541440	0.657060
O16	O	1.417331	0.791440	0.907060
O17	O	0.677317	-0.041539	-0.008790
O18	O	0.927317	0.208461	0.241210
O19	O	1.177317	0.458461	0.491210
O20	O	1.427317	0.708461	0.741210
O21	O	0.589384	-0.041522	0.079143
O22	O	0.839384	0.208478	0.329143
O23	O	1.089384	0.458478	0.579143
O24	O	1.339384	0.708478	0.829143
O25	O	0.755247	-0.041537	0.069140
O26	O	1.005247	0.208463	0.319140
O27	O	1.255247	0.458463	0.569140
O28	O	1.505247	0.708463	0.819140
Zn29	Zn	0.672313	-0.054701	0.074144
Zn30	Zn	0.922313	0.195299	0.324144
Zn31	Zn	1.172313	0.445299	0.574144
Zn32	Zn	1.422313	0.695299	0.824144
Zn33	Zn	0.672335	0.054602	0.074126
Zn34	Zn	0.922335	0.304602	0.324126
Zn35	Zn	1.172335	0.554602	0.574126
Zn36	Zn	1.422335	0.804602	0.824126
O37	O	0.667314	-0.041520	0.157073
O38	O	0.917314	0.208480	0.407073
O39	O	1.167314	0.458480	0.657073
O40	O	1.417314	0.708480	0.907073
C41	C	0.568176	-0.000040	0.078882
C42	C	0.818176	0.249960	0.328882
C43	C	1.068176	0.499960	0.578882
C44	C	1.318176	0.749960	0.828882
C45	C	0.504959	-0.000035	0.078116
C46	C	0.754959	0.249965	0.328116
C47	C	1.004959	0.499965	0.578116
C48	C	1.254959	0.749965	0.828116
N49	N	0.672302	-0.129297	0.074156
N50	N	0.922302	0.120703	0.324156
N51	N	1.172302	0.370703	0.574156
N52	N	1.422302	0.620703	0.824156
C53	C	0.105856	-0.000052	0.125350
C54	C	0.355856	0.249948	0.375350
C55	C	0.605856	0.499948	0.625350
C56	C	0.855856	0.749948	0.875350
C57	C	0.046456	-0.000055	0.124638
C58	C	0.296456	0.249945	0.374638
C59	C	0.546456	0.499945	0.624638
C60	C	0.796456	0.749945	0.874638
O61	O	0.009711	-0.000068	0.168424
O62	O	0.259711	0.249932	0.418424
O63	O	0.509711	0.499932	0.668424
O64	O	0.759711	0.749932	0.918424
N65	N	0.023830	-0.000060	0.072362
N66	N	0.273830	0.249940	0.322362
N67	N	0.523830	0.499940	0.572362
N68	N	0.773830	0.749940	0.822362
C69	C	0.060607	-0.000067	0.020794
C70	C	0.310607	0.249933	0.270794
C71	C	0.560607	0.499933	0.520794
C72	C	0.810607	0.749933	0.770794
O73	O	0.035908	-0.000072	-0.023737
O74	O	0.285908	0.249928	0.226263
O75	O	0.535908	0.499928	0.476263
O76	O	0.785908	0.749928	0.726263
C77	C	0.120006	-0.000068	0.021506
C78	C	0.370006	0.249932	0.271506
C79	C	0.620006	0.499932	0.521506
C80	C	0.870006	0.749932	0.771506
C81	C	0.142629	-0.000057	0.073785
C82	C	0.392629	0.249943	0.323785
C83	C	0.642629	0.499943	0.573785
C84	C	0.892629	0.749943	0.823785
C85	C	0.128479	-0.000042	0.177625
C86	C	0.378479	0.249958	0.427625
C87	C	0.628479	0.499958	0.677625
C88	C	0.878479	0.749958	0.927625
C89	C	0.187876	-0.000038	0.178336
C90	C	0.437876	0.249962	0.428336
C91	C	0.687876	0.499962	0.678336
C92	C	0.937876	0.749962	0.928336
C93	C	0.224649	-0.000044	0.126772
C94	C	0.474649	0.249956	0.376772
C95	C	0.724649	0.499956	0.626772
C96	C	0.974649	0.749956	0.876772
C97	C	0.202025	-0.000053	0.074497
C98	C	0.452025	0.249947	0.324497
C99	C	0.702025	0.499947	0.574497
C100	C	0.952025	0.749947	0.824497
C101	C	0.156783	-0.000078	-0.030062
C102	C	0.406783	0.249922	0.219938
C103	C	0.656783	0.499922	0.469938
C104	C	0.906783	0.749922	0.719938
C105	C	0.216185	-0.000079	-0.029345
C106	C	0.466185	0.249921	0.220655
C107	C	0.716185	0.499921	0.470655
C108	C	0.966185	0.749921	0.720655
C109	C	0.238808	-0.000069	0.022934
C110	C	0.488808	0.249931	0.272934
C111	C	0.738808	0.499931	0.522934
C112	C	0.988808	0.749931	0.772934
C113	C	0.298194	-0.000055	0.023643
C114	C	0.548194	0.249945	0.273643
C115	C	0.798194	0.499945	0.523643
C116	C	1.048194	0.749945	0.773643
N117	N	0.320820	-0.000050	0.075920
N118	N	0.570820	0.249950	0.325920
N119	N	0.820820	0.499950	0.575920
N120	N	1.070820	0.749950	0.825920
C121	C	0.284048	-0.000044	0.127484
C122	C	0.534048	0.249956	0.377484
C123	C	0.784048	0.499956	0.627484
C124	C	1.034048	0.749956	0.877484
C125	C	-0.064135	-0.000067	0.019302
C126	C	0.185865	0.249933	0.269302
C127	C	0.435865	0.499933	0.519302
C128	C	0.685865	0.749933	0.769302
C129	C	-0.123533	-0.000063	0.018589
C130	C	0.126467	0.249937	0.268589
C131	C	0.376467	0.499937	0.518589
C132	C	0.626467	0.749937	0.768589
C133	C	-0.137680	-0.000052	0.122434
C134	C	0.112320	0.249948	0.372434
C135	C	0.362320	0.499948	0.622434
C136	C	0.612320	0.749948	0.872434
C137	C	-0.078281	-0.000052	0.123146
C138	C	0.171719	0.249948	0.373146
C139	C	0.421719	0.499948	0.623146
C140	C	0.671719	0.749948	0.873146
C141	C	-0.041509	-0.000062	0.071578
C142	C	0.208491	0.249938	0.321578
C143	C	0.458491	0.499938	0.571578
C144	C	0.708491	0.749938	0.821578
C145	C	0.408784	-0.000035	0.128974
C146	C	0.658784	0.249965	0.378974
C147	C	0.908784	0.499965	0.628974
C148	C	1.158784	0.749965	0.878974
C149	C	0.468186	-0.000029	0.129680
C150	C	0.718186	0.249971	0.379680
C151	C	0.968186	0.499971	0.629680
C152	C	1.218186	0.749971	0.879680
C153	C	0.482329	-0.000043	0.025836
C154	C	0.732329	0.249957	0.275836
C155	C	0.982329	0.499957	0.525836
C156	C	1.232329	0.749957	0.775836
C157	C	0.422932	-0.000047	0.025129
C158	C	0.672932	0.249953	0.275129
C159	C	0.922932	0.499953	0.525129
C160	C	1.172932	0.749953	0.775129
C161	C	0.386160	-0.000044	0.076702
C162	C	0.636160	0.249956	0.326702
C163	C	0.886160	0.499956	0.576702
C164	C	1.136160	0.749956	0.826702
O165	O	0.334974	-0.000044	-0.020119
O166	O	0.584974	0.249956	0.229881
O167	O	0.834974	0.499956	0.479881
O168	O	1.084974	0.749956	0.729881
O169	O	0.308755	-0.000045	0.172007
O170	O	0.558755	0.249955	0.422007
O171	O	0.808755	0.499955	0.672007
O172	O	1.058755	0.749955	0.922007
C173	C	0.711267	-0.473930	0.035199
C174	C	0.961267	-0.223930	0.285199
C175	C	1.211267	0.026070	0.535199
C176	C	1.461267	0.276070	0.785199
C177	C	0.711280	-0.682808	0.035190
C178	C	0.961280	-0.432808	0.285190
C179	C	1.211280	-0.182808	0.535190
C180	C	1.461280	0.067192	0.785190
O181	O	0.744386	-0.709818	0.002071
O182	O	0.994386	-0.459818	0.252071
O183	O	1.244386	-0.209818	0.502071
O184	O	1.494386	0.040182	0.752071
N185	N	0.672338	-0.708924	0.074114
N186	N	0.922338	-0.458924	0.324114
N187	N	1.172338	-0.208924	0.574114
N188	N	1.422338	0.041076	0.824114
C189	C	0.633387	-0.682817	0.113040
C190	C	0.883387	-0.432817	0.363040
C191	C	1.133387	-0.182817	0.613040
C192	C	1.383387	0.067183	0.863040
O193	O	0.600261	-0.709823	0.146142
O194	O	0.850261	-0.459823	0.396142
O195	O	1.100261	-0.209823	0.646142
O196	O	1.350261	0.040177	0.896142
C197	C	0.633371	-0.473940	0.113045
C198	C	0.883371	-0.223940	0.363045
C199	C	1.133371	0.026060	0.613045
C200	C	1.383371	0.276060	0.863045
C201	C	0.672320	-0.447827	0.074123
C202	C	0.922320	-0.197827	0.324123
C203	C	1.172320	0.052173	0.574123
C204	C	1.422320	0.302173	0.824123
C205	C	0.750212	-0.447817	-0.003720
C206	C	1.000212	-0.197817	0.246280
C207	C	1.250212	0.052183	0.496280
C208	C	1.500212	0.302183	0.746280
C209	C	0.750210	-0.395601	-0.003716
C210	C	1.000210	-0.145601	0.246284
C211	C	1.250210	0.104399	0.496284
C212	C	1.500210	0.354399	0.746284
C213	C	0.711263	-0.369498	0.035208
C214	C	0.961263	-0.119498	0.285208
C215	C	1.211263	0.130502	0.535208
C216	C	1.461263	0.380502	0.785208
C217	C	0.672318	-0.395611	0.074128
C218	C	0.922318	-0.145611	0.324128
C219	C	1.172318	0.104389	0.574128
C220	C	1.422318	0.354389	0.824128
C221	C	0.594418	-0.447834	0.151968
C222	C	0.844418	-0.197834	0.401968
C223	C	1.094418	0.052166	0.651968
C224	C	1.344418	0.302166	0.901968
C225	C	0.594417	-0.395612	0.151965
C226	C	0.844417	-0.145612	0.401965
C227	C	1.094417	0.104388	0.651965
C228	C	1.344417	0.354388	0.901965
C229	C	0.633365	-0.369499	0.113043
C230	C	0.883365	-0.119499	0.363043
C231	C	1.133365	0.130501	0.613043
C232	C	1.383365	0.380501	0.863043
C233	C	0.633370	-0.317291	0.113056
C234	C	0.883370	-0.067291	0.363056
C235	C	1.133370	0.182709	0.613056
C236	C	1.383370	0.432709	0.863056
N237	N	0.672312	-0.291176	0.074133
N238	N	0.922312	-0.041176	0.324133
N239	N	1.172312	0.208824	0.574133
N240	N	1.422312	0.458824	0.824133
C241	C	0.711259	-0.317279	0.035209
C242	C	0.961259	-0.067279	0.285209
C243	C	1.211259	0.182721	0.535209
C244	C	1.461259	0.432721	0.785209
C245	C	0.633399	-0.792480	0.113035
C246	C	0.883399	-0.542480	0.363035
C247	C	1.133399	-0.292480	0.613035
C248	C	1.383399	-0.042480	0.863035
C249	C	0.633404	-0.844699	0.113034
C250	C	0.883404	-0.594699	0.363034
C251	C	1.133404	-0.344699	0.613034
C252	C	1.383404	-0.094699	0.863034
C253	C	0.711296	-0.844687	0.035184
C254	C	0.961296	-0.594687	0.285184
C255	C	1.211296	-0.344687	0.535184
C256	C	1.461296	-0.094687	0.785184
C257	C	0.711294	-0.792467	0.035188
C258	C	0.961294	-0.542467	0.285188
C259	C	1.211294	-0.292467	0.535188
C260	C	1.461294	-0.042467	0.785188
C261	C	0.672341	-0.766365	0.074111
C262	C	0.922341	-0.516365	0.324111
C263	C	1.172341	-0.266365	0.574111
C264	C	1.422341	-0.016365	0.824111
C265	C	0.711253	-0.207621	0.035222
C266	C	0.961253	0.042379	0.285222
C267	C	1.211253	0.292379	0.535222
C268	C	1.461253	0.542379	0.785222
C269	C	0.711249	-0.155400	0.035232
C270	C	0.961249	0.094600	0.285232
C271	C	1.211249	0.344600	0.535232
C272	C	1.461249	0.594600	0.785232
C273	C	0.633355	-0.155417	0.113080
C274	C	0.883355	0.094583	0.363080
C275	C	1.133355	0.344583	0.613080
C276	C	1.383355	0.594583	0.863080
C277	C	0.633360	-0.207633	0.113072
C278	C	0.883360	0.042367	0.363072
C279	C	1.133360	0.292367	0.613072
C280	C	1.383360	0.542367	0.863072
C281	C	0.672311	-0.233734	0.074139
C282	C	0.922311	0.016266	0.324139
C283	C	1.172311	0.266266	0.574139
C284	C	1.422311	0.516266	0.824139
O285	O	0.600277	-0.290249	0.146154
O286	O	0.850277	-0.040249	0.396154
O287	O	1.100277	0.209751	0.646154
O288	O	1.350277	0.459751	0.896154
O289	O	0.744372	-0.290264	0.002103
O290	O	0.994372	-0.040264	0.252103
O291	O	1.244372	0.209736	0.502103
O292	O	1.494372	0.459736	0.752103
C293	C	0.711269	-0.526147	0.035194
C294	C	0.961269	-0.276147	0.285194
C295	C	1.211269	-0.026147	0.535194
C296	C	1.461269	0.223853	0.785194
C297	C	0.672324	-0.552260	0.074114
C298	C	0.922324	-0.302260	0.324114
C299	C	1.172324	-0.052260	0.574114
C300	C	1.422324	0.197740	0.824114
C301	C	0.633377	-0.526157	0.113038
C302	C	0.883377	-0.276157	0.363038
C303	C	1.133377	-0.026157	0.613038
C304	C	1.383377	0.223843	0.863038
C305	C	0.672328	-0.604479	0.074113
C306	C	0.922328	-0.354479	0.324113
C307	C	1.172328	-0.104479	0.574113
C308	C	1.422328	0.145521	0.824113
C309	C	0.711275	-0.630582	0.035189
C310	C	0.961275	-0.380582	0.285189
C311	C	1.211275	-0.130582	0.535189
C312	C	1.461275	0.119418	0.785189
C313	C	0.750217	-0.604466	-0.003734
C314	C	1.000217	-0.354466	0.246266
C315	C	1.250217	-0.104466	0.496266
C316	C	1.500217	0.145534	0.746266
C317	C	0.750215	-0.552250	-0.003730
C318	C	1.000215	-0.302250	0.246270
C319	C	1.250215	-0.052250	0.496270
C320	C	1.500215	0.197750	0.746270
C321	C	0.594435	-0.552272	0.151961
C322	C	0.844435	-0.302272	0.401961
C323	C	1.094435	-0.052272	0.651961
C324	C	1.344435	0.197728	0.901961
C325	C	0.594440	-0.604489	0.151954
C326	C	0.844440	-0.354489	0.401954
C327	C	1.094440	-0.104489	0.651954
C328	C	1.344440	0.145511	0.901954
C329	C	0.633387	-0.630592	0.113030
C330	C	0.883387	-0.380592	0.363030
C331	C	1.133387	-0.130592	0.613030
C332	C	1.383387	0.119408	0.863030
C333	C	0.776472	-0.000058	0.069388
C334	C	1.026472	0.249942	0.319388
C335	C	1.276472	0.499942	0.569388
C336	C	1.526472	0.749942	0.819388
C337	C	0.839689	-0.000060	0.070154
C338	C	1.089689	0.249940	0.320154
C339	C	1.339689	0.499940	0.570154
C340	C	1.589689	0.749940	0.820154
C341	C	0.677071	-0.000060	-0.030013
C342	C	0.927071	0.249940	0.219987
C343	C	1.177071	0.499940	0.469987
C344	C	1.427071	0.749940	0.719987
C345	C	0.676305	-0.000064	-0.093230
C346	C	0.926305	0.249936	0.156770
C347	C	1.176305	0.499936	0.406770
C348	C	1.426305	0.749936	0.656770
N349	N	0.672350	0.129198	0.074110
N350	N	0.922350	0.379198	0.324110
N351	N	1.172350	0.629198	0.574110
N352	N	1.422350	0.879198	0.824110
C353	C	0.723539	-0.000041	-0.492333
C354	C	0.973539	0.249959	-0.242333
C355	C	1.223539	0.499959	0.007667
C356	C	1.473539	0.749959	0.257667
C357	C	0.722827	-0.000037	-0.551733
C358	C	0.972827	0.249963	-0.301733
C359	C	1.222827	0.499963	-0.051733
C360	C	1.472827	0.749963	0.198267
O361	O	0.766613	-0.000023	-0.588478
O362	O	1.016613	0.249977	-0.338478
O363	O	1.266613	0.499977	-0.088478
O364	O	1.516613	0.749977	0.161522
N365	N	0.670551	-0.000033	-0.574359
N366	N	0.920551	0.249967	-0.324359
N367	N	1.170551	0.499967	-0.074359
N368	N	1.420551	0.749967	0.175641
C369	C	0.618983	-0.000027	-0.537582
C370	C	0.868983	0.249973	-0.287582
C371	C	1.118983	0.499973	-0.037582
C372	C	1.368983	0.749973	0.212418
O373	O	0.574452	-0.000023	-0.562281
O374	O	0.824452	0.249977	-0.312281
O375	O	1.074452	0.499977	-0.062281
O376	O	1.324452	0.749977	0.187719
C377	C	0.619695	-0.000027	-0.478182
C378	C	0.869695	0.249973	-0.228182
C379	C	1.119695	0.499973	0.021818
C380	C	1.369695	0.749973	0.271818
C381	C	0.671974	-0.000037	-0.455560
C382	C	0.921974	0.249963	-0.205560
C383	C	1.171974	0.499963	0.044440
C384	C	1.421974	0.749963	0.294440
C385	C	0.775814	-0.000050	-0.469710
C386	C	1.025814	0.249950	-0.219710
C387	C	1.275814	0.499950	0.030290
C388	C	1.525814	0.749950	0.280290
C389	C	0.776525	-0.000055	-0.410313
C390	C	1.026525	0.249945	-0.160313
C391	C	1.276525	0.499945	0.089687
C392	C	1.526525	0.749945	0.339687
C393	C	0.724961	-0.000051	-0.373540
C394	C	0.974961	0.249949	-0.123540
C395	C	1.224961	0.499949	0.126460
C396	C	1.474961	0.749949	0.376460
C397	C	0.672685	-0.000042	-0.396164
C398	C	0.922685	0.249958	-0.146164
C399	C	1.172685	0.499958	0.103836
C400	C	1.422685	0.749958	0.353836
C401	C	0.568127	-0.000018	-0.441406
C402	C	0.818127	0.249982	-0.191406
C403	C	1.068127	0.499982	0.058594
C404	C	1.318127	0.749982	0.308594
C405	C	0.568844	-0.000018	-0.382004
C406	C	0.818844	0.249982	-0.132004
C407	C	1.068844	0.499982	0.117996
C408	C	1.318844	0.749982	0.367996
C409	C	0.621123	-0.000028	-0.359381
C410	C	0.871123	0.249972	-0.109381
C411	C	1.121123	0.499972	0.140619
C412	C	1.371123	0.749972	0.390619
C413	C	0.621832	-0.000042	-0.299995
C414	C	0.871832	0.249958	-0.049995
C415	C	1.121832	0.499958	0.200005
C416	C	1.371832	0.749958	0.450005
N417	N	0.674109	-0.000047	-0.277368
N418	N	0.924109	0.249953	-0.027368
N419	N	1.174109	0.499953	0.222632
N420	N	1.424109	0.749953	0.472632
C421	C	0.725673	-0.000051	-0.314141
C422	C	0.975673	0.249949	-0.064141
C423	C	1.225673	0.499949	0.185859
C424	C	1.475673	0.749949	0.435859
C425	C	0.617491	-0.000026	-0.662324
C426	C	0.867491	0.249974	-0.412324
C427	C	1.117491	0.499974	-0.162324
C428	C	1.367491	0.749974	0.087676
C429	C	0.616778	-0.000029	-0.721722
C430	C	0.866778	0.249971	-0.471722
C431	C	1.116778	0.499971	-0.221722
C432	C	1.366778	0.749971	0.028278
C433	C	0.720623	-0.000038	-0.735869
C434	C	0.970623	0.249962	-0.485869
C435	C	1.220623	0.499962	-0.235869
C436	C	1.470623	0.749962	0.014131
C437	C	0.721335	-0.000039	-0.676470
C438	C	0.971335	0.249961	-0.426470
C439	C	1.221335	0.499961	-0.176470
C440	C	1.471335	0.749961	0.073530
C441	C	0.669767	-0.000030	-0.639698
C442	C	0.919767	0.249970	-0.389698
C443	C	1.169767	0.499970	-0.139698
C444	C	1.419767	0.749970	0.110302
C445	C	0.727163	-0.000062	-0.189405
C446	C	0.977163	0.249938	0.060595
C447	C	1.227163	0.499938	0.310595
C448	C	1.477163	0.749938	0.560595
C449	C	0.727869	-0.000068	-0.130003
C450	C	0.977869	0.249932	0.119997
C451	C	1.227869	0.499932	0.369997
C452	C	1.477869	0.749932	0.619997
C453	C	0.624025	-0.000057	-0.115860
C454	C	0.874025	0.249943	0.134140
C455	C	1.124025	0.499943	0.384140
C456	C	1.374025	0.749943	0.634140
C457	C	0.623318	-0.000052	-0.175257
C458	C	0.873318	0.249948	0.074743
C459	C	1.123318	0.499948	0.324743
C460	C	1.373318	0.749948	0.574743
C461	C	0.674891	-0.000053	-0.212029
C462	C	0.924891	0.249947	0.037971
C463	C	1.174891	0.499947	0.287971
C464	C	1.424891	0.749947	0.537971
O465	O	0.578070	-0.000055	-0.263215
O466	O	0.828070	0.249945	-0.013215
O467	O	1.078070	0.499945	0.236785
O468	O	1.328070	0.749945	0.486785
O469	O	0.770196	-0.000049	-0.289433
O470	O	1.020196	0.249951	-0.039433
O471	O	1.270196	0.499951	0.210567
O472	O	1.520196	0.749951	0.460567
C473	C	0.667577	-0.000038	0.178283
C474	C	0.917577	0.249962	0.428283
C475	C	1.167577	0.499962	0.678283
C476	C	1.417577	0.749962	0.928283
C477	C	0.668343	-0.000031	0.241500
C478	C	0.918343	0.249969	0.491500
C479	C	1.168343	0.499969	0.741500
C480	C	1.418343	0.749969	0.991500
H481	H	0.486602	-0.000020	0.172255
H482	H	0.736602	0.249980	0.422255
H483	H	0.986602	0.499980	0.672255
H484	H	1.236602	0.749980	0.922255
Br485	Br	0.797156	-0.000062	-0.239299
Br486	Br	1.047156	0.249938	0.010701
Br487	Br	1.297156	0.499938	0.260701
Br488	Br	1.547156	0.749938	0.510701
Br489	Br	0.358890	-0.000033	0.198967
Br490	Br	0.608890	0.249967	0.448967
Br491	Br	0.858890	0.499967	0.698967
Br492	Br	1.108890	0.749967	0.948967
Br493	Br	-0.154227	-0.000062	-0.052364
Br494	Br	0.095773	0.249938	0.197636
Br495	Br	0.345773	0.499938	0.447636
Br496	Br	0.595773	0.749938	0.697636
Br497	Br	0.790604	-0.000042	-0.785787
Br498	Br	1.040604	0.249958	-0.535787
Br499	Br	1.290604	0.499958	-0.285787
Br500	Br	1.540604	0.749958	-0.035787
H501	H	-0.167632	-0.000050	0.164421
H502	H	0.082368	0.249950	0.414421
H503	H	0.332368	0.499950	0.664421
H504	H	0.582368	0.749950	0.914421
Br505	Br	0.764154	-0.757034	-0.017637
Br506	Br	1.014154	-0.507034	0.232363
Br507	Br	1.264154	-0.257034	0.482363
Br508	Br	1.514154	-0.007034	0.732363
H509	H	0.781924	-0.374343	-0.035411
H510	H	1.031924	-0.124343	0.214589
H511	H	1.281924	0.125657	0.464589
H512	H	1.531924	0.375657	0.714589
H513	H	0.743009	-0.865949	0.003491
H514	H	0.993009	-0.615949	0.253491
H515	H	1.243009	-0.365949	0.503491
H516	H	1.493009	-0.115949	0.753491
Br517	Br	-0.014235	-0.000076	-0.050690
Br518	Br	0.235765	0.249924	0.199310
Br519	Br	0.485765	0.499924	0.449310
Br520	Br	0.735765	0.749924	0.699310
H521	H	0.525555	-0.000007	-0.459814
H522	H	0.775555	0.249993	-0.209814
H523	H	1.025555	0.499993	0.040186
H524	H	1.275555	0.749993	0.290186
Br525	Br	0.580531	-0.757061	0.165865
Br526	Br	0.830531	-0.507061	0.415865
Br527	Br	1.080531	-0.257061	0.665865
Br528	Br	1.330531	-0.007061	0.915865
Br529	Br	-0.047586	-0.000038	0.194099
Br530	Br	0.202414	0.249962	0.444099
Br531	Br	0.452414	0.499962	0.694099
Br532	Br	0.702414	0.749962	0.944099
Br533	Br	0.552367	-0.000051	-0.205961
Br534	Br	0.802367	0.249949	0.044039
Br535	Br	1.052367	0.499949	0.294039
Br536	Br	1.302367	0.749949	0.544039
H537	H	0.601650	-0.228895	0.144772
H538	H	0.851650	0.021105	0.394772
H539	H	1.101650	0.271105	0.644772
H540	H	1.351650	0.521105	0.894772
H541	H	0.582043	-0.000055	-0.085909
H542	H	0.832043	0.249945	0.164091
H543	H	1.082043	0.499945	0.414091
H544	H	1.332043	0.749945	0.664091
Br545	Br	0.126097	-0.000081	-0.101018
Br546	Br	0.376097	0.249919	0.148982
Br547	Br	0.626097	0.499919	0.398982
Br548	Br	0.876097	0.749919	0.648982
H549	H	0.781927	-0.469066	-0.035420
H550	H	1.031927	-0.219066	0.214580
H551	H	1.281927	0.030934	0.464580
H552	H	1.531927	0.280934	0.714580
H553	H	0.206289	-0.000029	0.220908
H554	H	0.456289	0.249971	0.470908
H555	H	0.706289	0.499971	0.720908
H556	H	0.956289	0.749971	0.970908
H557	H	0.601646	-0.134156	0.144773
H558	H	0.851646	0.115844	0.394773
H559	H	1.101646	0.365844	0.644773
H560	H	1.351646	0.615844	0.894773
H561	H	0.817806	-0.000052	-0.499645
H562	H	1.067806	0.249948	-0.249645
H563	H	1.317806	0.499948	0.000355
H564	H	1.567806	0.749948	0.250355
Br565	Br	0.847480	-0.000054	-0.379621
Br566	Br	1.097480	0.249946	-0.129621
Br567	Br	1.347480	0.499946	0.120379
Br568	Br	1.597480	0.749946	0.370379
H569	H	0.098544	-0.000039	0.219617
H570	H	0.348544	0.249961	0.469617
H571	H	0.598544	0.499961	0.719617
H572	H	0.848544	0.749961	0.969617
Br573	Br	0.792288	-0.000053	-0.645775
Br574	Br	1.042288	0.249947	-0.395775
Br575	Br	1.292288	0.499947	-0.145775
Br576	Br	1.542288	0.749947	0.104225
Br577	Br	0.580552	-0.880132	0.165868
Br578	Br	0.830552	-0.630132	0.415868
Br579	Br	1.080552	-0.380132	0.665868
Br580	Br	1.330552	-0.130132	0.915868
Br581	Br	0.532246	-0.000052	-0.044141
Br582	Br	0.782246	0.249948	0.205859
Br583	Br	1.032246	0.499948	0.455859
Br584	Br	1.282246	0.749948	0.705859
H585	H	0.562703	-0.469088	0.183661
H586	H	0.812703	-0.219088	0.433661
H587	H	1.062703	0.030912	0.683661
H588	H	1.312703	0.280912	0.933661
H589	H	0.770443	-0.000077	-0.111587
H590	H	1.020443	0.249923	0.138413
H591	H	1.270443	0.499923	0.388413
H592	H	1.520443	0.749923	0.638413
H593	H	0.246123	-0.000088	-0.071339
H594	H	0.496123	0.249912	0.178661
H595	H	0.746123	0.499912	0.428661
H596	H	0.996123	0.749912	0.678661
H597	H	0.526850	-0.000011	-0.352066
H598	H	0.776850	0.249989	-0.102066
H599	H	1.026850	0.499989	0.147934
H600	H	1.276850	0.749989	0.397934
H601	H	0.404512	-0.000048	-0.017441
H602	H	0.654512	0.249952	0.232559
H603	H	0.904512	0.499952	0.482559
H604	H	1.154512	0.749952	0.732559
Br605	Br	0.545825	-0.000028	-0.752416
Br606	Br	0.795825	0.249972	-0.502416
Br607	Br	1.045825	0.499972	-0.252416
Br608	Br	1.295825	0.749972	-0.002416
H609	H	0.562695	-0.374362	0.183661
H610	H	0.812695	-0.124362	0.433661
H611	H	1.062695	0.125638	0.683661
H612	H	1.312695	0.375638	0.933661
H613	H	0.742968	-0.134140	0.003536
H614	H	0.992968	0.115860	0.253536
H615	H	1.242968	0.365860	0.503536
H616	H	1.492968	0.615860	0.753536
Br617	Br	0.764115	-0.243035	-0.017617
Br618	Br	1.014115	0.006965	0.232383
Br619	Br	1.264115	0.256965	0.482383
Br620	Br	1.514115	0.506965	0.732383
H621	H	0.781931	-0.530993	-0.035424
H622	H	1.031931	-0.280993	0.214576
H623	H	1.281931	-0.030993	0.464576
H624	H	1.531931	0.219007	0.714576
H625	H	0.781931	-0.625728	-0.035426
H626	H	1.031931	-0.375728	0.214574
H627	H	1.281931	-0.125728	0.464574
H628	H	1.531931	0.124272	0.714574
H629	H	0.562724	-0.625746	0.183654
H630	H	0.812724	-0.375746	0.433654
H631	H	1.062724	-0.125746	0.683654
H632	H	1.312724	0.124254	0.933654
Br633	Br	0.541573	-0.516853	0.204791
Br634	Br	0.791573	-0.266853	0.454791
Br635	Br	1.041573	-0.016853	0.704791
Br636	Br	1.291573	0.233147	0.954791
Br637	Br	0.547499	-0.000019	-0.612424
Br638	Br	0.797499	0.249981	-0.362424
Br639	Br	1.047499	0.499981	-0.112424
Br640	Br	1.297499	0.749981	0.137576
