data_functionalizedCrystal
_audit_creation_method	'MofGen! by Chris Wilmer'
_symmetry_space_group_name_H-M	'P1'
_symmetry_Int_Tables_number	1
_symmetry_cell_setting	triclinic
loop_
_symmetry_equiv_pos_as_xyz
  x,y,z
_cell_length_a	19.288859
_cell_length_b	12.996460
_cell_length_c	19.288865
_cell_angle_alpha	90.011375
_cell_angle_beta	83.134986
_cell_angle_gamma	90.006456
loop_
_atom_site_label
_atom_site_type_symbol
_atom_site_fract_x
_atom_site_fract_y
_atom_site_fract_z
O1	O	0.921352	0.085599	0.086629
O2	O	1.254685	0.418932	0.419962
O3	O	1.588019	0.752265	0.753295
O4	O	0.719091	0.085598	0.098322
O5	O	1.052424	0.418931	0.431655
O6	O	1.385757	0.752265	0.764988
O7	O	0.826066	0.085578	-0.008655
O8	O	1.159399	0.418911	0.324678
O9	O	1.492732	0.752245	0.658011
O10	O	0.814377	0.085619	0.193606
O11	O	1.147710	0.418952	0.526939
O12	O	1.481044	0.752285	0.860272
O13	O	0.826055	-0.085556	-0.008661
O14	O	1.159388	0.247778	0.324672
O15	O	1.492721	0.581111	0.658006
O16	O	0.719080	-0.085536	0.098316
O17	O	1.052413	0.247798	0.431649
O18	O	1.385746	0.581131	0.764983
O19	O	0.921341	-0.085535	0.086623
O20	O	1.254674	0.247798	0.419956
O21	O	1.588007	0.581132	0.753289
Cu22	Cu	0.820209	-0.101161	0.092469
Cu23	Cu	1.153543	0.232172	0.425802
Cu24	Cu	1.486876	0.565505	0.759135
Cu25	Cu	0.820222	0.101224	0.092476
Cu26	Cu	1.153556	0.434558	0.425809
Cu27	Cu	1.486889	0.767891	0.759142
O28	O	0.814366	-0.085515	0.193600
O29	O	1.147699	0.247818	0.526933
O30	O	1.481032	0.581152	0.860266
C31	C	0.693209	0.000031	0.097943
C32	C	1.026542	0.333364	0.431277
C33	C	1.359875	0.666697	0.764610
C34	C	0.616105	0.000030	0.096816
C35	C	0.949438	0.333363	0.430149
C36	C	1.282771	0.666696	0.763483
C37	C	0.052064	0.000042	0.151959
C38	C	0.385397	0.333375	0.485293
C39	C	0.718731	0.666709	0.818626
C40	C	0.124511	0.000048	0.153025
C41	C	0.457844	0.333381	0.486358
C42	C	0.791177	0.666714	0.819691
C43	C	0.169217	0.000033	0.090255
C44	C	0.502551	0.333366	0.423589
C45	C	0.835884	0.666700	0.756922
C46	C	0.141472	0.000039	0.026416
C47	C	0.474806	0.333373	0.359749
C48	C	0.808139	0.666706	0.693083
C49	C	0.069027	0.000044	0.025353
C50	C	0.402360	0.333377	0.358686
C51	C	0.735694	0.666711	0.692019
C52	C	0.290484	-0.059936	0.043440
C53	C	0.623817	0.273397	0.376774
C54	C	0.957150	0.606731	0.710107
C55	C	0.362927	-0.059947	0.044506
C56	C	0.696261	0.273386	0.377840
C57	C	1.029594	0.606720	0.711173
C58	C	0.392663	0.000023	0.093533
C59	C	0.725997	0.333357	0.426866
C60	C	1.059330	0.666690	0.760200
C61	C	0.349945	0.059991	0.141505
C62	C	0.683278	0.393325	0.474838
C63	C	1.016612	0.726658	0.808172
C64	C	0.277500	0.059996	0.140441
C65	C	0.610833	0.393329	0.473775
C66	C	0.944166	0.726663	0.807108
C67	C	0.247773	0.000029	0.091401
C68	C	0.581106	0.333362	0.424735
C69	C	0.914440	0.666695	0.758068
C70	C	0.498955	0.000030	0.158523
C71	C	0.832288	0.333364	0.491857
C72	C	1.165621	0.666697	0.825190
C73	C	0.571403	0.000042	0.159586
C74	C	0.904736	0.333376	0.492919
C75	C	1.238070	0.666709	0.826253
C76	C	0.588364	0.000024	0.032976
C77	C	0.921697	0.333357	0.366309
C78	C	1.255030	0.666690	0.699642
C79	C	0.515917	0.000022	0.031915
C80	C	0.849250	0.333355	0.365248
C81	C	1.182583	0.666689	0.698581
C82	C	0.471216	0.000020	0.094691
C83	C	0.804550	0.333354	0.428024
C84	C	1.137883	0.666687	0.761357
N85	N	0.820205	-0.243508	0.092463
N86	N	1.153538	0.089825	0.425797
N87	N	1.486872	0.423158	0.759130
C88	C	0.820221	-0.663323	0.092476
C89	C	1.153555	-0.329989	0.425810
C90	C	1.486888	0.003344	0.759143
C91	C	0.820215	-0.546518	0.092475
C92	C	1.153548	-0.213184	0.425808
C93	C	1.486881	0.120149	0.759142
C94	C	0.820214	-0.453419	0.092470
C95	C	1.153547	-0.120086	0.425804
C96	C	1.486880	0.213247	0.759137
C97	C	0.820206	-0.336607	0.092468
C98	C	1.153540	-0.003273	0.425801
C99	C	1.486873	0.330060	0.759135
C100	C	0.947223	0.000035	0.087001
C101	C	1.280556	0.333368	0.420334
C102	C	1.613890	0.666701	0.753668
C103	C	1.024327	0.000043	0.088128
C104	C	1.357660	0.333376	0.421462
C105	C	1.690993	0.666709	0.754795
C106	C	0.825684	0.000008	-0.034535
C107	C	1.159017	0.333341	0.298799
C108	C	1.492351	0.666675	0.632132
C109	C	0.824555	-0.000001	-0.111638
C110	C	1.157888	0.333332	0.221695
C111	C	1.491222	0.666666	0.555028
N112	N	0.820232	0.243571	0.092475
N113	N	1.153565	0.576905	0.425809
N114	N	1.486899	0.910238	0.759142
C115	C	0.887323	-0.000006	-0.156336
C116	C	1.220656	0.333328	0.176997
C117	C	1.553990	0.666661	0.510331
C118	C	0.886262	0.000011	-0.228783
C119	C	1.219596	0.333344	0.104550
C120	C	1.552929	0.666677	0.437884
C121	C	0.822430	0.000011	-0.256529
C122	C	1.155763	0.333344	0.076804
C123	C	1.489097	0.666678	0.410138
C124	C	0.759654	0.000022	-0.211822
C125	C	1.092987	0.333355	0.121512
C126	C	1.426320	0.666688	0.454845
C127	C	0.760716	0.000016	-0.139376
C128	C	1.094050	0.333349	0.193957
C129	C	1.427383	0.666682	0.527291
C130	C	0.772247	-0.059934	-0.364817
C131	C	1.105580	0.273400	-0.031484
C132	C	1.438913	0.606733	0.301849
C133	C	0.771187	-0.059934	-0.437262
C134	C	1.104520	0.273399	-0.103929
C135	C	1.437853	0.606733	0.229405
C136	C	0.819150	0.000034	-0.479975
C137	C	1.152484	0.333367	-0.146641
C138	C	1.485817	0.666701	0.186692
C139	C	0.868186	0.059989	-0.450236
C140	C	1.201519	0.393322	-0.116902
C141	C	1.534853	0.726656	0.216431
C142	C	0.869248	0.059983	-0.377790
C143	C	1.202582	0.393317	-0.044457
C144	C	1.535915	0.726650	0.288877
C145	C	0.821271	0.000018	-0.335083
C146	C	1.154604	0.333351	-0.001750
C147	C	1.487938	0.666685	0.331584
C148	C	0.880773	0.000048	-0.603228
C149	C	1.214106	0.333382	-0.269895
C150	C	1.547439	0.666715	0.063438
C151	C	0.879709	0.000071	-0.675676
C152	C	1.213043	0.333404	-0.342343
C153	C	1.546376	0.666738	-0.009010
C154	C	0.753099	0.000072	-0.658713
C155	C	1.086432	0.333405	-0.325380
C156	C	1.419766	0.666738	0.007953
C157	C	0.754164	0.000059	-0.586267
C158	C	1.087497	0.333393	-0.252934
C159	C	1.420831	0.666726	0.080400
C160	C	0.818003	0.000043	-0.558529
C161	C	1.151336	0.333376	-0.225196
C162	C	1.484670	0.666709	0.108138
C163	C	0.814747	0.000057	0.219479
C164	C	1.148081	0.333391	0.552812
C165	C	1.481414	0.666724	0.886146
C166	C	0.815876	0.000073	0.296583
C167	C	1.149210	0.333406	0.629916
C168	C	1.482543	0.666740	0.963249
H169	H	0.624763	0.000020	-0.018132
H170	H	0.958097	0.333353	0.315201
H171	H	1.291430	0.666686	0.648534
H172	H	0.266280	-0.108773	0.003513
H173	H	0.599613	0.224561	0.336847
H174	H	0.932947	0.557894	0.670180
H175	H	0.709601	0.000019	-0.102982
H176	H	1.042935	0.333352	0.230351
H177	H	1.376268	0.666686	0.563684
H178	H	0.909173	0.108803	-0.353580
H179	H	1.242507	0.442136	-0.020246
H180	H	1.575840	0.775469	0.313087
H181	H	0.177877	0.000030	-0.024691
H182	H	0.511211	0.333364	0.308642
H183	H	0.844544	0.666697	0.641976
N184	N	0.720517	-0.124615	-0.318743
N185	N	1.053850	0.208718	0.014590
N186	N	1.387183	0.542052	0.347924
H187	H	0.671459	-0.102238	-0.324795
H188	H	1.004793	0.231095	0.008538
H189	H	1.338126	0.564428	0.341872
H190	H	0.726860	-0.199408	-0.332250
H191	H	1.060193	0.133925	0.001084
H192	H	1.393526	0.467259	0.334417
N193	N	0.003879	-0.000023	0.219682
N194	N	0.337212	0.333310	0.553015
N195	N	0.670546	0.666644	0.886348
H196	H	0.012779	0.063396	0.247572
H197	H	0.346112	0.396729	0.580905
H198	H	0.679446	0.730062	0.914239
H199	H	-0.046214	-0.000082	0.209296
H200	H	0.287119	0.333251	0.542630
H201	H	0.620452	0.666584	0.875963
N202	N	0.154439	0.000049	0.221873
N203	N	0.487772	0.333382	0.555206
N204	N	0.821106	0.666715	0.888540
H205	H	0.115129	0.000050	0.261479
H206	H	0.448462	0.333383	0.594812
H207	H	0.781795	0.666717	0.928146
H208	H	0.184121	-0.063396	0.225061
H209	H	0.517454	0.269937	0.558394
H210	H	0.850788	0.603270	0.891728
H211	H	0.462558	0.000031	0.209639
H212	H	0.795891	0.333364	0.542972
H213	H	1.129224	0.666698	0.876306
H214	H	0.046445	0.000045	-0.026628
H215	H	0.379778	0.333378	0.306706
H216	H	0.713111	0.666711	0.640039
H217	H	0.493333	0.000016	-0.020063
H218	H	0.826667	0.333350	0.313270
H219	H	1.160000	0.666683	0.646603
N220	N	0.919926	0.124672	-0.496293
N221	N	1.253259	0.458005	-0.162960
N222	N	1.586592	0.791338	0.170374
H223	H	0.911812	0.115585	-0.546699
H224	H	1.245145	0.448918	-0.213366
H225	H	1.578479	0.782252	0.119967
H226	H	0.913623	0.199454	-0.482744
H227	H	1.246956	0.532787	-0.149411
H228	H	1.580290	0.866121	0.183923
N229	N	0.231426	0.124686	0.192168
N230	N	0.564759	0.458020	0.525501
N231	N	0.898092	0.791353	0.858834
H232	H	0.197364	0.078773	0.221557
H233	H	0.530697	0.412106	0.554890
H234	H	0.864031	0.745440	0.888224
H235	H	0.261301	0.162672	0.223341
H236	H	0.594634	0.496006	0.556674
H237	H	0.927967	0.829339	0.890008
N238	N	0.956179	-0.000016	-0.126427
N239	N	1.289512	0.333317	0.206907
N240	N	1.622846	0.666650	0.540240
H241	H	0.983672	0.063423	-0.142736
H242	H	1.317005	0.396757	0.190598
H243	H	1.650339	0.730090	0.523931
H244	H	0.947277	-0.000058	-0.073754
H245	H	1.280611	0.333275	0.259579
H246	H	1.613944	0.666608	0.592912
N247	N	0.690802	0.000020	-0.241738
N248	N	1.024136	0.333354	0.091596
N249	N	1.357469	0.666687	0.424929
H250	H	0.687544	0.063460	-0.271409
H251	H	1.020877	0.396793	0.061924
H252	H	1.354210	0.730126	0.395257
H253	H	0.687575	-0.063461	-0.271390
H254	H	1.020908	0.269872	0.061943
H255	H	1.354242	0.603206	0.395276
N256	N	0.408998	-0.124635	-0.007224
N257	N	0.742331	0.208698	0.326109
N258	N	1.075665	0.542031	0.659443
H259	H	0.379170	-0.162618	-0.038448
H260	H	0.712503	0.170715	0.294886
H261	H	1.045837	0.504049	0.628219
H262	H	0.443055	-0.078657	-0.036561
H263	H	0.776388	0.254676	0.296772
H264	H	1.109721	0.588010	0.630105
H265	H	0.937377	0.000011	-0.265183
H266	H	1.270711	0.333344	0.068151
H267	H	1.604044	0.666677	0.401484
H268	H	0.593984	0.000051	0.211567
H269	H	0.927318	0.333384	0.544900
H270	H	1.260651	0.666717	0.878233
N271	N	0.684254	0.000064	-0.688638
N272	N	1.017588	0.333398	-0.355305
N273	N	1.350921	0.666731	-0.021971
H274	H	0.656762	-0.063378	-0.672334
H275	H	0.990095	0.269955	-0.339001
H276	H	1.323429	0.603289	-0.005668
H277	H	0.656820	0.063543	-0.672308
H278	H	0.990153	0.396876	-0.338974
H279	H	1.323487	0.730210	-0.005641
N280	N	0.382004	0.124674	0.194392
N281	N	0.715337	0.458007	0.527725
N282	N	1.048671	0.791341	0.861059
H283	H	0.434379	0.115578	0.187787
H284	H	0.767713	0.448911	0.521120
H285	H	1.101046	0.782244	0.854454
H286	H	0.370215	0.199458	0.187718
H287	H	0.703548	0.532791	0.521052
H288	H	1.036881	0.866125	0.854385
H289	H	0.930825	0.000073	-0.712069
H290	H	1.264158	0.333406	-0.378736
H291	H	1.597492	0.666739	-0.045403
N292	N	0.949623	0.000035	-0.573304
N293	N	1.282956	0.333368	-0.239970
N294	N	1.616289	0.666702	0.093363
H295	H	0.989227	0.000043	-0.612616
H296	H	1.322560	0.333376	-0.279283
H297	H	1.655893	0.666709	0.054051
H298	H	0.952825	0.063470	-0.543601
H299	H	1.286158	0.396804	-0.210268
H300	H	1.619492	0.730137	0.123065
N301	N	0.686464	0.000058	-0.538052
N302	N	1.019797	0.333392	-0.204718
N303	N	1.353130	0.666725	0.128615
H304	H	0.645864	0.000061	-0.566619
H305	H	0.979197	0.333394	-0.233286
H306	H	1.312531	0.666727	0.100047
H307	H	0.684143	-0.063386	-0.507635
H308	H	1.017477	0.269948	-0.174301
H309	H	1.350810	0.603281	0.159032
H310	H	0.731256	-0.108747	-0.461469
H311	H	1.064589	0.224586	-0.128136
H312	H	1.397923	0.557919	0.205198
