data_functionalizedCrystal
_audit_creation_method	'MofGen! by Chris Wilmer'
_symmetry_space_group_name_H-M	'P1'
_symmetry_Int_Tables_number	1
_symmetry_cell_setting	triclinic
loop_
_symmetry_equiv_pos_as_xyz
  x,y,z
_cell_length_a	19.805407
_cell_length_b	19.121063
_cell_length_c	19.805399
_cell_angle_alpha	92.411105
_cell_angle_beta	89.980427
_cell_angle_gamma	92.469032
loop_
_atom_site_label
_atom_site_type_symbol
_atom_site_fract_x
_atom_site_fract_y
_atom_site_fract_z
Zn1	Zn	1.023234	-0.279631	-0.394203
Zn2	Zn	1.356567	0.053703	-0.060869
Zn3	Zn	1.689900	0.387036	0.272464
Zn4	Zn	1.018317	-0.397083	-0.285838
Zn5	Zn	1.351651	-0.063750	0.047496
Zn6	Zn	1.684984	0.269584	0.380829
Zn7	Zn	0.910048	-0.279650	-0.281028
Zn8	Zn	1.243381	0.053683	0.052305
Zn9	Zn	1.576714	0.387017	0.385638
Zn10	Zn	0.905182	-0.397046	-0.398983
Zn11	Zn	1.238516	-0.063712	-0.065650
Zn12	Zn	1.571849	0.269621	0.267684
O13	O	0.964195	-0.338352	-0.340013
O14	O	1.297529	-0.005019	-0.006680
O15	O	1.630862	0.328314	0.326654
O16	O	1.117298	-0.295218	-0.379840
O17	O	1.450631	0.038115	-0.046507
O18	O	1.783964	0.371448	0.286826
O19	O	1.003934	-0.381529	-0.190484
O20	O	1.337267	-0.048196	0.142849
O21	O	1.670601	0.285138	0.476182
O22	O	0.929156	-0.181363	-0.292028
O23	O	1.262489	0.151971	0.041306
O24	O	1.595822	0.485304	0.374639
O25	O	1.113686	-0.381510	-0.300225
O26	O	1.447019	-0.048177	0.033108
O27	O	1.780353	0.285156	0.366442
O28	O	1.012313	-0.181348	-0.375177
O29	O	1.345646	0.151985	-0.041843
O30	O	1.678980	0.485318	0.291490
O31	O	0.924388	-0.295251	-0.186951
O32	O	1.257722	0.038082	0.146383
O33	O	1.591055	0.371415	0.479716
O34	O	0.814686	-0.295215	-0.296663
O35	O	1.148019	0.038118	0.036670
O36	O	1.481353	0.371451	0.370004
O37	O	0.920863	-0.381447	-0.493065
O38	O	1.254197	-0.048113	-0.159731
O39	O	1.587530	0.285220	0.173602
O40	O	0.811111	-0.381465	-0.383324
O41	O	1.144445	-0.048132	-0.049990
O42	O	1.477778	0.285201	0.283343
O43	O	1.007595	-0.295182	-0.489553
O44	O	1.340929	0.038151	-0.156219
O45	O	1.674262	0.371484	0.177114
O46	O	0.999216	-0.495363	-0.304860
O47	O	1.332550	-0.162029	0.028473
O48	O	1.665883	0.171304	0.361807
O49	O	0.916096	-0.495335	-0.387987
O50	O	1.249430	-0.162002	-0.054654
O51	O	1.582763	0.171331	0.278679
C52	C	0.788340	-0.338339	-0.339991
C53	C	1.121673	-0.005006	-0.006657
C54	C	1.455006	0.328328	0.326676
C55	C	0.713107	-0.338350	-0.339998
C56	C	1.046441	-0.005017	-0.006664
C57	C	1.379774	0.328317	0.326669
C58	C	0.956613	-0.520833	-0.347479
C59	C	1.289947	-0.187500	-0.014146
C60	C	1.623280	0.145833	0.319187
C61	C	0.953431	-0.598899	-0.350696
C62	C	1.286765	-0.265566	-0.017363
C63	C	1.620098	0.067767	0.315971
C64	C	0.675917	-0.383328	-0.385055
C65	C	1.009250	-0.049995	-0.051721
C66	C	1.342584	0.283339	0.281612
C67	C	0.605228	-0.383329	-0.385064
C68	C	0.938562	-0.049996	-0.051731
C69	C	1.271895	0.283337	0.281602
C70	C	0.571732	-0.338356	-0.340013
C71	C	0.905065	-0.005022	-0.006680
C72	C	1.238398	0.328311	0.326654
C73	C	0.608927	-0.293373	-0.294954
C74	C	0.942261	0.039961	0.038379
C75	C	1.275594	0.373294	0.371713
C76	C	0.679614	-0.293368	-0.294948
C77	C	1.012948	0.039965	0.038385
C78	C	1.346281	0.373298	0.371719
C79	C	0.323853	-0.293388	-0.294977
C80	C	0.657187	0.039945	0.038356
C81	C	0.990520	0.373279	0.371690
C82	C	0.253161	-0.293397	-0.294985
C83	C	0.586494	0.039936	0.038348
C84	C	0.919827	0.373269	0.371682
C85	C	0.249467	-0.383349	-0.385093
C86	C	0.582800	-0.050016	-0.051760
C87	C	0.916134	0.283318	0.281574
C88	C	0.320154	-0.383345	-0.385087
C89	C	0.653488	-0.050012	-0.051754
C90	C	0.986821	0.283322	0.281579
C91	C	0.357344	-0.338360	-0.340031
C92	C	0.690677	-0.005026	-0.006698
C93	C	1.024011	0.328307	0.326636
C94	C	0.433992	-0.338358	-0.340022
C95	C	0.767326	-0.005025	-0.006689
C96	C	1.100659	0.328309	0.326645
C97	C	0.495084	-0.338360	-0.340018
C98	C	0.828418	-0.005027	-0.006685
C99	C	1.161751	0.328306	0.326648
C100	C	0.995246	-0.635566	-0.308963
C101	C	1.328580	-0.302233	0.024370
C102	C	1.661913	0.031101	0.357704
C103	C	0.992258	-0.708917	-0.311992
C104	C	1.325591	-0.375584	0.021341
C105	C	1.658925	-0.042251	0.354674
C106	C	0.947451	-0.745601	-0.356752
C107	C	1.280784	-0.412267	-0.023418
C108	C	1.614117	-0.078934	0.309915
C109	C	0.905634	-0.708929	-0.398489
C110	C	1.238968	-0.375596	-0.065156
C111	C	1.572301	-0.042262	0.268178
C112	C	0.908626	-0.635579	-0.395463
C113	C	1.241960	-0.302246	-0.062129
C114	C	1.575293	0.031088	0.271204
C115	C	0.936252	-0.967071	-0.368056
C116	C	1.269586	-0.633738	-0.034722
C117	C	1.602919	-0.300404	0.298611
C118	C	0.933262	-1.040426	-0.371078
C119	C	1.266595	-0.707093	-0.037744
C120	C	1.599929	-0.373759	0.295589
C121	C	1.019887	-1.040409	-0.284581
C122	C	1.353220	-0.707076	0.048752
C123	C	1.686554	-0.373743	0.382085
C124	C	1.022872	-0.967058	-0.281556
C125	C	1.356206	-0.633725	0.051777
C126	C	1.689539	-0.300391	0.385110
C127	C	0.981058	-0.930393	-0.323296
C128	C	1.314392	-0.597059	0.010037
C129	C	1.647725	-0.263726	0.343371
C130	C	0.944394	-0.820578	-0.359848
C131	C	1.277727	-0.487244	-0.026514
C132	C	1.611060	-0.153911	0.306819
C133	C	0.984119	-0.855417	-0.320203
C134	C	1.317453	-0.522084	0.013130
C135	C	1.650786	-0.188750	0.346464
C136	C	1.140737	-0.338366	-0.340036
C137	C	1.474071	-0.005033	-0.006703
C138	C	1.807404	0.328300	0.326631
C139	C	1.215969	-0.338372	-0.340046
C140	C	1.549302	-0.005039	-0.006712
C141	C	1.882636	0.328294	0.326621
C142	C	0.964235	-0.338308	-0.516554
C143	C	1.297568	-0.004975	-0.183221
C144	C	1.630902	0.328359	0.150113
C145	C	0.964252	-0.338289	-0.591785
C146	C	1.297585	-0.004956	-0.258452
C147	C	1.630919	0.328377	0.074881
C148	C	0.971825	-0.155159	-0.332532
C149	C	1.305159	0.178174	0.000801
C150	C	1.638492	0.511508	0.334134
C151	C	0.975077	-0.077093	-0.329345
C152	C	1.308410	0.256241	0.003989
C153	C	1.641744	0.589574	0.337322
C154	C	1.009414	-0.293369	-0.625302
C155	C	1.342748	0.039964	-0.291968
C156	C	1.676081	0.373297	0.041365
C157	C	1.009422	-0.293349	-0.695989
C158	C	1.342755	0.039985	-0.362656
C159	C	1.676089	0.373318	-0.029323
C160	C	0.964270	-0.338253	-0.733159
C161	C	1.297604	-0.004919	-0.399826
C162	C	1.630937	0.328414	-0.066493
C163	C	0.919103	-0.383175	-0.699638
C164	C	1.252436	-0.049841	-0.366305
C165	C	1.585770	0.283492	-0.032971
C166	C	0.919093	-0.383191	-0.628952
C167	C	1.252426	-0.049858	-0.295618
C168	C	1.585759	0.283476	0.037715
C169	C	0.919144	-0.383109	-0.984709
C170	C	1.252477	-0.049776	-0.651375
C171	C	1.585811	0.283557	-0.318042
C172	C	0.919159	-0.383091	-1.055400
C173	C	1.252493	-0.049758	-0.722067
C174	C	1.585826	0.283576	-0.388734
C175	C	1.009474	-0.293267	-1.051747
C176	C	1.342807	0.040066	-0.718413
C177	C	1.676140	0.373400	-0.385080
C178	C	1.009463	-0.293283	-0.981060
C179	C	1.342796	0.040050	-0.647727
C180	C	1.676130	0.373383	-0.314393
C181	C	0.964294	-0.338202	-0.947545
C182	C	1.297627	-0.004869	-0.614211
C183	C	1.630960	0.328464	-0.280878
C184	C	0.964285	-0.338223	-0.870897
C185	C	1.297618	-0.004890	-0.537564
C186	C	1.630952	0.328444	-0.204231
C187	C	0.964282	-0.338236	-0.809806
C188	C	1.297615	-0.004903	-0.476473
C189	C	1.630949	0.328431	-0.143139
C190	C	0.964197	-0.338346	-0.164157
C191	C	1.297530	-0.005012	0.169177
C192	C	1.630863	0.328321	0.502510
C193	C	0.964319	-0.338167	-0.088918
C194	C	1.297652	-0.004833	0.244416
C195	C	1.630986	0.328500	0.577749
H196	H	0.703185	-0.419953	-0.421739
H197	H	1.036518	-0.086620	-0.088405
H198	H	1.369851	0.246713	0.244928
C199	C	0.216316	-0.243918	-0.245431
C200	C	0.549649	0.089415	0.087902
C201	C	0.882982	0.422748	0.421235
H202	H	0.248588	-0.217120	-0.218601
H203	H	0.581921	0.116213	0.114732
H204	H	0.915255	0.449546	0.448065
H205	H	0.187614	-0.270744	-0.216996
H206	H	0.520947	0.062590	0.116338
H207	H	0.854280	0.395923	0.449671
H208	H	0.190021	-0.213356	-0.270133
H209	H	0.523354	0.119977	0.063200
H210	H	0.856688	0.453311	0.396533
C211	C	1.059081	-0.243976	-0.584418
C212	C	1.392415	0.089357	-0.251084
C213	C	1.725748	0.422690	0.082249
H214	H	1.052613	-0.250422	-0.537519
H215	H	1.385946	0.082911	-0.204185
H216	H	1.719279	0.416244	0.129148
H217	H	1.051144	-0.196783	-0.594074
H218	H	1.384477	0.136551	-0.260741
H219	H	1.717810	0.469884	0.072593
H220	H	1.104134	-0.254261	-0.596432
H221	H	1.437467	0.079072	-0.263099
H222	H	1.770801	0.412406	0.070234
C223	C	0.208557	-0.432826	-0.434662
C224	C	0.541891	-0.099492	-0.101328
C225	C	0.875224	0.233841	0.232005
H226	H	0.161661	-0.426384	-0.428221
H227	H	0.494994	-0.093051	-0.094888
H228	H	0.828328	0.240283	0.238446
H229	H	0.218178	-0.480002	-0.426610
H230	H	0.551511	-0.146668	-0.093277
H231	H	0.884845	0.186665	0.240056
H232	H	0.220589	-0.422604	-0.479738
H233	H	0.553922	-0.089270	-0.146404
H234	H	0.887256	0.244063	0.186929
C235	C	0.564320	-0.432848	-0.434587
C236	C	0.897653	-0.099515	-0.101254
C237	C	1.230987	0.233819	0.232079
H238	H	0.594393	-0.459651	-0.461400
H239	H	0.927726	-0.126317	-0.128066
H240	H	1.261059	0.207016	0.205267
H241	H	0.537849	-0.406064	-0.463043
H242	H	0.871183	-0.072731	-0.129710
H243	H	1.204516	0.260602	0.203623
H244	H	0.535486	-0.463403	-0.409857
H245	H	0.868819	-0.130070	-0.076524
H246	H	1.202152	0.203263	0.256809
H247	H	0.347424	-0.419970	-0.421771
H248	H	0.680757	-0.086636	-0.088437
H249	H	1.014090	0.246697	0.244896
C250	C	0.869491	-0.432485	-1.096289
C251	C	1.202824	-0.099152	-0.762956
C252	C	1.536157	0.234182	-0.429623
H253	H	0.875974	-0.426046	-1.143188
H254	H	1.209307	-0.092713	-0.809854
H255	H	1.542641	0.240620	-0.476521
H256	H	0.824439	-0.422205	-1.084282
H257	H	1.157772	-0.088872	-0.750948
H258	H	1.491106	0.244462	-0.417615
H259	H	0.877431	-0.479682	-1.086632
H260	H	1.210764	-0.146349	-0.753299
H261	H	1.544098	0.186985	-0.419966
C262	C	0.364752	-0.243919	-0.245406
C263	C	0.698086	0.089415	0.087927
C264	C	1.031419	0.422748	0.421261
H265	H	0.334677	-0.217144	-0.218570
H266	H	0.668010	0.116189	0.114763
H267	H	1.001343	0.449523	0.448097
H268	H	0.393611	-0.213345	-0.270083
H269	H	0.726944	0.119988	0.063250
H270	H	1.060278	0.453321	0.396583
H271	H	0.391197	-0.270754	-0.216967
H272	H	0.724530	0.062579	0.116366
H273	H	1.057863	0.395913	0.449700
H274	H	1.020604	-0.825547	-0.283763
H275	H	1.353937	-0.492214	0.049571
H276	H	1.687271	-0.158881	0.382904
H277	H	1.053931	-1.070270	-0.250600
H278	H	1.387264	-0.736937	0.082733
H279	H	1.720597	-0.403603	0.416066
C280	C	1.038251	-0.749248	-0.266083
C281	C	1.371585	-0.415914	0.067251
C282	C	1.704918	-0.082581	0.400584
H283	H	1.065359	-0.716895	-0.238986
H284	H	1.398692	-0.383562	0.094347
H285	H	1.732025	-0.050228	0.427680
H286	H	1.066565	-0.777818	-0.293177
H287	H	1.399898	-0.444485	0.040156
H288	H	1.733231	-0.111151	0.373490
H289	H	1.011202	-0.777904	-0.237749
H290	H	1.344535	-0.444570	0.095584
H291	H	1.677869	-0.111237	0.428917
H292	H	0.581649	-0.256751	-0.258275
H293	H	0.914982	0.076582	0.075058
H294	H	1.248315	0.409916	0.408391
H295	H	0.709894	-0.256739	-0.258261
H296	H	1.043228	0.076594	0.075072
H297	H	1.376561	0.409928	0.408405
H298	H	1.046199	-0.256772	-0.723275
H299	H	1.379533	0.076561	-0.389942
H300	H	1.712866	0.409895	-0.056609
C301	C	1.059127	-0.243887	-0.940176
C302	C	1.392461	0.089446	-0.606843
C303	C	1.725794	0.422780	-0.273510
H304	H	1.086022	-0.217126	-0.970262
H305	H	1.419355	0.116208	-0.636929
H306	H	1.752689	0.449541	-0.303595
H307	H	1.087496	-0.270760	-0.913702
H308	H	1.420829	0.062574	-0.580368
H309	H	1.754162	0.395907	-0.247035
H310	H	1.034499	-0.213288	-0.911350
H311	H	1.367832	0.120045	-0.578017
H312	H	1.701165	0.453379	-0.244683
C313	C	1.044536	-0.595220	-0.259728
C314	C	1.377869	-0.261887	0.073605
C315	C	1.711202	0.071446	0.406938
H316	H	1.069015	-0.627566	-0.235313
H317	H	1.402349	-0.294233	0.098020
H318	H	1.735682	0.039101	0.431354
H319	H	1.019830	-0.566648	-0.229033
H320	H	1.353164	-0.233315	0.104300
H321	H	1.686497	0.100019	0.437634
H322	H	1.075183	-0.566565	-0.284471
H323	H	1.408516	-0.233232	0.048862
H324	H	1.741850	0.100101	0.382196
H325	H	1.059358	-0.937192	-0.245110
H326	H	1.392691	-0.603858	0.088224
H327	H	1.726025	-0.270525	0.421557
H328	H	1.046250	-0.256689	-1.079043
H329	H	1.379584	0.076644	-0.745710
H330	H	1.712917	0.409977	-0.412376
C331	C	0.883978	-1.080777	-0.420320
C332	C	1.217311	-0.747444	-0.086987
C333	C	1.550644	-0.414110	0.246346
H334	H	0.859508	-1.048436	-0.444751
H335	H	1.192841	-0.715102	-0.111418
H336	H	1.526175	-0.381769	0.221915
H337	H	0.853331	-1.109435	-0.395587
H338	H	1.186664	-0.776101	-0.062254
H339	H	1.519997	-0.442768	0.271080
H340	H	0.908697	-1.109347	-0.451012
H341	H	1.242030	-0.776014	-0.117678
H342	H	1.575363	-0.442681	0.215655
H343	H	0.902204	-0.937224	-0.402041
H344	H	1.235538	-0.603890	-0.068707
H345	H	1.568871	-0.270557	0.264626
C346	C	0.895105	-0.860929	-0.409079
C347	C	1.228439	-0.527596	-0.075746
C348	C	1.561772	-0.194262	0.257588
H349	H	0.870629	-0.828589	-0.433505
H350	H	1.203963	-0.495256	-0.100172
H351	H	1.537296	-0.161922	0.233162
H352	H	0.864465	-0.889590	-0.384342
H353	H	1.197798	-0.556256	-0.051008
H354	H	1.531131	-0.222923	0.282325
H355	H	0.919822	-0.889496	-0.439775
H356	H	1.253155	-0.556163	-0.106442
H357	H	1.586488	-0.222830	0.226891
C358	C	0.856348	-0.749276	-0.447726
C359	C	1.189682	-0.415942	-0.114393
C360	C	1.523015	-0.082609	0.218940
H361	H	0.831878	-0.716931	-0.472153
H362	H	1.165212	-0.383597	-0.138819
H363	H	1.498545	-0.050264	0.194514
H364	H	0.825702	-0.777933	-0.422992
H365	H	1.159036	-0.444600	-0.089659
H366	H	1.492369	-0.111267	0.243675
H367	H	0.881063	-0.777845	-0.478422
H368	H	1.214396	-0.444512	-0.145089
H369	H	1.547730	-0.111179	0.188244
H370	H	0.882374	-0.419695	-0.957430
H371	H	1.215707	-0.086362	-0.624096
H372	H	1.549041	0.246971	-0.290763
C373	C	0.869436	-0.432569	-0.740520
C374	C	1.202769	-0.099236	-0.407187
C375	C	1.536102	0.234098	-0.073853
H376	H	0.842533	-0.459320	-0.710433
H377	H	1.175866	-0.125987	-0.377099
H378	H	1.509200	0.207347	-0.043766
H379	H	0.894056	-0.463167	-0.769349
H380	H	1.227390	-0.129834	-0.436015
H381	H	1.560723	0.203499	-0.102682
H382	H	0.841066	-0.405689	-0.766992
H383	H	1.174399	-0.072356	-0.433659
H384	H	1.507732	0.260977	-0.100325
H385	H	0.874577	-0.605726	-0.429447
H386	H	1.207910	-0.272392	-0.096113
H387	H	1.541244	0.060941	0.237220
H388	H	0.882310	-0.419762	-0.601663
H389	H	1.215644	-0.086429	-0.268330
H390	H	1.548977	0.246904	0.065003
