data_functionalizedCrystal
_audit_creation_method	'MofGen! by Chris Wilmer'
_symmetry_space_group_name_H-M	'P1'
_symmetry_Int_Tables_number	1
_symmetry_cell_setting	triclinic
loop_
_symmetry_equiv_pos_as_xyz
  x,y,z
_cell_length_a	14.971486
_cell_length_b	10.654551
_cell_length_c	13.448316
_cell_angle_alpha	89.996249
_cell_angle_beta	89.998199
_cell_angle_gamma	84.049745
loop_
_atom_site_label
_atom_site_type_symbol
_atom_site_fract_x
_atom_site_fract_y
_atom_site_fract_z
O1	O	1.187838	0.163659	-0.082571
O2	O	0.927545	0.183258	-0.082597
O3	O	1.063676	-0.009345	-0.082584
O4	O	1.051708	0.356262	-0.082584
O5	O	1.063659	-0.009357	0.082800
O6	O	0.927528	0.183246	0.082786
O7	O	1.187821	0.163647	0.082813
Cu8	Cu	1.057673	0.173445	0.097900
Cu9	Cu	1.057693	0.173459	-0.097685
O10	O	1.051690	0.356250	0.082799
C11	C	0.894207	0.182375	0.000091
C12	C	0.794895	0.179749	0.000081
C13	C	1.062788	-0.056139	0.000105
C14	C	1.060158	-0.195554	0.000098
C15	C	0.738286	0.292897	0.000082
C16	C	0.644973	0.290422	0.000097
C17	C	0.608271	0.174796	0.000103
C18	C	0.664888	0.061639	0.000105
C19	C	0.758199	0.064116	0.000097
C20	C	0.470397	0.056485	0.000119
C21	C	0.377080	0.054007	0.000125
C22	C	0.357172	0.282791	0.000118
C23	C	0.450483	0.285268	0.000111
C24	C	0.507093	0.172110	0.000110
C25	C	1.058934	-0.261047	-0.090051
C26	C	1.056456	-0.392040	-0.090046
C27	C	1.056429	-0.392039	0.090264
C28	C	1.058901	-0.261046	0.090259
C29	C	1.060191	-0.195555	-0.180211
C30	C	1.058968	-0.261047	-0.270367
C31	C	1.056489	-0.392041	-0.270363
C32	C	1.055234	-0.457542	-0.180202
C33	C	1.221159	0.164530	0.000122
C34	C	1.320471	0.167156	0.000126
C35	C	1.052578	0.403044	0.000108
C36	C	1.055208	0.542459	0.000108
N37	N	1.057665	0.173435	0.235465
N38	N	1.057708	0.173460	-0.235249
C39	C	1.117963	0.088185	0.287511
C40	C	1.117968	0.088184	0.391614
C41	C	1.057680	0.173440	0.443669
C42	C	0.997375	0.258693	0.391616
C43	C	0.997366	0.258687	0.287514
C44	C	0.997400	0.258702	0.608596
C45	C	0.997410	0.258709	0.712704
C46	C	1.118002	0.088199	0.712696
C47	C	1.117993	0.088193	0.608594
C48	C	1.057690	0.173448	0.556548
H49	H	0.768161	0.387053	0.000076
C50	C	1.052507	-0.601640	-0.180203
N51	N	1.050460	-0.710174	-0.180205
C52	C	1.055054	-0.464096	0.189434
N53	N	1.054021	-0.518371	0.264130
H54	H	1.167103	0.018781	0.755078
H55	H	0.598885	0.382559	0.000097
H56	H	1.059879	-0.207718	0.163666
C57	C	0.490852	0.412461	0.000108
N58	N	0.521259	0.508266	0.000111
C59	C	0.294899	0.407266	0.000124
N60	N	0.247991	0.501017	0.000125
C61	C	1.055171	-0.464084	-0.369535
N62	N	1.054195	-0.518348	-0.444236
C63	C	0.931085	0.352487	0.769963
N64	N	0.881126	0.423120	0.813090
H65	H	1.167067	0.018767	0.433990
H66	H	0.347201	-0.040145	0.000131
H67	H	0.948292	0.328122	0.566223
H68	H	0.516488	-0.035661	0.000120
C69	C	0.624513	-0.065551	0.000114
N70	N	0.594103	-0.161353	0.000117
H71	H	0.948283	0.328105	0.434005
C72	C	0.820470	-0.060357	0.000093
N73	N	0.867371	-0.154114	0.000092
H74	H	0.948265	0.328104	0.245139
H75	H	1.167060	0.018766	0.245135
H76	H	1.062212	-0.088894	-0.180225
C77	C	1.060348	-0.188994	-0.369539
N78	N	1.061390	-0.134725	-0.444236
H79	H	1.167089	0.018778	0.566211
