data_functionalizedCrystal
_audit_creation_method	'MofGen! by Chris Wilmer'
_symmetry_space_group_name_H-M	'P1'
_symmetry_Int_Tables_number	1
_symmetry_cell_setting	triclinic
loop_
_symmetry_equiv_pos_as_xyz
  x,y,z
_cell_length_a	16.992694
_cell_length_b	15.995350
_cell_length_c	16.053802
_cell_angle_alpha	92.567808
_cell_angle_beta	87.249047
_cell_angle_gamma	87.080299
loop_
_atom_site_label
_atom_site_type_symbol
_atom_site_fract_x
_atom_site_fract_y
_atom_site_fract_z
O1	O	1.043694	0.174244	-0.069318
O2	O	1.377027	0.507577	0.264016
O3	O	1.710361	0.840911	0.597349
O4	O	0.815410	0.172295	-0.069342
O5	O	1.148743	0.505628	0.263991
O6	O	1.482076	0.838962	0.597324
O7	O	0.935792	0.051799	-0.069329
O8	O	1.269125	0.385133	0.264005
O9	O	1.602459	0.718466	0.597338
O10	O	0.923312	0.294739	-0.069332
O11	O	1.256645	0.628073	0.264002
O12	O	1.589978	0.961406	0.597335
O13	O	0.929166	0.058403	0.069530
O14	O	1.262499	0.391736	0.402863
O15	O	1.595833	0.725069	0.736196
O16	O	0.808784	0.178898	0.069516
O17	O	1.142117	0.512232	0.402849
O18	O	1.475450	0.845565	0.736182
O19	O	1.037068	0.180847	0.069540
O20	O	1.370401	0.514181	0.402874
O21	O	1.703734	0.847514	0.736207
Zn22	Zn	0.921874	0.180921	0.091575
Zn23	Zn	1.255207	0.514254	0.424908
Zn24	Zn	1.588540	0.847588	0.758241
Zn25	Zn	0.930604	0.172221	-0.091377
Zn26	Zn	1.263937	0.505554	0.241957
Zn27	Zn	1.597271	0.838888	0.575290
O28	O	0.916685	0.301343	0.069527
O29	O	1.250019	0.634676	0.402860
O30	O	1.583352	0.968009	0.736193
C31	C	0.782884	0.173091	0.000083
C32	C	1.116218	0.506424	0.333417
C33	C	1.449551	0.839757	0.666750
C34	C	0.695841	0.165614	0.000074
C35	C	1.029174	0.498947	0.333407
C36	C	1.362507	0.832281	0.666741
C37	C	0.931963	0.023872	0.000099
C38	C	1.265296	0.357205	0.333432
C39	C	1.598630	0.690538	0.666765
C40	C	0.930417	-0.069182	0.000094
C41	C	1.263750	0.264151	0.333427
C42	C	1.597083	0.597484	0.666761
C43	C	0.645600	0.237749	0.000074
C44	C	0.978934	0.571083	0.333407
C45	C	1.312267	0.904416	0.666740
C46	C	0.563813	0.230720	0.000085
C47	C	0.897146	0.564054	0.333419
C48	C	1.230480	0.897387	0.666752
C49	C	0.532268	0.151555	0.000091
C50	C	0.865601	0.484888	0.333424
C51	C	1.198935	0.818221	0.666758
C52	C	0.582515	0.079414	0.000094
C53	C	0.915848	0.412748	0.333427
C54	C	1.249182	0.746081	0.666761
C55	C	0.664300	0.086444	0.000088
C56	C	0.997634	0.419778	0.333422
C57	C	1.330967	0.753111	0.666755
C58	C	0.288669	0.122417	0.000114
C59	C	0.622003	0.455751	0.333447
C60	C	0.955336	0.789084	0.666780
C61	C	0.206878	0.115392	0.000117
C62	C	0.540211	0.448726	0.333450
C63	C	0.873544	0.782059	0.666784
C64	C	0.188181	0.266699	0.000110
C65	C	0.521515	0.600033	0.333443
C66	C	0.854848	0.933366	0.666777
C67	C	0.269969	0.273722	0.000099
C68	C	0.603303	0.607056	0.333433
C69	C	0.936636	0.940389	0.666766
C70	C	0.320209	0.201582	0.000106
C71	C	0.653542	0.534915	0.333440
C72	C	0.986875	0.868249	0.666773
N73	N	0.448669	0.144368	0.000100
N74	N	0.782002	0.477701	0.333434
N75	N	1.115336	0.811035	0.666767
N76	N	0.403806	0.208770	0.000103
N77	N	0.737139	0.542103	0.333436
N78	N	1.070473	0.875437	0.666770
C79	C	0.924861	-0.407302	0.000096
C80	C	1.258194	-0.073968	0.333429
C81	C	1.591528	0.259365	0.666763
C82	C	0.839142	-0.365620	-0.000225
C83	C	1.172475	-0.032286	0.333109
C84	C	1.505809	0.301047	0.666442
C85	C	0.840674	-0.268811	0.000089
C86	C	1.174007	0.064522	0.333422
C87	C	1.507341	0.397856	0.666755
C88	C	0.927617	-0.239557	0.000095
C89	C	1.260950	0.093777	0.333428
C90	C	1.594283	0.427110	0.666761
C91	C	0.966120	-0.274034	0.079392
C92	C	1.299453	0.059300	0.412726
C93	C	1.632787	0.392633	0.746059
C94	C	0.963963	-0.370810	0.079459
C95	C	1.297296	-0.037477	0.412792
C96	C	1.630630	0.295856	0.746125
C97	C	0.973269	-0.378559	-0.078449
C98	C	1.306603	-0.045226	0.254884
C99	C	1.639936	0.288108	0.588218
C100	C	0.973299	-0.281665	-0.079497
C101	C	1.306632	0.051668	0.253836
C102	C	1.639966	0.385002	0.587170
C103	C	0.929179	-0.144755	0.000096
C104	C	1.262512	0.188579	0.333430
C105	C	1.595845	0.521912	0.666763
C106	C	0.923302	-0.502103	0.000100
C107	C	1.256635	-0.168770	0.333433
C108	C	1.589968	0.164563	0.666766
C109	C	1.069593	0.180051	0.000113
C110	C	1.402927	0.513385	0.333446
C111	C	1.736260	0.846718	0.666779
C112	C	1.156637	0.187528	0.000117
C113	C	1.489971	0.520861	0.333450
C114	C	1.823304	0.854194	0.666783
C115	C	0.920515	0.329270	0.000097
C116	C	1.253848	0.662604	0.333431
C117	C	1.587181	0.995937	0.666764
C118	C	0.922061	0.422324	0.000097
C119	C	1.255395	0.755658	0.333430
C120	C	1.588728	1.088991	0.666763
N121	N	0.915921	0.186859	0.216434
N122	N	1.249255	0.520192	0.549768
N123	N	1.582588	0.853525	0.883101
N124	N	0.936563	0.166277	-0.216236
N125	N	1.269896	0.499611	0.117097
N126	N	1.603229	0.832944	0.450430
C127	C	0.967163	0.135608	0.260134
C128	C	1.300496	0.468942	0.593468
C129	C	1.633829	0.802275	0.926801
C130	C	0.963006	0.139770	0.347541
C131	C	1.296340	0.473103	0.680874
C132	C	1.629673	0.806437	1.014207
C133	C	0.907611	0.195187	0.391245
C134	C	1.240945	0.528520	0.724579
C135	C	1.574278	0.861854	1.057912
C136	C	0.856364	0.246439	0.347539
C137	C	1.189698	0.579773	0.680873
C138	C	1.523031	0.913106	1.014206
C139	C	0.860518	0.242273	0.260135
C140	C	1.193851	0.575606	0.593468
C141	C	1.527184	0.908939	0.926801
C142	C	0.889469	0.213363	0.652653
C143	C	1.222802	0.546697	0.985986
C144	C	1.556136	0.880030	1.319320
C145	C	0.885321	0.217528	0.740064
C146	C	1.218654	0.550861	1.073397
C147	C	1.551988	0.884194	1.406730
C148	C	0.991962	0.110857	0.740059
C149	C	1.325296	0.444190	1.073392
C150	C	1.658629	0.777524	1.406725
C151	C	0.996114	0.106699	0.652652
C152	C	1.329447	0.440032	0.985986
C153	C	1.662781	0.773365	1.319319
C154	C	0.944864	0.157948	0.608954
C155	C	1.278198	0.491281	0.942287
C156	C	1.611531	0.824615	1.275621
N157	N	0.903363	0.199444	0.480589
N158	N	1.236696	0.532777	0.813922
N159	N	1.570030	0.866111	1.147255
N160	N	0.949109	0.153686	0.519612
N161	N	1.282443	0.487019	0.852946
N162	N	1.615776	0.820353	1.186279
H163	H	0.671277	0.302214	0.000068
H164	H	1.004610	0.635548	0.333402
H165	H	1.337944	0.968881	0.666735
C166	C	0.796507	-0.397415	-0.077043
C167	C	1.129840	-0.064081	0.256291
C168	C	1.463174	0.269252	0.589624
N169	N	0.764393	-0.421371	-0.134903
N170	N	1.097726	-0.088038	0.198431
N171	N	1.431059	0.245295	0.531764
H172	H	0.818790	0.284005	0.224555
H173	H	1.152124	0.617338	0.557889
H174	H	1.485457	0.950672	0.891222
C175	C	0.132912	0.346049	0.000112
C176	C	0.466245	0.679382	0.333446
C177	C	0.799578	1.012715	0.666779
N178	N	0.091282	0.405818	0.000119
N179	N	0.424615	0.739151	0.333452
N180	N	0.757948	1.072485	0.666786
H181	H	0.295647	0.338187	0.000085
H182	H	0.628980	0.671520	0.333418
H183	H	0.962314	1.004853	0.666752
H184	H	0.522910	0.289461	0.000084
H185	H	0.856243	0.622794	0.333418
H186	H	1.189577	0.956127	0.666751
H187	H	0.181198	0.050923	0.000121
H188	H	0.514531	0.384257	0.333454
H189	H	0.847864	0.717590	0.666787
C190	C	0.799425	-0.237068	-0.076702
C191	C	1.132759	0.096265	0.256632
C192	C	1.466092	0.429599	0.589965
N193	N	0.768351	-0.213163	-0.134540
N194	N	1.101684	0.120170	0.198793
N195	N	1.435018	0.453504	0.532126
C196	C	1.057049	0.045731	0.604583
C197	C	1.390382	0.379065	0.937917
C198	C	1.723715	0.712398	1.271250
N199	N	1.102946	-0.000190	0.568378
N200	N	1.436279	0.333144	0.901711
N201	N	1.769613	0.666477	1.235045
C202	C	0.824377	0.278491	0.788137
C203	C	1.157711	0.611824	1.121471
C204	C	1.491044	0.945157	1.454804
N205	N	0.778477	0.324406	0.824347
N206	N	1.111811	0.657739	1.157680
N207	N	1.445144	0.991073	1.491013
C208	C	0.343923	0.043059	0.000116
C209	C	0.677256	0.376393	0.333450
C210	C	1.010589	0.709726	0.666783
N211	N	0.385543	-0.016717	0.000117
N212	N	0.718876	0.316616	0.333450
N213	N	1.052209	0.649950	0.666783
C214	C	0.935352	-0.251366	-0.158751
C215	C	1.268686	0.081967	0.174583
C216	C	1.602019	0.415300	0.507916
N217	N	0.906763	-0.228548	-0.218443
N218	N	1.240096	0.104785	0.114890
N219	N	1.573430	0.438118	0.448224
H220	H	1.026736	-0.398675	0.083061
H221	H	1.360070	-0.065342	0.416394
H222	H	1.693403	0.267991	0.749727
C223	C	1.028102	0.074644	0.212067
C224	C	1.361435	0.407978	0.545400
C225	C	1.694768	0.741311	0.878734
N226	N	1.074000	0.028722	0.175865
N227	N	1.407333	0.362055	0.509198
N228	N	1.740667	0.695388	0.842532
H229	H	0.556824	0.014956	0.000111
H230	H	0.890158	0.348290	0.333444
H231	H	1.223491	0.681623	0.666777
C232	C	0.833194	0.269855	0.604596
C233	C	1.166527	0.603188	0.937930
C234	C	1.499861	0.936522	1.271263
N235	N	0.790841	0.312449	0.568397
N236	N	1.124175	0.645782	0.901730
N237	N	1.457508	0.979115	1.235064
C238	C	1.019358	0.083369	0.395606
C239	C	1.352691	0.416702	0.728940
C240	C	1.686024	0.750036	1.062273
N241	N	1.061797	0.040876	0.431809
N242	N	1.395130	0.374210	0.765142
N243	N	1.728464	0.707543	1.098476
H244	H	0.811257	0.291558	0.383129
H245	H	1.144590	0.624891	0.716462
H246	H	1.477923	0.958225	1.049796
H247	H	0.705206	0.027704	0.000088
H248	H	1.038539	0.361037	0.333421
H249	H	1.371873	0.694371	0.666755
H250	H	0.802329	-0.384808	0.056318
H251	H	1.135662	-0.051474	0.389651
H252	H	1.468995	0.281859	0.722984
C253	C	1.048327	0.054480	0.788134
C254	C	1.381660	0.387813	1.121467
C255	C	1.714994	0.721146	1.454801
N256	N	1.090780	0.012010	0.824344
N257	N	1.424113	0.345344	1.157678
N258	N	1.757447	0.678677	1.491011
C259	C	0.791798	-0.230531	0.077006
C260	C	1.125131	0.102803	0.410340
C261	C	1.458465	0.436136	0.743673
N262	N	0.754983	-0.201699	0.134945
N263	N	1.088317	0.131635	0.468278
N264	N	1.421650	0.464968	0.801612
H265	H	0.930299	-0.388357	0.138731
H266	H	1.263632	-0.055023	0.472064
H267	H	1.596965	0.278310	0.805397
H268	H	0.933934	-0.244811	0.138399
H269	H	1.267267	0.088522	0.471732
H270	H	1.600600	0.421855	0.805066
C271	C	1.052216	-0.248970	0.083396
C272	C	1.385549	0.084363	0.416729
C273	C	1.718883	0.417697	0.750063
N274	N	1.117062	-0.230085	0.086413
N275	N	1.450395	0.103249	0.419747
N276	N	1.783728	0.436582	0.753080
H277	H	0.948107	-0.403833	-0.138552
H278	H	1.281440	-0.070499	0.194782
H279	H	1.614773	0.262834	0.528115
C280	C	1.059265	-0.255494	-0.085957
C281	C	1.392598	0.077839	0.247377
C282	C	1.725932	0.411172	0.580710
N283	N	1.124019	-0.235785	-0.090814
N284	N	1.457352	0.097548	0.242519
N285	N	1.790685	0.430881	0.575852
H286	H	1.036506	-0.406115	-0.078977
H287	H	1.369840	-0.072782	0.254356
H288	H	1.703173	0.260551	0.587689
