data_functionalizedCrystal
_audit_creation_method	'MofGen! by Chris Wilmer'
_symmetry_space_group_name_H-M	'P1'
_symmetry_Int_Tables_number	1
_symmetry_cell_setting	triclinic
loop_
_symmetry_equiv_pos_as_xyz
  x,y,z
_cell_length_a	8.497367
_cell_length_b	8.497374
_cell_length_c	18.215407
_cell_angle_alpha	90.001682
_cell_angle_beta	90.038963
_cell_angle_gamma	90.038609
loop_
_atom_site_label
_atom_site_type_symbol
_atom_site_fract_x
_atom_site_fract_y
_atom_site_fract_z
Zn1	Zn	0.628561	0.892471	1.125253
Zn2	Zn	0.961895	1.225804	1.458587
Zn3	Zn	1.295228	1.559137	1.791920
Zn4	Zn	0.892307	0.628890	1.125322
Zn5	Zn	1.225641	0.962223	1.458655
Zn6	Zn	1.558974	1.295557	1.791988
Zn7	Zn	0.628509	0.628698	1.002221
Zn8	Zn	0.961843	0.962031	1.335554
Zn9	Zn	1.295176	1.295365	1.668887
Zn10	Zn	0.892268	0.892622	1.002277
Zn11	Zn	1.225602	1.225955	1.335610
Zn12	Zn	1.558935	1.559288	1.668944
O13	O	0.760412	0.760670	1.063768
O14	O	1.093745	1.094003	1.397102
O15	O	1.427078	1.427337	1.730435
O16	O	0.663586	0.857523	1.228247
O17	O	0.996919	1.190857	1.561580
O18	O	1.330252	1.524190	1.894913
O19	O	0.857309	0.408102	1.108997
O20	O	1.190642	0.741435	1.442330
O21	O	1.523975	1.074769	1.775664
O22	O	0.407754	0.663545	1.018489
O23	O	0.741087	0.996878	1.351822
O24	O	1.074420	1.330211	1.685156
O25	O	0.857359	0.663872	1.228297
O26	O	1.190692	0.997205	1.561630
O27	O	1.524026	1.330538	1.894964
O28	O	0.407792	0.857337	1.108881
O29	O	0.741125	1.190671	1.442214
O30	O	1.074458	1.524004	1.775547
O31	O	0.663497	0.407961	1.018555
O32	O	0.996831	0.741295	1.351889
O33	O	1.330164	1.074628	1.685222
O34	O	0.663460	0.663691	0.899244
O35	O	0.996793	0.997024	1.232577
O36	O	1.330126	1.330358	1.565911
O37	O	0.857292	1.113364	1.018585
O38	O	1.190626	1.446697	1.351919
O39	O	1.523959	1.780030	1.685252
O40	O	0.857242	0.857594	0.899285
O41	O	1.190575	1.190928	1.232619
O42	O	1.523909	1.524261	1.565952
O43	O	0.663548	1.113253	1.108935
O44	O	0.996881	1.446586	1.442269
O45	O	1.330215	1.779920	1.775602
O46	O	1.113065	0.664018	1.109052
O47	O	1.446398	0.997351	1.442385
O48	O	1.779731	1.330685	1.775719
O49	O	1.113036	0.857780	1.018652
O50	O	1.446369	1.191114	1.351985
O51	O	1.779703	1.524447	1.685318
C52	C	0.760342	0.760639	0.872562
C53	C	1.093675	1.093973	1.205895
C54	C	1.427009	1.427306	1.539229
C55	C	0.760350	0.760663	0.790763
C56	C	1.093684	1.093997	1.124096
C57	C	1.427017	1.427330	1.457430
C58	C	1.348931	0.760524	1.063717
C59	C	1.682264	1.093858	1.397050
C60	C	2.015598	1.427191	1.730384
C61	C	1.170287	0.760813	1.063810
C62	C	1.503621	1.094146	1.397143
C63	C	1.836954	1.427479	1.730476
C64	C	0.659708	0.861665	0.525674
C65	C	0.993042	1.194999	0.859007
C66	C	1.326375	1.528332	1.192340
C67	C	0.659683	0.861660	0.602533
C68	C	0.993016	1.194994	0.935866
C69	C	1.326349	1.528327	1.269199
C70	C	0.861166	0.659709	0.602604
C71	C	1.194499	0.993042	0.935937
C72	C	1.527833	1.326376	1.269271
C73	C	0.861198	0.659723	0.525747
C74	C	1.194531	0.993057	0.859080
C75	C	1.527865	1.326390	1.192413
C76	C	0.760460	0.760699	0.487284
C77	C	1.093794	1.094032	0.820617
C78	C	1.427127	1.427366	1.153950
C79	C	0.760403	0.760680	0.641000
C80	C	1.093736	1.094013	0.974333
C81	C	1.427069	1.427347	1.307666
C82	C	0.760376	0.760674	0.724333
C83	C	1.093709	1.094007	1.057667
C84	C	1.427042	1.427340	1.391000
C85	C	0.760489	0.760708	0.403945
C86	C	1.093822	1.094041	0.737278
C87	C	1.427156	1.427374	1.070611
C88	C	0.760414	1.172150	1.063763
C89	C	1.093747	1.505484	1.397096
C90	C	1.427081	1.838817	1.730429
C91	C	0.760431	1.350794	1.063764
C92	C	1.093764	1.684128	1.397098
C93	C	1.427097	2.017461	1.730431
C94	C	0.760482	0.760702	1.255721
C95	C	1.093816	1.094035	1.589054
C96	C	1.427149	1.427369	1.922388
C97	C	0.760513	0.760716	1.337520
C98	C	1.093846	1.094049	1.670853
C99	C	1.427179	1.427382	2.004187
H100	H	0.577681	0.943886	0.494359
H101	H	0.911014	1.277219	0.827693
H102	H	1.244347	1.610553	1.161026
H103	H	0.577642	0.943879	0.633786
H104	H	0.910975	1.277212	0.967120
H105	H	1.244308	1.610546	1.300453
H106	H	0.943251	0.577503	0.494488
H107	H	1.276585	0.910836	0.827822
H108	H	1.609918	1.244170	1.161155
H109	H	0.943180	0.577495	0.633930
H110	H	1.276513	0.910829	0.967263
H111	H	1.609847	1.244162	1.300597
