data_functionalizedCrystal
_audit_creation_method	'MofGen! by Chris Wilmer'
_symmetry_space_group_name_H-M	'P1'
_symmetry_Int_Tables_number	1
_symmetry_cell_setting	triclinic
loop_
_symmetry_equiv_pos_as_xyz
  x,y,z
_cell_length_a	9.065215
_cell_length_b	10.540510
_cell_length_c	8.140239
_cell_angle_alpha	89.998951
_cell_angle_beta	89.997810
_cell_angle_gamma	84.764004
loop_
_atom_site_label
_atom_site_type_symbol
_atom_site_fract_x
_atom_site_fract_y
_atom_site_fract_z
O1	O	1.959448	0.186128	-0.136584
O2	O	1.530084	0.201401	-0.136591
O3	O	1.754584	0.009092	-0.136587
O4	O	1.734947	0.378437	-0.136588
O5	O	1.754572	0.009089	0.136640
O6	O	1.530072	0.201398	0.136636
O7	O	1.959435	0.186126	0.136643
Zn8	Zn	1.744751	0.193762	0.180020
Zn9	Zn	1.744768	0.193765	-0.179968
O10	O	1.734935	0.378435	0.136639
C11	C	1.475099	0.199933	0.000022
C12	C	1.311278	0.195546	0.000019
C13	C	1.753115	-0.038218	0.000023
C14	C	1.748737	-0.179185	0.000013
C15	C	1.904696	-0.396065	0.000642
C16	C	1.909366	-0.249452	0.000017
C17	C	1.666517	-0.224245	-0.156011
C18	C	1.662985	-0.371019	-0.156133
C19	C	1.659625	-0.370843	0.154577
C20	C	1.667244	-0.224473	0.156631
C21	C	2.014421	0.187594	0.000027
C22	C	2.178241	0.191980	0.000019
C23	C	1.736404	0.425745	0.000025
C24	C	1.740782	0.566711	0.000024
N25	N	1.744751	0.193759	0.425703
N26	N	1.744780	0.193758	-0.425651
H27	H	1.973698	-0.219872	0.111859
H28	H	1.549972	-0.175839	0.166051
H29	H	1.539023	-0.393438	0.155627
H30	H	1.719184	-0.411026	-0.272761
Br31	Br	1.766944	-0.176410	0.349023
Br32	Br	2.009002	-0.465604	0.187142
H33	H	1.710666	-0.412837	0.272844
Br34	Br	2.008418	-0.468191	-0.184791
H35	H	1.974082	-0.220807	-0.112018
H36	H	1.542843	-0.394457	-0.163204
H37	H	1.723626	-0.193177	-0.272122
Br38	Br	1.469421	-0.145987	-0.165701
