data_functionalizedCrystal
_audit_creation_method	'MofGen! by Chris Wilmer'
_symmetry_space_group_name_H-M	'P1'
_symmetry_Int_Tables_number	1
_symmetry_cell_setting	triclinic
loop_
_symmetry_equiv_pos_as_xyz
  x,y,z
_cell_length_a	16.625546
_cell_length_b	21.395362
_cell_length_c	21.395355
_cell_angle_alpha	89.997168
_cell_angle_beta	89.981524
_cell_angle_gamma	90.043196
loop_
_atom_site_label
_atom_site_type_symbol
_atom_site_fract_x
_atom_site_fract_y
_atom_site_fract_z
Zn1	Zn	-0.320649	0.957895	-0.353899
Zn2	Zn	0.179351	1.457895	0.146101
Zn3	Zn	-0.455464	0.957813	-0.249121
Zn4	Zn	0.044536	1.457813	0.250879
Zn5	Zn	-0.320698	0.853110	-0.249175
Zn6	Zn	0.179302	1.353110	0.250825
Zn7	Zn	-0.455492	0.853094	-0.353901
Zn8	Zn	0.044508	1.353094	0.146099
O9	O	-0.388076	0.905478	-0.301524
O10	O	0.111924	1.405478	0.198476
O11	O	-0.338501	1.045562	-0.339976
O12	O	0.161499	1.545562	0.160024
O13	O	-0.437596	0.943896	-0.161450
O14	O	0.062404	1.443896	0.338550
O15	O	-0.207859	0.867051	-0.263088
O16	O	0.292141	1.367051	0.236912
O17	O	-0.437549	1.045501	-0.262997
O18	O	0.062451	1.545501	0.237003
O19	O	-0.207823	0.944036	-0.340028
O20	O	0.292177	1.444036	0.159972
O21	O	-0.338584	0.866971	-0.161490
O22	O	0.161416	1.366971	0.338510
O23	O	-0.338611	0.765430	-0.263091
O24	O	0.161389	1.265430	0.236909
O25	O	-0.437596	0.867024	-0.441579
O26	O	0.062404	1.367024	0.058421
O27	O	-0.437644	0.765419	-0.340032
O28	O	0.062356	1.265419	0.159968
O29	O	-0.338528	0.944021	-0.441577
O30	O	0.161472	1.444021	0.058423
O31	O	-0.568300	0.943880	-0.262999
O32	O	-0.068300	1.443880	0.237001
O33	O	-0.568321	0.866944	-0.339980
O34	O	-0.068321	1.366944	0.160020
C35	C	-0.597567	0.905419	-0.301498
C36	C	-0.097567	1.405419	0.198502
C37	C	-0.687188	0.905451	-0.301507
C38	C	-0.187188	1.405451	0.198493
C39	C	-0.388060	0.905530	-0.464947
C40	C	0.111940	1.405530	0.035053
C41	C	-0.388053	0.905552	-0.534589
C42	C	0.111947	1.405552	-0.034589
C43	C	-0.388016	1.068901	-0.301480
C44	C	0.111984	1.568901	0.198520
C45	C	-0.387990	1.138543	-0.301461
C46	C	0.112010	1.638543	0.198539
C47	C	-1.015363	0.905560	-0.301573
C48	C	-0.515363	1.405560	0.198427
C49	C	-0.924055	0.905528	-0.301556
C50	C	-0.424055	1.405528	0.198444
C51	C	-0.851279	0.905505	-0.301540
C52	C	-0.351279	1.405505	0.198460
C53	C	-0.759964	0.905473	-0.301524
C54	C	-0.259964	1.405473	0.198476
C55	C	-0.177767	0.905555	-0.301564
C56	C	0.322233	1.405555	0.198436
C57	C	-0.088146	0.905587	-0.301581
C58	C	0.411854	1.405587	0.198419
C59	C	-0.388136	0.742690	-0.301568
C60	C	0.111864	1.242690	0.198432
C61	C	-0.388182	0.673049	-0.301602
C62	C	0.111818	1.173049	0.198398
C63	C	-0.336431	1.171288	-0.341543
C64	C	0.163569	1.671288	0.158457
C65	C	-0.336457	1.236724	-0.341565
C66	C	0.163543	1.736724	0.158435
C67	C	-0.388034	1.269411	-0.301493
C68	C	0.111966	1.769411	0.198507
C69	C	-0.439604	1.236657	-0.261408
C70	C	0.060396	1.736657	0.238592
C71	C	-0.439582	1.171223	-0.261392
C72	C	0.060418	1.671223	0.238608
C73	C	-0.394438	1.373084	-0.245067
C74	C	0.105562	1.873084	0.254933
C75	C	-0.394454	1.438517	-0.245082
C76	C	0.105546	1.938517	0.254918
C77	C	-0.388106	1.471232	-0.301542
C78	C	0.111894	1.971232	0.198458
C79	C	-0.381724	1.438505	-0.357989
C80	C	0.118276	1.938505	0.142011
C81	C	-0.381702	1.373071	-0.357973
C82	C	0.118298	1.873071	0.142027
C83	C	-0.388064	1.340363	-0.301506
C84	C	0.111936	1.840363	0.198494
C85	C	-0.336571	1.574930	-0.341651
C86	C	0.163429	2.074930	0.158349
C87	C	-0.336603	1.640366	-0.341673
C88	C	0.163397	2.140366	0.158327
C89	C	-0.439746	1.640299	-0.261511
C90	C	0.060254	2.140299	0.238489
C91	C	-0.439718	1.574864	-0.261494
C92	C	0.060282	2.074864	0.238506
C93	C	-0.388127	1.542183	-0.301563
C94	C	0.111873	2.042183	0.198437
C95	C	-0.336465	0.945643	-0.567302
C96	C	0.163535	1.445643	-0.067302
C97	C	-0.336431	0.945642	-0.632737
C98	C	0.163569	1.445642	-0.132737
C99	C	-0.387998	0.905557	-0.665457
C100	C	0.112002	1.405557	-0.165457
C101	C	-0.439589	0.865459	-0.632736
C102	C	0.060411	1.365459	-0.132736
C103	C	-0.439616	0.865456	-0.567302
C104	C	0.060384	1.365456	-0.067302
C105	C	-0.460601	0.900589	-0.769124
C106	C	0.039399	1.400589	-0.269124
C107	C	-0.460575	0.900596	-0.834557
C108	C	0.039425	1.400596	-0.334557
C109	C	-0.387913	0.905561	-0.867278
C110	C	0.112087	1.405561	-0.367278
C111	C	-0.315274	0.910532	-0.834557
C112	C	0.184726	1.410532	-0.334557
C113	C	-0.315302	0.910530	-0.769123
C114	C	0.184698	1.410530	-0.269123
C115	C	-0.387973	0.905555	-0.736409
C116	C	0.112027	1.405555	-0.236409
C117	C	-0.336283	0.945653	-0.970944
C118	C	0.163717	1.445653	-0.470944
C119	C	-0.336247	0.945647	-1.036380
C120	C	0.163753	1.445647	-0.536380
C121	C	-0.439412	0.865468	-1.036378
C122	C	0.060588	1.365468	-0.536378
C123	C	-0.439441	0.865470	-0.970942
C124	C	0.060559	1.365470	-0.470942
C125	C	-0.387878	0.905565	-0.938229
C126	C	0.112122	1.405565	-0.438229
C127	C	-0.388034	0.905462	-0.138736
C128	C	0.111966	1.405462	0.361264
C129	C	-0.387814	0.905562	-0.069095
C130	C	0.112186	1.405562	0.430905
H131	H	-0.294424	1.144684	-0.374174
H132	H	0.205576	1.644684	0.125826
H133	H	-0.256106	0.914576	-0.861197
H134	H	0.243894	1.414576	-0.361197
F135	F	-0.494288	0.822801	-1.071196
F136	F	0.005712	1.322801	-0.571196
H137	H	-0.376550	1.465140	-0.403964
H138	H	0.123450	1.965140	0.096036
F139	F	-0.494467	0.822796	-0.667559
F140	F	0.005533	1.322796	-0.167559
F141	F	-0.281576	1.271581	-0.384227
F142	F	0.218424	1.771581	0.115773
F143	F	-0.401233	1.473341	-0.185006
F144	F	0.098767	1.973341	0.314994
F145	F	-0.237997	0.915817	-0.734302
F146	F	0.262003	1.415817	-0.234302
H147	H	-0.294478	0.978291	-0.540671
H148	H	0.205522	1.478291	-0.040671
H149	H	-0.481623	0.832807	-0.540667
H150	H	0.018377	1.332807	-0.040667
F151	F	-0.374916	1.338244	-0.418047
F152	F	0.125084	1.838244	0.081953
H153	H	-0.481700	1.548202	-0.228852
H154	H	0.018300	2.048202	0.271148
F155	F	-0.281666	1.540146	-0.384297
F156	F	0.218334	2.040146	0.115703
F157	F	-0.281509	0.988303	-0.667560
F158	F	0.218491	1.488303	-0.167560
F159	F	-0.281403	0.988323	-0.936126
F160	F	0.218597	1.488323	-0.436126
F161	F	-0.401206	1.338273	-0.184971
F162	F	0.098794	1.838273	0.315029
H163	H	-0.481454	0.832827	-0.944307
H164	H	0.018546	1.332827	-0.444307
F165	F	-0.281347	0.988327	-1.071196
F166	F	0.218653	1.488327	-0.571196
H167	H	-0.294619	1.667027	-0.374318
H168	H	0.205381	2.167027	0.125682
H169	H	-0.481747	1.666912	-0.228889
H170	H	0.018253	2.166912	0.271111
H171	H	-0.481600	1.263275	-0.228783
H172	H	0.018400	1.763275	0.271217
H173	H	-0.519721	0.896552	-0.861194
H174	H	-0.019721	1.396552	-0.361194
H175	H	-0.481570	1.144562	-0.228752
H176	H	0.018430	1.644562	0.271248
H177	H	-0.519756	0.896379	-0.742489
H178	H	-0.019756	1.396379	-0.242489
