data_functionalizedCrystal
_audit_creation_method	'MofGen! by Chris Wilmer'
_symmetry_space_group_name_H-M	'P1'
_symmetry_Int_Tables_number	1
_symmetry_cell_setting	triclinic
loop_
_symmetry_equiv_pos_as_xyz
  x,y,z
_cell_length_a	12.837932
_cell_length_b	19.188924
_cell_length_c	11.295483
_cell_angle_alpha	94.078966
_cell_angle_beta	85.460332
_cell_angle_gamma	88.985834
loop_
_atom_site_label
_atom_site_type_symbol
_atom_site_fract_x
_atom_site_fract_y
_atom_site_fract_z
O1	O	1.381628	0.177221	-0.099039
O2	O	1.881628	0.677221	0.400961
O3	O	1.079864	0.168257	-0.099040
O4	O	1.579864	0.668257	0.400960
O5	O	1.239457	0.071681	-0.099025
O6	O	1.739457	0.571681	0.400975
O7	O	1.222035	0.273797	-0.099053
O8	O	1.722035	0.773797	0.400947
O9	O	1.225440	0.080149	0.099024
O10	O	1.725440	0.580149	0.599024
O11	O	1.065846	0.176724	0.099009
O12	O	1.565846	0.676724	0.599009
O13	O	1.367611	0.185689	0.099011
O14	O	1.867611	0.685689	0.599011
Cu15	Cu	1.215449	0.181980	0.117094
Cu16	Cu	1.715449	0.681980	0.617094
Cu17	Cu	1.232026	0.171966	-0.117123
Cu18	Cu	1.732026	0.671966	0.382877
O19	O	1.208018	0.282265	0.098996
O20	O	1.708018	0.782265	0.598996
C21	C	1.034248	0.169462	-0.000015
C22	C	1.534248	0.669462	0.499985
C23	C	0.919212	0.160431	-0.000015
C24	C	1.419212	0.660431	0.499985
C25	C	1.231885	0.049865	0.000000
C26	C	1.731885	0.549865	0.500000
C27	C	1.230195	-0.027755	0.000004
C28	C	1.730195	0.472245	0.500004
C29	C	0.769714	0.084946	-0.000002
C30	C	1.269714	0.584946	0.499998
C31	C	0.877801	0.093427	-0.000004
C32	C	1.377801	0.593427	0.499996
C33	C	0.852527	0.218958	-0.000021
C34	C	1.352527	0.718958	0.499979
C35	C	0.744440	0.210477	-0.000019
C36	C	1.244440	0.710477	0.499981
C37	C	0.703037	0.143468	-0.000012
C38	C	1.203037	0.643468	0.499988
C39	C	0.594948	0.134987	-0.000019
C40	C	1.094948	0.634987	0.499981
C41	C	0.569676	0.260518	-0.000027
C42	C	1.069676	0.760518	0.499973
C43	C	0.677763	0.268999	-0.000029
C44	C	1.177763	0.768999	0.499971
C45	C	1.237047	-0.068824	-0.107953
C46	C	1.737047	0.431176	0.392047
C47	C	1.235444	-0.141757	-0.107962
C48	C	1.735444	0.358243	0.392038
C49	C	1.227011	-0.173619	-0.000008
C50	C	1.727011	0.326381	0.499992
C51	C	1.220152	-0.132540	0.107963
C52	C	1.720152	0.367460	0.607963
C53	C	1.221744	-0.059608	0.107969
C54	C	1.721744	0.440392	0.607969
N55	N	1.277796	-0.285973	0.080340
N56	N	1.777796	0.214027	0.580340
N57	N	1.276287	-0.355255	0.080327
N58	N	1.776287	0.144745	0.580327
C59	C	1.222211	-0.393357	-0.000020
C60	C	1.722211	0.106643	0.499980
N61	N	1.169717	-0.359561	-0.080371
N62	N	1.669717	0.140439	0.419629
N63	N	1.171232	-0.290272	-0.080361
N64	N	1.671232	0.209728	0.419639
C65	C	1.225283	-0.252700	-0.000003
C66	C	1.725283	0.247300	0.499997
C67	C	1.227325	-0.513509	-0.107994
C68	C	1.727325	-0.013509	0.392006
C69	C	1.225716	-0.586443	-0.107999
C70	C	1.725716	-0.086443	0.392001
C71	C	1.210434	-0.577225	0.107930
C72	C	1.710434	-0.077225	0.607930
C73	C	1.212033	-0.504292	0.107931
C74	C	1.712033	-0.004292	0.607931
C75	C	1.220483	-0.472439	-0.000034
C76	C	1.720483	0.027561	0.499966
C77	C	1.413227	0.184483	-0.000017
C78	C	1.913227	0.684483	0.499983
C79	C	1.528263	0.193514	-0.000025
C80	C	2.028263	0.693514	0.499975
C81	C	1.215590	0.304080	-0.000032
C82	C	1.715590	0.804080	0.499968
C83	C	1.217281	0.381701	-0.000043
C84	C	1.717281	0.881701	0.499957
N85	N	1.203797	0.189024	0.281829
N86	N	1.703797	0.689024	0.781829
N87	N	1.243686	0.164917	-0.281858
N88	N	1.743686	0.664917	0.218142
C89	C	1.327563	0.114174	0.531130
C90	C	1.827563	0.614174	1.031130
C91	C	1.318765	0.119503	0.655793
C92	C	1.818765	0.619503	1.155793
C93	C	1.177398	0.205005	0.655820
C94	C	1.677398	0.705005	1.155820
C95	C	1.186196	0.199676	0.531157
C96	C	1.686196	0.699676	1.031157
C97	C	1.261282	0.154261	0.468816
C98	C	1.761282	0.654261	0.968816
C99	C	1.270085	0.148936	0.344151
C100	C	1.770085	0.648936	0.844151
C101	C	1.128713	0.234434	0.344180
C102	C	1.628713	0.734434	0.844180
C103	C	1.119915	0.239762	0.468843
C104	C	1.619915	0.739762	0.968843
H105	H	0.561241	0.080426	-0.000017
H106	H	1.061241	0.580426	0.499983
H107	H	1.241018	-0.175202	-0.195877
H108	H	1.741018	0.324798	0.304123
H109	H	1.116258	0.241976	0.706594
H110	H	1.616258	0.741976	1.206594
C111	C	1.055813	0.278539	0.275633
C112	C	1.555813	0.778539	0.775633
H113	H	1.071805	0.268863	0.192460
H114	H	1.571805	0.768863	0.692460
H115	H	1.065424	0.326746	0.296068
H116	H	1.565424	0.826746	0.796068
H117	H	0.985236	0.267210	0.296071
H118	H	1.485236	0.767210	0.796071
C119	C	1.037298	0.289695	0.537419
C120	C	1.537298	0.789695	1.037419
H121	H	0.999071	0.312797	0.482449
H122	H	1.499071	0.812797	0.982449
H123	H	1.070979	0.323328	0.586059
H124	H	1.570979	0.823328	1.086059
H125	H	0.990850	0.263756	0.586040
H126	H	1.490850	0.763756	1.086040
C127	C	1.210878	-0.167585	0.226709
C128	C	1.710878	0.332415	0.726709
H129	H	1.210921	-0.216903	0.211245
H130	H	1.710921	0.283097	0.711245
H131	H	1.147580	-0.152435	0.271069
H132	H	1.647580	0.347565	0.771069
H133	H	1.268424	-0.155043	0.271068
H134	H	1.768424	0.344957	0.771068
C135	C	0.496330	0.324895	-0.000041
C136	C	0.996330	0.824895	0.499959
H137	H	0.426025	0.310250	-0.000034
H138	H	0.926025	0.810250	0.499966
H139	H	0.513744	0.349120	-0.069109
H140	H	1.013744	0.849120	0.430891
H141	H	0.503959	0.355028	0.069028
H142	H	1.003959	0.855028	0.569028
C143	C	0.724167	0.011242	-0.000003
C144	C	1.224167	0.511242	0.499997
H145	H	0.779359	-0.022398	0.000005
H146	H	1.279359	0.477602	0.500005
H147	H	0.687413	0.002375	-0.069065
H148	H	1.187413	0.502375	0.430935
H149	H	0.677642	0.008276	0.069072
H150	H	1.177642	0.508276	0.569072
C151	C	1.246339	-0.033786	-0.226707
C152	C	1.746339	0.466214	0.273293
H153	H	1.246315	0.015533	-0.211245
H154	H	1.746315	0.515533	0.288755
H155	H	1.188805	-0.046326	-0.271076
H156	H	1.688805	0.453674	0.228924
H157	H	1.309647	-0.048938	-0.271055
H158	H	1.809647	0.451062	0.228945
C159	C	0.723313	0.342702	-0.000043
C160	C	1.223313	0.842702	0.499957
H161	H	0.797236	0.339372	-0.000051
H162	H	1.297236	0.839372	0.499949
H163	H	0.695518	0.370058	0.069012
H164	H	1.195518	0.870058	0.569012
H165	H	0.705296	0.364142	-0.069125
H166	H	1.205296	0.864142	0.430875
C167	C	1.233249	-0.631619	-0.226758
C168	C	1.733249	-0.131619	0.273242
H169	H	1.238518	-0.602200	-0.291052
H170	H	1.738518	-0.102200	0.208948
H171	H	1.172525	-0.658954	-0.231254
H172	H	1.672525	-0.158954	0.268746
H173	H	1.293368	-0.661569	-0.231242
H174	H	1.793368	-0.161569	0.268758
H175	H	0.932086	0.045772	0.000004
H176	H	1.432086	0.545772	0.500004
C177	C	0.898082	0.292659	-0.000020
C178	C	1.398082	0.792659	0.499980
H179	H	0.972005	0.289325	-0.000022
H180	H	1.472005	0.789325	0.499978
H181	H	0.870287	0.320010	0.069041
H182	H	1.370287	0.820010	0.569041
H183	H	0.880073	0.314107	-0.069096
H184	H	1.380073	0.814107	0.430904
H185	H	1.216160	-0.026170	0.195883
H186	H	1.716160	0.473830	0.695883
H187	H	1.234200	-0.487573	-0.195906
H188	H	1.734200	0.012427	0.304094
C189	C	1.201148	-0.612264	0.226678
C190	C	1.701148	-0.112264	0.726678
H191	H	1.201184	-0.661582	0.211214
H192	H	1.701184	-0.161582	0.711214
H193	H	1.137851	-0.597109	0.271033
H194	H	1.637851	-0.097109	0.771033
H195	H	1.258694	-0.599726	0.271041
H196	H	1.758694	-0.099726	0.771041
H197	H	1.388708	0.077200	0.480371
H198	H	1.888708	0.577200	0.980371
H199	H	1.206461	-0.470853	0.195842
H200	H	1.706461	0.029147	0.695842
H201	H	1.331226	0.111959	0.293394
H202	H	1.831226	0.611959	0.793394
H203	H	1.372736	0.086860	0.706525
H204	H	1.872736	0.586860	1.206525
