data_functionalizedCrystal
_audit_creation_method	'MofGen! by Chris Wilmer'
_symmetry_space_group_name_H-M	'P1'
_symmetry_Int_Tables_number	1
_symmetry_cell_setting	triclinic
loop_
_symmetry_equiv_pos_as_xyz
  x,y,z
_cell_length_a	11.169417
_cell_length_b	19.121063
_cell_length_c	11.169409
_cell_angle_alpha	92.400842
_cell_angle_beta	89.979436
_cell_angle_gamma	92.469728
loop_
_atom_site_label
_atom_site_type_symbol
_atom_site_fract_x
_atom_site_fract_y
_atom_site_fract_z
Zn1	Zn	1.814451	-0.279539	-0.698851
Zn2	Zn	2.314451	0.220461	-0.198851
Zn3	Zn	1.805714	-0.397013	-0.506702
Zn4	Zn	2.305714	0.102987	-0.006702
Zn5	Zn	1.613731	-0.279582	-0.498188
Zn6	Zn	2.113731	0.220418	0.001812
Zn7	Zn	1.605125	-0.396955	-0.707343
Zn8	Zn	2.105125	0.103045	-0.207343
O9	O	1.709755	-0.338272	-0.602771
O10	O	2.209755	0.161728	-0.102771
O11	O	1.981241	-0.295129	-0.673371
O12	O	2.481241	0.204871	-0.173371
O13	O	1.780192	-0.381477	-0.337626
O14	O	2.280192	0.118523	0.162374
O15	O	1.647615	-0.181292	-0.517690
O16	O	2.147615	0.318708	-0.017690
O17	O	1.974822	-0.381435	-0.532200
O18	O	2.474822	0.118565	-0.032200
O19	O	1.795083	-0.181261	-0.665116
O20	O	2.295083	0.318739	-0.165116
O21	O	1.639143	-0.295201	-0.331371
O22	O	2.139143	0.204799	0.168629
O23	O	1.444640	-0.295146	-0.525924
O24	O	1.944640	0.204854	-0.025924
O25	O	1.632947	-0.381338	-0.874163
O26	O	2.132947	0.118662	-0.374163
O27	O	1.438317	-0.381380	-0.679589
O28	O	1.938317	0.118620	-0.179589
O29	O	1.786738	-0.295073	-0.867924
O30	O	2.286738	0.204927	-0.367924
O31	O	1.771847	-0.495289	-0.540435
O32	O	2.271847	0.004711	-0.040435
O33	O	1.624475	-0.495247	-0.687844
O34	O	2.124475	0.004753	-0.187844
C35	C	1.397931	-0.338262	-0.602755
C36	C	1.897931	0.161738	-0.102755
C37	C	1.264530	-0.338274	-0.602778
C38	C	1.764530	0.161726	-0.102778
C39	C	1.696312	-0.520752	-0.616011
C40	C	2.196312	-0.020752	-0.116011
C41	C	1.690671	-0.598818	-0.621715
C42	C	2.190671	-0.098818	-0.121715
C43	C	1.764809	-0.635491	-0.547710
C44	C	2.264809	-0.135491	-0.047710
C45	C	1.759510	-0.708842	-0.553082
C46	C	2.259510	-0.208842	-0.053082
C47	C	1.680067	-0.745518	-0.632454
C48	C	2.180067	-0.245518	-0.132454
C49	C	1.605926	-0.708839	-0.706467
C50	C	2.105926	-0.208839	-0.206467
C51	C	1.611231	-0.635489	-0.701100
C52	C	2.111231	-0.135489	-0.201100
C53	C	1.660212	-0.966986	-0.652499
C54	C	2.160212	-0.466986	-0.152499
C55	C	1.654910	-1.040341	-0.657858
C56	C	2.154910	-0.540341	-0.157858
C57	C	1.808497	-1.040339	-0.504474
C58	C	2.308497	-0.540339	-0.004474
C59	C	1.813790	-0.966988	-0.499110
C60	C	2.313790	-0.466988	0.000890
C61	C	1.739653	-0.930316	-0.573127
C62	C	2.239653	-0.430316	-0.073127
C63	C	1.674647	-0.820494	-0.637944
C64	C	2.174647	-0.320494	-0.137944
C65	C	1.745081	-0.855341	-0.567642
C66	C	2.245081	-0.355341	-0.067642
C67	C	2.022796	-0.338284	-0.602788
C68	C	2.522796	0.161716	-0.102788
C69	C	2.156196	-0.338288	-0.602795
C70	C	2.656196	0.161712	-0.102795
C71	C	1.709857	-0.338195	-0.915808
C72	C	2.209857	0.161805	-0.415808
C73	C	1.709900	-0.338161	-1.049206
C74	C	2.209900	0.161839	-0.549206
C75	C	1.723283	-0.155080	-0.589506
C76	C	2.223283	0.344920	-0.089506
C77	C	1.729048	-0.077015	-0.583853
C78	C	2.229048	0.422985	-0.083853
C79	C	1.709726	-0.338299	-0.290948
C80	C	2.209726	0.161701	0.209052
C81	C	1.709930	-0.338135	-0.157537
C82	C	2.209930	0.161865	0.342463
H83	H	1.829495	-0.605635	-0.483072
H84	H	2.329495	-0.105635	0.016928
F85	F	1.521382	-0.747874	-0.790947
F86	F	2.021382	-0.247874	-0.290947
H87	H	1.819881	-0.738699	-0.492818
H88	H	2.319881	-0.238699	0.007182
F89	F	1.898358	-0.927960	-0.414645
F90	F	2.398358	-0.427960	0.085355
H91	H	1.550862	-0.605630	-0.761364
H92	H	2.050862	-0.105630	-0.261364
F93	F	1.829632	-0.816306	-0.483177
F94	F	2.329632	-0.316306	0.016823
F95	F	1.590098	-0.859534	-0.722414
F96	F	2.090098	-0.359534	-0.222414
F97	F	1.887398	-1.079374	-0.425711
F98	F	2.387398	-0.579374	0.074289
H99	H	1.590232	-1.070200	-0.722513
H100	H	2.090232	-0.570200	-0.222513
H101	H	1.599845	-0.937133	-0.712765
H102	H	2.099845	-0.437133	-0.212765
