data_functionalizedCrystal
_audit_creation_method	'MofGen! by Chris Wilmer'
_symmetry_space_group_name_H-M	'P1'
_symmetry_Int_Tables_number	1
_symmetry_cell_setting	triclinic
loop_
_symmetry_equiv_pos_as_xyz
  x,y,z
_cell_length_a	10.540510
_cell_length_b	10.540539
_cell_length_c	9.616153
_cell_angle_alpha	89.999906
_cell_angle_beta	89.992871
_cell_angle_gamma	84.519401
loop_
_atom_site_label
_atom_site_type_symbol
_atom_site_fract_x
_atom_site_fract_y
_atom_site_fract_z
O1	O	1.685914	0.178715	-0.115647
O2	O	1.316496	0.195611	-0.115647
O3	O	1.509633	0.002456	-0.115646
O4	O	1.492777	0.371870	-0.115649
O5	O	1.509607	0.002460	0.115646
O6	O	1.316470	0.195615	0.115644
O7	O	1.685887	0.178719	0.115644
Zn8	Zn	1.501174	0.187168	0.152367
Zn9	Zn	1.501209	0.187162	-0.152370
O10	O	1.492750	0.371874	0.115642
C11	C	1.269179	0.194354	-0.000002
C12	C	1.128229	0.190587	-0.000002
C13	C	0.910774	0.324771	-0.000535
C14	C	1.057370	0.328789	-0.000005
C15	C	1.083454	0.119843	0.132074
C16	C	0.936693	0.116804	0.132176
C17	C	0.936918	0.113921	-0.130845
C18	C	1.083259	0.120476	-0.132583
C19	C	1.508356	-0.044845	-0.000002
C20	C	1.504574	-0.185793	-0.000010
C21	C	1.359655	-0.369204	-0.000529
C22	C	1.363489	-0.222587	-0.000008
C23	C	1.572455	-0.247456	0.132069
C24	C	1.567640	-0.394000	0.132180
C25	C	1.570540	-0.394523	-0.130841
C26	C	1.571840	-0.247541	-0.132588
C27	C	1.733204	0.179976	-0.000004
C28	C	1.874154	0.183743	-0.000013
C29	C	1.494028	0.419175	-0.000004
C30	C	1.497810	0.560123	-0.000006
N31	N	1.501160	0.187171	0.360341
N32	N	1.501234	0.187149	-0.360344
C33	C	1.397529	0.290149	0.580710
C34	C	1.397757	0.290535	0.419543
C35	C	1.633885	0.217290	0.418790
C36	C	1.633320	0.218019	0.580008
C37	C	1.473387	0.053735	0.580254
C38	C	1.470341	0.054600	0.419027
H39	H	0.868831	0.378611	-0.095255
Cl40	Cl	1.273699	-0.416374	0.144456
Cl41	Cl	0.843586	0.407430	0.144870
H42	H	1.415656	0.389517	0.380962
H43	H	1.085762	0.384473	0.094830
Cl44	Cl	1.127518	0.199903	-0.283445
H45	H	0.896466	0.165154	0.230904
H46	H	0.913697	0.013437	0.138177
H47	H	1.525279	-0.204849	0.230358
Cl48	Cl	1.156604	-0.037245	0.139659
Cl49	Cl	1.131067	0.195699	0.283832
Cl50	Cl	0.902722	-0.046280	-0.132220
Cl51	Cl	1.672331	0.365869	0.356435
H52	H	1.132328	0.019578	-0.140558
Cl53	Cl	1.244783	0.262586	0.640598
Cl54	Cl	0.871264	0.181223	-0.285405
H55	H	1.310075	-0.179979	-0.094688
H56	H	1.309679	-0.180823	0.094829
Cl57	Cl	1.424819	0.442112	0.643203
Cl58	Cl	1.273618	-0.413350	-0.146765
H59	H	1.657675	0.315354	0.617595
H60	H	1.549000	-0.022928	0.618371
H61	H	1.517450	-0.422192	0.230912
H62	H	1.540868	-0.025728	0.378733
Cl63	Cl	1.724290	-0.468081	0.141452
H64	H	1.676064	-0.225112	0.136980
H65	H	1.524889	-0.426072	-0.230949
Cl66	Cl	1.756022	0.106572	0.640212
H67	H	1.712941	0.144318	0.380439
Cl68	Cl	1.245475	0.262641	0.358529
Cl69	Cl	1.495798	-0.183705	-0.283467
Cl70	Cl	1.730653	-0.210158	-0.144912
Cl71	Cl	1.727871	-0.467454	-0.132218
Cl72	Cl	1.327092	0.009495	0.643100
H73	H	1.086726	0.384133	-0.094686
Cl74	Cl	1.319592	0.019346	0.360051
