data_functionalizedCrystal
_audit_creation_method	'MofGen! by Chris Wilmer'
_symmetry_space_group_name_H-M	'P1'
_symmetry_Int_Tables_number	1
_symmetry_cell_setting	triclinic
loop_
_symmetry_equiv_pos_as_xyz
  x,y,z
_cell_length_a	18.050591
_cell_length_b	18.050590
_cell_length_c	12.645323
_cell_angle_alpha	89.969424
_cell_angle_beta	89.971504
_cell_angle_gamma	90.014558
loop_
_atom_site_label
_atom_site_type_symbol
_atom_site_fract_x
_atom_site_fract_y
_atom_site_fract_z
Zn1	Zn	1.135398	-0.295733	-0.599569
Zn2	Zn	1.135313	-0.419932	-0.422291
Zn3	Zn	1.011201	-0.295751	-0.422295
Zn4	Zn	1.011186	-0.419877	-0.599489
O5	O	1.073275	-0.357823	-0.510911
O6	O	1.239311	-0.312223	-0.576084
O7	O	1.118820	-0.403490	-0.273944
O8	O	1.027717	-0.191824	-0.445846
O9	O	1.239249	-0.403472	-0.445839
O10	O	1.118965	-0.191811	-0.576088
O11	O	1.027635	-0.312255	-0.273947
O12	O	0.907274	-0.312202	-0.445768
O13	O	1.027692	-0.403378	-0.747847
O14	O	0.907263	-0.403396	-0.575952
O15	O	1.118950	-0.312170	-0.747906
O16	O	1.118806	-0.523849	-0.445762
O17	O	1.027610	-0.523809	-0.575948
C18	C	0.880322	-0.357795	-0.510852
C19	C	0.797777	-0.357801	-0.510852
C20	C	0.598310	-0.308152	-0.440222
C21	C	0.548900	-0.375891	-0.414132
C22	C	0.646646	-0.357824	-0.510900
C23	C	0.548975	-0.290109	-0.536987
C24	C	0.500661	-0.357840	-0.510945
C25	C	0.598323	-0.425598	-0.484760
C26	C	0.598403	-0.339771	-0.607660
C27	C	0.549014	-0.407556	-0.581607
C28	C	0.730745	-0.357814	-0.510872
C29	C	0.416565	-0.357858	-0.510973
C30	C	1.073217	-0.550775	-0.510869
C31	C	1.073261	-0.633321	-0.510886
C32	C	1.122956	-0.832767	-0.440190
C33	C	1.141101	-0.882098	-0.536945
C34	C	1.073303	-0.784451	-0.510928
C35	C	1.055234	-0.882202	-0.414216
C36	C	1.073345	-0.930436	-0.510961
C37	C	1.091482	-0.832695	-0.607735
C38	C	1.005584	-0.832795	-0.484941
C39	C	1.023703	-0.882104	-0.581763
C40	C	1.073281	-0.700353	-0.510908
C41	C	1.073367	-1.014533	-0.510992
C42	C	1.266980	-0.357851	-0.510970
C43	C	1.349526	-0.357863	-0.510996
C44	C	1.073329	-0.357766	-0.787416
C45	C	1.073353	-0.357741	-0.905247
C46	C	1.073352	-0.164117	-0.510977
C47	C	1.073385	-0.081572	-0.511005
C48	C	1.015765	-0.414850	-1.072774
C49	C	1.015916	-0.415133	-0.950214
C50	C	1.151603	-0.378986	-0.949775
C51	C	1.151287	-0.379344	-1.072373
C52	C	1.053429	-0.279068	-1.072453
C53	C	1.051683	-0.279539	-0.949846
C54	C	1.073263	-0.357827	-0.235481
C55	C	1.073383	-0.357642	-0.117652
H56	H	0.527260	-0.232845	-0.558996
C57	C	0.937142	-0.397062	-1.112568
H58	H	0.938748	-0.354590	-1.156916
H59	H	0.905663	-0.387585	-1.053895
H60	H	0.918513	-0.438035	-1.151471
C61	C	1.179696	-0.803492	-0.359464
H62	H	1.227803	-0.820373	-0.378118
H63	H	1.167319	-0.821168	-0.290924
H64	H	1.178978	-0.750867	-0.359568
H65	H	1.198387	-0.903756	-0.558947
C66	C	0.627744	-0.319135	-0.718187
H67	H	0.656682	-0.358799	-0.745217
H68	H	0.657452	-0.275826	-0.713319
H69	H	0.587174	-0.310064	-0.764234
C70	C	0.519510	-0.396531	-0.303627
H71	H	0.490553	-0.440362	-0.308336
H72	H	0.489804	-0.357249	-0.277183
H73	H	0.560046	-0.404724	-0.257188
C74	C	1.112249	-0.803450	-0.718271
H75	H	1.112133	-0.750821	-0.717575
H76	H	1.077215	-0.820736	-0.768572
H77	H	1.160223	-0.820741	-0.736848
H78	H	0.981731	-0.903630	-0.641667
C79	C	0.519948	-0.464372	-0.662373
H80	H	0.536936	-0.512436	-0.643684
H81	H	0.537647	-0.451953	-0.730885
H82	H	0.467322	-0.463788	-0.662357
C83	C	1.033376	-0.493048	-1.114406
H84	H	1.075692	-0.490984	-1.159015
H85	H	0.992256	-0.511247	-1.153398
H86	H	1.043057	-0.525152	-1.056488
C87	C	1.211257	-0.325515	-1.112489
H88	H	1.235709	-0.303529	-1.053856
H89	H	1.188833	-0.287938	-1.154221
H90	H	1.246240	-0.351880	-1.154123
C91	C	0.928221	-0.803506	-0.455180
H92	H	0.915440	-0.820427	-0.386395
H93	H	0.892839	-0.821133	-0.504738
H94	H	0.928663	-0.750881	-0.456019
C95	C	0.973891	-0.257889	-0.910535
H96	H	0.961097	-0.210535	-0.937787
H97	H	0.973708	-0.256254	-0.835452
H98	H	0.938870	-0.293520	-0.934134
C99	C	1.034559	-0.911573	-0.303713
H100	H	1.069872	-0.894670	-0.253532
H101	H	1.034277	-0.964194	-0.304668
H102	H	0.986776	-0.893958	-0.284756
H103	H	0.957890	-0.401837	-0.920105
C104	C	1.174848	-0.455770	-0.908326
H105	H	1.222277	-0.468133	-0.935711
H106	H	1.139720	-0.491762	-0.930418
H107	H	1.176898	-0.454779	-0.833272
H108	H	0.997362	-0.259704	-1.103351
C109	C	1.033704	-0.493823	-0.910596
H110	H	1.040878	-0.525739	-0.969430
H111	H	0.993687	-0.511606	-0.868882
H112	H	1.077523	-0.492675	-0.869048
C113	C	1.174129	-0.456939	-1.111022
H114	H	1.183510	-0.487947	-1.051796
H115	H	1.217681	-0.453167	-1.152881
H116	H	1.135275	-0.477582	-1.152216
H117	H	1.195684	-0.338637	-0.920652
C118	C	1.104237	-0.218913	-0.908508
H119	H	1.140245	-0.240598	-0.863313
H120	H	1.076577	-0.183085	-0.870205
H121	H	1.128326	-0.195662	-0.966514
C122	C	0.627474	-0.502990	-0.454845
H123	H	0.586833	-0.535299	-0.442411
H124	H	0.656739	-0.499508	-0.392632
H125	H	0.656825	-0.521912	-0.511051
C126	C	0.627560	-0.251471	-0.359396
H127	H	0.610608	-0.264428	-0.290694
H128	H	0.609939	-0.203484	-0.377236
H129	H	0.680186	-0.251547	-0.360381
C130	C	1.110110	-0.221486	-1.111677
H131	H	1.145765	-0.245173	-1.155387
H132	H	1.134249	-0.199560	-1.052746
H133	H	1.085282	-0.184207	-1.151126
