data_functionalizedCrystal
_audit_creation_method	'MofGen! by Chris Wilmer'
_symmetry_space_group_name_H-M	'P1'
_symmetry_Int_Tables_number	1
_symmetry_cell_setting	triclinic
loop_
_symmetry_equiv_pos_as_xyz
  x,y,z
_cell_length_a	6.817900
_cell_length_b	15.300992
_cell_length_c	14.125465
_cell_angle_alpha	95.705154
_cell_angle_beta	100.398878
_cell_angle_gamma	104.175078
loop_
_atom_site_label
_atom_site_type_symbol
_atom_site_fract_x
_atom_site_fract_y
_atom_site_fract_z
V1	V	-3.994724	-0.123983	-0.300264
O2	O	-3.979323	0.006755	-0.294250
O3	O	-3.949850	-0.246604	-0.298497
O4	O	-3.930804	-0.121726	-0.431089
O5	O	-3.998500	-0.118987	-0.160741
V6	V	-4.479906	-0.108386	-0.283541
O7	O	-4.252343	-0.158195	-0.336947
O8	O	-4.672484	-0.074174	-0.246858
O9	O	-4.301574	0.014234	-0.285308
O10	O	-4.612705	-0.239124	-0.289555
O11	O	-4.593527	-0.113382	-0.423065
O12	O	-4.320620	-0.110643	-0.152717
C13	C	-3.796211	-0.276507	-0.293835
C14	C	-3.840705	-0.376749	-0.293262
C15	C	-3.831423	-0.411193	-0.204857
C16	C	-3.873249	-0.505382	-0.204323
C17	C	-3.924342	-0.565124	-0.292193
C18	C	-3.933630	-0.530675	-0.380605
C19	C	-3.891818	-0.436488	-0.381139
C20	C	-4.020771	-0.726989	-0.379486
C21	C	-4.062581	-0.821182	-0.378952
C22	C	-4.002201	-0.795882	-0.202669
C23	C	-3.960390	-0.701696	-0.203203
C24	C	-3.969676	-0.667252	-0.291615
C25	C	-3.771915	-0.117212	-0.462967
C26	C	-3.800960	-0.116178	-0.569919
C27	C	-3.854199	-0.114282	-0.765738
C28	C	-4.039801	-0.118085	-0.818068
C29	C	-4.069425	-0.117030	-0.927028
C30	C	-3.824566	-0.115337	-0.656768
C31	C	-4.118555	0.044133	-0.289968
C32	C	-4.053299	0.144374	-0.290547
C33	C	-4.142852	-0.115160	-0.120833
C34	C	-4.093045	-0.116190	-0.013881
H35	H	-3.865692	-0.533421	-0.132335
H36	H	-3.994633	-0.823930	-0.130681
H37	H	-4.176456	-0.122143	-0.781039
C38	C	-3.669699	-0.109013	-0.815785
H39	H	-3.549371	-0.106821	-0.768635
H40	H	-3.699353	-0.161321	-0.863648
H41	H	-3.646563	-0.055692	-0.845954
H42	H	-3.789804	-0.362555	-0.133302
H43	H	-3.899400	-0.408447	-0.453128
C44	C	-4.118821	-0.886902	-0.475605
H45	H	-4.142374	-0.947928	-0.462621
H46	H	-4.240604	-0.879591	-0.514976
H47	H	-4.008156	-0.873741	-0.508842
C48	C	-3.904182	-0.635980	-0.106548
H49	H	-3.904656	-0.669981	-0.053817
H50	H	-3.770397	-0.595783	-0.100018
H51	H	-4.002856	-0.601643	-0.106174
C52	C	-4.030975	-0.689102	-0.476736
H53	H	-4.067369	-0.738171	-0.528993
H54	H	-4.132137	-0.655812	-0.483692
H55	H	-3.899678	-0.649960	-0.477524
H56	H	-3.975247	-0.579325	-0.452151
