data_functionalizedCrystal
_audit_creation_method	'MofGen! by Chris Wilmer'
_symmetry_space_group_name_H-M	'P1'
_symmetry_Int_Tables_number	1
_symmetry_cell_setting	triclinic
loop_
_symmetry_equiv_pos_as_xyz
  x,y,z
_cell_length_a	10.686220
_cell_length_b	25.639239
_cell_length_c	10.686551
_cell_angle_alpha	85.584717
_cell_angle_beta	89.692081
_cell_angle_gamma	85.577501
loop_
_atom_site_label
_atom_site_type_symbol
_atom_site_fract_x
_atom_site_fract_y
_atom_site_fract_z
Zn1	Zn	1.972150	0.127471	0.562341
Zn2	Zn	1.955819	0.222109	0.352544
Zn3	Zn	1.746254	0.140847	0.368652
Zn4	Zn	1.762250	0.221049	0.578321
O5	O	1.859118	0.177869	0.465464
O6	O	2.145531	0.134870	0.521081
O7	O	1.914490	0.217370	0.179133
O8	O	1.776360	0.065901	0.394399
O9	O	2.133533	0.204400	0.366945
O10	O	1.942325	0.056074	0.536701
O11	O	1.760524	0.157667	0.190967
O12	O	1.572829	0.156640	0.409894
O13	O	1.803623	0.202595	0.751749
O14	O	1.584581	0.215565	0.563938
O15	O	1.957836	0.133843	0.740009
O16	O	1.930001	0.295140	0.382440
O17	O	1.787787	0.294361	0.548318
C18	C	1.858894	0.313721	0.465390
C19	C	1.858915	0.371834	0.465391
C20	C	1.533187	0.187439	0.490399
C21	C	1.393755	0.191545	0.501096
C22	C	1.945424	0.727031	0.539745
C23	C	1.945447	0.781634	0.539772
O24	O	2.018863	0.805485	0.602884
N25	N	1.859114	0.814103	0.465620
C26	C	1.772745	0.791967	0.391447
O27	O	1.699314	0.824599	0.328379
C28	C	1.772717	0.737366	0.391428
C29	C	1.859064	0.704899	0.465575
C30	C	2.031763	0.694564	0.613886
C31	C	2.031741	0.639965	0.613857
C32	C	1.945381	0.617833	0.539687
C33	C	1.859042	0.650300	0.465546
C34	C	1.686343	0.715231	0.317263
C35	C	1.686322	0.660625	0.317251
C36	C	1.772669	0.628158	0.391397
C37	C	1.772660	0.573568	0.391347
N38	N	1.858993	0.541099	0.465498
C39	C	1.945353	0.563231	0.539668
C40	C	1.772809	0.906634	0.391495
C41	C	1.772841	0.961235	0.391506
C42	C	1.945542	0.950898	0.539833
C43	C	1.945514	0.896296	0.539813
C44	C	1.859141	0.874165	0.465646
C45	C	1.945302	0.448570	0.539601
C46	C	1.945276	0.393967	0.539562
C47	C	1.772571	0.404309	0.391241
C48	C	1.772601	0.458907	0.391275
C49	C	1.858971	0.481036	0.465465
O50	O	1.699278	0.549680	0.328271
O51	O	2.018761	0.530593	0.602738
C52	C	2.186322	0.168261	0.440434
C53	C	2.325757	0.164167	0.429767
C54	C	1.859306	1.041486	0.465583
C55	C	1.859198	0.983372	0.465682
C56	C	1.884335	0.166609	0.792669
C57	C	1.895081	0.161810	0.932105
C58	C	1.834072	0.189045	0.139527
C59	C	1.823569	0.193689	0.000074
H60	H	2.015594	0.367533	0.599940
C61	C	1.988905	0.119975	0.997603
N62	N	2.059569	0.088465	1.046938
C63	C	1.677862	0.996943	0.309929
N64	N	1.606315	1.023837	0.248488
C65	C	1.328297	0.227454	0.594656
N66	N	1.278986	0.254501	0.665128
C67	C	1.729746	0.235520	0.934581
N68	N	1.659075	0.267027	0.885244
C69	C	2.040321	0.472903	0.621205
N70	N	2.111896	0.491231	0.682661
C71	C	2.126734	0.604258	0.695420
N72	N	2.198288	0.577367	0.756857
C73	C	2.126784	0.718900	0.695475
N74	N	2.198369	0.737226	0.756923
H75	H	2.015824	0.869864	0.600190
H76	H	1.702476	0.888619	0.331088
C77	C	1.591346	0.750933	0.235704
N78	N	1.519784	0.777823	0.174272
C79	C	2.040532	0.975253	0.621432
N80	N	2.112073	0.993600	0.682890
H81	H	1.615983	0.642609	0.256856
H82	H	1.702300	0.485344	0.330888
H83	H	1.702261	0.386280	0.330848
H84	H	1.374217	0.137588	0.360505
