data_functionalizedCrystal
_audit_creation_method	'MofGen! by Chris Wilmer'
_symmetry_space_group_name_H-M	'P1'
_symmetry_Int_Tables_number	1
_symmetry_cell_setting	triclinic
loop_
_symmetry_equiv_pos_as_xyz
  x,y,z
_cell_length_a	10.686220
_cell_length_b	13.033855
_cell_length_c	13.034059
_cell_angle_alpha	88.988717
_cell_angle_beta	86.540308
_cell_angle_gamma	87.740064
loop_
_atom_site_label
_atom_site_type_symbol
_atom_site_fract_x
_atom_site_fract_y
_atom_site_fract_z
Zn1	Zn	2.045803	-0.338331	-0.418095
Zn2	Zn	2.545803	0.161669	0.081905
Zn3	Zn	2.038873	-0.489262	-0.224660
Zn4	Zn	2.538873	0.010738	0.275340
Zn5	Zn	1.809395	-0.333447	-0.259002
Zn6	Zn	2.309395	0.166553	0.240998
Zn7	Zn	1.861327	-0.523280	-0.406285
Zn8	Zn	2.361327	-0.023280	0.093715
O9	O	1.938849	-0.421080	-0.327010
O10	O	2.438849	0.078920	0.172990
O11	O	2.218125	-0.346160	-0.383006
O12	O	2.718125	0.153840	0.116994
O13	O	1.983798	-0.452312	-0.086624
O14	O	2.483798	0.047688	0.413376
O15	O	1.821921	-0.191484	-0.299420
O16	O	2.321921	0.308516	0.200580
O17	O	2.213033	-0.457048	-0.240890
O18	O	2.713033	0.042952	0.259110
O19	O	1.995609	-0.195072	-0.416306
O20	O	2.495609	0.304928	0.083694
O21	O	1.815202	-0.337835	-0.111854
O22	O	2.315202	0.162165	0.388146
O23	O	1.643042	-0.370821	-0.287968
O24	O	2.143042	0.129179	0.212032
O25	O	1.910432	-0.515027	-0.550443
O26	O	2.410432	-0.015027	-0.050443
O27	O	1.681197	-0.510291	-0.396177
O28	O	2.181197	-0.010291	0.103823
O29	O	2.045965	-0.379146	-0.559120
O30	O	2.545965	0.120854	-0.059120
O31	O	2.034154	-0.636385	-0.229438
O32	O	2.534154	-0.136385	0.270562
O33	O	1.903712	-0.661378	-0.362877
O34	O	2.403712	-0.161378	0.137123
C35	C	1.617200	-0.443718	-0.344518
C36	C	2.117200	0.056282	0.155482
C37	C	1.479605	-0.453430	-0.352029
C38	C	1.979605	0.046570	0.147971
C39	C	1.973854	-0.685859	-0.291170
C40	C	2.473854	-0.185859	0.208830
C41	C	1.988948	-0.799129	-0.275865
C42	C	2.488948	-0.299129	0.224135
C43	C	1.931072	-0.862026	-0.335013
C44	C	2.431072	-0.362026	0.164987
C45	C	1.946671	-0.979097	-0.319197
C46	C	2.446671	-0.479097	0.180803
C47	C	2.261754	-0.398354	-0.309435
C48	C	2.761754	0.101646	0.190565
C49	C	2.399357	-0.388670	-0.301945
C50	C	2.899357	0.111330	0.198055
C51	C	1.984764	-0.451426	-0.592788
C52	C	2.484764	0.048574	-0.092788
C53	C	2.004331	-0.464357	-0.706047
C54	C	2.504331	0.035643	-0.206047
C55	C	1.903745	-0.155267	-0.363011
C56	C	2.403745	0.344733	0.136989
C57	C	1.888786	-0.041993	-0.378353
C58	C	2.388786	0.458007	0.121647
C59	C	1.893174	-0.390774	-0.062273
C60	C	2.393174	0.109226	0.437727
C61	C	1.873810	-0.377538	0.050959
C62	C	2.373810	0.122462	0.550959
C63	C	1.949071	-0.427783	0.113941
C64	C	2.449071	0.072217	0.613941
C65	C	1.929059	-0.414105	0.230973
C66	C	2.429059	0.085895	0.730973
H67	H	1.869967	-0.829207	-0.397358
H68	H	2.369967	-0.329207	0.102642
H69	H	1.794557	-0.324399	0.083681
H70	H	2.294557	0.175601	0.583681
H71	H	2.028316	-0.480931	0.081220
H72	H	2.528316	0.019069	0.581220
Br73	Br	2.136424	-0.552948	0.239437
Br74	Br	2.636424	-0.052948	0.739437
H75	H	2.050043	-0.831951	-0.213515
H76	H	2.550043	-0.331951	0.286485
Br77	Br	1.796950	-0.325532	0.285494
Br78	Br	2.296950	0.174468	0.785494
Br79	Br	1.460289	-0.283875	-0.220893
Br80	Br	1.960289	0.216125	0.279107
Br81	Br	2.048503	-1.033785	-0.215262
Br82	Br	2.548503	-0.533785	0.284738
H83	H	1.443038	-0.516313	-0.400650
H84	H	1.943038	-0.016313	0.099350
Br85	Br	1.786922	-0.987307	-0.482267
Br86	Br	2.286922	-0.487307	0.017733
