data_functionalizedCrystal
_audit_creation_method	'MofGen! by Chris Wilmer'
_symmetry_space_group_name_H-M	'P1'
_symmetry_Int_Tables_number	1
_symmetry_cell_setting	triclinic
loop_
_symmetry_equiv_pos_as_xyz
  x,y,z
_cell_length_a	14.971486
_cell_length_b	8.559649
_cell_length_c	14.048226
_cell_angle_alpha	89.995035
_cell_angle_beta	89.998499
_cell_angle_gamma	76.696397
loop_
_atom_site_label
_atom_site_type_symbol
_atom_site_fract_x
_atom_site_fract_y
_atom_site_fract_z
O1	O	1.172520	0.208203	-0.079048
O2	O	0.910393	0.233135	-0.079073
O3	O	1.064550	-0.011889	-0.079057
O4	O	1.018363	0.453227	-0.079064
O5	O	1.064535	-0.011903	0.079264
O6	O	0.910377	0.233121	0.079248
O7	O	1.172505	0.208188	0.079274
Zn8	Zn	1.041438	0.220652	0.104398
Zn9	Zn	1.041459	0.220671	-0.104197
O10	O	1.018347	0.453212	0.079258
C11	C	0.877137	0.232013	0.000084
C12	C	0.778072	0.228672	0.000074
C13	C	0.710872	0.372617	0.000074
C14	C	0.617791	0.369468	0.000088
C15	C	0.591911	0.222372	0.000096
C16	C	0.659119	0.078416	0.000099
C17	C	0.752198	0.081566	0.000092
C18	C	0.465111	0.071859	0.000113
C19	C	0.372025	0.068707	0.000118
C20	C	0.330704	0.359760	0.000108
C21	C	0.423783	0.362910	0.000101
C22	C	0.490984	0.218954	0.000103
C23	C	1.068043	-0.071419	0.000102
C24	C	1.078461	-0.248779	0.000098
C25	C	1.205760	0.209310	0.000114
C26	C	1.304826	0.212652	0.000118
C27	C	1.014855	0.512743	0.000096
C28	C	1.004436	0.690103	0.000094
N29	N	1.041431	0.220638	0.246758
N30	N	1.041474	0.220673	-0.246558
C31	C	1.109708	0.112186	0.296583
C32	C	1.109714	0.112186	0.396241
C33	C	1.041446	0.220645	0.446072
C34	C	0.973163	0.329102	0.396240
C35	C	0.973153	0.329094	0.296584
C36	C	0.973188	0.329114	0.603954
C37	C	0.973197	0.329124	0.703617
C38	C	1.109748	0.112205	0.703611
C39	C	1.109739	0.112197	0.603955
C40	C	1.041456	0.220657	0.554130
H41	H	0.275983	0.476974	0.000111
Br42	Br	0.526594	0.564830	0.000084
H43	H	0.806913	-0.035649	0.000092
Br44	Br	1.202420	-0.034980	0.771234
H45	H	1.165332	0.023889	0.563383
H46	H	0.917606	0.417442	0.744184
H47	H	1.165310	0.023875	0.436808
H48	H	1.149813	-0.332149	0.000112
Br49	Br	0.880483	0.476275	0.228964
H50	H	0.917581	0.417428	0.563390
H51	H	0.933089	-0.226536	0.000090
H52	H	0.350958	-0.051071	0.000126
Br53	Br	0.623998	-0.121218	0.000120
Br54	Br	0.880505	0.476291	0.463863
Br55	Br	0.745984	0.572258	0.000053
Br56	Br	0.458905	0.562542	0.000076
Br57	Br	0.556312	-0.123513	0.000120
Br58	Br	1.202369	-0.035007	0.228967
