data_functionalizedCrystal
_audit_creation_method	'MofGen! by Chris Wilmer'
_symmetry_space_group_name_H-M	'P1'
_symmetry_Int_Tables_number	1
_symmetry_cell_setting	triclinic
loop_
_symmetry_equiv_pos_as_xyz
  x,y,z
_cell_length_a	18.215407
_cell_length_b	15.297327
_cell_length_c	18.215399
_cell_angle_alpha	99.648308
_cell_angle_beta	89.980167
_cell_angle_gamma	99.707397
loop_
_atom_site_label
_atom_site_type_symbol
_atom_site_fract_x
_atom_site_fract_y
_atom_site_fract_z
Zn1	Zn	1.074360	-0.359166	-0.466794
Zn2	Zn	1.052966	-0.510038	-0.365016
Zn3	Zn	0.951288	-0.359195	-0.343746
Zn4	Zn	0.929963	-0.509988	-0.488034
O5	O	1.002144	-0.434597	-0.415897
O6	O	1.174505	-0.379188	-0.453306
O7	O	1.039449	-0.490062	-0.259215
O8	O	0.985492	-0.232944	-0.342278
O9	O	1.158787	-0.490033	-0.378530
O10	O	1.075912	-0.232922	-0.432681
O11	O	0.964747	-0.379238	-0.243588
O12	O	0.845476	-0.379190	-0.362873
O13	O	0.949146	-0.489948	-0.588196
O14	O	0.829808	-0.489976	-0.468881
O15	O	1.055234	-0.379139	-0.572591
O16	O	1.018771	-0.636279	-0.399125
O17	O	0.928401	-0.636242	-0.489506
C18	C	0.810940	-0.434581	-0.415874
C19	C	0.729139	-0.434597	-0.415885
C20	C	0.532793	-0.492374	-0.471037
C21	C	0.455934	-0.492377	-0.471046
C22	C	0.472244	-0.376836	-0.360776
C23	C	0.549103	-0.376830	-0.360771
C24	C	0.579374	-0.434603	-0.415900
C25	C	0.425657	-0.434613	-0.415916
C26	C	0.342323	-0.434616	-0.415926
C27	C	0.662714	-0.434600	-0.415891
C28	C	0.968970	-0.668995	-0.448944
C29	C	0.954846	-0.769272	-0.463106
C30	C	1.103397	-1.051887	-0.314929
C31	C	1.116667	-0.957672	-0.301619
C32	C	1.076213	-0.910567	-0.341990
C33	C	1.022486	-0.957687	-0.395673
C34	C	1.009211	-1.051911	-0.408980
C35	C	0.982027	-0.910591	-0.436041
C36	C	0.928300	-0.957711	-0.489723
C37	C	0.915027	-1.051926	-0.503028
C38	C	0.955481	-1.099031	-0.462658
C39	C	0.995303	-0.816367	-0.422734
C40	C	0.901116	-0.816392	-0.516784
C41	C	0.887846	-0.910606	-0.530094
C42	C	1.194095	-0.434613	-0.415921
C43	C	1.275892	-0.434620	-0.415931
C44	C	1.002198	-0.434535	-0.607842
C45	C	1.002220	-0.434508	-0.689637
C46	C	1.035467	-0.199283	-0.382738
C47	C	1.049667	-0.099006	-0.368607
C48	C	1.057485	-0.376756	-0.869699
C49	C	1.057497	-0.376730	-0.946554
C50	C	0.947028	-0.492120	-0.962793
C51	C	0.947013	-0.492141	-0.885938
C52	C	1.002245	-0.434461	-0.839394
C53	C	1.002273	-0.434413	-0.993103
C54	C	1.002286	-0.434385	-1.076433
C55	C	1.002232	-0.434487	-0.756058
C56	C	1.002142	-0.434594	-0.224691
C57	C	1.002298	-0.434366	-0.142860
H58	H	1.087021	-0.833853	-0.331149
C59	C	0.886246	-0.555622	-0.852597
C60	C	0.825497	-0.619076	-0.903792
C61	C	0.764732	-0.682550	-0.870450
C62	C	0.764714	-0.682569	-0.785912
C63	C	0.825465	-0.619112	-0.734712
C64	C	0.886231	-0.555638	-0.768055
H65	H	0.825508	-0.619065	-0.966376
H66	H	0.719760	-0.729525	-0.908352
H67	H	0.719732	-0.729556	-0.761230
H68	H	0.825454	-0.619124	-0.672128
H69	H	0.931202	-0.508663	-0.730152
H70	H	0.418010	-0.539418	-0.515945
C71	C	0.886284	-0.555574	-1.014001
C72	C	0.908168	-0.626387	-1.076817
C73	C	0.847427	-0.689845	-1.128027
C74	C	0.764802	-0.682490	-1.116419
C75	C	0.742915	-0.611675	-1.053600
C76	C	0.803656	-0.548217	-1.002391
H77	H	0.969334	-0.631833	-1.085412
H78	H	0.863629	-0.742267	-1.174530
H79	H	0.719838	-0.729466	-1.154328
H80	H	0.681748	-0.606228	-1.045005
H81	H	0.787453	-0.495795	-0.955888
H82	H	1.102478	-0.329740	-0.971224
H83	H	0.557438	-0.539415	-0.515928
C84	C	1.175760	-0.905843	-0.242569
C85	C	1.190357	-0.802206	-0.227923
C86	C	1.249452	-0.750376	-0.168868
C87	C	1.293949	-0.802183	-0.124458
C88	C	1.279353	-0.905826	-0.139103
C89	C	1.220258	-0.957656	-0.198158
H90	H	1.157417	-0.763850	-0.260799
H91	H	1.260256	-0.673652	-0.158027
H92	H	1.337694	-0.763815	-0.080741
H93	H	1.312293	-0.944181	-0.106227
H94	H	1.209454	-1.034379	-0.208999
C95	C	0.438943	-0.313287	-0.300136
C96	C	0.490185	-0.249734	-0.239491
C97	C	0.456886	-0.186182	-0.178850
C98	C	0.372345	-0.186184	-0.178854
C99	C	0.321099	-0.249741	-0.239501
C100	C	0.354398	-0.313292	-0.300142
H101	H	0.552771	-0.249730	-0.239486
H102	H	0.494822	-0.139134	-0.133955
H103	H	0.347696	-0.139140	-0.133964
H104	H	0.258512	-0.249745	-0.239506
H105	H	0.316461	-0.360341	-0.345037
C106	C	0.600346	-0.313281	-0.300113
C107	C	0.604293	-0.210730	-0.291790
C108	C	0.655536	-0.147182	-0.231137
C109	C	0.702832	-0.186186	-0.178806
C110	C	0.698887	-0.288742	-0.187128
C111	C	0.647644	-0.352289	-0.247781
H112	H	0.569280	-0.181853	-0.330530
H113	H	0.658456	-0.071263	-0.224977
H114	H	0.740765	-0.139144	-0.133907
H115	H	0.733900	-0.317619	-0.148388
H116	H	0.644724	-0.428208	-0.253941
C117	C	1.118234	-0.313302	-0.818498
C118	C	1.126746	-0.210739	-0.814614
C119	C	1.187495	-0.147281	-0.763415
C120	C	1.239731	-0.186386	-0.716099
C121	C	1.231221	-0.288955	-0.719981
C122	C	1.170472	-0.352413	-0.771181
H123	H	1.088076	-0.181787	-0.849641
H124	H	1.193795	-0.071353	-0.760541
H125	H	1.284701	-0.139411	-0.678198
H126	H	1.269891	-0.317907	-0.684954
H127	H	1.164172	-0.428341	-0.774054
C128	C	1.054403	-0.764542	-0.363690
C129	C	1.046610	-0.777573	-0.281863
C130	C	1.105715	-0.725748	-0.222817
C131	C	1.172615	-0.660893	-0.245597
C132	C	1.180411	-0.647859	-0.327428
C133	C	1.121305	-0.699684	-0.386474
H134	H	0.997084	-0.825585	-0.264996
H135	H	1.099944	-0.735397	-0.162241
H136	H	1.216368	-0.622529	-0.201888
H137	H	1.229936	-0.599847	-0.344295
H138	H	1.127077	-0.690035	-0.447051
H139	H	1.136324	-1.090248	-0.282060
H140	H	0.944681	-1.175748	-0.473493
C141	C	0.855923	-1.103756	-0.562075
C142	C	0.774078	-1.090885	-0.554177
C143	C	0.714973	-1.142711	-0.613224
C144	C	0.737712	-1.207409	-0.680167
C145	C	0.819561	-1.220283	-0.688068
C146	C	0.878666	-1.168456	-0.629021
H147	H	0.757241	-1.042989	-0.504619
H148	H	0.654383	-1.133181	-0.607375
H149	H	0.693959	-1.245774	-0.723877
H150	H	0.836398	-1.268178	-0.737626
H151	H	0.939256	-1.177987	-0.634870
C152	C	0.828744	-0.962445	-0.589140
C153	C	0.746896	-0.949586	-0.581245
C154	C	0.687795	-1.001426	-0.640290
C155	C	0.710541	-1.066124	-0.707230
C156	C	0.792393	-1.078986	-0.715127
C157	C	0.851494	-1.027146	-0.656082
H158	H	0.730055	-0.901690	-0.531690
H159	H	0.627203	-0.991905	-0.634443
H160	H	0.666791	-1.104499	-0.750938
H161	H	0.809234	-1.126882	-0.764682
H162	H	0.912086	-1.036668	-0.661928
C163	C	0.856613	-0.764588	-0.561199
C164	C	0.807970	-0.699894	-0.520121
C165	C	0.763468	-0.648085	-0.564530
C166	C	0.767610	-0.660969	-0.650017
C167	C	0.816255	-0.725666	-0.691099
C168	C	0.860756	-0.777475	-0.646690
H169	H	0.804902	-0.690354	-0.456834
H170	H	0.727458	-0.600192	-0.534118
H171	H	0.734667	-0.622617	-0.682891
H172	H	0.819322	-0.735206	-0.754386
H173	H	0.896766	-0.825368	-0.677103
