data_functionalizedCrystal
_audit_creation_method	'MofGen! by Chris Wilmer'
_symmetry_space_group_name_H-M	'P1'
_symmetry_Int_Tables_number	1
_symmetry_cell_setting	triclinic
loop_
_symmetry_equiv_pos_as_xyz
  x,y,z
_cell_length_a	18.050591
_cell_length_b	25.639239
_cell_length_c	18.050582
_cell_angle_alpha	90.024638
_cell_angle_beta	90.020922
_cell_angle_gamma	90.034692
loop_
_atom_site_label
_atom_site_type_symbol
_atom_site_fract_x
_atom_site_fract_y
_atom_site_fract_z
Zn1	Zn	1.135238	-0.208240	0.420021
Zn2	Zn	1.635238	0.291760	0.920021
Zn3	Zn	1.135126	-0.295667	0.295826
Zn4	Zn	1.635126	0.204333	0.795826
Zn5	Zn	1.011058	-0.208242	0.295832
Zn6	Zn	1.511058	0.291758	0.795832
Zn7	Zn	1.010983	-0.295640	0.419962
Zn8	Zn	1.510983	0.204360	0.919962
O9	O	1.073101	-0.251947	0.357910
O10	O	1.573101	0.248053	0.857910
O11	O	1.239148	-0.219848	0.403568
O12	O	1.739148	0.280152	0.903568
O13	O	1.118653	-0.284083	0.191902
O14	O	1.618653	0.215917	0.691902
O15	O	1.027609	-0.135076	0.312333
O16	O	1.527609	0.364924	0.812333
O17	O	1.239066	-0.284081	0.312323
O18	O	1.739066	0.215919	0.812323
O19	O	1.118844	-0.135075	0.403574
O20	O	1.618844	0.364925	0.903574
O21	O	1.027500	-0.219851	0.191906
O22	O	1.527500	0.280149	0.691906
O23	O	0.907123	-0.219825	0.312276
O24	O	1.407123	0.280175	0.812276
O25	O	1.027481	-0.284034	0.523894
O26	O	1.527481	0.215966	1.023894
O27	O	0.907068	-0.284036	0.403473
O28	O	1.407068	0.215964	0.903473
O29	O	1.118771	-0.219821	0.523938
O30	O	1.618771	0.280179	1.023938
O31	O	1.118580	-0.368829	0.312266
O32	O	1.618580	0.131171	0.812266
O33	O	1.027373	-0.368809	0.403468
O34	O	1.527373	0.131191	0.903468
C35	C	0.880149	-0.251928	0.357869
C36	C	1.380149	0.248072	0.857869
C37	C	0.797604	-0.251932	0.357869
C38	C	1.297604	0.248068	0.857869
C39	C	1.072977	-0.387790	0.357876
C40	C	1.572977	0.112210	0.857876
C41	C	1.072991	-0.445904	0.357886
C42	C	1.572991	0.054096	0.857886
C43	C	0.598161	-0.216974	0.308390
C44	C	1.098161	0.283026	0.808390
C45	C	0.548729	-0.264661	0.290112
C46	C	1.048729	0.235339	0.790112
C47	C	0.646473	-0.251948	0.357903
C48	C	1.146473	0.248052	0.857903
C49	C	0.548824	-0.204277	0.376179
C50	C	1.048824	0.295723	0.876179
C51	C	0.500488	-0.251959	0.357934
C52	C	1.000488	0.248041	0.857934
C53	C	0.598128	-0.299660	0.339589
C54	C	1.098128	0.200340	0.839589
C55	C	0.598227	-0.239244	0.425688
C56	C	1.098227	0.260756	0.925688
C57	C	0.548817	-0.286965	0.407435
C58	C	1.048817	0.213035	0.907435
C59	C	0.730571	-0.251941	0.357883
C60	C	1.230571	0.248059	0.857883
C61	C	0.416392	-0.251971	0.357954
C62	C	0.916392	0.248029	0.857954
C63	C	1.120717	-0.806265	0.310502
C64	C	1.620717	-0.306265	0.810502
C65	C	1.120746	-0.860869	0.310512
C66	C	1.620746	-0.360869	0.810512
O67	O	1.161195	-0.889104	0.270187
O68	O	1.661195	-0.389104	0.770187
N69	N	1.073232	-0.888186	0.357959
N70	N	1.573232	-0.388186	0.857959
C71	C	1.025691	-0.860896	0.405405
C72	C	1.525691	-0.360896	0.905405
O73	O	0.985280	-0.889145	0.445764
O74	O	1.485280	-0.389145	0.945764
C75	C	1.025667	-0.806293	0.405398
C76	C	1.525667	-0.306293	0.905398
C77	C	1.073179	-0.778979	0.357943
C78	C	1.573179	-0.278979	0.857943
C79	C	1.168226	-0.778951	0.263051
C80	C	1.668226	-0.278951	0.763051
C81	C	1.168196	-0.724350	0.263040
C82	C	1.668196	-0.224350	0.763040
C83	C	1.120657	-0.697064	0.310481
C84	C	1.620657	-0.197064	0.810481
C85	C	1.073149	-0.724378	0.357932
C86	C	1.573149	-0.224378	0.857932
C87	C	0.978131	-0.779004	0.452847
C88	C	1.478131	-0.279004	0.952847
C89	C	0.978111	-0.724397	0.452837
C90	C	1.478111	-0.224397	0.952837
C91	C	1.025622	-0.697083	0.405381
C92	C	1.525622	-0.197083	0.905381
C93	C	1.025580	-0.642491	0.405362
C94	C	1.525580	-0.142491	0.905362
N95	N	1.073094	-0.615174	0.357914
N96	N	1.573094	-0.115174	0.857914
C97	C	1.120633	-0.642460	0.310474
C98	C	1.620633	-0.142460	0.810474
C99	C	1.025747	-0.975567	0.405416
C100	C	1.525747	-0.475567	0.905416
C101	C	1.025768	-1.030169	0.405420
C102	C	1.525768	-0.530169	0.905420
C103	C	1.120823	-1.030138	0.310528
C104	C	1.620823	-0.530138	0.810528
C105	C	1.120799	-0.975535	0.310521
C106	C	1.620799	-0.475535	0.810521
C107	C	1.073261	-0.948250	0.357969
C108	C	1.573261	-0.448250	0.857969
C109	C	1.120566	-0.527795	0.310455
C110	C	1.620566	-0.027795	0.810455
C111	C	1.120530	-0.473190	0.310446
C112	C	1.620530	0.026810	0.810446
C113	C	1.025477	-0.473226	0.405340
C114	C	1.525477	0.026774	0.905340
C115	C	1.025510	-0.527826	0.405347
C116	C	1.525510	-0.027826	0.905347
C117	C	1.073061	-0.555110	0.357901
C118	C	1.573061	-0.055110	0.857901
O119	O	0.985154	-0.614222	0.445668
O120	O	1.485154	-0.114222	0.945668
O121	O	1.161044	-0.614205	0.270129
O122	O	1.661044	-0.114205	0.770129
C123	C	1.266807	-0.251967	0.357952
C124	C	1.766807	0.248033	0.857952
C125	C	1.349353	-0.251976	0.357970
C126	C	1.849353	0.248024	0.857970
C127	C	1.073131	-0.251924	0.551616
C128	C	1.573131	0.248076	1.051616
C129	C	1.073143	-0.251914	0.634162
C130	C	1.573143	0.248086	1.134162
C131	C	1.073247	-0.115574	0.357961
C132	C	1.573247	0.384426	0.857961
C133	C	1.073309	-0.057460	0.357982
C134	C	1.573309	0.442540	0.857982
C135	C	1.073115	-0.251933	0.164958
C136	C	1.573115	0.248067	0.664958
C137	C	1.073247	-0.251795	0.082413
C138	C	1.573247	0.248205	0.582413
C139	C	1.023537	-0.286785	0.833589
C140	C	1.523537	0.213215	1.333589
C141	C	1.091289	-0.299569	0.882987
C142	C	1.591289	0.200431	1.382987
C143	C	1.073180	-0.251874	0.785292
C144	C	1.573180	0.248126	1.285292
C145	C	1.005465	-0.239076	0.882976
C146	C	1.505465	0.260924	1.382976
C147	C	1.073209	-0.251837	0.931277
C148	C	1.573209	0.248163	1.431277
C149	C	1.140967	-0.264683	0.833603
C150	C	1.640967	0.235317	1.333603
C151	C	1.055097	-0.204168	0.833588
C152	C	1.555097	0.295832	1.333588
C153	C	1.122896	-0.216933	0.882963
C154	C	1.622896	0.283067	1.382963
C155	C	1.073162	-0.251897	0.701194
C156	C	1.573162	0.248103	1.201194
C157	C	1.073235	-0.251814	1.015374
C158	C	1.573235	0.248186	1.515374
H159	H	0.619827	-0.187429	0.266473
H160	H	1.119827	0.312571	0.766473
H161	H	1.164937	-0.187394	0.904505
H162	H	1.664937	0.312606	1.404505
O163	O	0.626693	-0.353083	0.319037
O164	O	1.126693	0.146917	0.819037
H165	H	0.579171	-0.379633	0.308867
H166	H	1.079171	0.120367	0.808867
O167	O	1.034774	-0.150771	0.804804
O168	O	1.534774	0.349229	1.304804
H169	H	1.024124	-0.124234	0.852212
H170	H	1.524124	0.375766	1.352212
O171	O	0.520290	-0.326188	0.462919
O172	O	1.020290	0.173812	0.962919
H173	H	0.458804	-0.325675	0.462879
H174	H	0.958804	0.174325	0.962879
H175	H	1.159487	-0.953299	0.271879
H176	H	1.659487	-0.453299	0.771879
O177	O	0.926837	-0.694966	0.504013
O178	O	1.426837	-0.194966	1.004013
H179	H	0.889064	-0.670126	0.470731
H180	H	1.389064	-0.170126	0.970731
H181	H	0.939438	-0.801234	0.491487
H182	H	1.439438	-0.301234	0.991487
H183	H	0.526989	-0.275415	0.232800
H184	H	1.026989	0.224585	0.732800
H185	H	0.527126	-0.163963	0.391599
H186	H	1.027126	0.336037	0.891599
O187	O	0.974254	-0.557284	0.456524
O188	O	1.474254	-0.057284	0.956524
H189	H	0.936501	-0.582197	0.423251
H190	H	1.436501	-0.082197	0.923251
O191	O	1.111574	-0.352984	0.911742
O192	O	1.611574	0.147016	1.411742
H193	H	1.070276	-0.381911	0.891974
H194	H	1.570276	0.118089	1.391974
O195	O	0.929597	-0.224749	0.911701
O196	O	1.429597	0.275251	1.411701
H197	H	0.888484	-0.253800	0.891915
H198	H	1.388484	0.246200	1.391915
H199	H	1.159288	-0.550003	0.271822
H200	H	1.659288	-0.050003	0.771822
O201	O	0.627079	-0.224991	0.501574
O202	O	1.127079	0.275009	1.001574
H203	H	0.579707	-0.217511	0.539292
H204	H	1.079707	0.282489	1.039292
O205	O	1.171781	-0.443728	0.259266
O206	O	1.671781	0.056272	0.759266
H207	H	1.204848	-0.471879	0.226288
H208	H	1.704848	0.028121	0.726288
O209	O	1.219452	-0.694892	0.211867
O210	O	1.719452	-0.194892	0.711867
H211	H	1.252515	-0.723047	0.178893
H212	H	1.752515	-0.223047	0.678893
O213	O	1.219498	-0.808377	0.211874
O214	O	1.719498	-0.308377	0.711874
H215	H	1.252520	-0.780202	0.178879
H216	H	1.752520	-0.280202	0.678879
H217	H	0.986769	-0.451001	0.443964
H218	H	1.486769	0.048999	0.943964
H219	H	1.159534	-1.052365	0.271902
H220	H	1.659534	-0.552365	0.771902
H221	H	0.987072	-1.052404	0.444056
H222	H	1.487072	-0.552404	0.944056
H223	H	0.981596	-0.316347	0.811910
H224	H	1.481596	0.183653	1.311910
O225	O	0.974453	-0.946138	0.456577
O226	O	1.474453	-0.446138	0.956577
H227	H	0.941414	-0.974311	0.489559
H228	H	1.441414	-0.474311	0.989559
H229	H	1.198261	-0.275538	0.812006
H230	H	1.698261	0.224462	1.312006
