data_functionalizedCrystal
_audit_creation_method	'MofGen! by Chris Wilmer'
_symmetry_space_group_name_H-M	'P1'
_symmetry_Int_Tables_number	1
_symmetry_cell_setting	triclinic
loop_
_symmetry_equiv_pos_as_xyz
  x,y,z
_cell_length_a	21.295418
_cell_length_b	21.295417
_cell_length_c	15.296720
_cell_angle_alpha	99.638166
_cell_angle_beta	99.639667
_cell_angle_gamma	90.046319
loop_
_atom_site_label
_atom_site_type_symbol
_atom_site_fract_x
_atom_site_fract_y
_atom_site_fract_z
Zn1	Zn	0.900635	-0.311990	-0.510462
Zn2	Zn	0.918777	-0.399045	-0.359609
Zn3	Zn	0.813600	-0.293820	-0.359587
Zn4	Zn	0.795341	-0.417240	-0.510350
O5	O	0.857088	-0.355524	-0.435002
O6	O	0.991124	-0.323527	-0.490507
O7	O	0.920059	-0.369868	-0.233380
O8	O	0.825195	-0.208145	-0.379639
O9	O	1.004453	-0.387486	-0.379677
O10	O	0.889139	-0.221494	-0.490486
O11	O	0.842787	-0.292559	-0.233363
O12	O	0.723096	-0.310203	-0.379530
O13	O	0.794074	-0.418498	-0.636592
O14	O	0.709680	-0.400879	-0.490295
O15	O	0.871433	-0.341170	-0.636674
O16	O	0.902354	-0.489543	-0.379568
O17	O	0.811666	-0.502912	-0.490316
C18	C	0.693549	-0.355544	-0.434898
C19	C	0.623584	-0.355571	-0.434875
C20	C	0.583759	-0.402829	-0.492464
C21	C	0.518011	-0.402818	-0.492505
C22	C	0.492093	-0.355554	-0.434940
C23	C	0.531927	-0.308288	-0.377347
C24	C	0.597672	-0.308296	-0.377315
N25	N	0.398357	-0.341111	-0.356046
N26	N	0.335901	-0.341107	-0.356079
C27	C	0.294007	-0.355526	-0.435036
N28	N	0.316928	-0.369961	-0.513959
N29	N	0.379389	-0.369968	-0.513925
C30	C	0.420805	-0.355540	-0.434969
C31	C	0.182891	-0.402775	-0.492674
C32	C	0.117142	-0.402760	-0.492716
C33	C	0.131060	-0.308232	-0.377550
C34	C	0.196806	-0.308244	-0.377516
C35	C	0.222718	-0.355519	-0.435077
C36	C	0.857012	-0.519069	-0.434952
C37	C	0.857033	-0.589038	-0.434961
C38	C	0.904283	-0.614931	-0.377353
C39	C	0.904310	-0.680676	-0.377374
C40	C	0.857077	-0.720525	-0.434992
C41	C	0.809823	-0.694626	-0.492611
C42	C	0.809801	-0.628883	-0.492595
N43	N	0.801183	-0.824632	-0.441834
N44	N	0.801206	-0.887084	-0.441843
C45	C	0.857141	-0.918606	-0.435044
N46	N	0.913056	-0.885313	-0.428217
N47	N	0.913032	-0.822854	-0.428203
C48	C	0.857096	-0.791813	-0.435016
C49	C	0.904424	-1.015786	-0.377455
C50	C	0.904452	-1.081532	-0.377482
C51	C	0.809960	-1.095481	-0.492714
C52	C	0.809937	-1.029736	-0.492692
C53	C	0.857169	-0.989892	-0.435058
C54	C	1.021266	-0.355504	-0.435107
C55	C	1.091229	-0.355495	-0.435151
C56	C	0.828693	-0.383890	-0.670277
C57	C	0.816592	-0.395979	-0.770537
C58	C	0.857180	-0.191342	-0.435072
C59	C	0.857219	-0.121377	-0.435102
C60	C	0.943595	-0.269017	-1.053326
C61	C	0.954968	-0.257661	-0.959126
C62	C	0.920375	-0.292239	-0.911975
C63	C	0.874407	-0.338176	-0.959031
C64	C	0.863037	-0.349537	-1.053240
C65	C	0.839817	-0.372759	-0.911889
C66	C	0.793849	-0.418696	-0.958946
C67	C	0.782480	-0.430055	-1.053145
C68	C	0.817073	-0.395476	-1.100297
C69	C	0.851187	-0.361398	-0.817680
C70	C	0.770629	-0.441918	-0.817594
C71	C	0.759256	-0.453274	-0.911794
C72	C	0.885409	-0.327222	-0.200642
C73	C	0.897632	-0.314956	-0.100383
H74	H	0.109958	-0.269746	-0.330684
O75	O	0.804803	-0.407727	-1.201902
H76	H	0.836581	-0.375964	-1.226779
H77	H	0.742461	-0.470076	-0.779203
H78	H	0.888614	-0.323995	-0.779375
O79	O	0.980904	-0.231732	-1.104186
H80	H	1.014781	-0.197882	-1.055642
H81	H	0.942789	-0.701761	-0.330463
H82	H	0.084716	-0.441243	-0.539617
O83	O	0.611707	-0.453814	-0.554549
H84	H	0.636169	-0.431235	-0.600498
O85	O	0.732902	-0.479599	-1.103905
H86	H	0.710751	-0.501731	-1.055295
H87	H	0.721828	-0.490677	-0.950121
H88	H	0.485579	-0.441302	-0.539404
H89	H	0.229234	-0.269764	-0.330616
O90	O	0.955231	-0.571956	-0.315206
H91	H	0.988096	-0.601011	-0.275158
O92	O	0.758874	-0.737604	-0.554746
H93	H	0.781484	-0.773056	-0.600689
O94	O	0.503981	-0.257320	-0.315237
H95	H	0.451575	-0.265260	-0.324921
O96	O	0.758825	-0.600955	-0.554719
H97	H	0.761029	-0.622076	-0.625539
O98	O	0.640635	-0.257333	-0.315182
H99	H	0.611571	-0.224468	-0.275151
H100	H	0.942885	-0.983343	-0.330529
O101	O	0.955417	-1.109467	-0.315350
H102	H	0.953196	-1.088355	-0.244532
O103	O	0.210845	-0.453754	-0.554764
H104	H	0.172102	-0.486608	-0.594830
O105	O	0.759011	-1.138453	-0.554856
H106	H	0.781624	-1.173901	-0.600803
O107	O	0.758961	-1.001800	-0.554803
H108	H	0.726115	-1.040552	-0.594863
H109	H	0.929638	-0.282990	-0.835273
H110	H	0.992397	-0.220260	-0.920819
