data_functionalizedCrystal
_audit_creation_method	'MofGen! by Chris Wilmer'
_symmetry_space_group_name_H-M	'P1'
_symmetry_Int_Tables_number	1
_symmetry_cell_setting	triclinic
loop_
_symmetry_equiv_pos_as_xyz
  x,y,z
_cell_length_a	12.759401
_cell_length_b	12.594516
_cell_length_c	12.759393
_cell_angle_alpha	89.962923
_cell_angle_beta	90.018496
_cell_angle_gamma	89.982244
loop_
_atom_site_label
_atom_site_type_symbol
_atom_site_fract_x
_atom_site_fract_y
_atom_site_fract_z
Zn1	Zn	1.606234	0.423675	0.593941
Zn2	Zn	1.606120	0.601694	0.418244
Zn3	Zn	1.430536	0.423731	0.418281
Zn4	Zn	1.430516	0.601612	0.593886
O5	O	1.518352	0.512678	0.506088
O6	O	1.753240	0.447300	0.570643
O7	O	1.582789	0.578144	0.271228
O8	O	1.453899	0.274777	0.441621
O9	O	1.753156	0.578090	0.441559
O10	O	1.582984	0.274736	0.570678
O11	O	1.453788	0.447395	0.271255
O12	O	1.283513	0.447316	0.441567
O13	O	1.453865	0.577951	0.740914
O14	O	1.283498	0.578005	0.570583
O15	O	1.582964	0.447221	0.740955
O16	O	1.582769	0.750629	0.441505
O17	O	1.453754	0.750569	0.570548
C18	C	1.245384	0.512658	0.506074
C19	C	1.128608	0.512676	0.506093
C20	C	1.518275	0.789219	0.506040
C21	C	1.518339	0.907524	0.506054
C22	C	1.073765	0.580834	0.573160
C23	C	0.964041	0.580848	0.573172
C24	C	0.964011	0.444541	0.439039
C25	C	1.073733	0.444523	0.439033
C26	C	1.073782	0.659533	0.650598
C27	C	0.964058	0.659547	0.650609
C28	C	1.588585	0.976772	0.435935
C29	C	1.614253	1.047463	0.531820
C30	C	1.492781	1.047632	0.410208
C31	C	1.544057	0.976658	0.601990
C32	C	1.422539	0.976820	0.480313
C33	C	1.448171	1.047480	0.576264
C34	C	1.792385	0.512698	0.506103
C35	C	1.909161	0.512707	0.506109
C36	C	1.518425	0.512571	0.780121
C37	C	1.518456	0.512525	0.896898
C38	C	1.518432	1.235057	0.506132
C39	C	1.518402	1.116752	0.506082
C40	C	1.518339	0.512708	0.233121
C41	C	1.518511	0.512454	0.116344
C42	C	1.585688	0.444447	0.951783
C43	C	1.585713	0.444409	1.061507
C44	C	1.451272	0.580535	1.061452
C45	C	1.451243	0.580567	0.951730
C46	C	1.663309	0.365859	0.951816
C47	C	1.663334	0.365821	1.061540
H48	H	1.118382	0.389015	0.384427
Cl49	Cl	1.629706	0.238600	0.905879
Cl50	Cl	0.895019	0.358867	0.354741
H51	H	1.107792	0.737797	0.621306
H52	H	1.565619	0.945615	0.683127
H53	H	1.695296	1.078496	0.553611
H54	H	1.396547	0.635930	1.106109
H55	H	1.744704	0.387898	1.091316
H56	H	0.930061	0.630122	0.727964
H57	H	1.740580	0.395410	0.917777
Cl58	Cl	0.918041	0.786773	0.616701
Cl59	Cl	1.119813	0.625594	0.776283
Cl60	Cl	1.366703	0.666136	0.882735
Cl61	Cl	1.680324	0.928831	0.344481
Cl62	Cl	1.356497	1.095119	0.667934
H63	H	1.634225	0.287500	1.095595
H64	H	1.471138	1.078806	0.329140
H65	H	1.341520	0.945764	0.458493
