data_functionalizedCrystal
_audit_creation_method	'MofGen! by Chris Wilmer'
_symmetry_space_group_name_H-M	'P1'
_symmetry_Int_Tables_number	1
_symmetry_cell_setting	triclinic
loop_
_symmetry_equiv_pos_as_xyz
  x,y,z
_cell_length_a	21.395362
_cell_length_b	11.169416
_cell_length_c	21.395356
_cell_angle_alpha	89.979404
_cell_angle_beta	89.964122
_cell_angle_gamma	90.026221
loop_
_atom_site_label
_atom_site_type_symbol
_atom_site_fract_x
_atom_site_fract_y
_atom_site_fract_z
Zn1	Zn	0.957898	-0.477323	-0.354619
Zn2	Zn	0.957853	-0.678027	-0.249855
Zn3	Zn	0.853128	-0.477413	-0.249820
Zn4	Zn	0.853120	-0.678018	-0.354560
O5	O	0.905500	-0.577695	-0.302213
O6	O	1.045570	-0.503913	-0.340761
O7	O	0.943945	-0.651457	-0.162172
O8	O	0.867048	-0.309451	-0.263732
O9	O	1.045537	-0.651370	-0.263792
O10	O	0.944023	-0.309385	-0.340727
O11	O	0.867004	-0.504066	-0.162147
O12	O	0.765449	-0.504057	-0.263675
O13	O	0.867034	-0.651354	-0.442246
O14	O	0.765443	-0.651441	-0.340626
O15	O	0.944015	-0.503904	-0.442289
O16	O	0.943937	-0.845976	-0.263734
O17	O	0.866990	-0.845969	-0.340661
C18	C	0.742712	-0.577759	-0.302141
C19	C	0.673071	-0.577815	-0.302124
C20	C	0.640371	-0.654659	-0.342133
C21	C	0.574935	-0.654630	-0.342161
C22	C	0.542202	-0.577769	-0.302169
C23	C	0.574910	-0.500909	-0.262157
C24	C	0.640344	-0.500932	-0.262135
C25	C	0.438484	-0.568118	-0.245763
C26	C	0.373051	-0.568104	-0.245784
C27	C	0.340382	-0.577690	-0.302238
C28	C	0.373154	-0.587317	-0.358673
C29	C	0.438588	-0.587340	-0.358650
C30	C	0.471250	-0.577734	-0.302189
C31	C	0.236729	-0.654507	-0.342281
C32	C	0.171293	-0.654469	-0.342310
C33	C	0.171269	-0.500755	-0.262300
C34	C	0.236704	-0.500786	-0.262277
C35	C	0.269430	-0.577669	-0.302266
C36	C	0.905475	-0.889520	-0.302209
C37	C	0.905521	-1.022920	-0.302228
C38	C	1.068923	-0.577632	-0.302287
C39	C	1.138564	-0.577606	-0.302318
C40	C	0.905529	-0.577618	-0.465637
C41	C	0.905541	-0.577585	-0.535278
C42	C	0.905542	-0.264653	-0.302232
C43	C	0.905560	-0.131253	-0.302240
C44	C	0.945684	-0.500617	-1.037098
C45	C	0.945679	-0.500646	-0.971662
C46	C	0.905595	-0.577425	-0.938917
C47	C	0.865524	-0.654204	-0.971611
C48	C	0.865535	-0.654181	-1.037046
C49	C	0.849127	-0.586960	-0.835222
C50	C	0.849116	-0.586974	-0.769789
C51	C	0.905563	-0.577502	-0.737096
C52	C	0.962023	-0.567991	-0.769843
C53	C	0.962033	-0.567968	-0.835278
C54	C	0.905579	-0.577459	-0.867964
C55	C	0.945629	-0.500766	-0.633456
C56	C	0.945625	-0.500803	-0.568019
C57	C	0.865464	-0.654355	-0.567970
C58	C	0.865474	-0.654324	-0.633405
C59	C	0.905555	-0.577523	-0.666144
C60	C	0.905507	-0.577685	-0.139426
C61	C	0.905616	-0.577380	-0.069785
H62	H	0.144618	-0.438167	-0.229741
H63	H	0.978257	-0.438297	-0.541407
Br64	Br	1.000061	-0.396462	-0.927291
Br65	Br	1.038654	-0.555076	-0.879719
H66	H	0.346373	-0.560272	-0.199832
Br67	Br	0.811093	-0.758509	-0.677769
H68	H	0.832905	-0.716693	-1.063659
Br69	Br	0.281148	-0.758840	-0.396553
H70	H	0.465268	-0.595175	-0.404601
H71	H	0.667013	-0.717262	-0.374697
H72	H	0.548306	-0.717206	-0.374744
H73	H	0.144670	-0.717043	-0.374894
Br74	Br	0.281086	-0.396491	-0.207976
Br75	Br	0.482814	-0.555108	-0.169140
Br76	Br	0.684726	-0.396632	-0.207834
H77	H	0.803143	-0.594718	-0.743131
H78	H	1.007987	-0.560273	-0.743226
Br79	Br	0.772513	-0.599801	-0.879585
H80	H	0.346556	-0.595121	-0.404643
Br81	Br	0.530489	-0.396586	-0.207887
Br82	Br	1.000105	-0.396438	-1.081527
Br83	Br	1.000009	-0.396513	-0.677892
H84	H	0.832830	-0.716875	-0.541309
H85	H	0.832888	-0.716720	-0.944945
