data_functionalizedCrystal
_audit_creation_method	'MofGen! by Chris Wilmer'
_symmetry_space_group_name_H-M	'P1'
_symmetry_Int_Tables_number	1
_symmetry_cell_setting	triclinic
loop_
_symmetry_equiv_pos_as_xyz
  x,y,z
_cell_length_a	19.288840
_cell_length_b	17.038272
_cell_length_c	18.366186
_cell_angle_alpha	89.993834
_cell_angle_beta	89.983729
_cell_angle_gamma	87.118786
loop_
_atom_site_label
_atom_site_type_symbol
_atom_site_fract_x
_atom_site_fract_y
_atom_site_fract_z
O1	O	0.927391	0.097420	-0.060673
O2	O	0.725943	0.110595	-0.060648
O3	O	0.825470	-0.009804	-0.060654
O4	O	0.827865	0.217819	-0.060666
O5	O	0.825452	-0.009810	0.060445
O6	O	0.725925	0.110589	0.060452
O7	O	0.927373	0.097414	0.060427
Zn8	Zn	0.826646	0.104001	0.079666
Zn9	Zn	0.826670	0.104008	-0.079887
O10	O	0.827846	0.217813	0.060433
C11	C	0.700031	0.110171	-0.000095
C12	C	0.622849	0.108909	-0.000085
C13	C	0.586618	0.108305	-0.066098
C14	C	0.514097	0.107110	-0.066107
C15	C	0.477811	0.106502	-0.000099
C16	C	0.514050	0.107110	0.065923
C17	C	0.586569	0.108313	0.065930
C18	C	0.365525	0.058809	0.050465
C19	C	0.293007	0.057601	0.050455
C20	C	0.254138	0.102795	-0.000118
C21	C	0.287795	0.149188	-0.050693
C22	C	0.360314	0.150391	-0.050686
C23	C	0.399176	0.105198	-0.000099
C24	C	0.139271	0.100897	-0.066145
C25	C	0.066749	0.099707	-0.066151
C26	C	0.066704	0.099699	0.065880
C27	C	0.139225	0.100897	0.065885
C28	C	0.175504	0.101493	-0.000130
C29	C	0.823283	-0.038928	-0.000105
C30	C	0.816785	-0.125699	-0.000104
C31	C	0.876442	-0.176012	-0.000111
C32	C	0.870332	-0.257542	-0.000117
C33	C	0.804566	-0.288758	-0.000111
C34	C	0.744905	-0.238439	-0.000107
C35	C	0.751015	-0.156910	-0.000106
C36	C	0.782980	-0.534444	-0.000118
C37	C	0.776875	-0.615979	-0.000117
C38	C	0.902303	-0.635077	-0.000129
C39	C	0.908407	-0.553546	-0.000123
C40	C	0.848746	-0.503234	-0.000123
C41	C	0.798320	-0.372095	-0.000115
C42	C	0.854993	-0.419899	-0.000124
C43	C	0.953285	0.097838	-0.000128
C44	C	1.030468	0.099101	-0.000143
C45	C	0.830033	0.246937	-0.000118
C46	C	0.836531	0.333708	-0.000124
N47	N	0.826634	0.103995	0.188557
N48	N	0.826687	0.104008	-0.188779
C49	C	0.870722	0.050708	0.226655
C50	C	0.870726	0.050705	0.302883
C51	C	0.826650	0.104001	0.341010
C52	C	0.782554	0.157292	0.302903
C53	C	0.782546	0.157289	0.226677
C54	C	0.821759	0.175226	0.461767
C55	C	0.821771	0.175230	0.537992
C56	C	0.826671	0.104011	0.576118
C57	C	0.831571	0.032785	0.538008
C58	C	0.831563	0.032782	0.461782
C59	C	0.826654	0.104010	0.423665
C60	C	0.870765	0.050716	0.696870
C61	C	0.870764	0.050712	0.773099
C62	C	0.782596	0.157306	0.773119
C63	C	0.782593	0.157303	0.696891
C64	C	0.826681	0.104010	0.658771
H65	H	0.037250	0.099220	-0.119909
H66	H	0.906662	0.007319	0.665832
H67	H	0.397167	0.022003	0.091651
F68	F	0.177786	0.101536	0.136146
F69	F	0.396132	0.199766	-0.104508
H70	H	0.746644	0.200682	0.195657
F71	F	0.735643	0.214011	0.343482
F72	F	0.917653	-0.006013	0.343435
F73	F	0.475431	0.106468	0.136173
F74	F	0.625225	0.108941	-0.136357
F75	F	0.735683	0.214023	0.813693
F76	F	0.946440	-0.142797	-0.000110
H77	H	0.616068	0.108806	0.119687
F78	F	0.836790	-0.043017	0.578578
F79	F	0.933827	-0.311086	-0.000123
F80	F	0.917686	-0.006010	0.813647
F81	F	0.257192	0.008241	0.104292
F82	F	0.728328	-0.405324	-0.000112
H83	H	0.746696	0.200697	0.665870
H84	H	0.168811	0.101390	-0.119898
H85	H	0.484592	0.106620	-0.119865
F86	F	0.706874	-0.649199	-0.000107
H87	H	0.817785	0.233226	0.569015
F88	F	0.978404	-0.520330	-0.000148
H89	H	0.256149	0.185993	-0.091872
H90	H	0.950875	-0.676049	-0.000131
F91	F	0.816595	0.251033	0.421199
F92	F	0.719483	-0.480909	-0.000120
H93	H	0.037160	0.099209	0.119626
H94	H	0.691357	-0.263861	-0.000107
F95	F	0.687520	-0.103363	-0.000101
F96	F	0.924984	-0.386675	-0.000134
F97	F	0.917641	-0.006013	0.186087
H98	H	0.835552	-0.025213	0.430757
