data_functionalizedCrystal
_audit_creation_method	'MofGen! by Chris Wilmer'
_symmetry_space_group_name_H-M	'P1'
_symmetry_Int_Tables_number	1
_symmetry_cell_setting	triclinic
loop_
_symmetry_equiv_pos_as_xyz
  x,y,z
_cell_length_a	14.044191
_cell_length_b	19.188924
_cell_length_c	12.503572
_cell_angle_alpha	93.509187
_cell_angle_beta	86.162165
_cell_angle_gamma	88.166870
loop_
_atom_site_label
_atom_site_type_symbol
_atom_site_fract_x
_atom_site_fract_y
_atom_site_fract_z
O1	O	1.262484	0.164611	-0.089277
O2	O	0.986540	0.158532	-0.089291
O3	O	1.132478	0.060430	-0.089271
O4	O	1.116546	0.262713	-0.089297
O5	O	1.121502	0.067821	0.089369
O6	O	0.975565	0.165924	0.089350
O7	O	1.251508	0.172002	0.089363
Cu8	Cu	1.112535	0.169638	0.105668
Cu9	Cu	1.125514	0.160897	-0.105595
O10	O	1.105571	0.270104	0.089343
C11	C	0.945749	0.159569	0.000028
C12	C	0.840557	0.151638	0.000023
C13	C	0.590096	0.193386	0.000029
C14	C	0.647959	0.137151	0.000034
C15	C	0.755130	0.145213	0.000028
C16	C	0.482915	0.185325	0.000035
C17	C	1.126475	0.038082	0.000050
C18	C	1.124929	-0.039523	0.000053
C19	C	1.130191	-0.079997	-0.097324
C20	C	1.128726	-0.152915	-0.097332
C21	C	1.122018	-0.185356	0.000042
C22	C	1.116750	-0.144872	0.097432
C23	C	1.118206	-0.071955	0.097438
N24	N	1.169205	-0.298687	0.072518
N25	N	1.167825	-0.367955	0.072506
C26	C	1.117629	-0.405049	0.000032
N27	N	1.068879	-0.370259	-0.072447
N28	N	1.070264	-0.300985	-0.072439
C29	C	1.120438	-0.264421	0.000047
C30	C	1.121301	-0.524589	-0.097361
C31	C	1.119829	-0.597508	-0.097365
C32	C	1.107864	-0.589463	0.097402
C33	C	1.109325	-0.516546	0.097403
C34	C	1.116049	-0.484113	0.000019
C35	C	1.292300	0.170965	0.000042
C36	C	1.397492	0.178896	0.000040
C37	C	1.111574	0.292452	0.000020
C38	C	1.113120	0.370057	0.000010
N39	N	1.103412	0.175785	0.254259
N40	N	1.134644	0.154744	-0.254186
C41	C	1.089993	0.184835	0.473372
C42	C	1.148060	0.145696	0.526707
C43	C	1.140594	0.150731	0.648629
C44	C	1.097458	0.179801	0.351439
H45	H	0.621043	0.247582	0.000019
Cl46	Cl	1.129745	-0.483813	-0.219785
H47	H	0.617015	0.082947	-0.000034
Cl48	Cl	1.233833	0.088413	0.455839
H49	H	1.034676	0.222123	0.519272
Cl50	Cl	1.126437	-0.648391	-0.219794
H51	H	1.133004	-0.185875	-0.176631
Cl52	Cl	1.138636	-0.039228	-0.219750
H53	H	1.111286	-0.171290	0.176715
Cl54	Cl	1.111590	-0.021070	0.219865
Cl55	Cl	1.099425	-0.630239	0.219817
H56	H	1.105049	-0.483591	0.176698
