data_functionalizedCrystal
_audit_creation_method	'MofGen! by Chris Wilmer'
_symmetry_space_group_name_H-M	'P1'
_symmetry_Int_Tables_number	1
_symmetry_cell_setting	triclinic
loop_
_symmetry_equiv_pos_as_xyz
  x,y,z
_cell_length_a	14.971486
_cell_length_b	19.188930
_cell_length_c	13.448316
_cell_angle_alpha	90.012380
_cell_angle_beta	89.996448
_cell_angle_gamma	83.379455
loop_
_atom_site_label
_atom_site_type_symbol
_atom_site_fract_x
_atom_site_fract_y
_atom_site_fract_z
O1	O	1.186460	0.090989	0.082589
O2	O	0.926002	0.101885	0.082618
O3	O	1.063747	-0.005194	0.082583
O4	O	1.048715	0.198069	0.082624
O5	O	1.063744	-0.005203	-0.082801
O6	O	0.925999	0.101876	-0.082766
O7	O	1.186457	0.090980	-0.082795
Cu8	Cu	1.056228	0.096427	-0.097881
Cu9	Cu	1.056231	0.096438	0.097704
O10	O	1.048712	0.198060	-0.082760
C11	C	0.892678	0.101393	-0.000071
C12	C	0.793389	0.099933	-0.000061
C13	C	0.735831	0.162839	-0.000050
C14	C	0.642539	0.161463	-0.000065
C15	C	0.606806	0.097180	-0.000084
C16	C	0.664371	0.034269	-0.000098
C17	C	0.757662	0.035646	-0.000090
C18	C	0.469924	0.031403	-0.000112
C19	C	0.376627	0.030026	-0.000119
C20	C	0.354801	0.157221	-0.000087
C21	C	0.448092	0.158598	-0.000079
C22	C	0.505650	0.095686	-0.000091
C23	C	1.063259	-0.031211	-0.000112
C24	C	1.061797	-0.108721	-0.000120
C25	C	1.142622	-0.153384	-0.000134
C26	C	1.141249	-0.226213	-0.000118
C27	C	1.059047	-0.254374	-0.000108
C28	C	0.978212	-0.209700	-0.000089
C29	C	0.979587	-0.136874	-0.000095
N30	N	0.996213	-0.362584	-0.056384
N31	N	0.994912	-0.431767	-0.056381
C32	C	1.054899	-0.473796	-0.000087
N33	N	1.116249	-0.444030	0.056190
N34	N	1.117553	-0.374841	0.056182
C35	C	1.057547	-0.333341	-0.000101
C36	C	1.134240	-0.597429	-0.000082
C37	C	1.132864	-0.670258	-0.000060
C38	C	0.969825	-0.653744	-0.000041
C39	C	0.971203	-0.580916	-0.000053
C40	C	1.053413	-0.552763	-0.000078
C41	C	1.219780	0.091472	-0.000104
C42	C	1.319070	0.092932	-0.000107
C43	C	1.049200	0.224077	-0.000063
C44	C	1.050661	0.301586	-0.000048
N45	N	1.056234	0.096441	0.235268
N46	N	1.056232	0.096419	-0.235446
C47	C	1.117341	0.049119	0.287294
C48	C	1.117344	0.049117	0.391397
C49	C	1.056237	0.096434	0.443473
C50	C	0.995127	0.143760	0.391441
C51	C	0.995128	0.143765	0.287339
C52	C	0.995128	0.143746	0.608421
C53	C	0.995125	0.143740	0.712529
C54	C	1.117344	0.049098	0.712478
C55	C	1.117345	0.049103	0.608377
C56	C	1.056234	0.096429	0.556352
H57	H	0.635271	-0.018072	-0.000128
H58	H	1.209564	-0.130467	-0.000151
H59	H	0.595679	0.212688	-0.000055
C60	C	1.221775	-0.719389	-0.000076
H61	H	1.270929	-0.692188	-0.000102
H62	H	1.224637	-0.748131	0.057599
H63	H	1.224618	-0.748152	-0.057755
C64	C	0.487397	0.229307	-0.000060
H65	H	0.439758	0.266578	-0.000064
H66	H	0.523331	0.232491	0.057614
H67	H	0.523341	0.232480	-0.057739
C68	C	0.879404	-0.684712	-0.000027
H69	H	0.890160	-0.734483	-0.000030
H70	H	0.846137	-0.669372	0.057648
H71	H	0.846136	-0.669398	-0.057705
H72	H	0.913768	-0.100507	-0.000084
C73	C	1.184595	-0.002935	0.769701
H74	H	1.175860	0.003850	0.839158
H75	H	1.175208	-0.049577	0.752641
H76	H	1.244217	0.004840	0.752620
H77	H	0.905387	-0.544550	-0.000048
C78	C	1.224665	-0.566457	-0.000098
H79	H	1.272607	-0.603491	-0.000090
H80	H	1.228591	-0.538404	-0.057776
H81	H	1.228590	-0.538378	0.057577
C82	C	0.887793	-0.240674	-0.000082
H83	H	0.898549	-0.290445	-0.000090
H84	H	0.854524	-0.225338	0.057595
H85	H	0.854525	-0.225356	-0.057759
C86	C	0.337322	-0.040684	-0.000145
H87	H	0.384961	-0.077954	-0.000165
H88	H	0.301377	-0.043864	0.057524
H89	H	0.301389	-0.043860	-0.057829
C90	C	0.820979	-0.033549	-0.000101
H91	H	0.881657	-0.023523	-0.000104
H92	H	0.810171	-0.059905	0.057563
H93	H	0.810180	-0.059904	-0.057791
H94	H	1.167098	0.010586	0.244900
C95	C	1.230159	-0.275352	-0.000140
H96	H	1.279316	-0.248154	-0.000161
H97	H	1.233018	-0.304097	0.057532
H98	H	1.232999	-0.304111	-0.057821
H99	H	1.167102	0.010585	0.433755
H100	H	0.945375	0.182290	0.433847
C101	C	1.184563	-0.002942	0.551094
H102	H	1.220964	-0.031124	0.596986
H103	H	1.152584	-0.032098	0.510471
H104	H	1.221626	0.022293	0.510497
C105	C	0.927917	0.195794	0.769812
H106	H	0.891532	0.223988	0.723920
H107	H	0.890851	0.170572	0.810415
H108	H	0.959914	0.224947	0.810430
C109	C	0.927879	0.195781	0.551195
H110	H	0.891470	0.223949	0.597117
H111	H	0.959829	0.224952	0.510576
H112	H	0.890827	0.170530	0.510596
C113	C	0.291491	0.226422	-0.000077
H114	H	0.230813	0.216397	-0.000095
H115	H	0.302287	0.252778	0.057606
H116	H	0.302305	0.252777	-0.057747
H117	H	0.516787	-0.019826	-0.000124
C118	C	0.927913	0.195817	0.230107
H119	H	0.936671	0.189048	0.160650
H120	H	0.868281	0.188070	0.247165
H121	H	0.937335	0.242452	0.247188
C122	C	0.775129	0.233552	-0.000028
H123	H	0.727485	0.270819	-0.000033
H124	H	0.811061	0.236738	0.057648
H125	H	0.811074	0.236729	-0.057705
