data_functionalizedCrystal
_audit_creation_method	'MofGen! by Chris Wilmer'
_symmetry_space_group_name_H-M	'P1'
_symmetry_Int_Tables_number	1
_symmetry_cell_setting	triclinic
loop_
_symmetry_equiv_pos_as_xyz
  x,y,z
_cell_length_a	10.723024
_cell_length_b	8.965430
_cell_length_c	10.723024
_cell_angle_alpha	89.998405
_cell_angle_beta	84.467869
_cell_angle_gamma	90.003544
loop_
_atom_site_label
_atom_site_type_symbol
_atom_site_fract_x
_atom_site_fract_y
_atom_site_fract_z
O1	O	1.657188	0.124026	0.175018
O2	O	1.294036	0.124030	0.191771
O3	O	1.483989	0.124022	0.001818
O4	O	1.467235	0.124034	0.364971
O5	O	1.483973	-0.124057	0.001831
O6	O	1.294020	-0.124049	0.191784
O7	O	1.657172	-0.124053	0.175031
Cu8	Cu	1.475595	-0.146703	0.183408
Cu9	Cu	1.475614	0.146680	0.183393
O10	O	1.467219	-0.124045	0.364983
C11	C	1.247528	-0.000009	0.190558
C12	C	1.108974	-0.000007	0.186911
N13	N	1.475590	-0.353052	0.183418
C14	C	1.033991	-0.000002	0.293198
C15	C	0.890788	-0.000001	0.289431
C16	C	1.387716	-0.450354	0.271236
C17	C	1.500691	-0.549768	0.296416
C18	C	1.362663	-0.549765	0.158249
C19	C	1.588622	-0.450277	0.208655
C20	C	1.450520	-0.450265	0.070438
C21	C	1.563576	-0.549634	0.095571
C22	C	1.703680	-0.000011	0.176243
C23	C	1.842234	-0.000003	0.179891
C24	C	1.482762	-0.000015	-0.044675
C25	C	1.479114	-0.000010	-0.183229
N26	N	1.475628	0.353029	0.183374
C27	C	1.585401	-0.000009	-0.258212
C28	C	1.581634	-0.000004	-0.401415
C29	C	1.468447	-0.000004	0.411477
C30	C	1.472094	0.000000	0.550031
H31	H	1.075814	-0.000008	0.386984
O32	O	0.813752	-0.000059	0.397871
C33	C	0.687921	-0.000016	0.369968
H34	H	0.682209	-0.046986	0.271891
H35	H	0.629476	-0.072033	0.441128
H36	H	0.650330	0.119003	0.374324
O37	O	1.697186	-0.000079	-0.208125
C38	C	1.676062	-0.000043	-0.076294
H39	H	1.578908	-0.047007	-0.046688
H40	H	1.749820	-0.072069	-0.035592
H41	H	1.682378	0.118973	-0.039999
H42	H	1.267147	-0.593469	0.136980
H43	H	0.906659	0.000003	0.088896
H44	H	1.429254	-0.406524	-0.025057
H45	H	1.637986	-0.592953	0.021284
H46	H	1.672624	-0.000010	-0.465848
O47	O	1.363565	0.000265	-0.373067
C48	C	1.358873	0.128725	-0.296913
H49	H	1.422236	0.218526	-0.344108
H50	H	1.258486	0.171856	-0.283014
H51	H	1.392101	0.099670	-0.202037
O52	O	1.367145	-0.000202	-0.232963
C53	C	1.298859	-0.128704	-0.192807
H54	H	1.333510	-0.171547	-0.102181
H55	H	1.195085	-0.099804	-0.175768
H56	H	1.312762	-0.218666	-0.267997
O57	O	1.299014	-0.398260	0.359742
C58	C	1.211175	-0.311737	0.301793
H59	H	1.212305	-0.345596	0.199218
H60	H	1.113604	-0.330996	0.351347
H61	H	1.236587	-0.188656	0.307957
H62	H	1.521921	-0.593474	0.391941
H63	H	1.067152	0.000029	0.093125
H64	H	1.684160	-0.406760	0.230038
