data_functionalizedCrystal
_audit_creation_method	'MofGen! by Chris Wilmer'
_symmetry_space_group_name_H-M	'P1'
_symmetry_Int_Tables_number	1
_symmetry_cell_setting	triclinic
loop_
_symmetry_equiv_pos_as_xyz
  x,y,z
_cell_length_a	27.732048
_cell_length_b	27.731996
_cell_length_c	14.586319
_cell_angle_alpha	89.990257
_cell_angle_beta	90.001999
_cell_angle_gamma	82.632022
loop_
_atom_site_label
_atom_site_type_symbol
_atom_site_fract_x
_atom_site_fract_y
_atom_site_fract_z
O1	O	0.640916	0.057518	-0.076134
O2	O	0.500121	0.066264	-0.076163
O3	O	0.574904	-0.008508	-0.076128
O4	O	0.566132	0.132289	-0.076169
O5	O	0.574899	-0.008509	0.076353
O6	O	0.500116	0.066263	0.076317
O7	O	0.640911	0.057517	0.076347
Cu8	Cu	0.570513	0.061890	0.090255
Cu9	Cu	0.570519	0.061891	-0.090071
O10	O	0.566127	0.132288	0.076311
C11	C	0.482111	0.066079	0.000074
C12	C	0.428456	0.065527	0.000063
C13	C	0.089634	0.106231	0.000091
C14	C	-0.112026	0.104180	0.000100
O15	O	-0.143288	0.141402	0.000129
N16	N	-0.131141	0.059844	0.000111
C17	C	-0.099838	0.016017	0.000126
O18	O	-0.120724	-0.021740	0.000146
C19	C	0.101820	0.018069	0.000124
C20	C	0.120933	0.062408	0.000103
C21	C	0.108747	0.150567	0.000071
C22	C	0.159159	0.151079	0.000064
C23	C	0.190457	0.107256	0.000077
C24	C	0.171344	0.062920	0.000096
C25	C	0.133122	-0.025757	0.000146
C26	C	0.183539	-0.025240	0.000148
C27	C	0.202652	0.019099	0.000127
C28	C	0.253055	0.019609	0.000102
N29	N	0.272171	0.063946	0.000090
C30	C	0.240872	0.107769	0.000078
C31	C	-0.205712	0.014943	0.000126
C32	C	-0.256126	0.014430	0.000125
C33	C	-0.268310	0.102594	0.000100
C34	C	-0.217895	0.103106	0.000094
C35	C	-0.186597	0.059280	0.000114
C36	C	0.346741	0.108842	0.000062
C37	C	0.397158	0.109350	0.000051
C38	C	0.409337	0.021187	0.000081
C39	C	0.358925	0.020678	0.000087
C40	C	0.327627	0.064510	0.000080
O41	O	0.284346	-0.017592	0.000083
O42	O	0.261767	0.145521	0.000079
C43	C	0.039222	0.105719	0.000098
C44	C	0.020109	0.061384	0.000118
C45	C	0.051408	0.017560	0.000130
C46	C	-0.030305	0.060871	0.000117
C47	C	-0.061604	0.104694	0.000104
C48	C	-0.042489	0.149030	0.000093
C49	C	0.007923	0.149543	0.000086
C50	C	0.032292	-0.026776	0.000142
C51	C	-0.018120	-0.027285	0.000148
C52	C	-0.049419	0.016539	0.000135
C53	C	0.574721	-0.026516	0.000116
C54	C	0.574179	-0.080172	0.000125
C55	C	0.570767	-0.412888	-0.083038
C56	C	0.568706	-0.614546	-0.083055
O57	O	0.568421	-0.640616	-0.153743
N58	N	0.568447	-0.639764	0.000062
C59	C	0.568700	-0.614563	0.083188
O60	O	0.568428	-0.640639	0.153884
C61	C	0.570758	-0.412905	0.083204
C62	C	0.571021	-0.387691	0.000082
C63	C	0.571030	-0.387673	-0.166153
C64	C	0.571548	-0.337262	-0.166148
C65	C	0.571802	-0.312065	-0.083028
C66	C	0.571539	-0.337280	0.000087
C67	C	0.571008	-0.387706	0.166330
C68	C	0.571521	-0.337288	0.166326
C69	C	0.571784	-0.312073	0.083204
C70	C	0.572312	-0.261672	0.083212
N71	N	0.572571	-0.236454	0.000096
C72	C	0.572316	-0.261651	-0.083024
C73	C	0.567621	-0.720437	0.083174
C74	C	0.567107	-0.770851	0.083171
C75	C	0.567112	-0.770830	-0.083073
C76	C	0.567629	-0.720415	-0.083068
C77	C	0.567880	-0.695219	0.000058
C78	C	0.573404	-0.155784	-0.083008
C79	C	0.573924	-0.105369	-0.082995
C80	C	0.573917	-0.105394	0.083247
C81	C	0.573399	-0.155805	0.083236
C82	C	0.573141	-0.180999	0.000101
O83	O	0.572592	-0.235570	0.153864
O84	O	0.572578	-0.235565	-0.153709
C85	C	0.570249	-0.463299	-0.083043
C86	C	0.569986	-0.488513	0.000072
C87	C	0.570240	-0.463317	0.083192
C88	C	0.569472	-0.538928	0.000069
C89	C	0.569217	-0.564124	-0.083052
C90	C	0.569476	-0.538907	-0.166168
C91	C	0.569994	-0.488496	-0.166163
C92	C	0.569982	-0.488534	0.166309
C93	C	0.569464	-0.538946	0.166297
C94	C	0.569210	-0.564142	0.083177
C95	C	0.658920	0.057701	0.000108
C96	C	0.712575	0.058254	0.000112
C97	C	0.566310	0.150296	0.000066
C98	C	0.566853	0.203952	0.000051
N99	N	0.570512	0.061888	0.217087
N100	N	0.570523	0.061888	-0.216903
C101	C	0.603637	0.028791	0.452109
C102	C	0.603638	0.028789	0.548090
C103	C	0.537395	0.094988	0.548068
C104	C	0.537392	0.094986	0.452089
C105	C	0.570515	0.061888	0.404111
C106	C	0.570520	0.061888	0.596072
C107	C	0.570521	0.061887	0.700139
C108	C	0.570513	0.061888	0.300038
H109	H	-0.271683	-0.021675	0.000127
N110	N	0.027434	0.194839	0.000061
N111	N	-0.000525	0.233960	0.000049
H112	H	0.013251	0.265953	0.000032
N113	N	0.566855	-0.796563	-0.167990
N114	N	0.600997	-0.795641	-0.223645
H115	H	0.600813	-0.813815	-0.283616
H116	H	0.574140	-0.084841	-0.150686
N117	N	0.503562	0.128802	0.597063
N118	N	0.473991	0.158350	0.554194
H119	H	0.450095	0.182233	0.588794
H120	H	0.630608	0.001838	0.587167
H121	H	0.571718	-0.316775	0.234019
H122	H	0.343363	-0.015426	0.000090
N123	N	0.503564	0.128805	0.403056
N124	N	0.518670	0.158704	0.349487
H125	H	0.494781	0.182587	0.314857
N126	N	0.637466	-0.005028	0.403117
N127	N	0.667365	0.010076	0.349551
H128	H	0.691258	-0.013815	0.314963
N129	N	0.570235	-0.462801	0.251219
N130	N	0.536089	-0.463726	0.306867
H131	H	0.536269	-0.445553	0.366841
H132	H	0.412716	0.145458	0.000033
N133	N	0.314776	0.153613	0.000032
N134	N	0.285285	0.163166	-0.064248
H135	H	0.262710	0.194786	-0.064276
N136	N	0.178669	0.196376	0.000042
N137	N	0.150711	0.235497	0.000031
H138	H	0.164486	0.267490	0.000017
N139	N	0.441305	-0.023581	0.000091
N140	N	0.439756	-0.053159	-0.064166
H141	H	0.462334	-0.084777	-0.064153
H142	H	0.569271	-0.559431	-0.233847
H143	H	0.083267	0.186255	0.000064
N144	N	-0.074459	0.193799	0.000074
N145	N	-0.072916	0.223376	-0.064206
H146	H	-0.095496	0.254993	-0.064216
N147	N	-0.198382	0.148401	0.000072
N148	N	-0.226339	0.187524	0.000056
H149	H	-0.212561	0.219516	0.000042
H150	H	-0.293803	0.138276	0.000090
H151	H	-0.180232	-0.020747	0.000142
N152	N	0.570738	-0.413462	0.251228
N153	N	0.604533	-0.446310	0.269796
H154	H	0.604343	-0.464502	0.329760
H155	H	0.117570	-0.061863	0.000164
H156	H	0.209021	-0.060930	0.000165
N157	N	0.571815	-0.311517	-0.251064
N158	N	0.571586	-0.334028	-0.325266
H159	H	0.571773	-0.315849	-0.385243
N160	N	0.064259	-0.071543	0.000168
N161	N	0.062708	-0.101117	0.064451
H162	H	0.085283	-0.132737	0.064467
H163	H	-0.033676	-0.063394	0.000158
H164	H	0.570821	-0.408183	-0.233843
N165	N	0.573138	-0.181506	-0.167935
N166	N	0.573373	-0.158979	-0.242132
H167	H	0.573188	-0.177145	-0.302113
N168	N	0.567905	-0.694662	-0.167974
N169	N	0.601939	-0.705001	-0.223616
H170	H	0.602134	-0.686815	-0.283584
N171	N	0.566849	-0.796598	0.168086
N172	N	0.567076	-0.774089	0.242290
H173	H	0.566892	-0.792270	0.302265
N174	N	0.567871	-0.694703	0.168092
N175	N	0.533726	-0.695632	0.223738
H176	H	0.533904	-0.677459	0.283713
N177	N	0.573134	-0.181557	0.168148
N178	N	0.573362	-0.159051	0.242356
H179	H	0.573170	-0.177234	0.302329
H180	H	0.570208	-0.467970	-0.233850
N181	N	0.574181	-0.079644	0.168141
N182	N	0.574642	-0.034632	0.168122
H183	H	0.574827	-0.016443	0.228079
H184	H	0.569253	-0.559472	0.233990
