data_functionalizedCrystal
_audit_creation_method	'MofGen! by Chris Wilmer'
_symmetry_space_group_name_H-M	'P1'
_symmetry_Int_Tables_number	1
_symmetry_cell_setting	triclinic
loop_
_symmetry_equiv_pos_as_xyz
  x,y,z
_cell_length_a	10.489741
_cell_length_b	23.532407
_cell_length_c	8.965430
_cell_angle_alpha	89.995773
_cell_angle_beta	89.998843
_cell_angle_gamma	83.693926
loop_
_atom_site_label
_atom_site_type_symbol
_atom_site_fract_x
_atom_site_fract_y
_atom_site_fract_z
O1	O	1.691383	0.080340	-0.123964
O2	O	1.319936	0.087881	-0.123989
O3	O	1.516860	0.001253	-0.123949
O4	O	1.494458	0.166968	-0.124005
O5	O	1.516844	0.001259	0.124130
O6	O	1.319920	0.087887	0.124090
O7	O	1.691366	0.080346	0.124115
Cu8	Cu	1.505641	0.084117	0.146754
Cu9	Cu	1.505661	0.084110	-0.146628
O10	O	1.494442	0.166974	0.124074
C11	C	1.272415	0.087315	0.000048
C12	C	1.130842	0.085611	0.000039
C13	C	1.064535	0.030491	0.000072
C14	C	0.971550	0.056526	-0.122250
C15	C	0.971568	0.056545	0.122337
C16	C	1.039723	0.111668	-0.122383
C17	C	1.039750	0.111679	0.122313
C18	C	0.946792	0.137754	-0.000039
C19	C	1.516282	-0.019964	0.000095
C20	C	1.514566	-0.083192	0.000106
C21	C	1.620344	-0.481594	0.000031
C22	C	1.618751	-0.541005	0.000020
O23	O	1.716808	-0.577100	-0.000029
N24	N	1.501680	-0.564407	0.000013
C25	C	1.386194	-0.528395	0.000003
O26	O	1.286470	-0.553755	-0.000006
C27	C	1.387789	-0.468985	0.000003
C28	C	1.504868	-0.445587	0.000025
C29	C	1.737414	-0.458195	0.000051
C30	C	1.739007	-0.398788	0.000066
C31	C	1.623530	-0.362781	0.000060
C32	C	1.506460	-0.386180	0.000039
C33	C	1.272305	-0.432974	-0.000018
C34	C	1.273909	-0.373561	-0.000018
C35	C	1.390988	-0.350162	0.000004
C36	C	1.392576	-0.290766	0.000048
N37	N	1.509648	-0.267364	0.000054
C38	C	1.625125	-0.303371	0.000060
C39	C	1.382854	-0.653160	-0.000002
C40	C	1.381258	-0.712568	0.000008
C41	C	1.613816	-0.725174	0.000023
C42	C	1.615410	-0.665765	0.000023
C43	C	1.499926	-0.629758	0.000005
C44	C	1.628461	-0.178612	0.000092
C45	C	1.630043	-0.119200	0.000112
C46	C	1.397486	-0.106599	0.000090
C47	C	1.395903	-0.166006	0.000077
C48	C	1.511401	-0.202012	0.000073
O49	O	1.294571	-0.254636	0.000090
O50	O	1.724833	-0.278003	0.000049
C51	C	1.738887	0.080912	0.000075
C52	C	1.880460	0.082616	0.000073
C53	C	1.495021	0.188191	0.000028
C54	C	1.496736	0.251419	0.000006
N55	N	1.505637	0.084121	0.353103
N56	N	1.505676	0.084101	-0.352977
C57	C	1.414538	0.124171	0.450390
C58	C	1.529652	0.135693	0.549807
C59	C	1.390572	0.072603	0.549813
C60	C	1.620808	0.095670	0.450331
C61	C	1.481652	0.032557	0.450328
C62	C	1.596850	0.044059	0.549701
H63	H	1.115731	-0.014820	-0.000066
H64	H	1.461303	-0.011027	0.406598
O65	O	0.886162	0.191891	0.000068
C66	C	0.922468	0.221081	0.127899
H67	H	1.018867	0.200118	0.170118
H68	H	0.931008	0.267631	0.098369
H69	H	0.846888	0.219099	0.218574
H70	H	1.337569	0.158070	0.406786
O71	O	1.075838	0.139398	0.245822
C72	C	1.041503	0.110202	0.374549
H73	H	1.031823	0.063732	0.345260
H74	H	1.118811	0.111910	0.463303
H75	H	0.946113	0.131355	0.419177
O76	O	1.852850	-0.376158	0.000008
C77	C	1.954416	-0.420688	0.000046
H78	H	1.919177	-0.461184	-0.046923
H79	H	2.036209	-0.407936	-0.071975
H80	H	1.989993	-0.428951	0.119063
O81	O	0.935394	0.028798	-0.245722
C82	C	0.850005	0.066189	-0.331002
H83	H	0.864923	0.112305	-0.303671
H84	H	0.868964	0.057858	-0.454713
H85	H	0.747082	0.058641	-0.303583
O86	O	1.849565	-0.493191	-0.000204
C87	C	1.855624	-0.527942	-0.128664
H88	H	1.790122	-0.506467	-0.218478
H89	H	1.958453	-0.534181	-0.171773
H90	H	1.823198	-0.571279	-0.099617
O91	O	0.935699	0.028641	0.245668
C92	C	0.996240	-0.027898	0.245193
H93	H	1.086474	-0.030262	0.173587
H94	H	1.023293	-0.041439	0.364151
H95	H	0.927909	-0.057713	0.197458
H96	H	1.725387	-0.100152	0.000134
H97	H	1.288807	-0.623845	-0.000004
O98	O	1.740770	-0.213501	0.000159
C99	C	1.844427	-0.180098	0.000144
H100	H	1.811452	-0.135905	0.047112
H101	H	1.925288	-0.201670	0.072177
H102	H	1.880361	-0.175710	-0.118866
O103	O	1.688769	0.003649	0.601658
C104	C	1.687118	0.003776	0.758910
H105	H	1.588720	0.022830	0.799864
H106	H	1.707842	-0.041926	0.801695
H107	H	1.763453	0.030524	0.802329
O108	O	1.285236	-0.071673	-0.000123
C109	C	1.214143	-0.082337	-0.128643
H110	H	1.246040	-0.127265	-0.171469
H111	H	1.107710	-0.078594	-0.099774
H112	H	1.231191	-0.049774	-0.218607
O113	O	1.729252	-0.643132	-0.000037
C114	C	1.830823	-0.687660	0.000011
H115	H	1.795589	-0.728158	-0.046950
H116	H	1.912614	-0.674908	-0.072013
H117	H	1.866400	-0.695919	0.119029
H118	H	1.293247	0.062871	0.593516
H119	H	1.707843	-0.754503	0.000022
O120	O	1.075708	0.139519	-0.245748
C121	C	1.135887	0.187587	-0.202123
H122	H	1.175081	0.180899	-0.084081
H123	H	1.218052	0.193413	-0.281936
H124	H	1.063192	0.227317	-0.205075
O125	O	1.267416	-0.735200	-0.000063
C126	C	1.165844	-0.690672	-0.000024
H127	H	1.201083	-0.650171	-0.046978
H128	H	1.084061	-0.703419	-0.072058
H129	H	1.130255	-0.682420	0.118991
H130	H	1.549965	0.179291	0.593502
O131	O	1.158651	-0.455759	-0.000254
C132	C	1.150766	-0.489726	-0.128767
H133	H	1.251487	-0.504109	-0.171574
H134	H	1.100402	-0.528829	-0.099899
H135	H	1.094035	-0.463707	-0.218746
O136	O	1.161640	-0.338642	-0.000232
C137	C	1.090546	-0.349310	-0.128747
H138	H	1.122462	-0.394235	-0.171585
H139	H	0.984116	-0.345579	-0.099867
H140	H	1.107568	-0.316742	-0.218706
H141	H	1.300568	-0.185058	0.000101
H142	H	1.718153	0.105455	0.406816
