data_functionalizedCrystal
_audit_creation_method	'MofGen! by Chris Wilmer'
_symmetry_space_group_name_H-M	'P1'
_symmetry_Int_Tables_number	1
_symmetry_cell_setting	triclinic
loop_
_symmetry_equiv_pos_as_xyz
  x,y,z
_cell_length_a	14.044191
_cell_length_b	17.019294
_cell_length_c	12.503552
_cell_angle_alpha	89.645537
_cell_angle_beta	86.157523
_cell_angle_gamma	88.281862
loop_
_atom_site_label
_atom_site_type_symbol
_atom_site_fract_x
_atom_site_fract_y
_atom_site_fract_z
O1	O	1.263977	0.185215	-0.106396
O2	O	0.987978	0.178376	-0.105778
O3	O	1.133030	0.067997	-0.095556
O4	O	1.118925	0.295595	-0.116618
O5	O	1.122109	0.076305	0.082317
O6	O	0.977057	0.186685	0.072096
O7	O	1.253055	0.193523	0.071477
Cu8	Cu	1.114059	0.190863	0.088027
Cu9	Cu	1.126975	0.181037	-0.122328
O10	O	1.108004	0.303903	0.061255
C11	C	0.947190	0.179539	-0.016566
C12	C	0.841926	0.170615	-0.015746
C13	C	0.591842	0.217588	-0.020082
C14	C	0.649198	0.154315	-0.014228
C15	C	0.756442	0.163386	-0.015073
C16	C	0.484588	0.208517	-0.019238
C17	C	1.126819	0.042847	-0.003910
C18	C	1.124573	-0.044469	0.004163
C19	C	1.129472	-0.090015	-0.089002
C20	C	1.127355	-0.172057	-0.081413
C21	C	1.120345	-0.208553	0.019342
C22	C	1.115442	-0.163001	0.112514
C23	C	1.117552	-0.080960	0.104924
C24	C	1.113669	-0.456038	0.047109
C25	C	1.111562	-0.538086	0.054692
C26	C	1.123473	-0.547136	-0.139236
C27	C	1.125589	-0.465093	-0.146817
C28	C	1.120681	-0.419548	-0.053645
C29	C	1.118184	-0.292414	0.027101
C30	C	1.122835	-0.335689	-0.061406
C31	C	1.293843	0.192361	-0.017737
C32	C	1.399108	0.201284	-0.018564
C33	C	1.114215	0.329052	-0.030393
C34	C	1.116462	0.416368	-0.038473
N35	N	1.104982	0.197773	0.235980
N36	N	1.136059	0.174121	-0.270280
C37	C	1.149408	0.163952	0.511545
C38	C	1.091637	0.207940	0.454148
C39	C	1.099064	0.202282	0.332748
C40	C	1.141982	0.169609	0.632956
H41	H	1.131349	-0.209138	-0.157278
O42	O	0.629282	0.290363	-0.026639
C43	C	0.592845	0.335719	0.061665
H44	H	0.568050	0.295060	0.130105
H45	H	0.529935	0.374083	0.037195
C46	C	0.701972	0.438298	0.014669
C47	C	0.671526	0.388361	0.098731
H48	H	0.750504	0.470774	0.037531
H49	H	0.726519	0.407743	-0.044825
H50	H	0.649540	0.470261	-0.005715
H51	H	0.723955	0.356393	0.119105
H52	H	0.646990	0.418912	0.158231
O53	O	0.611546	0.081615	-0.007559
C54	C	0.511297	0.088621	-0.008181
H55	H	0.490523	0.146744	-0.047366
H56	H	0.478501	0.086900	0.077681
C57	C	0.499667	-0.051303	-0.023783
C58	C	0.474153	0.020082	-0.071920
H59	H	0.476753	-0.093583	-0.063096
H60	H	0.567207	-0.056024	-0.023360
H61	H	0.472335	-0.052726	0.047766
H62	H	0.501494	0.021508	-0.143463
H63	H	0.406616	0.024801	-0.072356
H64	H	1.135186	-0.060306	-0.171048
H65	H	1.131299	-0.435384	-0.228863
H66	H	1.204442	0.122047	0.469516
H67	H	1.127468	-0.584228	-0.215091
O68	O	1.104702	-0.573412	0.152656
C69	C	1.100844	-0.515622	0.233266
H70	H	1.074107	-0.457317	0.199327
H71	H	1.175219	-0.508415	0.262553
C72	C	1.065120	-0.612602	0.369289
C73	C	1.032273	-0.540993	0.327606
H74	H	1.022826	-0.628253	0.427485
H75	H	1.067722	-0.651537	0.314981
H76	H	1.127099	-0.606587	0.393687
H77	H	0.970301	-0.547011	0.303197
H78	H	1.029659	-0.502059	0.381912
O79	O	1.109049	-0.411719	0.137531
C80	C	1.191954	-0.367152	0.139238
H81	H	1.224779	-0.359846	0.054010
H82	H	1.245645	-0.398736	0.190216
C83	C	1.125327	-0.294648	0.292047
C84	C	1.165640	-0.285669	0.187367
H85	H	1.109098	-0.244387	0.321740
H86	H	1.069474	-0.324675	0.290901
H87	H	1.170076	-0.320971	0.334516
H88	H	1.120887	-0.259356	0.144898
H89	H	1.221485	-0.255635	0.188508
O90	O	1.108757	-0.198364	0.210450
C91	C	1.187690	-0.178718	0.267866
H92	H	1.218260	-0.121486	0.234880
H93	H	1.244769	-0.227720	0.258904
C94	C	1.117968	-0.238668	0.427761
C95	C	1.155509	-0.168371	0.387253
H96	H	1.098120	-0.232288	0.501406
H97	H	1.064791	-0.251907	0.389079
H98	H	1.165540	-0.279496	0.420284
H99	H	1.107934	-0.127547	0.394719
H100	H	1.208678	-0.155125	0.425940
O101	O	1.112627	-0.036670	0.195390
C102	C	1.031475	0.014211	0.196482
H103	H	0.976889	-0.010891	0.143539
H104	H	1.053217	0.074460	0.164740
C105	C	1.054236	0.053144	0.377095
C106	C	0.987190	0.022310	0.312077
H107	H	1.026921	0.058143	0.448399
H108	H	1.108912	0.018867	0.376359
H109	H	1.072349	0.103349	0.350631
H110	H	0.969087	-0.027897	0.338534
H111	H	0.932510	0.056579	0.312820
O112	O	1.129504	-0.300152	-0.159220
C113	C	1.049034	-0.249844	-0.169710
H114	H	1.016839	-0.232577	-0.086757
H115	H	0.993721	-0.281500	-0.214835
C116	C	1.118888	-0.196663	-0.334153
C117	C	1.079350	-0.175449	-0.232268
H118	H	1.137586	-0.150773	-0.372746
H119	H	1.173101	-0.230557	-0.327089
H120	H	1.072787	-0.223044	-0.371743
H121	H	1.125455	-0.149077	-0.194675
H122	H	1.025145	-0.141548	-0.239328
O123	O	1.111216	-0.327829	0.124994
C124	C	1.026099	-0.301877	0.181859
H125	H	0.972824	-0.279766	0.122847
H126	H	1.042163	-0.252153	0.237992
C127	C	1.048824	-0.397725	0.320347
C128	C	0.983387	-0.370574	0.247866
H129	H	1.022478	-0.440098	0.361068
H130	H	1.106171	-0.415208	0.282039
H131	H	1.062205	-0.356281	0.367114
H132	H	0.970017	-0.412014	0.201093
H133	H	0.926037	-0.353099	0.286169
O134	O	1.026061	0.257926	0.504453
C135	C	1.033138	0.252515	0.616224
H136	H	1.107460	0.229129	0.633605
H137	H	0.977352	0.210831	0.652004
C138	C	0.924546	0.363225	0.645154
C139	C	1.015832	0.334509	0.666502
H140	H	0.913867	0.413802	0.676170
H141	H	0.919775	0.366869	0.569852
H142	H	0.878068	0.328481	0.674972
H143	H	1.062309	0.369247	0.636673
H144	H	1.020611	0.330872	0.741800
