data_functionalizedCrystal
_audit_creation_method	'MofGen! by Chris Wilmer'
_symmetry_space_group_name_H-M	'P1'
_symmetry_Int_Tables_number	1
_symmetry_cell_setting	triclinic
loop_
_symmetry_equiv_pos_as_xyz
  x,y,z
_cell_length_a	15.944551
_cell_length_b	14.519709
_cell_length_c	13.596369
_cell_angle_alpha	90.012081
_cell_angle_beta	90.005711
_cell_angle_gamma	96.410558
loop_
_atom_site_label
_atom_site_type_symbol
_atom_site_fract_x
_atom_site_fract_y
_atom_site_fract_z
O1	O	0.110109	-1.223660	0.081665
O2	O	0.123076	-0.955161	0.081696
O3	O	-0.005672	-1.096742	0.081671
O4	O	0.238857	-1.082078	0.081690
O5	O	-0.005679	-1.096760	-0.081912
O6	O	0.123069	-0.955178	-0.081887
O7	O	0.110102	-1.223678	-0.081917
Zn8	Zn	0.116584	-1.089431	-0.107875
Zn9	Zn	0.116593	-1.089408	0.107653
O10	O	0.238850	-1.082096	-0.081893
C11	C	-0.036970	-1.096142	-0.000121
C12	C	-0.130219	-1.094317	-0.000121
C13	C	0.122468	-0.920811	-0.000092
C14	C	0.120657	-0.818432	-0.000081
C15	C	0.110710	-1.258028	-0.000128
C16	C	0.112521	-1.360406	-0.000132
C17	C	-0.345209	-1.002196	-0.000097
C18	C	-0.406168	-1.044983	-0.080758
C19	C	-0.300950	-1.091016	-0.000113
C20	C	-0.406144	-1.044986	0.080522
C21	C	-0.465867	-1.087820	-0.000101
C22	C	-0.360680	-1.133827	-0.080841
C23	C	-0.360650	-1.133818	0.080512
C24	C	-0.421591	-1.176669	-0.000169
C25	C	-0.205945	-1.092854	-0.000121
C26	C	-0.560871	-1.085988	-0.000100
C27	C	0.270148	-1.082696	-0.000099
C28	C	0.363397	-1.084521	-0.000092
N29	N	0.116577	-1.089453	-0.254966
C30	C	0.113990	-0.443548	-0.000126
C31	C	0.115842	-0.547853	-0.000113
C32	C	0.117323	-0.630987	-0.000102
C33	C	0.119175	-0.735298	-0.000091
N34	N	0.116594	-1.089392	0.254745
C35	C	0.116594	-1.089396	0.343743
C36	C	0.116592	-1.089409	0.455394
C37	C	0.116587	-1.089425	0.544385
C38	C	0.116583	-1.089437	0.656043
H39	H	-0.312009	-0.928471	-0.000169
N40	N	-0.463064	-1.269232	-0.000210
N41	N	-0.450412	-1.323305	0.068379
H42	H	-0.479704	-1.388676	0.068349
N43	N	-0.335330	-1.180892	0.166059
N44	N	-0.349647	-1.150611	0.249748
H45	H	-0.331764	-1.183851	0.310174
N46	N	-0.431475	-0.997884	-0.166302
N47	N	-0.416025	-1.027337	-0.250015
H48	H	-0.433895	-0.994070	-0.310428
N49	N	-0.335560	-1.180932	-0.166486
N50	N	-0.363755	-1.263594	-0.181271
H51	H	-0.346013	-1.296859	-0.241759
N52	N	-0.431409	-0.997820	0.166057
N53	N	-0.403756	-0.914929	0.180414
H54	H	-0.421597	-0.881611	0.240818
