data_functionalizedCrystal
_audit_creation_method	'MofGen! by Chris Wilmer'
_symmetry_space_group_name_H-M	'P1'
_symmetry_Int_Tables_number	1
_symmetry_cell_setting	triclinic
loop_
_symmetry_equiv_pos_as_xyz
  x,y,z
_cell_length_a	20.016444
_cell_length_b	23.196402
_cell_length_c	23.196401
_cell_angle_alpha	60.008520
_cell_angle_beta	90.015070
_cell_angle_gamma	59.998519
loop_
_atom_site_label
_atom_site_type_symbol
_atom_site_fract_x
_atom_site_fract_y
_atom_site_fract_z
Zr1	Zr	0.643571	0.631002	-0.075614
O2	O	0.536866	0.751276	-0.167668
O3	O	0.676284	0.510731	-0.047396
O4	O	0.676248	0.631002	-0.167664
O5	O	0.536928	0.631003	0.047472
O6	O	0.786192	0.630999	-0.167660
O7	O	0.536902	0.631004	-0.047400
O8	O	0.786257	0.415855	0.047478
O9	O	0.536864	0.846146	-0.167666
O10	O	0.772283	0.560196	-0.035356
O11	O	0.690253	0.560198	0.035442
O12	O	0.690210	0.701801	-0.106158
O13	O	0.608179	0.701803	-0.035360
Zr14	Zr	0.818962	0.630994	0.075702
Zr15	Zr	0.818920	0.630996	-0.075607
Zr16	Zr	0.643613	0.630999	0.075695
Zr17	Zr	0.643567	0.782309	-0.075611
Zr18	Zr	0.818965	0.479686	0.075699
O19	O	0.786249	0.751265	0.047485
O20	O	0.786189	0.751268	-0.167657
O21	O	0.536926	0.751272	0.047474
O22	O	0.925667	0.510720	0.167756
O23	O	0.925607	0.510723	-0.047386
O24	O	0.676343	0.510727	0.167745
O25	O	0.925604	0.630993	-0.047383
O26	O	0.786285	0.630993	0.167753
O27	O	0.676341	0.630997	0.167748
O28	O	0.925630	0.630991	0.047488
O29	O	0.676242	0.846142	-0.167660
O30	O	0.786290	0.415853	0.167748
O31	O	0.925669	0.415849	0.167754
O32	O	0.925636	0.415851	0.047484
O33	O	0.536897	0.846144	-0.047395
O34	O	0.676276	0.846140	-0.047389
O35	O	0.772323	0.560194	0.106247
O36	O	0.854353	0.560193	0.035449
O37	O	0.772280	0.701798	-0.035353
O38	O	0.690249	0.701799	0.035445
C39	C	0.731271	0.441735	0.000040
C40	C	0.731272	0.377501	0.000039
C41	C	0.774087	-0.085343	-0.036899
C42	C	0.774085	-0.024984	-0.036906
C43	C	0.731267	0.005199	0.000050
C44	C	0.688431	-0.024968	0.037001
C45	C	0.688427	-0.085320	0.037000
C46	C	0.737404	0.067225	0.061956
C47	C	0.737413	0.127572	0.061958
C48	C	0.731273	0.191347	0.000051
C49	C	0.725140	0.194759	-0.061859
C50	C	0.725137	0.134407	-0.061859
C51	C	0.731266	0.070640	0.000055
C52	C	0.774100	0.286958	-0.036908
C53	C	0.774092	0.347321	-0.036917
C54	C	0.688443	0.347331	0.036997
C55	C	0.688445	0.286974	0.036998
C56	C	0.731278	0.256788	0.000047
C57	C	0.511932	0.631004	0.000035
C58	C	0.437492	0.631007	0.000032
C59	C	0.266221	0.630998	-0.052223
C60	C	0.196281	0.630993	-0.052219
C61	C	0.196317	0.630995	0.052317
C62	C	0.266260	0.630994	0.052314
C63	C	0.301207	0.631000	0.000040
C64	C	0.161325	0.630995	0.000048
C65	C	0.085493	0.630990	0.000053
C66	C	0.377045	0.631004	0.000035
C67	C	0.950601	0.630991	0.000053
C68	C	1.025041	0.630989	0.000057
C69	C	0.731214	0.631001	-0.189220
C70	C	0.731196	0.631002	-0.253455
C71	C	0.731262	0.820261	0.000048
C72	C	0.731260	0.884495	0.000049
C73	C	0.688359	0.704916	-0.320586
C74	C	0.688379	0.704917	-0.380941
C75	C	0.731226	0.631000	-0.374161
C76	C	0.774073	0.557076	-0.307018
C77	C	0.774058	0.557077	-0.246665
C78	C	0.725144	0.574370	-0.441480
C79	C	0.725153	0.574372	-0.501833
C80	C	0.731278	0.630993	-0.560309
C81	C	0.737377	0.687627	-0.558430
C82	C	0.737362	0.687628	-0.498077
C83	C	0.731248	0.630990	-0.439600
C84	C	0.688461	0.704914	-0.692886
C85	C	0.688488	0.704912	-0.753241
C86	C	0.774176	0.557068	-0.679316
C87	C	0.774155	0.557072	-0.618963
C88	C	0.731293	0.630998	-0.625753
C89	C	0.731319	0.630995	0.189309
C90	C	0.731337	0.630994	0.253543
C91	C	0.950605	0.441728	0.000049
C92	C	1.025047	0.377492	0.000051
C93	C	0.731323	0.441732	0.189305
C94	C	0.731343	0.377497	0.253538
C95	C	0.950658	0.441725	0.189314
C96	C	1.025117	0.377488	0.253550
C97	C	0.511875	0.820270	-0.189226
C98	C	0.437415	0.884508	-0.253462
C99	C	0.511927	0.820267	0.000039
C100	C	0.437486	0.884504	0.000037
C101	C	0.731209	0.820264	-0.189216
C102	C	0.731190	0.884499	-0.253450
C103	C	1.017166	0.347328	-0.036914
C104	C	1.087105	0.286979	-0.036926
C105	C	1.164924	0.256792	0.000031
C106	C	1.172804	0.286962	0.036997
C107	C	1.102865	0.347313	0.037005
C108	C	0.774191	0.347330	0.320668
C109	C	0.774206	0.286982	0.381028
C110	C	0.731377	0.256799	0.374256
C111	C	0.688523	0.286973	0.307118
C112	C	0.688504	0.347323	0.246760
C113	C	1.102911	0.347321	0.246761
C114	C	1.172880	0.286971	0.307112
C115	C	1.165054	0.256786	0.374252
C116	C	1.087252	0.286959	0.381040
C117	C	1.017285	0.347312	0.320690
C118	C	0.359622	0.914682	-0.246672
C119	C	0.289653	0.975050	-0.307023
C120	C	0.297479	1.005239	-0.374164
C121	C	0.375280	0.975062	-0.380952
C122	C	0.445248	0.914699	-0.320602
C123	C	0.445367	0.914674	0.036996
C124	C	0.375428	0.975039	0.036991
C125	C	0.297608	1.005229	0.000032
C126	C	0.289729	0.975056	-0.036931
C127	C	0.359667	0.914696	-0.036930
C128	C	0.774028	0.914662	-0.246655
C129	C	0.774026	0.975010	-0.307003
C130	C	0.731180	1.005197	-0.374145
C131	C	0.688341	0.975027	-0.380939
C132	C	0.688349	0.914677	-0.320591
H133	H	0.720142	0.137190	-0.112268
Br134	Br	0.313752	0.630988	0.123253
Br135	Br	0.832197	-0.126289	-0.087064
H136	H	0.953944	0.371866	0.326228
H137	H	0.167798	0.630990	-0.094776
H138	H	0.381643	0.999649	-0.435625
H139	H	0.240667	1.054378	0.000038
H140	H	0.653652	0.262389	0.301615
H141	H	0.653614	0.371877	0.192102
H142	H	0.353234	0.890106	-0.192009
Br143	Br	1.278423	0.245982	0.087152
Br144	Br	1.076392	0.246045	-0.087096
H145	H	0.731399	0.207658	0.423409
Br146	Br	0.550970	0.873719	0.087158
H147	H	1.109294	0.371865	0.067110
H148	H	0.809068	0.371898	0.326196
Br149	Br	0.832371	0.246045	0.472134
Br150	Br	0.716864	0.497522	-0.504381
Br151	Br	0.313649	0.631003	-0.123165
Br152	Br	0.550822	0.873751	-0.329829
Br153	Br	1.113554	0.388277	0.155649
H154	H	1.236223	0.262410	0.301572
H155	H	0.731181	1.054339	-0.423278
Br156	Br	1.260019	0.174878	0.456150
H157	H	0.653551	-0.109877	0.067089
H158	H	0.653462	0.890124	-0.326134
H159	H	0.167855	0.630992	0.094876
Br160	Br	0.630168	0.805242	-0.329803
Br161	Br	1.076645	0.245985	0.472165
H162	H	0.226359	0.999645	-0.067022
H163	H	0.653494	0.765109	-0.435609
Br164	Br	0.832212	0.015959	-0.087053
H165	H	0.226310	0.999610	-0.301482
Br166	Br	0.745638	0.764483	-0.495527
Br167	Br	0.202513	1.087161	-0.456062
H168	H	0.742361	0.733736	-0.606044
H169	H	0.381859	0.999596	0.067094
Br170	Br	1.259833	0.174885	0.000013
Br171	Br	0.348956	0.873754	-0.087090
Br172	Br	0.832181	0.873708	-0.155541
Br173	Br	0.832165	1.015945	-0.297767
H174	H	0.653561	0.765108	-0.698416
Br175	Br	0.630353	0.805233	-0.844354
H176	H	0.742414	0.124783	0.112370
H177	H	0.653458	0.999615	-0.435614
H178	H	0.720139	0.246688	-0.112270
H179	H	0.808974	0.262382	-0.066998
H180	H	0.808963	0.371883	-0.067009
H181	H	0.653575	0.371909	0.067083
Br182	Br	0.630314	0.015998	0.087150
Br183	Br	0.832278	0.456754	-0.527851
Br184	Br	0.745730	-0.019321	0.145979
Br185	Br	0.630324	0.246033	0.087149
Br186	Br	0.716908	0.497469	-0.362098
H187	H	0.808961	0.496891	-0.301501
Br188	Br	0.832341	0.456750	-0.670107
H189	H	0.953808	0.371906	-0.067017
Br190	Br	0.832195	0.456756	-0.155552
