data_functionalizedCrystal
_audit_creation_method	'MofGen! by Chris Wilmer'
_symmetry_space_group_name_H-M	'P1'
_symmetry_Int_Tables_number	1
_symmetry_cell_setting	triclinic
loop_
_symmetry_equiv_pos_as_xyz
  x,y,z
_cell_length_a	29.839131
_cell_length_b	13.897449
_cell_length_c	13.897441
_cell_angle_alpha	90.022859
_cell_angle_beta	89.964857
_cell_angle_gamma	89.958747
loop_
_atom_site_label
_atom_site_type_symbol
_atom_site_fract_x
_atom_site_fract_y
_atom_site_fract_z
Zn1	Zn	-0.178841	-1.474544	-0.545405
Zn2	Zn	0.071159	-1.224544	-0.295405
Zn3	Zn	0.321159	-0.974544	-0.045405
Zn4	Zn	0.571159	-0.724544	0.204595
Zn5	Zn	-0.253976	-1.474371	-0.384094
Zn6	Zn	-0.003976	-1.224371	-0.134094
Zn7	Zn	0.246024	-0.974371	0.115906
Zn8	Zn	0.496024	-0.724371	0.365906
Zn9	Zn	-0.178860	-1.313233	-0.384118
Zn10	Zn	0.071140	-1.063233	-0.134118
Zn11	Zn	0.321140	-0.813233	0.115882
Zn12	Zn	0.571140	-0.563233	0.365882
Zn13	Zn	-0.253945	-1.313148	-0.545341
Zn14	Zn	-0.003945	-1.063148	-0.295341
Zn15	Zn	0.246055	-0.813148	-0.045341
Zn16	Zn	0.496055	-0.563148	0.204659
O17	O	-0.216405	-1.393824	-0.464739
O18	O	0.033595	-1.143824	-0.214739
O19	O	0.283595	-0.893824	0.035261
O20	O	0.533595	-0.643824	0.285261
O21	O	-0.188813	-1.609502	-0.524024
O22	O	0.061187	-1.359502	-0.274024
O23	O	0.311187	-1.109502	-0.024024
O24	O	0.561187	-0.859502	0.225976
O25	O	-0.244033	-1.452959	-0.249115
O26	O	0.005967	-1.202959	0.000885
O27	O	0.255967	-0.952959	0.250885
O28	O	0.505967	-0.702959	0.500885
O29	O	-0.115991	-1.334739	-0.405550
O30	O	0.134009	-1.084739	-0.155550
O31	O	0.384009	-0.834739	0.094450
O32	O	0.634009	-0.584739	0.344450
O33	O	-0.244014	-1.609375	-0.405509
O34	O	0.005986	-1.359375	-0.155509
O35	O	0.255986	-1.109375	0.094491
O36	O	0.505986	-0.859375	0.344491
O37	O	-0.115976	-1.453253	-0.524047
O38	O	0.134024	-1.203253	-0.274047
O39	O	0.384024	-0.953253	-0.024047
O40	O	0.634024	-0.703253	0.225953
O41	O	-0.188846	-1.334571	-0.249133
O42	O	0.061154	-1.084571	0.000867
O43	O	0.311154	-0.834571	0.250867
O44	O	0.561154	-0.584571	0.500867
O45	O	-0.188816	-1.178240	-0.405487
O46	O	0.061184	-0.928240	-0.155487
O47	O	0.311184	-0.678240	0.094513
O48	O	0.561184	-0.428240	0.344513
O49	O	-0.243961	-1.334594	-0.680331
O50	O	0.006039	-1.084594	-0.430331
O51	O	0.256039	-0.834594	-0.180331
O52	O	0.506039	-0.584594	0.069669
O53	O	-0.243979	-1.178177	-0.523937
O54	O	0.006021	-0.928177	-0.273937
O55	O	0.256021	-0.678177	-0.023937
O56	O	0.506021	-0.428177	0.226063
O57	O	-0.188782	-1.453171	-0.680378
O58	O	0.061218	-1.203171	-0.430378
O59	O	0.311218	-0.953171	-0.180378
O60	O	0.561218	-0.703171	0.069622
O61	O	-0.316839	-1.452876	-0.405447
O62	O	-0.066839	-1.202876	-0.155447
O63	O	0.183161	-0.952876	0.094553
O64	O	0.433161	-0.702876	0.344553
O65	O	-0.316816	-1.334426	-0.523914
O66	O	-0.066816	-1.084426	-0.273914
O67	O	0.183184	-0.834426	-0.023914
O68	O	0.433184	-0.584426	0.226086
C69	C	-0.216397	-1.143209	-0.464708
C70	C	0.033603	-0.893209	-0.214708
C71	C	0.283603	-0.643209	0.035292
C72	C	0.533603	-0.393209	0.285292
C73	C	-0.216404	-1.035995	-0.464718
C74	C	0.033596	-0.785995	-0.214718
C75	C	0.283596	-0.535995	0.035282
C76	C	0.533596	-0.285995	0.285282
C77	C	-0.216403	-0.839700	-0.464736
C78	C	0.033597	-0.589700	-0.214736
C79	C	0.283597	-0.339700	0.035264
C80	C	0.533597	-0.089700	0.285264
C81	C	-0.216402	-0.948933	-0.464723
C82	C	0.033598	-0.698933	-0.214723
C83	C	0.283598	-0.448933	0.035277
C84	C	0.533598	-0.198933	0.285277
C85	C	-0.333128	-1.393649	-0.464692
C86	C	-0.083128	-1.143649	-0.214692
C87	C	0.166872	-0.893649	0.035308
C88	C	0.416872	-0.643649	0.285308
C89	C	-0.383063	-1.393663	-0.464703
C90	C	-0.133063	-1.143663	-0.214703
C91	C	0.116937	-0.893663	0.035297
C92	C	0.366937	-0.643663	0.285297
C93	C	-0.692705	-1.455613	-0.403144
C94	C	-0.442705	-1.205613	-0.153144
C95	C	-0.192705	-0.955613	0.096856
C96	C	0.057295	-0.705613	0.346856
C97	C	-0.880378	-1.455732	-0.403181
C98	C	-0.630378	-1.205732	-0.153181
C99	C	-0.380378	-0.955732	0.096819
C100	C	-0.130378	-0.705732	0.346819
O101	O	-0.904643	-1.508265	-0.350804
O102	O	-0.654643	-1.258265	-0.100804
O103	O	-0.404643	-1.008265	0.149196
O104	O	-0.154643	-0.758265	0.399196
N105	N	-0.903847	-1.394024	-0.464812
N106	N	-0.653847	-1.144024	-0.214812
N107	N	-0.403847	-0.894024	0.035188
N108	N	-0.153847	-0.644024	0.285188
C109	C	-0.880396	-1.332286	-0.526443
C110	C	-0.630396	-1.082286	-0.276443
C111	C	-0.380396	-0.832286	-0.026443
C112	C	-0.130396	-0.582286	0.223557
O113	O	-0.904664	-1.279809	-0.578872
O114	O	-0.654664	-1.029809	-0.328872
O115	O	-0.404664	-0.779809	-0.078872
O116	O	-0.154664	-0.529809	0.171128
C117	C	-0.692723	-1.332172	-0.526409
C118	C	-0.442723	-1.082172	-0.276409
C119	C	-0.192723	-0.832172	-0.026409
C120	C	0.057277	-0.582172	0.223591
C121	C	-0.669257	-1.393878	-0.464767
C122	C	-0.419257	-1.143878	-0.214767
C123	C	-0.169257	-0.893878	0.035233
C124	C	0.080743	-0.643878	0.285233
C125	C	-0.669238	-1.517314	-0.341507
C126	C	-0.419238	-1.267314	-0.091507
C127	C	-0.169238	-1.017314	0.158493
C128	C	0.080762	-0.767314	0.408493
C129	C	-0.622323	-1.517280	-0.341495
C130	C	-0.372323	-1.267280	-0.091495
C131	C	-0.122323	-1.017280	0.158505
C132	C	0.127677	-0.767280	0.408505
C133	C	-0.598874	-1.455545	-0.403119
C134	C	-0.348874	-1.205545	-0.153119
C135	C	-0.098874	-0.955545	0.096881
C136	C	0.151126	-0.705545	0.346881
C137	C	-0.622341	-1.393844	-0.464755
C138	C	-0.372341	-1.143844	-0.214755
C139	C	-0.122341	-0.893844	0.035245
C140	C	0.127659	-0.643844	0.285245
C141	C	-0.669272	-1.270440	-0.588044
C142	C	-0.419272	-1.020440	-0.338044
C143	C	-0.169272	-0.770440	-0.088044
C144	C	0.080728	-0.520440	0.161956
C145	C	-0.622351	-1.270419	-0.588032
C146	C	-0.372351	-1.020419	-0.338032
C147	C	-0.122351	-0.770419	-0.088032
C148	C	0.127649	-0.520419	0.161968
C149	C	-0.598885	-1.332124	-0.526390
C150	C	-0.348885	-1.082124	-0.276390
C151	C	-0.098885	-0.832124	-0.026390
C152	C	0.151115	-0.582124	0.223610
C153	C	-0.551977	-1.332074	-0.526366
C154	C	-0.301977	-1.082074	-0.276366
C155	C	-0.051977	-0.832074	-0.026366
C156	C	0.198023	-0.582074	0.223634
N157	N	-0.528508	-1.393782	-0.464735
N158	N	-0.278508	-1.143782	-0.214735
N159	N	-0.028508	-0.893782	0.035265
N160	N	0.221492	-0.643782	0.285265
C161	C	-0.551956	-1.455518	-0.403111
C162	C	-0.301956	-1.205518	-0.153111
C163	C	-0.051956	-0.955518	0.096889
C164	C	0.198044	-0.705518	0.346889
C165	C	-0.978926	-1.332349	-0.526454
C166	C	-0.728926	-1.082349	-0.276454
C167	C	-0.478926	-0.832349	-0.026454
C168	C	-0.228926	-0.582349	0.223546
C169	C	-1.025844	-1.332375	-0.526462
C170	C	-0.775844	-1.082375	-0.276462
C171	C	-0.525844	-0.832375	-0.026462
C172	C	-0.275844	-0.582375	0.223538
C173	C	-1.025823	-1.455823	-0.403201
C174	C	-0.775823	-1.205823	-0.153201
C175	C	-0.525823	-0.955823	0.096799
C176	C	-0.275823	-0.705823	0.346799
C177	C	-0.978905	-1.455790	-0.403190
C178	C	-0.728905	-1.205790	-0.153190
C179	C	-0.478905	-0.955790	0.096810
C180	C	-0.228905	-0.705790	0.346810
C181	C	-0.955457	-1.394057	-0.464823
C182	C	-0.705457	-1.144057	-0.214823
C183	C	-0.455457	-0.894057	0.035177
C184	C	-0.205457	-0.644057	0.285177
C185	C	-0.453431	-1.455441	-0.403089
C186	C	-0.203431	-1.205441	-0.153089
C187	C	0.046569	-0.955441	0.096911
C188	C	0.296569	-0.705441	0.346911
C189	C	-0.406511	-1.455398	-0.403080
C190	C	-0.156511	-1.205398	-0.153080
C191	C	0.093489	-0.955398	0.096920
C192	C	0.343489	-0.705398	0.346920
C193	C	-0.406536	-1.331955	-0.526343
C194	C	-0.156536	-1.081955	-0.276343
C195	C	0.093464	-0.831955	-0.026343
C196	C	0.343464	-0.581955	0.223657
C197	C	-0.453451	-1.331993	-0.526350
C198	C	-0.203451	-1.081993	-0.276350
C199	C	0.046549	-0.831993	-0.026350
C200	C	0.296549	-0.581993	0.223650
C201	C	-0.476898	-1.393744	-0.464720
C202	C	-0.226898	-1.143744	-0.214720
C203	C	0.023102	-0.893744	0.035280
C204	C	0.273102	-0.643744	0.285280
O205	O	-0.527684	-1.279576	-0.578723
O206	O	-0.277684	-1.029576	-0.328723
O207	O	-0.027684	-0.779576	-0.078723
O208	O	0.222316	-0.529576	0.171277
O209	O	-0.527680	-1.508002	-0.350706
O210	O	-0.277680	-1.258002	-0.100706
O211	O	-0.027680	-1.008002	0.149294
O212	O	0.222320	-0.758002	0.399294
C213	C	-0.739621	-1.455647	-0.403156
C214	C	-0.489621	-1.205647	-0.153156
C215	C	-0.239621	-0.955647	0.096844
C216	C	0.010379	-0.705647	0.346844
C217	C	-0.763088	-1.393946	-0.464792
C218	C	-0.513088	-1.143946	-0.214792
C219	C	-0.263088	-0.893946	0.035208
C220	C	-0.013088	-0.643946	0.285208
C221	C	-0.739639	-1.332211	-0.526416
C222	C	-0.489639	-1.082211	-0.276416
C223	C	-0.239639	-0.832211	-0.026416
C224	C	0.010361	-0.582211	0.223584
C225	C	-0.810005	-1.393973	-0.464800
C226	C	-0.560005	-1.143973	-0.214800
C227	C	-0.310005	-0.893973	0.035200
C228	C	-0.060005	-0.643973	0.285200
C229	C	-0.833454	-1.455708	-0.403176
C230	C	-0.583454	-1.205708	-0.153176
C231	C	-0.333454	-0.955708	0.096824
C232	C	-0.083454	-0.705708	0.346824
C233	C	-0.809985	-1.517416	-0.341545
C234	C	-0.559985	-1.267416	-0.091545
C235	C	-0.309985	-1.017416	0.158455
C236	C	-0.059985	-0.767416	0.408455
C237	C	-0.763069	-1.517382	-0.341532
C238	C	-0.513069	-1.267382	-0.091532
C239	C	-0.263069	-1.017382	0.158468
C240	C	-0.013069	-0.767382	0.408468
C241	C	-0.763108	-1.270503	-0.588047
C242	C	-0.513108	-1.020503	-0.338047
C243	C	-0.263108	-0.770503	-0.088047
C244	C	-0.013108	-0.520503	0.161953
C245	C	-0.810024	-1.270541	-0.588054
C246	C	-0.560024	-1.020541	-0.338054
C247	C	-0.310024	-0.770541	-0.088054
C248	C	-0.060024	-0.520541	0.161946
C249	C	-0.833472	-1.332276	-0.526430
C250	C	-0.583472	-1.082276	-0.276430
C251	C	-0.333472	-0.832276	-0.026430
C252	C	-0.083472	-0.582276	0.223570
C253	C	-0.099227	-1.394025	-0.464809
C254	C	0.150773	-1.144025	-0.214809
C255	C	0.400773	-0.894025	0.035191
C256	C	0.650773	-0.644025	0.285191
C257	C	-0.049293	-1.394111	-0.464838
C258	C	0.200707	-1.144111	-0.214838
C259	C	0.450707	-0.894111	0.035162
C260	C	0.700707	-0.644111	0.285162
C261	C	-0.216366	-1.393892	-0.716333
C262	C	0.033634	-1.143892	-0.466333
C263	C	0.283634	-0.893892	-0.216333
C264	C	0.533634	-0.643892	0.033667
C265	C	-0.216349	-1.393921	-0.823547
C266	C	0.033651	-1.143921	-0.573547
C267	C	0.283651	-0.893921	-0.323547
C268	C	0.533651	-0.643921	-0.073547
C269	C	-0.216412	-0.645417	-0.464762
C270	C	0.033588	-0.395417	-0.214762
C271	C	0.283588	-0.145417	0.035238
C272	C	0.533588	0.104583	0.285238
C273	C	-0.216407	-0.752631	-0.464748
C274	C	0.033593	-0.502631	-0.214748
C275	C	0.283593	-0.252631	0.035252
C276	C	0.533593	-0.002631	0.285252
C277	C	-0.216318	-1.393948	-1.019842
C278	C	0.033682	-1.143948	-0.769842
C279	C	0.283682	-0.893948	-0.519842
C280	C	0.533682	-0.643948	-0.269842
C281	C	-0.216337	-1.393930	-0.910609
C282	C	0.033663	-1.143930	-0.660609
C283	C	0.283663	-0.893930	-0.410609
C284	C	0.533663	-0.643930	-0.160609
C285	C	-0.216413	-1.393811	-0.214125
C286	C	0.033587	-1.143811	0.035875
C287	C	0.283587	-0.893811	0.285875
C288	C	0.533587	-0.643811	0.535875
C289	C	-0.216303	-1.393969	-0.106912
C290	C	0.033697	-1.143969	0.143088
C291	C	0.283697	-0.893969	0.393088
C292	C	0.533697	-0.643969	0.643088
H293	H	-0.387406	-1.505646	-0.352880
H294	H	-0.137406	-1.255646	-0.102880
H295	H	0.112594	-1.005646	0.147120
H296	H	0.362594	-0.755646	0.397120
H297	H	-1.044947	-1.282120	-0.576648
H298	H	-0.794947	-1.032120	-0.326648
H299	H	-0.544947	-0.782120	-0.076648
H300	H	-0.294947	-0.532120	0.173352
H301	H	-0.959838	-1.282075	-0.576645
H302	H	-0.709838	-1.032075	-0.326645
H303	H	-0.459838	-0.782075	-0.076645
H304	H	-0.209838	-0.532075	0.173355
H305	H	-1.044923	-1.506090	-0.353025
H306	H	-0.794923	-1.256090	-0.103025
H307	H	-0.544923	-1.006090	0.146975
H308	H	-0.294923	-0.756090	0.396975
H309	H	-0.829085	-1.567680	-0.291366
H310	H	-0.579085	-1.317680	-0.041366
H311	H	-0.329085	-1.067680	0.208634
H312	H	-0.079085	-0.817680	0.458634
H313	H	-0.603219	-1.567528	-0.291304
H314	H	-0.353219	-1.317528	-0.041304
H315	H	-0.103219	-1.067528	0.208696
H316	H	0.146781	-0.817528	0.458696
H317	H	-0.472559	-1.281751	-0.576547
H318	H	-0.222559	-1.031751	-0.326547
H319	H	0.027441	-0.781751	-0.076547
H320	H	0.277441	-0.531751	0.173453
H321	H	-0.688371	-1.220189	-0.638235
H322	H	-0.438371	-0.970189	-0.388235
H323	H	-0.188371	-0.720189	-0.138235
H324	H	0.061629	-0.470189	0.111765
H325	H	-0.688325	-1.567591	-0.291326
H326	H	-0.438325	-1.317591	-0.041326
H327	H	-0.188325	-1.067591	0.208674
H328	H	0.061675	-0.817591	0.458674
H329	H	-0.387437	-1.281688	-0.576514
H330	H	-0.137437	-1.031688	-0.326514
H331	H	0.112563	-0.781688	-0.076514
H332	H	0.362563	-0.531688	0.173486
H333	H	-0.744020	-1.220232	-0.638230
H334	H	-0.494020	-0.970232	-0.388230
H335	H	-0.244020	-0.720232	-0.138230
H336	H	0.005980	-0.470232	0.111770
H337	H	-0.603262	-1.220149	-0.638225
H338	H	-0.353262	-0.970149	-0.388225
H339	H	-0.103262	-0.720149	-0.138225
H340	H	0.146738	-0.470149	0.111775
H341	H	-0.743966	-1.567628	-0.291338
H342	H	-0.493966	-1.317628	-0.041338
H343	H	-0.243966	-1.067628	0.208662
H344	H	0.006034	-0.817628	0.458662
H345	H	-0.829126	-1.220285	-0.638249
H346	H	-0.579126	-0.970285	-0.388249
H347	H	-0.329126	-0.720285	-0.138249
H348	H	-0.079126	-0.470285	0.111751
H349	H	-0.472515	-1.505726	-0.352906
H350	H	-0.222515	-1.255726	-0.102906
H351	H	0.027485	-1.005726	0.147094
H352	H	0.277485	-0.755726	0.397094
H353	H	-0.959801	-1.506036	-0.352996
H354	H	-0.709801	-1.256036	-0.102996
H355	H	-0.459801	-1.006036	0.147004
H356	H	-0.209801	-0.756036	0.397004
