data_functionalizedCrystal
_audit_creation_method	'MofGen! by Chris Wilmer'
_symmetry_space_group_name_H-M	'P1'
_symmetry_Int_Tables_number	1
_symmetry_cell_setting	triclinic
loop_
_symmetry_equiv_pos_as_xyz
  x,y,z
_cell_length_a	17.077404
_cell_length_b	16.625546
_cell_length_c	17.077396
_cell_angle_alpha	90.031819
_cell_angle_beta	90.017060
_cell_angle_gamma	90.022693
loop_
_atom_site_label
_atom_site_type_symbol
_atom_site_fract_x
_atom_site_fract_y
_atom_site_fract_z
Zn1	Zn	1.200038	-0.320984	0.443833
Zn2	Zn	1.700038	0.179016	0.943833
Zn3	Zn	1.199952	-0.455830	0.312563
Zn4	Zn	1.699952	0.044170	0.812563
Zn5	Zn	1.068775	-0.321016	0.312581
Zn6	Zn	1.568775	0.178984	0.812581
Zn7	Zn	1.068739	-0.455779	0.443787
Zn8	Zn	1.568739	0.044221	0.943787
O9	O	1.134376	-0.388402	0.378191
O10	O	1.634376	0.111598	0.878191
O11	O	1.309873	-0.338880	0.426432
O12	O	1.809873	0.161120	0.926432
O13	O	1.182530	-0.437982	0.202719
O14	O	1.682530	0.062018	0.702719
O15	O	1.086239	-0.208179	0.330019
O16	O	1.586239	0.291821	0.830019
O17	O	1.309810	-0.437951	0.329988
O18	O	1.809810	0.062049	0.829988
O19	O	1.182677	-0.208156	0.426449
O20	O	1.682677	0.291844	0.926449
O21	O	1.086155	-0.338935	0.202732
O22	O	1.586155	0.161065	0.702732
O23	O	0.958924	-0.338884	0.329974
O24	O	1.458924	0.161116	0.829974
O25	O	1.086177	-0.437863	0.553640
O26	O	1.586177	0.062137	1.053640
O27	O	0.958897	-0.437894	0.426370
O28	O	1.458897	0.062106	0.926370
O29	O	1.182642	-0.338830	0.553674
O30	O	1.682642	0.161170	1.053674
O31	O	1.182494	-0.568656	0.329943
O32	O	1.682494	-0.068656	0.829943
O33	O	1.086093	-0.568618	0.426353
O34	O	1.586093	-0.068618	0.926353
C35	C	0.930428	-0.388388	0.378169
C36	C	1.430428	0.111612	0.878169
C37	C	0.843178	-0.388401	0.378179
C38	C	1.343178	0.111599	0.878179
C39	C	0.802195	-0.440033	0.428292
C40	C	1.302195	0.059967	0.928292
C41	C	0.720214	-0.440035	0.428304
C42	C	1.220214	0.059965	0.928304
C43	C	0.679219	-0.388408	0.378199
C44	C	1.179219	0.111592	0.878199
C45	C	0.720208	-0.336770	0.328084
C46	C	1.220208	0.163230	0.828084
C47	C	0.802187	-0.336765	0.328076
C48	C	1.302187	0.163235	0.828076
C49	C	0.549338	-0.336786	0.328103
C50	C	1.049338	0.163214	0.828103
C51	C	0.467354	-0.336792	0.328110
C52	C	0.967354	0.163208	0.828110
C53	C	0.467365	-0.440056	0.428331
C54	C	0.967365	0.059944	0.928331
C55	C	0.549344	-0.440051	0.428323
C56	C	1.049344	0.059949	0.928323
C57	C	0.590328	-0.388414	0.378207
C58	C	1.090328	0.111586	0.878207
C59	C	1.134302	-0.597893	0.378158
C60	C	1.634302	-0.097893	0.878158
C61	C	1.134342	-0.687514	0.378170
C62	C	1.634342	-0.187514	0.878170
C63	C	1.134479	-1.015690	0.378252
C64	C	1.634479	-0.515690	0.878252
C65	C	1.134438	-0.924381	0.378232
C66	C	1.634438	-0.424381	0.878232
C67	C	1.134410	-0.851605	0.378211
C68	C	1.634410	-0.351605	0.878211
C69	C	1.134370	-0.760291	0.378191
C70	C	1.634370	-0.260291	0.878191
C71	C	1.339120	-0.388418	0.378213
C72	C	1.839120	0.111582	0.878213
C73	C	1.426370	-0.388424	0.378223
C74	C	1.926370	0.111576	0.878223
C75	C	1.134415	-0.388337	0.582936
C76	C	1.634415	0.111663	1.082936
C77	C	1.134431	-0.388309	0.670185
C78	C	1.634431	0.111691	1.170185
C79	C	1.134472	-0.178093	0.378241
C80	C	1.634472	0.321907	0.878241
C81	C	1.134513	-0.088472	0.378263
C82	C	1.634513	0.411528	0.878263
C83	C	1.134382	-0.388409	0.174243
C84	C	1.634382	0.111591	0.674243
C85	C	1.134518	-0.388210	0.086994
C86	C	1.634518	0.111790	0.586994
C87	C	1.184685	-0.439789	1.045996
C88	C	1.684685	0.060211	1.545996
C89	C	1.184665	-0.439813	0.964015
C90	C	1.684665	0.060187	1.464015
C91	C	1.134482	-0.388252	0.923034
C92	C	1.634482	0.111748	1.423034
C93	C	1.084310	-0.336671	0.964039
C94	C	1.584310	0.163329	1.464039
C95	C	1.084326	-0.336652	1.046018
C96	C	1.584326	0.163348	1.546018
C97	C	1.084280	-0.336712	0.793168
C98	C	1.584280	0.163288	1.293168
C99	C	1.084264	-0.336730	0.711184
C100	C	1.584264	0.163270	1.211184
C101	C	1.184619	-0.439873	0.711166
C102	C	1.684619	0.060127	1.211166
C103	C	1.184636	-0.439855	0.793145
C104	C	1.684636	0.060145	1.293145
C105	C	1.134464	-0.388272	0.834143
C106	C	1.634464	0.111728	1.334143
H107	H	0.686823	-0.294731	0.287291
H108	H	1.186823	0.205269	0.787291
H109	H	0.582705	-0.294730	0.287300
H110	H	1.082705	0.205270	0.787300
H111	H	1.225506	-0.481824	0.930638
H112	H	1.725506	0.018176	1.430638
C113	C	0.847269	-0.279968	0.272953
C114	C	1.347269	0.220032	0.772953
H115	H	0.811114	-0.249226	0.243109
H116	H	1.311114	0.250774	0.743109
H117	H	0.879271	-0.244875	0.303043
H118	H	1.379271	0.255125	0.803043
H119	H	0.879227	-0.310767	0.238690
H120	H	1.379227	0.189233	0.738690
H121	H	0.686849	-0.482080	0.469111
H122	H	1.186849	0.017920	0.969111
C123	C	1.029098	-0.279963	0.918966
C124	C	1.529098	0.220037	1.418966
H125	H	0.999215	-0.249249	0.955127
H126	H	1.499215	0.250751	1.455127
H127	H	1.059128	-0.244839	0.886996
H128	H	1.559128	0.255161	1.386996
H129	H	0.994875	-0.310824	0.886978
H130	H	1.494875	0.189176	1.386978
H131	H	1.043476	-0.294650	1.079397
H132	H	1.543476	0.205350	1.579397
C133	C	0.847286	-0.496827	0.483402
C134	C	1.347286	0.003173	0.983402
H135	H	0.901980	-0.489438	0.476215
H136	H	1.401980	0.010562	0.976215
H137	H	0.833878	-0.485100	0.536167
H138	H	1.333878	0.014900	1.036167
H139	H	0.833825	-0.550990	0.471810
H140	H	1.333825	-0.050990	0.971810
H141	H	1.225554	-0.481772	1.079356
H142	H	1.725554	0.018228	1.579356
C143	C	0.594438	-0.496838	0.483438
C144	C	1.094438	0.003162	0.983438
H145	H	0.558290	-0.527586	0.513292
H146	H	1.058290	-0.027586	1.013292
H147	H	0.626397	-0.531927	0.453346
H148	H	1.126397	-0.031927	0.953346
H149	H	0.626439	-0.466027	0.517692
H150	H	1.126439	0.033973	1.017692
C151	C	0.422287	-0.496851	0.483463
C152	C	0.922287	0.003149	0.983463
H153	H	0.367592	-0.489454	0.476300
H154	H	0.867592	0.010546	0.976300
H155	H	0.435698	-0.551010	0.471878
H156	H	0.935698	-0.051010	0.971878
H157	H	0.435750	-0.485113	0.536226
H158	H	0.935750	0.014887	1.036226
C159	C	1.239834	-0.496572	0.838222
C160	C	1.739834	0.003428	1.338222
H161	H	1.269706	-0.527302	0.802066
H162	H	1.769706	-0.027302	1.302066
H163	H	1.274056	-0.465727	0.870219
H164	H	1.774056	0.034273	1.370219
H165	H	1.209785	-0.531693	0.870185
H166	H	1.709785	-0.031693	1.370185
C167	C	1.239800	-0.496620	0.666071
C168	C	1.739800	0.003380	1.166071
H169	H	1.232598	-0.489256	0.611378
H170	H	1.732598	0.010744	1.111378
H171	H	1.292552	-0.484824	0.679512
H172	H	1.792552	0.015176	1.179512
H173	H	1.228282	-0.550793	0.679492
H174	H	1.728282	-0.050793	1.179492
H175	H	0.433977	-0.294743	0.287319
H176	H	0.933977	0.205257	0.787319
H177	H	1.043403	-0.294742	0.677820
H178	H	1.543403	0.205258	1.177820
H179	H	1.043425	-0.294708	0.826547
H180	H	1.543425	0.205292	1.326547
