data_functionalizedCrystal
_audit_creation_method	'MofGen! by Chris Wilmer'
_symmetry_space_group_name_H-M	'P1'
_symmetry_Int_Tables_number	1
_symmetry_cell_setting	triclinic
loop_
_symmetry_equiv_pos_as_xyz
  x,y,z
_cell_length_a	17.699083
_cell_length_b	9.730223
_cell_length_c	17.699083
_cell_angle_alpha	89.997786
_cell_angle_beta	96.716985
_cell_angle_gamma	89.994169
loop_
_atom_site_label
_atom_site_type_symbol
_atom_site_fract_x
_atom_site_fract_y
_atom_site_fract_z
O1	O	1.004071	0.114100	-0.095708
O2	O	0.783693	0.114145	-0.108160
O3	O	0.900109	0.114109	0.008255
O4	O	0.887656	0.114136	-0.212123
O5	O	0.900107	-0.114471	0.008252
O6	O	0.783692	-0.114435	-0.108163
O7	O	1.004070	-0.114480	-0.095711
Zn8	Zn	0.893881	-0.150749	-0.101938
Zn9	Zn	0.893882	0.150415	-0.101934
O10	O	0.887655	-0.114444	-0.212126
C11	C	0.755495	-0.000139	-0.107716
C12	C	0.671477	-0.000122	-0.106377
N13	N	0.893885	-0.356286	-0.101940
C14	C	0.622856	-0.000114	-0.174710
C15	C	0.543913	-0.000132	-0.173448
C16	C	0.513592	-0.000148	-0.103852
C17	C	0.562219	-0.000160	-0.035513
C18	C	0.641161	-0.000152	-0.036776
C19	C	0.243856	-0.000195	-0.030418
C20	C	0.164908	-0.000199	-0.029160
C21	C	0.146608	-0.000175	-0.167090
C22	C	0.225550	-0.000167	-0.168353
C23	C	0.274170	-0.000186	-0.100015
C24	C	0.359769	-0.000169	-0.101384
C25	C	0.427995	-0.000155	-0.102481
C26	C	0.945447	-0.428228	-0.050408
C27	C	0.945445	-0.572111	-0.050399
C28	C	0.842317	-0.572097	-0.153459
C29	C	0.842316	-0.428217	-0.153464
C30	C	0.997016	-0.356297	0.001116
C31	C	1.048583	-0.428239	0.052652
C32	C	1.048581	-0.572122	0.052661
C33	C	0.997012	-0.644063	0.001135
C34	C	1.032268	-0.000193	-0.096156
C35	C	1.116286	-0.000201	-0.097494
C36	C	0.899662	-0.000181	0.036451
C37	C	0.898323	-0.000181	0.120469
N38	N	0.893884	0.355951	-0.101926
C39	C	0.888102	-0.000151	-0.240322
C40	C	0.889440	-0.000142	-0.324340
C41	C	0.966656	-0.000197	0.169090
C42	C	0.965394	-0.000185	0.248033
C43	C	0.895798	-0.000166	0.278354
C44	C	0.827459	-0.000146	0.229727
C45	C	0.828722	-0.000149	0.150785
C46	C	0.822364	-0.000134	0.548090
C47	C	0.821106	-0.000135	0.627038
C48	C	0.959036	-0.000170	0.645338
C49	C	0.960299	-0.000173	0.566396
C50	C	0.891961	-0.000145	0.517776
C51	C	0.893330	-0.000156	0.432177
C52	C	0.894427	-0.000165	0.363951
H53	H	0.647537	-0.000100	-0.231384
C54	C	0.785600	-0.651227	-0.210140
C55	C	0.785700	-0.809489	-0.210237
C56	C	0.728984	-0.888616	-0.266922
C57	C	0.672168	-0.809481	-0.323509
C58	C	0.672066	-0.651209	-0.323414
C59	C	0.728782	-0.572082	-0.266730
H60	H	0.827760	-0.868078	-0.168346
H61	H	0.729060	-1.005779	-0.266992
H62	H	0.630183	-0.868055	-0.365470
H63	H	0.630006	-0.592621	-0.365305
H64	H	0.728706	-0.454919	-0.266660
C65	C	1.105303	-0.349113	0.109330
C66	C	1.105316	-0.190850	0.109319
C67	C	1.162038	-0.111727	0.165999
C68	C	1.218747	-0.190868	0.222692
C69	C	1.218736	-0.349139	0.222705
C70	C	1.162014	-0.428262	0.166024
H71	H	1.063335	-0.132257	0.067350
H72	H	1.162046	0.005436	0.165989
H73	H	1.260736	-0.132297	0.264650
H74	H	1.260717	-0.407732	0.264674
H75	H	1.162007	-0.545425	0.166035
H76	H	0.766718	-0.000112	0.508512
H77	H	1.014680	-0.000185	0.684934
C78	C	0.750901	-0.000113	0.263077
C79	C	0.749507	-0.000110	0.349909
C80	C	0.672947	-0.000076	0.383257
C81	C	0.597781	-0.000046	0.329772
C82	C	0.599172	-0.000049	0.242935
C83	C	0.675732	-0.000083	0.209587
H84	H	0.805152	-0.000132	0.389506
H85	H	0.671918	-0.000074	0.447540
H86	H	0.541107	-0.000021	0.354458
H87	H	0.543527	-0.000027	0.203338
H88	H	0.676761	-0.000085	0.145304
H89	H	0.504328	-0.000124	-0.229092
H90	H	0.250232	-0.000147	-0.225025
C91	C	1.040562	-0.000203	0.301516
C92	C	1.117117	-0.000232	0.268166
C93	C	1.192289	-0.000245	0.321649
C94	C	1.190906	-0.000228	0.408483
C95	C	1.114348	-0.000198	0.441838
C96	C	1.039177	-0.000186	0.388354
H97	H	1.118143	-0.000245	0.203882
H98	H	1.248962	-0.000267	0.296957
H99	H	1.246552	-0.000238	0.448075
H100	H	1.113322	-0.000186	0.506121
H101	H	0.982504	-0.000163	0.413046
H102	H	0.997010	-0.761222	0.001152
H103	H	0.107012	-0.000166	-0.222734
H104	H	0.140225	-0.000214	0.027517
H105	H	0.283434	-0.000212	0.025228
H106	H	0.764429	-0.000123	0.651721
H107	H	0.680748	-0.000158	0.018868
C108	C	0.528871	-0.000182	0.041046
C109	C	0.547271	0.118502	0.097773
C110	C	0.513926	0.118483	0.174335
C111	C	0.462181	-0.000218	0.194169
C112	C	0.443778	-0.118910	0.137440
C113	C	0.477123	-0.118892	0.060878
H114	H	0.585578	0.206379	0.083092
H115	H	0.527549	0.206348	0.216329
H116	H	0.437496	-0.000231	0.250844
H117	H	0.405471	-0.206788	0.152121
H118	H	0.463500	-0.206756	0.018884
H119	H	0.773078	-0.000135	0.111198
H120	H	0.997024	-0.239140	0.001112
H121	H	0.800329	-0.369641	-0.195425
H122	H	1.023330	-0.000221	0.144409
H123	H	1.090563	-0.630696	0.094627
H124	H	1.016971	-0.000194	0.541714
