data_functionalizedCrystal
_audit_creation_method	'MofGen! by Chris Wilmer'
_symmetry_space_group_name_H-M	'P1'
_symmetry_Int_Tables_number	1
_symmetry_cell_setting	triclinic
loop_
_symmetry_equiv_pos_as_xyz
  x,y,z
_cell_length_a	19.377118
_cell_length_b	19.376997
_cell_length_c	18.878441
_cell_angle_alpha	68.963600
_cell_angle_beta	104.493437
_cell_angle_gamma	75.070681
loop_
_atom_site_label
_atom_site_type_symbol
_atom_site_fract_x
_atom_site_fract_y
_atom_site_fract_z
Zr1	Zr	0.846953	0.619992	0.283874
O2	O	0.763688	0.738151	0.179734
O3	O	0.851295	0.501831	0.289306
O4	O	0.881845	0.619995	0.179731
O5	O	0.733137	0.619986	0.405880
O6	O	0.999146	0.620000	0.209863
O7	O	0.733138	0.619987	0.289310
O8	O	0.944497	0.408626	0.405874
O9	O	0.787785	0.831360	0.209869
O10	O	0.966280	0.550437	0.346117
O11	O	0.878739	0.550432	0.410625
O12	O	0.914708	0.689555	0.281614
O13	O	0.827166	0.689551	0.346121
Zr14	Zr	1.034033	0.619998	0.517847
Zr15	Zr	1.034035	0.620000	0.331931
Zr16	Zr	0.846951	0.619990	0.469789
Zr17	Zr	0.885386	0.768649	0.331935
Zr18	Zr	0.995601	0.471341	0.469785
O19	O	1.029692	0.738159	0.512414
O20	O	1.029695	0.738162	0.248066
O21	O	0.763685	0.738148	0.444082
O22	O	1.117298	0.501839	0.621986
O23	O	1.117301	0.501842	0.357638
O24	O	0.851292	0.501828	0.553655
O25	O	1.147850	0.620004	0.395841
O26	O	0.999142	0.619995	0.621990
O27	O	0.881840	0.619990	0.591857
O28	O	1.147848	0.620003	0.512411
O29	O	0.936491	0.831366	0.248069
O30	O	0.944496	0.408624	0.553652
O31	O	1.093201	0.408630	0.591851
O32	O	1.093203	0.408632	0.444073
O33	O	0.787784	0.831358	0.357647
O34	O	0.936489	0.831364	0.395847
O35	O	0.966279	0.550435	0.520107
O36	O	1.053820	0.550439	0.455599
O37	O	1.002247	0.689558	0.391096
O38	O	0.914706	0.689553	0.455603
C39	C	0.892420	0.434048	0.340742
C40	C	0.876105	0.370940	0.320339
C41	C	0.801766	0.333334	0.227366
C42	C	0.817103	0.392628	0.246546
C43	C	0.919796	0.289942	0.374979
C44	C	0.904471	0.230637	0.355808
C45	C	0.845454	0.252340	0.282001
C46	C	0.948159	0.149644	0.410443
C47	C	0.932832	0.090345	0.391275
C48	C	0.873816	0.112040	0.317473
C49	C	0.830127	0.193042	0.262833
C50	C	1.007171	0.127942	0.484252
C51	C	1.050859	0.046948	0.538887
C52	C	1.035536	-0.012352	0.519717
C53	C	0.976521	0.009343	0.445915
C54	C	1.079225	-0.093354	0.574357
C55	C	1.063898	-0.152653	0.555189
C56	C	0.961194	-0.049956	0.426747
C57	C	0.706482	0.619986	0.340748
C58	C	0.627061	0.619982	0.320346
C59	C	0.365868	0.620000	0.574355
C60	C	0.291237	0.620003	0.555171
C61	C	0.291237	0.620005	0.426735
C62	C	0.365870	0.619998	0.445910
C63	C	0.403180	0.619996	0.519721
C64	C	0.403182	0.619994	0.391275
C65	C	0.477808	0.619991	0.410447
C66	C	0.515121	0.619992	0.484253
C67	C	0.477805	0.619993	0.538892
C68	C	0.365870	0.620001	0.317462
C69	C	0.403181	0.619997	0.262828
C70	C	0.477810	0.619988	0.282002
C71	C	0.515124	0.619989	0.355808
C72	C	0.515127	0.619987	0.227363
C73	C	0.589752	0.619984	0.246535
C74	C	0.589749	0.619986	0.374980
C75	C	1.174504	0.620005	0.460973
C76	C	1.253925	0.620008	0.481375
C77	C	0.940496	0.619998	0.168308
C78	C	0.940497	0.619999	0.089382
C79	C	0.988566	0.805942	0.460978
C80	C	1.004882	0.869051	0.481382
C81	C	1.005119	0.620002	0.068903
C82	C	1.005120	0.619996	-0.005254
C83	C	0.940496	0.619992	-0.058933
C84	C	0.875870	0.619986	-0.038449
C85	C	0.875871	0.619986	0.035709
C86	C	0.875870	0.619987	-0.193018
C87	C	0.875867	0.619988	-0.267182
C88	C	1.005119	0.619997	-0.233981
C89	C	1.005120	0.619997	-0.159823
C90	C	0.940493	0.619992	-0.139345
C91	C	0.940491	0.619992	0.633413
C92	C	0.940490	0.619992	0.712339
C93	C	1.126431	0.434058	0.400855
C94	C	1.189537	0.370952	0.400853
C95	C	0.892418	0.434046	0.573295
C96	C	0.876101	0.370936	0.631817
C97	C	1.126429	0.434055	0.633407
C98	C	1.189533	0.370949	0.712332
C99	C	0.754558	0.805935	0.168313
C100	C	0.691453	0.869041	0.089389
C101	C	0.754555	0.805932	0.400866
C102	C	0.691450	0.869038	0.400867
C103	C	0.988569	0.805945	0.228426
C104	C	1.004885	0.869054	0.169903
C105	C	1.173477	0.341316	0.343696
C106	C	1.232767	0.282030	0.343678
C107	C	1.308114	0.252377	0.400821
C108	C	1.324174	0.282019	0.457981
C109	C	1.264886	0.341308	0.457995
C110	C	0.914134	0.341301	0.716457
C111	C	0.898802	0.282011	0.771454
C112	C	0.845441	0.252354	0.741810
C113	C	0.807405	0.281995	0.657162
C114	C	0.822733	0.341288	0.602167
C115	C	1.264872	0.341316	0.715725
C116	C	1.324175	0.282029	0.789880
C117	C	1.308137	0.252372	0.860640
C118	C	1.232791	0.282011	0.857244
C119	C	1.173491	0.341301	0.783091
C120	C	0.616117	0.898682	0.085998
C121	C	0.556818	0.957987	0.011849
C122	C	0.572857	0.987647	-0.058910
C123	C	0.648202	0.958004	-0.055516
C124	C	0.707499	0.898704	0.018634
C125	C	0.707511	0.898680	0.458019
C126	C	0.648226	0.957983	0.458022
C127	C	0.572879	0.987638	0.400877
C128	C	0.556818	0.957993	0.343719
C129	C	0.616104	0.898695	0.343713
C130	C	1.058250	0.898692	0.199571
C131	C	1.073596	0.957983	0.144592
C132	C	1.035572	0.987638	0.059945
C133	C	0.982204	0.957993	0.030277
C134	C	0.966863	0.898700	0.085256
H135	H	1.099472	-0.218603	0.599679
Cl136	Cl	0.595933	0.861407	0.174940
Cl137	Cl	0.668351	0.995296	-0.144478
Cl138	Cl	1.382639	0.177840	0.400794
H139	H	1.112132	0.365459	0.297154
Cl140	Cl	0.802228	0.861416	0.529864
Cl141	Cl	0.412778	0.619986	0.667154
H142	H	0.661317	0.982110	0.504569
Cl143	Cl	0.462107	0.995237	0.007599
H144	H	1.127271	-0.111013	0.634454
H145	H	0.832967	0.204074	0.786600
H146	H	1.089216	0.874557	0.268492
H147	H	0.957584	0.365441	0.740609
H148	H	0.620131	0.619977	0.435088
Cl149	Cl	0.595898	0.861432	0.271862
H150	H	0.575885	0.619993	0.499860
H151	H	1.057741	0.619999	-0.021926
Cl152	Cl	1.418900	0.244730	0.529817
H153	H	1.219744	0.257856	0.914867
Cl154	Cl	0.774917	0.378532	0.495762
H155	H	0.508187	0.619984	0.599001
H156	H	0.495463	0.982147	0.297193
H157	H	1.385519	0.257903	0.792630
Cl158	Cl	1.285055	0.378591	0.626783
Cl159	Cl	0.802206	0.861443	0.022882
H160	H	0.823245	0.619979	-0.176347
H161	H	0.923406	0.874575	0.061088
H162	H	1.112148	0.365420	0.780338
H163	H	0.524566	1.035933	-0.119282
H164	H	1.048071	1.035918	0.015187
H165	H	0.524612	1.035921	0.400890
Cl166	Cl	0.244335	0.620011	0.623864
H167	H	1.277972	0.365431	0.504544
H168	H	1.117050	0.982113	0.168764
Cl169	Cl	0.244328	0.620009	0.333946
Cl170	Cl	0.934402	0.995290	-0.076139
H171	H	0.305103	0.620007	0.301855
Cl172	Cl	1.086364	0.620013	0.136376
Cl173	Cl	0.468212	0.620001	0.134571
H174	H	1.356430	0.204094	0.921015
H175	H	0.861336	0.063753	0.301870
Cl176	Cl	0.887010	-0.022676	0.333952
H177	H	0.372795	0.620001	0.202730
H178	H	0.782076	0.210716	0.202727
H179	H	0.929781	0.257884	0.840374
Cl180	Cl	0.740326	0.244701	0.619909
Cl181	Cl	0.636658	0.619983	0.177848
H182	H	0.781508	0.458580	0.202061
Cl183	Cl	0.993982	0.262668	0.467764
Cl184	Cl	0.727583	0.360614	0.134571
Cl185	Cl	1.026439	0.202491	0.508350
H186	H	1.057740	0.620006	-0.116119
Cl187	Cl	1.125045	0.019674	0.631672
H188	H	1.057740	0.620000	-0.250659
H189	H	0.823244	0.619983	-0.310885
H190	H	0.823250	0.619982	0.052382
Cl191	Cl	1.212560	0.244774	0.271817
Cl192	Cl	0.794628	0.619975	-0.105927
