data_functionalizedCrystal
_audit_creation_method	'MofGen! by Chris Wilmer'
_symmetry_space_group_name_H-M	'P1'
_symmetry_Int_Tables_number	1
_symmetry_cell_setting	triclinic
loop_
_symmetry_equiv_pos_as_xyz
  x,y,z
_cell_length_a	17.699097
_cell_length_b	10.654551
_cell_length_c	16.776229
_cell_angle_alpha	89.996205
_cell_angle_beta	89.989262
_cell_angle_gamma	83.886896
loop_
_atom_site_label
_atom_site_type_symbol
_atom_site_fract_x
_atom_site_fract_y
_atom_site_fract_z
O1	O	1.005083	0.158888	-0.066350
O2	O	0.784837	0.179532	-0.066336
O3	O	0.900023	-0.013617	-0.066343
O4	O	0.889896	0.352037	-0.066342
O5	O	0.900008	-0.013629	0.066233
O6	O	0.784821	0.179520	0.066241
O7	O	1.005067	0.158876	0.066227
Zn8	Zn	0.894942	0.169196	0.087283
Zn9	Zn	0.894962	0.169212	-0.087392
O10	O	0.889881	0.352026	0.066234
C11	C	0.756628	0.178783	-0.000046
C12	C	0.672596	0.176556	-0.000041
C13	C	0.899272	-0.060408	-0.000057
C14	C	0.897047	-0.199813	-0.000062
C15	C	0.156799	0.162908	-0.072341
C16	C	0.235757	0.164992	-0.072337
C17	C	0.275221	0.166030	-0.000066
C18	C	0.235724	0.164971	0.072205
C19	C	0.156769	0.162877	0.072201
C20	C	0.554142	0.173412	0.072226
C21	C	0.633103	0.175509	0.072226
C22	C	0.633130	0.175527	-0.072311
C23	C	0.554174	0.173433	-0.072316
C24	C	0.514685	0.172367	-0.000045
C25	C	0.429071	0.170105	-0.000050
C26	C	0.360833	0.168302	-0.000060
C27	C	0.896011	-0.265300	-0.072328
C28	C	0.893914	-0.396284	-0.072324
C29	C	0.893891	-0.396282	0.072218
C30	C	0.895983	-0.265300	0.072213
C31	C	0.897075	-0.199813	-0.144604
C32	C	0.896041	-0.265301	-0.216875
C33	C	0.893943	-0.396285	-0.216872
C34	C	0.892881	-0.461781	-0.144596
C35	C	1.033276	0.159625	-0.000065
C36	C	1.117308	0.161852	-0.000075
C37	C	0.890632	0.398816	-0.000054
C38	C	0.892858	0.538221	-0.000054
N39	N	0.894933	0.169185	0.206494
N40	N	0.894977	0.169213	-0.206603
C41	C	0.945954	0.083693	0.248208
C42	C	0.945958	0.083692	0.331660
C43	C	0.894945	0.169190	0.373397
C44	C	0.843919	0.254685	0.331678
C45	C	0.843912	0.254679	0.248227
C46	C	0.843947	0.254710	0.668225
C47	C	0.843959	0.254712	0.751681
C48	C	0.945993	0.083723	0.751658
C49	C	0.945986	0.083717	0.668207
C50	C	0.894957	0.169207	0.626495
C51	C	0.894952	0.169206	0.536007
C52	C	0.894953	0.169198	0.463884
H53	H	0.267907	0.165844	-0.131183
O54	O	1.000997	-0.008516	0.376642
H55	H	0.968833	-0.069508	0.414669
O56	O	0.511623	0.172301	-0.150273
H57	H	0.469358	0.256908	-0.153747
H58	H	0.893093	-0.449600	-0.275719
H59	H	0.987528	0.014101	0.634228
O60	O	0.890628	-0.603060	-0.144587
H61	H	0.890093	-0.637600	-0.206981
H62	H	0.987498	0.014077	0.214231
H63	H	0.987541	0.014108	0.785629
H64	H	0.522001	0.172525	0.131074
O65	O	0.675729	0.176644	-0.150262
H66	H	0.705416	0.263145	-0.153716
O67	O	0.278283	0.166098	0.150158
H68	H	0.339819	0.167748	0.138022
O69	O	0.788901	0.346914	0.376688
H70	H	0.751848	0.294137	0.414733
H71	H	0.124616	0.162031	0.131047
H72	H	0.665232	0.176354	0.131081
H73	H	0.802415	0.324337	0.785662
O74	O	0.899514	-0.058578	-0.144605
H75	H	0.900141	-0.024054	-0.207001
O76	O	0.897183	-0.194670	-0.294828
H77	H	0.898821	-0.092589	-0.282692
O78	O	0.892765	-0.466920	0.150169
H79	H	0.891148	-0.569005	0.138031
O80	O	0.788916	0.346921	0.623240
H81	H	0.799080	0.444799	0.639244
O82	O	0.897107	-0.194653	0.150154
H83	H	0.896029	-0.262196	0.200413
O84	O	0.788887	0.346893	0.203229
H85	H	0.753420	0.406355	0.246270
H86	H	0.124673	0.162072	-0.131192
