data_functionalizedCrystal
_audit_creation_method	'MofGen! by Chris Wilmer'
_symmetry_space_group_name_H-M	'P1'
_symmetry_Int_Tables_number	1
_symmetry_cell_setting	triclinic
loop_
_symmetry_equiv_pos_as_xyz
  x,y,z
_cell_length_a	21.295417
_cell_length_b	16.120490
_cell_length_c	16.120297
_cell_angle_alpha	89.870317
_cell_angle_beta	87.132998
_cell_angle_gamma	87.122615
loop_
_atom_site_label
_atom_site_type_symbol
_atom_site_fract_x
_atom_site_fract_y
_atom_site_fract_z
Zn1	Zn	-0.318966	1.247397	0.534493
Zn2	Zn	0.181034	1.747397	1.034493
Zn3	Zn	-0.419176	1.254333	0.395422
Zn4	Zn	0.080824	1.754333	0.895422
Zn5	Zn	-0.308324	1.115389	0.388416
Zn6	Zn	0.191676	1.615389	0.888416
Zn7	Zn	-0.418591	1.108288	0.527395
Zn8	Zn	0.081409	1.608288	1.027395
O9	O	-0.366264	1.181352	0.461432
O10	O	0.133736	1.681352	0.961432
O11	O	-0.336958	1.364683	0.521948
O12	O	0.163042	1.864683	1.021948
O13	O	-0.400263	1.241775	0.278128
O14	O	0.099737	1.741775	0.778128
O15	O	-0.221650	1.132969	0.407831
O16	O	0.278350	1.632969	0.907831
O17	O	-0.410582	1.369779	0.419773
O18	O	0.089418	1.869779	0.919773
O19	O	-0.229469	1.229955	0.515154
O20	O	0.270531	1.729955	1.015154
O21	O	-0.318820	1.139694	0.272980
O22	O	0.181180	1.639694	0.772980
O23	O	-0.318252	0.998081	0.400949
O24	O	0.181748	1.498081	0.900949
O25	O	-0.409584	1.120867	0.644702
O26	O	0.090416	1.620867	1.144702
O27	O	-0.399264	0.992864	0.503057
O28	O	0.100736	1.492864	1.003057
O29	O	-0.336391	1.223070	0.649917
O30	O	0.163609	1.723070	1.149917
O31	O	-0.507184	1.234890	0.412891
O32	O	-0.007184	1.734890	0.912891
O33	O	-0.506754	1.127592	0.509851
O34	O	-0.006754	1.627592	1.009851
C35	C	-0.357540	0.965300	0.450473
C36	C	0.142460	1.465300	0.950473
C37	C	-0.353824	0.872871	0.445804
C38	C	0.146176	1.372871	0.945804
C39	C	-0.385537	0.659904	0.485650
C40	C	0.114463	1.159904	0.985650
C41	C	-0.347045	0.703647	0.437279
C42	C	0.152955	1.203647	0.937279
C43	C	-0.350818	0.797812	0.442024
C44	C	0.149182	1.297812	0.942024
C45	C	-0.381764	0.565731	0.480906
C46	C	0.118236	1.065731	0.980906
C47	C	-0.529810	1.181245	0.461380
C48	C	-0.029810	1.681245	0.961380
C49	C	-0.599779	1.181274	0.461390
C50	C	-0.099779	1.681274	0.961390
C51	C	-0.632853	1.237189	0.410960
C52	C	-0.132853	1.737189	0.910960
C53	C	-0.698598	1.237227	0.410980
C54	C	-0.198598	1.737227	0.910980
C55	C	-0.731265	1.181336	0.461422
C56	C	-0.231265	1.681336	0.961422
C57	C	-0.698184	1.125417	0.511862
C58	C	-0.198184	1.625417	1.011862
C59	C	-0.632441	1.125386	0.511846
C60	C	-0.132441	1.625386	1.011846
N61	N	-0.831828	1.108270	0.464071
N62	N	-0.331828	1.608270	0.964071
N63	N	-0.894281	1.108302	0.464081
N64	N	-0.394281	1.608302	0.964081
C65	C	-0.929346	1.181426	0.461474
C66	C	-0.429346	1.681426	0.961474
N67	N	-0.899597	1.254520	0.458840
N68	N	-0.399597	1.754520	0.958840
N69	N	-0.837138	1.254488	0.458825
N70	N	-0.337138	1.754488	0.958825
C71	C	-0.802553	1.181363	0.461445
C72	C	-0.302553	1.681363	0.961445
C73	C	-1.033707	1.237387	0.411064
C74	C	-0.533707	1.737387	0.911064
C75	C	-1.099454	1.237426	0.411090
C76	C	-0.599454	1.737426	0.911090
C77	C	-1.099038	1.125609	0.511967
C78	C	-0.599038	1.625609	1.011967
C79	C	-1.033294	1.125577	0.511945
C80	C	-0.533294	1.625577	1.011945
C81	C	-1.000632	1.181465	0.461489
C82	C	-0.500632	1.681465	0.961489
C83	C	-0.202082	1.181481	0.461503
C84	C	0.297918	1.681481	0.961503
C85	C	-0.132117	1.181535	0.461533
C86	C	0.367883	1.681535	0.961533
C87	C	-0.374109	1.170403	0.678325
C88	C	0.125891	1.670403	1.178325
C89	C	-0.377452	1.165738	0.770752
C90	C	0.122548	1.665738	1.270752
C91	C	-0.375023	1.398247	0.472434
C92	C	0.124977	1.898247	0.972434
C93	C	-0.378755	1.490675	0.477122
C94	C	0.121245	1.990675	0.977122
C95	C	-0.358406	1.192305	0.245385
C96	C	0.141594	1.692305	0.745385
C97	C	-0.354893	1.197132	0.152966
C98	C	0.145107	1.697132	0.652966
C99	C	-0.383540	1.157189	0.939976
C100	C	0.116460	1.657189	1.439976
C101	C	-0.348806	1.205678	0.983747
C102	C	0.151194	1.705678	1.483747
C103	C	-0.352194	1.200922	1.077909
C104	C	0.147806	1.700922	1.577909
C105	C	-0.380154	1.161944	0.845806
C106	C	0.119846	1.661944	1.345806
H107	H	-0.311257	0.670377	0.392305
H108	H	0.188743	1.170377	0.892305
Br109	Br	-0.587552	1.049497	0.580294
Br110	Br	-0.087552	1.549497	1.080294
Br111	Br	-1.144342	1.313325	0.342652
Br112	Br	-0.644342	1.813325	0.842652
Br113	Br	-0.437344	1.082050	0.995383
Br114	Br	0.062656	1.582050	1.495383
H115	H	-0.725532	1.282762	0.369914
H116	H	-0.225532	1.782762	0.869914
Br117	Br	-0.295016	1.280844	0.928344
Br118	Br	0.204984	1.780844	1.428344
Br119	Br	-1.143366	1.049763	0.580434
Br120	Br	-0.643366	1.549763	1.080434
H121	H	-0.421322	0.693172	0.530620
H122	H	0.078678	1.193172	1.030620
Br123	Br	-0.742517	1.049570	0.580326
Br124	Br	-0.242517	1.549570	1.080326
Br125	Br	-0.989377	1.313230	0.342587
Br126	Br	-0.489377	1.813230	0.842587
Br127	Br	-0.988404	1.049687	0.580388
Br128	Br	-0.488404	1.549687	1.080388
Br129	Br	-0.588530	1.313047	0.342496
Br130	Br	-0.088530	1.813047	0.842496
