data_functionalizedCrystal
_audit_creation_method	'MofGen! by Chris Wilmer'
_symmetry_space_group_name_H-M	'P1'
_symmetry_Int_Tables_number	1
_symmetry_cell_setting	triclinic
loop_
_symmetry_equiv_pos_as_xyz
  x,y,z
_cell_length_a	17.077404
_cell_length_b	17.640280
_cell_length_c	17.077396
_cell_angle_alpha	78.774396
_cell_angle_beta	89.980499
_cell_angle_gamma	78.800538
loop_
_atom_site_label
_atom_site_type_symbol
_atom_site_fract_x
_atom_site_fract_y
_atom_site_fract_z
Zn1	Zn	1.263288	-0.314659	-0.380745
Zn2	Zn	1.763288	0.185341	0.119255
Zn3	Zn	1.289758	-0.446839	-0.222973
Zn4	Zn	1.789758	0.053161	0.277027
Zn5	Zn	1.132026	-0.314687	-0.249487
Zn6	Zn	1.632026	0.185313	0.250513
Zn7	Zn	1.158541	-0.446792	-0.354206
Zn8	Zn	1.658541	0.053208	0.145794
O9	O	1.210903	-0.380744	-0.301853
O10	O	1.710903	0.119256	0.198147
O11	O	1.376648	-0.332201	-0.359827
O12	O	1.876648	0.167799	0.140173
O13	O	1.268815	-0.429340	-0.116637
O14	O	1.768815	0.070660	0.383363
O15	O	1.127263	-0.204078	-0.289102
O16	O	1.627263	0.295922	0.210898
O17	O	1.396095	-0.429313	-0.243912
O18	O	1.896095	0.070687	0.256088
O19	O	1.223701	-0.204058	-0.385536
O20	O	1.723701	0.295942	0.114464
O21	O	1.152930	-0.332248	-0.136117
O22	O	1.652930	0.167752	0.363883
O23	O	1.025694	-0.332203	-0.263368
O24	O	1.525694	0.167797	0.236632
O25	O	1.172456	-0.429233	-0.467580
O26	O	1.672456	0.070767	0.032420
O27	O	1.045176	-0.429260	-0.340305
O28	O	1.545176	0.070740	0.159695
O29	O	1.249413	-0.332155	-0.487078
O30	O	1.749413	0.167845	0.012922
O31	O	1.294527	-0.557437	-0.218179
O32	O	1.794527	-0.057437	0.281821
O33	O	1.198122	-0.557403	-0.314595
O34	O	1.698122	-0.057403	0.185405
C35	C	1.006953	-0.380730	-0.301834
C36	C	1.506953	0.119270	0.198166
C37	C	0.919705	-0.380743	-0.301841
C38	C	1.419705	0.119257	0.198159
C39	C	1.252095	-0.586099	-0.260647
C40	C	1.752095	-0.086099	0.239353
C41	C	1.269789	-0.673950	-0.243045
C42	C	1.769789	-0.173950	0.256955
C43	C	0.888895	-0.431357	-0.341806
C44	C	1.388895	0.068643	0.158194
C45	C	0.806915	-0.431359	-0.341818
C46	C	1.306915	0.068641	0.158182
C47	C	0.755747	-0.380750	-0.301860
C48	C	1.255747	0.119250	0.198140
C49	C	0.786562	-0.330130	-0.261894
C50	C	1.286562	0.169870	0.238106
C51	C	0.868540	-0.330125	-0.261887
C52	C	1.368540	0.169875	0.238113
C53	C	0.615696	-0.330146	-0.261910
C54	C	1.115696	0.169854	0.238090
C55	C	0.533712	-0.330151	-0.261915
C56	C	1.033712	0.169849	0.238085
C57	C	0.554070	-0.431379	-0.341841
C58	C	1.054070	0.068621	0.158159
C59	C	0.636048	-0.431374	-0.341834
C60	C	1.136048	0.068626	0.158166
C61	C	0.666858	-0.380755	-0.301866
C62	C	1.166858	0.119245	0.198134
C63	C	1.076806	-0.962931	-0.435857
C64	C	1.576806	-0.462931	0.064143
C65	C	1.093434	-1.045481	-0.419293
C66	C	1.593434	-0.545481	0.080707
C67	C	1.193882	-1.045451	-0.318996
C68	C	1.693882	-0.545451	0.181004
C69	C	1.177265	-0.962900	-0.335555
C70	C	1.677265	-0.462900	0.164445
C71	C	1.118726	-0.921646	-0.393986
C72	C	1.618726	-0.421646	0.106014
C73	C	1.219185	-0.921615	-0.293683
C74	C	1.719185	-0.421615	0.206317
C75	C	1.202567	-0.839070	-0.310238
C76	C	1.702567	-0.339070	0.189762
C77	C	1.144029	-0.797811	-0.368665
C78	C	1.644029	-0.297811	0.131335
C79	C	1.102108	-0.839101	-0.410541
C80	C	1.602108	-0.339101	0.089459
C81	C	1.277721	-0.962870	-0.235249
C82	C	1.777721	-0.462870	0.264751
C83	C	1.319640	-0.921585	-0.193377
C84	C	1.819640	-0.421585	0.306623
C85	C	1.303026	-0.839039	-0.209936
C86	C	1.803026	-0.339039	0.290064
C87	C	1.244488	-0.797780	-0.268362
C88	C	1.744488	-0.297780	0.231638
C89	C	1.344947	-0.797748	-0.168060
C90	C	1.844947	-0.297748	0.331940
C91	C	1.328329	-0.715204	-0.184615
C92	C	1.828329	-0.215204	0.315385
C93	C	1.227870	-0.715235	-0.284917
C94	C	1.727870	-0.215235	0.215083
C95	C	1.415651	-0.380759	-0.301872
C96	C	1.915651	0.119241	0.198128
C97	C	1.502902	-0.380765	-0.301880
C98	C	2.002902	0.119235	0.198120
C99	C	1.210939	-0.380686	-0.506609
C100	C	1.710939	0.119314	-0.006609
C101	C	1.210954	-0.380661	-0.593864
C102	C	1.710954	0.119339	-0.093864
C103	C	1.169572	-0.174588	-0.343237
C104	C	1.669572	0.325412	0.156763
C105	C	1.151959	-0.086736	-0.360872
C106	C	1.651959	0.413264	0.139128
C107	C	1.251027	-0.330109	-0.645009
C108	C	1.751027	0.169891	-0.145009
C109	C	1.251031	-0.330082	-0.726995
C110	C	1.751031	0.169918	-0.226995
C111	C	1.210967	-0.380613	-0.757833
C112	C	1.710967	0.119387	-0.257833
C113	C	1.170889	-0.431168	-0.706682
C114	C	1.670889	0.068832	-0.206682
C115	C	1.170881	-0.431190	-0.624699
C116	C	1.670881	0.068810	-0.124699
C117	C	1.170911	-0.431120	-0.877562
C118	C	1.670911	0.068880	-0.377562
C119	C	1.170921	-0.431100	-0.959550
C120	C	1.670921	0.068900	-0.459550
C121	C	1.251062	-0.330013	-0.979858
C122	C	1.751062	0.169987	-0.479858
C123	C	1.251053	-0.330035	-0.897874
C124	C	1.751053	0.169965	-0.397874
C125	C	1.210977	-0.380591	-0.846729
C126	C	1.710977	0.119409	-0.346729
C127	C	1.210901	-0.380745	-0.097905
C128	C	1.710901	0.119255	0.402095
C129	C	1.210993	-0.380547	-0.010695
C130	C	1.710993	0.119453	0.489305
H131	H	0.930551	-0.472571	-0.374341
H132	H	1.430551	0.027429	0.125659
H133	H	1.362464	-0.681589	-0.150517
H134	H	1.862464	-0.181589	0.349483
F135	F	1.293699	-0.276259	-0.865055
F136	F	1.793699	0.223741	-0.365055
H137	H	1.138265	-0.472308	-0.731798
H138	H	1.638265	0.027692	-0.231798
F139	F	1.381941	-0.965499	-0.131194
F140	F	1.881941	-0.465499	0.368806
F141	F	1.293715	-0.276208	-1.034291
F142	F	1.793715	0.223792	-0.534291
H143	H	1.130494	-0.730598	-0.382137
H144	H	1.630494	-0.230598	0.117863
F145	F	1.128228	-0.484993	-0.570267
F146	F	1.628228	0.015007	-0.070267
F147	F	1.293674	-0.276330	-0.612195
F148	F	1.793674	0.223670	-0.112195
F149	F	1.014508	-0.919021	-0.498053
F150	F	1.514508	-0.419021	0.001947
F151	F	1.293714	-0.276304	-0.781418
F152	F	1.793714	0.223696	-0.281418
H153	H	0.781834	-0.472574	-0.374361
H154	H	1.281834	0.027426	0.125639
H155	H	1.054445	-0.805511	-0.458127
H156	H	1.554445	-0.305511	0.041873
F157	F	0.690504	-0.485243	-0.384356
F158	F	1.190504	0.014757	0.115644
H159	H	0.640776	-0.288919	-0.229372
H160	H	1.140776	0.211081	0.270628
F161	F	1.048805	-1.089416	-0.463856
F162	F	1.548805	-0.589416	0.036144
H163	H	0.528981	-0.472593	-0.374387
H164	H	1.028981	0.027407	0.125613
H165	H	0.893623	-0.288906	-0.229348
H166	H	1.393623	0.211094	0.270652
F167	F	0.479258	-0.276291	-0.219384
F168	F	0.979258	0.223709	0.280616
H169	H	1.392604	-0.831350	-0.120480
H170	H	1.892604	-0.331350	0.379520
F171	F	1.128273	-0.484874	-0.992371
F172	F	1.628273	0.015126	-0.492371
F173	F	1.256183	-1.089365	-0.256813
F174	F	1.756183	-0.589365	0.243187
H175	H	1.291251	-1.030083	-0.221774
H176	H	1.791251	-0.530083	0.278226
H177	H	1.138262	-0.472276	-0.835923
H178	H	1.638262	0.027724	-0.335923
H179	H	0.744895	-0.288920	-0.229364
H180	H	1.244895	0.211080	0.270636
F181	F	1.165572	-0.671325	-0.347113
F182	F	1.665572	-0.171325	0.152887
