data_functionalizedCrystal
_audit_creation_method	'MofGen! by Chris Wilmer'
_symmetry_space_group_name_H-M	'P1'
_symmetry_Int_Tables_number	1
_symmetry_cell_setting	triclinic
loop_
_symmetry_equiv_pos_as_xyz
  x,y,z
_cell_length_a	20.875641
_cell_length_b	12.970454
_cell_length_c	12.970454
_cell_angle_alpha	59.999644
_cell_angle_beta	89.999100
_cell_angle_gamma	57.589518
loop_
_atom_site_label
_atom_site_type_symbol
_atom_site_fract_x
_atom_site_fract_y
_atom_site_fract_z
Zr1	Zr	0.641476	1.052852	-0.097489
O2	O	0.535152	1.280486	-0.268382
O3	O	0.674070	0.833916	-0.045100
O4	O	0.674069	1.049008	-0.260192
O5	O	0.535153	1.065393	0.116377
O6	O	0.783650	1.036081	-0.253732
O7	O	0.535153	1.065394	-0.053290
O8	O	0.783651	0.651321	0.131029
O9	O	0.535152	1.450153	-0.268383
O10	O	0.769750	0.911099	-0.017936
O11	O	0.687971	0.920745	0.103864
O12	O	0.687971	1.173988	-0.149380
O13	O	0.606192	1.183634	-0.027580
Zr14	Zr	0.816245	1.032234	0.183415
Zr15	Zr	0.816244	1.032236	-0.087185
Zr16	Zr	0.641477	1.052850	0.173111
Zr17	Zr	0.641476	1.323452	-0.097490
Zr18	Zr	0.816245	0.761634	0.183416
O19	O	0.783651	1.251170	0.131026
O20	O	0.783650	1.251172	-0.253733
O21	O	0.535153	1.280484	0.116376
O22	O	0.922569	0.804600	0.354308
O23	O	0.922568	0.804602	-0.030450
O24	O	0.674071	0.833914	0.339659
O25	O	0.922568	1.019693	-0.030451
O26	O	0.783652	1.036078	0.346118
O27	O	0.674071	1.049005	0.339658
O28	O	0.922568	1.019692	0.139216
O29	O	0.674069	1.433766	-0.260194
O30	O	0.783651	0.651320	0.346120
O31	O	0.922569	0.634933	0.354309
O32	O	0.922568	0.634934	0.139218
O33	O	0.535153	1.450152	-0.053292
O34	O	0.674070	1.433765	-0.045103
O35	O	0.769750	0.911098	0.235306
O36	O	0.851529	0.901452	0.113506
O37	O	0.769750	1.164341	-0.017938
O38	O	0.687971	1.173987	0.103862
C39	C	0.728860	0.704064	0.042965
C40	C	0.728860	0.589187	0.042965
C41	C	0.510252	1.068331	0.030075
C42	C	0.436058	1.077083	0.025701
C43	C	0.443888	0.943972	0.092252
C44	C	0.374172	0.952205	0.088139
C45	C	0.296628	1.093549	0.017468
C46	C	0.288800	1.226669	-0.049085
C47	C	0.358515	1.218435	-0.044964
C48	C	0.083550	1.132890	-0.002207
C49	C	0.013833	1.141114	-0.006326
C50	C	0.099210	0.866648	0.130901
C51	C	0.168922	0.858427	0.135009
C52	C	0.161089	0.991547	0.068462
N53	N	0.225366	1.101967	0.013259
N54	N	0.232350	0.983127	0.072679
C55	C	0.947469	1.016756	0.055851
C56	C	1.021662	1.008003	0.060225
C57	C	0.728859	1.042545	-0.295516
C58	C	0.728859	1.042545	-0.410393
C59	C	0.728860	1.381022	0.042961
C60	C	0.728860	1.495899	0.042961
C61	C	0.728861	1.042541	0.381442
C62	C	0.728862	1.042541	0.496319
C63	C	0.947469	0.678276	0.055852
C64	C	1.021662	0.554647	0.060227
C65	C	0.728861	0.704062	0.381444
C66	C	0.728862	0.589185	0.496321
C67	C	0.947470	0.678274	0.394332
C68	C	1.021664	0.554645	0.513583
C69	C	0.510251	1.406812	-0.308406
C70	C	0.436057	1.530441	-0.427657
C71	C	0.510252	1.406810	0.030074
C72	C	0.436058	1.530439	0.025699
C73	C	0.728859	1.381024	-0.295518
C74	C	0.728859	1.495901	-0.410395
C75	C	1.013817	0.501626	-0.006341
C76	C	1.083523	0.385479	-0.002257
C77	C	1.161074	0.322349	0.068404
C78	C	1.168918	0.375381	0.134975
C79	C	1.099213	0.491533	0.130882
C80	C	1.099201	0.491551	0.506007
C81	C	1.168920	0.375403	0.618046
C82	C	1.161101	0.322342	0.737660
C83	C	1.083556	0.385448	0.745234
C84	C	1.013838	0.501602	0.633196
C85	C	0.358520	1.593548	-0.420081
C86	C	0.288800	1.709730	-0.532120
C87	C	0.296619	1.762796	-0.651734
C88	C	0.374165	1.699684	-0.659308
C89	C	0.443883	1.583511	-0.547270
C90	C	0.443904	1.583471	0.092256
C91	C	0.374198	1.699648	0.088142
C92	C	0.296647	1.762782	0.017477
C93	C	0.288803	1.709745	-0.049088
C94	C	0.358508	1.593578	-0.044981
H95	H	0.380554	0.843812	0.142334
H96	H	0.352135	1.326828	-0.099141
H97	H	0.352109	1.550403	-0.099177
H98	H	0.380521	1.742905	-0.756711
H99	H	0.507044	1.532076	0.149808
C100	C	0.529173	1.514092	-0.555616
C101	C	0.537763	1.572470	-0.687194
C102	C	0.623052	1.503060	-0.695552
C103	C	0.699750	1.375272	-0.572331
C104	C	0.691162	1.316887	-0.440743
C105	C	0.605873	1.386297	-0.432385
H106	H	0.480984	1.667073	-0.778419
H107	H	0.629409	1.546282	-0.792963
H108	H	0.762886	1.323891	-0.578517
H109	H	0.747941	1.222284	-0.349518
H110	H	0.599516	1.343075	-0.334974
C111	C	1.107851	0.549835	0.204128
C112	C	1.031189	0.677590	0.199649
C113	C	1.039834	0.735885	0.272900
C114	C	1.125142	0.666423	0.350629
C115	C	1.201810	0.538660	0.355111
C116	C	1.193165	0.480366	0.281860
H117	H	0.968033	0.729017	0.142107
H118	H	0.983079	0.830464	0.269581
H119	H	1.131542	0.709576	0.404853
H120	H	1.264966	0.487234	0.412653
H121	H	1.249920	0.385787	0.285178
C122	C	0.203493	1.779184	-0.126799
C123	C	0.126827	1.906945	-0.131288
C124	C	0.041515	1.976376	-0.208986
C125	C	0.032869	1.918047	-0.282196
C126	C	0.109538	1.790280	-0.277709
C127	C	0.194850	1.720848	-0.200011
H128	H	0.133225	1.950129	-0.077092
H129	H	-0.015240	2.070958	-0.212307
H130	H	-0.030284	1.969444	-0.339712
H131	H	0.103140	1.747095	-0.331906
H132	H	0.251605	1.626266	-0.196691
C133	C	0.203508	1.779125	-0.523769
C134	C	0.143839	1.949398	-0.583269
C135	C	0.058549	2.018787	-0.574913
C136	C	0.032930	1.917901	-0.507058
C137	C	0.092601	1.747618	-0.447553
C138	C	0.177890	1.678230	-0.455909
H139	H	0.162802	2.024089	-0.633504
H140	H	0.014377	2.144842	-0.618963
H141	H	-0.030206	1.969267	-0.500872
H142	H	0.073637	1.672928	-0.397318
H143	H	0.222062	1.552174	-0.411859
H144	H	0.507024	0.828874	0.149806
H145	H	0.232059	0.743329	0.192532
H146	H	0.105578	0.758270	0.185080
H147	H	1.232069	0.323964	0.192505
H148	H	0.239844	1.857391	-0.742953
C149	C	1.254212	0.305996	0.609694
C150	C	1.279832	0.228769	0.541835
C151	C	1.365120	0.159367	0.533478
C152	C	1.424790	0.167192	0.592979
C153	C	1.399172	0.244421	0.660842
C154	C	1.313883	0.313823	0.669200
H155	H	1.235659	0.222974	0.497784
H156	H	1.384084	0.102197	0.483241
H157	H	1.487925	0.115816	0.586792
H158	H	1.443344	0.250216	0.704893
H159	H	1.294919	0.370994	0.719437
H160	H	-0.049309	1.256219	-0.063881
C161	C	0.928516	0.571062	-0.084083
C162	C	0.919903	0.512730	-0.157313
C163	C	0.834605	0.582164	-0.235067
C164	C	0.757920	0.709931	-0.239591
C165	C	0.766530	0.768270	-0.166358
C166	C	0.851828	0.698836	-0.088605
H167	H	0.976672	0.418143	-0.153966
H168	H	0.828232	0.538977	-0.289278
H169	H	0.694778	0.761331	-0.297148
H170	H	0.709761	0.862857	-0.169705
H171	H	0.858202	0.742023	-0.034394
H172	H	0.380601	1.742811	0.142353
H173	H	0.239895	1.857372	0.014143
H174	H	0.225657	1.341755	-0.106620
H175	H	0.077161	1.241285	-0.056417
H176	H	1.217826	0.227770	0.071728
H177	H	1.105583	0.534735	0.408622
H178	H	1.077120	0.342315	-0.056467
H179	H	1.217877	0.227762	0.828879
H180	H	0.950707	0.552959	0.639382
H181	H	0.352138	1.550349	-0.322696
H182	H	1.077202	0.342229	0.842639
