data_functionalizedCrystal
_audit_creation_method	'MofGen! by Chris Wilmer'
_symmetry_space_group_name_H-M	'P1'
_symmetry_Int_Tables_number	1
_symmetry_cell_setting	triclinic
loop_
_symmetry_equiv_pos_as_xyz
  x,y,z
_cell_length_a	14.519709
_cell_length_b	17.699104
_cell_length_c	16.176319
_cell_angle_alpha	89.992259
_cell_angle_beta	90.001796
_cell_angle_gamma	96.514169
loop_
_atom_site_label
_atom_site_type_symbol
_atom_site_fract_x
_atom_site_fract_y
_atom_site_fract_z
O1	O	-1.223458	0.099215	-0.068641
O2	O	-0.954933	0.110898	-0.068666
O3	O	-1.096772	-0.005110	-0.068645
O4	O	-1.081619	0.215223	-0.068662
O5	O	-1.096753	-0.005118	0.068848
O6	O	-0.954913	0.110891	0.068827
O7	O	-1.223439	0.099207	0.068852
Cu8	Cu	-1.089174	0.105048	0.081394
Cu9	Cu	-1.089197	0.105057	-0.081208
O10	O	-1.081600	0.215215	0.068832
C11	C	-0.920566	0.110350	0.000077
C12	C	-0.818191	0.108718	0.000068
C13	C	-1.096216	-0.033312	0.000101
C14	C	-1.094578	-0.117334	0.000102
C15	C	-1.257806	0.099755	0.000107
C16	C	-1.360181	0.101387	0.000111
C17	C	-0.443320	0.102711	0.000106
C18	C	-0.547621	0.104379	0.000095
C19	C	-0.630753	0.105715	0.000086
C20	C	-0.735060	0.107383	0.000077
C21	C	-1.168593	-0.641993	0.000085
C22	C	-1.170127	-0.563045	0.000093
C23	C	-1.086862	-0.514666	0.000087
C24	C	-1.002057	-0.545238	0.000081
C25	C	-1.000524	-0.624185	0.000080
C26	C	-1.008238	-0.226855	0.000089
C27	C	-1.009778	-0.147903	0.000088
C28	C	-1.177842	-0.165714	0.000102
C29	C	-1.176308	-0.244661	0.000100
C30	C	-1.091504	-0.275227	0.000099
C31	C	-1.089842	-0.360832	0.000093
C32	C	-1.088523	-0.429063	0.000087
N33	N	-1.089165	0.105042	0.195759
C34	C	-1.082156	0.243417	0.000083
C35	C	-1.083794	0.327439	0.000077
N36	N	-1.089214	0.105058	-0.195573
C37	C	-1.151990	0.053694	0.239033
C38	C	-1.151995	0.053693	0.325580
C39	C	-1.089178	0.105044	0.368852
C40	C	-1.026346	0.156394	0.325572
C41	C	-1.026338	0.156391	0.239027
C42	C	-1.026378	0.156408	0.674601
C43	C	-1.026393	0.156409	0.761152
C44	C	-1.152035	0.053711	0.761153
C45	C	-1.152026	0.053708	0.674608
C46	C	-1.089192	0.105054	0.631336
C47	C	-1.089186	0.105054	0.537492
C48	C	-1.089187	0.105049	0.462694
H49	H	-1.236397	-0.681379	0.000083
C50	C	-0.918185	-0.094683	0.000085
H51	H	-0.931248	-0.043289	0.000076
H52	H	-0.883400	-0.103964	0.048030
H53	H	-0.883410	-0.103958	-0.047870
H54	H	-1.203147	0.011882	0.203806
C55	C	-1.221111	-0.002782	0.373177
H56	H	-1.258531	-0.033356	0.335011
H57	H	-1.188022	-0.034353	0.406951
H58	H	-1.259440	0.024528	0.406926
H59	H	-1.239178	-0.538161	0.000100
H60	H	-0.939186	-0.251731	0.000078
C61	C	-0.957234	0.212873	0.191422
H62	H	-0.966219	0.205512	0.133682
H63	H	-0.967135	0.263405	0.205593
H64	H	-0.895706	0.204534	0.205615
H65	H	-0.975236	0.198227	0.796383
H66	H	-0.934261	-0.505842	0.000081
C67	C	-0.907246	-0.657810	0.000064
H68	H	-0.857875	-0.617691	0.000052
H69	H	-0.903145	-0.688244	0.048008
H70	H	-0.903165	-0.688229	-0.047891
C71	C	-0.957270	0.212894	0.627012
H72	H	-0.919870	0.243481	0.665181
H73	H	-0.918936	0.185599	0.593260
H74	H	-0.990376	0.244463	0.593242
H75	H	-1.244111	-0.284049	0.000101
H76	H	-1.203181	0.011896	0.639378
H77	H	-1.203196	0.011899	0.796395
C78	C	-0.957220	0.212858	0.373165
H79	H	-0.919788	0.243427	0.334996
H80	H	-0.990297	0.244436	0.406930
H81	H	-0.918905	0.185535	0.406923
C82	C	-1.271126	-0.132090	0.000116
H83	H	-1.260119	-0.078144	0.000126
H84	H	-1.305409	-0.148679	-0.047829
H85	H	-1.305393	-0.148697	0.048071
