data_functionalizedCrystal
_audit_creation_method	'MofGen! by Chris Wilmer'
_symmetry_space_group_name_H-M	'P1'
_symmetry_Int_Tables_number	1
_symmetry_cell_setting	triclinic
loop_
_symmetry_equiv_pos_as_xyz
  x,y,z
_cell_length_a	16.959455
_cell_length_b	16.959454
_cell_length_c	16.959455
_cell_angle_alpha	90.010582
_cell_angle_beta	90.001568
_cell_angle_gamma	90.017022
loop_
_atom_site_label
_atom_site_type_symbol
_atom_site_fract_x
_atom_site_fract_y
_atom_site_fract_z
Zn1	Zn	1.208284	-0.314856	0.446928
Zn2	Zn	1.208236	-0.447012	0.314758
Zn3	Zn	1.076142	-0.314844	0.314766
Zn4	Zn	1.076077	-0.446990	0.446896
O5	O	1.142185	-0.380925	0.380837
O6	O	1.318889	-0.332401	0.429405
O7	O	1.190721	-0.429483	0.204148
O8	O	1.093718	-0.204235	0.332314
O9	O	1.318853	-0.429495	0.332301
O10	O	1.190803	-0.204244	0.429413
O11	O	1.093672	-0.332380	0.204154
O12	O	0.965523	-0.332359	0.332283
O13	O	1.093608	-0.429458	0.557511
O14	O	0.965475	-0.429446	0.429359
O15	O	1.190740	-0.332380	0.557535
O16	O	1.190658	-0.557620	0.332270
O17	O	1.093561	-0.557603	0.429351
C18	C	0.936819	-0.380899	0.380819
C19	C	0.848962	-0.380907	0.380830
C20	C	0.477487	-0.330331	0.330395
C21	C	0.477486	-0.431585	0.431324
C22	C	0.560032	-0.431574	0.431319
C23	C	0.601309	-0.380941	0.380851
C24	C	0.560040	-0.330320	0.330387
C25	C	0.601307	-0.482200	0.481776
C26	C	0.683858	-0.482191	0.481773
C27	C	0.725137	-0.431554	0.431308
C28	C	0.683863	-0.380930	0.380843
C29	C	0.725140	-0.330297	0.330374
C30	C	0.683867	-0.279668	0.279913
C31	C	0.601319	-0.279682	0.279922
C32	C	0.807685	-0.431540	0.431298
C33	C	0.807693	-0.330286	0.330366
C34	C	1.142119	-0.586292	0.380824
C35	C	1.142163	-0.674148	0.380844
C36	C	1.091700	-1.045645	0.431382
C37	C	1.192890	-1.045602	0.330373
C38	C	1.192862	-0.963056	0.330365
C39	C	1.142252	-0.921801	0.380866
C40	C	1.091669	-0.963092	0.431375
C41	C	1.243438	-0.921759	0.279852
C42	C	1.243412	-0.839208	0.279842
C43	C	1.192805	-0.797952	0.330348
C44	C	1.142221	-0.839248	0.380859
C45	C	1.091611	-0.797992	0.431360
C46	C	1.041030	-0.839287	0.481875
C47	C	1.041062	-0.921835	0.481880
C48	C	1.192773	-0.715403	0.330343
C49	C	1.091580	-0.715439	0.431353
C50	C	1.348353	-0.380952	0.380856
C51	C	1.436210	-0.380964	0.380864
C52	C	1.142172	-0.380918	0.587005
C53	C	1.142166	-0.380915	0.674862
C54	C	1.142273	-0.174757	0.380868
C55	C	1.142310	-0.086901	0.380881
C56	C	1.091606	-0.431480	1.046328
C57	C	1.192750	-0.330392	1.046347
C58	C	1.192748	-0.330386	0.963801
C59	C	1.142174	-0.380928	0.922515
C60	C	1.091603	-0.431477	0.963774
C61	C	1.243323	-0.279844	0.922536
C62	C	1.243323	-0.279836	0.839985
C63	C	1.192745	-0.330375	0.798697
C64	C	1.142172	-0.380925	0.839961
C65	C	1.091598	-0.431467	0.798675
C66	C	1.041020	-0.482014	0.839938
C67	C	1.041025	-0.482016	0.922486
C68	C	1.192740	-0.330373	0.716148
C69	C	1.091596	-0.431464	0.716121
C70	C	1.142187	-0.380946	1.175471
C71	C	1.142179	-0.380938	1.087614
H72	H	0.717486	-0.238447	0.238818
H73	H	1.050370	-0.681854	0.472480
H74	H	1.284598	-0.805592	0.238711
H75	H	1.284502	-0.238700	0.956157
H76	H	0.999850	-0.523171	0.956090
H77	H	0.999819	-0.805687	0.522990
C78	C	0.384662	-0.442727	0.537629
C79	C	0.432113	-0.487234	0.486798
H80	H	0.356652	-0.477084	0.571881
H81	H	0.348277	-0.412589	0.507572
H82	H	0.416883	-0.408332	0.567917
H83	H	0.399891	-0.521625	0.456506
H84	H	0.468503	-0.517386	0.516858
H85	H	1.284637	-0.955355	0.238731
H86	H	0.999847	-0.523169	0.806312
C87	C	0.934225	-0.476485	0.476094
C88	C	0.853052	-0.487187	0.486757
H89	H	0.962231	-0.510846	0.510332
H90	H	0.947758	-0.423400	0.487759
H91	H	0.947738	-0.487967	0.422961
H92	H	0.839539	-0.475700	0.539889
H93	H	0.839515	-0.540285	0.475098
C94	C	1.046691	-0.476375	1.172855
C95	C	1.036014	-0.487042	1.091679
H96	H	1.012373	-0.510681	1.200851
H97	H	1.035143	-0.423272	1.186390
H98	H	1.099796	-0.487952	1.186376
H99	H	0.982910	-0.475459	1.078157
H100	H	1.047557	-0.540157	1.078139
C101	C	1.288206	-0.234914	0.713456
C102	C	1.298895	-0.224256	0.794631
H103	H	1.322512	-0.200598	0.685458
H104	H	1.235102	-0.223353	0.699947
H105	H	1.299769	-0.288020	0.699912
H106	H	1.287326	-0.171152	0.808177
H107	H	1.352011	-0.235811	0.808146
C108	C	0.996170	-1.048394	0.526728
C109	C	0.985460	-0.967227	0.537394
H110	H	0.961837	-1.076418	0.560995
H111	H	1.049265	-1.061882	0.538350
H112	H	0.984656	-1.061931	0.473605
H113	H	0.996979	-0.953690	0.590516
H114	H	0.932352	-0.953734	0.525777
H115	H	1.233951	-0.681785	0.289211
C116	C	0.452067	-0.291620	0.196618
C117	C	0.432127	-0.274681	0.274928
H118	H	0.424066	-0.257260	0.162377
H119	H	0.438520	-0.344705	0.184966
H120	H	0.507140	-0.284370	0.189401
H121	H	0.377055	-0.281937	0.282147
H122	H	0.445668	-0.221584	0.286584
H123	H	0.567693	-0.523428	0.522859
H124	H	1.233929	-0.289248	1.079967
H125	H	0.841295	-0.289049	0.289273
C126	C	0.675556	-0.582275	0.581545
C127	C	0.729221	-0.537833	0.537246
H128	H	0.703564	-0.616621	0.615796
H129	H	0.643356	-0.612464	0.547057
H130	H	0.643363	-0.547878	0.611835
H131	H	0.761410	-0.572230	0.506950
H132	H	0.761434	-0.507642	0.571738
H133	H	0.567708	-0.238464	0.238838
H134	H	1.233922	-0.289220	0.682556
H135	H	1.050521	-1.079271	0.472513
C136	C	0.985260	-0.442438	0.623290
C137	C	1.036001	-0.487025	0.670746
H138	H	0.950936	-0.476741	0.595283
H139	H	1.015377	-0.412347	0.586901
H140	H	0.955044	-0.407996	0.655506
H141	H	1.066222	-0.521463	0.638529
H142	H	1.005881	-0.517129	0.707139
C143	C	1.237813	-1.172124	0.285486
C144	C	1.248484	-1.090948	0.274829
H145	H	1.272131	-1.200119	0.251187
H146	H	1.184714	-1.185665	0.273900
H147	H	1.249371	-1.185641	0.338597
H148	H	1.236920	-1.077430	0.221719
H149	H	1.301595	-1.077401	0.286410
