data_functionalizedCrystal
_audit_creation_method	'MofGen! by Chris Wilmer'
_symmetry_space_group_name_H-M	'P1'
_symmetry_Int_Tables_number	1
_symmetry_cell_setting	triclinic
loop_
_symmetry_equiv_pos_as_xyz
  x,y,z
_cell_length_a	20.919309
_cell_length_b	20.919309
_cell_length_c	20.919309
_cell_angle_alpha	60.101124
_cell_angle_beta	90.173912
_cell_angle_gamma	60.099716
loop_
_atom_site_label
_atom_site_type_symbol
_atom_site_fract_x
_atom_site_fract_y
_atom_site_fract_z
Zr1	Zr	0.671047	0.642241	-0.079791
O2	O	0.574397	0.774997	-0.186785
O3	O	0.696808	0.509485	-0.043684
O4	O	0.707153	0.631893	-0.176441
O5	O	0.560291	0.660751	0.046929
O6	O	0.816274	0.623730	-0.172043
O7	O	0.564052	0.652588	-0.054029
O8	O	0.797768	0.404764	0.065434
O9	O	0.578797	0.879717	-0.190548
O10	O	0.793903	0.557997	-0.029000
O11	O	0.709661	0.570180	0.043063
O12	O	0.721841	0.714300	-0.113241
O13	O	0.637600	0.726483	-0.041179
Zr14	Zr	0.839084	0.642240	0.088238
Zr15	Zr	0.845082	0.629222	-0.072778
Zr16	Zr	0.665050	0.655258	0.081225
Zr17	Zr	0.678065	0.809257	-0.085792
Zr18	Zr	0.832067	0.475223	0.094239
O19	O	0.813324	0.774996	0.052132
O20	O	0.821851	0.756486	-0.176813
O21	O	0.565869	0.793506	0.042159
O22	O	0.935735	0.509484	0.195232
O23	O	0.944262	0.490974	-0.033712
O24	O	0.688280	0.527994	0.185260
O25	O	0.949840	0.623730	-0.038482
O26	O	0.802978	0.652588	0.184888
O27	O	0.693858	0.660750	0.180490
O28	O	0.946080	0.631892	0.062476
O29	O	0.717131	0.869369	-0.184973
O30	O	0.793001	0.415111	0.193420
O31	O	0.931335	0.404764	0.198995
O32	O	0.936102	0.394416	0.071008
O33	O	0.574030	0.890064	-0.062561
O34	O	0.712364	0.879716	-0.056986
O35	O	0.788290	0.570180	0.121688
O36	O	0.872532	0.557997	0.049626
O37	O	0.800470	0.714300	-0.034615
O38	O	0.716229	0.726483	0.037447
C39	C	0.746288	0.433328	0.011730
C40	C	0.743309	0.362425	0.014277
C41	C	0.537375	0.658524	-0.004549
C42	C	0.463493	0.664051	-0.007527
C43	C	0.785881	0.322756	-0.022142
C44	C	0.783083	0.256130	-0.019741
C45	C	0.737709	0.229181	0.019075
C46	C	0.695136	0.268853	0.055498
C47	C	0.697939	0.335473	0.053102
C48	C	0.727052	0.028347	0.028197
C49	C	0.724251	-0.038275	0.030589
C50	C	0.812199	-0.050995	-0.044649
C51	C	0.814994	0.015630	-0.047046
C52	C	0.772424	0.055294	-0.010619
C53	C	0.734847	0.161081	0.021528
C54	C	0.775292	0.123387	-0.013068
C55	C	0.466397	0.585061	0.035044
C56	C	0.396974	0.590259	0.032244
C57	C	0.324649	0.674448	-0.013130
C58	C	0.321747	0.753444	-0.055702
C59	C	0.391169	0.748246	-0.052898
C60	C	0.113158	0.694227	-0.023794
C61	C	0.043735	0.699420	-0.026597
C62	C	0.118967	0.536234	0.061351
C63	C	0.188386	0.531042	0.064148
C64	C	0.185479	0.610039	0.021580
C65	C	0.253687	0.679763	-0.015995
C66	C	0.256440	0.604723	0.024449
C67	C	0.972756	0.625956	0.012996
C68	C	1.046638	0.620430	0.015974
C69	C	0.762568	0.625957	-0.197183
C70	C	0.765114	0.620431	-0.265539
C71	C	0.763844	0.851152	-0.003282
C72	C	0.766823	0.922055	-0.005830
C73	C	0.728696	0.699421	-0.341625
C74	C	0.731099	0.694222	-0.405850
C75	C	0.769915	0.610033	-0.393986
C76	C	0.806338	0.531037	-0.317891
C77	C	0.803939	0.536236	-0.253668
C78	C	0.779042	0.590253	-0.585697
C79	C	0.781436	0.585060	-0.649927
C80	C	0.706198	0.748246	-0.737881
C81	C	0.703799	0.753438	-0.673654
C82	C	0.740225	0.674441	-0.597565
C83	C	0.772369	0.604717	-0.459632
C84	C	0.737775	0.679758	-0.531920
C85	C	0.747564	0.658524	0.205630
C86	C	0.745018	0.664050	0.273986
C87	C	0.963979	0.417044	0.020502
C88	C	1.034882	0.340614	0.026027
C89	C	0.738786	0.449611	0.213136
C90	C	0.733261	0.384235	0.284039
C91	C	0.956477	0.433327	0.221909
C92	C	1.024833	0.362424	0.295790
C93	C	0.553655	0.851153	-0.213462
C94	C	0.485298	0.922056	-0.287342
C95	C	0.546153	0.867437	-0.012055
C96	C	0.475250	0.943866	-0.017580
C97	C	0.771346	0.834869	-0.204689
C98	C	0.776871	0.900246	-0.275592
C99	C	1.027135	0.304722	-0.012427
C100	C	1.093751	0.232917	-0.007251
C101	C	1.168111	0.197001	0.036383
C102	C	1.175856	0.232901	0.074838
C103	C	1.109242	0.304709	0.069657
C104	C	0.771709	0.353534	0.358385
C105	C	0.766515	0.292116	0.425012
C106	C	0.722876	0.261395	0.417292
C107	C	0.684423	0.292102	0.342938
C108	C	0.689613	0.353524	0.276313
C109	C	1.100915	0.322767	0.292869
C110	C	1.165151	0.256155	0.362282
C111	C	1.153303	0.229195	0.434614
C112	C	1.077214	0.268859	0.437532
C113	C	1.012980	0.335475	0.368120
C114	C	0.409217	0.961721	-0.284422
C115	C	0.344982	1.028355	-0.353835
C116	C	0.356830	1.055317	-0.426168
C117	C	0.432919	1.015649	-0.429086
C118	C	0.497153	0.949022	-0.359674
C119	C	0.482997	0.979765	0.020867
C120	C	0.416383	1.051587	0.015673
C121	C	0.342023	1.087505	-0.027964
C122	C	0.334278	1.051603	-0.066415
C123	C	0.400891	0.979786	-0.061226
C124	C	0.820516	0.930947	-0.267847
C125	C	0.825723	0.992365	-0.334461
C126	C	0.787279	1.023087	-0.408820
C127	C	0.743632	0.992379	-0.416563
C128	C	0.738431	0.930957	-0.349950
H129	H	0.822825	0.344697	-0.053754
O130	O	0.828990	0.213351	-0.059031
H131	H	0.861001	0.243294	-0.086435
O132	O	1.256060	0.194153	0.121908
H133	H	1.301072	0.138183	0.119053
O134	O	0.266395	0.440238	0.113085
H135	H	0.256751	0.386183	0.142220
O136	O	0.243739	0.844248	-0.104640
H137	H	0.253385	0.898303	-0.133765
H138	H	0.110781	0.758551	-0.058469
H139	H	1.227101	0.223866	0.359892
O140	O	-0.034279	0.790228	-0.075532
H141	H	-0.024639	0.844288	-0.104655
H142	H	0.718656	0.211381	0.471549
H143	H	0.273724	1.080858	-0.101944
H144	H	0.807244	0.378540	0.364685
O145	O	1.113704	0.351848	0.214858
H146	H	1.177404	0.313083	0.224501
O147	O	0.691343	0.897857	-0.358308
H148	H	0.665481	0.929552	-0.421208
H149	H	0.399555	0.939773	-0.225533
O150	O	0.818318	0.505055	-0.503635
H151	H	0.845701	0.445643	-0.506179
H152	H	0.797832	0.267121	0.485547
H153	H	1.205614	0.174951	0.491127
H154	H	0.813044	0.516499	-0.640259
H155	H	0.701445	0.758544	-0.467801
O156	O	0.262918	1.071117	-0.350679
H157	H	0.265478	1.041154	-0.288719
H158	H	0.966594	0.333962	-0.047968
O159	O	1.117607	0.343403	0.111150
H160	H	1.058799	0.399372	0.100222
H161	H	1.222346	0.138530	0.040596
O162	O	0.675312	-0.067342	0.072465
H163	H	0.630334	-0.054240	0.030406
H164	H	0.648893	0.267080	0.336664
O165	O	0.681131	0.071134	0.067474
H166	H	0.649102	0.041209	0.094857
O167	O	0.648195	0.386638	0.196104
H168	H	0.691781	0.368100	0.167200
H169	H	0.846859	-0.083296	-0.074305
O170	O	0.646192	0.239795	0.097362
H171	H	0.651386	0.186814	0.092902
O172	O	1.085389	0.194198	-0.048723
H173	H	1.022487	0.231229	-0.079920
H174	H	0.951032	0.367756	0.370509
H175	H	1.067578	0.246899	0.496434
H176	H	0.812239	0.145328	-0.044668
O177	O	0.695909	0.770560	-0.544718
H178	H	0.633382	0.812046	-0.579947
H179	H	0.837947	0.462487	-0.308236
O180	O	0.392531	0.941060	-0.102687
H181	H	0.329630	0.978101	-0.133893
O182	O	0.287542	1.127191	-0.501028
H183	H	0.249807	1.104369	-0.501543
H184	H	0.525283	0.516505	0.071996
O185	O	0.445694	1.044727	-0.507103
H186	H	0.388241	1.097712	-0.554872
O187	O	0.579212	0.906229	-0.362826
H188	H	0.576651	0.936169	-0.424786
O189	O	0.863930	0.044701	-0.088914
H190	H	0.893067	0.005919	-0.113833
H191	H	0.543539	0.950527	0.056406
H192	H	0.388800	0.812569	-0.087554
H193	H	0.663270	0.367774	0.082756
O194	O	0.424744	1.090293	0.057159
H195	H	0.487643	1.053234	0.088386
H196	H	0.287788	1.145983	-0.032183
O197	O	0.861993	0.897807	-0.187649
H198	H	0.893224	0.929471	-0.193467
H199	H	0.697903	0.139131	0.053131
H200	H	0.861263	1.017361	-0.328141
O201	O	0.843213	0.451041	-0.171599
H202	H	0.870600	0.391625	-0.174138
O203	O	0.792881	1.089348	-0.480666
H204	H	0.829682	1.105539	-0.462781
H205	H	0.399345	0.525937	0.066911
H206	H	0.712334	1.017402	-0.477115
H207	H	0.121325	0.471919	0.096008
H208	H	0.194792	0.748310	-0.052939
O209	O	0.334446	0.513923	0.073382
H210	H	0.337620	0.479151	0.135521
O211	O	0.686829	0.790225	-0.354422
H212	H	0.661916	0.844277	-0.418122
H213	H	0.672193	0.821994	-0.683322
O214	O	0.814232	0.513911	-0.446833
H215	H	0.772171	0.511005	-0.475801
H216	H	0.676542	0.812560	-0.799838
