data_functionalizedCrystal
_audit_creation_method	'MofGen! by Chris Wilmer'
_symmetry_space_group_name_H-M	'P1'
_symmetry_Int_Tables_number	1
_symmetry_cell_setting	triclinic
loop_
_symmetry_equiv_pos_as_xyz
  x,y,z
_cell_length_a	17.052832
_cell_length_b	12.970454
_cell_length_c	12.970454
_cell_angle_alpha	59.999776
_cell_angle_beta	102.315078
_cell_angle_gamma	67.551686
loop_
_atom_site_label
_atom_site_type_symbol
_atom_site_fract_x
_atom_site_fract_y
_atom_site_fract_z
Zr1	Zr	0.773242	1.128514	0.081534
O2	O	0.645080	1.343605	-0.119031
O3	O	0.812531	0.913423	0.143019
O4	O	0.812532	1.128513	-0.072072
O5	O	0.645078	1.128516	0.265725
O6	O	0.944621	1.128512	-0.035030
O7	O	0.645078	1.128515	0.096059
O8	O	0.944619	0.743755	0.349727
O9	O	0.645080	1.513272	-0.119032
O10	O	0.927864	1.001892	0.196884
O11	O	0.829286	1.001894	0.295860
O12	O	0.829288	1.255134	0.042619
O13	O	0.730710	1.255136	0.141595
Zr14	Zr	0.983908	1.128514	0.411209
Zr15	Zr	0.983909	1.128512	0.140611
Zr16	Zr	0.773241	1.128515	0.352132
Zr17	Zr	0.773242	1.399114	0.081532
Zr18	Zr	0.983908	0.857914	0.411210
O19	O	0.944619	1.343605	0.349724
O20	O	0.944621	1.343603	-0.035031
O21	O	0.645078	1.343607	0.265724
O22	O	1.112070	0.913423	0.611774
O23	O	1.112072	0.913421	0.227018
O24	O	0.812529	0.913425	0.527774
O25	O	1.112072	1.128511	0.227017
O26	O	0.944618	1.128515	0.564815
O27	O	0.812529	1.128516	0.527773
O28	O	1.112071	1.128512	0.396684
O29	O	0.812532	1.513271	-0.072074
O30	O	0.944618	0.743757	0.564817
O31	O	1.112070	0.743755	0.611775
O32	O	1.112071	0.743754	0.396686
O33	O	0.645079	1.513273	0.096057
O34	O	0.812531	1.513272	0.143016
O35	O	0.927862	1.001894	0.450124
O36	O	1.026440	1.001892	0.351148
O37	O	0.927864	1.255134	0.196883
O38	O	0.829286	1.255135	0.295859
C39	C	0.878575	0.790035	0.246373
C40	C	0.878575	0.675158	0.246374
C41	C	0.615062	1.128516	0.172475
C42	C	0.525629	1.128517	0.147395
C43	C	0.273537	1.128507	0.450608
C44	C	0.357568	1.128497	0.474179
C45	C	0.399587	1.128503	0.392485
C46	C	0.357567	1.128517	0.287216
C47	C	0.273532	1.128515	0.263649
C48	C	0.399583	1.128511	0.205527
C49	C	0.357563	1.128525	0.100257
C50	C	0.273536	1.128524	0.076695
C51	C	0.231517	1.128519	0.158389
C52	C	0.483617	1.128512	0.229093
C53	C	0.483613	1.128520	0.042135
C54	C	0.399582	1.128530	0.018563
C55	C	1.142087	1.128512	0.320268
C56	C	1.231521	1.128511	0.345347
C57	C	0.878577	1.128512	-0.092106
C58	C	0.878577	1.128511	-0.206982
C59	C	0.878575	1.466993	0.246370
C60	C	0.878575	1.581870	0.246369
C61	C	0.878573	1.128516	0.584848
C62	C	0.878572	1.128516	0.699724
C63	C	1.142087	0.790032	0.320269
C64	C	1.231521	0.675155	0.345350
C65	C	0.878573	0.790036	0.584850
C66	C	0.878572	0.675160	0.699727
C67	C	1.142085	0.790034	0.658746
C68	C	1.231519	0.675157	0.798703
C69	C	0.615064	1.466993	-0.166004
C70	C	0.525631	1.581870	-0.305960
C71	C	0.615063	1.466995	0.172473
C72	C	0.525629	1.581873	0.147393
C73	C	0.878577	1.466991	-0.092107
C74	C	0.878577	1.581867	-0.206984
C75	C	1.222064	0.621207	0.276592
C76	C	1.306089	0.513283	0.300130
C77	C	1.399569	0.459300	0.392434
C78	C	1.409024	0.513259	0.461193
C79	C	1.325000	0.621189	0.437647
C80	C	1.324982	0.621209	0.812765
C81	C	1.409022	0.513285	0.944261
C82	C	1.399596	0.459304	1.061692
C83	C	1.306122	0.513263	1.047624
C84	C	1.222085	0.621192	0.916130
C85	C	0.432167	1.635832	-0.320023
C86	C	0.348127	1.743789	-0.451518
C87	C	0.357554	1.797776	-0.568950
C88	C	0.451027	1.743810	-0.554882
C89	C	0.535065	1.635862	-0.423388
C90	C	0.535085	1.635832	0.216139
C91	C	0.451061	1.743786	0.192571
C92	C	0.357581	1.797772	0.100264
C93	C	0.348126	1.743809	0.031510
C94	C	0.432150	1.635864	0.055071
H95	H	0.517823	1.128500	0.314805
Cl96	Cl	1.104590	0.688991	0.898475
Cl97	Cl	0.220720	1.128518	-0.055628
Cl98	Cl	1.526520	0.445467	0.961914
H99	H	0.365360	1.128541	-0.067148
H100	H	0.611165	1.591928	-0.411952
Cl101	Cl	1.505255	0.323616	1.226992
Cl102	Cl	0.251960	1.933474	0.070663
H103	H	1.332714	0.665099	0.493648
H104	H	0.458779	1.787705	0.248569
Cl105	Cl	0.652593	1.567993	0.332183
H106	H	1.298371	0.469363	0.244134
Cl107	Cl	0.505225	1.128496	0.422115
Cl108	Cl	1.526549	0.445373	0.577234
Cl109	Cl	0.420291	1.567984	-0.172415
Cl110	Cl	1.104556	0.689054	0.160540
H111	H	1.332676	0.665145	0.717162
H112	H	0.272003	1.787781	-0.043647
Cl113	Cl	0.230630	1.811604	-0.469171
H114	H	1.467978	0.371415	0.411595
Cl115	Cl	0.536435	1.128519	-0.060566
Cl116	Cl	0.251895	1.933481	-0.734249
H117	H	1.298462	0.469295	1.143255
H118	H	0.424436	1.591933	-0.000910
H119	H	0.391778	1.128484	0.559890
Cl120	Cl	0.125870	1.128540	0.128749
Cl121	Cl	0.220719	1.128482	0.553309
H122	H	0.458691	1.787780	-0.650510
