data_functionalizedCrystal
_audit_creation_method	'MofGen! by Chris Wilmer'
_symmetry_space_group_name_H-M	'P1'
_symmetry_Int_Tables_number	1
_symmetry_cell_setting	triclinic
loop_
_symmetry_equiv_pos_as_xyz
  x,y,z
_cell_length_a	18.215407
_cell_length_b	25.639240
_cell_length_c	18.215399
_cell_angle_alpha	89.962783
_cell_angle_beta	89.982632
_cell_angle_gamma	90.030201
loop_
_atom_site_label
_atom_site_type_symbol
_atom_site_fract_x
_atom_site_fract_y
_atom_site_fract_z
Zn1	Zn	1.125032	-0.208192	-0.416020
Zn2	Zn	1.625032	0.291808	0.083980
Zn3	Zn	1.124923	-0.295628	-0.292934
Zn4	Zn	1.624923	0.204372	0.207066
Zn5	Zn	1.001964	-0.208204	-0.292973
Zn6	Zn	1.501964	0.291796	0.207027
Zn7	Zn	1.001913	-0.295594	-0.415964
Zn8	Zn	1.501913	0.204406	0.084036
O9	O	1.063458	-0.251905	-0.354473
O10	O	1.563458	0.248095	0.145527
O11	O	1.228001	-0.219799	-0.399700
O12	O	1.728001	0.280201	0.100300
O13	O	1.108588	-0.284050	-0.189955
O14	O	1.608588	0.215950	0.310045
O15	O	1.018356	-0.135037	-0.309335
O16	O	1.518356	0.364963	0.190665
O17	O	1.227922	-0.284038	-0.309269
O18	O	1.727922	0.215962	0.190731
O19	O	1.108773	-0.135028	-0.399737
O20	O	1.608773	0.364972	0.100263
O21	O	1.018251	-0.219821	-0.189983
O22	O	1.518251	0.280179	0.310017
O23	O	0.898973	-0.219788	-0.309281
O24	O	1.398973	0.280212	0.190719
O25	O	1.018269	-0.283981	-0.518956
O26	O	1.518269	0.216019	-0.018956
O27	O	0.898936	-0.283993	-0.399642
O28	O	1.398936	0.216007	0.100358
O29	O	1.108724	-0.219767	-0.518997
O30	O	1.608724	0.280233	-0.018997
O31	O	1.108539	-0.368789	-0.309214
O32	O	1.608539	0.131211	0.190786
O33	O	1.018164	-0.368764	-0.399604
O34	O	1.518164	0.131236	0.100396
C35	C	0.872252	-0.251888	-0.354460
C36	C	1.372252	0.248112	0.145540
C37	C	0.790453	-0.251894	-0.354472
C38	C	1.290453	0.248106	0.145528
C39	C	0.602299	-0.218514	-0.401633
C40	C	1.102299	0.281486	0.098367
C41	C	0.525441	-0.218518	-0.401636
C42	C	1.025441	0.281482	0.098364
C43	C	0.525369	-0.285310	-0.307325
C44	C	1.025369	0.214690	0.192675
C45	C	0.602226	-0.285302	-0.307319
C46	C	1.102226	0.214698	0.192681
C47	C	0.640689	-0.251905	-0.354478
C48	C	1.140689	0.248095	0.145522
C49	C	0.486973	-0.251917	-0.354486
C50	C	0.986973	0.248083	0.145514
C51	C	0.403640	-0.251922	-0.354488
C52	C	0.903640	0.248078	0.145512
C53	C	0.724028	-0.251899	-0.354475
C54	C	1.224028	0.248101	0.145525
C55	C	1.063354	-0.387747	-0.354415
C56	C	1.563354	0.112253	0.145585
C57	C	1.063377	-0.445861	-0.354415
C58	C	1.563377	0.054139	0.145585
C59	C	1.110562	-0.806181	-0.401630
C60	C	1.610562	-0.306181	0.098370
C61	C	1.110583	-0.860785	-0.401645
C62	C	1.610583	-0.360785	0.098355
O63	O	1.150578	-0.888985	-0.441730
O64	O	1.650578	-0.388985	0.058270
N65	N	1.063560	-0.888144	-0.354544
N66	N	1.563560	-0.388144	0.145456
C67	C	1.016507	-0.860895	-0.307430
C68	C	1.516507	-0.360895	0.192570
O69	O	0.976512	-0.889179	-0.267368
O70	O	1.476512	-0.389179	0.232632
C71	C	1.016482	-0.806291	-0.307419
C72	C	1.516482	-0.306291	0.192581
C73	C	1.063514	-0.778936	-0.354518
C74	C	1.563514	-0.278936	0.145482
C75	C	1.157589	-0.778825	-0.448726
C76	C	1.657589	-0.278825	0.051274
C77	C	1.157568	-0.724225	-0.448710
C78	C	1.657568	-0.224225	0.051290
C79	C	1.110520	-0.696980	-0.401598
C80	C	1.610520	-0.196980	0.098402
C81	C	1.063493	-0.724335	-0.354502
C82	C	1.563493	-0.224335	0.145498
C83	C	0.969426	-0.779044	-0.260309
C84	C	1.469426	-0.279044	0.239691
C85	C	0.969404	-0.724437	-0.260303
C86	C	1.469404	-0.224437	0.239697
C87	C	1.016436	-0.697081	-0.307402
C88	C	1.516436	-0.197081	0.192598
C89	C	1.016424	-0.642490	-0.307374
C90	C	1.516424	-0.142490	0.192626
N91	N	1.063447	-0.615132	-0.354475
N92	N	1.563447	-0.115132	0.145525
C93	C	1.110495	-0.642377	-0.401587
C94	C	1.610495	-0.142377	0.098413
C95	C	1.016562	-0.975565	-0.307457
C96	C	1.516562	-0.475565	0.192543
C97	C	1.016590	-1.030168	-0.307463
C98	C	1.516590	-0.530168	0.192537
C99	C	1.110665	-1.030054	-0.401680
C100	C	1.610665	-0.530054	0.098320
C101	C	1.110641	-0.975451	-0.401669
C102	C	1.610641	-0.475451	0.098331
C103	C	1.063585	-0.948207	-0.354558
C104	C	1.563585	-0.448207	0.145442
C105	C	1.110448	-0.527711	-0.401549
C106	C	1.610448	-0.027711	0.098451
C107	C	1.110425	-0.473106	-0.401527
C108	C	1.610425	0.026894	0.098473
C109	C	1.016347	-0.473224	-0.307314
C110	C	1.516347	0.026776	0.192686
C111	C	1.016372	-0.527825	-0.307333
C112	C	1.516372	-0.027825	0.192667
C113	C	1.063425	-0.555067	-0.354457
C114	C	1.563425	-0.055067	0.145543
O115	O	0.976448	-0.614255	-0.267312
O116	O	1.476448	-0.114255	0.232688
O117	O	1.150477	-0.614086	-0.441649
O118	O	1.650477	-0.114086	0.058351
C119	C	1.255411	-0.251921	-0.354486
C120	C	1.755411	0.248079	0.145514
C121	C	1.337210	-0.251928	-0.354492
C122	C	1.837210	0.248072	0.145508
C123	C	1.063503	-0.251869	-0.546426
C124	C	1.563503	0.248131	-0.046426
C125	C	1.063522	-0.251853	-0.628225
C126	C	1.563522	0.248147	-0.128225
C127	C	1.063582	-0.115532	-0.354547
C128	C	1.563582	0.384468	0.145453
C129	C	1.063636	-0.057417	-0.354578
C130	C	1.563636	0.442583	0.145422
C131	C	1.110639	-0.218386	-0.816441
C132	C	1.610639	0.281614	-0.316441
C133	C	1.110647	-0.218370	-0.893300
C134	C	1.610647	0.281630	-0.393300
C135	C	1.016457	-0.285240	-0.893246
C136	C	1.516457	0.214760	-0.393246
C137	C	1.016445	-0.285252	-0.816389
C138	C	1.516445	0.214748	-0.316389
C139	C	1.063540	-0.251826	-0.777988
C140	C	1.563540	0.248174	-0.277988
C141	C	1.063561	-0.251798	-0.931704
C142	C	1.563561	0.248202	-0.431704
C143	C	1.063570	-0.251782	-1.015038
C144	C	1.563570	0.248218	-0.515038
C145	C	1.063530	-0.251841	-0.694649
C146	C	1.563530	0.248159	-0.194649
C147	C	1.063456	-0.251903	-0.163266
C148	C	1.563456	0.248097	0.336734
C149	C	1.063579	-0.251771	-0.081468
C150	C	1.563579	0.248229	0.418532
H151	H	0.633614	-0.191318	-0.440031
H152	H	1.133614	0.308682	0.059969
H153	H	1.148937	-0.953181	-0.440021
H154	H	1.648937	-0.453181	0.059979
H155	H	0.633484	-0.312494	-0.268915
H156	H	1.133484	0.187506	0.231085
C157	C	1.209294	-0.694138	-0.500525
C158	C	1.709294	-0.194138	-0.000525
H159	H	1.202553	-0.657715	-0.493774
H160	H	1.702553	-0.157715	0.006226
H161	H	1.198495	-0.703069	-0.549961
H162	H	1.698495	-0.203069	-0.049961
H163	H	1.258754	-0.703066	-0.489797
H164	H	1.758754	-0.203066	0.010203
H165	H	0.978300	-1.052436	-0.269102
H166	H	1.478300	-0.552436	0.230898
H167	H	0.978043	-0.451033	-0.268953
H168	H	1.478043	0.048967	0.231047
C169	C	1.162431	-0.181612	-0.774203
C170	C	1.662431	0.318388	-0.274203
H171	H	1.190476	-0.161690	-0.808115
H172	H	1.690476	0.338310	-0.308115
H173	H	1.194477	-0.201614	-0.744211
H174	H	1.694477	0.298386	-0.244211
H175	H	1.134285	-0.158833	-0.744234
H176	H	1.634285	0.341167	-0.244234
H177	H	0.494187	-0.191327	-0.440034
H178	H	0.994187	0.308673	0.059966
C179	C	1.162416	-1.060028	-0.453508
C180	C	1.662416	-0.560028	0.046492
H181	H	1.190425	-1.035919	-0.481557
H182	H	1.690425	-0.535919	0.018443
H183	H	1.134250	-1.081327	-0.485549
H184	H	1.634250	-0.581327	0.014451
H185	H	1.194507	-1.081326	-0.425384
H186	H	1.694507	-0.581326	0.074616
H187	H	1.148726	-0.450835	-0.439880
H188	H	1.648726	0.049165	0.060120
H189	H	0.978246	-0.953386	-0.269087
H190	H	1.478246	-0.453386	0.230913
C191	C	1.162211	-0.557670	-0.453378
C192	C	1.662211	-0.057670	0.046622
H193	H	1.190218	-0.533552	-0.481415
H194	H	1.690218	-0.033552	0.018585
H195	H	1.134060	-0.578970	-0.485430
H196	H	1.634060	-0.078970	0.014570
H197	H	1.194306	-0.578966	-0.425253
H198	H	1.694306	-0.078966	0.074747
H199	H	0.494042	-0.312501	-0.268931
H200	H	0.994042	0.187499	0.231069
C201	C	0.964636	-0.322037	-0.774084
C202	C	1.464636	0.177963	-0.274084
H203	H	0.971369	-0.317252	-0.722811
H204	H	1.471369	0.182748	-0.222811
H205	H	0.975374	-0.357166	-0.786657
H206	H	1.475374	0.142834	-0.286657
H207	H	0.915195	-0.314375	-0.786677
H208	H	1.415195	0.185625	-0.286677
C209	C	1.209351	-0.808787	-0.500549
C210	C	1.709351	-0.308787	-0.000549
H211	H	1.237354	-0.784667	-0.528587
H212	H	1.737354	-0.284667	-0.028587
H213	H	1.181202	-0.830089	-0.532601
H214	H	1.681202	-0.330089	-0.032601
H215	H	1.241448	-0.830080	-0.472424
H216	H	1.741448	-0.330080	0.027576
C217	C	0.917681	-0.809125	-0.208511
C218	C	1.417681	-0.309125	0.291489
H219	H	0.924426	-0.845549	-0.215256
H220	H	1.424426	-0.345549	0.284744
H221	H	0.868231	-0.800192	-0.219248
H222	H	1.368231	-0.300192	0.280752
H223	H	0.928471	-0.800199	-0.159067
H224	H	1.428471	-0.300199	0.340933
C225	C	0.917644	-0.694471	-0.208478
C226	C	1.417644	-0.194471	0.291522
H227	H	0.889644	-0.718587	-0.180429
H228	H	1.389644	-0.218587	0.319571
H229	H	0.885554	-0.673172	-0.236595
H230	H	1.385554	-0.173172	0.263405
H231	H	0.945807	-0.673175	-0.176425
H232	H	1.445807	-0.173175	0.323575
C233	C	0.964641	-0.557917	-0.255524
C234	C	1.464641	-0.057917	0.244476
H235	H	0.936616	-0.533868	-0.227467
H236	H	1.436616	-0.033868	0.272533
H237	H	0.992812	-0.579226	-0.223490
H238	H	1.492812	-0.079226	0.276510
H239	H	0.932563	-0.579214	-0.283663
H240	H	1.432563	-0.079214	0.216337
C241	C	1.162459	-0.181589	-0.935595
C242	C	1.662459	0.318411	-0.435595
H243	H	1.190507	-0.161687	-0.901715
H244	H	1.690507	0.338313	-0.401715
H245	H	1.134335	-0.158799	-0.965587
H246	H	1.634335	0.341201	-0.465587
H247	H	1.194513	-0.201591	-0.965570
H248	H	1.694513	0.298409	-0.465570
H249	H	0.978116	-0.312456	-0.924521
H250	H	1.478116	0.187544	-0.424521
