data_functionalizedCrystal
_audit_creation_method	'MofGen! by Chris Wilmer'
_symmetry_space_group_name_H-M	'P1'
_symmetry_Int_Tables_number	1
_symmetry_cell_setting	triclinic
loop_
_symmetry_equiv_pos_as_xyz
  x,y,z
_cell_length_a	10.967916
_cell_length_b	11.295483
_cell_length_c	10.967953
_cell_angle_alpha	73.775552
_cell_angle_beta	97.834142
_cell_angle_gamma	97.946052
loop_
_atom_site_label
_atom_site_type_symbol
_atom_site_fract_x
_atom_site_fract_y
_atom_site_fract_z
O1	O	-1.633841	-0.276948	0.198309
O2	O	-1.276678	-0.205865	0.209085
O3	O	-1.466632	-0.205871	0.019134
O4	O	-1.443888	-0.276942	0.388260
O5	O	-1.449948	-0.403916	0.035792
O6	O	-1.259994	-0.403910	0.225742
O7	O	-1.617157	-0.474993	0.214966
Cu8	Cu	-1.437053	-0.457535	0.221875
Cu9	Cu	-1.456783	-0.223323	0.202176
O10	O	-1.427204	-0.474987	0.404917
C11	C	-1.222662	-0.295095	0.215371
C12	C	-1.086566	-0.265915	0.209270
C13	C	-1.017248	-0.355498	0.215178
C14	C	-0.876586	-0.325341	0.208872
N15	N	-1.423184	-0.622268	0.235730
C16	C	-1.570495	-0.871579	0.088505
C17	C	-1.560023	-0.996244	0.098985
C18	C	-1.391763	-0.996262	0.267162
C19	C	-1.402235	-0.871597	0.256682
C20	C	-1.491605	-0.809260	0.167352
C21	C	-1.502082	-0.684596	0.156880
C22	C	-1.333818	-0.684614	0.325050
C23	C	-1.323346	-0.809279	0.335529
C24	C	-0.671174	-0.385761	0.208681
C25	C	-0.807270	-0.414937	0.214782
C26	C	-1.457896	-0.295100	-0.019860
C27	C	-1.456709	-0.265916	-0.160867
N28	N	-1.470661	-0.058590	0.188311
C29	C	-1.446302	-0.325350	-0.360841
C30	C	-1.447534	-0.355510	-0.215104
C31	C	-1.435940	-0.385755	0.443911
C32	C	-1.437128	-0.414931	0.584917
H33	H	-0.831802	-0.226312	0.199141
C34	C	-1.175623	-1.005135	0.339185
C35	C	-1.293522	-1.064800	0.365326
H36	H	-1.114972	-1.047456	0.399780
H37	H	-1.170571	-0.921990	0.344254
H38	H	-1.161364	-1.005517	0.255794
H39	H	-1.307785	-1.064410	0.448714
H40	H	-1.298577	-1.147967	0.360269
H41	H	-0.852053	-0.513966	0.224506
H42	H	-1.574854	-0.633843	0.084147
C43	C	-1.527428	-0.626701	-0.370056
C44	C	-1.427749	-0.548613	-0.332134
H45	H	-1.521636	-0.709230	-0.318843
H46	H	-1.525362	-0.623966	-0.457101
H47	H	-1.602887	-0.599875	-0.359920
H48	H	-1.352289	-0.575434	-0.342279
H49	H	-1.429803	-0.551353	-0.245068
H50	H	-1.453251	-0.226329	-0.422298
C51	C	-1.205343	-0.493180	0.232023
C52	C	-1.077699	-0.489180	0.228315
H53	H	-1.242656	-0.575714	0.240141
H54	H	-1.239966	-0.440207	0.155486
H55	H	-1.219970	-0.466350	0.302972
H56	H	-1.063071	-0.516002	0.157359
H57	H	-1.043065	-0.542172	0.304860
H58	H	-1.643271	-0.820826	0.015778
C59	C	-0.898470	-0.128236	0.192440
C60	C	-1.026114	-0.132234	0.196143
H61	H	-0.861153	-0.045706	0.184345
H62	H	-0.883837	-0.155050	0.121495
H63	H	-0.863850	-0.181227	0.268984
H64	H	-1.060736	-0.079250	0.119594
H65	H	-1.040756	-0.105404	0.267095
C66	C	-1.727391	-0.983698	-0.068301
C67	C	-1.646742	-1.064746	0.012315
H68	H	-1.780932	-1.025992	-0.121805
H69	H	-1.680835	-0.915043	-0.119428
H70	H	-1.775117	-0.955110	-0.018337
H71	H	-1.599009	-1.093327	-0.037649
H72	H	-1.693304	-1.133423	0.063448
H73	H	-1.250579	-0.860047	0.408257
H74	H	-1.269584	-0.633862	0.389256
H75	H	-1.440597	-0.454540	-0.153653
H76	H	-1.463657	-0.166888	-0.222317
