data_functionalizedCrystal
_audit_creation_method	'MofGen! by Chris Wilmer'
_symmetry_space_group_name_H-M	'P1'
_symmetry_Int_Tables_number	1
_symmetry_cell_setting	triclinic
loop_
_symmetry_equiv_pos_as_xyz
  x,y,z
_cell_length_a	17.640112
_cell_length_b	29.839131
_cell_length_c	29.839125
_cell_angle_alpha	89.988394
_cell_angle_beta	101.177745
_cell_angle_gamma	101.266684
loop_
_atom_site_label
_atom_site_type_symbol
_atom_site_fract_x
_atom_site_fract_y
_atom_site_fract_z
Zn1	Zn	1.208289	-0.039909	-0.115399
Zn2	Zn	1.208165	-0.115027	-0.040283
Zn3	Zn	1.076117	-0.055107	-0.055443
Zn4	Zn	1.076029	-0.130232	-0.130542
O5	O	1.142150	-0.085069	-0.085417
O6	O	1.318886	-0.037151	-0.092752
O7	O	1.190634	-0.107076	0.020571
O8	O	1.093738	0.009787	-0.063404
O9	O	1.318796	-0.092340	-0.037565
O10	O	1.190844	0.020952	-0.107453
O11	O	1.093619	-0.063052	0.009433
O12	O	0.965491	-0.077795	-0.078088
O13	O	1.093588	-0.118253	-0.191399
O14	O	0.965426	-0.132989	-0.133262
O15	O	1.190759	-0.051894	-0.180273
O16	O	1.190549	-0.179922	-0.052249
O17	O	1.093469	-0.191092	-0.118562
C18	C	0.936778	-0.108692	-0.108964
C19	C	0.848919	-0.118809	-0.119048
C20	C	0.560020	-0.008204	-0.008813
C21	C	0.477463	-0.017720	-0.018295
C22	C	0.477450	-0.075272	-0.075649
C23	C	0.560009	-0.065760	-0.066174
C24	C	0.601287	-0.032226	-0.032755
C25	C	0.601276	-0.089782	-0.090116
C26	C	0.683827	-0.080272	-0.080639
C27	C	0.725112	-0.046741	-0.047221
C28	C	0.683839	-0.022716	-0.023279
C29	C	0.559996	-0.123318	-0.123532
C30	C	0.601263	-0.147340	-0.147474
C31	C	0.683816	-0.137828	-0.138000
C32	C	0.725100	-0.104297	-0.104582
C33	C	0.725089	-0.161852	-0.161943
C34	C	0.807640	-0.152343	-0.152467
C35	C	0.807652	-0.094787	-0.095106
C36	C	1.142007	-0.201808	-0.085411
C37	C	1.142018	-0.251741	-0.085415
C38	C	1.192791	-0.555529	-0.050919
C39	C	1.192889	-0.743191	-0.050925
O40	O	1.235945	-0.762491	-0.021591
N41	N	1.142314	-0.772492	-0.085432
C42	C	1.091714	-0.754874	-0.119941
O43	O	1.048705	-0.784102	-0.149294
C44	C	1.091621	-0.567213	-0.119936
C45	C	1.142194	-0.537915	-0.085425
C46	C	1.243361	-0.526232	-0.016411
C47	C	1.243333	-0.479320	-0.016408
C48	C	1.192736	-0.461705	-0.050914
C49	C	1.142166	-0.491003	-0.085422
C50	C	1.041026	-0.549595	-0.154447
C51	C	1.041009	-0.502676	-0.154443
C52	C	1.091582	-0.473378	-0.119932
C53	C	1.091541	-0.426476	-0.119925
N54	N	1.142116	-0.397175	-0.085419
C55	C	1.192714	-0.414790	-0.050913
C56	C	1.091766	-0.853399	-0.119941
C57	C	1.091788	-0.900314	-0.119942
C58	C	1.192964	-0.888628	-0.050926
C59	C	1.192937	-0.841712	-0.050924
C60	C	1.142341	-0.824098	-0.085434
C61	C	1.192651	-0.316271	-0.050910
C62	C	1.192616	-0.269356	-0.050909
C63	C	1.091443	-0.281046	-0.119926
C64	C	1.091474	-0.327958	-0.119925
C65	C	1.142085	-0.345568	-0.085415
O66	O	1.048514	-0.407144	-0.149247
O67	O	1.235729	-0.385554	-0.021570
C68	C	1.192819	-0.602442	-0.050922
C69	C	1.142250	-0.631739	-0.085430
C70	C	1.091653	-0.614125	-0.119936
C71	C	1.142272	-0.678655	-0.085431
C72	C	1.192869	-0.696269	-0.050925
C73	C	1.243445	-0.666969	-0.016418
C74	C	1.243417	-0.620056	-0.016416
C75	C	1.041077	-0.643425	-0.154442
C76	C	1.041109	-0.690337	-0.154442
C77	C	1.091706	-0.707952	-0.119936
C78	C	1.348324	-0.061354	-0.061778
C79	C	1.436183	-0.051248	-0.051705
C80	C	1.142177	-0.085074	-0.202592
C81	C	1.142189	-0.085076	-0.252525
C82	C	1.142315	0.032129	-0.085430
C83	C	1.142385	0.082071	-0.085436
C84	C	1.091647	-0.119520	-0.614899
C85	C	1.091619	-0.119575	-0.427230
O86	O	1.048568	-0.148954	-0.407894
N87	N	1.142206	-0.085033	-0.397968
C88	C	1.192801	-0.050472	-0.415628
O89	O	1.235823	-0.021090	-0.386434
C90	C	1.192825	-0.050416	-0.603297
C91	C	1.142240	-0.084963	-0.632556
C92	C	1.041065	-0.154065	-0.644158
C93	C	1.041075	-0.154052	-0.691072
C94	C	1.091668	-0.119495	-0.708728
C95	C	1.142250	-0.084950	-0.679470
C96	C	1.243416	-0.015854	-0.620956
C97	C	1.243416	-0.015842	-0.667877
C98	C	1.192830	-0.050389	-0.697135
C99	C	1.192854	-0.050381	-0.744040
N100	N	1.142266	-0.084923	-0.773301
C101	C	1.091673	-0.119480	-0.755645
C102	C	1.192786	-0.050505	-0.317099
C103	C	1.192782	-0.050519	-0.270181
C104	C	1.091597	-0.119622	-0.281787
C105	C	1.091607	-0.119609	-0.328704
C106	C	1.142198	-0.085047	-0.346360
C107	C	1.091700	-0.119451	-0.854168
C108	C	1.091717	-0.119437	-0.901086
C109	C	1.192898	-0.050332	-0.889477
C110	C	1.192884	-0.050348	-0.842563
C111	C	1.142278	-0.084910	-0.824910
O112	O	1.235875	-0.021014	-0.763408
O113	O	1.048645	-0.148852	-0.784848
C114	C	1.091636	-0.119533	-0.567985
C115	C	1.142218	-0.084989	-0.538727
C116	C	1.192811	-0.050431	-0.556383
C117	C	1.142213	-0.085003	-0.491810
C118	C	1.091621	-0.119560	-0.474154
C119	C	1.041033	-0.154103	-0.503415
C120	C	1.041044	-0.154090	-0.550329
C121	C	1.243399	-0.015889	-0.527122
C122	C	1.243385	-0.015905	-0.480208
C123	C	1.192792	-0.050462	-0.462552
C124	C	1.142168	-0.085026	0.031308
C125	C	1.142310	-0.084879	0.081258
H126	H	0.443830	-0.102577	-0.102857
H127	H	0.841263	-0.067473	-0.067899
H128	H	1.050524	-0.147571	-0.924907
H129	H	1.233988	-0.022359	-0.331468
O130	O	0.991867	-0.187591	-0.578803
C131	C	0.940833	-0.167882	-0.611783
H132	H	0.968753	-0.130622	-0.615614
H133	H	0.930220	-0.187397	-0.645991
H134	H	0.882260	-0.169690	-0.600414
H135	H	1.284585	0.012228	-0.456388
H136	H	1.284598	0.012253	-0.541492
H137	H	1.234080	-0.022219	-0.818738
O138	O	0.991976	-0.187728	-0.486267
C139	C	1.009179	-0.230522	-0.495766
H140	H	1.072322	-0.225523	-0.501432
H141	H	1.002347	-0.253506	-0.465691
H142	H	0.966780	-0.247141	-0.527854
H143	H	1.050415	-0.147740	-0.352524
O144	O	0.684948	-0.194366	-0.194455
C145	C	0.637217	-0.174334	-0.228985
H146	H	0.662128	-0.136086	-0.228967
H147	H	0.636281	-0.190746	-0.263637
H148	H	0.574648	-0.179972	-0.222276
H149	H	1.050245	-0.266697	-0.148019
O150	O	1.292645	-0.543259	0.017104
C151	C	1.371395	-0.522670	0.016258
H152	H	1.372952	-0.488427	-0.000849
H153	H	1.406885	-0.516940	0.052729
H154	H	1.398026	-0.545991	-0.003790
O155	O	0.847610	-0.175703	-0.175781
C156	C	0.793475	-0.207346	-0.207303
H157	H	0.734645	-0.195726	-0.215645
H158	H	0.817349	-0.209442	-0.239949
H159	H	0.784657	-0.242456	-0.191804
O160	O	0.805302	-0.037584	-0.038010
C161	C	0.832837	-0.077446	-0.023221
H162	H	0.785251	-0.108819	-0.036315
H163	H	0.888077	-0.079100	-0.037124
H164	H	0.847450	-0.076655	0.015736
H165	H	0.717450	0.004597	0.003928
H166	H	0.593632	0.019109	0.018393
H167	H	0.492777	-0.131060	-0.131247
O168	O	1.042645	-0.836339	-0.153522
C169	C	1.059880	-0.845794	-0.196331
H170	H	1.090292	-0.876339	-0.193789
H171	H	1.002805	-0.854001	-0.222989
H172	H	1.100477	-0.814687	-0.206830
O173	O	1.042431	-0.356392	-0.153501
C174	C	1.059635	-0.342910	-0.196309
H175	H	1.122770	-0.322706	-0.191364
H176	H	1.052824	-0.374544	-0.219288
H177	H	1.017222	-0.320579	-0.212891
H178	H	0.443867	0.001847	0.001201
O179	O	0.992088	-0.718831	-0.187979
C180	C	1.037078	-0.740745	-0.211870
H181	H	1.097000	-0.740852	-0.189180
H182	H	1.004892	-0.777457	-0.221578
H183	H	1.045722	-0.721647	-0.244169
H184	H	1.233864	-0.330604	-0.022809
O185	O	1.241821	-0.240956	-0.017361
C186	C	1.286471	-0.266569	0.013098
H187	H	1.289203	-0.299691	-0.004997
H188	H	1.348749	-0.245813	0.025005
H189	H	1.257568	-0.274914	0.043917
O190	O	0.561040	-0.179885	-0.179936
C191	C	0.479328	-0.183137	-0.183158
H192	H	0.468072	-0.149741	-0.169797
H193	H	0.447973	-0.189848	-0.220403
H194	H	0.455864	-0.212451	-0.161881
O195	O	1.292430	-0.450917	0.017172
C196	C	1.275207	-0.464381	0.059980
H197	H	1.244828	-0.501956	0.057437
H198	H	1.332284	-0.459400	0.086638
H199	H	1.234585	-0.442674	0.070481
H200	H	1.234118	-0.817860	-0.022822
H201	H	1.234092	-0.022198	-0.903861
H202	H	1.050404	-0.147760	-0.267403
H203	H	1.284598	-0.596205	0.011687
O204	O	1.242137	-0.905810	-0.017473
C205	C	1.231316	-0.953499	-0.024884
H206	H	1.205318	-0.962889	-0.062509
H207	H	1.290554	-0.964471	-0.015126
H208	H	1.189327	-0.971700	-0.003010
H209	H	1.050599	-0.924166	-0.148041
H210	H	0.999840	-0.573443	-0.182548
O211	O	1.042528	-0.153074	-0.837096
C212	C	0.997882	-0.183553	-0.872989
H213	H	1.030266	-0.181362	-0.902721
H214	H	0.989415	-0.219931	-0.860413
H215	H	0.937864	-0.174012	-0.884856
O216	O	0.991785	-0.485645	-0.187992
C217	C	0.947176	-0.521566	-0.218456
H218	H	0.944477	-0.555327	-0.200364
H219	H	0.884884	-0.515214	-0.230366
H220	H	0.976092	-0.523203	-0.249272
H221	H	1.284641	-0.681319	0.011678
H222	H	0.999876	-0.629088	-0.182542
H223	H	0.999881	-0.182183	-0.714891
H224	H	0.999861	-0.182206	-0.629788
H225	H	1.284608	0.012278	-0.597141
O226	O	1.241952	-0.016917	-0.241828
C227	C	1.286616	0.013578	-0.267478
H228	H	1.254241	0.011415	-0.304632
H229	H	1.295095	0.049947	-0.252950
H230	H	1.346628	0.004032	-0.265592
H231	H	1.284611	0.012305	-0.682249
