data_functionalizedCrystal
_audit_creation_method	'MofGen! by Chris Wilmer'
_symmetry_space_group_name_H-M	'P1'
_symmetry_Int_Tables_number	1
_symmetry_cell_setting	triclinic
loop_
_symmetry_equiv_pos_as_xyz
  x,y,z
_cell_length_a	14.395555
_cell_length_b	14.560438
_cell_length_c	14.560438
_cell_angle_alpha	60.000518
_cell_angle_beta	90.002136
_cell_angle_gamma	59.999305
loop_
_atom_site_label
_atom_site_type_symbol
_atom_site_fract_x
_atom_site_fract_y
_atom_site_fract_z
Zr1	Zr	0.894914	1.005237	-0.120460
O2	O	0.746582	1.196847	-0.267113
O3	O	0.940386	0.813633	-0.075506
O4	O	0.940383	1.005238	-0.267107
O5	O	0.746587	1.005240	0.075629
O6	O	1.093257	1.005231	-0.267099
O7	O	0.746585	1.005243	-0.075512
O8	O	1.093262	0.662486	0.075640
O9	O	0.746582	1.347985	-0.267110
O10	O	1.073867	0.892435	-0.056324
O11	O	0.959781	0.892438	0.056465
O12	O	0.959778	1.118028	-0.169121
O13	O	0.845691	1.118031	-0.056332
Zr14	Zr	1.138735	1.005222	0.120605
Zr15	Zr	1.138731	1.005226	-0.120447
Zr16	Zr	0.894918	1.005233	0.120592
Zr17	Zr	0.894915	1.246285	-0.120456
Zr18	Zr	1.138734	0.764174	0.120600
O19	O	1.093263	1.196825	0.075650
O20	O	1.093258	1.196832	-0.267095
O21	O	0.746587	1.196841	0.075632
O22	O	1.287067	0.813612	0.267258
O23	O	1.287062	0.813618	-0.075487
O24	O	0.940391	0.813627	0.267240
O25	O	1.287062	1.005219	-0.075484
O26	O	1.093266	1.005221	0.267251
O27	O	0.940392	1.005228	0.267243
O28	O	1.287064	1.005216	0.075657
O29	O	0.940384	1.347976	-0.267100
O30	O	1.093265	0.662482	0.267245
O31	O	1.287067	0.662474	0.267255
O32	O	1.287064	0.662477	0.075651
O33	O	0.746585	1.347981	-0.075506
O34	O	0.940387	1.347973	-0.075496
O35	O	1.073871	0.892431	0.169265
O36	O	1.187957	0.892428	0.056477
O37	O	1.073868	1.118020	-0.056320
O38	O	0.959781	1.118023	0.056469
C39	C	1.016824	0.703716	0.000067
C40	C	1.016824	0.601385	0.000065
C41	C	1.076373	0.553307	-0.058810
C42	C	1.076378	0.457148	-0.058799
C43	C	0.957274	0.457156	0.058962
C44	C	0.957277	0.553307	0.058957
C45	C	0.711847	1.005243	0.000056
C46	C	0.608341	1.005248	0.000051
C47	C	0.485545	1.128250	-0.061441
C48	C	0.454709	1.066762	-0.106008
C49	C	0.454754	1.066731	0.044609
C50	C	0.578868	0.943759	-0.044578
C51	C	0.578909	0.943745	0.106098
C52	C	0.548146	0.882167	0.061558
C53	C	1.321802	1.005216	0.000088
C54	C	1.425308	1.005211	0.000094
C55	C	1.016820	1.005235	-0.301447
C56	C	1.016818	1.005237	-0.403780
C57	C	1.016825	1.306743	0.000078
C58	C	1.016825	1.409074	0.000080
C59	C	0.957274	1.122984	-0.606889
C60	C	0.957264	1.122992	-0.510742
C61	C	1.076377	0.887466	-0.392968
C62	C	1.076379	0.887459	-0.489115
C63	C	1.016829	1.005224	0.301592
C64	C	1.016831	1.005222	0.403925
C65	C	1.321801	0.703702	0.000083
C66	C	1.425307	0.601366	0.000086
C67	C	1.016829	0.703710	0.301586
C68	C	1.016830	0.601377	0.403917
C69	C	1.321806	0.703696	0.301602
C70	C	1.425314	0.601359	0.403939
C71	C	0.711843	1.306762	-0.301458
C72	C	0.608335	1.409100	-0.403794
C73	C	0.711848	1.306757	0.000062
C74	C	0.608341	1.409092	0.000058
C75	C	1.016820	1.306749	-0.301442
C76	C	1.016819	1.409082	-0.403773
C77	C	1.414384	0.553290	-0.058790
C78	C	1.511643	0.457143	-0.058791
C79	C	1.630746	0.457153	0.058971
C80	C	1.533488	0.553305	0.058964
C81	C	1.076384	0.553295	0.510874
C82	C	1.076372	0.457152	0.607021
C83	C	0.957252	0.457177	0.489242
C84	C	0.957258	0.553325	0.393097
C85	C	1.533494	0.553277	0.393145
C86	C	1.630747	0.457128	0.489305
C87	C	1.511625	0.457149	0.607049
C88	C	1.414375	0.553302	0.510890
H89	H	1.124862	0.592448	-0.106762
H90	H	0.908783	1.218874	-0.693977
C91	C	1.499630	0.404254	-0.123549
H92	H	1.573045	0.340114	-0.115124
H93	H	1.459228	0.366738	-0.094472
H94	H	1.459217	0.473287	-0.201017
H95	H	1.124870	0.418004	-0.106739
C96	C	0.891765	0.404280	0.123726
H97	H	0.900281	0.340140	0.115287
H98	H	0.921173	0.366769	0.201187
H99	H	0.813411	0.473321	0.094636
H100	H	1.124887	0.592421	0.519690
C101	C	1.141884	0.757934	-0.275317
H102	H	1.177346	0.687798	-0.282649
H103	H	1.198239	0.753038	-0.235358
H104	H	1.090472	0.753045	-0.235367
C105	C	0.891742	0.404302	0.477348
H106	H	0.900277	0.340142	0.549926
H107	H	0.813392	0.473330	0.437392
H108	H	0.921163	0.366788	0.437398
H109	H	0.632425	0.891803	0.195744
H110	H	1.718836	0.418007	0.106909
H111	H	1.124865	0.418009	0.694106
H112	H	0.632226	0.891811	-0.082348
H113	H	0.908783	0.592451	0.106905
H114	H	0.573804	0.778072	0.113566
C115	C	1.141896	0.757915	-0.477219
H116	H	1.177373	0.687781	-0.399749
H117	H	1.090491	0.753022	-0.512283
H118	H	1.198257	0.753018	-0.512277
H119	H	0.401249	1.118739	0.082276
H120	H	0.908765	1.218885	-0.519557
C121	C	0.451195	1.268747	-0.131794
H122	H	0.407970	1.312250	-0.207126
H123	H	0.406769	1.312876	-0.100898
H124	H	0.517669	1.267784	-0.130778
C125	C	0.382403	1.136987	-0.227131
H126	H	0.359374	1.224386	-0.270742
H127	H	0.426182	1.094145	-0.259195
H128	H	0.317028	1.135780	-0.226180
C129	C	1.749741	0.404235	0.477428
H130	H	1.742322	0.446624	0.399960
H131	H	1.790158	0.419994	0.512487
H132	H	1.790151	0.313451	0.512496
C133	C	1.545526	0.606146	0.275505
H134	H	1.623886	0.563744	0.282853
H135	H	1.510067	0.590387	0.235544
H136	H	1.510065	0.696929	0.235548
C137	C	1.295389	0.606165	-0.123557
H138	H	1.239028	0.670307	-0.115121
H139	H	1.286856	0.643675	-0.201018
H140	H	1.286868	0.537126	-0.094471
C141	C	1.545497	0.606207	0.123719
H142	H	1.472079	0.670369	0.115267
H143	H	1.585906	0.537195	0.201185
H144	H	1.585898	0.643728	0.094626
C145	C	0.891740	0.606224	0.275438
H146	H	0.856271	0.563826	0.282763
H147	H	0.835391	0.697003	0.235489
H148	H	0.943148	0.590458	0.235483
C149	C	1.499595	0.404285	0.724691
H150	H	1.421236	0.446706	0.717344
H151	H	1.535055	0.313507	0.764656
H152	H	1.535057	0.420056	0.764642
C153	C	1.295367	0.606203	0.522757
H154	H	1.239017	0.670362	0.450170
H155	H	1.286824	0.537188	0.562705
H156	H	1.286837	0.643726	0.562701
