data_functionalizedCrystal
_audit_creation_method	'MofGen! by Chris Wilmer'
_symmetry_space_group_name_H-M	'P1'
_symmetry_Int_Tables_number	1
_symmetry_cell_setting	triclinic
loop_
_symmetry_equiv_pos_as_xyz
  x,y,z
_cell_length_a	21.295417
_cell_length_b	18.101398
_cell_length_c	18.101389
_cell_angle_alpha	90.024327
_cell_angle_beta	89.977434
_cell_angle_gamma	89.974227
loop_
_atom_site_label
_atom_site_type_symbol
_atom_site_fract_x
_atom_site_fract_y
_atom_site_fract_z
Zn1	Zn	-0.250755	-1.132124	-0.418817
Zn2	Zn	-0.356008	-1.132021	-0.294967
Zn3	Zn	-0.250748	-1.008283	-0.294979
Zn4	Zn	-0.355981	-1.008235	-0.418755
O5	O	-0.303373	-1.070166	-0.356880
O6	O	-0.264731	-1.235743	-0.402409
O7	O	-0.342054	-1.115584	-0.191335
O8	O	-0.162660	-1.024774	-0.311437
O9	O	-0.342060	-1.235668	-0.311417
O10	O	-0.162664	-1.115759	-0.402421
O11	O	-0.264720	-1.024674	-0.191344
O12	O	-0.264694	-0.904644	-0.311377
O13	O	-0.342014	-1.024692	-0.522397
O14	O	-0.342008	-0.904609	-0.402315
O15	O	-0.264705	-1.115713	-0.522442
O16	O	-0.444094	-1.115538	-0.311357
O17	O	-0.444074	-1.024592	-0.402304
C18	C	-0.303348	-0.877755	-0.356841
C19	C	-0.303352	-0.795441	-0.356842
C20	C	-0.466925	-1.070069	-0.356839
C21	C	-0.536893	-1.070095	-0.356846
C22	C	-0.303357	-1.070209	-0.550042
C23	C	-0.303350	-1.070227	-0.632356
C24	C	-0.569749	-1.117492	-0.309538
C25	C	-0.635491	-1.117527	-0.309555
C26	C	-0.668375	-1.070151	-0.356871
C27	C	-0.635511	-1.022751	-0.404188
C28	C	-0.569770	-1.022722	-0.404175
N29	N	-0.771637	-1.005367	-0.362504
N30	N	-0.834089	-1.005396	-0.362512
C31	C	-0.866450	-1.070234	-0.356914
N32	N	-0.834001	-1.135044	-0.351293
N33	N	-0.771543	-1.135014	-0.351282
C34	C	-0.739661	-1.070177	-0.356891
C35	C	-0.970592	-1.117673	-0.309622
C36	C	-1.036335	-1.117709	-0.309644
C37	C	-1.036354	-1.022926	-0.404273
C38	C	-0.970612	-1.022897	-0.404255
C39	C	-0.937734	-1.070269	-0.356925
C40	C	-0.139183	-1.070283	-0.356937
C41	C	-0.069215	-1.070334	-0.356961
C42	C	-0.303399	-1.263328	-0.356919
C43	C	-0.303410	-1.345642	-0.356935
C44	C	-0.303391	-0.496350	-0.356904
C45	C	-0.254504	-0.527673	-0.299967
C46	C	-0.254635	-0.613291	-0.299724
C47	C	-0.303371	-0.644733	-0.356873
C48	C	-0.369679	-0.613615	-0.335543
C49	C	-0.369407	-0.527970	-0.335147
C50	C	-0.286547	-0.527965	-0.435305
C51	C	-0.285070	-0.613615	-0.434877
C52	C	-0.303364	-0.728592	-0.356857
C53	C	-0.303403	-0.412491	-0.356919
C54	C	-0.303232	-1.070270	-0.931447
C55	C	-0.351719	-1.012805	-0.900093
C56	C	-0.351944	-1.012960	-0.814475
C57	C	-0.303291	-1.070248	-0.783064
C58	C	-0.321303	-1.148274	-0.814168
C59	C	-0.321621	-1.147953	-0.899813
C60	C	-0.236626	-1.050388	-0.899877
C61	C	-0.237011	-1.048652	-0.814226
C62	C	-0.303323	-1.070240	-0.699205
C63	C	-0.303202	-1.070283	-1.015306
C64	C	-0.303344	-1.070166	-0.164469
C65	C	-0.303173	-1.070291	-0.082155
H66	H	-0.542982	-1.156067	-0.271002
H67	H	-0.265769	-0.633745	-0.241630
H68	H	-0.407065	-0.507249	-0.374809
C69	C	-0.334645	-0.500599	-0.492617
H70	H	-0.364846	-0.470054	-0.468922
H71	H	-0.355123	-0.541783	-0.514455
H72	H	-0.313636	-0.473059	-0.529824
C73	C	-0.533624	-0.970582	-0.456212
H74	H	-0.489762	-0.977353	-0.449429
H75	H	-0.544438	-0.920835	-0.445330
H76	H	-0.544365	-0.981403	-0.505986
C77	C	-0.388699	-0.500932	-0.257720
H78	H	-0.396626	-0.542291	-0.226802
H79	H	-0.425618	-0.471691	-0.261395
H80	H	-0.355746	-0.472145	-0.237187
H81	H	-0.369476	-1.165420	-0.792722
C82	C	-0.934424	-1.169787	-0.257571
H83	H	-0.963410	-1.198030	-0.229406
H84	H	-0.908814	-1.141468	-0.225267
H85	H	-0.908742	-1.202027	-0.285933
C86	C	-0.185622	-1.101107	-0.785404
H87	H	-0.146115	-1.086772	-0.805121
H88	H	-0.194885	-1.150228	-0.800315
H89	H	-0.184159	-1.098687	-0.733005
H90	H	-1.063086	-1.156310	-0.271122
H91	H	-0.943858	-0.984298	-0.442774
C92	C	-0.420207	-0.641130	-0.389803
H93	H	-0.401267	-0.671916	-0.426032
H94	H	-0.439442	-0.600016	-0.413279
H95	H	-0.451080	-0.668448	-0.363570
C96	C	-0.671641	-1.169660	-0.257509
H97	H	-0.642644	-1.197865	-0.229316
H98	H	-0.697254	-1.201923	-0.285869
H99	H	-0.697318	-1.141347	-0.225220
C100	C	-0.336718	-0.934801	-0.786055
H101	H	-0.336835	-0.934792	-0.733571
H102	H	-0.367456	-0.901069	-0.803622
H103	H	-0.296464	-0.920326	-0.803432
C104	C	-0.389313	-0.642534	-0.258949
H105	H	-0.357195	-0.673562	-0.239867
H106	H	-0.427196	-0.669879	-0.263281
H107	H	-0.395647	-0.601994	-0.226438
C108	C	-0.187821	-1.106919	-0.927281
H109	H	-0.207904	-1.142467	-0.957814
H110	H	-0.169229	-1.130996	-0.886114
H111	H	-0.156228	-1.082165	-0.954842
C112	C	-0.671681	-0.970637	-0.456233
H113	H	-0.715540	-0.977437	-0.449460
H114	H	-0.660877	-0.981441	-0.506001
H115	H	-0.660945	-0.920878	-0.445338
H116	H	-0.205183	-0.507102	-0.313191
H117	H	-0.340562	-0.954772	-0.920680
H118	H	-1.063127	-0.984355	-0.442802
H119	H	-0.205465	-0.634331	-0.313095
C120	C	-0.275101	-1.207674	-0.786690
H121	H	-0.286858	-1.254411	-0.806154
H122	H	-0.276090	-1.209501	-0.734257
H123	H	-0.233849	-1.195757	-0.802722
C124	C	-0.269373	-0.498568	-0.221943
H125	H	-0.305246	-0.467411	-0.223915
H126	H	-0.234508	-0.471319	-0.203834
H127	H	-0.277554	-0.539024	-0.189945
H128	H	-0.239037	-0.506392	-0.454697
C129	C	-0.219154	-0.641097	-0.456610
H130	H	-0.202851	-0.671412	-0.418313
H131	H	-0.192185	-0.599951	-0.463896
H132	H	-0.221765	-0.668901	-0.501026
C133	C	-0.214456	-0.974864	-0.929038
H134	H	-0.245618	-0.954749	-0.960742
H135	H	-0.176379	-0.980942	-0.955716
H136	H	-0.207707	-0.942301	-0.888645
C137	C	-0.218653	-0.971088	-0.786755
H138	H	-0.251240	-0.951942	-0.756417
H139	H	-0.212496	-0.939352	-0.827903
H140	H	-0.180901	-0.974125	-0.758976
C141	C	-0.329674	-0.642516	-0.495258
H142	H	-0.360180	-0.674076	-0.473588
H143	H	-0.306266	-0.669293	-0.531048
H144	H	-0.350109	-0.602002	-0.518380
H145	H	-0.401314	-1.026087	-0.793988
C146	C	-0.418006	-1.030350	-0.929172
H147	H	-0.416262	-1.072547	-0.960334
H148	H	-0.433438	-0.989341	-0.956410
H149	H	-0.445212	-1.040001	-0.888709
H150	H	-0.370312	-1.164808	-0.919793
H151	H	-0.287839	-1.192220	-0.920557
