data_functionalizedCrystal
_audit_creation_method	'MofGen! by Chris Wilmer'
_symmetry_space_group_name_H-M	'P1'
_symmetry_Int_Tables_number	1
_symmetry_cell_setting	triclinic
loop_
_symmetry_equiv_pos_as_xyz
  x,y,z
_cell_length_a	8.559649
_cell_length_b	10.268362
_cell_length_c	8.559649
_cell_angle_alpha	90.003495
_cell_angle_beta	110.221336
_cell_angle_gamma	89.994945
loop_
_atom_site_label
_atom_site_type_symbol
_atom_site_fract_x
_atom_site_fract_y
_atom_site_fract_z
O1	O	2.126883	-0.108280	0.055035
O2	O	1.651398	-0.108285	-0.028747
O3	O	1.931031	-0.108281	0.250887
O4	O	1.847250	-0.108284	-0.224598
O5	O	1.931007	0.108320	0.250892
O6	O	1.651374	0.108316	-0.028741
O7	O	2.126859	0.108321	0.055040
Cu8	Cu	1.889115	0.128096	0.013150
Cu9	Cu	1.889143	-0.128060	0.013144
O10	O	1.847226	0.108317	-0.224593
C11	C	1.591077	0.000015	-0.035093
C12	C	1.411378	0.000013	-0.053992
N13	N	1.889107	0.308262	0.013158
C14	C	1.889124	0.573932	0.013140
C15	C	1.889108	0.426094	0.013144
C16	C	2.187180	0.000018	0.061387
C17	C	2.366879	0.000012	0.080286
C18	C	1.937369	0.000017	0.311198
C19	C	1.956268	0.000010	0.490898
N20	N	1.889149	0.691774	0.013143
C21	C	1.840889	0.000016	-0.284904
C22	C	1.821990	0.000014	-0.464604
H23	H	1.466258	0.000006	0.209705
H24	H	2.085696	0.000022	0.590286
O25	O	1.667500	-0.000168	0.417001
C26	C	1.580454	-0.112364	0.435317
H27	H	1.635895	-0.149756	0.568578
H28	H	1.443661	-0.087138	0.406640
H29	H	1.591414	-0.190921	0.345545
O30	O	1.292609	0.000064	-0.208282
C31	C	1.133607	0.000023	-0.193447
H32	H	1.142905	0.041032	-0.066776
H33	H	1.045399	0.062903	-0.296028
H34	H	1.083942	-0.103894	-0.205544
