data_functionalizedCrystal
_audit_creation_method	'MofGen! by Chris Wilmer'
_symmetry_space_group_name_H-M	'P1'
_symmetry_Int_Tables_number	1
_symmetry_cell_setting	triclinic
loop_
_symmetry_equiv_pos_as_xyz
  x,y,z
_cell_length_a	15.944551
_cell_length_b	10.723024
_cell_length_c	9.198806
_cell_angle_alpha	90.003648
_cell_angle_beta	89.995864
_cell_angle_gamma	96.016696
loop_
_atom_site_label
_atom_site_type_symbol
_atom_site_fract_x
_atom_site_fract_y
_atom_site_fract_z
O1	O	0.117808	-1.655699	-0.120886
O2	O	0.451141	-1.322366	0.212447
O3	O	0.784475	-0.989033	0.545780
O4	O	0.129085	-1.292405	-0.120892
O5	O	0.462418	-0.959071	0.212442
O6	O	0.795751	-0.625738	0.545775
O7	O	0.001228	-1.483973	-0.120876
O8	O	0.334562	-1.150639	0.212457
O9	O	0.667895	-0.817306	0.545791
O10	O	0.245664	-1.464131	-0.120902
O11	O	0.578998	-1.130798	0.212431
O12	O	0.912331	-0.797465	0.545764
O13	O	0.001228	-1.483958	0.120909
O14	O	0.334561	-1.150624	0.454242
O15	O	0.667895	-0.817291	0.787576
O16	O	0.129084	-1.292389	0.120893
O17	O	0.462418	-0.959056	0.454227
O18	O	0.795751	-0.625723	0.787560
O19	O	0.117808	-1.655684	0.120899
O20	O	0.451141	-1.322351	0.454232
O21	O	0.784474	-0.989018	0.787565
Cu22	Cu	0.123446	-1.474035	0.142973
Cu23	Cu	0.456779	-1.140702	0.476306
Cu24	Cu	0.790113	-0.807369	0.809639
Cu25	Cu	0.123446	-1.474053	-0.142966
Cu26	Cu	0.456780	-1.140720	0.190367
Cu27	Cu	0.790113	-0.807387	0.523701
O28	O	0.245664	-1.464116	0.120883
O29	O	0.578997	-1.130783	0.454216
O30	O	0.912331	-0.797449	0.787549
C31	C	0.128264	-1.245908	0.000000
C32	C	0.461597	-0.912574	0.333334
C33	C	0.794931	-0.579241	0.666667
C34	C	0.125809	-1.107384	-0.000001
C35	C	0.459142	-0.774051	0.333332
C36	C	0.792475	-0.440718	0.666665
C37	C	-0.030070	-1.483141	0.000017
C38	C	0.303263	-1.149808	0.333350
C39	C	0.636596	-0.816475	0.666684
C40	C	-0.123331	-1.480672	0.000018
C41	C	0.210003	-1.147339	0.333351
C42	C	0.543336	-0.814005	0.666684
C43	C	0.118629	-1.702181	0.000003
C44	C	0.451962	-1.368848	0.333337
C45	C	0.785295	-1.035514	0.666670
C46	C	0.121084	-1.840704	-0.000005
C47	C	0.454417	-1.507371	0.333329
C48	C	0.787750	-1.174038	0.666662
C49	C	-0.338901	-1.356026	-0.000004
C50	C	-0.005568	-1.022693	0.333329
C51	C	0.327766	-0.689360	0.666662
C52	C	-0.399587	-1.413900	0.119211
C53	C	-0.066254	-1.080567	0.452545
C54	C	0.267080	-0.747234	0.785878
C55	C	-0.294082	-1.476205	0.000006
C56	C	0.039251	-1.142871	0.333340
C57	C	0.372585	-0.809538	0.666673
C58	C	-0.399570	-1.413944	-0.119170
C59	C	-0.066237	-1.080610	0.214164
C60	C	0.267097	-0.747277	0.547497
C61	C	-0.459020	-1.471880	-0.000011
C62	C	-0.125686	-1.138547	0.333323
C63	C	0.207647	-0.805214	0.666656
C64	C	-0.353540	-1.534111	0.119320
C65	C	-0.020207	-1.200778	0.452654
C66	C	0.313127	-0.867445	0.785987
C67	C	-0.353516	-1.534138	-0.119168
C68	C	-0.020183	-1.200804	0.214165
C69	C	0.313150	-0.867471	0.547499
C70	C	-0.414184	-1.592099	0.000077
C71	C	-0.080851	-1.258766	0.333410
C72	C	0.252482	-0.925432	0.666743
C73	C	-0.199066	-1.478692	0.000018
C74	C	0.134268	-1.145359	0.333351
C75	C	0.467601	-0.812025	0.666684
C76	C	-0.554035	-1.469402	-0.000011
C77	C	-0.220702	-1.136069	0.333322
C78	C	0.112632	-0.802735	0.666655
C79	C	0.276963	-1.464947	-0.000013
C80	C	0.610296	-1.131614	0.333320
C81	C	0.943630	-0.798281	0.666653
C82	C	0.370223	-1.467417	-0.000024
C83	C	0.703556	-1.134083	0.333310
C84	C	1.036890	-0.800750	0.666643
N85	N	0.123445	-1.474032	0.344087
N86	N	0.456779	-1.140699	0.677420
N87	N	0.790112	-0.807365	1.010753
C88	C	0.197350	-1.031498	-0.000010
C89	C	0.530684	-0.698165	0.333323
C90	C	0.864017	-0.364831	0.666657
C91	C	0.194814	-0.888327	-0.000012
C92	C	0.528148	-0.554993	0.333322
C93	C	0.861481	-0.221660	0.666655
N94	N	0.123441	-1.474067	-0.344080
N95	N	0.456774	-1.140733	-0.010747
N96	N	0.790107	-0.807400	0.322587
C97	C	0.069525	-1.554469	0.416290
C98	C	0.402859	-1.221136	0.749624
C99	C	0.736192	-0.887802	1.082957
C100	C	0.069522	-1.554488	0.583703
C101	C	0.402856	-1.221155	0.917036
C102	C	0.736189	-0.887822	1.250369
H103	H	-0.306164	-1.256273	0.000113
H104	H	0.027169	-0.922940	0.333447
H105	H	0.360502	-0.589606	0.666780
F106	F	0.009186	-1.644509	0.664858
F107	F	0.342519	-1.311176	0.998191
F108	F	0.675853	-0.977843	1.331525
H109	H	-0.419938	-1.363104	-0.219964
H110	H	-0.086604	-1.029770	0.113369
H111	H	0.246729	-0.696437	0.446702
H112	H	0.169603	-1.405176	0.406209
H113	H	0.502936	-1.071843	0.739542
H114	H	0.836270	-0.738510	1.072876
H115	H	0.059835	-0.905903	-0.000006
H116	H	0.393169	-0.572570	0.333327
H117	H	0.726502	-0.239237	0.666660
H118	H	-0.333095	-1.584931	-0.219959
H119	H	0.000238	-1.251598	0.113374
H120	H	0.333571	-0.918264	0.446708
H121	H	0.023361	-1.623316	0.354170
H122	H	0.356694	-1.289983	0.687503
H123	H	0.690028	-0.956649	1.020837
F124	F	-0.426251	-1.347456	0.250947
F125	F	-0.092918	-1.014122	0.584280
F126	F	0.240416	-0.680789	0.917613
F127	F	-0.327035	-1.600491	0.251200
F128	F	0.006298	-1.267157	0.584533
F129	F	0.339632	-0.933824	0.917867
H130	H	0.260477	-1.072523	-0.000009
H131	H	0.593810	-0.739189	0.333325
H132	H	0.927144	-0.405856	0.666658
F133	F	-0.456780	-1.722596	0.000162
F134	F	-0.123447	-1.389263	0.333496
F135	F	0.209886	-1.055930	0.666829
H136	H	0.256060	-0.823120	-0.000025
H137	H	0.589393	-0.489787	0.333308
H138	H	0.922726	-0.156454	0.666642
H139	H	0.062682	-1.066360	-0.000032
H140	H	0.396015	-0.733027	0.333301
H141	H	0.729349	-0.399693	0.666635
H142	H	0.169609	-1.405202	0.593837
H143	H	0.502943	-1.071869	0.927171
H144	H	0.836276	-0.738535	1.260504
