data_functionalizedCrystal
_audit_creation_method	'MofGen! by Chris Wilmer'
_symmetry_space_group_name_H-M	'P1'
_symmetry_Int_Tables_number	1
_symmetry_cell_setting	triclinic
loop_
_symmetry_equiv_pos_as_xyz
  x,y,z
_cell_length_a	12.837943
_cell_length_b	10.654551
_cell_length_c	11.892057
_cell_angle_alpha	94.334991
_cell_angle_beta	86.040206
_cell_angle_gamma	90.342816
loop_
_atom_site_label
_atom_site_type_symbol
_atom_site_fract_x
_atom_site_fract_y
_atom_site_fract_z
O1	O	1.383772	-0.334631	-0.093976
O2	O	1.081850	-0.318491	-0.093983
O3	O	1.239752	-0.144579	-0.093977
O4	O	1.225870	-0.508543	-0.093982
O5	O	1.227800	-0.128806	0.094032
O6	O	1.069898	-0.302718	0.094026
O7	O	1.371819	-0.318858	0.094033
Zn8	Zn	1.218961	-0.308284	0.123880
Zn9	Zn	1.234709	-0.329065	-0.123830
O10	O	1.213918	-0.492770	0.094027
C11	C	1.037214	-0.305152	0.000021
C12	C	0.922021	-0.288889	0.000018
N13	N	1.208221	-0.294102	0.292936
C14	C	1.232756	-0.089783	0.000026
C15	C	1.229706	0.049992	0.000021
C16	C	0.682468	-0.484393	0.000031
C17	C	0.574232	-0.469119	0.000030
C18	C	0.597311	-0.243068	0.000021
C19	C	0.705547	-0.258342	0.000023
C20	C	0.748121	-0.379008	0.000026
C21	C	0.856359	-0.394282	0.000020
C22	C	0.879436	-0.168231	0.000019
C23	C	0.771200	-0.152957	0.000017
C24	C	1.416455	-0.332197	0.000027
C25	C	1.531650	-0.348460	0.000023
C26	C	1.220913	-0.547566	0.000022
C27	C	1.223964	-0.687342	0.000020
C28	C	1.234790	0.107054	-0.102464
C29	C	1.231915	0.238389	-0.102465
C30	C	1.218877	0.255587	0.102513
C31	C	1.221744	0.124255	0.102512
C32	C	1.175149	0.405180	-0.225595
C33	C	1.180250	0.462247	-0.328085
C34	C	1.247624	0.414391	-0.418568
C35	C	1.309921	0.309471	-0.406565
C36	C	1.304829	0.252411	-0.304074
C37	C	1.237431	0.300264	-0.213594
C38	C	1.278520	-0.042539	0.225635
C39	C	1.273435	-0.099601	0.328128
C40	C	1.206067	-0.051747	0.418621
C41	C	1.143784	0.053179	0.406629
C42	C	1.148870	0.110241	0.304136
C43	C	1.216236	0.062378	0.213643
C44	C	1.133507	-0.195428	0.470481
C45	C	1.141005	-0.205337	0.352138
C46	C	1.267947	-0.372961	0.352084
C47	C	1.260449	-0.363052	0.470427
C48	C	1.193225	-0.274284	0.529621
C49	C	1.185722	-0.264383	0.647966
C50	C	1.312670	-0.432000	0.647910
C51	C	1.320168	-0.441908	0.529568
N52	N	1.245448	-0.343242	0.707115
H53	H	0.891021	-0.492534	0.000025
H54	H	1.212397	0.316068	0.185958
H55	H	0.736520	-0.054713	0.000027
H56	H	0.717132	-0.582644	0.000033
H57	H	1.374902	-0.514177	0.481356
H58	H	1.364790	0.270524	-0.480246
Br59	Br	0.485132	-0.612146	0.000044
Br60	Br	1.064348	0.252649	0.287863
Br61	Br	1.389368	0.110033	-0.287775
Br62	Br	1.052362	0.118142	0.529447
Br63	Br	0.539512	-0.079318	0.000036
H64	H	0.932903	-0.082420	0.000007
Br65	Br	1.199181	-0.129175	0.557728
H66	H	1.241270	0.046593	-0.185919
Br67	Br	1.254563	0.491859	-0.557652
H68	H	1.361290	-0.496218	0.696075
Br69	Br	1.095707	0.604633	-0.344375
H70	H	1.324157	-0.185035	0.337888
Br71	Br	1.083684	0.470115	-0.102805
Br72	Br	1.369972	-0.107474	0.102828
H73	H	1.092376	-0.141124	0.303990
Br74	Br	1.359186	-0.493406	0.271730
Br75	Br	1.094488	-0.143919	0.728301
Br76	Br	1.042264	-0.074978	0.550821
