data_functionalizedCrystal
_audit_creation_method	'MofGen! by Chris Wilmer'
_symmetry_space_group_name_H-M	'P1'
_symmetry_Int_Tables_number	1
_symmetry_cell_setting	triclinic
loop_
_symmetry_equiv_pos_as_xyz
  x,y,z
_cell_length_a	16.625547
_cell_length_b	29.839132
_cell_length_c	16.625539
_cell_angle_alpha	89.965692
_cell_angle_beta	90.024822
_cell_angle_gamma	89.954800
loop_
_atom_site_label
_atom_site_type_symbol
_atom_site_fract_x
_atom_site_fract_y
_atom_site_fract_z
Zn1	Zn	1.232553	0.178853	0.455967
Zn2	Zn	1.482553	0.428853	0.705967
Zn3	Zn	1.732553	0.678853	0.955967
Zn4	Zn	1.982553	0.928853	1.205967
Zn5	Zn	1.232402	0.253984	0.321120
Zn6	Zn	1.482402	0.503984	0.571120
Zn7	Zn	1.732402	0.753984	0.821120
Zn8	Zn	1.982402	1.003984	1.071120
Zn9	Zn	1.097715	0.178869	0.321138
Zn10	Zn	1.347715	0.428869	0.571138
Zn11	Zn	1.597715	0.678869	0.821138
Zn12	Zn	1.847715	0.928869	1.071138
Zn13	Zn	1.097631	0.253957	0.455900
Zn14	Zn	1.347631	0.503957	0.705900
Zn15	Zn	1.597631	0.753957	0.955900
Zn16	Zn	1.847631	1.003957	1.205900
O17	O	1.165075	0.216416	0.388531
O18	O	1.415075	0.466416	0.638531
O19	O	1.665075	0.716416	0.888531
O20	O	1.915075	0.966416	1.138531
O21	O	1.345365	0.188824	0.438100
O22	O	1.595365	0.438824	0.688100
O23	O	1.845365	0.688824	0.938100
O24	O	2.095365	0.938824	1.188100
O25	O	1.214508	0.244038	0.208290
O26	O	1.464508	0.494038	0.458290
O27	O	1.714508	0.744038	0.708290
O28	O	1.964508	0.994038	0.958290
O29	O	1.115699	0.116000	0.339058
O30	O	1.365699	0.366000	0.589058
O31	O	1.615699	0.616000	0.839058
O32	O	1.865699	0.866000	1.089058
O33	O	1.345255	0.244023	0.339029
O34	O	1.595255	0.494023	0.589029
O35	O	1.845255	0.744023	0.839029
O36	O	2.095255	0.994023	1.089029
O37	O	1.214764	0.115988	0.438117
O38	O	1.464764	0.365988	0.688117
O39	O	1.714764	0.615988	0.938117
O40	O	1.964764	0.865988	1.188117
O41	O	1.115553	0.188851	0.208303
O42	O	1.365553	0.438851	0.458303
O43	O	1.615553	0.688851	0.708303
O44	O	1.865553	0.938851	0.958303
O45	O	0.984871	0.188825	0.338993
O46	O	1.234871	0.438825	0.588993
O47	O	1.484871	0.688825	0.838993
O48	O	1.734871	0.938825	1.088993
O49	O	1.115557	0.243976	0.568741
O50	O	1.365557	0.493976	0.818741
O51	O	1.615557	0.743976	1.068741
O52	O	1.865557	0.993976	1.318741
O53	O	0.984810	0.243991	0.438003
O54	O	1.234810	0.493991	0.688003
O55	O	1.484810	0.743991	0.938003
O56	O	1.734810	0.993991	1.188003
O57	O	1.214683	0.188798	0.568791
O58	O	1.464683	0.438798	0.818791
O59	O	1.714683	0.688798	1.068791
O60	O	1.964683	0.938798	1.318791
O61	O	1.214427	0.316848	0.338964
O62	O	1.464427	0.566848	0.588964
O63	O	1.714427	0.816848	0.838964
O64	O	1.964427	1.066848	1.088964
O65	O	1.115411	0.316828	0.437986
O66	O	1.365411	0.566828	0.687986
O67	O	1.615411	0.816828	0.937986
O68	O	1.865411	1.066828	1.187986
C69	C	0.955584	0.216407	0.388493
C70	C	1.205584	0.466407	0.638493
C71	C	1.455584	0.716407	0.888493
C72	C	1.705584	0.966407	1.138493
C73	C	0.865963	0.216414	0.388496
C74	C	1.115963	0.466414	0.638496
C75	C	1.365963	0.716414	0.888496
C76	C	1.615963	0.966414	1.138496
C77	C	0.793181	0.216415	0.388506
C78	C	1.043181	0.466415	0.638506
C79	C	1.293181	0.716415	0.888506
C80	C	1.543181	0.966415	1.138506
C81	C	0.701872	0.216417	0.388526
C82	C	0.951872	0.466417	0.638526
C83	C	1.201872	0.716417	0.888526
C84	C	1.451872	0.966417	1.138526
C85	C	0.629096	0.216422	0.388547
C86	C	0.879096	0.466422	0.638547
C87	C	1.129096	0.716422	0.888547
C88	C	1.379096	0.966422	1.138547
C89	C	0.537782	0.216425	0.388566
C90	C	0.787782	0.466425	0.638566
C91	C	1.037782	0.716425	0.888566
C92	C	1.287782	0.966425	1.138566
C93	C	1.164916	0.333138	0.388483
C94	C	1.414916	0.583138	0.638483
C95	C	1.664916	0.833138	0.888483
C96	C	1.914916	1.083138	1.138483
C97	C	1.164921	0.383073	0.388490
C98	C	1.414921	0.633073	0.638490
C99	C	1.664921	0.883073	0.888490
C100	C	1.914921	1.133073	1.138490
C101	C	1.216669	0.692714	0.337013
C102	C	1.466669	0.942714	0.587013
C103	C	1.716669	1.192714	0.837013
C104	C	1.966669	1.442714	1.087013
C105	C	1.216746	0.880387	0.337031
C106	C	1.466746	1.130387	0.587031
C107	C	1.716746	1.380387	0.837031
C108	C	1.966746	1.630387	1.087031
O109	O	1.260657	0.904650	0.293249
O110	O	1.510657	1.154650	0.543249
O111	O	1.760657	1.404650	0.793249
O112	O	2.010657	1.654650	1.043249
N113	N	1.165160	0.903858	0.388544
N114	N	1.415160	1.153858	0.638544
N115	N	1.665160	1.403858	0.888544
N116	N	1.915160	1.653858	1.138544
C117	C	1.113554	0.880408	0.440061
C118	C	1.363554	1.130408	0.690061
C119	C	1.613554	1.380408	0.940061
C120	C	1.863554	1.630408	1.190061
O121	O	1.069684	0.904677	0.483882
O122	O	1.319684	1.154677	0.733882
O123	O	1.569684	1.404677	0.983882
O124	O	1.819684	1.654677	1.233882
C125	C	1.113482	0.692735	0.440046
C126	C	1.363482	0.942735	0.690046
C127	C	1.613482	1.192735	0.940046
C128	C	1.863482	1.442735	1.190046
C129	C	1.165066	0.669267	0.388523
C130	C	1.415066	0.919267	0.638523
C131	C	1.665066	1.169267	0.888523
C132	C	1.915066	1.419267	1.138523
C133	C	1.268250	0.669246	0.285495
C134	C	1.518250	0.919246	0.535495
C135	C	1.768250	1.169246	0.785495
C136	C	2.018250	1.419246	1.035495
C137	C	1.268227	0.622330	0.285488
C138	C	1.518227	0.872330	0.535488
C139	C	1.768227	1.122330	0.785488
C140	C	2.018227	1.372330	1.035488
C141	C	1.216623	0.598883	0.336998
C142	C	1.466623	0.848883	0.586998
C143	C	1.716623	1.098883	0.836998
C144	C	1.966623	1.348883	1.086998
C145	C	1.165043	0.622352	0.388516
C146	C	1.415043	0.872352	0.638516
C147	C	1.665043	1.122352	0.888516
C148	C	1.915043	1.372352	1.138516
C149	C	1.061881	0.669286	0.491566
C150	C	1.311881	0.919286	0.741566
C151	C	1.561881	1.169286	0.991566
C152	C	1.811881	1.419286	1.241566
C153	C	1.061869	0.622365	0.491559
C154	C	1.311869	0.872365	0.741559
C155	C	1.561869	1.122365	0.991559
C156	C	1.811869	1.372365	1.241559
C157	C	1.113453	0.598897	0.440036
C158	C	1.363453	0.848897	0.690036
C159	C	1.613453	1.098897	0.940036
C160	C	1.863453	1.348897	1.190036
C161	C	1.113417	0.551989	0.440020
C162	C	1.363417	0.801989	0.690020
C163	C	1.613417	1.051989	0.940020
C164	C	1.863417	1.301989	1.190020
N165	N	1.165003	0.528518	0.388506
N166	N	1.415003	0.778518	0.638506
N167	N	1.665003	1.028518	0.888506
N168	N	1.915003	1.278518	1.138506
C169	C	1.216607	0.551965	0.336996
C170	C	1.466607	0.801965	0.586996
C171	C	1.716607	1.051965	0.836996
C172	C	1.966607	1.301965	1.086996
C173	C	1.113595	0.978938	0.440064
C174	C	1.363595	1.228938	0.690064
C175	C	1.613595	1.478938	0.940064
C176	C	1.863595	1.728938	1.190064
C177	C	1.113612	1.025856	0.440066
C178	C	1.363612	1.275856	0.690066
C179	C	1.613612	1.525856	0.940066
C180	C	1.863612	1.775856	1.190066
C181	C	1.216805	1.025832	0.337038
C182	C	1.466805	1.275832	0.587038
C183	C	1.716805	1.525832	0.837038
C184	C	1.966805	1.775832	1.087038
C185	C	1.216783	0.978914	0.337031
C186	C	1.466783	1.228914	0.587031
C187	C	1.716783	1.478914	0.837031
C188	C	1.966783	1.728914	1.087031
C189	C	1.165181	0.955467	0.388550
C190	C	1.415181	1.205467	0.638550
C191	C	1.665181	1.455467	0.888550
C192	C	1.915181	1.705467	1.138550
C193	C	1.216554	0.453439	0.336984
C194	C	1.466554	0.703439	0.586984
C195	C	1.716554	0.953439	0.836984
C196	C	1.966554	1.203439	1.086984
C197	C	1.216524	0.406520	0.336979
C198	C	1.466524	0.656520	0.586979
C199	C	1.716524	0.906520	0.836979
C200	C	1.966524	1.156520	1.086979
C201	C	1.113335	0.406548	0.440010
C202	C	1.363335	0.656548	0.690010
C203	C	1.613335	0.906548	0.940010
C204	C	1.863335	1.156548	1.190010
C205	C	1.113361	0.453463	0.440013
C206	C	1.363361	0.703463	0.690013
C207	C	1.613361	0.953463	0.940013
C208	C	1.863361	1.203463	1.190013
C209	C	1.164977	0.476908	0.388497
C210	C	1.414977	0.726908	0.638497
C211	C	1.664977	0.976908	0.888497
C212	C	1.914977	1.226908	1.138497
O213	O	1.069535	0.527697	0.483785
O214	O	1.319535	0.777697	0.733785
O215	O	1.569535	1.027697	0.983785
O216	O	1.819535	1.277697	1.233785
O217	O	1.260482	0.527688	0.293193
O218	O	1.510482	0.777688	0.543193
O219	O	1.760482	1.027688	0.793193
O220	O	2.010482	1.277688	1.043193
C221	C	1.216692	0.739629	0.337020
C222	C	1.466692	0.989629	0.587020
C223	C	1.716692	1.239629	0.837020
C224	C	1.966692	1.489629	1.087020
C225	C	1.165112	0.763098	0.388538
C226	C	1.415112	1.013098	0.638538
C227	C	1.665112	1.263098	0.888538
C228	C	1.915112	1.513098	1.138538
C229	C	1.113508	0.739651	0.440048
C230	C	1.363508	0.989651	0.690048
C231	C	1.613508	1.239651	0.940048
C232	C	1.863508	1.489651	1.190048
C233	C	1.165128	0.810016	0.388540
C234	C	1.415128	1.060016	0.638540
C235	C	1.665128	1.310016	0.888540
C236	C	1.915128	1.560016	1.138540
C237	C	1.216732	0.833463	0.337030
C238	C	1.466732	1.083463	0.587030
C239	C	1.716732	1.333463	0.837030
C240	C	1.966732	1.583463	1.087030
C241	C	1.268318	0.809992	0.285517
C242	C	1.518318	1.059992	0.535517
C243	C	1.768318	1.309992	0.785517
C244	C	2.018318	1.559992	1.035517
C245	C	1.268295	0.763076	0.285509
C246	C	1.518295	1.013076	0.535509
C247	C	1.768295	1.263076	0.785509
C248	C	2.018295	1.513076	1.035509
C249	C	1.061922	0.763122	0.491561
C250	C	1.311922	1.013122	0.741561
C251	C	1.561922	1.263122	0.991561
C252	C	1.811922	1.513122	1.241561
C253	C	1.061948	0.810037	0.491564
C254	C	1.311948	1.060037	0.741564
C255	C	1.561948	1.310037	0.991564
C256	C	1.811948	1.560037	1.241564
C257	C	1.113552	0.833484	0.440053
C258	C	1.363552	1.083484	0.690053
C259	C	1.613552	1.333484	0.940053
C260	C	1.863552	1.583484	1.190053
C261	C	1.375384	0.216425	0.388570
C262	C	1.625384	0.466425	0.638570
C263	C	1.875384	0.716425	0.888570
C264	C	2.125384	0.966425	1.138570
C265	C	1.465005	0.216429	0.388586
C266	C	1.715005	0.466429	0.638586
C267	C	1.965005	0.716429	0.888586
C268	C	2.215005	0.966429	1.138586
C269	C	1.165227	1.099237	0.388580
C270	C	1.415227	1.349237	0.638580
C271	C	1.665227	1.599237	0.888580
C272	C	1.915227	1.849237	1.138580
C273	C	1.165215	1.049303	0.388556
C274	C	1.415215	1.299303	0.638556
C275	C	1.665215	1.549303	0.888556
C276	C	1.915215	1.799303	1.138556
C277	C	1.165128	0.216382	0.598840
C278	C	1.415128	0.466382	0.848840
C279	C	1.665128	0.716382	1.098840
C280	C	1.915128	0.966382	1.348840
C281	C	1.165150	0.216368	0.688461
C282	C	1.415150	0.466368	0.938461
C283	C	1.665150	0.716368	1.188461
C284	C	1.915150	0.966368	1.438461
C285	C	1.165069	0.216417	0.179040
C286	C	1.415069	0.466417	0.429040
C287	C	1.665069	0.716417	0.679040
C288	C	1.915069	0.966417	0.929040
C289	C	1.165203	0.216304	0.089420
C290	C	1.415203	0.466304	0.339420
C291	C	1.665203	0.716304	0.589420
C292	C	1.915203	0.966304	0.839420
C293	C	1.165187	0.216318	1.016637
C294	C	1.415187	0.466318	1.266637
C295	C	1.665187	0.716318	1.516637
C296	C	1.915187	0.966318	1.766637
C297	C	1.165175	0.216333	0.925329
C298	C	1.415175	0.466333	1.175329
C299	C	1.665175	0.716333	1.425329
C300	C	1.915175	0.966333	1.675329
C301	C	1.165169	0.216343	0.852552
C302	C	1.415169	0.466343	1.102552
C303	C	1.665169	0.716343	1.352552
C304	C	1.915169	0.966343	1.602552
C305	C	1.165156	0.216358	0.761238
C306	C	1.415156	0.466358	1.011238
C307	C	1.665156	0.716358	1.261238
C308	C	1.915156	0.966358	1.511238
H309	H	1.258530	0.387413	0.295020
H310	H	1.508530	0.637413	0.545020
H311	H	1.758530	0.887413	0.795020
H312	H	2.008530	1.137413	1.045020
H313	H	1.071317	0.387450	0.481947
H314	H	1.321317	0.637450	0.731947
H315	H	1.571317	0.887450	0.981947
H316	H	1.821317	1.137450	1.231947
O317	O	1.323942	0.737770	0.229944
O318	O	1.573942	0.987770	0.479944
O319	O	1.823942	1.237770	0.729944
O320	O	2.073942	1.487770	0.979944
H321	H	1.364934	0.716357	0.266072
H322	H	1.614934	0.966357	0.516072
H323	H	1.864934	1.216357	0.766072
H324	H	2.114934	1.466357	1.016072
H325	H	1.258587	0.472523	0.295037
H326	H	1.508587	0.722523	0.545037
H327	H	1.758587	0.972523	0.795037
H328	H	2.008587	1.222523	1.045037
H329	H	1.310333	0.829091	0.243572
H330	H	1.560333	1.079091	0.493572
H331	H	1.810333	1.329091	0.743572
H332	H	2.060333	1.579091	0.993572
O333	O	1.057713	0.478782	0.495565
O334	O	1.307713	0.728782	0.745565
O335	O	1.557713	0.978782	0.995565
O336	O	1.807713	1.228782	1.245565
H337	H	1.093785	0.500123	0.536626
H338	H	1.343785	0.750123	0.786626
H339	H	1.593785	1.000123	1.036626
H340	H	1.843785	1.250123	1.286626
H341	H	1.310233	0.603225	0.243536
H342	H	1.560233	0.853225	0.493536
H343	H	1.810233	1.103225	0.743536
H344	H	2.060233	1.353225	0.993536
H345	H	1.019935	0.829141	0.533519
H346	H	1.269935	1.079141	0.783519
H347	H	1.519935	1.329141	1.033519
H348	H	1.769935	1.579141	1.283519
O349	O	1.006246	0.694588	0.547145
O350	O	1.256246	0.944588	0.797145
O351	O	1.506246	1.194588	1.047145
O352	O	1.756246	1.444588	1.297145
H353	H	0.965238	0.715999	0.511030
H354	H	1.215238	0.965999	0.761030
H355	H	1.465238	1.215999	1.011030
H356	H	1.715238	1.465999	1.261030
O357	O	1.057920	0.953659	0.495629
O358	O	1.307920	1.203659	0.745629
O359	O	1.557920	1.453659	0.995629
O360	O	1.807920	1.703659	1.245629
H361	H	1.093962	0.932251	0.536704
H362	H	1.343962	1.182251	0.786704
H363	H	1.593962	1.432251	1.036704
H364	H	1.843962	1.682251	1.286704
H365	H	1.019901	0.744035	0.533509
H366	H	1.269901	0.994035	0.783509
H367	H	1.519901	1.244035	1.033509
H368	H	1.769901	1.494035	1.283509
H369	H	1.258788	0.959808	0.295078
H370	H	1.508788	1.209808	0.545078
H371	H	1.758788	1.459808	0.795078
H372	H	2.008788	1.709808	1.045078
O373	O	1.323906	0.694532	0.229927
O374	O	1.573906	0.944532	0.479927
O375	O	1.823906	1.194532	0.729927
O376	O	2.073906	1.444532	0.979927
H377	H	1.359760	0.670323	0.194105
H378	H	1.609760	0.920323	0.444105
H379	H	1.859760	1.170323	0.694105
H380	H	2.109760	1.420323	0.944105
H381	H	1.071599	1.044960	0.482014
H382	H	1.321599	1.294960	0.732014
H383	H	1.571599	1.544960	0.982014
H384	H	1.821599	1.794960	1.232014
O385	O	1.272480	1.051125	0.281492
O386	O	1.522480	1.301125	0.531492
O387	O	1.772480	1.551125	0.781492
O388	O	2.022480	1.801125	1.031492
H389	H	1.263828	1.087692	0.290164
H390	H	1.513828	1.337692	0.540164
H391	H	1.763828	1.587692	0.790164
H392	H	2.013828	1.837692	1.040164
O393	O	1.006201	0.597075	0.547116
O394	O	1.256201	0.847075	0.797116
O395	O	1.506201	1.097075	1.047116
O396	O	1.756201	1.347075	1.297116
H397	H	0.970332	0.621280	0.582932
H398	H	1.220332	0.871280	0.832932
H399	H	1.470332	1.121280	1.082932
H400	H	1.720332	1.371280	1.332932
