data_functionalizedCrystal
_audit_creation_method	'MofGen! by Chris Wilmer'
_symmetry_space_group_name_H-M	'P1'
_symmetry_Int_Tables_number	1
_symmetry_cell_setting	triclinic
loop_
_symmetry_equiv_pos_as_xyz
  x,y,z
_cell_length_a	13.897449
_cell_length_b	18.215405
_cell_length_c	18.215399
_cell_angle_alpha	90.030551
_cell_angle_beta	90.018532
_cell_angle_gamma	90.026165
loop_
_atom_site_label
_atom_site_type_symbol
_atom_site_fract_x
_atom_site_fract_y
_atom_site_fract_z
Zn1	Zn	1.474633	-0.292967	0.416077
Zn2	Zn	1.807967	0.040367	0.749410
Zn3	Zn	2.141300	0.373700	1.082744
Zn4	Zn	1.474513	-0.416038	0.293005
Zn5	Zn	1.807847	-0.082705	0.626338
Zn6	Zn	2.141180	0.250629	0.959672
Zn7	Zn	1.313329	-0.292993	0.293027
Zn8	Zn	1.646662	0.040341	0.626361
Zn9	Zn	1.979995	0.373674	0.959694
Zn10	Zn	1.313284	-0.415999	0.416033
Zn11	Zn	1.646617	-0.082665	0.749366
Zn12	Zn	1.979951	0.250668	1.082700
O13	O	1.393940	-0.354499	0.354536
O14	O	1.727273	-0.021166	0.687869
O15	O	2.060607	0.312168	1.021202
O16	O	1.609599	-0.309298	0.399761
O17	O	1.942932	0.024035	0.733094
O18	O	2.276266	0.357369	1.066427
O19	O	1.453100	-0.399743	0.190024
O20	O	1.786434	-0.066410	0.523357
O21	O	2.119767	0.266924	0.856690
O22	O	1.334795	-0.190005	0.309378
O23	O	1.668128	0.143328	0.642711
O24	O	2.001462	0.476662	0.976044
O25	O	1.609511	-0.399718	0.309340
O26	O	1.942844	-0.066385	0.642674
O27	O	2.276178	0.266949	0.976007
O28	O	1.453305	-0.189986	0.399782
O29	O	1.786638	0.143347	0.733115
O30	O	2.119972	0.476681	1.066449
O31	O	1.334679	-0.309342	0.190040
O32	O	1.668012	0.023991	0.523373
O33	O	2.001345	0.357325	0.856707
O34	O	1.178341	-0.309304	0.309335
O35	O	1.511675	0.024029	0.642668
O36	O	1.845008	0.357363	0.976002
O37	O	1.334719	-0.399651	0.519023
O38	O	1.668052	-0.066318	0.852356
O39	O	2.001386	0.267016	1.185690
O40	O	1.178308	-0.399676	0.399707
O41	O	1.511642	-0.066343	0.733040
O42	O	1.844975	0.266990	1.066373
O43	O	1.453262	-0.309260	0.519055
O44	O	1.786595	0.024073	0.852389
O45	O	2.119928	0.357407	1.185722
O46	O	1.453057	-0.519017	0.309297
O47	O	1.786390	-0.185684	0.642631
O48	O	2.119724	0.147650	0.975964
O49	O	1.334602	-0.518988	0.399685
O50	O	1.667936	-0.185655	0.733019
O51	O	2.001269	0.147678	1.066352
C52	C	1.393838	-0.545705	0.354500
C53	C	1.727171	-0.212372	0.687833
C54	C	2.060505	0.120961	1.021167
C55	C	1.393883	-0.627504	0.354510
C56	C	1.727216	-0.294171	0.687843
C57	C	2.060549	0.039162	1.021176
C58	C	1.143326	-0.354489	0.354519
C59	C	1.476659	-0.021156	0.687852
C60	C	1.809992	0.312177	1.021185
C61	C	1.036112	-0.354503	0.354529
C62	C	1.369445	-0.021169	0.687862
C63	C	1.702778	0.312164	1.021196
C64	C	1.455707	-0.815689	0.307531
C65	C	1.789040	-0.482355	0.640865
C66	C	2.122373	-0.149022	0.974198
C67	C	1.455750	-0.892547	0.307549
C68	C	1.789083	-0.559214	0.640882
C69	C	2.122417	-0.225881	0.974216
C70	C	1.332296	-0.892557	0.401593
C71	C	1.665630	-0.559224	0.734926
C72	C	1.998963	-0.225891	1.068259
C73	C	1.332259	-0.815700	0.401578
C74	C	1.665592	-0.482367	0.734911
C75	C	1.998926	-0.149033	1.068245
C76	C	1.393963	-0.777268	0.354543
C77	C	1.727296	-0.443934	0.687877
C78	C	2.060629	-0.110601	1.021210
C79	C	1.394043	-0.930984	0.354576
C80	C	1.727377	-0.597650	0.687909
C81	C	2.060710	-0.264317	1.021242
C82	C	1.394090	-1.014317	0.354595
C83	C	1.727423	-0.680984	0.687929
C84	C	2.060756	-0.347651	1.021262
C85	C	1.393918	-0.693929	0.354524
C86	C	1.727251	-0.360595	0.687858
C87	C	2.060585	-0.027262	1.021191
C88	C	0.839817	-0.354505	0.354548
C89	C	1.173150	-0.021172	0.687882
C90	C	1.506483	0.312161	1.021215
C91	C	0.949049	-0.354502	0.354536
C92	C	1.282382	-0.021168	0.687869
C93	C	1.615716	0.312165	1.021202
C94	C	1.645533	-0.354509	0.354553
C95	C	1.978866	-0.021176	0.687886
C96	C	2.312199	0.312157	1.021219
C97	C	1.752747	-0.354514	0.354560
C98	C	2.086080	-0.021181	0.687894
C99	C	2.419413	0.312153	1.021227
C100	C	1.393999	-0.354448	0.546489
C101	C	1.727332	-0.021115	0.879822
C102	C	2.060665	0.312218	1.213155
C103	C	1.394024	-0.354427	0.628288
C104	C	1.727357	-0.021093	0.961621
C105	C	2.060690	0.312240	1.294954
C106	C	1.394068	-0.162546	0.354587
C107	C	1.727402	0.170787	0.687921
C108	C	2.060735	0.504121	1.021254
C109	C	1.394123	-0.080747	0.354609
C110	C	1.727457	0.252586	0.687943
C111	C	2.060790	0.585920	1.021276
C112	C	1.393937	-0.354496	0.163329
C113	C	1.727270	-0.021163	0.496663
C114	C	2.060604	0.312170	0.829996
C115	C	1.394099	-0.354311	0.081531
C116	C	1.727432	-0.020977	0.414864
C117	C	2.060765	0.312356	0.748198
C118	C	1.455771	-0.307316	0.816500
C119	C	1.789104	0.026017	1.149833
C120	C	2.122438	0.359351	1.483166
C121	C	1.455783	-0.307295	0.893358
C122	C	1.789116	0.026039	1.226692
C123	C	2.122449	0.359372	1.560025
C124	C	1.332345	-0.401424	0.893313
C125	C	1.665678	-0.068090	1.226647
C126	C	1.999011	0.265243	1.559980
C127	C	1.332329	-0.401441	0.816456
C128	C	1.665662	-0.068107	1.149789
C129	C	1.998996	0.265226	1.483123
C130	C	1.394048	-0.354388	0.778051
C131	C	1.727381	-0.021055	1.111384
C132	C	2.060714	0.312279	1.444718
C133	C	1.394075	-0.354349	0.931767
C134	C	1.727408	-0.021016	1.265101
C135	C	2.060741	0.312317	1.598434
C136	C	1.394087	-0.354326	1.015101
C137	C	1.727420	-0.020993	1.348434
C138	C	2.060753	0.312340	1.681768
C139	C	1.394035	-0.354410	0.694712
C140	C	1.727368	-0.021076	1.028045
C141	C	2.060701	0.312257	1.361379
H142	H	1.505951	-0.784399	0.269234
H143	H	1.839284	-0.451065	0.602567
H144	H	2.172618	-0.117732	0.935900
Cl145	Cl	1.533390	-0.248122	0.941691
Cl146	Cl	1.866723	0.085211	1.275024
Cl147	Cl	2.200057	0.418545	1.608357
H148	H	1.506030	-0.923826	0.269268
H149	H	1.839363	-0.590493	0.602602
H150	H	2.172696	-0.257160	0.935935
H151	H	1.282058	-0.923858	0.439886
H152	H	1.615391	-0.590525	0.773219
H153	H	1.948725	-0.257192	1.106552
Cl154	Cl	1.254636	-0.767396	0.460688
Cl155	Cl	1.587970	-0.434062	0.794021
Cl156	Cl	1.921303	-0.100729	1.127355
H157	H	1.506024	-0.269001	0.785233
H158	H	1.839357	0.064333	1.118566
H159	H	2.172690	0.397666	1.451899
Cl160	Cl	1.254765	-0.460576	0.941599
Cl161	Cl	1.588098	-0.127243	1.274932
Cl162	Cl	1.921432	0.206091	1.608266
H163	H	1.282059	-0.439772	0.785150
H164	H	1.615393	-0.106439	1.118484
H165	H	1.948726	0.226895	1.451817
