data_functionalizedCrystal
_audit_creation_method	'MofGen! by Chris Wilmer'
_symmetry_space_group_name_H-M	'P1'
_symmetry_Int_Tables_number	1
_symmetry_cell_setting	triclinic
loop_
_symmetry_equiv_pos_as_xyz
  x,y,z
_cell_length_a	12.759394
_cell_length_b	12.759401
_cell_length_c	12.759393
_cell_angle_alpha	90.020362
_cell_angle_beta	89.967706
_cell_angle_gamma	89.987695
loop_
_atom_site_label
_atom_site_type_symbol
_atom_site_fract_x
_atom_site_fract_y
_atom_site_fract_z
Zn1	Zn	-0.418275	-1.606254	-0.594028
Zn2	Zn	-0.593994	-1.606148	-0.418346
Zn3	Zn	-0.418322	-1.430556	-0.418362
Zn4	Zn	-0.593905	-1.430545	-0.593982
O5	O	-0.506124	-1.518376	-0.506180
O6	O	-0.441603	-1.753261	-0.570736
O7	O	-0.570748	-1.582816	-0.271327
O8	O	-0.271295	-1.453912	-0.441691
O9	O	-0.570703	-1.753183	-0.441664
O10	O	-0.271261	-1.582997	-0.570752
O11	O	-0.441682	-1.453810	-0.271339
O12	O	-0.441596	-1.283534	-0.441646
O13	O	-0.570551	-1.453892	-0.741009
O14	O	-0.570596	-1.283525	-0.570673
O15	O	-0.441516	-1.582986	-0.741043
O16	O	-0.741004	-1.582805	-0.441619
O17	O	-0.740938	-1.453789	-0.570657
C18	C	-0.506092	-1.245409	-0.506156
C19	C	-0.506104	-1.128632	-0.506171
C20	C	-0.439009	-0.964081	-0.573489
C21	C	-0.438999	-1.073805	-0.573482
C22	C	-0.573230	-1.073729	-0.438871
C23	C	-0.573244	-0.964007	-0.438884
C24	C	-0.371893	-0.909259	-0.640796
C25	C	-0.304768	-0.964154	-0.708098
C26	C	-0.304758	-1.073878	-0.708091
C27	C	-0.371873	-1.128707	-0.640782
C28	C	-0.779092	-1.518313	-0.506154
C29	C	-0.895869	-1.518382	-0.506178
C30	C	-0.895883	-1.652826	-0.371911
C31	C	-0.950752	-1.720076	-0.304790
C32	C	-1.060473	-1.720138	-0.304818
C33	C	-1.115329	-1.652945	-0.371978
C34	C	-1.060461	-1.585695	-0.439099
C35	C	-0.950737	-1.585638	-0.439061
C36	C	-1.060446	-1.451257	-0.573370
C37	C	-0.950724	-1.451189	-0.573338
C38	C	-1.115302	-1.384064	-0.640529
C39	C	-1.060434	-1.316808	-0.707647
C40	C	-0.950705	-1.316748	-0.707615
C41	C	-0.895856	-1.383939	-0.640459
C42	C	-0.232091	-1.518468	-0.506228
C43	C	-0.115314	-1.518507	-0.506249
C44	C	-0.506018	-1.518449	-0.780213
C45	C	-0.505973	-1.518481	-0.896990
C46	C	-0.506146	-0.792409	-0.506198
C47	C	-0.506128	-0.909186	-0.506192
C48	C	-0.438779	-1.585709	-0.951871
C49	C	-0.438741	-1.585734	-1.061595
C50	C	-0.573101	-1.451300	-1.061547
C51	C	-0.573133	-1.451270	-0.951825
C52	C	-0.371619	-1.652919	-0.897036
C53	C	-0.304420	-1.720154	-0.951918
C54	C	-0.304382	-1.720179	-1.061642
C55	C	-0.371543	-1.652969	-1.116485
C56	C	-0.506154	-1.518363	-0.233212
C57	C	-0.505903	-1.518535	-0.116436
H58	H	-0.371852	-1.218052	-0.640774
C59	C	-0.647049	-1.134034	-0.364835
H60	H	-0.687033	-1.085625	-0.324763
H61	H	-0.606805	-1.176821	-0.319122
H62	H	-0.692869	-1.176848	-0.404952
H63	H	-0.806542	-1.652770	-0.371867
C64	C	-0.647071	-0.903619	-0.364857
H65	H	-0.687030	-0.951981	-0.324759
H66	H	-0.692897	-0.860831	-0.404975
H67	H	-0.606827	-0.860799	-0.319152
H68	H	-0.906078	-1.774786	-0.250111
H69	H	-1.204670	-1.653010	-0.372004
C70	C	-1.120830	-1.794107	-0.230985
H71	H	-1.072451	-1.834112	-0.190979
H72	H	-1.163568	-1.839886	-0.271222
H73	H	-1.163698	-1.753949	-0.185186
H74	H	-0.627832	-1.396511	-0.907139
C75	C	-1.235992	-1.384129	-0.640560
H76	H	-1.260815	-1.433794	-0.590960
H77	H	-1.260747	-1.402279	-0.708378
H78	H	-1.260873	-1.316345	-0.622339
H79	H	-1.105106	-1.262110	-0.762328
H80	H	-0.906037	-1.261990	-0.762277
C81	C	-0.775166	-1.383877	-0.640428
H82	H	-0.750341	-1.334201	-0.690017
H83	H	-0.750283	-1.451656	-0.658640
H84	H	-0.750415	-1.365718	-0.572605
H85	H	-0.371494	-1.652983	-1.205829
C86	C	-0.371654	-1.652891	-0.776344
H87	H	-0.322029	-1.702540	-0.751545
H88	H	-0.439464	-1.671021	-0.751507
H89	H	-0.353471	-1.585090	-0.751522
H90	H	-0.249733	-1.774867	-0.907258
C91	C	-0.230475	-1.794135	-1.122014
H92	H	-0.240067	-1.784525	-1.195215
H93	H	-0.245877	-1.864712	-1.104032
H94	H	-0.159881	-1.778784	-1.104051
C95	C	-0.230953	-0.903852	-0.782141
H96	H	-0.190987	-0.952264	-0.822229
H97	H	-0.185132	-0.861035	-0.742039
H98	H	-0.271210	-0.861068	-0.827855
H99	H	-0.627780	-1.396581	-1.106208
H100	H	-0.250109	-1.118571	-0.762899
H101	H	-0.371888	-0.819916	-0.640805
