data_functionalizedCrystal
_audit_creation_method	'MofGen! by Chris Wilmer'
_symmetry_space_group_name_H-M	'P1'
_symmetry_Int_Tables_number	1
_symmetry_cell_setting	triclinic
loop_
_symmetry_equiv_pos_as_xyz
  x,y,z
_cell_length_a	12.759401
_cell_length_b	14.908520
_cell_length_c	12.759393
_cell_angle_alpha	93.263606
_cell_angle_beta	89.979062
_cell_angle_gamma	93.322137
loop_
_atom_site_label
_atom_site_type_symbol
_atom_site_fract_x
_atom_site_fract_y
_atom_site_fract_z
Zn1	Zn	1.582080	-0.359078	-0.618119
Zn2	Zn	1.571808	-0.509962	-0.452566
Zn3	Zn	1.406376	-0.359126	-0.442458
Zn4	Zn	1.396212	-0.509899	-0.628199
O5	O	1.489119	-0.434516	-0.535335
O6	O	1.727738	-0.379099	-0.596170
O7	O	1.549818	-0.490000	-0.304207
O8	O	1.438236	-0.232875	-0.457311
O9	O	1.720192	-0.489953	-0.474539
O10	O	1.567325	-0.232840	-0.586369
O11	O	1.428275	-0.379181	-0.296781
O12	O	1.258007	-0.379120	-0.467085
O13	O	1.420913	-0.489846	-0.773880
O14	O	1.250540	-0.489892	-0.603548
O15	O	1.557470	-0.379038	-0.766474
O16	O	1.539963	-0.636198	-0.484313
O17	O	1.410953	-0.636152	-0.613349
C18	C	1.216153	-0.434505	-0.535314
C19	C	1.099375	-0.434522	-0.535331
C20	C	1.040646	-0.492289	-0.606288
C21	C	0.930922	-0.492292	-0.606309
C22	C	0.938665	-0.376759	-0.464407
C23	C	1.048387	-0.376752	-0.464392
C24	C	0.778846	-0.524663	-0.732342
C25	C	0.720112	-0.582444	-0.803290
C26	C	0.749780	-0.670486	-0.825147
C27	C	0.838178	-0.700764	-0.776041
C28	C	0.896905	-0.642988	-0.705085
C29	C	0.867240	-0.554934	-0.683248
C30	C	1.200465	-0.344390	-0.338358
C31	C	1.259194	-0.286618	-0.267397
C32	C	1.229528	-0.198575	-0.245529
C33	C	1.141127	-0.168300	-0.294617
C34	C	1.082398	-0.226072	-0.365578
C35	C	1.112071	-0.314114	-0.387447
C36	C	1.473269	-0.668908	-0.551045
C37	C	1.466584	-0.769183	-0.557800
C38	C	1.588499	-0.957595	-0.436237
C39	C	1.582222	-1.051812	-0.442581
C40	C	1.447758	-1.051834	-0.576837
C41	C	1.454036	-0.957617	-0.570493
C42	C	1.524407	-0.910501	-0.500189
C43	C	1.530679	-0.816283	-0.493841
C44	C	1.396221	-0.816307	-0.628101
C45	C	1.389944	-0.910523	-0.634445
C46	C	1.763152	-0.434528	-0.535358
C47	C	1.879928	-0.434533	-0.535367
C48	C	1.489204	-0.434429	-0.809363
C49	C	1.489240	-0.434392	-0.926137
C50	C	1.505060	-0.199208	-0.519588
C51	C	1.511853	-0.098934	-0.512877
C52	C	1.560350	-0.376686	-0.977144
C53	C	1.560371	-0.376647	-1.086866
C54	C	1.418166	-0.492029	-1.094564
C55	C	1.418142	-0.492063	-0.984844
C56	C	1.605152	-0.270208	-1.229700
C57	C	1.676278	-0.212509	-1.280712
C58	C	1.779723	-0.198675	-1.244192
C59	C	1.812061	-0.242553	-1.156663
C60	C	1.740940	-0.300258	-1.105658
C61	C	1.637482	-0.314075	-1.142175
C62	C	1.373371	-0.598503	-0.842008
C63	C	1.302254	-0.656214	-0.791001
C64	C	1.198807	-0.670057	-0.827519
C65	C	1.166472	-0.626195	-0.915052
C66	C	1.237589	-0.568484	-0.966059
C67	C	1.341035	-0.554640	-0.929533
C68	C	1.489100	-0.434537	-0.262369
C69	C	1.489285	-0.434320	-0.145579
H70	H	1.082157	-0.539327	-0.664053
H71	H	1.360283	-0.538984	-1.142377
F72	F	0.988308	-0.193850	-0.417817
F73	F	0.687272	-0.731977	-0.900660
H74	H	1.520918	-0.281459	-1.259438
F75	F	0.990977	-0.675208	-0.652823
H76	H	1.277350	-0.151541	-0.187738
H77	H	1.634414	-1.090152	-0.390506
H78	H	0.862319	-0.772460	-0.793834
F79	F	1.327994	-0.766179	-0.696157
F80	F	1.315057	-0.960677	-0.709267
H81	H	1.618240	-0.329724	-0.929348
F82	F	1.483464	-0.583750	-0.803114
H83	H	1.767270	-0.335986	-1.034397
F84	F	1.109546	-0.074596	-0.271337
F85	F	1.372882	-1.101992	-0.651664
H86	H	1.331174	-0.311276	-0.227427
F87	F	1.231967	-0.438134	-0.361528
H88	H	1.896300	-0.231291	-1.126942
H89	H	1.837635	-0.151695	-1.285733
F90	F	1.663379	-0.907449	-0.361403
F91	F	0.626039	-0.550216	-0.855553
F92	F	0.747275	-0.430953	-0.709100
F93	F	1.641859	-0.165813	-1.373864
H94	H	0.897137	-0.329727	-0.406650
F95	F	1.203171	-0.521801	-1.059220
H96	H	1.082238	-0.637470	-0.944790
H97	H	1.587976	-0.777922	-0.436593
H98	H	1.140907	-0.717058	-0.785986
H99	H	1.328594	-0.691937	-0.719734
