data_functionalizedCrystal
_audit_creation_method	'MofGen! by Chris Wilmer'
_symmetry_space_group_name_H-M	'P1'
_symmetry_Int_Tables_number	1
_symmetry_cell_setting	triclinic
loop_
_symmetry_equiv_pos_as_xyz
  x,y,z
_cell_length_a	29.839131
_cell_length_b	25.639243
_cell_length_c	25.639233
_cell_angle_alpha	89.984038
_cell_angle_beta	89.980415
_cell_angle_gamma	90.044144
loop_
_atom_site_label
_atom_site_type_symbol
_atom_site_fract_x
_atom_site_fract_y
_atom_site_fract_z
Zn1	Zn	-0.178875	0.799215	-0.295653
Zn2	Zn	-0.253990	0.799134	-0.208216
Zn3	Zn	-0.178878	0.711791	-0.208226
Zn4	Zn	-0.253983	0.711732	-0.295615
O5	O	-0.216432	0.755468	-0.251927
O6	O	-0.188841	0.872370	-0.284065
O7	O	-0.244030	0.787539	-0.135052
O8	O	-0.116011	0.723447	-0.219844
O9	O	-0.244028	0.872310	-0.219826
O10	O	-0.116009	0.787677	-0.284075
O11	O	-0.188846	0.723369	-0.135060
O12	O	-0.188839	0.638618	-0.219807
O13	O	-0.244015	0.723346	-0.368785
O14	O	-0.244018	0.638575	-0.284011
O15	O	-0.188834	0.787619	-0.368813
O16	O	-0.316856	0.787482	-0.219789
O17	O	-0.316851	0.723268	-0.284001
C18	C	-0.216428	0.619626	-0.251907
C19	C	-0.216438	0.561512	-0.251910
C20	C	-0.187741	0.201174	-0.285433
C21	C	-0.187741	0.146570	-0.285436
O22	O	-0.163333	0.118354	-0.313912
N23	N	-0.216430	0.119229	-0.251942
C24	C	-0.245119	0.146496	-0.218438
O25	O	-0.269521	0.118227	-0.189949
C26	C	-0.245116	0.201099	-0.218433
C27	C	-0.216428	0.228437	-0.251933
C28	C	-0.159055	0.228512	-0.318930
C29	C	-0.159056	0.283112	-0.318927
C30	C	-0.187743	0.310375	-0.285427
C31	C	-0.216429	0.283037	-0.251930
C32	C	-0.273802	0.228365	-0.184927
C33	C	-0.273797	0.282972	-0.184925
C34	C	-0.245109	0.310310	-0.218425
C35	C	-0.245118	0.364901	-0.218428
N36	N	-0.216428	0.392241	-0.251922
C37	C	-0.187741	0.364978	-0.285422
C38	C	-0.245121	0.031825	-0.218452
C39	C	-0.245125	-0.022777	-0.218460
C40	C	-0.187747	-0.022700	-0.285457
C41	C	-0.187745	0.031904	-0.285451
C42	C	-0.216431	0.059166	-0.251946
C43	C	-0.187746	0.479643	-0.285414
C44	C	-0.187751	0.534249	-0.285410
C45	C	-0.245127	0.534167	-0.218411
C46	C	-0.245124	0.479566	-0.218417
C47	C	-0.216430	0.452306	-0.251920
O48	O	-0.269511	0.393151	-0.189965
O49	O	-0.163339	0.393254	-0.313902
C50	C	-0.333154	0.755374	-0.251902
C51	C	-0.383089	0.755381	-0.251908
C52	C	-0.692722	0.788965	-0.218541
C53	C	-0.880395	0.789030	-0.218561
O54	O	-0.904651	0.817509	-0.190172
N55	N	-0.903874	0.755577	-0.251967
C56	C	-0.880431	0.722108	-0.285372
O57	O	-0.904707	0.693659	-0.313790
C58	C	-0.692759	0.722046	-0.285354
C59	C	-0.669283	0.755498	-0.251943
C60	C	-0.669246	0.822415	-0.185133
C61	C	-0.622330	0.822396	-0.185126
C62	C	-0.598891	0.788928	-0.218528
C63	C	-0.622367	0.755479	-0.251936
C64	C	-0.669317	0.688580	-0.318761
C65	C	-0.622396	0.688568	-0.318755
C66	C	-0.598920	0.722020	-0.285344
C67	C	-0.552012	0.721993	-0.285331
N68	N	-0.528534	0.755446	-0.251925
C69	C	-0.551973	0.788914	-0.218524
C70	C	-0.978962	0.722142	-0.285378
C71	C	-1.025879	0.722156	-0.285382
C72	C	-1.025840	0.789079	-0.218572
C73	C	-0.978922	0.789062	-0.218566
C74	C	-0.955483	0.755595	-0.251973
C75	C	-0.453447	0.788872	-0.218512
C76	C	-0.406528	0.788849	-0.218506
C77	C	-0.406571	0.721928	-0.285318
C78	C	-0.453487	0.721949	-0.285322
C79	C	-0.476924	0.755425	-0.251917
O80	O	-0.527727	0.693533	-0.313709
O81	O	-0.527689	0.817366	-0.190118
C82	C	-0.739637	0.788984	-0.218548
C83	C	-0.763114	0.755535	-0.251956
C84	C	-0.739674	0.722067	-0.285358
C85	C	-0.810031	0.755549	-0.251960
C86	C	-0.833471	0.789017	-0.218559
C87	C	-0.809992	0.822470	-0.185153
C88	C	-0.763077	0.822452	-0.185146
C89	C	-0.763153	0.688614	-0.318763
C90	C	-0.810068	0.688635	-0.318767
C91	C	-0.833508	0.722102	-0.285365
C92	C	-0.099253	0.755577	-0.251965
C93	C	-0.049319	0.755624	-0.251981
C94	C	-0.216424	0.755485	-0.388300
C95	C	-0.216420	0.755492	-0.446415
C96	C	-0.216435	0.891841	-0.251949
C97	C	-0.216436	0.949955	-0.251958
C98	C	-0.187602	0.789002	-0.806798
C99	C	-0.187590	0.789008	-0.861402
O100	O	-0.163141	0.817457	-0.889656
N101	N	-0.216315	0.755550	-0.888697
C102	C	-0.245051	0.722079	-0.861385
O103	O	-0.269483	0.693621	-0.889616
C104	C	-0.245061	0.722071	-0.806782
C105	C	-0.216337	0.755535	-0.779490
C106	C	-0.158880	0.822463	-0.779505
C107	C	-0.158893	0.822457	-0.724905
C108	C	-0.187628	0.788990	-0.697597
C109	C	-0.216350	0.755529	-0.724889
C110	C	-0.273795	0.688598	-0.779471
C111	C	-0.273802	0.688592	-0.724864
C112	C	-0.245078	0.722056	-0.697571
C113	C	-0.245098	0.722056	-0.642980
N114	N	-0.216373	0.755514	-0.615685
C115	C	-0.187638	0.788981	-0.642993
C116	C	-0.245028	0.722100	-0.976056
C117	C	-0.245021	0.722110	-1.030658
C118	C	-0.187558	0.789039	-1.030671
C119	C	-0.187568	0.789030	-0.976068
C120	C	-0.216303	0.755558	-0.948761
C121	C	-0.187668	0.788967	-0.528328
C122	C	-0.187685	0.788959	-0.473723
C123	C	-0.245146	0.722029	-0.473714
C124	C	-0.245130	0.722038	-0.528315
C125	C	-0.216388	0.755509	-0.555621
O126	O	-0.269534	0.693620	-0.614692
O127	O	-0.163207	0.817430	-0.614756
C128	C	-0.216407	0.755482	-0.116085
C129	C	-0.216284	0.755576	-0.057971
H130	H	-0.268490	0.457307	-0.191145
H131	H	-0.387479	0.694677	-0.312512
Br132	Br	-0.947159	0.676717	-0.330721
Br133	Br	-0.701165	0.643184	-0.364114
H134	H	-0.164383	0.054158	-0.312729
Br135	Br	-0.284066	-0.059871	-0.173000
H136	H	-0.297163	0.206116	-0.157647
Br137	Br	-0.312732	0.319967	-0.139451
H138	H	-0.135692	0.206320	-0.346209
Br139	Br	-0.312782	0.643182	-0.816496
H140	H	-0.268485	0.054019	-0.191169
H141	H	-0.268485	0.556374	-0.191138
Br142	Br	-0.148585	0.834447	-0.939034
Br143	Br	-0.119906	0.867872	-0.687874
Br144	Br	-0.590589	0.643148	-0.364097
Br145	Br	-0.284031	0.676672	-0.939001
H146	H	-0.387415	0.816089	-0.191297
Br147	Br	-0.485248	0.834304	-0.173176
H148	H	-0.603219	0.849637	-0.157921
Br149	Br	-0.485348	0.676538	-0.330653
Br150	Br	-0.731224	0.867854	-0.139801
H151	H	-0.164160	0.816288	-1.052916
H152	H	-0.164387	-0.044907	-0.312733
H153	H	-0.688325	0.849671	-0.157933
Br154	Br	-0.284141	0.676611	-0.436643
H155	H	-0.959810	0.816301	-0.191360
H156	H	-0.829085	0.849719	-0.157955
H157	H	-1.044932	0.816330	-0.191376
H158	H	-1.044990	0.694912	-0.312584
Br159	Br	-0.841923	0.643230	-0.364114
H160	H	-0.135695	0.305366	-0.346205
H161	H	-0.297197	0.661328	-0.702633
Br162	Br	-0.284013	0.676703	-1.067691
Br163	Br	-0.148702	0.834380	-0.436686
H164	H	-0.268524	0.694794	-0.550538
Br165	Br	-0.148658	0.834388	-0.565377
Br166	Br	-0.148803	0.442656	-0.330882
Br167	Br	-0.119883	0.867895	-0.816556
H168	H	-0.164389	0.556505	-0.312691
H169	H	-0.744072	0.661361	-0.345963
