data_functionalizedCrystal
_audit_creation_method	'MofGen! by Chris Wilmer'
_symmetry_space_group_name_H-M	'P1'
_symmetry_Int_Tables_number	1
_symmetry_cell_setting	triclinic
loop_
_symmetry_equiv_pos_as_xyz
  x,y,z
_cell_length_a	10.654556
_cell_length_b	14.519709
_cell_length_c	9.730223
_cell_angle_alpha	89.994652
_cell_angle_beta	89.998368
_cell_angle_gamma	84.083841
loop_
_atom_site_label
_atom_site_type_symbol
_atom_site_fract_x
_atom_site_fract_y
_atom_site_fract_z
O1	O	1.666589	0.129560	-0.114241
O2	O	2.166589	0.629560	0.385759
O3	O	1.300993	0.141895	-0.114256
O4	O	1.800993	0.641895	0.385744
O5	O	1.493484	0.001540	-0.114236
O6	O	1.993484	0.501540	0.385764
O7	O	1.474097	0.269916	-0.114261
O8	O	1.974097	0.769916	0.385739
O9	O	1.493472	0.001536	0.114344
O10	O	1.993472	0.501536	0.614344
O11	O	1.300980	0.141891	0.114324
O12	O	1.800980	0.641891	0.614324
O13	O	1.666576	0.129556	0.114339
O14	O	2.166576	0.629556	0.614339
Zn15	Zn	1.483776	0.135723	0.150623
Zn16	Zn	1.983776	0.635723	0.650623
Zn17	Zn	1.483793	0.135728	-0.150540
Zn18	Zn	1.983793	0.635728	0.349460
O19	O	1.474085	0.269912	0.114319
O20	O	1.974085	0.769912	0.614319
C21	C	1.254197	0.140986	0.000033
C22	C	1.754197	0.640986	0.500033
C23	C	1.114781	0.138273	0.000027
C24	C	1.614781	0.638273	0.500027
C25	C	0.918279	0.134454	-0.124561
C26	C	1.418279	0.634454	0.375439
C27	C	1.049276	0.136998	-0.124569
C28	C	1.549276	0.636998	0.375431
C29	C	1.049282	0.136994	0.124641
C30	C	1.549282	0.636994	0.624641
C31	C	0.918287	0.134443	0.124648
C32	C	1.418287	0.634443	0.624648
C33	C	1.492574	-0.032827	0.000054
C34	C	1.992574	0.467173	0.500054
C35	C	1.489867	-0.135222	0.000055
C36	C	1.989867	0.364778	0.500055
C37	C	1.479900	-0.510170	0.000019
C38	C	1.979900	-0.010170	0.500019
C39	C	1.482667	-0.405848	0.000029
C40	C	1.982667	0.094152	0.500029
C41	C	1.484883	-0.322699	0.000038
C42	C	1.984883	0.177301	0.500038
C43	C	1.487651	-0.218370	0.000046
C44	C	1.987651	0.281630	0.500046
C45	C	1.713372	0.130465	0.000047
C46	C	2.213372	0.630465	0.500047
C47	C	1.852788	0.133179	0.000044
C48	C	2.352788	0.633179	0.500044
C49	C	1.474995	0.304278	0.000026
C50	C	1.974995	0.804278	0.500026
C51	C	1.477702	0.406673	0.000016
C52	C	1.977702	0.906673	0.500016
N53	N	1.483774	0.135719	0.356160
N54	N	1.983774	0.635719	0.856160
N55	N	1.483804	0.135725	-0.356077
N56	N	1.983804	0.635725	0.143923
C57	C	1.569038	0.073596	0.428095
C58	C	2.069038	0.573596	0.928095
C59	C	1.569051	0.073596	0.571978
C60	C	2.069051	0.573596	1.071978
C61	C	1.398531	0.197851	0.571978
C62	C	1.898531	0.697851	1.071978
C63	C	1.398514	0.197845	0.428098
C64	C	1.898514	0.697845	0.928098
H65	H	1.102627	0.138026	0.226090
H66	H	1.602627	0.638026	0.726090
H67	H	1.638461	0.023008	0.369526
H68	H	2.138461	0.523008	0.869526
F69	F	1.307755	0.263965	0.351534
F70	F	1.807755	0.763965	0.851534
F71	F	1.659798	0.007475	0.648531
F72	F	2.159798	0.507475	1.148531
F73	F	0.848575	0.133105	-0.257176
F74	F	1.348575	0.633105	0.242824
H75	H	0.864964	0.133404	0.226122
H76	H	1.364964	0.633404	0.726122
H77	H	1.102593	0.138036	-0.226034
H78	H	1.602593	0.638036	0.273966
H79	H	1.329116	0.248434	0.630565
H80	H	1.829116	0.748434	1.130565
