data_functionalizedCrystal
_audit_creation_method	'MofGen! by Chris Wilmer'
_symmetry_space_group_name_H-M	'P1'
_symmetry_Int_Tables_number	1
_symmetry_cell_setting	triclinic
loop_
_symmetry_equiv_pos_as_xyz
  x,y,z
_cell_length_a	18.101395
_cell_length_b	18.101398
_cell_length_c	16.959434
_cell_angle_alpha	89.934424
_cell_angle_beta	89.911397
_cell_angle_gamma	90.028835
loop_
_atom_site_label
_atom_site_type_symbol
_atom_site_fract_x
_atom_site_fract_y
_atom_site_fract_z
Zn1	Zn	-0.294427	1.132419	-0.447060
Zn2	Zn	0.205573	1.632419	0.052940
Zn3	Zn	-0.418408	1.132227	-0.314884
Zn4	Zn	0.081592	1.632227	0.185116
Zn5	Zn	-0.294580	1.008490	-0.314882
Zn6	Zn	0.205420	1.508490	0.185118
Zn7	Zn	-0.418227	1.008529	-0.447006
Zn8	Zn	0.081773	1.508529	0.052994
O9	O	-0.356411	1.070416	-0.380958
O10	O	0.143589	1.570416	0.119042
O11	O	-0.310886	1.236027	-0.429550
O12	O	0.189114	1.736027	0.070450
O13	O	-0.402122	1.115716	-0.204272
O14	O	0.097878	1.615716	0.295728
O15	O	-0.190927	1.024994	-0.332437
O16	O	0.309073	1.524994	0.167563
O17	O	-0.401974	1.235885	-0.332440
O18	O	0.098026	1.735885	0.167560
O19	O	-0.190815	1.116044	-0.429548
O20	O	0.309185	1.616044	0.070452
O21	O	-0.311146	1.024807	-0.204271
O22	O	0.188854	1.524807	0.295729
O23	O	-0.310970	0.904862	-0.332385
O24	O	0.189030	1.404862	0.167615
O25	O	-0.401665	1.025060	-0.557625
O26	O	0.098335	1.525060	-0.057625
O27	O	-0.401813	0.904891	-0.429456
O28	O	0.098187	1.404891	0.070544
O29	O	-0.310710	1.116082	-0.557665
O30	O	0.189290	1.616082	-0.057665
O31	O	-0.522017	1.115754	-0.332388
O32	O	-0.022017	1.615754	0.167612
O33	O	-0.521884	1.024874	-0.429458
O34	O	-0.021884	1.524874	0.070542
C35	C	-0.356389	0.878006	-0.380915
C36	C	0.143611	1.378006	0.119085
C37	C	-0.356397	0.795692	-0.380915
C38	C	0.143603	1.295692	0.119085
C39	C	-0.356412	0.644983	-0.380951
C40	C	0.143588	1.144983	0.119049
C41	C	-0.299175	0.613587	-0.319978
C42	C	0.200825	1.113587	0.180022
C43	C	-0.298959	0.527969	-0.320178
C44	C	0.201041	1.027969	0.179822
C45	C	-0.356427	0.496601	-0.380985
C46	C	0.143573	0.996601	0.119015
C47	C	-0.335510	0.527796	-0.464381
C48	C	0.164490	1.027796	0.035619
C49	C	-0.335086	0.613441	-0.464008
C50	C	0.164914	1.113441	0.035992
C51	C	-0.434715	0.613365	-0.359264
C52	C	0.065285	1.113365	0.140736
C53	C	-0.434304	0.527712	-0.357446
C54	C	0.065696	1.027712	0.142554
C55	C	-0.356437	0.412741	-0.381009
C56	C	0.143563	0.912741	0.118991
C57	C	-0.356401	0.728843	-0.380932
C58	C	0.143599	1.228843	0.119068
C59	C	-0.548821	1.070317	-0.380935
C60	C	-0.048821	1.570317	0.119065
C61	C	-0.631135	1.070343	-0.380951
C62	C	-0.131135	1.570343	0.119049
C63	C	-0.930226	1.070505	-0.380994
C64	C	-0.430226	1.570505	0.119006
C65	C	-0.898848	1.013458	-0.442219
C66	C	-0.398848	1.513458	0.057781
C67	C	-0.813230	1.013187	-0.442028
C68	C	-0.313230	1.513187	0.057972
C69	C	-0.781844	1.070425	-0.380973
C70	C	-0.281844	1.570425	0.119027
C71	C	-0.813078	1.049240	-0.297666
C72	C	-0.313078	1.549240	0.202334
C73	C	-0.898722	1.048872	-0.298032
C74	C	-0.398722	1.548872	0.201968
C75	C	-0.898551	1.148861	-0.402342
C76	C	-0.398551	1.648861	0.097658
C77	C	-0.812899	1.148402	-0.404169
C78	C	-0.312899	1.648402	0.095831
C79	C	-0.697984	1.070380	-0.380957
C80	C	-0.197984	1.570380	0.119043
C81	C	-1.014086	1.070548	-0.381005
C82	C	-0.514086	1.570548	0.118995
C83	C	-0.163249	1.070536	-0.380999
C84	C	0.336751	1.570536	0.119001
C85	C	-0.080934	1.070587	-0.381016
C86	C	0.419066	1.570587	0.118984
C87	C	-0.356150	1.070597	-0.587127
C88	C	0.143850	1.570597	-0.087127
C89	C	-0.356039	1.070674	-0.674984
C90	C	0.143961	1.570674	-0.174984
C91	C	-0.356433	1.263578	-0.381002
C92	C	0.143567	1.763578	0.118998
C93	C	-0.356442	1.345892	-0.381020
C94	C	0.143558	1.845892	0.118980
C95	C	-0.356617	1.070279	-0.175591
C96	C	0.143383	1.570279	0.324409
C97	C	-0.356519	1.070346	-0.087735
C98	C	0.143481	1.570346	0.412265
C99	C	-0.403496	1.118051	-0.046422
C100	C	0.096504	1.618051	0.453578
C101	C	-0.309446	1.022707	-0.046495
C102	C	0.190554	1.522707	0.453505
C103	C	-0.309350	1.022771	0.036051
C104	C	0.190650	1.522771	0.536051
C105	C	-0.356327	1.070476	0.077364
C106	C	0.143673	1.570476	0.577364
C107	C	-0.403400	1.118118	0.036131
C108	C	0.096600	1.618118	0.536131
C109	C	-0.262273	0.975136	0.077290
C110	C	0.237727	1.475136	0.577290
C111	C	-0.262174	0.975198	0.159840
C112	C	0.237826	1.475198	0.659840
C113	C	-0.309155	1.022900	0.201155
C114	C	0.190845	1.522900	0.701155
C115	C	-0.356231	1.070543	0.159917
C116	C	0.143769	1.570543	0.659917
C117	C	-0.403208	1.118248	0.201230
C118	C	0.096792	1.618248	0.701230
C119	C	-0.450288	1.165888	0.159994
C120	C	0.049712	1.665888	0.659994
C121	C	-0.450381	1.165820	0.077446
C122	C	0.049619	1.665820	0.577446
C123	C	-0.309062	1.022968	0.283703
C124	C	0.190938	1.522968	0.783703
C125	C	-0.403112	1.118315	0.283784
C126	C	0.096888	1.618315	0.783784
H127	H	-0.277856	0.633458	-0.482340
H128	H	0.222144	1.133458	0.017660
H129	H	-0.278913	0.506389	-0.483035
H130	H	0.221087	1.006389	0.016965
H131	H	-0.920446	0.955733	-0.428256
H132	H	-0.420446	1.455733	0.071744
C133	C	-0.926779	1.102556	-0.234296
C134	C	-0.426779	1.602556	0.265704
N135	N	-0.947907	1.142986	-0.186286
N136	N	-0.447907	1.642986	0.313714
H137	H	-0.792475	1.164376	-0.465479
H138	H	-0.292475	1.664376	0.034521
H139	H	-0.374976	0.634218	-0.511011
H140	H	0.125024	1.134218	-0.011011
C141	C	-0.785652	0.934713	-0.422981
C142	C	-0.285652	1.434713	0.077019
N143	N	-0.764881	0.875599	-0.408653
N144	N	-0.264881	1.375599	0.091347
H145	H	-0.488533	1.204733	0.193642
H146	H	0.011467	1.704733	0.693642
C147	C	-0.785619	1.103598	-0.234354
C148	C	-0.285619	1.603598	0.265646
N149	N	-0.764935	1.144540	-0.186668
N150	N	-0.264935	1.644540	0.313332
H151	H	-0.919334	1.026588	-0.504191
H152	H	-0.419334	1.526588	-0.004191
H153	H	-0.450081	0.507315	-0.296070
H154	H	0.049919	1.007315	0.203930
H155	H	-0.479218	0.506352	-0.398589
H156	H	0.020782	1.006352	0.101411
C157	C	-0.502361	1.218024	0.032082
C158	C	-0.002361	1.718024	0.532082
N159	N	-0.541583	1.257274	-0.002090
N160	N	-0.041583	1.757274	0.497910
H161	H	-0.477357	0.633669	-0.403673
H162	H	0.022643	1.133669	0.096327
H163	H	-0.792104	1.026448	-0.503799
H164	H	-0.292104	1.526448	-0.003799
C165	C	-0.455418	1.170317	-0.091781
C166	C	0.044582	1.670317	0.408219
N167	N	-0.494575	1.209636	-0.125946
N168	N	0.005425	1.709636	0.374054
C169	C	-0.257771	0.970238	-0.091942
C170	C	0.242229	1.470238	0.408058
N171	N	-0.218849	0.930715	-0.126176
N172	N	0.281151	1.430715	0.373824
C173	C	-0.390106	0.500355	-0.527457
C174	C	0.109894	1.000355	-0.027457
N175	N	-0.431227	0.479684	-0.574965
N176	N	0.068773	0.979684	-0.074965
C177	C	-0.210391	0.922789	0.205193
C178	C	0.289609	1.422789	0.705193
N179	N	-0.171390	0.883311	0.239353
N180	N	0.328610	1.383311	0.739353
C181	C	-0.316556	0.641362	-0.236189
C182	C	0.183444	1.141362	0.263811
N183	N	-0.329633	0.662310	-0.173082
N184	N	0.170367	1.162310	0.326918
H185	H	-0.791529	1.193157	-0.362827
H186	H	-0.291529	1.693157	0.137173
H187	H	-0.224024	0.936300	0.043647
H188	H	0.275976	1.436300	0.543647
H189	H	-0.270725	0.984186	0.317274
H190	H	0.229275	1.484186	0.817274
C191	C	-0.460494	0.642432	-0.278476
C192	C	0.039506	1.142432	0.221524
N193	N	-0.479902	0.664325	-0.217623
N194	N	0.020098	1.164325	0.282377
H195	H	-0.918781	0.991592	-0.279949
H196	H	-0.418781	1.491592	0.220051
C197	C	-0.784218	0.972673	-0.272801
C198	C	-0.284218	1.472673	0.227199
N199	N	-0.762483	0.915000	-0.254077
N200	N	-0.262483	1.415000	0.245923
C201	C	-0.927577	1.174937	-0.483015
C202	C	-0.427577	1.674937	0.016985
N203	N	-0.949439	1.194569	-0.543782
N204	N	-0.449439	1.694569	-0.043782
C205	C	-0.454784	1.170803	0.329221
C206	C	0.045216	1.670803	0.829221
N207	N	-0.493700	1.210341	0.363444
N208	N	0.006300	1.710341	0.863444
C209	C	-0.221234	0.642699	-0.339186
C210	C	0.278766	1.142699	0.160814
N211	N	-0.162529	0.664624	-0.353658
N212	N	0.337471	1.164624	0.146342
C213	C	-0.316589	0.499464	-0.236649
C214	C	0.183411	0.999464	0.263351
N215	N	-0.329860	0.477997	-0.173730
N216	N	0.170140	0.977997	0.326270
H217	H	-0.240943	0.507516	-0.334577
H218	H	0.259057	1.007516	0.165423
C219	C	-0.925975	1.206281	-0.342104
C220	C	-0.425975	1.706281	0.157896
N221	N	-0.946636	1.249525	-0.296730
N222	N	-0.446636	1.749525	0.203270
