data_functionalizedCrystal
_audit_creation_method	'MofGen! by Chris Wilmer'
_symmetry_space_group_name_H-M	'P1'
_symmetry_Int_Tables_number	1
_symmetry_cell_setting	triclinic
loop_
_symmetry_equiv_pos_as_xyz
  x,y,z
_cell_length_a	10.868271
_cell_length_b	14.853567
_cell_length_c	11.792241
_cell_angle_alpha	96.085827
_cell_angle_beta	89.996428
_cell_angle_gamma	89.998625
loop_
_atom_site_label
_atom_site_type_symbol
_atom_site_fract_x
_atom_site_fract_y
_atom_site_fract_z
O1	O	0.102223	-1.196942	0.148176
O2	O	0.102243	-0.934551	0.165828
O3	O	0.102240	-1.072114	-0.008207
O4	O	0.102226	-1.059379	0.322212
O5	O	-0.102405	-1.072102	-0.008202
O6	O	-0.102402	-0.934539	0.165834
O7	O	-0.102421	-1.196929	0.148182
Zn8	Zn	-0.134903	-1.065732	0.157009
Zn9	Zn	0.134725	-1.065749	0.157002
O10	O	-0.102418	-1.059367	0.322218
C11	C	-0.000077	-0.900953	0.165032
C12	C	-0.000069	-0.800860	0.162635
N13	N	-0.318917	-1.065727	0.157013
C14	C	-0.000078	-1.071308	-0.050491
C15	C	-0.000064	-1.068913	-0.176489
C16	C	-0.430255	-1.065734	0.157014
C17	C	-0.569932	-1.065746	0.157003
N18	N	0.318739	-1.065760	0.156988
C19	C	-0.000099	-1.230527	0.148979
C20	C	-0.000099	-1.330621	0.151376
C21	C	-0.000091	-0.387884	0.049122
C22	C	-0.000099	-0.367408	0.255880
C23	C	-0.000095	-0.461451	0.258134
C24	C	-0.000088	-0.518715	0.155880
C25	C	-0.000084	-0.481936	0.051372
C26	C	-0.000086	-0.498237	0.362640
C27	C	-0.000081	-0.592285	0.364898
C28	C	-0.000082	-0.649550	0.262642
C29	C	-0.000080	-0.612766	0.158131
C30	C	-0.000073	-0.670030	0.055877
C31	C	-0.000079	-0.633248	-0.048637
C32	C	-0.000085	-0.539201	-0.050883
C33	C	-0.000076	-0.743596	0.264889
C34	C	-0.000065	-0.764081	0.058127
C35	C	-0.000098	-1.060173	0.364501
C36	C	-0.000103	-1.062567	0.490500
C37	C	-0.000073	-1.066970	0.721185
C38	C	-0.000090	-1.064524	0.592815
H39	H	-0.000064	-0.810700	-0.025142
H40	H	-0.000076	-0.622224	0.449998
C41	C	-0.000064	-0.784054	0.379837
H42	H	-0.000071	-0.736481	0.440413
H43	H	0.071300	-0.820318	0.385005
H44	H	-0.071437	-0.820314	0.385021
H45	H	-0.000120	-0.509244	-0.135972
C46	C	-0.000093	-0.347429	-0.065833
H47	H	-0.000093	-0.283217	-0.052535
H48	H	-0.071452	-0.367055	-0.107941
H49	H	0.071286	-0.367047	-0.107938
H50	H	-0.000065	-0.679884	-0.131891
H51	H	-0.000095	-0.320779	0.339131
C52	C	-0.000100	-0.435249	0.475108
H53	H	-0.000122	-0.373971	0.458797
H54	H	0.071264	-0.446444	0.517956
H55	H	-0.071474	-0.446459	0.517952
