data_functionalizedCrystal
_audit_creation_method	'MofGen! by Chris Wilmer'
_symmetry_space_group_name_H-M	'P1'
_symmetry_Int_Tables_number	1
_symmetry_cell_setting	triclinic
loop_
_symmetry_equiv_pos_as_xyz
  x,y,z
_cell_length_a	25.639242
_cell_length_b	14.908520
_cell_length_c	14.908308
_cell_angle_alpha	83.639235
_cell_angle_beta	93.269512
_cell_angle_gamma	86.683242
loop_
_atom_site_label
_atom_site_type_symbol
_atom_site_fract_x
_atom_site_fract_y
_atom_site_fract_z
Zn1	Zn	0.768447	0.389992	-0.532783
Zn2	Zn	0.768387	0.532637	-0.390154
Zn3	Zn	0.686369	0.381281	-0.381418
Zn4	Zn	0.675643	0.541296	-0.541436
O5	O	0.724712	0.461301	-0.461448
O6	O	0.841602	0.408935	-0.513898
O7	O	0.761972	0.505290	-0.262335
O8	O	0.701771	0.255773	-0.394220
O9	O	0.841558	0.513736	-0.409108
O10	O	0.762073	0.262172	-0.505427
O11	O	0.701713	0.394090	-0.255918
O12	O	0.611783	0.402486	-0.402610
O13	O	0.683490	0.528494	-0.666948
O14	O	0.603903	0.520048	-0.520175
O15	O	0.751672	0.417331	-0.660590
O16	O	0.751571	0.660449	-0.417499
O17	O	0.683432	0.666811	-0.528646
C18	C	0.588872	0.461262	-0.461384
C19	C	0.530758	0.461268	-0.461380
C20	C	0.716344	0.696474	-0.474979
C21	C	0.712812	0.797083	-0.480798
C22	C	0.716391	0.474850	-0.697529
C23	C	0.712845	0.480624	-0.798132
C24	C	0.166296	0.522609	-0.522615
C25	C	0.111691	0.522616	-0.522629
O26	O	0.079972	0.574723	-0.574639
N27	N	0.088470	0.461330	-0.461508
C28	C	0.119856	0.400027	-0.400375
O29	O	0.095091	0.347899	-0.348389
C30	C	0.174460	0.400017	-0.400365
C31	C	0.197679	0.461313	-0.461484
C32	C	0.189515	0.583900	-0.583729
C33	C	0.244116	0.583894	-0.583713
C34	C	0.275498	0.522598	-0.522583
C35	C	0.252280	0.461308	-0.461468
C36	C	0.205846	0.338711	-0.339237
C37	C	0.260453	0.338706	-0.339233
C38	C	0.283672	0.400002	-0.400352
C39	C	0.338264	0.400007	-0.400322
N40	N	0.361485	0.461293	-0.461443
C41	C	0.330102	0.522588	-0.522573
C42	C	0.005184	0.400052	-0.400401
C43	C	-0.049419	0.400065	-0.400405
C44	C	-0.057581	0.522653	-0.522661
C45	C	-0.002977	0.522643	-0.522651
C46	C	0.028405	0.461338	-0.461522
C47	C	0.444769	0.522573	-0.522534
C48	C	0.499376	0.522564	-0.522510
C49	C	0.507533	0.399974	-0.400258
C50	C	0.452931	0.399985	-0.400279
C51	C	0.421550	0.461288	-0.461424
O52	O	0.370015	0.347924	-0.348341
O53	O	0.354875	0.574700	-0.574558
C54	C	0.861081	0.461341	-0.461512
C55	C	0.919194	0.461359	-0.461539
C56	C	0.733125	0.225212	-0.447884
C57	C	0.736710	0.124604	-0.442103
C58	C	0.777192	0.979460	-0.376088
C59	C	0.773874	1.073991	-0.381553
C60	C	0.702862	1.080680	-0.497195
C61	C	0.706180	0.986148	-0.491731
C62	C	0.743345	0.935541	-0.431174
C63	C	0.746660	0.841008	-0.425706
C64	C	0.675651	0.847699	-0.541352
C65	C	0.672333	0.942230	-0.546817
C66	C	0.777180	0.375698	-0.980558
C67	C	0.773850	0.381120	-1.075084
C68	C	0.702853	0.496884	-1.081712
C69	C	0.706183	0.491462	-0.987186
C70	C	0.743348	0.430868	-0.936612
C71	C	0.746680	0.425452	-0.842085
C72	C	0.675682	0.541210	-0.848714
C73	C	0.672352	0.546632	-0.943240
C74	C	0.733032	0.447740	-0.226282
C75	C	0.736688	0.441712	-0.125664
H76	H	0.518277	0.572482	-0.572282
H77	H	0.776920	0.799804	-0.376396
H78	H	0.801398	0.336193	-1.110860
C79	C	0.410256	0.590010	-0.589789
C80	C	0.414381	0.692460	-0.588141
C81	C	0.379868	0.759901	-0.655389
C82	C	0.341229	0.724892	-0.724286
C83	C	0.337102	0.622437	-0.725937
C84	C	0.371615	0.554996	-0.658688
H85	H	0.442985	0.718380	-0.537137
H86	H	0.382923	0.835745	-0.654167
H87	H	0.315680	0.774816	-0.774067
H88	H	0.308498	0.596517	-0.776940
H89	H	0.368560	0.479152	-0.659910
C90	C	-0.074955	0.332645	-0.333167
C91	C	-0.135017	0.332639	-0.333169
C92	C	-0.160551	0.265212	-0.265932
C93	C	-0.126023	0.197792	-0.198693
C94	C	-0.065958	0.197796	-0.198689
C95	C	-0.040424	0.265222	-0.265925
H96	H	-0.160579	0.382550	-0.382946
H97	H	-0.205015	0.265210	-0.265936
H98	H	-0.144925	0.147879	-0.148921
H99	H	-0.040396	0.147885	-0.148912
H100	H	0.004040	0.265225	-0.265922
C101	C	0.631453	0.997904	-0.613423
C102	C	0.572736	0.984564	-0.605170
C103	C	0.531854	1.040237	-0.671775
C104	C	0.549687	1.109249	-0.746634
C105	C	0.608406	1.122592	-0.754891
C106	C	0.649289	1.066920	-0.688286
H107	H	0.559532	0.933474	-0.549751
H108	H	0.488386	1.030359	-0.665662
H109	H	0.519424	1.150461	-0.795940
H110	H	0.621611	1.173683	-0.810310
H111	H	0.692757	1.076798	-0.694399
H112	H	0.648089	0.811930	-0.586205
H113	H	0.672595	0.546216	-1.122905
C114	C	0.787559	0.358800	-0.786450
C115	C	0.769722	0.284007	-0.717370
C116	C	0.810600	0.217351	-0.661738
C117	C	0.869316	0.225488	-0.675187
C118	C	0.887156	0.300283	-0.744270
C119	C	0.846277	0.366939	-0.799902
H120	H	0.726254	0.277982	-0.707412
H121	H	0.797393	0.161983	-0.610598
H122	H	0.899577	0.176145	-0.634004
H123	H	0.930623	0.306309	-0.754228
H124	H	0.859484	0.422307	-0.851042
C125	C	0.155000	0.651336	-0.650977
C126	C	0.159132	0.753785	-0.649328
C127	C	0.124622	0.821233	-0.716575
C128	C	0.085980	0.786232	-0.785472
C129	C	0.081846	0.683778	-0.787123
C130	C	0.116356	0.616331	-0.719876
H131	H	0.187739	0.779699	-0.598324
H132	H	0.127682	0.897076	-0.715352
H133	H	0.060433	0.836161	-0.835252
H134	H	0.053239	0.657864	-0.838127
H135	H	0.113296	0.540487	-0.721099
C136	C	-0.092108	0.590077	-0.589912
C137	C	-0.152170	0.590076	-0.589921
C138	C	-0.186699	0.657496	-0.657166
C139	C	-0.161166	0.724917	-0.724402
C140	C	-0.101101	0.724921	-0.724395
C141	C	-0.066572	0.657501	-0.657150
H142	H	-0.171074	0.540164	-0.540146
H143	H	-0.231163	0.657493	-0.657170
H144	H	-0.186727	0.774826	-0.774181
H145	H	-0.082197	0.774832	-0.774170
H146	H	-0.022108	0.657504	-0.657146
C147	C	0.039701	0.332622	-0.333140
C148	C	0.035576	0.230169	-0.334766
C149	C	0.070090	0.162740	-0.267506
C150	C	0.108729	0.197764	-0.198620
C151	C	0.112856	0.300222	-0.196991
C152	C	0.078342	0.367651	-0.264251
H153	H	0.006972	0.204238	-0.385762
H154	H	0.067034	0.086894	-0.268712
H155	H	0.134278	0.147849	-0.148830
H156	H	0.141461	0.326153	-0.145995
H157	H	0.081398	0.443497	-0.263045
C158	C	0.661987	1.136363	-0.563806
C159	C	0.603269	1.123041	-0.555566
C160	C	0.562395	1.178728	-0.622177
C161	C	0.580240	1.247737	-0.697028
C162	C	0.638962	1.261063	-0.705271
C163	C	0.679835	1.205376	-0.638660
H164	H	0.590056	1.071953	-0.500154
H165	H	0.518925	1.168862	-0.616075
H166	H	0.549983	1.288960	-0.746337
H167	H	0.652174	1.312151	-0.760683
H168	H	0.723305	1.215241	-0.644762
C169	C	0.427392	0.332560	-0.333044
C170	C	0.390951	0.367575	-0.264173
C171	C	0.365419	0.300139	-0.196943
C172	C	0.376327	0.197687	-0.198584
C173	C	0.412770	0.162667	-0.267457
C174	C	0.438302	0.230103	-0.334687
H175	H	0.382875	0.443420	-0.262956
H176	H	0.338442	0.326064	-0.145959
H177	H	0.357427	0.147767	-0.148817
H178	H	0.420846	0.086822	-0.268674
H179	H	0.465279	0.204178	-0.385671
C180	C	0.631477	0.613285	-0.998882
C181	C	0.649322	0.688071	-1.067961
C182	C	0.608449	0.754729	-1.123605
C183	C	0.549731	0.746599	-1.110170
C184	C	0.531883	0.671810	-1.041089
C185	C	0.572756	0.605152	-0.985445
H186	H	0.692790	0.694092	-1.077909
H187	H	0.621661	0.810093	-1.174744
H188	H	0.519474	0.795943	-1.151361
H189	H	0.488415	0.665789	-1.031141
H190	H	0.559544	0.549788	-0.934306
C191	C	0.818061	0.309055	-0.924919
C192	C	0.800229	0.234260	-0.855836
C193	C	0.841112	0.167617	-0.800199
C194	C	0.899827	0.175769	-0.813644
C195	C	0.917662	0.250567	-0.882730
C196	C	0.876779	0.317210	-0.938368
H197	H	0.756762	0.228223	-0.845881
H198	H	0.827909	0.112247	-0.749057
H199	H	0.930091	0.126436	-0.772457
H200	H	0.961129	0.256605	-0.892686
H201	H	0.889982	0.372581	-0.989510
H202	H	0.648135	0.586136	-0.812924
C203	C	0.542063	0.332548	-0.333024
C204	C	0.580744	0.263812	-0.368290
C205	C	0.615276	0.196380	-0.301063
C206	C	0.611128	0.197685	-0.198569
C207	C	0.572446	0.266424	-0.163297
C208	C	0.537913	0.333856	-0.230525
H209	H	0.583816	0.262843	-0.444167
H210	H	0.643912	0.145495	-0.327174
H211	H	0.636692	0.147768	-0.148803
H212	H	0.569374	0.267393	-0.087421
H213	H	0.509277	0.384741	-0.204414
H214	H	0.263015	0.633806	-0.633484
H215	H	0.015924	0.572554	-0.572421
H216	H	0.186951	0.288800	-0.289465
H217	H	0.286002	0.288778	-0.289458
H218	H	0.807450	0.938254	-0.326775
H219	H	0.801436	1.109745	-0.336698
