data_functionalizedCrystal
_audit_creation_method	'MofGen! by Chris Wilmer'
_symmetry_space_group_name_H-M	'P1'
_symmetry_Int_Tables_number	1
_symmetry_cell_setting	triclinic
loop_
_symmetry_equiv_pos_as_xyz
  x,y,z
_cell_length_a	6.817900
_cell_length_b	9.514072
_cell_length_c	10.773894
_cell_angle_alpha	94.040261
_cell_angle_beta	96.645922
_cell_angle_gamma	118.843421
loop_
_atom_site_label
_atom_site_type_symbol
_atom_site_fract_x
_atom_site_fract_y
_atom_site_fract_z
V1	V	-4.031208	-0.216288	-0.389895
O2	O	-3.931676	0.016466	-0.381468
O3	O	-4.066329	-0.434704	-0.388196
O4	O	-3.946589	-0.210297	-0.559501
O5	O	-4.052245	-0.209494	-0.208977
V6	V	-4.508706	-0.188763	-0.368139
O7	O	-4.305681	-0.276667	-0.437621
O8	O	-4.684430	-0.128384	-0.320413
O9	O	-4.250378	0.029652	-0.369838
O10	O	-4.725634	-0.421517	-0.376566
O11	O	-4.605066	-0.195557	-0.549057
O12	O	-4.370118	-0.194754	-0.198533
C13	C	-3.932820	-0.488032	-0.382295
C14	C	-4.042581	-0.666572	-0.382036
C15	C	-3.780079	-0.201777	-0.600810
C16	C	-3.792730	-0.198323	-0.739470
C17	C	-3.973094	-0.204308	-0.807358
C18	C	-3.986174	-0.200739	-0.950671
C19	C	-4.047233	0.082972	-0.375736
C20	C	-3.916709	0.261511	-0.376003
C21	C	-4.199974	-0.203280	-0.157218
C22	C	-4.166558	-0.206725	-0.018557
H23	H	-4.117819	-0.212064	-0.759381
C24	C	-3.589301	-0.047794	-0.962737
C25	C	-3.790760	-0.190247	-1.015419
H26	H	-3.468670	-0.041315	-1.002718
H27	H	-3.554888	-0.048833	-0.874937
H28	H	-3.607709	0.043378	-0.974849
H29	H	-3.772357	-0.281421	-1.003299
H30	H	-3.825178	-0.189222	-1.103241
H31	H	-4.311309	-0.214498	-0.970588
H32	H	-3.647992	-0.190546	-0.787445
C33	C	-4.412001	-0.752230	-0.500468
C34	C	-4.301453	-0.767852	-0.388814
H35	H	-4.571814	-0.814749	-0.504645
H36	H	-4.369497	-0.789849	-0.570994
H37	H	-4.369691	-0.641494	-0.501475
H38	H	-4.343751	-0.878586	-0.387812
H39	H	-4.343976	-0.730240	-0.318270
H40	H	-3.724960	-0.663461	-0.370974
