data_functionalizedCrystal
_audit_creation_method	'MofGen! by Chris Wilmer'
_symmetry_space_group_name_H-M	'P1'
_symmetry_Int_Tables_number	1
_symmetry_cell_setting	triclinic
loop_
_symmetry_equiv_pos_as_xyz
  x,y,z
_cell_length_a	11.792254
_cell_length_b	10.489716
_cell_length_c	10.868271
_cell_angle_alpha	89.998908
_cell_angle_beta	89.995741
_cell_angle_gamma	84.363867
loop_
_atom_site_label
_atom_site_type_symbol
_atom_site_fract_x
_atom_site_fract_y
_atom_site_fract_z
O1	O	1.507358	0.174911	-0.102309
O2	O	2.007358	0.674911	0.397691
O3	O	1.177066	0.192913	-0.102311
O4	O	1.677066	0.692913	0.397689
O5	O	1.349742	-0.001713	-0.102315
O6	O	1.849742	0.498287	0.397685
O7	O	1.334682	0.369537	-0.102306
O8	O	1.834682	0.869537	0.397694
O9	O	1.349728	-0.001721	0.102330
O10	O	1.849728	0.498279	0.602330
O11	O	1.177052	0.192905	0.102334
O12	O	1.677052	0.692905	0.602334
O13	O	1.507344	0.174904	0.102335
O14	O	2.007344	0.674904	0.602335
Zn15	Zn	1.342195	0.183903	0.134826
Zn16	Zn	1.842195	0.683903	0.634826
Zn17	Zn	1.342214	0.183913	-0.134802
Zn18	Zn	1.842214	0.683913	0.365198
O19	O	1.334667	0.369530	0.102339
O20	O	1.834667	0.869530	0.602339
C21	C	1.134765	0.191775	0.000011
C22	C	1.634765	0.691775	0.500011
C23	C	1.008743	0.188381	0.000010
C24	C	1.508743	0.688381	0.500010
C25	C	0.906399	0.185623	0.000005
C26	C	1.406399	0.685623	0.500005
C27	C	0.778004	0.182175	0.000004
C28	C	1.278004	0.682175	0.500004
C29	C	1.348603	-0.049245	0.000004
C30	C	1.848603	0.450755	0.500004
C31	C	1.345218	-0.190865	-0.000007
C32	C	1.845218	0.309135	0.499993
C33	C	1.451108	-0.288894	0.000004
C34	C	1.951108	0.211106	0.500004
C35	C	1.395161	-0.366063	-0.100893
C36	C	1.895161	0.133937	0.399107
C37	C	1.395122	-0.366035	0.100871
C38	C	1.895122	0.133965	0.600871
C39	C	1.289314	-0.266169	-0.100988
C40	C	1.789314	0.233831	0.399012
C41	C	1.289291	-0.266135	0.100866
C42	C	1.789291	0.233865	0.600866
C43	C	1.233266	-0.343255	-0.000056
C44	C	1.733266	0.156745	0.499944
C45	C	1.549644	0.176041	0.000011
C46	C	2.049644	0.676041	0.500011
C47	C	1.675666	0.179436	0.000004
C48	C	2.175666	0.679436	0.500004
C49	C	1.335806	0.417062	0.000018
C50	C	1.835806	0.917062	0.500018
C51	C	1.339192	0.558681	0.000021
C52	C	1.839192	1.058681	0.500021
N53	N	1.342191	0.183896	0.318840
N54	N	1.842191	0.683896	0.818840
N55	N	1.342228	0.183911	-0.318816
N56	N	1.842228	0.683911	0.181184
C57	C	1.342208	0.183911	0.569846
C58	C	1.842208	0.683911	1.069846
C59	C	1.342195	0.183906	0.430169
C60	C	1.842195	0.683906	0.930169
H61	H	1.439867	-0.409705	-0.186196
H62	H	1.939867	0.090295	0.313804
N63	N	1.117643	-0.373549	-0.000129
N64	N	1.617643	0.126451	0.499871
N65	N	1.096245	-0.487916	0.000684
N66	N	1.596245	0.012084	0.500684
H67	H	1.014588	-0.509316	0.000628
H68	H	1.514588	-0.009316	0.500628
N69	N	1.233282	-0.211644	-0.208115
N70	N	1.733282	0.288356	0.291885
N71	N	1.226908	-0.093353	-0.225436
N72	N	1.726908	0.406647	0.274564
H73	H	1.187338	-0.054841	-0.301094
H74	H	1.687338	0.445159	0.198906
N75	N	1.233263	-0.211369	0.207891
N76	N	1.733263	0.288631	0.707891
N77	N	1.269392	-0.243625	0.312585
N78	N	1.769392	0.256375	0.812585
H79	H	1.229830	-0.204948	0.388182
H80	H	1.729830	0.295052	0.888182
N81	N	1.451192	-0.420772	0.207887
N82	N	1.951192	0.079228	0.707887
N83	N	1.456794	-0.538982	0.225488
N84	N	1.956794	-0.038982	0.725488
H85	H	1.496399	-0.577640	0.301064
H86	H	1.996399	-0.077640	0.801064
N87	N	1.566657	-0.258336	-0.000129
N88	N	2.066657	0.241664	0.499871
N89	N	1.631502	-0.294734	-0.086902
N90	N	2.131502	0.205266	0.413098
H91	H	1.713107	-0.273152	-0.087002
H92	H	2.213107	0.226848	0.412998
