data_functionalizedCrystal
_audit_creation_method	'MofGen! by Chris Wilmer'
_symmetry_space_group_name_H-M	'P1'
_symmetry_Int_Tables_number	1
_symmetry_cell_setting	triclinic
loop_
_symmetry_equiv_pos_as_xyz
  x,y,z
_cell_length_a	17.077404
_cell_length_b	12.594516
_cell_length_c	17.077396
_cell_angle_alpha	89.976855
_cell_angle_beta	89.980499
_cell_angle_gamma	90.016278
loop_
_atom_site_label
_atom_site_type_symbol
_atom_site_fract_x
_atom_site_fract_y
_atom_site_fract_z
Zn1	Zn	1.200092	-0.423736	-0.443872
Zn2	Zn	1.533425	-0.090402	-0.110539
Zn3	Zn	1.866759	0.242931	0.222795
Zn4	Zn	1.200015	-0.601736	-0.312618
Zn5	Zn	1.533348	-0.268403	0.020715
Zn6	Zn	1.866681	0.064930	0.354049
Zn7	Zn	1.068824	-0.423773	-0.312620
Zn8	Zn	1.402157	-0.090440	0.020714
Zn9	Zn	1.735490	0.242894	0.354047
Zn10	Zn	1.068807	-0.601673	-0.443842
Zn11	Zn	1.402141	-0.268340	-0.110508
Zn12	Zn	1.735474	0.064993	0.222825
O13	O	1.134434	-0.512730	-0.378238
O14	O	1.467768	-0.179396	-0.044904
O15	O	1.801101	0.153937	0.288429
O16	O	1.309929	-0.447359	-0.426473
O17	O	1.643262	-0.114025	-0.093139
O18	O	1.976595	0.219308	0.240194
O19	O	1.182586	-0.578171	-0.202771
O20	O	1.515920	-0.244838	0.130562
O21	O	1.849253	0.088495	0.463895
O22	O	1.086276	-0.274822	-0.330044
O23	O	1.419609	0.058511	0.003289
O24	O	1.752943	0.391844	0.336623
O25	O	1.309872	-0.578135	-0.330041
O26	O	1.643205	-0.244802	0.003292
O27	O	1.976538	0.088532	0.336626
O28	O	1.182718	-0.274795	-0.426474
O29	O	1.516051	0.058538	-0.093141
O30	O	1.849385	0.391872	0.240192
O31	O	1.086201	-0.447422	-0.202773
O32	O	1.419534	-0.114089	0.130561
O33	O	1.752868	0.219244	0.463894
O34	O	0.958975	-0.447361	-0.330015
O35	O	1.292308	-0.114028	0.003319
O36	O	1.625641	0.219306	0.336652
O37	O	1.086248	-0.578027	-0.553693
O38	O	1.419581	-0.244694	-0.220359
O39	O	1.752915	0.088639	0.112974
O40	O	0.958963	-0.578064	-0.426423
O41	O	1.292296	-0.244730	-0.093090
O42	O	1.625629	0.088603	0.240244
O43	O	1.182702	-0.447297	-0.553715
O44	O	1.516036	-0.113964	-0.220381
O45	O	1.849369	0.219369	0.112952
O46	O	1.182571	-0.750674	-0.330012
O47	O	1.515904	-0.417341	0.003322
O48	O	1.849237	-0.084007	0.336655
O49	O	1.086173	-0.750627	-0.426421
O50	O	1.419506	-0.417294	-0.093088
O51	O	1.752840	-0.083961	0.240245
C52	C	0.930487	-0.512710	-0.378216
C53	C	1.263820	-0.179377	-0.044883
C54	C	1.597153	0.153956	0.288451
C55	C	0.843237	-0.512728	-0.378226
C56	C	1.176570	-0.179394	-0.044892
C57	C	1.509903	0.153939	0.288441
C58	C	1.134383	-0.789271	-0.378230
C59	C	1.467716	-0.455937	-0.044897
C60	C	1.801050	-0.122604	0.288437
C61	C	1.134433	-0.907576	-0.378253
C62	C	1.467766	-0.574243	-0.044920
C63	C	1.801099	-0.240909	0.288414
C64	C	0.802261	-0.580887	-0.428345
C65	C	1.135594	-0.247554	-0.095011
C66	C	1.468928	0.085779	0.238322
C67	C	0.720280	-0.580890	-0.428357
C68	C	1.053614	-0.247556	-0.095024
C69	C	1.386947	0.085777	0.238309
C70	C	0.679277	-0.512737	-0.378246
C71	C	1.012611	-0.179404	-0.044913
C72	C	1.345944	0.153930	0.288421
C73	C	0.720259	-0.444570	-0.328125
C74	C	1.053592	-0.111237	0.005209
C75	C	1.386926	0.222097	0.338542
C76	C	0.802238	-0.444563	-0.328117
C77	C	1.135571	-0.111230	0.005217
C78	C	1.468905	0.222104	0.338550
C79	C	0.549389	-0.444591	-0.328144
C80	C	0.882722	-0.111258	0.005190
C81	C	1.216056	0.222076	0.338523
C82	C	0.467404	-0.444599	-0.328150
C83	C	0.800738	-0.111266	0.005183
C84	C	1.134071	0.222068	0.338516
C85	C	0.467431	-0.580917	-0.428384
C86	C	0.800765	-0.247584	-0.095051
C87	C	1.134098	0.085749	0.238283
C88	C	0.549410	-0.580910	-0.428376
C89	C	0.882744	-0.247577	-0.095043
C90	C	1.216077	0.085756	0.238291
C91	C	0.590386	-0.512745	-0.378253
C92	C	0.923720	-0.179411	-0.044920
C93	C	1.257053	0.153922	0.288413
C94	C	1.081997	-0.976843	-0.430653
C95	C	1.415330	-0.643509	-0.097320
C96	C	1.748664	-0.310176	0.236013
C97	C	1.062873	-1.047703	-0.359026
C98	C	1.396206	-0.714370	-0.025692
C99	C	1.729540	-0.381036	0.307641
C100	C	1.153628	-1.047515	-0.449893
C101	C	1.486962	-0.714181	-0.116560
C102	C	1.820295	-0.380848	0.216774
C103	C	1.115271	-0.976878	-0.306587
C104	C	1.448604	-0.643545	0.026746
C105	C	1.781938	-0.310211	0.360079
C106	C	1.206059	-0.976684	-0.397503
C107	C	1.539393	-0.643350	-0.064170
C108	C	1.872726	-0.310017	0.269163
C109	C	1.186963	-1.047512	-0.325826
C110	C	1.520296	-0.714179	0.007507
C111	C	1.853629	-0.380845	0.340841
C112	C	1.339179	-0.512750	-0.378260
C113	C	1.672512	-0.179416	-0.044927
C114	C	2.005845	0.153917	0.288407
C115	C	1.426428	-0.512758	-0.378269
C116	C	1.759762	-0.179425	-0.044936
C117	C	2.093095	0.153908	0.288397
C118	C	1.134482	-0.512651	-0.582982
C119	C	1.467815	-0.179318	-0.249649
C120	C	1.801149	0.154015	0.083684
C121	C	1.134502	-0.512618	-0.670232
C122	C	1.467835	-0.179284	-0.336899
C123	C	1.801169	0.154049	-0.003565
C124	C	1.134507	-0.235109	-0.378263
C125	C	1.467841	0.098225	-0.044929
C126	C	1.801174	0.431558	0.288404
C127	C	1.134539	-0.116803	-0.378273
C128	C	1.467872	0.216530	-0.044940
C129	C	1.801205	0.549863	0.288393
C130	C	1.184728	-0.444541	-0.711235
C131	C	1.518061	-0.111208	-0.377902
C132	C	1.851394	0.222126	-0.044568
C133	C	1.184737	-0.444506	-0.793216
C134	C	1.518070	-0.111172	-0.459882
C135	C	1.851404	0.222161	-0.126549
C136	C	1.134524	-0.512553	-0.834192
C137	C	1.467858	-0.179220	-0.500858
C138	C	1.801191	0.154114	-0.167525
C139	C	1.084293	-0.580633	-0.793183
C140	C	1.417627	-0.247300	-0.459849
C141	C	1.750960	0.086034	-0.126516
C142	C	1.084281	-0.580662	-0.711204
C143	C	1.417614	-0.247329	-0.377870
C144	C	1.750947	0.086005	-0.044537
C145	C	1.084325	-0.580569	-0.964053
C146	C	1.417658	-0.247236	-0.630720
C147	C	1.750992	0.086098	-0.297386
C148	C	1.084339	-0.580541	-1.046038
C149	C	1.417672	-0.247208	-0.712704
C150	C	1.751005	0.086125	-0.379371
C151	C	1.184782	-0.444412	-1.046065
C152	C	1.518115	-0.111079	-0.712731
C153	C	1.851448	0.222254	-0.379398
C154	C	1.184769	-0.444442	-0.964086
C155	C	1.518102	-0.111108	-0.630752
C156	C	1.851435	0.222225	-0.297419
C157	C	1.134538	-0.512523	-0.923083
C158	C	1.467872	-0.179190	-0.589749
C159	C	1.801205	0.154144	-0.256416
C160	C	1.134432	-0.512731	-0.174290
C161	C	1.467766	-0.179398	0.159043
C162	C	1.801099	0.153936	0.492377
C163	C	1.134564	-0.512465	-0.087041
C164	C	1.467897	-0.179131	0.246293
C165	C	1.801231	0.154202	0.579626
H166	H	0.835640	-0.636389	-0.469149
H167	H	1.168973	-0.303055	-0.135815
H168	H	1.502306	0.030278	0.197518
H169	H	0.434065	-0.636417	-0.469198
H170	H	0.767398	-0.303084	-0.135865
H171	H	1.100732	0.030249	0.197468
H172	H	1.225661	-0.389037	-0.930725
H173	H	1.558994	-0.055704	-0.597392
H174	H	1.892327	0.277629	-0.264059
H175	H	1.043410	-0.635991	-0.930671
H176	H	1.376743	-0.302658	-0.597337
H177	H	1.710077	0.030675	-0.264004
H178	H	1.099008	-0.945978	-0.245994
H179	H	1.432341	-0.612645	0.087340
H180	H	1.765675	-0.279312	0.420673
Br181	Br	1.016110	-0.673049	-0.655556
Br182	Br	1.349443	-0.339716	-0.322222
Br183	Br	1.682776	-0.006382	0.011111
H184	H	0.582793	-0.636412	-0.469177
H185	H	0.916126	-0.303079	-0.135843
H186	H	1.249460	0.030254	0.197490
Br187	Br	1.016142	-0.672978	-0.848792
Br188	Br	1.349475	-0.339645	-0.515459
Br189	Br	1.682808	-0.006311	-0.182126
Br190	Br	1.252955	-0.352020	-1.101710
Br191	Br	1.586288	-0.018687	-0.768377
Br192	Br	1.919621	0.314647	-0.435044
Br193	Br	1.180616	-1.099239	-0.550856
Br194	Br	1.513949	-0.765906	-0.217523
Br195	Br	1.847283	-0.432572	0.115811
H196	H	1.043449	-0.635949	-1.079398
H197	H	1.376783	-0.302616	-0.746065
H198	H	1.710116	0.030717	-0.412731
Br199	Br	0.411757	-0.352113	-0.260136
Br200	Br	0.745090	-0.018780	0.073198
Br201	Br	1.078424	0.314553	0.406531
Br202	Br	0.664613	-0.352066	-0.260123
Br203	Br	0.997946	-0.018732	0.073210
Br204	Br	1.331280	0.314601	0.406544
H205	H	1.231351	-1.078346	-0.281470
H206	H	1.564684	-0.745013	0.051863
H207	H	1.898018	-0.411680	0.385196
Br208	Br	0.961991	-1.099692	-0.331890
Br209	Br	1.295324	-0.766358	0.001444
Br210	Br	1.628658	-0.433025	0.334777
Br211	Br	0.664673	-0.673393	-0.496381
Br212	Br	0.998006	-0.340060	-0.163048
Br213	Br	1.331340	-0.006726	0.170285
H214	H	1.266570	-0.945468	-0.413803
H215	H	1.599903	-0.612135	-0.080470
H216	H	1.933236	-0.278802	0.252864
H217	H	1.037575	-0.945811	-0.474902
H218	H	1.370908	-0.612478	-0.141569
H219	H	1.704241	-0.279145	0.191765
Br220	Br	0.604999	-0.352077	-0.260121
Br221	Br	0.938332	-0.018744	0.073212
Br222	Br	1.271665	0.314590	0.406546
H223	H	0.835599	-0.389055	-0.287309
H224	H	1.168933	-0.055722	0.046025
H225	H	1.502266	0.277612	0.379358
Br226	Br	1.252883	-0.352194	-0.655633
Br227	Br	1.586217	-0.018860	-0.322299
Br228	Br	1.919550	0.314473	0.011034
Br229	Br	1.252940	-0.352161	-0.848860
Br230	Br	1.586273	-0.018828	-0.515526
Br231	Br	1.919607	0.314505	-0.182193
