data_functionalizedCrystal
_audit_creation_method	'MofGen! by Chris Wilmer'
_symmetry_space_group_name_H-M	'P1'
_symmetry_Int_Tables_number	1
_symmetry_cell_setting	triclinic
loop_
_symmetry_equiv_pos_as_xyz
  x,y,z
_cell_length_a	29.839134
_cell_length_b	18.101396
_cell_length_c	18.101389
_cell_angle_alpha	89.983791
_cell_angle_beta	90.028730
_cell_angle_gamma	89.968115
loop_
_atom_site_label
_atom_site_type_symbol
_atom_site_fract_x
_atom_site_fract_y
_atom_site_fract_z
Zn1	Zn	0.686763	0.295009	0.418937
Zn2	Zn	1.020097	0.628342	0.752270
Zn3	Zn	1.353430	0.961675	1.085604
Zn4	Zn	0.686692	0.418834	0.295100
Zn5	Zn	1.020026	0.752168	0.628434
Zn6	Zn	1.353359	1.085501	0.961767
Zn7	Zn	0.611637	0.295000	0.295089
Zn8	Zn	0.944971	0.628334	0.628422
Zn9	Zn	1.278304	0.961667	0.961755
Zn10	Zn	0.611600	0.418802	0.418879
Zn11	Zn	0.944933	0.752135	0.752213
Zn12	Zn	1.278266	1.085469	1.085546
O13	O	0.649173	0.356911	0.357001
O14	O	0.982506	0.690245	0.690335
O15	O	1.315840	1.023578	1.023668
O16	O	0.749621	0.311452	0.402539
O17	O	1.082954	0.644785	0.735872
O18	O	1.416288	0.978118	1.069206
O19	O	0.676722	0.402418	0.191466
O20	O	1.010056	0.735751	0.524799
O21	O	1.343389	1.069084	0.858132
O22	O	0.621648	0.191368	0.311537
O23	O	0.954982	0.524702	0.644870
O24	O	1.288315	0.858035	0.978203
O25	O	0.749569	0.402426	0.311557
O26	O	1.082902	0.735759	0.644890
O27	O	1.416236	1.069093	0.978223
O28	O	0.676843	0.191375	0.402528
O29	O	1.010176	0.524708	0.735861
O30	O	1.343510	0.858041	1.069194
O31	O	0.621580	0.311437	0.191457
O32	O	0.954913	0.644770	0.524791
O33	O	1.288246	0.978104	0.858124
O34	O	0.548765	0.311406	0.311481
O35	O	0.882098	0.644739	0.644814
O36	O	1.215432	0.978072	0.978147
O37	O	0.621584	0.402370	0.522520
O38	O	0.954917	0.735704	0.855853
O39	O	1.288251	1.069037	1.189187
O40	O	0.548737	0.402362	0.402429
O41	O	0.882071	0.735695	0.735763
O42	O	1.215404	1.069029	1.069096
O43	O	0.676807	0.311420	0.522562
O44	O	1.010140	0.644753	0.855896
O45	O	1.343473	0.978087	1.189229
O46	O	0.676686	0.522463	0.311501
O47	O	1.010019	0.855796	0.644834
O48	O	1.343352	1.189130	0.978167
O49	O	0.621515	0.522439	0.402440
O50	O	0.954849	0.855772	0.735774
O51	O	1.288182	1.189106	1.069107
C52	C	0.532451	0.356880	0.356948
C53	C	0.865784	0.690213	0.690281
C54	C	1.199117	1.023547	1.023615
C55	C	0.482516	0.356884	0.356943
C56	C	0.815849	0.690218	0.690276
C57	C	1.149183	1.023551	1.023609
C58	C	0.172868	0.404342	0.404300
C59	C	0.506201	0.737676	0.737634
C60	C	0.839534	1.071009	1.070967
C61	C	-0.014805	0.404363	0.404333
C62	C	0.318528	0.737697	0.737666
C63	C	0.651861	1.071030	1.071000
O64	O	-0.039074	0.444679	0.444567
O65	O	0.294259	0.778012	0.777900
O66	O	0.627592	1.111346	1.111233
N67	N	-0.038269	0.356938	0.357057
N68	N	0.295064	0.690272	0.690390
N69	N	0.628398	1.023605	1.023724
C70	C	-0.014812	0.309502	0.309773
C71	C	0.318522	0.642835	0.643106
C72	C	0.651855	0.976168	0.976440
O73	O	-0.039075	0.269159	0.269568
O74	O	0.294258	0.602492	0.602901
O75	O	0.627592	0.935826	0.936235
C76	C	0.172861	0.309478	0.309744
C77	C	0.506194	0.642811	0.643078
C78	C	0.839527	0.976144	0.976411
C79	C	0.196322	0.356911	0.357018
C80	C	0.529655	0.690244	0.690351
C81	C	0.862989	1.023577	1.023685
C82	C	0.196329	0.451771	0.451571
C83	C	0.529662	0.785105	0.784904
C84	C	0.862996	1.118438	1.118237
C85	C	0.243245	0.451768	0.451559
C86	C	0.576578	0.785102	0.784892
C87	C	0.909911	1.118435	1.118226
C88	C	0.266699	0.404337	0.404277
C89	C	0.600032	0.737670	0.737610
C90	C	0.933365	1.071003	1.070944
C91	C	0.243237	0.356908	0.357007
C92	C	0.576571	0.690241	0.690340
C93	C	0.909904	1.023575	1.023673
C94	C	0.196317	0.262038	0.262464
C95	C	0.529651	0.595371	0.595798
C96	C	0.862984	0.928704	0.929131
C97	C	0.243238	0.262034	0.262463
C98	C	0.576572	0.595368	0.595796
C99	C	0.909905	0.928701	0.929129
C100	C	0.266700	0.309468	0.309737
C101	C	0.600033	0.642801	0.643070
C102	C	0.933366	0.976134	0.976403
C103	C	0.313607	0.309474	0.309713
C104	C	0.646940	0.642807	0.643046
C105	C	0.980274	0.976140	0.976380
N106	N	0.337071	0.356898	0.356989
N107	N	0.670404	0.690232	0.690322
N108	N	1.003737	1.023565	1.023656
C109	C	0.313617	0.404330	0.404271
C110	C	0.646950	0.737663	0.737604
C111	C	0.980283	1.070997	1.070938
C112	C	-0.113342	0.309519	0.309790
C113	C	0.219991	0.642852	0.643124
C114	C	0.553325	0.976185	0.976457
C115	C	-0.160260	0.309525	0.309796
C116	C	0.173073	0.642859	0.643130
C117	C	0.506407	0.976192	0.976463
C118	C	-0.160250	0.404386	0.404358
C119	C	0.173083	0.737720	0.737691
C120	C	0.506416	1.071053	1.071024
C121	C	-0.113332	0.404383	0.404347
C122	C	0.220002	0.737716	0.737681
C123	C	0.553335	1.071049	1.071014
C124	C	-0.089878	0.356943	0.357066
C125	C	0.243455	0.690277	0.690400
C126	C	0.576788	1.023610	1.023733
C127	C	0.412142	0.404321	0.404243
C128	C	0.745476	0.737654	0.737576
C129	C	1.078809	1.070987	1.070909
C130	C	0.459062	0.404316	0.404225
C131	C	0.792395	0.737649	0.737558
C132	C	1.125729	1.070983	1.070891
C133	C	0.459048	0.309453	0.309666
C134	C	0.792382	0.642786	0.643000
C135	C	1.125715	0.976119	0.976333
C136	C	0.412133	0.309460	0.309681
C137	C	0.745466	0.642793	0.643015
C138	C	1.078800	0.976127	0.976348
C139	C	0.388681	0.356897	0.356975
C140	C	0.722014	0.690230	0.690309
C141	C	1.055348	1.023563	1.023642
O142	O	0.337905	0.269173	0.269506
O143	O	0.671238	0.602506	0.602840
O144	O	1.004572	0.935840	0.936173
O145	O	0.337888	0.444655	0.444482
O146	O	0.671222	0.777988	0.777815
O147	O	1.004555	1.111322	1.111148
C148	C	0.125952	0.404345	0.404312
C149	C	0.459286	0.737679	0.737645
C150	C	0.792619	1.071012	1.070978
C151	C	0.102491	0.356917	0.357041
C152	C	0.435824	0.690250	0.690375
C153	C	0.769158	1.023583	1.023708
C154	C	0.125945	0.309485	0.309759
C155	C	0.459278	0.642818	0.643092
C156	C	0.792612	0.976152	0.976426
C157	C	0.055573	0.356923	0.357047
C158	C	0.388907	0.690257	0.690381
C159	C	0.722240	1.023590	1.023714
C160	C	0.032119	0.404355	0.404329
C161	C	0.365452	0.737688	0.737663
C162	C	0.698786	1.071022	1.070996
C163	C	0.055583	0.451780	0.451605
C164	C	0.388916	0.785113	0.784939
C165	C	0.722249	1.118446	1.118272
C166	C	0.102498	0.451777	0.451594
C167	C	0.435832	0.785110	0.784927
C168	C	0.769165	1.118444	1.118260
C169	C	0.102481	0.262060	0.262483
C170	C	0.435815	0.595393	0.595816
C171	C	0.769148	0.928727	0.929150
C172	C	0.055566	0.262067	0.262498
C173	C	0.388899	0.595401	0.595831
C174	C	0.722233	0.928734	0.929165
C175	C	0.032112	0.309499	0.309780
C176	C	0.365445	0.642832	0.643113
C177	C	0.698778	0.976166	0.976447
C178	C	0.649101	0.549322	0.356982
C179	C	0.982434	0.882655	0.690315
C180	C	1.315768	1.215989	1.023648
C181	C	0.649111	0.631636	0.356998
C182	C	0.982444	0.964969	0.690331
C183	C	1.315778	1.298303	1.023665
C184	C	0.649191	0.930727	0.357041
C185	C	0.982524	1.264060	0.690375
C186	C	1.315858	1.597394	1.023708
C187	C	0.614562	0.899418	0.414400
C188	C	0.947895	1.232751	0.747733
C189	C	1.281228	1.566084	1.081067
C190	C	0.614403	0.813800	0.414219
C191	C	0.947736	1.147133	0.747553
C192	C	1.281069	1.480466	1.080886
C193	C	0.649151	0.782344	0.357020
C194	C	0.982485	1.115678	0.690354
C195	C	1.315818	1.449011	1.023687
C196	C	0.636332	0.813480	0.278968
C197	C	0.969665	1.146813	0.612301
C198	C	1.302998	1.480146	0.945634
C199	C	0.636103	0.899125	0.279312
C200	C	0.969436	1.232458	0.612645
C201	C	1.302770	1.565791	0.945979
C202	C	0.696718	0.899081	0.377048
C203	C	1.030051	1.232415	0.710381
C204	C	1.363384	1.565748	1.043715
C205	C	0.696444	0.813430	0.378759
C206	C	1.029777	1.146764	0.712092
C207	C	1.363110	1.480097	1.045425
C208	C	0.649130	0.698485	0.357004
C209	C	0.982463	1.031818	0.690337
C210	C	1.315796	1.365152	1.023671
C211	C	0.649212	1.014586	0.357053
C212	C	0.982545	1.347920	0.690386
C213	C	1.315878	1.681253	1.023719
C214	C	0.766351	0.356943	0.357055
C215	C	1.099685	0.690277	0.690389
C216	C	1.433018	1.023610	1.023722
C217	C	0.816286	0.356957	0.357078
C218	C	1.149619	0.690290	0.690412
C219	C	1.482953	1.023624	1.023745
C220	C	0.649199	0.356893	0.550163
C221	C	0.982532	0.690226	0.883497
C222	C	1.315866	1.023559	1.216830
C223	C	0.649210	0.356885	0.632477
C224	C	0.982543	0.690218	0.965811
C225	C	1.315877	1.023551	1.299144
C226	C	0.649242	1.163749	0.357040
C227	C	0.982575	1.497083	0.690373
C228	C	1.315909	1.830416	1.023707
C229	C	0.649231	1.081435	0.357064
C230	C	0.982565	1.414769	0.690397
C231	C	1.315898	1.748102	1.023730
C232	C	0.649173	0.356877	0.164591
C233	C	0.982506	0.690210	0.497924
C234	C	1.315840	1.023543	0.831258
C235	C	0.649249	0.356676	0.082277
C236	C	0.982582	0.690009	0.415611
C237	C	1.315916	1.023343	0.748944
C238	C	0.649236	0.356746	0.931569
C239	C	0.982570	0.690079	1.264902
C240	C	1.315903	1.023412	1.598235
C241	C	0.614372	0.413787	0.900217
C242	C	0.947706	0.747121	1.233550
C243	C	1.281039	1.080454	1.566883
C244	C	0.614466	0.414052	0.814598
C245	C	0.947800	0.747385	1.147932
C246	C	1.281133	1.080719	1.481265
C247	C	0.649223	0.356815	0.783186
C248	C	0.982556	0.690148	1.116519
C249	C	1.315890	1.023481	1.449853
C250	C	0.696554	0.378006	0.814299
C251	C	1.029888	0.711339	1.147632
C252	C	1.363221	1.044672	1.480965
C253	C	0.696360	0.378380	0.899944
C254	C	1.029693	0.711714	1.233277
C255	C	1.363027	1.045047	1.566610
C256	C	0.637181	0.278386	0.899988
C257	C	0.970514	0.611720	1.233322
C258	C	1.303847	0.945053	1.566655
C259	C	0.636127	0.278839	0.814337
C260	C	0.969461	0.612172	1.147671
C261	C	1.302794	0.945506	1.481004
C262	C	0.649218	0.356852	0.699326
C263	C	0.982552	0.690186	1.032660
C264	C	1.315885	1.023519	1.365993
C265	C	0.649244	0.356710	1.015428
C266	C	0.982577	0.690043	1.348762
C267	C	1.315911	1.023377	1.682095
H268	H	-0.179358	0.270908	0.271294
H269	H	0.153975	0.604241	0.604627
H270	H	0.487308	0.937575	0.937961
H271	H	0.601362	0.919160	0.262366
H272	H	0.934695	1.252493	0.595699
H273	H	1.268028	1.585826	0.929032
H274	H	0.723228	0.337765	0.793954
H275	H	1.056561	0.671098	1.127288
H276	H	1.389895	1.004432	1.460621
C277	C	0.566813	0.396055	0.928011
C278	C	0.900146	0.729389	1.261344
C279	C	1.233480	1.062722	1.594678
H280	H	0.567791	0.353709	0.958989
H281	H	0.901124	0.687043	1.292323
H282	H	1.234458	1.020376	1.625656
H283	H	0.547773	0.386597	0.887020
H284	H	0.881107	0.719931	1.220354
H285	H	1.214440	1.053264	1.553687
H286	H	0.555535	0.436920	0.955188
H287	H	0.888869	0.770253	1.288521
H288	H	1.222202	1.103586	1.621855
C289	C	0.710601	0.454568	0.785347
C290	C	1.043934	0.787902	1.118680
C291	C	1.377268	1.121235	1.452014
H292	H	0.687688	0.473721	0.754308
H293	H	1.021021	0.807055	1.087641
H294	H	1.354355	1.140388	1.420975
H295	H	0.737635	0.450169	0.758006
H296	H	1.070969	0.783502	1.091340
H297	H	1.404302	1.116835	1.424673
H298	H	0.715135	0.487056	0.825873
H299	H	1.048469	0.820390	1.159206
H300	H	1.381802	1.153723	1.492539
C301	C	0.667953	0.218383	0.785513
C302	C	1.001286	0.551716	1.118846
C303	C	1.334619	0.885050	1.452179
H304	H	0.659260	0.171905	0.805224
H305	H	0.992593	0.505238	1.138557
H306	H	1.325927	0.838571	1.471890
H307	H	0.697750	0.229281	0.800429
H308	H	1.031084	0.562615	1.133762
H309	H	1.364417	0.895948	1.467096
H310	H	0.666485	0.216661	0.733114
H311	H	0.999818	0.549995	1.066447
H312	H	1.333151	0.883328	1.399781
C313	C	0.029779	0.503931	0.503639
C314	C	0.363113	0.837264	0.836973
C315	C	0.696446	1.170597	1.170306
H316	H	0.050468	0.532177	0.531800
H317	H	0.383802	0.865510	0.865134
H318	H	0.717135	1.198843	1.198467
H319	H	0.011505	0.475624	0.535947
H320	H	0.344838	0.808957	0.869280
H321	H	0.678171	1.142290	1.202614
H322	H	0.011449	0.536167	0.475274
H323	H	0.344782	0.869500	0.808607
H324	H	0.678115	1.202834	1.141940
C325	C	0.732646	0.324707	0.927969
C326	C	1.065979	0.658040	1.261302
C327	C	1.399313	0.991374	1.594636
H328	H	0.747443	0.302775	0.887009
H329	H	1.080776	0.636108	1.220343
H330	H	1.414110	0.969441	1.553676
H331	H	0.719087	0.287241	0.957119
H332	H	1.052420	0.620575	1.290452
H333	H	1.385754	0.953908	1.623786
H334	H	0.753803	0.351004	0.957057
H335	H	1.087136	0.684337	1.290391
H336	H	1.420469	1.017671	1.623724
H337	H	0.622423	0.792747	0.472094
H338	H	0.955757	1.126081	0.805428
H339	H	1.289090	1.459414	1.138761
C340	C	0.709509	0.785929	0.456352
C341	C	1.042843	1.119263	0.789685
C342	C	1.376176	1.452596	1.123018
H343	H	0.686244	0.755625	0.475424
H344	H	1.019578	1.088959	0.808758
H345	H	1.352911	1.422292	1.142091
H346	H	0.713888	0.827068	0.488111
H347	H	1.047222	1.160401	0.821444
H348	H	1.380555	1.493734	1.154778
H349	H	0.736454	0.758110	0.453384
H350	H	1.069787	1.091443	0.786717
H351	H	1.403121	1.424776	1.120051
H352	H	0.579368	0.400790	0.793561
H353	H	0.912701	0.734124	1.126894
H354	H	1.246035	1.067457	1.460228
H355	H	0.603267	0.259081	0.921569
H356	H	0.936600	0.592414	1.254903
H357	H	1.269933	0.925748	1.588236
C358	C	0.029764	0.209886	0.210495
C359	C	0.363097	0.543219	0.543828
C360	C	0.696430	0.876552	0.877161
H361	H	0.050456	0.181634	0.182342
H362	H	0.383789	0.514967	0.515675
H363	H	0.717123	0.848301	0.849008
H364	H	0.011437	0.238159	0.178178
H365	H	0.344770	0.571492	0.511511
H366	H	0.678104	0.904825	0.844844
H367	H	0.011486	0.177657	0.238893
H368	H	0.344819	0.510990	0.572226
H369	H	0.678152	0.844324	0.905559
H370	H	0.177223	0.223414	0.223967
H371	H	0.510556	0.556748	0.557300
H372	H	0.843890	0.890081	0.890634
H373	H	0.622425	0.472134	0.794119
H374	H	0.955759	0.805467	1.127453
H375	H	1.289092	1.138801	1.460786
H376	H	0.660232	0.919838	0.235117
H377	H	0.993565	1.253171	0.568450
H378	H	1.326898	1.586504	0.901784
C379	C	0.567260	0.928566	0.396731
C380	C	0.900594	1.261900	0.730064
C381	C	1.233927	1.595233	1.063398
H382	H	0.546546	0.909390	0.431649
H383	H	0.879879	1.242723	0.764982
H384	H	1.213212	1.576057	1.098316
H385	H	0.558838	0.913310	0.348477
H386	H	0.892171	1.246643	0.681811
H387	H	1.225504	1.579976	1.015144
H388	H	0.567216	0.980991	0.399181
H389	H	0.900550	1.314324	0.732514
H390	H	1.233883	1.647657	1.065847
H391	H	0.662574	0.235888	0.920266
H392	H	0.995907	0.569221	1.253599
H393	H	1.329241	0.902554	1.586932
H394	H	0.601296	0.262859	0.794000
H395	H	0.934629	0.596192	1.127334
H396	H	1.267962	0.929525	1.460667
C397	C	0.669332	0.785953	0.219654
C398	C	1.002665	1.119287	0.552988
C399	C	1.335999	1.452620	0.886321
H400	H	0.691272	0.755151	0.242019
H401	H	1.024606	1.088485	0.575352
H402	H	1.357939	1.421818	0.908685
H403	H	0.683612	0.827062	0.197097
H404	H	1.016946	1.160395	0.530431
H405	H	1.350279	1.493728	0.863764
H406	H	0.653468	0.758649	0.183259
H407	H	0.986801	1.091982	0.516592
H408	H	1.320135	1.425316	0.849926
C409	C	0.625242	0.927282	0.492822
C410	C	0.958575	1.260615	0.826155
C411	C	1.291908	1.593948	1.159489
H412	H	0.650918	0.958253	0.491290
H413	H	0.984252	1.291586	0.824624
H414	H	1.317585	1.624920	1.157957
H415	H	0.630964	0.886336	0.524285
H416	H	0.964297	1.219669	0.857618
H417	H	1.297630	1.553003	1.190952
H418	H	0.600420	0.954491	0.511263
H419	H	0.933754	1.287824	0.844597
H420	H	1.267087	1.621157	1.177930
C421	C	0.710163	0.455762	0.926948
C422	C	1.043496	0.789096	1.260282
C423	C	1.376829	1.122429	1.593615
H424	H	0.715834	0.486675	0.885576
H425	H	1.049167	0.820008	1.218910
H426	H	1.382500	1.153341	1.552243
H427	H	0.736509	0.452006	0.956193
H428	H	1.069842	0.785339	1.289526
H429	H	1.403175	1.118673	1.622860
H430	H	0.686654	0.476353	0.955724
H431	H	1.019987	0.809687	1.289057
H432	H	1.353321	1.143020	1.622391
H433	H	0.478162	0.442944	0.442721
H434	H	0.811495	0.776278	0.776055
H435	H	1.144829	1.109611	1.109388
H436	H	0.579177	0.793369	0.400966
H437	H	0.912511	1.126702	0.734299
H438	H	1.245844	1.460035	1.067632
H439	H	0.622252	0.471515	0.921745
H440	H	0.955585	0.804848	1.255079
H441	H	1.288919	1.138182	1.588412
H442	H	0.722518	0.919327	0.335272
H443	H	1.055851	1.252661	0.668605
H444	H	1.389184	1.585994	1.001938
H445	H	0.601961	0.792087	0.261718
H446	H	0.935294	1.125420	0.595051
H447	H	1.268627	1.458753	0.928384
H448	H	0.393053	0.442946	0.442756
H449	H	0.726387	0.776280	0.776089
H450	H	1.059720	1.109613	1.109422
C451	C	0.484854	0.257279	0.257664
C452	C	0.818187	0.590612	0.590997
C453	C	1.151521	0.923945	0.924330
H454	H	0.516156	0.264068	0.264438
H455	H	0.849489	0.597401	0.597772
H456	H	1.182823	0.930734	0.931105
H457	H	0.477147	0.268036	0.207885
H458	H	0.810480	0.601369	0.541218
H459	H	1.143813	0.934702	0.874552
H460	H	0.477185	0.207535	0.268601
H461	H	0.810518	0.540868	0.601934
H462	H	1.143852	0.874202	0.935268
H463	H	0.708402	0.920641	0.432995
H464	H	1.041736	1.253975	0.766329
H465	H	1.375069	1.587308	1.099662
H466	H	0.262343	0.490392	0.490056
H467	H	0.595676	0.823725	0.823389
H468	H	0.929009	1.157059	1.156723
H469	H	0.177238	0.490396	0.490077
H470	H	0.510571	0.823729	0.823411
H471	H	0.843904	1.157063	1.156744
H472	H	0.723612	0.792015	0.340027
H473	H	1.056945	1.125348	0.673360
H474	H	1.390279	1.458682	1.006694
H475	H	-0.179355	0.443007	0.442857
H476	H	0.153979	0.776340	0.776190
H477	H	0.487312	1.109674	1.109523
C478	C	-0.087549	0.257340	0.257770
C479	C	0.245784	0.590673	0.591103
C480	C	0.579118	0.924007	0.924436
H481	H	-0.108247	0.229107	0.229613
H482	H	0.225087	0.562440	0.562946
H483	H	0.558420	0.895773	0.896280
H484	H	-0.069226	0.225105	0.286142
H485	H	0.264108	0.558438	0.619475
H486	H	0.597441	0.891772	0.952809
H487	H	-0.069269	0.285626	0.225446
H488	H	0.264065	0.618959	0.558780
H489	H	0.597398	0.952293	0.892113
C490	C	-0.087529	0.456553	0.456354
C491	C	0.245805	0.789886	0.789687
C492	C	0.579138	1.123219	1.123020
H493	H	-0.108221	0.484797	0.484514
H494	H	0.225113	0.818130	0.817848
H495	H	0.558446	1.151463	1.151181
H496	H	-0.069243	0.488778	0.427972
H497	H	0.264090	0.822111	0.761305
H498	H	0.597424	1.155444	1.094638
H499	H	-0.069209	0.428264	0.488674
H500	H	0.264124	0.761597	0.822007
H501	H	0.597458	1.094930	1.155341
H502	H	0.393030	0.270837	0.271186
H503	H	0.726363	0.604171	0.604519
H504	H	1.059696	0.937504	0.937852
C505	C	0.269034	0.209849	0.210453
C506	C	0.602368	0.543183	0.543786
C507	C	0.935701	0.876516	0.877119
H508	H	0.248339	0.181608	0.182300
H509	H	0.581672	0.514941	0.515633
H510	H	0.915006	0.848274	0.848966
H511	H	0.287358	0.177623	0.238835
H512	H	0.620691	0.510956	0.572168
H513	H	0.954024	0.844290	0.905501
H514	H	0.287315	0.238130	0.178125
H515	H	0.620649	0.571463	0.511458
H516	H	0.953982	0.904796	0.844792
C517	C	0.128300	0.503948	0.503601
C518	C	0.461633	0.837282	0.836934
C519	C	0.794966	1.170615	1.170268
H520	H	0.107606	0.532188	0.531763
H521	H	0.440939	0.865522	0.865096
H522	H	0.774273	1.198855	1.198430
H523	H	0.146583	0.536177	0.475220
H524	H	0.479917	0.869510	0.808553
H525	H	0.813250	1.202844	1.141887
H526	H	0.146621	0.475661	0.535920
H527	H	0.479954	0.808994	0.869254
H528	H	0.813287	1.142327	1.202587
C529	C	0.128275	0.209889	0.210464
C530	C	0.461608	0.543222	0.543797
C531	C	0.794941	0.876555	0.877130
H532	H	0.107578	0.181653	0.182309
H533	H	0.440911	0.514986	0.515642
H534	H	0.774244	0.848320	0.848975
H535	H	0.146601	0.177656	0.238834
H536	H	0.479934	0.510989	0.572167
H537	H	0.813268	0.844322	0.905501
H538	H	0.146553	0.238177	0.178139
H539	H	0.479886	0.571510	0.511472
H540	H	0.813219	0.904844	0.844805
