data_functionalizedCrystal
_audit_creation_method	'MofGen! by Chris Wilmer'
_symmetry_space_group_name_H-M	'P1'
_symmetry_Int_Tables_number	1
_symmetry_cell_setting	triclinic
loop_
_symmetry_equiv_pos_as_xyz
  x,y,z
_cell_length_a	14.395555
_cell_length_b	14.395555
_cell_length_c	21.606444
_cell_angle_alpha	59.997367
_cell_angle_beta	90.000721
_cell_angle_gamma	60.001260
loop_
_atom_site_label
_atom_site_type_symbol
_atom_site_fract_x
_atom_site_fract_y
_atom_site_fract_z
Zr1	Zr	0.894945	1.016754	-0.081201
O2	O	0.746622	1.210560	-0.180034
O3	O	0.940411	0.822955	-0.050902
O4	O	0.940418	1.016756	-0.180025
O5	O	0.746614	1.016756	0.050943
O6	O	1.093292	1.016749	-0.180019
O7	O	0.746615	1.016760	-0.050910
O8	O	1.093279	0.670075	0.050959
O9	O	0.746626	1.363430	-0.180035
O10	O	1.073894	0.902660	-0.037977
O11	O	0.959805	0.902662	0.038031
O12	O	0.959813	1.130837	-0.113995
O13	O	0.845724	1.130840	-0.037987
Zr14	Zr	1.138761	1.016738	0.081252
Zr15	Zr	1.138762	1.016743	-0.081192
Zr16	Zr	0.894944	1.016749	0.081243
Zr17	Zr	0.894953	1.260564	-0.081203
Zr18	Zr	1.138753	0.772928	0.081255
O19	O	1.093295	1.210537	0.050953
O20	O	1.093298	1.210545	-0.180021
O21	O	0.746620	1.210552	0.050941
O22	O	1.287084	0.822932	0.180085
O23	O	1.287086	0.822940	-0.050889
O24	O	0.940409	0.822947	0.180073
O25	O	1.287092	1.016736	-0.050891
O26	O	1.093288	1.016736	0.180076
O27	O	0.940414	1.016743	0.180071
O28	O	1.287091	1.016732	0.050962
O29	O	0.940428	1.363421	-0.180028
O30	O	1.093278	0.670071	0.180080
O31	O	1.287080	0.670062	0.180087
O32	O	1.287081	0.670067	0.050965
O33	O	0.746625	1.363425	-0.050914
O34	O	0.940427	1.363417	-0.050907
O35	O	1.073893	0.902655	0.114047
O36	O	1.187982	0.902652	0.038039
O37	O	1.073901	1.130830	-0.037979
O38	O	0.959812	1.130832	0.038029
C39	C	1.016844	0.711778	0.000029
C40	C	1.016841	0.608274	0.000030
C41	C	0.954638	0.547683	0.041475
C42	C	0.909556	0.561944	-0.030002
C43	C	1.061895	0.409618	0.071485
C44	C	0.971696	0.623962	-0.071489
C45	C	1.124095	0.471572	0.030050
C46	C	1.079040	0.485880	-0.041470
C47	C	0.711876	1.016760	0.000015
C48	C	0.608369	1.016764	0.000011
C49	C	0.485579	1.141177	-0.041431
C50	C	0.454741	1.078984	-0.071462
C51	C	0.454783	1.078952	0.030038
C52	C	0.578896	0.954572	-0.030062
C53	C	0.578934	0.954557	0.071477
C54	C	0.548170	0.892273	0.041463
C55	C	1.321830	1.016732	0.000037
C56	C	1.425337	1.016728	0.000040
C57	C	1.016855	1.016753	-0.203167
C58	C	1.016856	1.016756	-0.272129
C59	C	1.016862	1.321714	0.000023
C60	C	1.016865	1.425218	0.000022
C61	C	1.101075	1.016754	-0.304524
C62	C	1.101078	1.016745	-0.369317
C63	C	1.016857	1.016747	-0.401717
C64	C	0.932633	1.016744	-0.369315
C65	C	0.932635	1.016744	-0.304520
C66	C	0.932623	1.016743	-0.630626
C67	C	0.932626	1.016747	-0.695426
C68	C	1.101066	1.016744	-0.695422
C69	C	1.101069	1.016744	-0.630627
C70	C	1.016849	1.016734	-0.598229
C71	C	1.016847	1.016742	-0.527973
C72	C	1.016853	1.016749	-0.471975
C73	C	1.016851	1.016739	0.203218
C74	C	1.016851	1.016736	0.272180
C75	C	1.321821	0.711764	0.000040
C76	C	1.425325	0.608256	0.000044
C77	C	1.016842	0.711771	0.203222
C78	C	1.016838	0.608265	0.272184
C79	C	1.321819	0.711757	0.203232
C80	C	1.425322	0.608246	0.272199
C81	C	0.711887	1.321735	-0.203181
C82	C	0.608384	1.425246	-0.272147
C83	C	0.711885	1.321728	0.000012
C84	C	0.608381	1.425236	0.000007
C85	C	1.016864	1.321721	-0.203170
C86	C	1.016868	1.425227	-0.272133
C87	C	1.076389	0.559653	0.344256
C88	C	1.076381	0.462412	0.409060
C89	C	1.016829	0.413778	0.401791
C90	C	0.957270	0.462399	0.329711
C91	C	0.957272	0.559645	0.264909
C92	C	1.533492	0.559635	0.264911
C93	C	1.630753	0.462390	0.329706
C94	C	1.619842	0.413750	0.401788
C95	C	1.511661	0.462371	0.409075
C96	C	1.414402	0.559621	0.344280
C97	C	0.500214	1.473869	-0.264859
C98	C	0.402953	1.571144	-0.329654
C99	C	0.413864	1.619789	-0.401737
C100	C	0.522045	1.571162	-0.409023
C101	C	0.619304	1.473895	-0.344229
C102	C	1.076432	1.473831	-0.264839
C103	C	1.076458	1.571073	-0.329630
C104	C	1.016912	1.619716	-0.401715
C105	C	0.957346	1.571103	-0.409008
C106	C	0.957328	1.473856	-0.344217
C107	C	1.548117	0.547693	0.041472
C108	C	1.578974	0.409582	0.071492
C109	C	1.578885	0.561991	-0.030010
C110	C	1.454818	0.471445	0.030106
C111	C	1.454733	0.623928	-0.071435
C112	C	1.485516	0.485827	-0.041433
H113	H	1.099988	0.318005	0.131918
H114	H	0.864040	1.016746	-0.721805
H115	H	1.214768	0.434400	0.055466
C116	C	0.451234	1.283283	-0.088844
H117	H	0.408012	1.327285	-0.139611
H118	H	0.406809	1.327918	-0.068025
H119	H	0.517708	1.282309	-0.088160
H120	H	1.131641	0.458935	-0.076571
H121	H	1.169646	1.016746	-0.721805
C122	C	1.382410	0.747750	-0.153043
H123	H	1.309353	0.765738	-0.165339
H124	H	1.374518	0.820248	-0.156960
H125	H	1.418742	0.733642	-0.187182
H126	H	1.124884	0.422836	0.467744
H127	H	0.401226	1.131568	-0.131889
H128	H	1.573559	0.574762	0.076577
H129	H	1.632362	0.599230	-0.055403
C130	C	0.839995	1.016750	-0.268884
H131	H	0.852064	1.016737	-0.225650
H132	H	0.767290	1.092946	-0.304887
H133	H	0.843494	0.940542	-0.254114
H134	H	1.718829	0.422813	0.323760
H135	H	0.864047	1.016739	-0.604254
C136	C	1.141895	0.613143	0.352264
H137	H	1.133383	0.678017	0.303352
H138	H	1.112479	0.651087	0.379181
H139	H	1.220247	0.543315	0.379194
H140	H	0.901964	0.574910	0.076472
H141	H	1.016936	1.698901	-0.454466
H142	H	0.314877	1.610720	-0.323707
C143	C	1.016843	0.306801	0.473078
H144	H	1.060851	0.284813	0.517040
H145	H	0.940975	0.338667	0.473089
H146	H	1.048740	0.230908	0.473091
H147	H	0.707377	1.434307	-0.350172
C148	C	0.582843	0.750034	0.088830
H149	H	0.553788	0.735525	0.129738
H150	H	0.552694	0.736003	0.057781
H151	H	0.663456	0.690815	0.108206
H152	H	1.169646	1.016749	-0.604251
H153	H	0.491309	1.434267	-0.206172
H154	H	0.908818	1.434294	-0.350166
C155	C	0.534032	1.624670	-0.488315
H156	H	0.460610	1.689549	-0.525855
H157	H	0.574442	1.662611	-0.494013
H158	H	0.574423	1.554850	-0.494002
H159	H	1.542397	0.599223	0.206224
C160	C	0.382512	1.150000	0.064335
H161	H	0.375795	1.090831	0.107951
H162	H	0.418156	1.180447	0.078245
H163	H	0.308984	1.222553	0.027960
C164	C	0.840018	1.016687	-0.404931
H165	H	0.789875	1.016659	-0.376346
H166	H	0.798400	1.092867	-0.455597
H167	H	0.874653	0.940464	-0.404802
C168	C	0.787040	0.612186	-0.064316
H169	H	0.742931	0.633270	-0.034810
H170	H	0.754621	0.688404	-0.114795
H171	H	0.787985	0.545863	-0.064498
H172	H	0.334660	1.698990	-0.454490
H173	H	1.632510	0.317939	0.131913
C174	C	1.382782	0.420881	0.064513
H175	H	1.317037	0.487356	0.064354
H176	H	1.360378	0.398995	0.035294
H177	H	1.426492	0.345102	0.115131
H178	H	1.502794	0.422754	0.467773
H179	H	0.933497	0.715532	-0.131950
C180	C	0.891770	1.624695	-0.488301
H181	H	0.856270	1.581844	-0.483374
H182	H	0.835441	1.716510	-0.515183
H183	H	0.943128	1.608796	-0.515263
C184	C	1.726833	0.306767	0.473055
H185	H	1.792814	0.284779	0.458384
H186	H	1.726856	0.338626	0.502374
H187	H	1.726846	0.230875	0.502366
C188	C	0.891783	0.408878	0.321725
H189	H	0.900331	0.343988	0.370644
H190	H	0.813431	0.478677	0.294799
H191	H	0.921212	0.370915	0.294813
C192	C	1.450869	0.449324	-0.088787
H193	H	1.407576	0.416455	-0.067347
H194	H	1.406437	0.525099	-0.139322
H195	H	1.517232	0.383868	-0.088891
C196	C	1.295422	0.613068	0.352306
H197	H	1.302864	0.570155	0.404517
H198	H	1.254989	0.704887	0.328680
H199	H	1.255017	0.597106	0.328686
H200	H	0.632253	0.902029	-0.055514
C201	C	1.141942	1.420336	-0.185554
H202	H	1.177425	1.463211	-0.190501
H203	H	1.090545	1.436279	-0.158626
H204	H	1.198297	1.328511	-0.158628
C205	C	0.891776	0.613100	0.185632
H206	H	0.900293	0.677988	0.148073
H207	H	0.921189	0.543267	0.179964
H208	H	0.813422	0.651047	0.179947
H209	H	1.124962	1.610643	-0.323678
C210	C	0.651237	0.883595	0.153084
H211	H	0.607906	0.927937	0.174341
H212	H	0.673108	0.795662	0.182750
H213	H	0.717300	0.883442	0.152504
C214	C	1.193710	1.016767	-0.268892
H215	H	1.181644	1.016783	-0.225667
H216	H	1.266416	0.940573	-0.254124
H217	H	1.190204	1.092977	-0.304904
C218	C	1.193710	1.016762	-0.404955
H219	H	1.243859	1.016782	-0.376386
H220	H	1.235317	0.940568	-0.404848
H221	H	1.159099	1.092972	-0.455620
