data_functionalizedCrystal
_audit_creation_method	'MofGen! by Chris Wilmer'
_symmetry_space_group_name_H-M	'P1'
_symmetry_Int_Tables_number	1
_symmetry_cell_setting	triclinic
loop_
_symmetry_equiv_pos_as_xyz
  x,y,z
_cell_length_a	11.026607
_cell_length_b	14.853567
_cell_length_c	9.482900
_cell_angle_alpha	99.351342
_cell_angle_beta	78.636152
_cell_angle_gamma	96.110474
loop_
_atom_site_label
_atom_site_type_symbol
_atom_site_fract_x
_atom_site_fract_y
_atom_site_fract_z
O1	O	1.629690	0.366576	-0.120866
O2	O	1.276313	0.323576	-0.120871
O3	O	1.462441	0.215369	-0.120872
O4	O	1.443561	0.474783	-0.120864
O5	O	1.424635	0.237461	0.120920
O6	O	1.238506	0.345668	0.120922
O7	O	1.591884	0.388668	0.120927
Cu8	Cu	1.411743	0.369186	0.143002
Cu9	Cu	1.456453	0.343059	-0.142946
O10	O	1.405755	0.496875	0.120929
C11	C	1.212185	0.326689	0.000025
C12	C	1.077432	0.303041	0.000022
C13	C	1.442683	0.192688	0.000020
C14	C	1.440122	0.092190	0.000007
C15	C	1.003736	0.368337	0.000023
C16	C	0.864461	0.343897	0.000020
C17	C	1.318718	-0.339931	0.000033
C18	C	1.539842	-0.325531	0.000036
C19	C	1.542254	-0.231109	0.000028
C20	C	1.432895	-0.191094	0.000024
C21	C	1.321125	-0.245500	0.000029
C22	C	1.654019	-0.176694	0.000038
C23	C	1.656435	-0.082266	0.000031
C24	C	1.547077	-0.042250	0.000017
C25	C	1.435303	-0.096663	0.000020
C26	C	1.325944	-0.056648	0.000016
C27	C	1.214170	-0.111060	0.000009
C28	C	1.211767	-0.205484	0.000015
C29	C	1.549480	0.052174	0.000011
C30	C	1.328352	0.037783	0.000012
C31	C	1.656012	0.385555	0.000029
C32	C	1.790766	0.409202	0.000022
C33	C	1.425513	0.519556	0.000033
C34	C	1.428076	0.620054	0.000037
N35	N	1.380304	0.387562	0.344123
N36	N	1.487901	0.324677	-0.344066
C37	C	1.447172	0.348473	0.416321
C38	C	1.421024	0.363771	0.583739
H39	H	1.043750	0.442333	0.000034
C40	C	1.276796	0.448058	0.428037
H41	H	1.238224	0.470589	0.361030
H42	H	1.311428	0.498024	0.487422
H43	H	1.216854	0.412868	0.487410
C44	C	1.672414	0.112023	0.000022
H45	H	1.737199	0.074667	0.000023
H46	H	1.664761	0.156866	0.084337
H47	H	1.691141	0.141447	-0.084311
H48	H	1.227715	-0.384238	0.000021
H49	H	0.824456	0.269894	-0.000019
C50	C	1.317530	0.424286	0.667654
H51	H	1.313538	0.426635	0.769169
H52	H	1.240306	0.399216	0.642799
H53	H	1.334917	0.484350	0.642781
H54	H	1.747448	-0.037972	0.000035
C55	C	0.844805	0.509169	0.000017
H56	H	0.931326	0.512482	0.000006
H57	H	0.805037	0.546056	0.084331
H58	H	0.831407	0.530635	-0.084317
H59	H	1.037422	0.229043	-0.000018
H60	H	1.628875	-0.358116	0.000051
H61	H	1.564509	0.279878	0.593809
C62	C	1.208059	0.081797	0.000001
H63	H	1.225498	0.145825	-0.000009
H64	H	1.149046	0.071068	0.084313
H65	H	1.175433	0.055657	-0.084335
C66	C	1.093880	-0.067040	0.000007
H67	H	1.026965	-0.112964	0.000011
H68	H	1.103414	-0.038204	-0.084307
H69	H	1.077042	-0.022802	0.084340
C70	C	1.088827	-0.265335	0.000027
H71	H	1.103056	-0.327300	0.000050
H72	H	1.056968	-0.260532	-0.084289
H73	H	1.030616	-0.245107	0.084359
C74	C	1.774300	-0.220710	0.000052
H75	H	1.756858	-0.284740	0.000038
H76	H	1.806934	-0.194575	0.084375
H77	H	1.833312	-0.209985	-0.084273
C78	C	1.550660	0.287962	0.332400
H79	H	1.554663	0.285622	0.230886
H80	H	1.533287	0.227903	0.357277
H81	H	1.627889	0.313042	0.357253
