data_functionalizedCrystal
_audit_creation_method	'MofGen! by Chris Wilmer'
_symmetry_space_group_name_H-M	'P1'
_symmetry_Int_Tables_number	1
_symmetry_cell_setting	triclinic
loop_
_symmetry_equiv_pos_as_xyz
  x,y,z
_cell_length_a	14.044220
_cell_length_b	19.188930
_cell_length_c	12.503572
_cell_angle_alpha	93.506241
_cell_angle_beta	86.164750
_cell_angle_gamma	88.166830
loop_
_atom_site_label
_atom_site_type_symbol
_atom_site_fract_x
_atom_site_fract_y
_atom_site_fract_z
O1	O	1.262485	0.164589	-0.089229
O2	O	0.986542	0.158515	-0.089255
O3	O	1.132475	0.060411	-0.089220
O4	O	1.116552	0.262693	-0.089264
O5	O	1.121500	0.067803	0.089419
O6	O	0.975567	0.165907	0.089384
O7	O	1.251510	0.171980	0.089411
Cu8	Cu	1.112536	0.169618	0.105709
Cu9	Cu	1.125516	0.160877	-0.105553
O10	O	1.105577	0.270084	0.089376
C11	C	0.945752	0.159553	0.000061
C12	C	0.840559	0.151624	0.000052
C13	C	0.647956	0.137129	0.000077
C14	C	0.590090	0.193363	0.000069
C15	C	0.482920	0.185298	0.000083
C16	C	0.755137	0.145193	0.000063
C17	C	1.126472	0.038063	0.000102
C18	C	1.124923	-0.039541	0.000112
C19	C	1.210552	-0.078939	0.000125
C20	C	1.209099	-0.151857	0.000108
C21	C	1.122010	-0.185374	0.000098
C22	C	1.036370	-0.145968	0.000079
C23	C	1.037826	-0.073051	0.000086
N24	N	1.051706	-0.295160	0.060886
N25	N	1.050328	-0.364427	0.060882
C26	C	1.117616	-0.405067	0.000076
N27	N	1.186348	-0.373823	-0.060712
N28	N	1.187729	-0.304548	-0.060704
C29	C	1.120421	-0.264440	0.000091
C30	C	1.201676	-0.523532	0.000069
C31	C	1.200219	-0.596451	0.000045
C32	C	1.027487	-0.590560	0.000028
C33	C	1.028947	-0.517642	0.000041
C34	C	1.116043	-0.484132	0.000067
C35	C	1.292301	0.170943	0.000092
C36	C	1.397493	0.178872	0.000094
C37	C	1.111580	0.292433	0.000051
C38	C	1.113129	0.370037	0.000034
N39	N	1.103414	0.175766	0.254299
N40	N	1.134645	0.154724	-0.254143
C41	C	1.089995	0.184816	0.473411
C42	C	1.148061	0.145676	0.526752
C43	C	1.140595	0.150712	0.648673
C44	C	1.097461	0.179782	0.351478
H45	H	1.281473	-0.051660	0.000142
O46	O	0.627054	0.258005	-0.000164
C47	C	0.731105	0.335435	-0.092762
C48	C	0.689297	0.262211	-0.092629
H49	H	0.781452	0.338855	-0.167500
H50	H	0.670665	0.376528	-0.092845
H51	H	0.772201	0.345116	-0.017983
H52	H	0.648211	0.252463	-0.167395
H53	H	0.749778	0.221158	-0.092489
O54	O	1.292367	-0.190031	0.000171
C55	C	1.463847	-0.188187	0.000145
C56	C	1.369617	-0.144873	0.000097
H57	H	1.526330	-0.151696	0.000062
H58	H	1.462945	-0.219368	0.074922
H59	H	1.472026	-0.225574	-0.074598
H60	H	1.361378	-0.107448	0.074790
H61	H	1.370561	-0.113739	-0.074729
O62	O	0.611011	0.072478	-0.000103
C63	C	0.518269	-0.012607	-0.092607
C64	C	0.560089	0.060617	-0.092544
H65	H	0.477073	-0.022214	-0.167326
H66	H	0.578706	-0.053716	-0.092678
H67	H	0.468011	-0.016081	-0.017809
H68	H	0.610335	0.064159	-0.167329
H69	H	0.499603	0.101692	-0.092418
H70	H	1.203381	0.108386	0.480852
O71	O	0.945819	-0.479285	0.000182
C72	C	0.841508	-0.389752	0.092758
C73	C	0.935691	-0.433132	0.092725
H74	H	0.833279	-0.352437	0.167582
H75	H	0.842451	-0.358502	0.018051
H76	H	0.779029	-0.426245	0.092696
H77	H	0.998220	-0.396690	0.092825
H78	H	0.934665	-0.464390	0.167425
H79	H	0.965462	-0.173262	0.000069
O80	O	0.954552	-0.034879	0.000126
C81	C	0.783079	-0.036734	0.000038
C82	C	0.877315	-0.080048	0.000014
H83	H	0.720610	-0.073235	-0.000076
H84	H	0.774782	0.000617	0.074821
H85	H	0.784090	-0.005512	-0.074700
H86	H	0.876370	-0.111312	0.074701
H87	H	0.885576	-0.117354	-0.074819
O88	O	1.023962	0.229212	0.528278
C89	C	0.886807	0.241290	0.655379
C90	C	0.961540	0.190936	0.593309
H91	H	0.836308	0.210362	0.707954
H92	H	0.924443	0.280798	0.708092
H93	H	0.844304	0.269988	0.595972
H94	H	1.004066	0.162189	0.652639
H95	H	0.923847	0.151471	0.540579
O96	O	1.286364	-0.491088	0.000028
C97	C	1.457530	-0.504624	0.000086
C98	C	1.361691	-0.541453	0.000114
H99	H	1.518456	-0.545326	0.000179
H100	H	1.467182	-0.473739	-0.074688
H101	H	1.457894	-0.467530	0.074833
H102	H	1.361259	-0.578580	-0.074582
H103	H	1.352077	-0.572293	0.074938
H104	H	1.269952	-0.628529	0.000050
H105	H	0.956578	-0.617849	0.000015
