data_functionalizedCrystal
_audit_creation_method	'MofGen! by Chris Wilmer'
_symmetry_space_group_name_H-M	'P1'
_symmetry_Int_Tables_number	1
_symmetry_cell_setting	triclinic
loop_
_symmetry_equiv_pos_as_xyz
  x,y,z
_cell_length_a	18.215407
_cell_length_b	19.077068
_cell_length_c	18.215399
_cell_angle_alpha	92.265636
_cell_angle_beta	89.983176
_cell_angle_gamma	92.327501
loop_
_atom_site_label
_atom_site_type_symbol
_atom_site_fract_x
_atom_site_fract_y
_atom_site_fract_z
Zn1	Zn	1.113266	-0.280183	-0.427868
Zn2	Zn	1.446600	0.053150	-0.094535
Zn3	Zn	1.779933	0.386483	0.238799
Zn4	Zn	1.108231	-0.397890	-0.309739
Zn5	Zn	1.441564	-0.064556	0.023595
Zn6	Zn	1.774897	0.268777	0.356928
Zn7	Zn	0.990204	-0.280211	-0.304816
Zn8	Zn	1.323537	0.053122	0.028517
Zn9	Zn	1.656871	0.386456	0.361850
Zn10	Zn	0.985216	-0.397846	-0.432762
Zn11	Zn	1.318549	-0.064512	-0.099428
Zn12	Zn	1.651883	0.268821	0.233905
O13	O	1.049229	-0.339032	-0.368796
O14	O	1.382563	-0.005699	-0.035463
O15	O	1.715896	0.327634	0.297870
O16	O	1.215582	-0.295804	-0.412210
O17	O	1.548916	0.037529	-0.078876
O18	O	1.882249	0.370863	0.254457
O19	O	1.092554	-0.382310	-0.206103
O20	O	1.425888	-0.048976	0.127231
O21	O	1.759221	0.284357	0.460564
O22	O	1.010723	-0.181716	-0.317031
O23	O	1.344057	0.151617	0.016302
O24	O	1.677390	0.484950	0.349635
O25	O	1.211883	-0.382282	-0.325421
O26	O	1.545216	-0.048949	0.007913
O27	O	1.878549	0.284384	0.341246
O28	O	1.101137	-0.181696	-0.407437
O29	O	1.434470	0.151637	-0.074103
O30	O	1.767803	0.484971	0.259230
O31	O	1.005841	-0.295852	-0.202486
O32	O	1.339174	0.037482	0.130847
O33	O	1.672507	0.370815	0.464180
O34	O	0.886558	-0.295809	-0.321777
O35	O	1.219892	0.037524	0.011557
O36	O	1.553225	0.370858	0.344890
O37	O	1.002222	-0.382207	-0.535096
O38	O	1.335555	-0.048874	-0.201762
O39	O	1.668889	0.284459	0.131571
O40	O	0.882894	-0.382234	-0.415778
O41	O	1.216227	-0.048901	-0.082444
O42	O	1.549560	0.284432	0.250889
O43	O	1.096300	-0.295761	-0.531500
O44	O	1.429633	0.037572	-0.198167
O45	O	1.762967	0.370906	0.135166
O46	O	1.087718	-0.496375	-0.330166
O47	O	1.421051	-0.163041	0.003167
O48	O	1.754384	0.170292	0.336501
O49	O	0.997339	-0.496342	-0.420551
O50	O	1.330673	-0.163009	-0.087217
O51	O	1.664006	0.170324	0.246116
C52	C	0.858023	-0.339020	-0.368775
C53	C	1.191357	-0.005687	-0.035441
C54	C	1.524690	0.327646	0.297892
C55	C	0.776224	-0.339032	-0.368784
C56	C	1.109557	-0.005699	-0.035450
C57	C	1.442891	0.327635	0.297883
C58	C	0.586138	-0.384105	-0.417674
C59	C	0.919472	-0.050771	-0.084340
C60	C	1.252805	0.282562	0.248993
C61	C	0.509279	-0.384107	-0.417683
C62	C	0.842613	-0.050774	-0.084350
C63	C	1.175946	0.282560	0.248984
C64	C	0.513072	-0.293973	-0.319935
C65	C	0.846405	0.039360	0.013398
C66	C	1.179738	0.372694	0.346731
C67	C	0.589929	-0.293968	-0.319930
C68	C	0.923263	0.039366	0.013403
C69	C	1.256596	0.372699	0.346736
C70	C	0.626460	-0.339038	-0.368798
C71	C	0.959794	-0.005704	-0.035465
C72	C	1.293127	0.327629	0.297868
C73	C	0.472744	-0.339045	-0.368813
C74	C	0.806077	-0.005712	-0.035480
C75	C	1.139411	0.327622	0.297854
C76	C	0.389410	-0.339047	-0.368823
C77	C	0.722744	-0.005714	-0.035489
C78	C	1.056077	0.327620	0.297844
C79	C	0.709799	-0.339035	-0.368790
C80	C	1.043133	-0.005701	-0.035457
C81	C	1.376466	0.327632	0.297877
C82	C	1.041461	-0.521896	-0.376440
C83	C	1.374794	-0.188563	-0.043106
C84	C	1.708127	0.144770	0.290227
C85	C	1.038205	-0.600126	-0.379734
C86	C	1.371538	-0.266793	-0.046401
C87	C	1.704871	0.066541	0.286933
C88	C	1.083766	-0.636872	-0.334263
C89	C	1.417100	-0.303539	-0.000929
C90	C	1.750433	0.029795	0.332404
C91	C	1.080708	-0.710377	-0.337365
C92	C	1.414042	-0.377044	-0.004032
C93	C	1.747375	-0.043711	0.329301
C94	C	1.032084	-0.747135	-0.385937
C95	C	1.365417	-0.413802	-0.052603
C96	C	1.698751	-0.080469	0.280730
C97	C	0.986520	-0.710384	-0.431413
C98	C	1.319854	-0.377051	-0.098080
C99	C	1.653187	-0.043717	0.235253
C100	C	0.989583	-0.636880	-0.428314
C101	C	1.322916	-0.303547	-0.094980
C102	C	1.656249	0.029787	0.238353
C103	C	1.017879	-0.966969	-0.400253
C104	C	1.351212	-0.633636	-0.066920
C105	C	1.684545	-0.300303	0.266414
C106	C	1.014818	-1.040478	-0.403348
C107	C	1.348152	-0.707145	-0.070014
C108	C	1.681485	-0.373812	0.263319
C109	C	1.109008	-1.040467	-0.309300
C110	C	1.442341	-0.707133	0.024033
C111	C	1.775674	-0.373800	0.357366
C112	C	1.112063	-0.966961	-0.306202
C113	C	1.445396	-0.633628	0.027131
C114	C	1.778729	-0.300295	0.360465
C115	C	1.066502	-0.930217	-0.351681
C116	C	1.399835	-0.596883	-0.018348
C117	C	1.733168	-0.263550	0.314986
N118	N	1.028955	-0.822270	-0.389108
N119	N	1.362289	-0.488936	-0.055775
N120	N	1.695622	-0.155603	0.277559
N121	N	1.069635	-0.855084	-0.348513
N122	N	1.402968	-0.521750	-0.015180
N123	N	1.736301	-0.188417	0.318154
C124	C	1.241182	-0.339045	-0.368818
C125	C	1.574515	-0.005712	-0.035485
C126	C	1.907848	0.327622	0.297848
C127	C	1.322980	-0.339050	-0.368828
C128	C	1.656314	-0.005717	-0.035495
C129	C	1.989647	0.327616	0.297839
C130	C	1.049266	-0.338976	-0.560747
C131	C	1.382600	-0.005643	-0.227414
C132	C	1.715933	0.327691	0.105920
C133	C	1.049282	-0.338952	-0.642545
C134	C	1.382616	-0.005619	-0.309211
C135	C	1.715949	0.327714	0.024122
C136	C	1.057048	-0.155455	-0.361139
C137	C	1.390382	0.177879	-0.027806
C138	C	1.723715	0.511212	0.305528
C139	C	1.060380	-0.077225	-0.357876
C140	C	1.393713	0.256109	-0.024543
C141	C	1.727047	0.589442	0.308791
C142	C	1.004171	-0.293903	-0.828855
C143	C	1.337505	0.039430	-0.495522
C144	C	1.670838	0.372763	-0.162189
C145	C	1.004185	-0.293889	-0.905714
C146	C	1.337518	0.039444	-0.572380
C147	C	1.670852	0.372778	-0.239047
C148	C	1.094484	-0.383917	-0.909469
C149	C	1.427818	-0.050584	-0.576135
C150	C	1.761151	0.282749	-0.242802
C151	C	1.094467	-0.383934	-0.832612
C152	C	1.427800	-0.050601	-0.499279
C153	C	1.761133	0.282732	-0.165945
C154	C	1.049311	-0.338923	-0.792307
C155	C	1.382645	-0.005590	-0.458974
C156	C	1.715978	0.327743	-0.125641
C157	C	1.049343	-0.338892	-0.946022
C158	C	1.382676	-0.005559	-0.612689
C159	C	1.716009	0.327775	-0.279355
C160	C	1.049357	-0.338877	-1.029355
C161	C	1.382691	-0.005544	-0.696022
C162	C	1.716024	0.327790	-0.362688
C163	C	1.049295	-0.338939	-0.708969
C164	C	1.382629	-0.005606	-0.375636
C165	C	1.715962	0.327727	-0.042302
C166	C	1.049237	-0.339038	-0.177590
C167	C	1.382570	-0.005704	0.155743
C168	C	1.715903	0.327629	0.489076
C169	C	1.049372	-0.338863	-0.095784
C170	C	1.382705	-0.005530	0.237549
C171	C	1.716039	0.327803	0.570882
H172	H	0.483319	-0.257280	-0.280148
H173	H	0.816652	0.076054	0.053186
H174	H	1.149985	0.409387	0.386519
H175	H	0.476452	-0.420804	-0.457483
H176	H	0.809786	-0.087471	-0.124150
H177	H	1.143119	0.245863	0.209184
O178	O	1.143157	-0.432497	-0.793190
O179	O	1.476490	-0.099164	-0.459856
O180	O	1.809823	0.234169	-0.126523
H181	H	1.135550	-0.424953	-0.732976
H182	H	1.468883	-0.091619	-0.399642
H183	H	1.802217	0.241714	-0.066309
O184	O	1.136225	-0.597233	-0.281883
O185	O	1.469558	-0.263899	0.051450
O186	O	1.802891	0.069434	0.384784
H187	H	1.130701	-0.539946	-0.287364
H188	H	1.464034	-0.206613	0.045969
H189	H	1.797368	0.126720	0.379302
H190	H	0.967403	-0.257252	-0.796041
H191	H	1.300736	0.076081	-0.462708
H192	H	1.634070	0.409414	-0.129375
H193	H	1.146102	-1.070392	-0.272275
H194	H	1.479435	-0.737059	0.061058
H195	H	1.812769	-0.403726	0.394392
O196	O	0.934077	-0.750031	-0.483803
O197	O	1.267411	-0.416697	-0.150469
O198	O	1.600744	-0.083364	0.182864
H199	H	0.902915	-0.712127	-0.514907
H200	H	1.236248	-0.378794	-0.181573
H201	H	1.569582	-0.045461	0.151760
O202	O	0.955504	-0.245327	-0.945136
O203	O	1.288838	0.088007	-0.611803
O204	O	1.622171	0.421340	-0.278470
H205	H	0.924109	-0.214029	-0.904195
H206	H	1.257443	0.119305	-0.570862
H207	H	1.590776	0.452638	-0.237528
O208	O	0.968738	-0.927335	-0.449295
O209	O	1.302071	-0.594002	-0.115961
O210	O	1.635404	-0.260668	0.217372
H211	H	0.932719	-0.893895	-0.414905
H212	H	1.266052	-0.560562	-0.081572
H213	H	1.599386	-0.227228	0.251761
O214	O	0.633420	-0.245364	-0.267199
O215	O	0.966753	0.087969	0.066134
O216	O	1.300087	0.421303	0.399467
H217	H	0.621014	-0.190139	-0.277595
H218	H	0.954348	0.143194	0.055738
H219	H	1.287681	0.476527	0.389072
H220	H	1.117809	-0.740293	-0.300337
H221	H	1.451142	-0.406960	0.032996
H222	H	1.784476	-0.073626	0.366330
H223	H	0.975231	-1.070405	-0.442913
H224	H	1.308565	-0.737071	-0.109580
H225	H	1.641898	-0.403738	0.223753
O226	O	0.940433	-0.597241	-0.477349
O227	O	1.273767	-0.263908	-0.144015
O228	O	1.607100	0.069426	0.189318
H229	H	0.906100	-0.635148	-0.511637
H230	H	1.239433	-0.301815	-0.178304
H231	H	1.572766	0.031518	0.155029
O232	O	1.143191	-0.432462	-0.952937
O233	O	1.476524	-0.099128	-0.619604
O234	O	1.809857	0.234205	-0.286270
H235	H	1.181988	-0.400954	-0.986638
H236	H	1.515321	-0.067621	-0.653304
H237	H	1.848654	0.265712	-0.319971
O238	O	0.625544	-0.432705	-0.470387
O239	O	0.958877	-0.099371	-0.137053
O240	O	1.292211	0.233962	0.196280
H241	H	0.584590	-0.464037	-0.504380
H242	H	0.917923	-0.130703	-0.171046
H243	H	1.251257	0.202630	0.162287
O244	O	1.164514	-0.927315	-0.253821
O245	O	1.497847	-0.593981	0.079512
O246	O	1.831181	-0.260648	0.412845
H247	H	1.195689	-0.965216	-0.222728
H248	H	1.529022	-0.631883	0.110605
H249	H	1.862356	-0.298550	0.443939
