data_functionalizedCrystal
_audit_creation_method	'MofGen! by Chris Wilmer'
_symmetry_space_group_name_H-M	'P1'
_symmetry_Int_Tables_number	1
_symmetry_cell_setting	triclinic
loop_
_symmetry_equiv_pos_as_xyz
  x,y,z
_cell_length_a	11.792254
_cell_length_b	10.268362
_cell_length_c	8.559649
_cell_angle_alpha	90.003615
_cell_angle_beta	76.988631
_cell_angle_gamma	90.004525
loop_
_atom_site_label
_atom_site_type_symbol
_atom_site_fract_x
_atom_site_fract_y
_atom_site_fract_z
O1	O	1.486859	0.108292	0.218936
O2	O	1.154458	0.108295	0.241469
O3	O	1.349943	0.108292	-0.002144
O4	O	1.291374	0.108295	0.462549
O5	O	1.349929	-0.108309	-0.002154
O6	O	1.154443	-0.108306	0.241459
O7	O	1.486845	-0.108308	0.218926
Cu8	Cu	1.320643	-0.128084	0.230191
Cu9	Cu	1.320660	0.128071	0.230203
O10	O	1.291359	-0.108306	0.462539
C11	C	1.112290	-0.000005	0.240044
C12	C	0.986666	-0.000004	0.235796
N13	N	1.320639	-0.308250	0.230182
C14	C	0.884645	0.000001	0.232344
C15	C	0.756653	0.000002	0.228028
C16	C	1.320654	-0.573921	0.230200
C17	C	1.320642	-0.426083	0.230195
C18	C	1.529013	-0.000005	0.220351
C19	C	1.654637	0.000002	0.224599
C20	C	1.354375	-0.000006	-0.061640
C21	C	1.367587	0.000001	-0.238905
N22	N	1.320673	0.308237	0.230200
C23	C	1.286928	-0.000005	0.522035
C24	C	1.273716	-0.000003	0.699300
H25	H	1.458067	-0.000010	-0.321621
H26	H	1.183241	-0.000007	-0.217993
