data_functionalizedCrystal
_audit_creation_method	'MofGen! by Chris Wilmer'
_symmetry_space_group_name_H-M	'P1'
_symmetry_Int_Tables_number	1
_symmetry_cell_setting	triclinic
loop_
_symmetry_equiv_pos_as_xyz
  x,y,z
_cell_length_a	11.026607
_cell_length_b	27.732048
_cell_length_c	9.482900
_cell_angle_alpha	99.251554
_cell_angle_beta	78.636152
_cell_angle_gamma	95.614336
loop_
_atom_site_label
_atom_site_type_symbol
_atom_site_fract_x
_atom_site_fract_y
_atom_site_fract_z
O1	O	1.625408	0.196163	-0.120955
O2	O	1.272533	0.173153	-0.120950
O3	O	1.459925	0.115249	-0.120925
O4	O	1.438015	0.254067	-0.120980
O5	O	1.421861	0.127071	0.120862
O6	O	1.234468	0.184975	0.120837
O7	O	1.587343	0.207985	0.120832
Cu8	Cu	1.407430	0.197559	0.142912
Cu9	Cu	1.452446	0.183578	-0.143030
O10	O	1.399950	0.265889	0.120807
C11	C	1.208369	0.174819	-0.000055
C12	C	1.073891	0.162164	-0.000052
C13	C	0.999433	0.197105	-0.000067
C14	C	0.860443	0.184027	-0.000064
C15	C	1.440432	0.103112	-0.000028
C16	C	1.439045	0.049333	-0.000016
C17	C	1.541074	-0.280305	-0.000092
C18	C	1.535937	-0.482429	-0.000112
O19	O	1.629234	-0.505292	-0.000177
N20	N	1.424818	-0.511552	-0.000109
C21	C	1.314976	-0.490142	-0.000110
O22	O	1.220347	-0.519552	-0.000123
C23	C	1.320117	-0.288020	-0.000101
C24	C	1.431241	-0.258899	-0.000089
C25	C	1.652189	-0.251184	-0.000082
C26	C	1.653471	-0.200656	-0.000069
C27	C	1.543638	-0.179249	-0.000066
C28	C	1.432523	-0.208371	-0.000076
C29	C	1.210279	-0.266612	-0.000113
C30	C	1.211574	-0.216078	-0.000114
C31	C	1.322698	-0.186957	-0.000102
C32	C	1.323971	-0.136436	-0.000060
N33	N	1.435090	-0.107312	-0.000063
C34	C	1.544923	-0.128719	-0.000066
C35	C	1.312285	-0.596259	-0.000113
C36	C	1.310999	-0.646789	-0.000113
C37	C	1.531960	-0.639072	-0.000117
C38	C	1.533243	-0.588540	-0.000106
C39	C	1.423404	-0.567135	-0.000116
C40	C	1.547607	-0.022606	-0.000037
C41	C	1.548878	0.027926	-0.000018
C42	C	1.327919	0.020204	-0.000022
C43	C	1.326646	-0.030324	-0.000033
C44	C	1.436501	-0.051728	-0.000046
O45	O	1.230726	-0.113540	-0.000011
O46	O	1.639544	-0.099302	-0.000085
C47	C	1.539792	-0.330833	-0.000105
C48	C	1.428677	-0.359955	-0.000115
C49	C	1.318844	-0.338548	-0.000112
C50	C	1.427391	-0.410485	-0.000115
C51	C	1.537224	-0.431892	-0.000117
C52	C	1.648343	-0.402768	-0.000120
C53	C	1.649625	-0.352240	-0.000107
C54	C	1.207725	-0.367672	-0.000109
C55	C	1.206451	-0.418199	-0.000120
C56	C	1.316285	-0.439606	-0.000123
C57	C	1.651507	0.206319	-0.000066
C58	C	1.785986	0.218973	-0.000079
C59	C	1.419444	0.278026	-0.000094
C60	C	1.420833	0.331805	-0.000115
N61	N	1.375777	0.207393	0.344028
N62	N	1.484109	0.173742	-0.344146
C63	C	1.443101	0.186476	0.416236
C64	C	1.416774	0.194662	0.583650
H65	H	1.637062	-0.040028	-0.000053
H66	H	1.034746	0.122566	-0.000074
H67	H	1.038583	0.236702	-0.000074
C68	C	1.183914	0.212001	0.515427
C69	C	1.271651	0.239751	0.427878
H70	H	1.119634	0.231980	0.567195
H71	H	1.149848	0.185271	0.456063
H72	H	1.222756	0.199940	0.582414
H73	H	1.232810	0.251809	0.360883
H74	H	1.305718	0.266490	0.487246
C75	C	1.643329	-0.521172	0.124185
C76	C	1.655396	-0.556533	-0.000106
H77	H	1.718749	-0.501417	0.124184
H78	H	1.578119	-0.501188	0.124172
H79	H	1.624954	-0.536930	0.208494
H80	H	1.673762	-0.540775	-0.084416
H81	H	1.720626	-0.576519	-0.000106
H82	H	1.743960	-0.176949	-0.000065
H83	H	1.520227	0.162505	0.354118
H84	H	1.741635	-0.268607	-0.000089
C85	C	0.680151	0.127959	-0.000055
C86	C	0.807611	0.130568	-0.000050
H87	H	0.647538	0.094956	-0.000057
H88	H	0.639962	0.147692	0.084253
H89	H	0.666514	0.139454	-0.084381
H90	H	0.821247	0.119077	0.084282
H91	H	0.847812	0.110829	-0.084367
C92	C	1.628087	-0.713111	-0.000152
C93	C	1.652696	-0.662609	-0.000141
H94	H	1.702624	-0.727643	-0.000186
H95	H	1.569230	-0.718853	0.084169
H96	H	1.595737	-0.727086	-0.084465
H97	H	1.685038	-0.648634	0.084177
H98	H	1.711574	-0.656863	-0.084471
C99	C	1.563432	0.093997	0.609116
C100	C	1.588209	0.141337	0.572195
H101	H	1.627687	0.073980	0.557513
H102	H	1.559305	0.095306	0.710644
H103	H	1.486508	0.080599	0.584205
H104	H	1.665128	0.154737	0.597116
H105	H	1.592350	0.140030	0.470644
C106	C	0.989191	-0.380384	-0.000084
C107	C	1.086982	-0.344146	-0.000089
H108	H	0.914643	-0.365860	-0.000056
H109	H	1.006559	-0.404046	-0.084405
H110	H	0.980038	-0.395817	0.084229
H111	H	1.096141	-0.328715	-0.084409
H112	H	1.069611	-0.320476	0.084240
H113	H	0.825129	0.258573	-0.000085
H114	H	1.639372	0.051636	-0.000005
H115	H	1.220507	-0.670495	-0.000097
H116	H	1.339635	0.218631	0.645764
H117	H	1.222836	-0.578836	-0.000120
H118	H	1.119791	-0.290315	-0.000131
H119	H	1.122128	-0.198654	-0.000123
C120	C	1.108367	-0.032874	-0.000043
C121	C	1.204499	-0.062337	-0.000048
H122	H	1.032963	-0.052638	-0.000075
H123	H	1.100181	-0.008894	0.084282
H124	H	1.126756	-0.017116	-0.084352
H125	H	1.186115	-0.078093	0.084266
H126	H	1.212684	-0.086327	-0.084382
H127	H	1.238495	0.037643	-0.000014
C128	C	1.798837	-0.297014	-0.124397
C129	C	1.771778	-0.320233	-0.000108
H130	H	1.874250	-0.277254	-0.124393
H131	H	1.807010	-0.321004	-0.208699
H132	H	1.733609	-0.277028	-0.124377
H133	H	1.837002	-0.340221	-0.000134
H134	H	1.763614	-0.296239	0.084215
H135	H	1.737772	-0.420206	-0.000116
H136	H	1.115952	-0.441906	-0.000117
