data_functionalizedCrystal
_audit_creation_method	'MofGen! by Chris Wilmer'
_symmetry_space_group_name_H-M	'P1'
_symmetry_Int_Tables_number	1
_symmetry_cell_setting	triclinic
loop_
_symmetry_equiv_pos_as_xyz
  x,y,z
_cell_length_a	19.188933
_cell_length_b	19.188924
_cell_length_c	18.266242
_cell_angle_alpha	89.991576
_cell_angle_beta	89.992377
_cell_angle_gamma	83.143767
loop_
_atom_site_label
_atom_site_type_symbol
_atom_site_fract_x
_atom_site_fract_y
_atom_site_fract_z
O1	O	0.926146	0.087175	-0.060860
O2	O	1.426146	0.587175	0.439140
O3	O	0.722835	0.098908	-0.060867
O4	O	1.222835	0.598908	0.439133
O5	O	0.830360	-0.008614	-0.060855
O6	O	1.330360	0.491386	0.439145
O7	O	0.818621	0.194698	-0.060872
O8	O	1.318621	0.694698	0.439128
O9	O	0.830342	-0.008620	0.060907
O10	O	1.330342	0.491380	0.560907
O11	O	0.722817	0.098903	0.060895
O12	O	1.222817	0.598903	0.560895
O13	O	0.926128	0.087170	0.060902
O14	O	1.426128	0.587170	0.560902
Zn15	Zn	0.824469	0.093036	0.080231
Zn16	Zn	1.324469	0.593036	0.580231
Zn17	Zn	0.824493	0.093043	-0.080196
Zn18	Zn	1.324493	0.593043	0.419804
O19	O	0.818603	0.194692	0.060890
O20	O	1.318603	0.694692	0.560890
C21	C	0.696815	0.098525	0.000013
C22	C	1.196815	0.598525	0.500013
C23	C	0.619310	0.097384	0.000011
C24	C	1.119310	0.597384	0.500011
C25	C	0.066065	0.089242	-0.066353
C26	C	0.566065	0.589242	0.433647
C27	C	0.138889	0.090310	-0.066356
C28	C	0.638889	0.590310	0.433644
C29	C	0.175296	0.090844	0.000016
C30	C	0.675296	0.590844	0.500016
C31	C	0.138876	0.090293	0.066396
C32	C	0.638876	0.590293	0.566396
C33	C	0.066054	0.089217	0.066397
C34	C	0.566054	0.589217	0.566397
N35	N	0.284308	0.132261	0.049416
N36	N	0.784308	0.632261	0.549416
N37	N	0.353486	0.133284	0.049411
N38	N	0.853486	0.633284	0.549411
C39	C	0.394705	0.094082	0.000017
C40	C	0.894705	0.594082	0.500017
N41	N	0.364132	0.053828	-0.049382
N42	N	0.864132	0.553828	0.450618
N43	N	0.294948	0.052808	-0.049379
N44	N	0.794948	0.552808	0.450621
C45	C	0.254260	0.092010	0.000022
C46	C	0.754260	0.592010	0.500022
C47	C	0.510082	0.095787	-0.066362
C48	C	1.010082	0.595787	0.433638
C49	C	0.582908	0.096851	-0.066362
C50	C	1.082908	0.596851	0.433638
C51	C	0.582892	0.096841	0.066392
C52	C	1.082892	0.596841	0.566392
C53	C	0.510068	0.095770	0.066390
C54	C	1.010068	0.595770	0.566390
C55	C	0.473667	0.095246	0.000011
C56	C	0.973667	0.595246	0.500011
C57	C	0.829972	-0.034628	0.000027
C58	C	1.329972	0.465372	0.500027
C59	C	0.828833	-0.112133	0.000029
C60	C	1.328833	0.387867	0.500029
C61	C	0.828311	-0.148529	-0.066344
C62	C	1.328311	0.351471	0.433656
C63	C	0.827231	-0.221351	-0.066349
C64	C	1.327231	0.278649	0.433651
C65	C	0.826687	-0.257777	0.000021
C66	C	1.326687	0.242223	0.500021
C67	C	0.827205	-0.221372	0.066403
C68	C	1.327205	0.278628	0.566403
C69	C	0.828278	-0.148550	0.066407
C70	C	1.328278	0.351450	0.566407
N71	N	0.864728	-0.377442	0.049421
N72	N	1.364728	0.122558	0.549421
N73	N	0.863710	-0.446621	0.049413
N74	N	1.363710	0.053379	0.549413
C75	C	0.823453	-0.477186	0.000014
C76	C	1.323453	0.022814	0.500014
N77	N	0.784261	-0.435962	-0.049387
N78	N	1.284261	0.064038	0.450613
N79	N	0.785282	-0.366777	-0.049381
N80	N	1.285282	0.133223	0.450619
C81	C	0.825523	-0.336741	0.000025
C82	C	1.325523	0.163259	0.500025
C83	C	0.821760	-0.592545	-0.066369
C84	C	1.321760	-0.092545	0.433631
C85	C	0.820675	-0.665368	-0.066372
C86	C	1.320675	-0.165368	0.433628
C87	C	0.820656	-0.665389	0.066382
C88	C	1.320656	-0.165389	0.566382
C89	C	0.821733	-0.592566	0.066383
C90	C	1.321733	-0.092566	0.566383
C91	C	0.822288	-0.556149	0.000006
C92	C	1.322288	-0.056149	0.500006
C93	C	0.952148	0.087553	0.000020
C94	C	1.452148	0.587553	0.500020
C95	C	1.029653	0.088694	0.000018
C96	C	1.529653	0.588694	0.500018
C97	C	0.818991	0.220706	0.000006
C98	C	1.318991	0.720706	0.500006
C99	C	0.820130	0.298211	-0.000000
C100	C	1.320130	0.798211	0.500000
N101	N	0.824458	0.093030	0.189718
N102	N	1.324458	0.593030	0.689718
N103	N	0.824510	0.093043	-0.189683
N104	N	1.324510	0.593043	0.310317
C105	C	0.872086	0.045442	0.228032
C106	C	1.372086	0.545442	0.728032
C107	C	0.872090	0.045439	0.304677
C108	C	1.372090	0.545439	0.804677
C109	C	0.824474	0.093036	0.343005
C110	C	1.324474	0.593036	0.843005
C111	C	0.776837	0.140627	0.304681
C112	C	1.276837	0.640627	0.804681
C113	C	0.776829	0.140624	0.228038
C114	C	1.276829	0.640624	0.728038
N115	N	0.815397	0.154843	0.463331
N116	N	1.315397	0.654843	0.963331
N117	N	0.815408	0.154844	0.536140
N118	N	1.315408	0.654844	1.036140
C119	C	0.824493	0.093046	0.573927
C120	C	1.324493	0.593046	1.073927
N121	N	0.833580	0.031245	0.536156
N122	N	1.333580	0.531245	1.036156
N123	N	0.833572	0.031246	0.463341
N124	N	1.333572	0.531246	0.963341
C125	C	0.824477	0.093044	0.426112
C126	C	1.324477	0.593044	0.926112
C127	C	0.872129	0.045451	0.695349
C128	C	1.372129	0.545451	1.195349
C129	C	0.872128	0.045446	0.771995
C130	C	1.372128	0.545446	1.271995
C131	C	0.776878	0.140640	0.771997
C132	C	1.276878	0.640640	1.271997
C133	C	0.776875	0.140638	0.695353
C134	C	1.276875	0.640638	1.195353
C135	C	0.824504	0.093044	0.657033
C136	C	1.324504	0.593044	1.157033
H137	H	0.036432	0.088813	-0.120404
H138	H	0.536432	0.588813	0.379596
H139	H	0.910876	0.006686	0.335878
H140	H	1.410876	0.506686	0.835878
H141	H	0.036407	0.088774	0.120446
H142	H	0.536407	0.588774	0.620446
H143	H	0.910909	0.006694	0.664147
H144	H	1.410909	0.506694	1.164147
C145	C	0.924523	-0.006902	0.814141
C146	C	1.424523	0.493098	1.314141
H147	H	0.952890	-0.035240	0.780339
H148	H	1.452890	0.464760	1.280339
H149	H	0.899507	-0.035908	0.844052
H150	H	1.399507	0.464092	1.344052
H151	H	0.953507	0.018154	0.844027
H152	H	1.453507	0.518154	1.344027
H153	H	0.480443	0.095359	-0.120412
H154	H	0.980443	0.595359	0.379588
C155	C	0.828920	-0.108470	-0.139354
C156	C	1.328920	0.391530	0.360646
H157	H	0.829640	-0.059887	-0.129848
H158	H	1.329640	0.440113	0.370152
H159	H	0.788045	-0.114951	-0.166634
H160	H	1.288045	0.385049	0.333366
H161	H	0.869463	-0.125853	-0.166618
H162	H	1.369463	0.374147	0.333382
C163	C	0.724500	0.192995	0.814148
C164	C	1.224500	0.692995	1.314148
H165	H	0.731328	0.186185	0.865283
H166	H	1.231328	0.686185	1.365283
H167	H	0.677928	0.185528	0.801600
H168	H	1.177928	0.685528	1.301600
H169	H	0.731941	0.239577	0.801577
H170	H	1.231941	0.739577	1.301577
H171	H	0.826802	-0.250990	-0.120400
H172	H	1.326802	0.249010	0.379600
H173	H	0.168523	0.090726	0.120437
H174	H	0.668523	0.590726	0.620437
H175	H	0.828700	-0.118916	0.120457
H176	H	1.328700	0.381084	0.620457
C177	C	0.724462	0.192984	0.346838
C178	C	1.224462	0.692984	0.846838
H179	H	0.731293	0.186175	0.397972
H180	H	1.231293	0.686175	0.897972
H181	H	0.677889	0.185516	0.334293
H182	H	1.177889	0.685516	0.834293
H183	H	0.731902	0.239565	0.334263
H184	H	1.231902	0.739565	0.834263
H185	H	0.910867	0.006687	0.196834
H186	H	1.410867	0.506687	0.696834
H187	H	0.738044	0.179376	0.196841
H188	H	1.238044	0.679376	0.696841
H189	H	0.612555	0.097292	-0.120412
H190	H	1.112555	0.597292	0.379588
H191	H	0.738095	0.179391	0.664155
H192	H	1.238095	0.679391	1.164155
C193	C	0.820051	-0.705447	0.139389
C194	C	1.320051	-0.205447	0.639389
H195	H	0.819340	-0.754031	0.129882
H196	H	1.319340	-0.254031	0.629882
H197	H	0.779516	-0.688065	0.166658
H198	H	1.279516	-0.188065	0.666658
H199	H	0.860934	-0.698971	0.166665
H200	H	1.360934	-0.198971	0.666665
C201	C	0.622931	0.097428	0.139400
C202	C	1.122931	0.597428	0.639400
H203	H	0.671516	0.098150	0.129895
H204	H	1.171516	0.598150	0.629895
H205	H	0.616443	0.056544	0.166676
H206	H	1.116443	0.556544	0.666676
H207	H	0.605543	0.137962	0.166669
H208	H	1.105543	0.637962	0.666669
H209	H	0.168542	0.090760	-0.120405
H210	H	0.668542	0.590760	0.379595
H211	H	0.480420	0.095326	0.120437
H212	H	0.980420	0.595326	0.620437
H213	H	0.826760	-0.251034	0.120442
H214	H	1.326760	0.248966	0.620442
H215	H	0.822208	-0.562892	-0.120418
H216	H	1.322208	-0.062892	0.379582
H217	H	0.820247	-0.695000	-0.120423
H218	H	1.320247	-0.195000	0.379577
H219	H	0.822164	-0.562932	0.120431
H220	H	1.322164	-0.062932	0.620431
