data_functionalizedCrystal
_audit_creation_method	'MofGen! by Chris Wilmer'
_symmetry_space_group_name_H-M	'P1'
_symmetry_Int_Tables_number	1
_symmetry_cell_setting	triclinic
loop_
_symmetry_equiv_pos_as_xyz
  x,y,z
_cell_length_a	10.654543
_cell_length_b	9.798715
_cell_length_c	10.654550
_cell_angle_alpha	89.996767
_cell_angle_beta	84.483552
_cell_angle_gamma	90.001205
loop_
_atom_site_label
_atom_site_type_symbol
_atom_site_fract_x
_atom_site_fract_y
_atom_site_fract_z
O1	O	-1.667844	0.113344	-0.176356
O2	O	-1.302365	0.113379	-0.193171
O3	O	-1.493508	0.113352	-0.002024
O4	O	-1.476702	0.113371	-0.367503
O5	O	-1.493494	-0.113630	-0.002023
O6	O	-1.302352	-0.113603	-0.193170
O7	O	-1.667831	-0.113638	-0.176355
Zn8	Zn	-1.485089	-0.149659	-0.184762
Zn9	Zn	-1.485107	0.149400	-0.184764
O10	O	-1.476688	-0.113612	-0.367502
C11	C	-1.255560	-0.000108	-0.191938
C12	C	-1.116116	-0.000095	-0.188249
N13	N	-1.485086	-0.353759	-0.184760
C14	C	-1.036631	-0.000091	-0.300793
C15	C	-0.905609	-0.000111	-0.297319
C16	C	-0.933573	-0.000134	-0.068749
C17	C	-1.064591	-0.000123	-0.072224
C18	C	-1.565541	-0.578702	-0.104329
C19	C	-1.565524	-0.421539	-0.104330
C20	C	-0.714635	-0.000142	-0.177595
C21	C	-0.854077	-0.000126	-0.181301
C22	C	-1.492267	-0.000138	0.044774
C23	C	-1.488575	-0.000136	0.184217
N24	N	-1.485120	0.353499	-0.184756
C25	C	-1.477929	-0.000118	-0.414300
C26	C	-1.481621	-0.000112	-0.553744
C27	C	-1.601117	-0.000146	0.263706
C28	C	-1.597641	-0.000129	0.394726
C29	C	-1.369070	-0.000097	0.366758
C30	C	-1.372548	-0.000105	0.235740
H31	H	-1.078578	-0.000078	-0.395268
H32	H	-1.129313	-0.000130	0.019428
H33	H	-1.274605	-0.000075	0.408724
Br34	Br	-1.750383	-0.000135	0.502600
H35	H	-0.840896	-0.000111	-0.388964
Br36	Br	-0.863637	-0.000167	0.088706
H37	H	-1.416226	-0.412054	-0.253616
H38	H	-1.280897	-0.000092	0.171016
H39	H	-1.634371	-0.363235	-0.035469
Br40	Br	-1.370344	-0.549333	-0.299541
Br41	Br	-1.680338	-0.675866	0.010437
H42	H	-1.695593	-0.000169	0.221761
