data_functionalizedCrystal
_audit_creation_method	'MofGen! by Chris Wilmer'
_symmetry_space_group_name_H-M	'P1'
_symmetry_Int_Tables_number	1
_symmetry_cell_setting	triclinic
loop_
_symmetry_equiv_pos_as_xyz
  x,y,z
_cell_length_a	17.699083
_cell_length_b	11.792241
_cell_length_c	16.776229
_cell_angle_alpha	89.993219
_cell_angle_beta	89.998886
_cell_angle_gamma	83.738215
loop_
_atom_site_label
_atom_site_type_symbol
_atom_site_fract_x
_atom_site_fract_y
_atom_site_fract_z
O1	O	1.004843	0.143527	-0.066177
O2	O	1.504843	0.643527	0.433823
O3	O	0.784565	0.162200	-0.066203
O4	O	1.284565	0.662200	0.433797
O5	O	0.900050	-0.012371	-0.066184
O6	O	1.400050	0.487629	0.433816
O7	O	0.889358	0.318098	-0.066196
O8	O	1.389358	0.818098	0.433804
O9	O	0.900034	-0.012382	0.066393
O10	O	1.400034	0.487618	0.566393
O11	O	0.784549	0.162189	0.066374
O12	O	1.284549	0.662189	0.566374
O13	O	1.004828	0.143516	0.066400
O14	O	1.504828	0.643516	0.566400
Zn15	Zn	0.894686	0.152851	0.087436
Zn16	Zn	1.394686	0.652851	0.587436
Zn17	Zn	0.894706	0.152865	-0.087239
Zn18	Zn	1.394706	0.652865	0.412761
O19	O	0.889343	0.318087	0.066381
O20	O	1.389343	0.818087	0.566381
C21	C	0.756356	0.161525	0.000082
C22	C	1.256356	0.661525	0.500082
C23	C	0.672328	0.159518	0.000072
C24	C	1.172328	0.659518	0.500072
C25	C	0.624253	0.261988	0.000069
C26	C	1.124253	0.761988	0.500069
C27	C	0.545299	0.260095	0.000079
C28	C	1.045299	0.760095	0.500079
C29	C	0.514422	0.155731	0.000087
C30	C	1.014422	0.655731	0.500087
C31	C	0.562503	0.053254	0.000093
C32	C	1.062503	0.553254	0.500093
C33	C	0.641455	0.055148	0.000089
C34	C	1.141455	0.555148	0.500089
C35	C	0.244099	0.045613	0.000113
C36	C	0.744099	0.545613	0.500113
C37	C	0.165141	0.043727	0.000116
C38	C	0.665141	0.543727	0.500116
C39	C	0.147944	0.250560	0.000104
C40	C	0.647944	0.750560	0.500104
C41	C	0.226896	0.252454	0.000099
C42	C	0.726896	0.752454	0.500099
C43	C	0.274970	0.149977	0.000109
C44	C	0.774970	0.649977	0.500109
C45	C	0.360580	0.152031	0.000099
C46	C	0.860580	0.652031	0.500099
C47	C	0.428814	0.153676	0.000091
C48	C	0.928814	0.653676	0.500091
C49	C	0.899370	-0.054660	0.000104
C50	C	1.399370	0.445340	0.500104
C51	C	0.897360	-0.180649	0.000103
C52	C	1.397360	0.319351	0.500103
C53	C	0.893664	-0.411317	0.000090
C54	C	1.393664	0.088683	0.500090
C55	C	0.895718	-0.282956	0.000097
C56	C	1.395718	0.217044	0.500097
C57	C	1.033036	0.144190	0.000113
C58	C	1.533036	0.644190	0.500113
C59	C	1.117065	0.146198	0.000118
C60	C	1.617065	0.646198	0.500118
C61	C	0.890022	0.360375	0.000091
C62	C	1.390022	0.860375	0.500091
C63	C	0.892032	0.486365	0.000087
C64	C	1.392032	0.986365	0.500087
N65	N	0.894678	0.152841	0.206647
N66	N	1.394678	0.652841	0.706647
N67	N	0.894721	0.152866	-0.206450
N68	N	1.394721	0.652866	0.293550
C69	C	0.945830	0.075572	0.248373
C70	C	1.445830	0.575572	0.748373
C71	C	0.945834	0.075571	0.331825
C72	C	1.445834	0.575571	0.831825
C73	C	0.894689	0.152845	0.373550
C74	C	1.394689	0.652845	0.873550
C75	C	0.843531	0.230117	0.331819
C76	C	1.343531	0.730117	0.831819
C77	C	0.843524	0.230112	0.248368
C78	C	1.343524	0.730112	0.748368
C79	C	0.843559	0.230139	0.668366
C80	C	1.343559	0.730139	1.168366
C81	C	0.843571	0.230141	0.751822
C82	C	1.343571	0.730141	1.251822
C83	C	0.945869	0.075599	0.751823
C84	C	1.445869	0.575599	1.251823
C85	C	0.945862	0.075593	0.668372
C86	C	1.445862	0.575593	1.168372
C87	C	0.894702	0.152861	0.626648
C88	C	1.394702	0.652861	1.126648
C89	C	0.894697	0.152860	0.536160
C90	C	1.394697	0.652860	1.036160
C91	C	0.894697	0.152853	0.464037
C92	C	1.394697	0.652853	0.964037
H93	H	0.987482	0.012652	0.214406
H94	H	1.487482	0.512652	0.714406
O95	O	1.001019	-0.007747	0.376833
O96	O	1.501019	0.492253	0.876833
H97	H	1.036593	-0.061464	0.333799
H98	H	1.536593	0.438536	0.833799
H99	H	0.537357	-0.031721	0.000112
H100	H	1.037357	0.468279	0.500112
O101	O	0.693314	-0.055371	0.000095
O102	O	1.193314	0.444629	0.500095
H103	H	0.682292	-0.105323	-0.053940
H104	H	1.182292	0.394677	0.446060
O105	O	0.131841	-0.068847	0.000137
O106	O	0.631841	0.431153	0.500137
H107	H	0.096287	-0.074668	-0.053900
H108	H	0.596287	0.425332	0.446100
O109	O	1.001021	-0.007757	0.623366
O110	O	1.501021	0.492243	1.123366
H111	H	1.036586	-0.061497	0.666402
H112	H	1.536586	0.438503	1.166402
H113	H	0.987525	0.012680	0.785804
H114	H	1.487525	0.512680	1.285804
H115	H	0.801920	0.293069	0.785794
H116	H	1.301920	0.793069	1.285794
H117	H	0.108792	0.334002	0.000100
H118	H	0.608792	0.834002	0.500100
O119	O	0.295941	-0.064915	0.000118
O120	O	0.795941	0.435085	0.500118
H121	H	0.356030	-0.046074	0.000123
H122	H	0.856030	0.453926	0.500123
O123	O	0.788389	0.313484	0.623367
O124	O	1.288389	0.813484	1.123367
H125	H	0.752834	0.367225	0.666404
H126	H	1.252834	0.867225	1.166404
O127	O	0.788368	0.313471	0.376816
O128	O	1.288368	0.813471	0.876816
H129	H	0.796972	0.300505	0.441855
H130	H	1.296972	0.800505	0.941855
O131	O	0.788354	0.313442	0.203350
O132	O	1.288354	0.813442	0.703350
H133	H	0.798356	0.401909	0.219341
H134	H	1.298356	0.901909	0.719341
O135	O	0.657555	0.374552	0.000067
O136	O	1.157555	0.874552	0.500067
H137	H	0.610858	0.445487	0.000077
H138	H	1.110858	0.945487	0.500077
H139	H	0.506159	0.343536	0.000075
H140	H	1.006159	0.843536	0.500075
H141	H	0.252031	0.337438	0.000089
H142	H	0.752031	0.837438	0.500089
