data_functionalizedCrystal
_audit_creation_method	'MofGen! by Chris Wilmer'
_symmetry_space_group_name_H-M	'P1'
_symmetry_Int_Tables_number	1
_symmetry_cell_setting	triclinic
loop_
_symmetry_equiv_pos_as_xyz
  x,y,z
_cell_length_a	15.625950
_cell_length_b	15.538191
_cell_length_c	12.376774
_cell_angle_alpha	105.619169
_cell_angle_beta	84.928291
_cell_angle_gamma	66.741480
loop_
_atom_site_label
_atom_site_type_symbol
_atom_site_fract_x
_atom_site_fract_y
_atom_site_fract_z
O1	O	1.116634	0.060607	-0.363574
O2	O	0.860707	0.093234	-0.258702
O3	O	1.038489	-0.063640	-0.331547
O4	O	0.938851	0.217482	-0.290729
O5	O	1.019074	-0.094548	-0.511594
O6	O	0.841292	0.062327	-0.438749
O7	O	1.097219	0.029700	-0.543621
Zn8	Zn	0.966173	0.041106	-0.519771
Zn9	Zn	0.991753	0.081828	-0.282551
O10	O	0.919436	0.186574	-0.470776
C11	C	0.819045	0.079362	-0.335631
C12	C	0.723834	0.084064	-0.296615
C13	C	0.357686	0.015364	-0.658877
C14	C	0.268218	0.019809	-0.622163
C15	C	0.289428	0.053501	-0.425901
C16	C	0.378897	0.049063	-0.462598
C17	C	0.413019	0.029993	-0.579087
C18	C	0.434231	0.063693	-0.382808
C19	C	0.523694	0.059250	-0.419503
C20	C	0.557825	0.040178	-0.535989
C21	C	0.502483	0.025550	-0.615783
C22	C	0.400110	0.082756	-0.266320
C23	C	0.455443	0.097385	-0.186530
C24	C	0.544906	0.092950	-0.223224
C25	C	0.579036	0.073877	-0.339709
C26	C	0.600248	0.107577	-0.143430
C27	C	0.689711	0.103134	-0.180126
C28	C	0.668500	0.069435	-0.376405
C29	C	1.039207	-0.114907	-0.425839
C30	C	1.070259	-0.221618	-0.438552
C31	C	0.761768	-0.488159	-0.312164
C32	C	0.790967	-0.588437	-0.324132
C33	C	0.955207	-0.622195	-0.391433
C34	C	0.926022	-0.521917	-0.379466
C35	C	0.829301	-0.454906	-0.339832
C36	C	0.993556	-0.488665	-0.407133
C37	C	0.964372	-0.388397	-0.395172
C38	C	0.867655	-0.321380	-0.355544
C39	C	0.800118	-0.354638	-0.327871
C40	C	1.090275	-0.555679	-0.446774
C41	C	1.157808	-0.522427	-0.474442
C42	C	1.128626	-0.422155	-0.462473
C43	C	1.031909	-0.355139	-0.422845
C44	C	1.196163	-0.388898	-0.490146
C45	C	1.166980	-0.288629	-0.478185
C46	C	1.002726	-0.254871	-0.410884
C47	C	1.138881	0.043572	-0.466690
C48	C	1.234093	0.038872	-0.505698
C49	C	0.918719	0.237842	-0.376482
C50	C	0.887667	0.344554	-0.363761
N51	N	0.948721	0.013313	-0.681670
C52	C	0.908189	-0.051214	-0.724226
C53	C	0.895963	-0.070666	-0.837550
C54	C	0.924275	-0.025598	-0.908332
C55	C	0.964814	0.038925	-0.865779
C56	C	0.977035	0.058385	-0.752441
C57	C	0.993120	0.084001	-0.936547
C58	C	1.033660	0.148524	-0.893994
C59	C	1.045879	0.167979	-0.780667
C60	C	1.017567	0.122912	-0.709885
C61	C	0.980900	0.064541	-1.049885
C62	C	1.049745	0.174140	-1.078100
C63	C	1.061971	0.193592	-0.964776
N64	N	1.009213	0.109613	-0.120656
H65	H	0.223157	0.007917	-0.687142
C66	C	0.654953	0.035266	-0.576071
C67	C	0.673000	0.015410	-0.695166
C68	C	0.762469	0.010866	-0.732133
H69	H	0.655450	0.096985	-0.538514
H70	H	0.702912	-0.016085	-0.557933
H71	H	0.625055	0.066758	-0.713294
H72	H	0.672523	-0.046309	-0.732752
H73	H	0.810428	-0.040485	-0.713994
H74	H	0.762958	0.072587	-0.694568
H75	H	0.774730	-0.002615	-0.812943
H76	H	0.530261	0.010036	-0.710637
H77	H	0.862956	-0.123200	-0.872189
H78	H	0.261635	0.069024	-0.331055
C79	C	0.749832	0.119154	-0.093602
C80	C	0.766772	0.200978	-0.094605
C81	C	0.822165	0.215753	-0.014927
H82	H	0.716787	0.131213	-0.018909
H83	H	0.808977	0.061614	-0.113582
H84	H	0.707638	0.258505	-0.074618
H85	H	0.799828	0.188941	-0.169278
H86	H	0.881310	0.158213	-0.034906
H87	H	0.789114	0.227808	0.059761
H88	H	0.833673	0.271265	-0.015604
C89	C	0.394779	-0.005542	-0.785401
C90	C	0.401705	-0.098044	-0.850050
C91	C	0.435887	-0.117342	-0.966600
H92	H	0.352049	0.044709	-0.810134
H93	H	0.456011	-0.006155	-0.795878
H94	H	0.340482	-0.097424	-0.839581
H95	H	0.444439	-0.148315	-0.825354
H96	H	0.497119	-0.117954	-0.977076
H97	H	0.393153	-0.067085	-0.991320
H98	H	0.440599	-0.180109	-1.010477
H99	H	1.274912	-0.443474	-0.522426
C100	C	1.122147	-0.664592	-0.459894
C101	C	1.221298	-0.716167	-0.500562
C102	C	1.250690	-0.816500	-0.512677
H103	H	1.105288	-0.670403	-0.387442
H104	H	1.091693	-0.691863	-0.513001
H105	H	1.251741	-0.688904	-0.447458
H106	H	1.238182	-0.710384	-0.573020
H107	H	1.220236	-0.843771	-0.565784
H108	H	1.233825	-0.822301	-0.440221
H109	H	1.317965	-0.851508	-0.540281
H110	H	1.033957	-0.676769	-0.423707
C111	C	0.877366	-0.099951	-0.647194
C112	C	0.808084	-0.026441	-0.550848
C113	C	0.779676	-0.071304	-0.479851
H114	H	0.851413	-0.141161	-0.688607
H115	H	0.931048	-0.139028	-0.622958
H116	H	0.754412	0.012619	-0.575084
H117	H	0.834015	0.014773	-0.509405
H118	H	0.833358	-0.110381	-0.455615
H119	H	0.753727	-0.112513	-0.521273
H120	H	0.732672	-0.021435	-0.414467
H121	H	1.027525	0.138742	-0.617608
H122	H	1.094979	0.246128	-0.930113
H123	H	0.914318	-0.041440	-1.000605
C124	C	0.418203	0.118130	-0.060101
C125	C	0.328002	0.118913	-0.045035
C126	C	0.293663	0.138035	0.071420
H127	H	0.460888	0.067828	-0.035396
H128	H	0.413397	0.180889	-0.016027
H129	H	0.332814	0.056162	-0.089093
H130	H	0.285295	0.169214	-0.069714
H131	H	0.288856	0.200795	0.115494
H132	H	0.336353	0.087731	0.096114
H133	H	0.232454	0.138578	0.081659
H134	H	0.327260	0.086378	-0.236446
C135	C	1.089762	0.238181	-0.734561
C136	C	1.033263	0.332037	-0.740229
C137	C	1.073664	0.396728	-0.697785
H138	H	1.092997	0.243447	-0.656915
H139	H	1.152260	0.213136	-0.779590
H140	H	0.970782	0.357076	-0.695200
H141	H	1.030024	0.326802	-0.817863
H142	H	1.136162	0.371684	-0.742814
H143	H	1.076897	0.401986	-0.620141
H144	H	1.035341	0.460414	-0.701635
H145	H	1.221972	-0.261556	-0.500717
H146	H	1.236558	-0.577001	-0.506716
H147	H	0.923967	-0.200304	-0.378603
C148	C	0.937067	-0.005679	-1.096093
C149	C	0.993591	-0.099549	-1.090481
C150	C	0.953248	-0.164270	-1.133050
H151	H	0.874570	0.019286	-1.051137
H152	H	0.933871	-0.010884	-1.173748
H153	H	0.996776	-0.094341	-1.012838
H154	H	1.056088	-0.124543	-1.135440
H155	H	0.950053	-0.169475	-1.210705
H156	H	0.890752	-0.139296	-1.088089
H157	H	0.991598	-0.227970	-1.129258
C158	C	1.080669	0.223024	-1.154866
C159	C	1.178708	0.195302	-1.166229
C160	C	1.207221	0.240323	-1.236929
H161	H	1.067686	0.202236	-1.228515
H162	H	1.046498	0.293165	-1.121452
H163	H	1.212869	0.125176	-1.199647
H164	H	1.191717	0.216090	-1.092601
H165	H	1.173050	0.310464	-1.203515
H166	H	1.194232	0.219531	-1.310572
H167	H	1.273741	0.221527	-1.244640
H168	H	0.843895	-0.239737	-0.345812
C169	C	0.563247	0.128440	-0.016900
C170	C	0.556359	0.220923	0.047750
C171	C	0.522290	0.240170	0.164316
H172	H	0.502024	0.129063	-0.006310
H173	H	0.606045	0.078140	0.007733
H174	H	0.513562	0.271210	0.023126
H175	H	0.617569	0.220323	0.037195
H176	H	0.565088	0.189870	0.188949
H177	H	0.461070	0.240789	0.174894
H178	H	0.517620	0.302917	0.208197
H179	H	0.696277	0.053920	-0.471260
H180	H	0.721359	-0.300071	-0.295590
H181	H	0.683009	-0.433592	-0.279883
H182	H	0.735964	-0.615507	-0.301614
