data_functionalizedCrystal
_audit_creation_method	'MofGen! by Chris Wilmer'
_symmetry_space_group_name_H-M	'P1'
_symmetry_Int_Tables_number	1
_symmetry_cell_setting	triclinic
loop_
_symmetry_equiv_pos_as_xyz
  x,y,z
_cell_length_a	12.759401
_cell_length_b	15.297327
_cell_length_c	12.759393
_cell_angle_alpha	99.641734
_cell_angle_beta	89.981504
_cell_angle_gamma	99.706546
loop_
_atom_site_label
_atom_site_type_symbol
_atom_site_fract_x
_atom_site_fract_y
_atom_site_fract_z
Zn1	Zn	1.533799	-0.359102	-0.666297
Zn2	Zn	1.503249	-0.509990	-0.521002
Zn3	Zn	1.358091	-0.359150	-0.490645
Zn4	Zn	1.327659	-0.509920	-0.696630
O5	O	1.430699	-0.434541	-0.593643
O6	O	1.676766	-0.379127	-0.647033
O7	O	1.483944	-0.490029	-0.369964
O8	O	1.406921	-0.232898	-0.488547
O9	O	1.654320	-0.489984	-0.540286
O10	O	1.536012	-0.232864	-0.617597
O11	O	1.377297	-0.379208	-0.347661
O12	O	1.207035	-0.379140	-0.517960
O13	O	1.355053	-0.489865	-0.839617
O14	O	1.184677	-0.489911	-0.669295
O15	O	1.506503	-0.379060	-0.817332
O16	O	1.454435	-0.636226	-0.569698
O17	O	1.325430	-0.636175	-0.698731
C18	C	1.157735	-0.434524	-0.593626
C19	C	1.040956	-0.434539	-0.593648
C20	C	0.974461	-0.492309	-0.672355
C21	C	0.864734	-0.492321	-0.672369
C22	C	0.888009	-0.376788	-0.514958
C23	C	0.997734	-0.376773	-0.514949
C24	C	0.961022	-0.559014	-0.763233
C25	C	0.851295	-0.559025	-0.763247
C26	C	1.383343	-0.668934	-0.640823
C27	C	1.363180	-0.769208	-0.661042
C28	C	1.575241	-1.051846	-0.449495
C29	C	1.594185	-0.957633	-0.430493
C30	C	1.536436	-0.910523	-0.488129
C31	C	1.459739	-0.957634	-0.564769
C32	C	1.440787	-1.051856	-0.583767
C33	C	1.401982	-0.910532	-0.622401
C34	C	1.325285	-0.957643	-0.699042
C35	C	1.306338	-1.051856	-0.718037
C36	C	1.364087	-1.098967	-0.660401
C37	C	1.420933	-0.816310	-0.603403
C38	C	1.286480	-0.816320	-0.737676
C39	C	1.267536	-0.910532	-0.756677
C40	C	1.704729	-0.434558	-0.593662
C41	C	1.821504	-0.434565	-0.593670
C42	C	1.430791	-0.434450	-0.867659
C43	C	1.430831	-0.434411	-0.984427
C44	C	1.478269	-0.199232	-0.546302
C45	C	1.498541	-0.098957	-0.526129
C46	C	1.509701	-0.376709	-1.027686
C47	C	1.509733	-0.376676	-1.137404
C48	C	1.352019	-0.492055	-1.160596
C49	C	1.351984	-0.492083	-1.050879
C50	C	1.600759	-0.310099	-1.014298
C51	C	1.600790	-0.310066	-1.124015
C52	C	1.430681	-0.434566	-0.320681
C53	C	1.430897	-0.434351	-0.203862
H54	H	0.807405	-0.628879	-0.755382
H55	H	1.678385	-0.328779	-1.157562
O56	O	1.668616	-0.911975	-0.355930
C57	C	1.725462	-0.883194	-0.171455
C58	C	1.641097	-0.934974	-0.255797
H59	H	1.703232	-0.901755	-0.090474
H60	H	1.806469	-0.901667	-0.193618
H61	H	1.729107	-0.807767	-0.167828
H62	H	1.637357	-1.010412	-0.259468
H63	H	1.560133	-0.916426	-0.233600
O64	O	1.345591	-1.190488	-0.679032
C65	C	1.244603	-1.325699	-0.779940
C66	C	1.265452	-1.222052	-0.758962
H67	H	1.179794	-1.351251	-0.844548
H68	H	1.320788	-1.351242	-0.807028
H69	H	1.217742	-1.351338	-0.703707
H70	H	1.292282	-1.196337	-0.835155
H71	H	1.189245	-1.196571	-0.731827
H72	H	1.239453	-0.777962	-0.784606
H73	H	1.243874	-1.090211	-0.780430
H74	H	1.287757	-0.539066	-1.015663
H75	H	0.852804	-0.329757	-0.450885
H76	H	1.593087	-0.240232	-0.970472
O77	O	1.193036	-0.956440	-0.831048
C78	C	1.104311	-1.101594	-0.919861
C79	C	1.188693	-1.049717	-0.835590
H80	H	1.100788	-1.177017	-0.923576
H81	H	1.023277	-1.083213	-0.897633
H82	H	1.126454	-1.082949	-1.000822
H83	H	1.166650	-1.068334	-0.754598
H84	H	1.269705	-1.068102	-0.857908
O85	O	1.554669	-0.819005	-0.469579
C86	C	1.481121	-0.683887	-0.415321
C87	C	1.460324	-0.787534	-0.436269
H88	H	1.404853	-0.658410	-0.388408
H89	H	1.545806	-0.658260	-0.350601
H90	H	1.508093	-0.658258	-0.491530
H91	H	1.433311	-0.813239	-0.360120
H92	H	1.395674	-0.813099	-0.501033
O93	O	1.495506	-0.770454	-0.529090
C94	C	1.658812	-0.664040	-0.493615
C95	C	1.574415	-0.715898	-0.577881
H96	H	1.722643	-0.619934	-0.533034
H97	H	1.619535	-0.619939	-0.429761
H98	H	1.696777	-0.713914	-0.455668
H99	H	1.536422	-0.666090	-0.615909
H100	H	1.613750	-0.760013	-0.641668
H101	H	1.287822	-0.539007	-1.214714
O102	O	1.686802	-0.340114	-0.979679
C103	C	1.750157	-0.450763	-0.893684
C104	C	1.652626	-0.416876	-0.932860
H105	H	1.722561	-0.512818	-0.855801
H106	H	1.802331	-0.468887	-0.963824
H107	H	1.797792	-0.395619	-0.832354
H108	H	1.604909	-0.471978	-0.994170
H109	H	1.600530	-0.398724	-0.862665
H110	H	0.822330	-0.534085	-0.835577
H111	H	1.585071	-0.243682	-1.144695
O112	O	1.631400	-1.097663	-0.393658
C113	C	1.751752	-1.204044	-0.401030
C114	C	1.688243	-1.152188	-0.464410
H115	H	1.797708	-1.248155	-0.458208
H116	H	1.809895	-1.154249	-0.343001
H117	H	1.694600	-1.248167	-0.354955
H118	H	1.745315	-1.108064	-0.510549
H119	H	1.630087	-1.202031	-0.522375
O120	O	1.062261	-0.320742	-0.438368
C121	C	1.104604	-0.276699	-0.250885
C122	C	1.031468	-0.340229	-0.337508
H123	H	1.079721	-0.292419	-0.169318
H124	H	1.190466	-0.286607	-0.264302
H125	H	1.097724	-0.203986	-0.254908
H126	H	1.038255	-0.412967	-0.333535
H127	H	0.945636	-0.330243	-0.324062
O128	O	1.000912	-0.536729	-0.855906
C129	C	0.963330	-0.496260	-1.024830
C130	C	0.918019	-0.521465	-0.919920
H131	H	0.896329	-0.483930	-1.076624
H132	H	1.025780	-0.432590	-1.006894
H133	H	1.001426	-0.553670	-1.068670
H134	H	0.879868	-0.464114	-0.876027
H135	H	0.855620	-0.585163	-0.937928
H136	H	0.981651	-0.625349	-0.747307
