data_functionalizedCrystal
_audit_creation_method	'MofGen! by Chris Wilmer'
_symmetry_space_group_name_H-M	'P1'
_symmetry_Int_Tables_number	1
_symmetry_cell_setting	triclinic
loop_
_symmetry_equiv_pos_as_xyz
  x,y,z
_cell_length_a	25.639242
_cell_length_b	25.639233
_cell_length_c	25.639239
_cell_angle_alpha	89.980699
_cell_angle_beta	90.034185
_cell_angle_gamma	89.978417
loop_
_atom_site_label
_atom_site_type_symbol
_atom_site_fract_x
_atom_site_fract_y
_atom_site_fract_z
Zn1	Zn	0.799223	-0.295732	-0.208286
Zn2	Zn	1.132556	0.037601	0.125048
Zn3	Zn	1.465890	0.370935	0.458381
Zn4	Zn	0.799145	-0.208296	-0.295704
Zn5	Zn	1.132479	0.125038	0.037629
Zn6	Zn	1.465812	0.458371	0.370962
Zn7	Zn	0.711799	-0.208297	-0.208277
Zn8	Zn	1.045133	0.125036	0.125056
Zn9	Zn	1.378466	0.458370	0.458390
Zn10	Zn	0.711743	-0.295686	-0.295684
Zn11	Zn	1.045077	0.037647	0.037649
Zn12	Zn	1.378410	0.370980	0.370983
O13	O	0.755478	-0.252003	-0.251988
O14	O	1.088811	0.081331	0.081346
O15	O	1.422144	0.414664	0.414679
O16	O	0.872378	-0.284152	-0.219894
O17	O	1.205711	0.049181	0.113439
O18	O	1.539044	0.382515	0.446773
O19	O	0.787550	-0.135131	-0.284112
O20	O	1.120883	0.198203	0.049222
O21	O	1.454216	0.531536	0.382555
O22	O	0.723452	-0.219915	-0.135113
O23	O	1.056785	0.113418	0.198220
O24	O	1.390119	0.446751	0.531554
O25	O	0.872321	-0.219913	-0.284120
O26	O	1.205654	0.113421	0.049213
O27	O	1.538988	0.446754	0.382547
O28	O	0.787682	-0.284153	-0.135119
O29	O	1.121015	0.049180	0.198214
O30	O	1.454348	0.382513	0.531548
O31	O	0.723377	-0.135132	-0.219879
O32	O	1.056710	0.198202	0.113454
O33	O	1.390043	0.531535	0.446787
O34	O	0.638627	-0.219871	-0.219860
O35	O	0.971960	0.113462	0.113474
O36	O	1.305293	0.446796	0.446807
O37	O	0.723357	-0.368858	-0.284085
O38	O	1.056690	-0.035524	0.049248
O39	O	1.390023	0.297809	0.382581
O40	O	0.638586	-0.284075	-0.284077
O41	O	0.971919	0.049258	0.049256
O42	O	1.305252	0.382591	0.382590
O43	O	0.787628	-0.368891	-0.219874
O44	O	1.120961	-0.035558	0.113459
O45	O	1.454294	0.297775	0.446792
O46	O	0.787496	-0.219868	-0.368867
O47	O	1.120829	0.113465	-0.035533
O48	O	1.454162	0.446798	0.297800
O49	O	0.723282	-0.284074	-0.368852
O50	O	1.056615	0.049259	-0.035519
O51	O	1.389948	0.382593	0.297815
C52	C	0.619635	-0.251969	-0.251966
C53	C	0.952969	0.081365	0.081368
C54	C	1.286302	0.414698	0.414701
C55	C	0.561521	-0.251967	-0.251969
C56	C	0.894854	0.081367	0.081365
C57	C	1.228188	0.414700	0.414698
C58	C	0.310340	-0.218629	-0.218494
C59	C	0.643674	0.114704	0.114840
C60	C	0.977007	0.448037	0.448173
C61	C	0.364945	-0.218623	-0.218489
C62	C	0.698278	0.114711	0.114844
C63	C	1.031611	0.448044	0.448178
O64	O	0.393192	-0.190249	-0.189997
O65	O	0.726525	0.143085	0.143337
O66	O	1.059859	0.476418	0.476670
N67	N	0.392247	-0.251993	-0.251975
N68	N	0.725581	0.081340	0.081358
N69	N	1.058914	0.414674	0.414691
C70	C	0.364943	-0.285376	-0.285465
C71	C	0.698276	0.047958	0.047869
C72	C	1.031609	0.381291	0.381202
O73	O	0.393180	-0.313759	-0.313947
O74	O	0.726513	0.019574	0.019387
O75	O	1.059846	0.352907	0.352720
C76	C	0.310339	-0.285385	-0.285467
C77	C	0.643673	0.047949	0.047867
C78	C	0.977006	0.381282	0.381200
C79	C	0.283040	-0.252008	-0.251982
C80	C	0.616373	0.081325	0.081351
C81	C	0.949706	0.414658	0.414685
C82	C	0.283040	-0.185256	-0.185011
C83	C	0.616374	0.148077	0.148322
C84	C	0.949707	0.481410	0.481655
C85	C	0.228440	-0.185262	-0.185017
C86	C	0.561773	0.148071	0.148316
C87	C	0.895106	0.481404	0.481650
C88	C	0.201139	-0.218641	-0.218505
C89	C	0.534472	0.114692	0.114828
C90	C	0.867806	0.448025	0.448162
C91	C	0.228439	-0.252014	-0.251987
C92	C	0.561772	0.081319	0.081346
C93	C	0.895106	0.414652	0.414679
C94	C	0.283036	-0.318770	-0.318953
C95	C	0.616369	0.014564	0.014380
C96	C	0.949703	0.347897	0.347714
C97	C	0.228429	-0.318776	-0.318952
C98	C	0.561762	0.014557	0.014382
C99	C	0.895096	0.347891	0.347715
C100	C	0.201129	-0.285400	-0.285467
C101	C	0.534462	0.047934	0.047866
C102	C	0.867796	0.381267	0.381200
C103	C	0.146538	-0.285400	-0.285481
C104	C	0.479871	0.047934	0.047852
C105	C	0.813205	0.381267	0.381185
N106	N	0.119235	-0.252029	-0.251995
N107	N	0.452569	0.081304	0.081338
N108	N	0.785902	0.414637	0.414672
C109	C	0.146536	-0.218650	-0.218507
C110	C	0.479869	0.114683	0.114826
C111	C	0.813203	0.448016	0.448160
C112	C	0.479613	-0.285355	-0.285458
C113	C	0.812947	0.047978	0.047876
C114	C	1.146280	0.381312	0.381209
C115	C	0.534216	-0.285344	-0.285459
C116	C	0.867549	0.047989	0.047874
C117	C	1.200882	0.381323	0.381208
C118	C	0.534214	-0.218591	-0.218482
C119	C	0.867547	0.114742	0.114851
C120	C	1.200880	0.448075	0.448184
C121	C	0.479610	-0.218600	-0.218484
C122	C	0.812944	0.114733	0.114849
C123	C	1.146277	0.448066	0.448183
C124	C	0.452311	-0.251985	-0.251971
C125	C	0.785644	0.081348	0.081362
C126	C	1.118977	0.414682	0.414695
C127	C	0.031871	-0.218665	-0.218522
C128	C	0.365204	0.114668	0.114812
C129	C	0.698537	0.448001	0.448145
C130	C	-0.022735	-0.218673	-0.218532
C131	C	0.310599	0.114661	0.114802
C132	C	0.643932	0.447994	0.448135
C133	C	-0.022728	-0.285427	-0.285506
C134	C	0.310605	0.047906	0.047827
C135	C	0.643939	0.381240	0.381160
C136	C	0.031873	-0.285418	-0.285498
C137	C	0.365206	0.047916	0.047835
C138	C	0.698539	0.381249	0.381168
C139	C	0.059171	-0.252035	-0.252002
C140	C	0.392504	0.081298	0.081332
C141	C	0.725837	0.414631	0.414665
O142	O	0.118256	-0.313761	-0.313958
O143	O	0.451589	0.019573	0.019376
O144	O	0.784923	0.352906	0.352709
O145	O	0.118292	-0.190276	-0.190025
O146	O	0.451625	0.143057	0.143308
O147	O	0.784959	0.476390	0.476642
C148	C	0.755495	-0.388376	-0.251979
C149	C	1.088828	-0.055042	0.081355
C150	C	1.422161	0.278291	0.414688
C151	C	0.755502	-0.446490	-0.251975
C152	C	1.088835	-0.113157	0.081359
C153	C	1.422168	0.220177	0.414692
C154	C	0.789010	-0.806876	-0.218440
C155	C	1.122343	-0.473543	0.114893
C156	C	1.455677	-0.140210	0.448226
C157	C	0.789016	-0.861481	-0.218426
C158	C	1.122350	-0.528147	0.114907
C159	C	1.455683	-0.194814	0.448241
O160	O	0.817464	-0.889737	-0.189976
O161	O	1.150797	-0.556404	0.143358
O162	O	1.484131	-0.223070	0.476691
N163	N	0.755559	-0.888773	-0.251852
N164	N	1.088893	-0.555439	0.081481
N165	N	1.422226	-0.222106	0.414815
C166	C	0.722090	-0.861457	-0.285291
C167	C	1.055423	-0.528124	0.048042
C168	C	1.388757	-0.194791	0.381376
O169	O	0.693632	-0.889685	-0.313721
O170	O	1.026966	-0.556352	0.019613
O171	O	1.360299	-0.223019	0.352946
C172	C	0.722081	-0.806854	-0.285302
C173	C	1.055415	-0.473521	0.048031
C174	C	1.388748	-0.140187	0.381364
C175	C	0.755544	-0.779565	-0.251878
C176	C	1.088878	-0.446232	0.081455
C177	C	1.422211	-0.112898	0.414789
C178	C	0.822470	-0.779587	-0.185018
C179	C	1.155803	-0.446254	0.148315
C180	C	1.489137	-0.112920	0.481648
C181	C	0.822464	-0.724986	-0.185034
C182	C	1.155797	-0.391653	0.148300
C183	C	1.489131	-0.058320	0.481633
C184	C	0.788998	-0.697675	-0.218471
C185	C	1.122332	-0.364342	0.114862
C186	C	1.455665	-0.031008	0.448196
C187	C	0.755538	-0.724964	-0.251893
C188	C	1.088872	-0.391631	0.081440
C189	C	1.422205	-0.058298	0.414773
C190	C	0.688610	-0.779540	-0.318738
C191	C	1.021943	-0.446207	0.014595
C192	C	1.355276	-0.112873	0.347928
C193	C	0.688603	-0.724933	-0.318747
C194	C	1.021937	-0.391600	0.014587
C195	C	1.355270	-0.058266	0.347920
C196	C	0.722066	-0.697644	-0.285322
C197	C	1.055400	-0.364310	0.048011
C198	C	1.388733	-0.030977	0.381345
C199	C	0.722067	-0.643052	-0.285346
C200	C	1.055400	-0.309719	0.047987
C201	C	1.388733	0.023614	0.381321
N202	N	0.755524	-0.615760	-0.251920
N203	N	1.088857	-0.282427	0.081413
N204	N	1.422190	0.050906	0.414747
C205	C	0.788989	-0.643072	-0.218482
C206	C	1.122323	-0.309738	0.114851
C207	C	1.455656	0.023595	0.448184
C208	C	0.722110	-0.976128	-0.285264
C209	C	1.055443	-0.642795	0.048070
C210	C	1.388777	-0.309461	0.381403
C211	C	0.722121	-1.030730	-0.285255
C212	C	1.055454	-0.697397	0.048078
C213	C	1.388788	-0.364064	0.381411
C214	C	0.789047	-1.030750	-0.218390
C215	C	1.122380	-0.697416	0.114944
C216	C	1.455714	-0.364083	0.448277
C217	C	0.789038	-0.976146	-0.218401
C218	C	1.122372	-0.642813	0.114932
C219	C	1.455705	-0.309480	0.448266
C220	C	0.755567	-0.948836	-0.251838
C221	C	1.088901	-0.615503	0.081496
C222	C	1.422234	-0.282169	0.414829
C223	C	0.788975	-0.528407	-0.218517
C224	C	1.122308	-0.195073	0.114816
C225	C	1.455642	0.138260	0.448149
C226	C	0.788968	-0.473801	-0.218537
C227	C	1.122301	-0.140468	0.114796
C228	C	1.455634	0.192865	0.448130
C229	C	0.722040	-0.473787	-0.285401
C230	C	1.055373	-0.140453	0.047933
C231	C	1.388707	0.192880	0.381266
C232	C	0.722049	-0.528387	-0.285383
C233	C	1.055382	-0.195054	0.047950
C234	C	1.388716	0.138279	0.381284
C235	C	0.755518	-0.555696	-0.251937
C236	C	1.088852	-0.222363	0.081396
C237	C	1.422185	0.110971	0.414729
O238	O	0.693632	-0.614761	-0.313780
O239	O	1.026965	-0.281428	0.019553
O240	O	1.360299	0.051905	0.352886
O241	O	0.817437	-0.614837	-0.190053
O242	O	1.150771	-0.281504	0.143281
O243	O	1.484104	0.051830	0.476614
C244	C	0.891851	-0.252037	-0.252010
C245	C	1.225184	0.081296	0.081323
C246	C	1.558517	0.414629	0.414656
C247	C	0.949965	-0.252052	-0.252020
C248	C	1.283298	0.081281	0.081313
C249	C	1.616631	0.414615	0.414647
C250	C	0.755388	-0.251977	-0.387830
C251	C	1.088722	0.081356	-0.054497
C252	C	1.422055	0.414689	0.278836
C253	C	0.755398	-0.251984	-0.445944
C254	C	1.088731	0.081349	-0.112611
C255	C	1.422065	0.414682	0.220722
C256	C	0.755491	-0.116160	-0.251959
C257	C	1.088824	0.217173	0.081374
C258	C	1.422158	0.550506	0.414708
C259	C	0.755585	-0.058047	-0.251816
C260	C	1.088918	0.275287	0.081518
C261	C	1.422252	0.608620	0.414851
C262	C	0.722035	-0.285424	-0.697142
C263	C	1.055369	0.047909	-0.363809
C264	C	1.388702	0.381243	-0.030476
C265	C	0.722016	-0.285418	-0.642538
C266	C	1.055349	0.047915	-0.309205
C267	C	1.388682	0.381249	0.024129
O268	O	0.693564	-0.313832	-0.614305
O269	O	1.026897	0.019501	-0.280972
O270	O	1.360230	0.352834	0.052361
N271	N	0.755464	-0.252012	-0.615218
N272	N	1.088797	0.081322	-0.281885
N273	N	1.422130	0.414655	0.051449
C274	C	0.788937	-0.218613	-0.642505
C275	C	1.122270	0.114721	-0.309172
C276	C	1.455604	0.448054	0.024161
O277	O	0.817386	-0.190198	-0.614254
O278	O	1.150719	0.143136	-0.280920
O279	O	1.484052	0.476469	0.052413
C280	C	0.788959	-0.218622	-0.697109
C281	C	1.122292	0.114711	-0.363775
C282	C	1.455625	0.448045	-0.030442
C283	C	0.755505	-0.252027	-0.724426
C284	C	1.088838	0.081307	-0.391092
C285	C	1.422171	0.414640	-0.057759
C286	C	0.688584	-0.318827	-0.724460
C287	C	1.021918	0.014507	-0.391126
C288	C	1.355251	0.347840	-0.057793
C289	C	0.688603	-0.318832	-0.779060
C290	C	1.021937	0.014502	-0.445727
C291	C	1.355270	0.347835	-0.112393
C292	C	0.722073	-0.285435	-0.806343
C293	C	1.055406	0.047899	-0.473010
C294	C	1.388739	0.381232	-0.139677
C295	C	0.755524	-0.252032	-0.779026
C296	C	1.088857	0.081301	-0.445693
C297	C	1.422190	0.414635	-0.112360
C298	C	0.822434	-0.185226	-0.724395
C299	C	1.155767	0.148107	-0.391062
C300	C	1.489101	0.481441	-0.057728
C301	C	0.822453	-0.185238	-0.779002
C302	C	1.155786	0.148095	-0.445669
C303	C	1.489120	0.481428	-0.112335
C304	C	0.788999	-0.218643	-0.806319
C305	C	1.122333	0.114690	-0.472986
C306	C	1.455666	0.448023	-0.139652
C307	C	0.789012	-0.218640	-0.860910
C308	C	1.122345	0.114693	-0.527577
C309	C	1.455679	0.448027	-0.194244
N310	N	0.755564	-0.252046	-0.888230
N311	N	1.088897	0.081287	-0.554897
N312	N	1.422231	0.414620	-0.221563
C313	C	0.722094	-0.285444	-0.860947
C314	C	1.055428	0.047890	-0.527613
C315	C	1.388761	0.381223	-0.194280
C316	C	0.788890	-0.218597	-0.527835
C317	C	1.122223	0.114736	-0.194501
C318	C	1.455556	0.448070	0.138832
C319	C	0.788866	-0.218585	-0.473232
C320	C	1.122199	0.114749	-0.139899
C321	C	1.455532	0.448082	0.193434
C322	C	0.721945	-0.285391	-0.473269
C323	C	1.055279	0.047943	-0.139936
C324	C	1.388612	0.381276	0.193398
C325	C	0.721967	-0.285400	-0.527872
C326	C	1.055300	0.047934	-0.194539
C327	C	1.388633	0.381267	0.138794
C328	C	0.755442	-0.252003	-0.555155
C329	C	1.088775	0.081330	-0.221821
C330	C	1.422108	0.414663	0.111512
C331	C	0.722136	-0.285452	-0.975612
C332	C	1.055469	0.047882	-0.642278
C333	C	1.388803	0.381215	-0.308945
C334	C	0.722156	-0.285453	-1.030217
C335	C	1.055490	0.047881	-0.696884
C336	C	1.388823	0.381214	-0.363551
C337	C	0.789079	-0.218649	-1.030176
C338	C	1.122412	0.114685	-0.696843
C339	C	1.455745	0.448018	-0.363509
C340	C	0.789057	-0.218646	-0.975575
C341	C	1.122390	0.114688	-0.642242
C342	C	1.455723	0.448021	-0.308909
C343	C	0.755584	-0.252052	-0.948295
C344	C	1.088917	0.081282	-0.614961
C345	C	1.422250	0.414615	-0.281628
O346	O	0.817451	-0.190242	-0.889178
O347	O	1.150784	0.143092	-0.555844
O348	O	1.484118	0.476425	-0.222511
O349	O	0.693655	-0.313859	-0.889205
O350	O	1.026989	0.019475	-0.555872
O351	O	1.360322	0.352808	-0.222538
C352	C	0.755582	-0.252040	-0.115615
C353	C	1.088915	0.081294	0.217719
C354	C	1.422248	0.414627	0.551052
C355	C	0.755626	-0.252055	-0.057501
C356	C	1.088959	0.081278	0.275833
C357	C	1.422293	0.414611	0.609166
H358	H	0.206204	-0.345964	-0.346220
H359	H	0.539538	-0.012631	-0.012887
H360	H	0.872871	0.320703	0.320447
F361	F	0.686361	-0.320954	-0.556940
F362	F	1.019695	0.012380	-0.223607
F363	F	1.353028	0.345713	0.109726
F364	F	0.199392	-0.149743	-0.149373
F365	F	0.532725	0.183591	0.183960
F366	F	0.866059	0.516924	0.517293
F367	F	-0.051786	-0.183147	-0.182892
F368	F	0.281547	0.150186	0.150441
F369	F	0.614881	0.483520	0.483775
H370	H	0.457386	-0.191424	-0.191216
H371	H	0.790720	0.141909	0.142117
H372	H	1.124053	0.475242	0.475451
F373	F	0.686438	-0.557431	-0.320960
F374	F	1.019771	-0.224098	0.012373
F375	F	1.353104	0.109235	0.345706
H376	H	0.816327	-0.191456	-1.052400
H377	H	1.149660	0.141878	-0.719067
H378	H	1.482994	0.475211	-0.385733
H379	H	0.661360	-0.801749	-0.345956
H380	H	0.994694	-0.468416	-0.012623
H381	H	1.328027	-0.135083	0.320711
H382	H	0.816101	-0.191378	-0.450995
H383	H	1.149435	0.141956	-0.117661
H384	H	1.482768	0.475289	0.215672
H385	H	0.849722	-0.801818	-0.157787
H386	H	1.183055	-0.468485	0.175547
H387	H	1.516388	-0.135151	0.508880
H388	H	0.054090	-0.191484	-0.191243
H389	H	0.387424	0.141849	0.142090
H390	H	0.720757	0.475182	0.475424
H391	H	0.816148	-0.191397	-0.550045
H392	H	1.149481	0.141936	-0.216711
H393	H	1.482815	0.475270	0.116622
H394	H	0.694913	-0.312656	-1.052456
H395	H	1.028246	0.020677	-0.719123
H396	H	1.361580	0.354011	-0.385790
F397	F	0.686425	-0.444710	-0.320985
F398	F	1.019758	-0.111377	0.012348
F399	F	1.353091	0.221956	0.345682
F400	F	0.824594	-0.557463	-0.182918
F401	F	1.157928	-0.224130	0.150415
F402	F	1.491261	0.109204	0.483749
F403	F	0.686323	-0.320935	-0.444222
F404	F	1.019656	0.012399	-0.110889
F405	F	1.352990	0.345732	0.222444
F406	F	0.686510	-0.321006	-0.946585
F407	F	1.019844	0.012328	-0.613252
F408	F	1.353177	0.345661	-0.279919
H409	H	0.054101	-0.312591	-0.312768
H410	H	0.387435	0.020742	0.020565
H411	H	0.720768	0.354075	0.353898
H412	H	0.694878	-1.052945	-0.312479
H413	H	1.028211	-0.719611	0.020855
H414	H	1.361545	-0.386278	0.354188
F415	F	0.858077	-0.695950	-0.149456
F416	F	1.191411	-0.362617	0.183878
F417	F	1.524744	-0.029283	0.517211
H418	H	0.694853	-0.953895	-0.312495
H419	H	1.028187	-0.620562	0.020839
H420	H	1.361520	-0.287229	0.354172
H421	H	0.556439	-0.312517	-0.312731
H422	H	0.889772	0.020817	0.020602
H423	H	1.223105	0.354150	0.353935
F424	F	0.858045	-0.149676	-0.695334
F425	F	1.191379	0.183657	-0.362000
F426	F	1.524712	0.516991	-0.028667
H427	H	0.849715	-0.158044	-0.801212
H428	H	1.183048	0.175289	-0.467879
H429	H	1.516381	0.508623	-0.134546
F430	F	0.824652	-0.183083	-0.946502
F431	F	1.157986	0.150250	-0.613168
F432	F	1.491319	0.483583	-0.279835
F433	F	0.652977	-0.695870	-0.354335
F434	F	0.986310	-0.362537	-0.021001
F435	F	1.319644	-0.029204	0.312332
F436	F	0.824586	-0.444761	-0.182962
F437	F	1.157919	-0.111428	0.150372
F438	F	1.491253	0.221906	0.483705
H439	H	0.661361	-0.346033	-0.801297
H440	H	0.994694	-0.012699	-0.467963
H441	H	1.328028	0.320634	-0.134630
F442	F	0.563279	-0.183066	-0.182841
F443	F	0.896612	0.150267	0.150493
F444	F	1.229945	0.483600	0.483826
F445	F	0.312088	-0.149728	-0.149364
F446	F	0.645421	0.183606	0.183969
F447	F	0.978754	0.516939	0.517302
F448	F	0.312079	-0.354294	-0.354592
F449	F	0.645412	-0.020961	-0.021259
F450	F	0.978745	0.312372	0.312074
F451	F	0.450564	-0.320886	-0.321106
F452	F	0.783897	0.012447	0.012228
F453	F	1.117230	0.345780	0.345561
F454	F	-0.051793	-0.320944	-0.321151
F455	F	0.281541	0.012390	0.012183
F456	F	0.614874	0.345723	0.345516
H457	H	0.816286	-0.953931	-0.191183
H458	H	1.149619	-0.620598	0.142150
H459	H	1.482953	-0.287265	0.475484
F460	F	0.824664	-1.059826	-0.182801
F461	F	1.157997	-0.726493	0.150532
F462	F	1.491330	-0.393160	0.483865
F463	F	0.652959	-0.354377	-0.695431
F464	F	0.986293	-0.021043	-0.362097
F465	F	1.319626	0.312290	-0.028764
