data_functionalizedCrystal
_audit_creation_method	'MofGen! by Chris Wilmer'
_symmetry_space_group_name_H-M	'P1'
_symmetry_Int_Tables_number	1
_symmetry_cell_setting	triclinic
loop_
_symmetry_equiv_pos_as_xyz
  x,y,z
_cell_length_a	10.654546
_cell_length_b	10.489741
_cell_length_c	8.965430
_cell_angle_alpha	89.998489
_cell_angle_beta	89.988294
_cell_angle_gamma	95.488651
loop_
_atom_site_label
_atom_site_type_symbol
_atom_site_fract_x
_atom_site_fract_y
_atom_site_fract_z
O1	O	-1.667928	0.179130	0.124302
O2	O	-1.302457	0.196204	0.124247
O3	O	-1.493509	0.002065	0.124267
O4	O	-1.476876	0.373269	0.124282
O5	O	-1.493491	0.002081	-0.123812
O6	O	-1.302440	0.196220	-0.123832
O7	O	-1.667911	0.179146	-0.123777
Cu8	Cu	-1.485173	0.187685	-0.146456
Cu9	Cu	-1.485194	0.187666	0.146926
O10	O	-1.476859	0.373285	-0.123797
C11	C	-1.255650	0.194960	0.000201
C12	C	-1.116204	0.191212	0.000180
C13	C	-1.036772	0.305517	0.000200
C14	C	-0.905749	0.301988	0.000214
C15	C	-0.933604	0.069837	0.000195
C16	C	-1.064624	0.073368	0.000170
C17	C	-1.020689	0.439547	0.000218
C18	C	-0.889667	0.436018	0.000232
C19	C	-1.492244	-0.045458	0.000228
C20	C	-1.488485	-0.187085	0.000230
C21	C	-1.366925	-0.255165	0.000223
C22	C	-1.424340	-0.347308	-0.122084
C23	C	-1.424386	-0.347299	0.122502
C24	C	-1.545951	-0.277363	-0.122178
C25	C	-1.545980	-0.277344	0.122519
C26	C	-1.603484	-0.369460	0.000182
C27	C	-0.714718	0.180394	0.000252
C28	C	-0.854162	0.184151	0.000219
C29	C	-1.478124	0.420808	0.000245
C30	C	-1.481882	0.562436	0.000253
N31	N	-1.485168	0.187697	-0.352805
C32	C	-1.397548	0.278180	-0.549524
C33	C	-1.371107	0.163049	-0.450069
C34	C	-1.511553	0.302819	-0.450052
C35	C	-1.458711	0.072454	-0.549459
C36	C	-1.599208	0.212299	-0.549450
C37	C	-1.572814	0.097085	-0.450041
N38	N	-1.485209	0.187643	0.353275
H39	H	-0.847965	0.486512	0.104059
Br40	Br	-1.631601	-0.226017	-0.294710
H41	H	-1.597379	-0.246331	0.225941
H42	H	-1.372943	-0.378244	0.225913
Br43	Br	-1.421363	-0.089893	-0.621921
Br44	Br	-1.770215	-0.451923	0.000104
Br45	Br	-1.273941	0.405611	-0.622331
Br46	Br	-1.759875	0.247093	-0.622273
Br47	Br	-1.210398	0.128311	-0.377302
H48	H	-1.646932	0.020460	-0.406637
Br49	Br	-1.080178	0.510660	0.178741
Br50	Br	-1.548721	0.465121	-0.377265
H51	H	-1.372898	-0.378288	-0.225501
H52	H	-1.266979	-0.205465	0.000085
Br53	Br	-1.172424	-0.081767	0.000100
Br54	Br	-0.863594	-0.090086	0.000176
H55	H	-1.050038	0.491973	-0.103604
H56	H	-0.844007	0.476531	-0.106872
