data_functionalizedCrystal
_audit_creation_method	'MofGen! by Chris Wilmer'
_symmetry_space_group_name_H-M	'P1'
_symmetry_Int_Tables_number	1
_symmetry_cell_setting	triclinic
loop_
_symmetry_equiv_pos_as_xyz
  x,y,z
_cell_length_a	14.519709
_cell_length_b	9.016244
_cell_length_c	14.519731
_cell_angle_alpha	90.007757
_cell_angle_beta	83.684499
_cell_angle_gamma	89.996765
loop_
_atom_site_label
_atom_site_type_symbol
_atom_site_fract_x
_atom_site_fract_y
_atom_site_fract_z
O1	O	1.223874	0.123151	0.120893
O2	O	0.955398	0.123196	0.135129
O3	O	1.096744	0.123159	-0.006226
O4	O	1.082528	0.123188	0.262248
O5	O	1.096738	-0.123522	-0.006236
O6	O	0.955392	-0.123484	0.135119
O7	O	1.223868	-0.123530	0.120883
Cu8	Cu	1.089629	-0.146031	0.128000
Cu9	Cu	1.089636	0.145697	0.128012
O10	O	1.082522	-0.123493	0.262238
C11	C	0.921035	-0.000138	0.134461
C12	C	0.818654	-0.000121	0.132473
N13	N	1.089631	-0.351217	0.127990
C14	C	0.443757	-0.000190	0.125153
C15	C	0.548065	-0.000170	0.127186
C16	C	0.631202	-0.000154	0.128813
C17	C	0.735517	-0.000137	0.130846
C18	C	1.165520	-0.586224	0.052631
C19	C	1.165319	-0.414333	0.052348
C20	C	0.993379	-0.413629	0.106815
C21	C	0.993831	-0.585573	0.106287
C22	C	1.109148	-0.585715	0.224792
C23	C	1.111328	-0.413759	0.224143
C24	C	1.258230	-0.000192	0.121551
C25	C	1.360612	-0.000200	0.123539
C26	C	1.096075	-0.000182	-0.040591
C27	C	1.094079	-0.000182	-0.142971
N28	N	1.089642	0.350883	0.128014
C29	C	1.092457	-0.000179	-0.226115
C30	C	1.090430	-0.000167	-0.330424
C31	C	1.088822	-0.000157	-0.413563
C32	C	1.086795	-0.000148	-0.517878
C33	C	1.083191	-0.000149	0.296603
C34	C	1.085187	-0.000138	0.398983
H35	H	1.236862	-0.372136	0.064981
H36	H	1.177844	-0.629077	0.245108
H37	H	1.237304	-0.627574	0.065065
H38	H	1.153222	-0.629456	-0.018778
H39	H	0.935546	-0.372746	0.160249
H40	H	1.152838	-0.373219	-0.019471
C41	C	1.042303	-0.356390	0.302329
C42	C	0.978316	-0.263030	0.265863
C43	C	0.914700	-0.210175	0.337857
H44	H	1.074258	-0.302578	0.345234
H45	H	1.010585	-0.437690	0.332990
H46	H	1.010031	-0.181743	0.235218
H47	H	0.946339	-0.316809	0.222967
H48	H	0.882982	-0.291475	0.368517
H49	H	0.946663	-0.156370	0.380757
H50	H	0.871273	-0.146836	0.313124
H51	H	0.976664	-0.625698	0.035702
C52	C	0.916175	-0.640769	0.176690
C53	C	0.869062	-0.519295	0.219518
C54	C	0.797505	-0.570077	0.284355
H55	H	0.941484	-0.699274	0.222144
H56	H	0.874271	-0.699098	0.146157
H57	H	0.910959	-0.460992	0.250049
H58	H	0.843733	-0.460779	0.174088
H59	H	0.755601	-0.628405	0.253823
H60	H	0.822822	-0.628581	0.329803
H61	H	0.765524	-0.487666	0.313416
H62	H	1.053817	-0.626393	0.280892
C63	C	0.969791	-0.356055	0.013856
C64	C	0.887067	-0.275148	0.026791
C65	C	0.865320	-0.222076	-0.058821
H66	H	0.962590	-0.437277	-0.026405
H67	H	1.018353	-0.293686	-0.012726
H68	H	0.838516	-0.337514	0.053360
H69	H	0.894245	-0.193905	0.067037
H70	H	0.913883	-0.159706	-0.085403
H71	H	0.858124	-0.303306	-0.099075
H72	H	0.809196	-0.167163	-0.050055
C73	C	1.205664	-0.359075	0.245608
C74	C	1.205536	-0.203861	0.248617
C75	C	1.292418	-0.153424	0.268396
H76	H	1.251936	-0.392028	0.198728
H77	H	1.218408	-0.397182	0.303877
H78	H	1.192803	-0.165768	0.190356
H79	H	1.159283	-0.170869	0.295498
H80	H	1.305162	-0.191532	0.326665
H81	H	1.338683	-0.186387	0.221514
H82	H	1.292340	-0.048108	0.270449
