data_functionalizedCrystal
_audit_creation_method	'MofGen! by Chris Wilmer'
_symmetry_space_group_name_H-M	'P1'
_symmetry_Int_Tables_number	1
_symmetry_cell_setting	triclinic
loop_
_symmetry_equiv_pos_as_xyz
  x,y,z
_cell_length_a	16.992694
_cell_length_b	15.995350
_cell_length_c	14.472311
_cell_angle_alpha	89.992572
_cell_angle_beta	90.001869
_cell_angle_gamma	87.080299
loop_
_atom_site_label
_atom_site_type_symbol
_atom_site_fract_x
_atom_site_fract_y
_atom_site_fract_z
O1	O	1.040390	0.177549	-0.076718
O2	O	0.812105	0.175601	-0.076745
O3	O	0.932488	0.055105	-0.076730
O4	O	0.920007	0.298045	-0.076733
O5	O	0.932480	0.055088	0.076952
O6	O	0.812097	0.175584	0.076937
O7	O	1.040382	0.177532	0.076964
Cu8	Cu	0.926239	0.176556	0.090983
Cu9	Cu	0.926248	0.176576	-0.090764
O10	O	0.919999	0.298028	0.076949
C11	C	0.782888	0.173087	0.000092
C12	C	0.695844	0.165611	0.000082
C13	C	0.931968	0.023867	0.000109
C14	C	0.930421	-0.069187	0.000104
C15	C	0.645604	0.237746	0.000082
C16	C	0.563817	0.230716	0.000094
C17	C	0.532273	0.151550	0.000101
C18	C	0.582519	0.079410	0.000104
C19	C	0.664304	0.086440	0.000098
C20	C	0.288675	0.122412	0.000126
C21	C	0.206883	0.115387	0.000129
C22	C	0.188187	0.266694	0.000122
C23	C	0.269974	0.273718	0.000110
C24	C	0.320214	0.201577	0.000118
N25	N	0.448674	0.144363	0.000111
N26	N	0.403811	0.208765	0.000114
C27	C	0.924866	-0.407306	0.000106
C28	C	0.839131	-0.365609	-0.000249
C29	C	0.840678	-0.268815	0.000098
C30	C	0.927621	-0.239561	0.000105
C31	C	0.969904	-0.277819	0.087868
C32	C	0.967750	-0.374598	0.087941
C33	C	0.969531	-0.374819	-0.086824
C34	C	0.969510	-0.277875	-0.087984
C35	C	0.929183	-0.144759	0.000107
C36	C	0.923306	-0.502108	0.000110
C37	C	1.069599	0.180046	0.000125
C38	C	1.156643	0.187522	0.000129
C39	C	0.920519	0.329266	0.000108
C40	C	0.922066	0.422320	0.000107
N41	N	0.926237	0.176542	0.218814
N42	N	0.926256	0.176584	-0.218595
C43	C	0.926249	0.176570	0.592905
C44	C	0.990873	0.112339	0.553719
C45	C	0.990704	0.112075	0.446631
C46	C	0.926244	0.176556	0.407314
C47	C	0.844438	0.152002	0.446195
C48	C	0.844820	0.151542	0.553317
C49	C	0.942695	0.265509	0.553411
C50	C	0.944552	0.265045	0.446283
C51	C	0.926236	0.176550	0.302426
C52	C	0.926252	0.176574	0.697793
H53	H	0.522914	0.289457	0.000093
N54	N	1.048822	-0.409372	-0.087570
N55	N	1.072921	-0.453703	-0.153894
H56	H	1.128918	-0.478112	-0.154414
H57	H	0.795287	0.196262	0.579239
N58	N	0.977873	0.030160	0.587496
N59	N	0.921221	0.018692	0.640303
H60	H	0.912035	-0.039347	0.664157
N61	N	1.067414	0.131499	0.586025
N62	N	1.075233	0.192714	0.638312
H63	H	1.129293	0.206250	0.661132
H64	H	1.051515	0.127506	0.420342
H65	H	1.032913	-0.258270	-0.093278
N66	N	0.883584	0.325570	0.585186
N67	N	0.840991	0.365508	0.528300
H68	H	0.799243	0.407922	0.550743
N69	N	0.677835	0.318607	0.000086
N70	N	0.750857	0.324877	0.000084
H71	H	0.773620	0.381986	0.000090
N72	N	0.302180	0.354591	0.000092
N73	N	0.257313	0.418992	0.000086
H74	H	0.280058	0.476111	0.000067
N75	N	0.136857	0.340371	0.000113
N76	N	0.063836	0.334088	0.000117
H77	H	0.027583	0.386125	0.000113
N78	N	0.715625	0.012755	0.000076
N79	N	0.763342	-0.000198	-0.064709
H80	H	0.799587	-0.052241	-0.064722
N81	N	0.798979	-0.235948	-0.078825
N82	N	0.768526	-0.284505	-0.134548
H83	H	0.739069	-0.261297	-0.190289
H84	H	0.329571	0.063669	0.000133
N85	N	0.930802	-0.246172	-0.169430
N86	N	0.968123	-0.205982	-0.227471
H87	H	0.940787	-0.183576	-0.284988
N88	N	0.977601	0.029397	0.414500
N89	N	0.968543	-0.028288	0.471190
H90	H	0.959316	-0.086690	0.448499
N91	N	0.550301	-0.001457	0.000092
N92	N	0.565692	-0.051318	-0.064690
H93	H	0.542939	-0.108432	-0.064702
H94	H	0.804867	-0.386427	-0.063186
N95	N	0.796334	-0.393067	0.078256
N96	N	0.828702	-0.443212	0.134465
H97	H	0.798479	-0.462607	0.189910
N98	N	0.174673	0.034510	0.000134
N99	N	0.219537	-0.029894	0.000141
H100	H	0.196789	-0.087011	0.000142
N101	N	0.826634	0.069962	0.584663
N102	N	0.813750	0.013761	0.527427
H103	H	0.800906	-0.043858	0.549560
N104	N	0.798693	-0.236683	0.079149
N105	N	0.768161	-0.285760	0.134240
H106	H	0.738509	-0.263068	0.190075
N107	N	0.929061	-0.400148	0.170237
N108	N	0.903834	-0.346516	0.227217
H109	H	0.876508	-0.364556	0.285341
N110	N	1.046714	-0.409763	0.092955
N111	N	1.103237	-0.362813	0.096395
H112	H	1.159005	-0.387644	0.099943
N113	N	1.050034	-0.254737	0.091960
N114	N	1.076935	-0.209724	0.030092
H115	H	1.133528	-0.193422	0.032978
N116	N	0.933049	-0.244686	0.169789
N117	N	0.875653	-0.192909	0.163764
H118	H	0.849620	-0.169510	0.221618
H119	H	0.941503	-0.397227	-0.153343
H120	H	0.795190	0.197309	0.420729
N121	N	0.825813	0.071308	0.412544
N122	N	0.872651	0.031744	0.359938
H123	H	0.859502	-0.025247	0.336171
N124	N	1.015922	0.293429	0.587308
N125	N	1.026207	0.301925	0.672244
H126	H	1.077926	0.321637	0.696186
N127	N	1.020047	0.288254	0.414400
N128	N	1.060260	0.239851	0.363166
H129	H	1.113580	0.256240	0.340643
N130	N	0.889329	0.328342	0.412700
N131	N	0.835336	0.309179	0.359265
H132	H	0.796329	0.353880	0.335546
