data_functionalizedCrystal
_audit_creation_method	'MofGen! by Chris Wilmer'
_symmetry_space_group_name_H-M	'P1'
_symmetry_Int_Tables_number	1
_symmetry_cell_setting	triclinic
loop_
_symmetry_equiv_pos_as_xyz
  x,y,z
_cell_length_a	18.215407
_cell_length_b	11.169416
_cell_length_c	11.169409
_cell_angle_alpha	90.030816
_cell_angle_beta	89.975944
_cell_angle_gamma	89.989212
loop_
_atom_site_label
_atom_site_type_symbol
_atom_site_fract_x
_atom_site_fract_y
_atom_site_fract_z
Zn1	Zn	1.125177	0.477696	-0.678667
Zn2	Zn	1.458510	0.811030	-0.345333
Zn3	Zn	1.791844	1.144363	-0.012000
Zn4	Zn	1.125108	0.678437	-0.477989
Zn5	Zn	1.458441	1.011770	-0.144655
Zn6	Zn	1.791774	1.345103	0.188678
Zn7	Zn	1.002101	0.477768	-0.477989
Zn8	Zn	1.335434	0.811101	-0.144656
Zn9	Zn	1.668767	1.144434	0.188678
Zn10	Zn	1.002107	0.678338	-0.678621
Zn11	Zn	1.335440	1.011671	-0.345288
Zn12	Zn	1.668773	1.345004	-0.011955
O13	O	1.063623	0.578059	-0.578316
O14	O	1.396956	0.911393	-0.244983
O15	O	1.730290	1.244726	0.088350
O16	O	1.228152	0.504336	-0.652065
O17	O	1.561485	0.837670	-0.318732
O18	O	1.894819	1.171003	0.014601
O19	O	1.108759	0.651889	-0.310039
O20	O	1.442092	0.985222	0.023294
O21	O	1.775425	1.318555	0.356628
O22	O	1.018453	0.309808	-0.504628
O23	O	1.351787	0.643142	-0.171295
O24	O	1.685120	0.976475	0.162038
O25	O	1.228101	0.651819	-0.504628
O26	O	1.561434	0.985153	-0.171295
O27	O	1.894768	1.318486	0.162039
O28	O	1.108877	0.309756	-0.652065
O29	O	1.442210	0.643089	-0.318732
O30	O	1.775544	0.976423	0.014601
O31	O	1.018386	0.504458	-0.310039
O32	O	1.351719	0.837791	0.023294
O33	O	1.685053	1.171125	0.356628
O34	O	0.899117	0.504362	-0.504584
O35	O	1.232450	0.837696	-0.171251
O36	O	1.565784	1.171029	0.162082
O37	O	1.018464	0.651651	-0.846577
O38	O	1.351797	0.984984	-0.513244
O39	O	1.685131	1.318317	-0.179911
O40	O	0.899122	0.651720	-0.651988
O41	O	1.232455	0.985053	-0.318655
O42	O	1.565788	1.318387	0.014678
O43	O	1.108883	0.504240	-0.846611
O44	O	1.442216	0.837574	-0.513277
O45	O	1.775550	1.170907	-0.179944
O46	O	1.108765	0.846373	-0.504584
O47	O	1.442098	1.179706	-0.171251
O48	O	1.775431	1.513040	0.162083
O49	O	1.018397	0.846300	-0.651988
O50	O	1.351730	1.179634	-0.318655
O51	O	1.685063	1.512967	0.014679
C52	C	0.872417	0.578039	-0.578282
C53	C	1.205750	0.911372	-0.244949
C54	C	1.539083	1.244706	0.088385
C55	C	0.790618	0.578059	-0.578296
C56	C	1.123951	0.911392	-0.244962
C57	C	1.457284	1.244726	0.088371
C58	C	1.063682	0.577927	-0.891359
C59	C	1.397015	0.911260	-0.558026
C60	C	1.730349	1.244593	-0.224692
C61	C	1.063707	0.577870	-1.024759
C62	C	1.397040	0.911203	-0.691426
C63	C	1.730374	1.244537	-0.358092
C64	C	1.063594	0.889884	-0.578307
C65	C	1.396927	1.223218	-0.244974
C66	C	1.730260	1.556551	0.088359
C67	C	1.063649	1.023284	-0.578344
C68	C	1.396982	1.356617	-0.245010
C69	C	1.730315	1.689951	0.088323
C70	C	0.602446	0.654909	-0.654953
C71	C	0.935779	0.988242	-0.321619
C72	C	1.269112	1.321576	0.011714
C73	C	0.525587	0.654913	-0.654968
C74	C	0.858920	0.988246	-0.321634
C75	C	1.192253	1.321579	0.011699
C76	C	0.525552	0.501232	-0.501707
C77	C	0.858886	0.834565	-0.168373
C78	C	1.192219	1.167898	0.164960
C79	C	0.602410	0.501223	-0.501698
C80	C	0.935743	0.834556	-0.168365
C81	C	1.269076	1.167890	0.164968
C82	C	0.640854	0.578068	-0.578320
C83	C	0.974188	0.911402	-0.244986
C84	C	1.307521	1.244735	0.088347
C85	C	0.487138	0.578081	-0.578343
C86	C	0.820472	0.911414	-0.245009
C87	C	1.153805	1.244748	0.088324
C88	C	0.403805	0.578084	-0.578358
C89	C	0.737138	0.911418	-0.245025
C90	C	1.070471	1.244751	0.088308
C91	C	0.724193	0.578064	-0.578306
C92	C	1.057527	0.911397	-0.244973
C93	C	1.390860	1.244730	0.088361
C94	C	1.255576	0.578081	-0.578352
C95	C	1.588909	0.911414	-0.245018
C96	C	1.922243	1.244748	0.088315
C97	C	1.337375	0.578090	-0.578367
C98	C	1.670708	0.911423	-0.245033
C99	C	2.004041	1.244757	0.088300
C100	C	1.063672	0.265017	-0.578352
C101	C	1.397006	0.598350	-0.245019
C102	C	1.730339	0.931684	0.088315
C103	C	1.063693	0.131617	-0.578367
C104	C	1.397027	0.464950	-0.245034
C105	C	1.730360	0.798284	0.088300
C106	C	1.063607	0.578105	-0.266492
C107	C	1.396940	0.911439	0.066842
C108	C	1.730273	1.244772	0.400175
C109	C	1.063724	0.577824	-0.133092
C110	C	1.397057	0.911157	0.200241
C111	C	1.730391	1.244491	0.533574
H112	H	0.633745	0.717478	-0.717346
H113	H	0.967078	1.050812	-0.384012
H114	H	1.300411	1.384145	-0.050679
Br115	Br	0.654541	0.396920	-0.397701
Br116	Br	0.987874	0.730253	-0.064367
Br117	Br	1.321208	1.063586	0.268966
H118	H	0.494318	0.717482	-0.717372
H119	H	0.827651	1.050816	-0.384038
H120	H	1.160984	1.384149	-0.050705
H121	H	0.494242	0.438669	-0.439322
H122	H	0.827575	0.772002	-0.105989
H123	H	1.160908	1.105335	0.227344
