data_functionalizedCrystal
_audit_creation_method	'MofGen! by Chris Wilmer'
_symmetry_space_group_name_H-M	'P1'
_symmetry_Int_Tables_number	1
_symmetry_cell_setting	triclinic
loop_
_symmetry_equiv_pos_as_xyz
  x,y,z
_cell_length_a	27.732048
_cell_length_b	27.732064
_cell_length_c	26.809956
_cell_angle_alpha	89.999459
_cell_angle_beta	89.989448
_cell_angle_gamma	82.646039
loop_
_atom_site_label
_atom_site_type_symbol
_atom_site_fract_x
_atom_site_fract_y
_atom_site_fract_z
O1	O	0.640939	0.057515	-0.041411
O2	O	0.974272	0.390849	0.291922
O3	O	1.307605	0.724182	0.625255
O4	O	0.500146	0.066261	-0.041426
O5	O	0.833479	0.399594	0.291908
O6	O	1.166813	0.732927	0.625241
O7	O	0.574911	-0.008508	-0.041420
O8	O	0.908244	0.324825	0.291913
O9	O	1.241578	0.658159	0.625247
O10	O	0.566174	0.132284	-0.041417
O11	O	0.899507	0.465618	0.291916
O12	O	1.232840	0.798951	0.625250
O13	O	0.574888	-0.008508	0.041539
O14	O	0.908221	0.324825	0.374873
O15	O	1.241555	0.658159	0.708206
O16	O	0.500123	0.066261	0.041534
O17	O	0.833456	0.399594	0.374867
O18	O	1.166790	0.732927	0.708200
O19	O	0.640916	0.057515	0.041548
O20	O	0.974249	0.390849	0.374881
O21	O	1.307583	0.724182	0.708215
Zn22	Zn	0.570516	0.061888	0.054712
Zn23	Zn	0.903849	0.395221	0.388046
Zn24	Zn	1.237182	0.728555	0.721379
Zn25	Zn	0.570546	0.061888	-0.054590
Zn26	Zn	0.903879	0.395221	0.278743
Zn27	Zn	1.237213	0.728555	0.612077
O28	O	0.566151	0.132284	0.041542
O29	O	0.899484	0.465618	0.374876
O30	O	1.232818	0.798951	0.708209
C31	C	0.482127	0.066077	0.000052
C32	C	0.815461	0.399411	0.333385
C33	C	1.148794	0.732744	0.666719
C34	C	0.428473	0.065524	0.000046
C35	C	0.761806	0.398858	0.333380
C36	C	1.095139	0.732191	0.666713
C37	C	0.574715	-0.026515	0.000058
C38	C	0.908048	0.306818	0.333391
C39	C	1.241381	0.640152	0.666725
C40	C	0.574159	-0.080169	0.000053
C41	C	0.907492	0.253164	0.333387
C42	C	1.240825	0.586497	0.666720
C43	C	0.526192	-0.457242	0.000047
C44	C	0.859525	-0.123909	0.333380
C45	C	1.192858	0.209425	0.666713
C46	C	0.528238	-0.255582	0.000046
C47	C	0.861571	0.077752	0.333379
C48	C	1.194905	0.411085	0.666713
O49	O	0.491017	-0.224329	0.000022
O50	O	0.824350	0.109004	0.333356
O51	O	1.157684	0.442338	0.666689
N52	N	0.572572	-0.236454	0.000051
N53	N	0.905906	0.096879	0.333384
N54	N	1.239239	0.430212	0.666717
C55	C	0.616398	-0.267745	0.000052
C56	C	0.949731	0.065588	0.333385
C57	C	1.283065	0.398921	0.666719
O58	O	0.654154	-0.246849	0.000051
O59	O	0.987487	0.086484	0.333384
O60	O	1.320821	0.419818	0.666717
C61	C	0.614351	-0.469405	0.000049
C62	C	0.947685	-0.136071	0.333382
C63	C	1.281018	0.197262	0.666715
C64	C	0.570014	-0.488529	0.000049
C65	C	0.903347	-0.155196	0.333383
C66	C	1.236681	0.178138	0.666716
C67	C	0.481858	-0.476367	0.000047
C68	C	0.815191	-0.143034	0.333380
C69	C	1.148525	0.190300	0.666713
C70	C	0.481347	-0.526779	0.000049
C71	C	0.814680	-0.193446	0.333383
C72	C	1.148014	0.139888	0.666716
C73	C	0.525169	-0.558066	0.000052
C74	C	0.858503	-0.224733	0.333385
C75	C	1.191836	0.108600	0.666719
C76	C	0.569503	-0.538941	0.000052
C77	C	0.902836	-0.205608	0.333385
C78	C	1.236170	0.127725	0.666719
C79	C	0.658177	-0.500695	0.000047
C80	C	0.991510	-0.167361	0.333380
C81	C	1.324843	0.165972	0.666713
C82	C	0.657661	-0.551112	0.000044
C83	C	0.990994	-0.217779	0.333378
C84	C	1.324328	0.115554	0.666711
C85	C	0.613324	-0.570237	0.000045
C86	C	0.946657	-0.236903	0.333378
C87	C	1.279990	0.096430	0.666712
C88	C	0.612814	-0.620640	0.000058
C89	C	0.946148	-0.287307	0.333391
C90	C	1.279481	0.046026	0.666724
N91	N	0.568480	-0.639768	0.000053
N92	N	0.901813	-0.306435	0.333387
N93	N	1.235147	0.026899	0.666720
C94	C	0.524658	-0.608481	0.000050
C95	C	0.857991	-0.275147	0.333384
C96	C	1.191324	0.058186	0.666717
C97	C	0.617469	-0.161871	0.000055
C98	C	0.950803	0.171462	0.333388
C99	C	1.284136	0.504796	0.666721
C100	C	0.617981	-0.111456	0.000056
C101	C	0.951315	0.221877	0.333390
C102	C	1.284648	0.555210	0.666723
C103	C	0.529821	-0.099296	0.000049
C104	C	0.863154	0.234037	0.333383
C105	C	1.196488	0.567370	0.666716
C106	C	0.529310	-0.149712	0.000051
C107	C	0.862643	0.183622	0.333385
C108	C	1.195976	0.516955	0.666718
C109	C	0.573135	-0.180998	0.000050
C110	C	0.906469	0.152335	0.333383
C111	C	1.239802	0.485668	0.666717
C112	C	0.523588	-0.714350	0.000057
C113	C	0.856921	-0.381017	0.333390
C114	C	1.190254	-0.047684	0.666724
C115	C	0.523080	-0.764767	0.000062
C116	C	0.856414	-0.431434	0.333395
C117	C	1.189747	-0.098101	0.666728
C118	C	0.611241	-0.776923	0.000066
C119	C	0.944574	-0.443590	0.333399
C120	C	1.277907	-0.110257	0.666733
C121	C	0.611748	-0.726511	0.000064
C122	C	0.945081	-0.393177	0.333397
C123	C	1.278415	-0.059844	0.666730
C124	C	0.567918	-0.695225	0.000057
C125	C	0.901251	-0.361891	0.333391
C126	C	1.234584	-0.028558	0.666724
O127	O	0.650016	-0.651921	0.000076
O128	O	0.983349	-0.318588	0.333409
O129	O	1.316682	0.014745	0.666743
O130	O	0.486907	-0.629387	0.000041
O131	O	0.820241	-0.296053	0.333374
O132	O	1.153574	0.037280	0.666707
C133	C	0.526703	-0.406830	0.000044
C134	C	0.860036	-0.073497	0.333377
C135	C	1.193369	0.259837	0.666710
C136	C	0.571036	-0.387705	0.000044
C137	C	0.904370	-0.054372	0.333377
C138	C	1.237703	0.278962	0.666710
C139	C	0.614859	-0.418992	0.000046
C140	C	0.948192	-0.085659	0.333380
C141	C	1.281525	0.247675	0.666713
C142	C	0.571548	-0.337290	0.000045
C143	C	0.904881	-0.003957	0.333379
C144	C	1.238215	0.329376	0.666712
C145	C	0.527726	-0.306003	0.000043
C146	C	0.861059	0.027330	0.333376
C147	C	1.194392	0.360663	0.666709
C148	C	0.483391	-0.325131	0.000038
C149	C	0.816725	0.008203	0.333371
C150	C	1.150058	0.341536	0.666705
C151	C	0.482880	-0.375543	0.000041
C152	C	0.816214	-0.042209	0.333374
C153	C	1.149547	0.291124	0.666708
C154	C	0.659193	-0.399865	0.000051
C155	C	0.992526	-0.066531	0.333384
C156	C	1.325860	0.266802	0.666718
C157	C	0.659701	-0.349452	0.000049
C158	C	0.993034	-0.016119	0.333382
C159	C	1.326367	0.317215	0.666715
C160	C	0.615878	-0.318165	0.000046
C161	C	0.949211	0.015169	0.333379
C162	C	1.282545	0.348502	0.666713
C163	C	0.089660	0.106228	0.000069
C164	C	0.422993	0.439561	0.333402
C165	C	0.756327	0.772895	0.666735
C166	C	-0.112000	0.104177	0.000073
C167	C	0.221333	0.437510	0.333407
C168	C	0.554667	0.770844	0.666740
O169	O	-0.143253	0.141397	0.000096
O170	O	0.190080	0.474731	0.333429
O171	O	0.523413	0.808064	0.666762
N172	N	-0.131126	0.059842	0.000071
N173	N	0.202207	0.393175	0.333405
N174	N	0.535540	0.726509	0.666738
C175	C	-0.099834	0.016017	0.000072
C176	C	0.233499	0.349350	0.333405
C177	C	0.566833	0.682683	0.666738
O178	O	-0.120730	-0.021740	0.000075
O179	O	0.212604	0.311594	0.333409
O180	O	0.545937	0.644927	0.666742
C181	C	0.101825	0.018068	0.000071
C182	C	0.435158	0.351402	0.333404
C183	C	0.768491	0.684735	0.666738
C184	C	0.120948	0.062406	0.000068
C185	C	0.454281	0.395739	0.333401
C186	C	0.787615	0.729073	0.666734
C187	C	0.108784	0.150562	0.000066
C188	C	0.442117	0.483895	0.333399
C189	C	0.775450	0.817229	0.666733
C190	C	0.159196	0.151074	0.000062
C191	C	0.492529	0.484408	0.333396
C192	C	0.825862	0.817741	0.666729
C193	C	0.190484	0.107252	0.000061
C194	C	0.523817	0.440586	0.333394
C195	C	0.857151	0.773919	0.666728
C196	C	0.171360	0.062918	0.000064
C197	C	0.504693	0.396252	0.333397
C198	C	0.838027	0.729585	0.666730
C199	C	0.133116	-0.025756	0.000075
C200	C	0.466449	0.307577	0.333408
C201	C	0.799782	0.640910	0.666741
C202	C	0.183533	-0.025240	0.000076
C203	C	0.516866	0.308094	0.333409
C204	C	0.850200	0.641427	0.666743
C205	C	0.202656	0.019098	0.000073
C206	C	0.535990	0.352431	0.333406
C207	C	0.869323	0.685765	0.666739
C208	C	0.253060	0.019609	0.000059
C209	C	0.586393	0.352942	0.333392
C210	C	0.919727	0.686275	0.666726
N211	N	0.272186	0.063944	0.000061
N212	N	0.605520	0.397277	0.333394
N213	N	0.938853	0.730610	0.666727
C214	C	0.240898	0.107765	0.000062
C215	C	0.574232	0.441099	0.333395
C216	C	0.907565	0.774432	0.666728
C217	C	-0.205708	0.014943	0.000071
C218	C	0.127625	0.348276	0.333404
C219	C	0.460958	0.681610	0.666738
C220	C	-0.256123	0.014430	0.000070
C221	C	0.077211	0.347763	0.333404
C222	C	0.410544	0.681097	0.666737
C223	C	-0.268285	0.102590	0.000073
C224	C	0.065048	0.435923	0.333406
C225	C	0.398382	0.769257	0.666740
C226	C	-0.217870	0.103103	0.000070
C227	C	0.115464	0.436436	0.333403
C228	C	0.448797	0.769769	0.666737
C229	C	-0.186582	0.059278	0.000073
C230	C	0.146751	0.392611	0.333406
C231	C	0.480085	0.725944	0.666740
C232	C	0.346768	0.108838	0.000053
C233	C	0.680101	0.442171	0.333387
C234	C	1.013434	0.775505	0.666720
C235	C	0.397185	0.109346	0.000047
C236	C	0.730518	0.442680	0.333381
C237	C	1.063851	0.776013	0.666714
C238	C	0.409342	0.021186	0.000048
C239	C	0.742676	0.354520	0.333381
C240	C	1.076009	0.687853	0.666714
C241	C	0.358930	0.020678	0.000051
C242	C	0.692263	0.354011	0.333384
C243	C	1.025596	0.687344	0.666718
C244	C	0.327643	0.064507	0.000055
C245	C	0.660976	0.397841	0.333389
C246	C	0.994310	0.731174	0.666722
O247	O	0.284342	-0.017592	0.000042
O248	O	0.617675	0.315742	0.333375
O249	O	0.951008	0.649075	0.666709
O250	O	0.261803	0.145516	0.000069
O251	O	0.595136	0.478850	0.333403
O252	O	0.928470	0.812183	0.666736
C253	C	0.039248	0.105716	0.000073
C254	C	0.372581	0.439049	0.333406
C255	C	0.705915	0.772382	0.666739
C256	C	0.020124	0.061381	0.000075
C257	C	0.353457	0.394715	0.333409
C258	C	0.686791	0.728048	0.666742
C259	C	0.051412	0.017560	0.000074
C260	C	0.384745	0.350893	0.333407
C261	C	0.718079	0.684226	0.666741
C262	C	-0.030290	0.060868	0.000075
C263	C	0.303043	0.394202	0.333408
C264	C	0.636376	0.727535	0.666741
C265	C	-0.061578	0.104690	0.000076
C266	C	0.271755	0.438024	0.333409
C267	C	0.605088	0.771357	0.666742
C268	C	-0.042452	0.149025	0.000078
C269	C	0.290881	0.482359	0.333411
C270	C	0.624215	0.815692	0.666744
C271	C	0.007960	0.149537	0.000074
C272	C	0.341293	0.482871	0.333407
C273	C	0.674627	0.816204	0.666740
C274	C	0.032286	-0.026775	0.000072
C275	C	0.365619	0.306558	0.333406
C276	C	0.698952	0.639891	0.666739
C277	C	-0.018127	-0.027284	0.000076
C278	C	0.315206	0.306049	0.333409
C279	C	0.648540	0.639383	0.666742
C280	C	-0.049415	0.016538	0.000077
C281	C	0.283918	0.349871	0.333410
C282	C	0.617252	0.683205	0.666743
C283	C	0.658934	0.057699	0.000069
C284	C	0.992268	0.391032	0.333403
C285	C	1.325601	0.724366	0.666736
C286	C	0.712589	0.058252	0.000072
C287	C	1.045923	0.391585	0.333405
C288	C	1.379256	0.724918	0.666738
C289	C	0.566347	0.150291	0.000063
C290	C	0.899680	0.483624	0.333396
C291	C	1.233014	0.816958	0.666730
C292	C	0.566903	0.203945	0.000065
C293	C	0.900236	0.537279	0.333398
C294	C	1.233570	0.870612	0.666731
N295	N	0.570499	0.061888	0.129308
N296	N	0.903832	0.395221	0.462642
N297	N	1.237165	0.728554	0.795975
N298	N	0.570567	0.061885	-0.129186
N299	N	0.903900	0.395218	0.204147
N300	N	1.237233	0.728551	0.537481
C301	C	0.599638	0.090999	0.473938
C302	C	0.932972	0.424332	0.807272
C303	C	1.266305	0.757665	1.140605
C304	C	0.599654	0.090998	0.682816
C305	C	0.932987	0.424331	1.016149
C306	C	1.266321	0.757665	1.349483
O307	O	0.624416	0.115744	0.709823
O308	O	0.957750	0.449077	1.043156
O309	O	1.291083	0.782411	1.376490
N310	N	0.570558	0.061883	0.708935
N311	N	0.903891	0.395216	1.042269
N312	N	1.237224	0.728550	1.375602
C313	C	0.541458	0.032764	0.682832
C314	C	0.874791	0.366097	1.016166
C315	C	1.208124	0.699430	1.349499
O316	O	0.516714	0.007996	0.709841
O317	O	0.850047	0.341329	1.043175
O318	O	1.183380	0.674662	1.376508
C319	C	0.541445	0.032762	0.473955
C320	C	0.874778	0.366095	0.807289
C321	C	1.208112	0.699429	1.140622
C322	C	0.570539	0.061883	0.447839
C323	C	0.903873	0.395216	0.781172
C324	C	1.237206	0.728549	1.114505
C325	C	0.628731	0.120116	0.447822
C326	C	0.962064	0.453450	0.781155
C327	C	1.295397	0.786783	1.114488
C328	C	0.628725	0.120118	0.395605
C329	C	0.962058	0.453452	0.728939
C330	C	1.295391	0.786785	1.062272
C331	C	0.599626	0.091002	0.369506
C332	C	0.932959	0.424336	0.702839
C333	C	1.266292	0.757669	1.036172
C334	C	0.570533	0.061884	0.395622
C335	C	0.903867	0.395218	0.728956
C336	C	1.237200	0.728551	1.062289
C337	C	0.512348	0.003640	0.447853
C338	C	0.845681	0.336974	0.781187
C339	C	1.179015	0.670307	1.114520
C340	C	0.512348	0.003641	0.395631
C341	C	0.845682	0.336975	0.728964
C342	C	1.179015	0.670308	1.062297
C343	C	0.541443	0.032762	0.369514
C344	C	0.874776	0.366095	0.702847
C345	C	1.208109	0.699429	1.036181
C346	C	0.541428	0.032770	0.317307
C347	C	0.874762	0.366103	0.650640
C348	C	1.208095	0.699437	0.983973
N349	N	0.570525	0.061885	0.291187
N350	N	0.903858	0.395218	0.624521
N351	N	1.237191	0.728552	0.957854
C352	C	0.599623	0.091001	0.317287
C353	C	0.932957	0.424335	0.650620
C354	C	1.266290	0.757668	0.983953
C355	C	0.541466	0.032767	0.792496
C356	C	0.874799	0.366101	1.125829
C357	C	1.208132	0.699434	1.459162
C358	C	0.541468	0.032768	0.844714
C359	C	0.874801	0.366102	1.178048
C360	C	1.208135	0.699435	1.511381
C361	C	0.599665	0.091002	0.844695
C362	C	0.932998	0.424336	1.178028
C363	C	1.266332	0.757669	1.511361
C364	C	0.599660	0.091004	0.792475
C365	C	0.932993	0.424337	1.125808
C366	C	1.266326	0.757670	1.459141
C367	C	0.570562	0.061882	0.766376
C368	C	0.903895	0.395216	1.099709
C369	C	1.237229	0.728549	1.433043
C370	C	0.599608	0.091003	0.207629
C371	C	0.932941	0.424336	0.540962
C372	C	1.266275	0.757670	0.874295
C373	C	0.599598	0.091004	0.155408
C374	C	0.932931	0.424337	0.488741
C375	C	1.266264	0.757671	0.822075
C376	C	0.541403	0.032768	0.155432
C377	C	0.874736	0.366102	0.488766
C378	C	1.208069	0.699435	0.822099
C379	C	0.541411	0.032769	0.207649
C380	C	0.874744	0.366103	0.540982
C381	C	1.208077	0.699436	0.874315
C382	C	0.570517	0.061888	0.233746
C383	C	0.903851	0.395221	0.567079
C384	C	1.237184	0.728555	0.900412
O385	O	0.516683	0.008033	0.290267
O386	O	0.850016	0.341367	0.623601
O387	O	1.183349	0.674700	0.956934
O388	O	0.624372	0.115757	0.290269
O389	O	0.957705	0.449091	0.623602
O390	O	1.291039	0.782424	0.956935
C391	C	0.599644	0.090997	0.526155
C392	C	0.932978	0.424330	0.859488
C393	C	1.266311	0.757663	1.192821
C394	C	0.570552	0.061879	0.552271
C395	C	0.903885	0.395212	0.885605
C396	C	1.237219	0.728546	1.218938
C397	C	0.541453	0.032763	0.526172
C398	C	0.874786	0.366096	0.859505
C399	C	1.208120	0.699430	1.192839
C400	C	0.570554	0.061880	0.604490
C401	C	0.903888	0.395213	0.937824
C402	C	1.237221	0.728547	1.271157
C403	C	0.599653	0.090996	0.630590
C404	C	0.932986	0.424329	0.963923
C405	C	1.266320	0.757663	1.297256
C406	C	0.628749	0.120111	0.604470
C407	C	0.962083	0.453444	0.937804
C408	C	1.295416	0.786778	1.271137
C409	C	0.628743	0.120113	0.552254
C410	C	0.962077	0.453446	0.885587
C411	C	1.295410	0.786780	1.218921
C412	C	0.512357	0.003648	0.552291
C413	C	0.845690	0.336981	0.885625
C414	C	1.179023	0.670314	1.218958
C415	C	0.512365	0.003649	0.604508
C416	C	0.845698	0.336982	0.937841
C417	C	1.179032	0.670315	1.271174
C418	C	0.541464	0.032765	0.630607
C419	C	0.874797	0.366098	0.963940
C420	C	1.208130	0.699432	1.297274
H421	H	0.486974	-0.780335	0.000065
H422	H	0.820308	-0.447002	0.333398
H423	H	1.153641	-0.113669	0.666731
Cl424	Cl	0.713918	-0.476665	0.000034
Cl425	Cl	1.047252	-0.143332	0.333367
Cl426	Cl	1.380585	0.190001	0.666701
H427	H	0.693350	-0.576584	0.000041
H428	H	1.026683	-0.243251	0.333374
H429	H	1.360017	0.090083	0.666707
Cl430	Cl	0.665317	0.156725	0.480623
Cl431	Cl	0.998650	0.490059	0.813956
Cl432	Cl	1.331983	0.823392	1.147290
Cl433	Cl	0.468486	-0.675027	0.000051
Cl434	Cl	0.801819	-0.341694	0.333384
Cl435	Cl	1.135152	-0.008361	0.666717
H436	H	0.434826	-0.014492	0.000045
H437	H	0.768159	0.318841	0.333378
H438	H	1.101493	0.652174	0.666712
Cl439	Cl	0.425606	-0.550813	0.000044
Cl440	Cl	0.758939	-0.217480	0.333377
Cl441	Cl	1.092272	0.115853	0.666710
Cl442	Cl	0.222863	-0.080337	0.000080
Cl443	Cl	0.556197	0.252996	0.333414
Cl444	Cl	0.889530	0.586329	0.666747
H445	H	0.083313	0.186249	0.000069
H446	H	0.416647	0.519582	0.333402
H447	H	0.749980	0.852916	0.666736
H448	H	-0.033692	-0.063392	0.000074
H449	H	0.299642	0.269942	0.333408
H450	H	0.632975	0.603275	0.666741
H451	H	0.653160	-0.187341	0.000054
H452	H	0.986493	0.145992	0.333388
H453	H	1.319826	0.479326	0.666721
H454	H	0.057756	-0.062461	0.000073
H455	H	0.391089	0.270872	0.333406
H456	H	0.724423	0.604206	0.666739
Cl457	Cl	0.427139	-0.399577	0.000040
Cl458	Cl	0.760472	-0.066244	0.333373
Cl459	Cl	1.093806	0.267090	0.666707
Cl460	Cl	0.636173	0.127619	0.122579
Cl461	Cl	0.969506	0.460952	0.455912
Cl462	Cl	1.302840	0.794286	0.789245
Cl463	Cl	-0.166382	-0.040157	0.000074
Cl464	Cl	0.166952	0.293176	0.333407
Cl465	Cl	0.500285	0.626509	0.666740
Cl466	Cl	0.426759	-0.437043	0.000042
Cl467	Cl	0.760092	-0.103709	0.333375
Cl468	Cl	1.093426	0.229624	0.666709
H469	H	0.517713	0.009063	0.228914
H470	H	0.851047	0.342396	0.562247
H471	H	1.184380	0.675730	0.895581
Cl472	Cl	0.636239	0.127611	0.759648
Cl473	Cl	0.969573	0.460945	1.092981
Cl474	Cl	1.302906	0.794278	1.426314
Cl475	Cl	0.504872	-0.003836	0.759693
Cl476	Cl	0.838205	0.329497	1.093027
Cl477	Cl	1.171538	0.662831	1.426360
H478	H	0.647851	-0.710939	0.000070
H479	H	0.981184	-0.377605	0.333404
H480	H	1.314518	-0.044272	0.666737
H481	H	0.488653	-0.020073	0.374384
H482	H	0.821986	0.313260	0.707717
H483	H	1.155320	0.646593	1.041051
Cl484	Cl	0.504823	-0.003832	0.122612
Cl485	Cl	0.838156	0.329501	0.455945
Cl486	Cl	1.171489	0.662834	0.789278
H487	H	0.652440	0.143821	0.625730
H488	H	0.985774	0.477154	0.959063
H489	H	1.319107	0.810488	1.292396
Cl490	Cl	0.665318	0.156727	0.519429
Cl491	Cl	0.998652	0.490060	0.852763
Cl492	Cl	1.331985	0.823393	1.186096
H493	H	0.343359	-0.015426	0.000046
H494	H	0.676692	0.317908	0.333380
H495	H	1.010026	0.651241	0.666713
Cl496	Cl	0.475782	-0.032961	0.637334
Cl497	Cl	0.809116	0.300372	0.970667
Cl498	Cl	1.142449	0.633705	1.304000
Cl499	Cl	-0.307628	0.157680	0.000076
Cl500	Cl	0.025706	0.491013	0.333410
Cl501	Cl	0.359039	0.824347	0.666743
H502	H	0.646920	-0.802406	0.000071
H503	H	0.980253	-0.469073	0.333404
H504	H	1.313586	-0.135739	0.666737
H505	H	0.447710	-0.299648	0.000039
H506	H	0.781043	0.033686	0.333372
H507	H	1.114376	0.367019	0.666706
H508	H	0.493206	-0.165279	0.000054
H509	H	0.826540	0.168054	0.333387
H510	H	1.159873	0.501388	0.666721
Cl511	Cl	-0.193834	0.158843	0.000068
Cl512	Cl	0.139499	0.492177	0.333401
Cl513	Cl	0.472832	0.825510	0.666734
Cl514	Cl	0.715445	-0.325417	0.000047
Cl515	Cl	1.048778	0.007917	0.333381
Cl516	Cl	1.382111	0.341250	0.666714
Cl517	Cl	-0.280157	-0.041311	0.000062
Cl518	Cl	0.053176	0.292022	0.333395
Cl519	Cl	0.386510	0.625355	0.666729
Cl520	Cl	0.714290	-0.439190	0.000056
Cl521	Cl	1.047624	-0.105857	0.333390
Cl522	Cl	1.380957	0.227477	0.666723
H523	H	0.412752	0.145453	0.000045
H524	H	0.746085	0.478786	0.333378
H525	H	1.079418	0.812120	0.666711
H526	H	0.623309	0.114714	0.228871
H527	H	0.956643	0.448047	0.562204
H528	H	1.289976	0.781381	0.895537
H529	H	0.321299	0.144528	0.000059
H530	H	0.654633	0.477862	0.333392
H531	H	0.987966	0.811195	0.666725
Cl532	Cl	-0.081795	0.204115	0.000077
Cl533	Cl	0.251538	0.537448	0.333410
Cl534	Cl	0.584871	0.870781	0.666744
H535	H	0.494139	-0.073813	0.000049
H536	H	0.827472	0.259520	0.333383
H537	H	1.160806	0.592853	0.666716
Cl538	Cl	0.109088	-0.081499	0.000070
Cl539	Cl	0.442421	0.251834	0.333404
Cl540	Cl	0.775754	0.585168	0.666737
Cl541	Cl	0.031993	0.205279	0.000070
Cl542	Cl	0.365326	0.538613	0.333404
Cl543	Cl	0.698659	0.871946	0.666737
H544	H	0.652418	0.143829	0.374346
H545	H	0.985752	0.477163	0.707679
H546	H	1.319085	0.810496	1.041012
H547	H	0.174761	0.187179	0.000059
H548	H	0.508094	0.520512	0.333393
H549	H	0.841428	0.853845	0.666726
Cl550	Cl	0.636248	0.127603	0.877515
Cl551	Cl	0.969581	0.460937	1.210848
Cl552	Cl	1.302915	0.794270	1.544182
H553	H	0.517771	0.009061	0.865974
H554	H	0.851104	0.342395	1.199308
H555	H	1.184437	0.675728	1.532641
H556	H	0.654085	-0.095890	0.000064
H557	H	0.987418	0.237443	0.333397
H558	H	1.320752	0.570777	0.666730
Cl559	Cl	0.475770	-0.032971	0.480673
Cl560	Cl	0.809103	0.300362	0.814006
Cl561	Cl	1.142436	0.633695	1.147340
Cl562	Cl	0.475763	-0.032951	0.519488
Cl563	Cl	0.809097	0.300382	0.852822
Cl564	Cl	1.142430	0.633716	1.186155
