data_functionalizedCrystal
_audit_creation_method	'MofGen! by Chris Wilmer'
_symmetry_space_group_name_H-M	'P1'
_symmetry_Int_Tables_number	1
_symmetry_cell_setting	triclinic
loop_
_symmetry_equiv_pos_as_xyz
  x,y,z
_cell_length_a	16.109301
_cell_length_b	14.853567
_cell_length_c	15.186229
_cell_angle_alpha	90.000050
_cell_angle_beta	89.999362
_cell_angle_gamma	83.548205
loop_
_atom_site_label
_atom_site_type_symbol
_atom_site_fract_x
_atom_site_fract_y
_atom_site_fract_z
O1	O	1.103293	0.115881	-0.073165
O2	O	0.861252	0.130302	-0.073178
O3	O	0.988738	-0.008149	-0.073174
O4	O	0.975807	0.254332	-0.073170
O5	O	0.988729	-0.008151	0.073283
O6	O	0.861243	0.130300	0.073279
O7	O	1.103285	0.115879	0.073292
Zn8	Zn	0.982263	0.123089	0.096539
Zn9	Zn	0.982274	0.123092	-0.096425
O10	O	0.975799	0.254330	0.073288
C11	C	0.830272	0.129717	0.000048
C12	C	0.737974	0.127965	0.000043
C13	C	0.515811	0.206047	0.000055
C14	C	0.429089	0.204395	0.000060
C15	C	0.448732	0.040127	0.000054
C16	C	0.535453	0.041781	0.000054
C17	C	0.568990	0.124743	0.000050
C18	C	0.395546	0.121437	0.000055
C19	C	0.301518	0.119645	0.000061
C20	C	0.663025	0.126536	0.000046
C21	C	0.988148	-0.041738	0.000052
C22	C	0.986392	-0.141819	0.000044
C23	C	0.903241	-0.554215	0.000056
C24	C	1.054697	-0.575746	0.000064
C25	C	1.056348	-0.481715	0.000059
C26	C	0.981444	-0.423930	0.000054
C27	C	0.904889	-0.460175	0.000054
C28	C	1.132901	-0.445463	0.000068
C29	C	1.134555	-0.351426	0.000064
C30	C	1.059650	-0.293639	0.000053
C31	C	0.983093	-0.329890	0.000052
C32	C	0.908189	-0.272104	0.000046
C33	C	0.831630	-0.308353	0.000039
C34	C	0.829984	-0.402388	0.000042
C35	C	1.061296	-0.199604	0.000049
C36	C	0.909837	-0.178064	0.000044
C37	C	1.134265	0.116464	0.000063
C38	C	1.226563	0.118215	0.000063
C39	C	0.976389	0.287918	0.000060
C40	C	0.978145	0.387999	0.000062
N41	N	0.982261	0.123087	0.228231
N42	N	0.982282	0.123087	-0.228118
C43	C	1.038731	0.061801	0.453956
C44	C	1.038734	0.061799	0.546146
C45	C	0.925806	0.184375	0.546151
C46	C	0.925800	0.184372	0.453963
C47	C	0.982267	0.123086	0.407868
C48	C	0.982276	0.123087	0.592246
C49	C	0.982278	0.123085	0.692202
C50	C	0.982264	0.123087	0.307905
H51	H	0.848840	-0.131020	0.000036
H52	H	0.879833	0.234274	0.583691
H53	H	0.543114	0.273601	0.000058
H54	H	0.879816	0.234278	0.416436
C55	C	1.224278	-0.258180	-0.075230
C56	C	1.218705	-0.311584	0.000063
H57	H	1.276227	-0.233579	-0.075229
H58	H	1.220491	-0.294424	-0.126289
H59	H	1.179902	-0.210310	-0.075224
H60	H	1.263078	-0.359459	0.000054
H61	H	1.222501	-0.275339	0.051135
C62	C	1.119415	-0.729454	0.000076
C63	C	1.137028	-0.639262	0.000072
H64	H	1.170246	-0.768666	0.000075
H65	H	1.088033	-0.740430	0.051146
H66	H	1.088030	-0.740434	-0.051000
H67	H	1.168408	-0.628279	0.051152
H68	H	1.168424	-0.628281	-0.051003
H69	H	1.193884	-0.492518	0.000081
H70	H	0.385793	0.270600	0.000066
C71	C	0.324516	-0.035347	0.000041
C72	C	0.411865	-0.051062	0.000046
H73	H	0.301760	-0.091646	0.000029
H74	H	0.306272	-0.001882	0.051112
H75	H	0.306279	-0.001866	-0.051034
H76	H	0.430102	-0.084538	0.051125
H77	H	0.430117	-0.084541	-0.051031
C78	C	1.151016	-0.106346	-0.075232
C79	C	1.145438	-0.159753	0.000058
H80	H	1.202963	-0.081741	-0.075223
H81	H	1.147237	-0.142589	-0.126292
H82	H	1.106636	-0.058479	-0.075230
H83	H	1.189814	-0.207624	0.000054
H84	H	1.149225	-0.123508	0.051132
C85	C	0.546167	-0.120764	0.000038
C86	C	0.593915	-0.047596	0.000046
H87	H	0.582261	-0.175937	0.000029
H88	H	0.511936	-0.117998	0.051107
H89	H	0.511933	-0.117985	-0.051039
H90	H	0.628145	-0.050371	0.051126
H91	H	0.628161	-0.050363	-0.051029
H92	H	1.084709	0.011897	0.416427
H93	H	0.770643	-0.261292	0.000041
C94	C	0.760211	-0.536975	0.000061
C95	C	0.745837	-0.442235	0.000047
H96	H	0.708261	-0.561575	0.000072
H97	H	0.791049	-0.556808	-0.051008
H98	H	0.791059	-0.556792	0.051138
H99	H	0.714994	-0.422417	-0.051033
H100	H	0.714985	-0.422394	0.051122
C101	C	1.150364	-0.059352	0.536874
C102	C	1.100804	-0.005564	0.596806
H103	H	1.188687	-0.100937	0.568151
H104	H	1.115720	-0.091792	0.500922
H105	H	1.180304	-0.021802	0.500914
H106	H	1.070859	-0.043113	0.632762
H107	H	1.135452	0.026879	0.632772
H108	H	0.840908	-0.583733	0.000047
