data_functionalizedCrystal
_audit_creation_method	'MofGen! by Chris Wilmer'
_symmetry_space_group_name_H-M	'P1'
_symmetry_Int_Tables_number	1
_symmetry_cell_setting	triclinic
loop_
_symmetry_equiv_pos_as_xyz
  x,y,z
_cell_length_a	17.699077
_cell_length_b	15.021413
_cell_length_c	17.699083
_cell_angle_alpha	89.996880
_cell_angle_beta	83.281795
_cell_angle_gamma	90.006741
loop_
_atom_site_label
_atom_site_type_symbol
_atom_site_fract_x
_atom_site_fract_y
_atom_site_fract_z
O1	O	1.004083	0.074022	0.095680
O2	O	1.504083	0.574022	0.595680
O3	O	0.783704	0.074027	0.108137
O4	O	1.283704	0.574027	0.608137
O5	O	0.900120	0.074016	-0.008281
O6	O	1.400120	0.574016	0.491719
O7	O	0.887667	0.074032	0.212098
O8	O	1.387667	0.574032	0.712098
O9	O	0.900101	-0.074048	-0.008265
O10	O	1.400101	0.425952	0.491735
O11	O	0.783685	-0.074038	0.108153
O12	O	1.283685	0.425962	0.608153
O13	O	1.004064	-0.074042	0.095696
O14	O	1.504064	0.425958	0.595696
Zn15	Zn	0.893872	-0.097548	0.101927
Zn16	Zn	1.393872	0.402452	0.601927
Zn17	Zn	0.893896	0.097533	0.101906
Zn18	Zn	1.393896	0.597533	0.601906
O19	O	0.887649	-0.074032	0.212114
O20	O	1.387649	0.425968	0.712114
C21	C	0.755498	-0.000005	0.107700
C22	C	1.255498	0.499995	0.607700
C23	C	0.671479	-0.000003	0.106363
C24	C	1.171479	0.499997	0.606363
N25	N	0.893861	-0.230686	0.101942
N26	N	1.393861	0.269314	0.601942
C27	C	0.632002	-0.080714	0.105742
C28	C	1.132002	0.419286	0.605742
C29	C	0.553059	-0.080715	0.104474
C30	C	1.053059	0.419285	0.604474
C31	C	0.513595	-0.000005	0.103832
C32	C	1.013595	0.499995	0.603832
C33	C	0.553078	0.080712	0.104450
C34	C	1.053078	0.580712	0.604450
C35	C	0.632020	0.080713	0.105713
C36	C	1.132020	0.580713	0.605713
C37	C	0.234715	0.080714	0.099357
C38	C	0.734715	0.580714	0.599357
C39	C	0.155767	0.080707	0.098097
C40	C	0.655767	0.580707	0.598097
C41	C	0.155754	-0.080714	0.098118
C42	C	0.655754	0.419286	0.598118
C43	C	0.234696	-0.080714	0.099380
C44	C	0.734696	0.419286	0.599380
C45	C	0.274173	0.000002	0.099995
C46	C	0.774173	0.500002	0.599995
C47	C	0.359772	0.000003	0.101369
C48	C	0.859772	0.500003	0.601369
C49	C	0.427997	-0.000004	0.102464
C50	C	0.927997	0.499996	0.602464
C51	C	0.840022	-0.470364	0.155748
C52	C	1.340022	0.029636	0.655748
C53	C	0.908386	-0.529699	0.170311
C54	C	1.408386	-0.029699	0.670311
C55	C	0.893880	-0.412293	0.101923
C56	C	1.393880	0.087707	0.601923
C57	C	0.825535	-0.529700	0.087377
C58	C	1.325535	-0.029700	0.587377
C59	C	0.893893	-0.587717	0.101906
C60	C	1.393893	-0.087717	0.601906
C61	C	0.962278	-0.470321	0.116520
C62	C	1.462278	0.029679	0.616520
C63	C	0.879383	-0.470317	0.033556
C64	C	1.379383	0.029683	0.533556
C65	C	0.947796	-0.529625	0.048090
C66	C	1.447796	-0.029625	0.548090
C67	C	0.893872	-0.311236	0.101934
C68	C	1.393872	0.188764	0.601934
C69	C	0.893909	-0.688772	0.101894
C70	C	1.393909	-0.188772	0.601894
C71	C	1.032271	-0.000009	0.096133
C72	C	1.532271	0.499991	0.596133
C73	C	1.116289	-0.000004	0.097470
C74	C	1.616289	0.499996	0.597470
C75	C	0.899664	-0.000016	-0.036470
C76	C	1.399664	0.499984	0.463530
C77	C	0.898326	-0.000016	-0.120488
C78	C	1.398326	0.499984	0.379512
N79	N	0.893913	0.230670	0.101885
N80	N	1.393913	0.730670	0.601885
C81	C	0.966659	-0.000019	-0.169110
C82	C	1.466659	0.499981	0.330890
C83	C	0.965397	-0.000011	-0.248054
C84	C	1.465397	0.499989	0.251946
C85	C	0.895800	-0.000007	-0.278373
C86	C	1.395800	0.499993	0.221627
C87	C	0.827461	-0.000001	-0.229744
C88	C	1.327461	0.499999	0.270256
C89	C	0.828724	-0.000003	-0.150803
C90	C	1.328724	0.499997	0.349197
C91	C	0.822366	0.000006	-0.548107
C92	C	1.322366	0.500006	-0.048107
C93	C	0.821108	0.000005	-0.627055
C94	C	1.321108	0.500005	-0.127055
C95	C	0.959039	-0.000002	-0.645358
C96	C	1.459039	0.499998	-0.145358
C97	C	0.960302	-0.000004	-0.566417
C98	C	1.460302	0.499996	-0.066417
C99	C	0.891963	0.000006	-0.517795
C100	C	1.391963	0.500006	-0.017795
C101	C	0.893333	-0.000001	-0.432196
C102	C	1.393333	0.499999	0.067804
C103	C	0.894430	-0.000006	-0.363971
C104	C	1.394430	0.499994	0.136029
C105	C	0.888104	0.000002	0.240303
C106	C	1.388104	0.500002	0.740303
C107	C	0.889443	0.000008	0.324321
C108	C	1.389443	0.500008	0.824321
H109	H	0.664127	-0.146438	0.106271
H110	H	1.164127	0.353562	0.606271
H111	H	1.023333	-0.000028	-0.144431
H112	H	1.523333	0.499972	0.355569
Br113	Br	1.058140	-0.000014	-0.314039
Br114	Br	1.558140	0.499986	0.185961
H115	H	1.016974	-0.000012	-0.541735
H116	H	1.516974	0.499988	-0.041735
Br117	Br	0.102208	0.190251	0.097227
Br118	Br	0.602208	0.690251	0.597227
H119	H	0.920659	-0.555782	0.228120
H120	H	1.420659	-0.055782	0.728120
H121	H	0.520922	-0.146438	0.103956
H122	H	1.020922	0.353562	0.603956
H123	H	0.266848	0.146438	0.099855
H124	H	0.766848	0.646438	0.599855
Br125	Br	0.733007	0.000019	-0.270891
Br126	Br	1.233007	0.500019	0.229109
Br127	Br	0.499525	0.190250	0.103546
Br128	Br	0.999525	0.690250	0.603546
Br129	Br	0.729194	-0.573178	0.066882
Br130	Br	1.229194	-0.073178	0.566882
H131	H	1.014683	-0.000006	-0.684956
H132	H	1.514683	0.499994	-0.184956
Br133	Br	0.726649	0.000009	-0.668202
Br134	Br	1.226649	0.500009	-0.168202
H135	H	0.993397	-0.555481	0.002561
H136	H	1.493397	-0.055481	0.502561
H137	H	0.664161	0.146436	0.106220
H138	H	1.164161	0.646436	0.606220
Br139	Br	0.729621	0.000025	-0.482130
Br140	Br	1.229621	0.500025	0.017870
Br141	Br	0.735982	0.000008	-0.084813
Br142	Br	1.235982	0.500008	0.415187
Br143	Br	1.058645	-0.427038	0.137124
Br144	Br	1.558645	0.072962	0.637124
Br145	Br	0.288250	-0.190254	0.100258
Br146	Br	0.788250	0.309746	0.600258
Br147	Br	0.102174	-0.190260	0.097282
Br148	Br	0.602174	0.309740	0.597282
Br149	Br	0.764185	-0.426991	0.231672
Br150	Br	1.264185	0.073009	0.731672
Br151	Br	0.858892	-0.426805	-0.062767
Br152	Br	1.358892	0.073195	0.437233
