data_functionalizedCrystal
_audit_creation_method	'MofGen! by Chris Wilmer'
_symmetry_space_group_name_H-M	'P1'
_symmetry_Int_Tables_number	1
_symmetry_cell_setting	triclinic
loop_
_symmetry_equiv_pos_as_xyz
  x,y,z
_cell_length_a	13.339070
_cell_length_b	10.654550
_cell_length_c	9.130313
_cell_angle_alpha	90.000276
_cell_angle_beta	89.997998
_cell_angle_gamma	79.942888
loop_
_atom_site_label
_atom_site_type_symbol
_atom_site_fract_x
_atom_site_fract_y
_atom_site_fract_z
O1	O	0.142435	-1.715933	-0.121681
O2	O	0.156005	-1.355037	-0.121708
O3	O	0.001665	-1.494066	-0.121693
O4	O	0.296774	-1.576904	-0.121696
O5	O	0.001661	-1.494051	0.121906
O6	O	0.156000	-1.355022	0.121891
O7	O	0.142430	-1.715918	0.121917
Cu8	Cu	0.149215	-1.535469	0.144147
Cu9	Cu	0.149220	-1.535486	-0.143937
O10	O	0.296769	-1.576889	0.121903
C11	C	0.155006	-1.307895	0.000088
C12	C	0.152025	-1.167445	0.000078
C13	C	-0.036124	-1.480065	0.000103
C14	C	-0.148719	-1.438355	0.000094
N15	N	0.149210	-1.535465	0.346770
C16	C	-0.511236	-1.762670	0.000119
C17	C	-0.405448	-1.801862	0.000135
C18	C	-0.341261	-1.710989	0.000124
C19	C	-0.382871	-1.580916	0.000098
C20	C	-0.488669	-1.541720	0.000093
C21	C	-0.318694	-1.490039	0.000099
C22	C	-0.360304	-1.359966	0.000073
C23	C	-0.466092	-1.320776	0.000066
C24	C	-0.530280	-1.411650	0.000077
C25	C	-0.212896	-1.529235	0.000104
C26	C	-0.190329	-1.308285	0.000078
C27	C	-0.296117	-1.269093	0.000062
C28	C	0.334559	-1.590890	0.000103
C29	C	0.447153	-1.632600	0.000103
C30	C	0.143429	-1.763060	0.000118
C31	C	0.146410	-1.903510	0.000119
C32	C	0.242897	-1.118643	0.000082
C33	C	0.240090	-0.986674	0.000107
C34	C	0.055530	-0.952320	0.000120
C35	C	0.058338	-1.084286	0.000105
N36	N	0.149216	-1.535497	-0.346560
C37	C	0.080898	-1.597066	0.423428
C38	C	0.080898	-1.597078	0.576765
C39	C	0.217532	-1.473888	0.576771
C40	C	0.217526	-1.473869	0.423437
H41	H	-0.255124	-1.742907	0.000138
H42	H	-0.015666	-1.124020	0.000106
C43	C	0.005756	-1.664837	0.661089
H44	H	0.015533	-1.656017	0.763391
H45	H	0.017399	-1.752699	0.635950
H46	H	-0.062032	-1.627575	0.635965
H47	H	-0.371577	-1.907767	0.000159
C48	C	0.345947	-1.210113	0.000068
H49	H	0.399665	-1.162142	0.000087
H50	H	0.350883	-1.262302	-0.084885
H51	H	0.350877	-1.262311	0.085022
H52	H	-0.499968	-1.214863	0.000056
C53	C	-0.119738	-1.208313	0.000066
H54	H	-0.159671	-1.125235	0.000071
H55	H	-0.077995	-1.219017	-0.084880
H56	H	-0.078005	-1.219007	0.085028
H57	H	-0.616422	-1.379745	0.000058
H58	H	0.273155	-1.423700	0.361018
H59	H	0.025270	-1.647220	0.361008
C60	C	-0.581840	-1.862613	0.000136
H61	H	-0.650804	-1.820638	0.000123
H62	H	-0.569144	-1.914420	0.085090
H63	H	-0.569142	-1.914435	-0.084818
C64	C	-0.167131	-1.672301	0.000128
H65	H	-0.094932	-1.682636	0.000142
H66	H	-0.189104	-1.711280	-0.084813
H67	H	-0.189111	-1.711253	0.085094
C68	C	-0.341896	-1.126021	0.000047
H69	H	-0.414094	-1.115700	0.000056
H70	H	-0.319920	-1.087055	-0.084902
H71	H	-0.319929	-1.087047	0.085005
H72	H	0.273155	-1.423740	0.639210
C73	C	-0.047516	-0.860843	0.000130
H74	H	-0.036176	-0.775258	0.000124
H75	H	-0.084976	-0.875415	0.085075
H76	H	-0.084967	-0.875411	-0.084832
H77	H	0.314088	-0.946947	0.000113
