data_functionalizedCrystal
_audit_creation_method	'MofGen! by Chris Wilmer'
_symmetry_space_group_name_H-M	'P1'
_symmetry_Int_Tables_number	1
_symmetry_cell_setting	triclinic
loop_
_symmetry_equiv_pos_as_xyz
  x,y,z
_cell_length_a	34.490303
_cell_length_b	34.489386
_cell_length_c	34.485816
_cell_angle_alpha	60.004462
_cell_angle_beta	60.008900
_cell_angle_gamma	59.994399
loop_
_atom_site_label
_atom_site_type_symbol
_atom_site_fract_x
_atom_site_fract_y
_atom_site_fract_z
O1	O	0.053846	-0.566517	0.473678
O2	O	0.020329	-0.441078	0.381663
O3	O	0.099768	-0.520436	0.381578
O4	O	-0.025592	-0.487159	0.473762
O5	O	0.126127	-0.494082	0.407849
O6	O	0.046689	-0.414724	0.407933
O7	O	0.080206	-0.540163	0.499949
Zn8	Zn	0.067632	-0.473259	0.458112
Zn9	Zn	0.032903	-0.507982	0.423499
O10	O	0.000767	-0.460805	0.500033
N11	N	0.091336	-0.449565	0.481736
N12	N	0.009203	-0.531680	0.399875
C13	C	0.142510	-0.268211	0.532817
C14	C	0.142641	-0.398441	0.662987
C15	C	0.142524	-0.398421	0.532817
C16	C	0.272762	-0.398394	0.532723
C17	C	0.156853	-0.311177	0.547124
C18	C	0.156928	-0.384109	0.620020
C19	C	0.229794	-0.384081	0.547073
C20	C	0.156863	-0.384097	0.547124
C21	C	0.124253	-0.213522	0.514606
C22	C	0.124277	-0.416652	0.514606
C23	C	0.175110	-0.365866	0.565335
C24	C	0.352285	-0.384669	0.490824
C25	C	0.401998	-0.401229	0.474223
C26	C	0.402027	-0.481671	0.504898
C27	C	0.352316	-0.465109	0.521500
C28	C	0.136220	-0.188652	0.465734
C29	C	0.119621	-0.138936	0.449181
C30	C	0.079092	-0.138961	0.530374
C31	C	0.095691	-0.188678	0.546927
C32	C	0.075398	-0.404656	0.526651
C33	C	0.058814	-0.421229	0.510091
C34	C	0.139984	-0.461794	0.469452
C35	C	0.156570	-0.445221	0.486007
C36	C	0.075593	-0.404694	0.742565
C37	C	0.059066	-0.421281	0.792280
C38	C	0.140274	-0.461856	0.792215
C39	C	0.156800	-0.445269	0.742499
C40	C	0.124458	-0.416687	0.717675
C41	C	0.327446	-0.416608	0.514460
C42	C	-0.023585	-0.564792	0.161919
C43	C	-0.023910	-0.769260	0.366530
C44	C	-0.023880	-0.564780	0.366623
C45	C	-0.228325	-0.564561	0.366222
C46	C	-0.129610	-0.597564	0.333467
C47	C	-0.056729	-0.597644	0.333613
C48	C	-0.074925	-0.615849	0.315324
C49	C	-0.088689	-0.695351	0.357144
C50	C	-0.072155	-0.745068	0.373736
C51	C	0.008283	-0.745150	0.343188
C52	C	-0.008252	-0.695435	0.326596
C53	C	-0.154529	-0.609541	0.382326
C54	C	-0.204241	-0.592916	0.398818
C55	C	-0.204114	-0.552341	0.317588
C56	C	-0.154401	-0.568966	0.301096
C57	C	-0.068707	-0.548770	0.321590
C58	C	-0.052166	-0.532225	0.338221
C59	C	-0.011669	-0.613425	0.378886
C60	C	-0.028210	-0.629972	0.362261
C61	C	-0.068581	-0.548777	0.235758
C62	C	-0.051939	-0.532234	0.186043
C63	C	-0.011379	-0.613438	0.186090
C64	C	-0.028020	-0.629981	0.235806
C65	C	-0.056622	-0.597649	0.260639
C66	C	-0.056739	-0.670537	0.333576
C67	C	-0.005614	-0.545951	0.107238
C68	C	-0.006360	-0.823943	0.385033
C69	C	-0.005995	-0.545937	0.384582
C70	C	-0.283006	-0.545971	0.383725
N71	N	0.426163	-0.449489	0.481488
O72	O	0.588601	-0.457377	0.364497
O73	O	0.588789	-0.549696	0.489801
O74	O	0.588709	-0.549485	0.410335
O75	O	0.588681	-0.457588	0.443963
O76	O	0.509731	-0.523223	0.436741
O77	O	0.509811	-0.523434	0.516207
O78	O	0.509624	-0.431115	0.390903
Zn79	Zn	0.497178	-0.473105	0.457747
Zn80	Zn	0.601234	-0.507706	0.422956
O81	O	0.509704	-0.431326	0.470368
N82	N	0.672250	-0.531322	0.399211
N83	N	0.091303	-0.114798	0.481730
O84	O	-0.025603	0.047729	0.473733
O85	O	0.099703	0.047764	0.381394
O86	O	0.020199	0.047731	0.381655
O87	O	0.053901	0.047761	0.473472
O88	O	0.046564	-0.031252	0.407974
O89	O	0.126068	-0.031219	0.407713
O90	O	0.000762	-0.031254	0.500052
Zn91	Zn	0.067601	-0.043777	0.458061
Zn92	Zn	0.032864	0.060287	0.423385
O93	O	0.080266	-0.031222	0.499791
N94	N	0.009156	0.131307	0.399717
N95	N	0.091635	-0.449614	0.816396
O96	O	0.083664	-0.566502	0.978913
O97	O	-0.008637	-0.441152	0.978954
O98	O	-0.008421	-0.520640	0.978930
O99	O	0.083448	-0.487013	0.978936
O100	O	0.017877	-0.494296	0.899950
O101	O	0.017661	-0.414807	0.899974
O102	O	0.109961	-0.540157	0.899933
Zn103	Zn	0.067986	-0.473299	0.887414
Zn104	Zn	0.033338	-0.508010	0.991473
O105	O	0.109746	-0.460669	0.899956
N106	N	0.009689	-0.531700	1.062491
C107	C	0.030367	-0.412095	0.382120
C108	C	0.128741	-0.510370	0.382016
C109	C	0.070168	-0.569147	0.499490
C110	C	-0.028207	-0.470871	0.499595
C111	C	0.549323	-0.549278	0.518791
C112	C	0.549225	-0.549017	0.420381
C113	C	0.549087	-0.431532	0.361914
C114	C	0.549188	-0.431794	0.460322
C115	C	0.128638	0.008374	0.381806
C116	C	0.030215	0.008236	0.382161
C117	C	-0.028206	0.008233	0.499608
C118	C	0.070250	0.008272	0.499285
C119	C	-0.008199	-0.412187	0.939469
C120	C	-0.007927	-0.510619	0.939425
C121	C	0.109523	-0.569121	0.939417
C122	C	0.109257	-0.470684	0.939444
H123	H	0.049253	-0.381417	0.722357
C124	C	0.548987	-0.392813	0.313971
C125	C	0.548948	-0.352230	0.314036
C126	C	0.548849	-0.316551	0.269881
H127	H	0.576505	-0.403613	0.289747
H128	H	0.521419	-0.385333	0.308202
H129	H	0.576512	-0.359710	0.319799
H130	H	0.521431	-0.341417	0.338250
H131	H	0.521281	-0.309071	0.264113
H132	H	0.576368	-0.327355	0.245661
H133	H	0.548818	-0.289010	0.269921
C134	C	0.020921	-0.364072	0.343528
C135	C	0.061457	-0.363995	0.302881
C136	C	0.052775	-0.319763	0.267323
H137	H	-0.004961	-0.358269	0.336074
H138	H	0.013423	-0.339922	0.354433
H139	H	0.068949	-0.388138	0.291978
H140	H	0.087345	-0.369790	0.310320
H141	H	0.045278	-0.295613	0.278227
H142	H	0.026892	-0.313964	0.259873
H143	H	0.080279	-0.319704	0.239741
C144	C	0.148234	-0.617083	0.939377
C145	C	0.188805	-0.617023	0.939364
C146	C	0.224476	-0.661195	0.939320
H147	H	0.137422	-0.641289	0.966907
H148	H	0.155728	-0.622878	0.911819
H149	H	0.181311	-0.611234	0.966919
H150	H	0.199631	-0.592827	0.911836
H151	H	0.231970	-0.666990	0.911762
H152	H	0.213660	-0.685397	0.966850
H153	H	0.252009	-0.661159	0.939307
H154	H	-0.064192	0.008222	0.528596
H155	H	-0.224531	-0.602667	0.438605
H156	H	0.077468	0.008281	0.528131
H157	H	-0.037176	-0.376187	0.939482
H158	H	-0.036776	-0.517804	0.939391
C159	C	0.549263	-0.587582	0.410875
C160	C	0.549341	-0.628272	0.451375
C161	C	0.549383	-0.663809	0.442633
H162	H	0.521711	-0.576696	0.403384
H163	H	0.576797	-0.594979	0.384965
H164	H	0.521810	-0.620875	0.477276
H165	H	0.576891	-0.639172	0.458872
H166	H	0.576917	-0.671206	0.416724
H167	H	0.521830	-0.652919	0.435142
H168	H	0.549440	-0.691423	0.470109
H169	H	0.138119	-0.463487	0.939440
H170	H	0.022995	0.008233	0.353314
H171	H	0.019274	-0.411508	0.812539
H172	H	0.164551	0.008603	0.352745
H173	H	0.164745	-0.517463	0.353068
C174	C	0.079706	-0.617235	0.537978
C175	C	0.090762	-0.652716	0.521755
C176	C	0.099545	-0.697020	0.557199
H177	H	0.105618	-0.623062	0.545400
H178	H	0.052244	-0.617396	0.565603
H179	H	0.118221	-0.652556	0.494138
H180	H	0.064856	-0.646905	0.514336
H181	H	0.072084	-0.697180	0.584824
H182	H	0.125457	-0.702842	0.564618
H183	H	0.107044	-0.721098	0.546198
C184	C	0.175463	-0.492900	0.819081
C185	C	0.221796	-0.499863	0.786644
C186	C	0.254224	-0.528469	0.811375
H187	H	0.170767	-0.477768	0.838479
H188	H	0.170733	-0.522721	0.838459
H189	H	0.226525	-0.470048	0.767274
H190	H	0.226508	-0.515001	0.767245
H191	H	0.249493	-0.558290	0.830753
H192	H	0.249523	-0.513334	0.830772
H193	H	0.285664	-0.533201	0.789370
H194	H	0.196592	-0.455039	0.722237
H195	H	0.049100	-0.381393	0.549936
H196	H	0.166284	-0.485062	0.446169
C197	C	0.005727	-0.408180	0.523241
C198	C	-0.019006	-0.379630	0.551848
C199	C	-0.067909	-0.367607	0.563978
H200	H	-0.002522	-0.391282	0.495185
H201	H	-0.002422	-0.436293	0.540131
H202	H	-0.010860	-0.351521	0.534958
H203	H	-0.010772	-0.396518	0.579910
H204	H	-0.076058	-0.395720	0.580867
H205	H	-0.076153	-0.350710	0.535919
H206	H	-0.084696	-0.348238	0.583392
H207	H	0.196371	-0.454985	0.476195
C208	C	0.549297	-0.587912	0.566798
C209	C	0.508683	-0.600571	0.587667
C210	C	0.508641	-0.636156	0.631893
H211	H	0.576823	-0.614922	0.562671
H212	H	0.549283	-0.576450	0.586773
H213	H	0.508701	-0.612035	0.567697
H214	H	0.481151	-0.573572	0.591805
H215	H	0.508628	-0.624693	0.651868
H216	H	0.536169	-0.663162	0.627762
H217	H	0.481084	-0.644746	0.646060
H218	H	0.332093	-0.491119	0.540748
H219	H	0.422274	-0.521162	0.510626
C220	C	-0.076236	-0.461320	0.538143
C221	C	-0.105509	-0.414973	0.521066
C222	C	-0.149755	-0.406155	0.556566
H223	H	-0.090530	-0.483227	0.546828
H224	H	-0.072099	-0.464862	0.565123
H225	H	-0.109648	-0.411435	0.494095
H226	H	-0.091231	-0.393056	0.512384
H227	H	-0.145617	-0.409698	0.583545
H228	H	-0.164044	-0.428065	0.565248
H229	H	-0.169620	-0.374707	0.544985
H230	H	-0.224299	-0.529059	0.291228
C231	C	0.549151	-0.393352	0.470012
C232	C	0.549199	-0.410572	0.516364
C233	C	0.549159	-0.375170	0.525309
H234	H	0.576661	-0.384651	0.448127
H235	H	0.521575	-0.366357	0.466529
H236	H	0.576773	-0.437558	0.519842
H237	H	0.521692	-0.419268	0.538259
H238	H	0.521582	-0.348175	0.521826
H239	H	0.576669	-0.366472	0.503421
H240	H	0.549187	-0.386847	0.556760
H241	H	0.047765	-0.765423	0.337508
C242	C	0.428885	-0.366474	0.448546
C243	C	0.396467	-0.320452	0.445923
C244	C	0.421218	-0.288424	0.422265
H245	H	0.448302	-0.374725	0.465435
H246	H	0.448245	-0.367711	0.417382
H247	H	0.377116	-0.319216	0.477081
H248	H	0.377049	-0.312187	0.429031
H249	H	0.440578	-0.289660	0.391101
H250	H	0.440635	-0.296678	0.439155
H251	H	0.399226	-0.257193	0.420478
H252	H	0.159477	-0.208876	0.439413
C253	C	0.325257	-0.332002	0.483112
C254	C	0.296697	-0.314938	0.456273
C255	C	0.271799	-0.266423	0.449153
H256	H	0.305845	-0.327334	0.512953
H257	H	0.347158	-0.315332	0.466635
H258	H	0.274799	-0.331603	0.472750
H259	H	0.316098	-0.319594	0.426427
H260	H	0.293700	-0.249753	0.432676
H261	H	0.252389	-0.261760	0.478996
H262	H	0.252421	-0.254838	0.430939
H263	H	0.055841	-0.118733	0.556693
C264	C	0.132682	-0.112016	0.396100
C265	C	0.161259	-0.144415	0.371339
C266	C	0.173302	-0.119637	0.322440
H267	H	0.104593	-0.092628	0.387910
H268	H	0.149566	-0.092623	0.387916
H269	H	0.144375	-0.163800	0.379520
H270	H	0.189354	-0.163805	0.379515
H271	H	0.190186	-0.100244	0.314255
H272	H	0.145211	-0.100249	0.314254
H273	H	0.192696	-0.141615	0.305633
H274	H	0.085944	-0.208923	0.586721
H275	H	-0.091873	-0.522445	0.255974
C276	C	-0.065028	-0.479163	0.159060
C277	C	-0.114472	-0.458667	0.171068
C278	C	-0.126548	-0.409782	0.146216
H279	H	-0.053661	-0.465152	0.167222
H280	H	-0.051053	-0.473917	0.125890
H281	H	-0.128442	-0.463910	0.204230
H282	H	-0.125852	-0.472664	0.162905
H283	H	-0.112572	-0.404536	0.113046
H284	H	-0.115177	-0.395775	0.154380
H285	H	-0.160096	-0.395870	0.154356
C286	C	0.019602	-0.648597	0.159194
C287	C	-0.005374	-0.677084	0.171248
C288	C	0.023153	-0.709483	0.146487
H289	H	0.027816	-0.631810	0.126015
H290	H	0.047681	-0.668045	0.167408
H291	H	-0.033444	-0.657638	0.163031
H292	H	-0.013588	-0.693881	0.204423
H293	H	0.051232	-0.728932	0.154701
H294	H	0.031366	-0.692693	0.113309
H295	H	0.006213	-0.728819	0.154665
C296	C	-0.065089	-0.479157	0.325069
C297	C	-0.048097	-0.458737	0.275620
C298	C	-0.059981	-0.409855	0.263485
H299	H	-0.098623	-0.465086	0.336398
H300	H	-0.051135	-0.473919	0.339048
H301	H	-0.062053	-0.463971	0.261647
H302	H	-0.014564	-0.472794	0.264280
H303	H	-0.046026	-0.404618	0.277464
H304	H	-0.093514	-0.395789	0.274817
H305	H	-0.048449	-0.395995	0.229934
C306	C	0.019272	-0.648600	0.410000
C307	C	0.026211	-0.694942	0.416974
C308	C	0.054706	-0.727359	0.445640
H309	H	0.049104	-0.643922	0.394910
H310	H	0.004056	-0.643837	0.439812
H311	H	0.041428	-0.699703	0.387167
H312	H	-0.003612	-0.699635	0.432069
H313	H	0.039490	-0.722596	0.475452
H314	H	0.084535	-0.722676	0.430547
H315	H	0.059414	-0.758806	0.450379
H316	H	-0.091926	-0.522444	0.298262
H317	H	-0.018278	-0.669778	0.256062
H318	H	-0.018458	-0.669769	0.372051
C319	C	-0.106919	-0.771923	0.399299
C320	C	-0.130012	-0.759811	0.369037
C321	C	-0.162059	-0.784524	0.392593
H322	H	-0.090211	-0.805111	0.408212
H323	H	-0.129707	-0.763708	0.426891
H324	H	-0.107228	-0.768029	0.341454
H325	H	-0.146729	-0.726627	0.360123
H326	H	-0.184847	-0.776309	0.420186
H327	H	-0.145347	-0.817710	0.401505
H328	H	-0.177735	-0.776306	0.372066
C329	C	0.026501	-0.668552	0.300951
C330	C	0.060042	-0.680688	0.260292
C331	C	0.092068	-0.655939	0.236658
H332	H	0.009774	-0.635370	0.292019
H333	H	0.042209	-0.676722	0.321431
H334	H	0.044335	-0.672515	0.239816
H335	H	0.076780	-0.713866	0.269210
H336	H	0.107775	-0.664108	0.257139
H337	H	0.075336	-0.622757	0.227730
H338	H	0.114831	-0.664172	0.209071
C339	C	-0.141307	-0.668253	0.364616
C340	C	-0.147893	-0.639709	0.320491
C341	C	-0.196357	-0.614730	0.327351
H342	H	-0.158026	-0.690094	0.381002
H343	H	-0.152996	-0.648823	0.382810
H344	H	-0.136210	-0.659137	0.302304
H345	H	-0.131186	-0.617859	0.304097
H346	H	-0.208046	-0.595300	0.345545
H347	H	-0.213071	-0.636574	0.343739
H348	H	-0.200832	-0.595356	0.297414
H349	H	-0.134345	-0.632833	0.408685
H350	H	-0.134111	-0.559208	0.261309
