data_functionalizedCrystal
_audit_creation_method	'MofGen! by Chris Wilmer'
_symmetry_space_group_name_H-M	'P1'
_symmetry_Int_Tables_number	1
_symmetry_cell_setting	triclinic
loop_
_symmetry_equiv_pos_as_xyz
  x,y,z
_cell_length_a	14.044220
_cell_length_b	23.532407
_cell_length_c	12.503572
_cell_angle_alpha	93.496478
_cell_angle_beta	86.164750
_cell_angle_gamma	88.018778
loop_
_atom_site_label
_atom_site_type_symbol
_atom_site_fract_x
_atom_site_fract_y
_atom_site_fract_z
O1	O	1.261903	0.134222	-0.089227
O2	O	1.595236	0.467555	0.244107
O3	O	1.928570	0.800888	0.577440
O4	O	0.985982	0.129269	-0.089253
O5	O	1.319316	0.462602	0.244080
O6	O	1.652649	0.795935	0.577414
O7	O	1.132262	0.049265	-0.089219
O8	O	1.465595	0.382599	0.244114
O9	O	1.798929	0.715932	0.577447
O10	O	1.115623	0.214225	-0.089260
O11	O	1.448957	0.547559	0.244073
O12	O	1.782290	0.880892	0.577406
O13	O	1.121261	0.055293	0.089420
O14	O	1.454594	0.388626	0.422753
O15	O	1.787927	0.721960	0.756087
O16	O	0.974981	0.135296	0.089386
O17	O	1.308314	0.468630	0.422720
O18	O	1.641648	0.801963	0.756053
O19	O	1.250902	0.140249	0.089413
O20	O	1.584235	0.473583	0.422746
O21	O	1.917569	0.806916	0.756079
Cu22	Cu	1.111937	0.138323	0.105711
Cu23	Cu	1.445270	0.471657	0.439044
Cu24	Cu	1.778604	0.804990	0.772377
Cu25	Cu	1.124947	0.131195	-0.105551
Cu26	Cu	1.458280	0.464528	0.227782
Cu27	Cu	1.791614	0.797862	0.561116
O28	O	1.104622	0.220253	0.089379
O29	O	1.437956	0.553586	0.422712
O30	O	1.771289	0.886920	0.756046
C31	C	0.945188	0.130115	0.000063
C32	C	1.278521	0.463448	0.333397
C33	C	1.611854	0.796781	0.666730
C34	C	0.840023	0.123648	0.000054
C35	C	1.173357	0.456982	0.333388
C36	C	1.506690	0.790315	0.666721
C37	C	0.647472	0.111828	0.000078
C38	C	0.980805	0.445162	0.333412
C39	C	1.314139	0.778495	0.666745
C40	C	0.589407	0.157687	0.000072
C41	C	0.922741	0.491020	0.333405
C42	C	1.256074	0.824354	0.666738
C43	C	0.482265	0.151110	0.000085
C44	C	0.815598	0.484443	0.333418
C45	C	1.148932	0.817777	0.666752
C46	C	0.754624	0.118404	0.000065
C47	C	1.087958	0.451738	0.333398
C48	C	1.421291	0.785071	0.666732
C49	C	1.126337	0.031040	0.000103
C50	C	1.459671	0.364373	0.333436
C51	C	1.793004	0.697707	0.666770
C52	C	1.125063	-0.032246	0.000111
C53	C	1.458396	0.301088	0.333444
C54	C	1.791729	0.634421	0.666778
C55	C	1.203641	-0.427092	0.000060
C56	C	1.536975	-0.093758	0.333393
C57	C	1.870308	0.239575	0.666726
C58	C	1.202458	-0.486556	0.000051
C59	C	1.535792	-0.153223	0.333385
C60	C	1.869125	0.180110	0.666718
O61	O	1.275300	-0.519354	0.000019
O62	O	1.608634	-0.186021	0.333352
O63	O	1.941967	0.147313	0.666685
N64	N	1.115494	-0.513896	0.000044
N65	N	1.448828	-0.180563	0.333377
N66	N	1.782161	0.152770	0.666711
C67	C	1.029708	-0.481769	0.000034
C68	C	1.363042	-0.148435	0.333367
C69	C	1.696375	0.184898	0.666700
O70	O	0.955630	-0.510484	0.000026
O71	O	1.288964	-0.177151	0.333359
O72	O	1.622297	0.156183	0.666692
C73	C	1.030893	-0.422305	0.000034
C74	C	1.364226	-0.088972	0.333368
C75	C	1.697560	0.244361	0.666701
C76	C	1.117862	-0.394968	0.000053
C77	C	1.451195	-0.061635	0.333386
C78	C	1.784529	0.271698	0.666719
C79	C	1.290603	-0.399754	0.000077
C80	C	1.623937	-0.066421	0.333410
C81	C	1.957270	0.266912	0.666744
C82	C	1.291786	-0.340294	0.000087
C83	C	1.625119	-0.006960	0.333421
C84	C	1.958452	0.326373	0.666754
C85	C	1.206006	-0.308170	0.000080
C86	C	1.539340	0.025163	0.333414
C87	C	1.872673	0.358496	0.666747
C88	C	1.119044	-0.335508	0.000063
C89	C	1.452378	-0.002174	0.333396
C90	C	1.785711	0.331159	0.666730
C91	C	0.945109	-0.390179	0.000016
C92	C	1.278442	-0.056846	0.333350
C93	C	1.611775	0.276487	0.666683
C94	C	0.946301	-0.330712	0.000016
C95	C	1.279634	0.002621	0.333350
C96	C	1.612967	0.335954	0.666683
C97	C	1.033270	-0.303375	0.000035
C98	C	1.366603	0.029958	0.333368
C99	C	1.699936	0.363292	0.666701
C100	C	1.034447	-0.243924	0.000066
C101	C	1.367781	0.089410	0.333400
C102	C	1.701114	0.422743	0.666733
N103	N	1.121411	-0.216584	0.000074
N104	N	1.454745	0.116750	0.333407
N105	N	1.788078	0.450083	0.666741
C106	C	1.207191	-0.248707	0.000081
C107	C	1.540524	0.084626	0.333414
C108	C	1.873857	0.417960	0.666747
C109	C	1.027228	-0.606646	0.000031
C110	C	1.360561	-0.273313	0.333364
C111	C	1.693894	0.060021	0.666697
C112	C	1.026042	-0.666108	0.000038
C113	C	1.359375	-0.332774	0.333371
C114	C	1.692708	0.000559	0.666704
C115	C	1.198792	-0.670891	0.000053
C116	C	1.532125	-0.337558	0.333387
C117	C	1.865459	-0.004225	0.666720
C118	C	1.199976	-0.611428	0.000054
C119	C	1.533310	-0.278095	0.333387
C120	C	1.866643	0.055239	0.666721
C121	C	1.114192	-0.579306	0.000038
C122	C	1.447525	-0.245973	0.333371
C123	C	1.780858	0.087361	0.666705
C124	C	1.209668	-0.123835	0.000103
C125	C	1.543001	0.209498	0.333437
C126	C	1.876334	0.542831	0.666770
C127	C	1.210842	-0.064369	0.000118
C128	C	1.544176	0.268964	0.333451
C129	C	1.877509	0.602298	0.666785
C130	C	1.038093	-0.059591	0.000097
C131	C	1.371426	0.273742	0.333430
C132	C	1.704759	0.607076	0.666763
C133	C	1.036917	-0.119052	0.000088
C134	C	1.370251	0.214282	0.333421
C135	C	1.703584	0.547615	0.666754
C136	C	1.122713	-0.151173	0.000087
C137	C	1.456046	0.182161	0.333421
C138	C	1.789379	0.515494	0.666754
O139	O	0.961644	-0.211090	0.000095
O140	O	1.294977	0.122244	0.333428
O141	O	1.628310	0.455577	0.666761
O142	O	1.281258	-0.219985	0.000075
O143	O	1.614591	0.113348	0.333408
O144	O	1.947924	0.446682	0.666742
C145	C	1.291696	0.139403	0.000094
C146	C	1.625030	0.472737	0.333427
C147	C	1.958363	0.806070	0.666760
C148	C	1.396861	0.145869	0.000096
C149	C	1.730195	0.479203	0.333429
C150	C	2.063528	0.812536	0.666763
C151	C	1.110547	0.238478	0.000054
C152	C	1.443880	0.571811	0.333388
C153	C	1.777214	0.905145	0.666721
C154	C	1.111822	0.301763	0.000039
C155	C	1.445155	0.635097	0.333372
C156	C	1.778489	0.968430	0.666706
N157	N	1.102793	0.143337	0.254301
N158	N	1.436126	0.476670	0.587634
N159	N	1.769460	0.810004	0.920967
N160	N	1.134098	0.126177	-0.254141
N161	N	1.467432	0.459510	0.079192
N162	N	1.800765	0.792844	0.412525
C163	C	1.089342	0.150717	0.473413
C164	C	1.422676	0.484050	0.806746
C165	C	1.756009	0.817384	1.140080
C166	C	1.147546	0.118799	0.526753
C167	C	1.480880	0.452132	0.860087
C168	C	1.814213	0.785465	1.193420
C169	C	1.140062	0.122905	0.648675
C170	C	1.473395	0.456238	0.982008
C171	C	1.806729	0.789572	1.315342
C172	C	1.096825	0.146611	0.351480
C173	C	1.430159	0.479945	0.684814
C174	C	1.763492	0.813278	1.018147
H175	H	1.281666	-0.042114	0.000136
H176	H	1.614999	0.291219	0.333469
H177	H	1.948332	0.624553	0.666803
H178	H	1.360460	-0.425903	0.000079
H179	H	1.693793	-0.092570	0.333412
H180	H	2.027126	0.240763	0.666745
H181	H	1.202998	0.088389	0.480853
H182	H	1.536331	0.421722	0.814187
H183	H	1.869664	0.755055	1.147520
N184	N	1.293780	-0.581948	0.000070
N185	N	1.627113	-0.248615	0.333404
N186	N	1.960447	0.084718	0.666737
H187	H	1.302208	-0.559613	-0.066150
H188	H	1.635542	-0.226280	0.267184
H189	H	1.968875	0.107053	0.600517
H190	H	1.293984	-0.555184	0.066338
H191	H	1.627318	-0.221851	0.399671
H192	H	1.960651	0.111482	0.733004
H193	H	1.033896	0.181126	0.519308
H194	H	1.367229	0.514459	0.852641
H195	H	1.700562	0.847792	1.185974
N196	N	0.606732	0.053285	0.000101
N197	N	0.940065	0.386618	0.333434
N198	N	1.273399	0.719951	0.666768
H199	H	0.570312	0.046286	-0.066116
H200	H	0.903645	0.379620	0.267217
H201	H	1.236978	0.712953	0.600551
H202	H	0.660454	0.023627	0.000143
H203	H	0.993787	0.356961	0.333476
H204	H	1.327121	0.690294	0.666810
N205	N	0.630128	0.216239	0.000041
N206	N	0.963461	0.549573	0.333374
N207	N	1.296794	0.882906	0.666707
H208	H	0.666550	0.223250	0.066253
H209	H	0.999883	0.556583	0.399586
H210	H	1.333216	0.889916	0.732919
H211	H	0.674635	0.218732	-0.066234
H212	H	1.007968	0.552065	0.267099
H213	H	1.341301	0.885399	0.600432
N214	N	1.302201	-0.158475	0.000103
N215	N	1.635535	0.174858	0.333437
N216	N	1.968868	0.508192	0.666770
H217	H	1.357464	-0.132126	0.000118
H218	H	1.690797	0.201207	0.333451
H219	H	2.024130	0.534540	0.666785
H220	H	1.301397	-0.181022	0.066325
H221	H	1.634731	0.152311	0.399659
H222	H	1.968064	0.485644	0.732992
N223	N	1.385588	-0.310813	0.000103
N224	N	1.718922	0.022520	0.333437
N225	N	2.052255	0.355854	0.666770
H226	H	1.439742	-0.340193	0.000104
H227	H	1.773075	-0.006860	0.333437
H228	H	2.106409	0.326473	0.666770
H229	H	1.393925	-0.288475	-0.066120
H230	H	1.727258	0.044858	0.267214
H231	H	2.060592	0.378191	0.600547
H232	H	0.957366	-0.580495	0.000027
H233	H	1.290699	-0.247162	0.333360
H234	H	1.624033	0.086172	0.666694
N235	N	1.291315	-0.705544	0.000061
N236	N	1.624648	-0.372211	0.333394
N237	N	1.957982	-0.038878	0.666728
H238	H	1.277361	-0.747361	0.000054
H239	H	1.610694	-0.414028	0.333388
H240	H	1.944028	-0.080695	0.666721
H241	H	1.333318	-0.698427	-0.066159
H242	H	1.666652	-0.365094	0.267174
H243	H	1.999985	-0.031760	0.600507
N244	N	0.932233	-0.695583	0.000043
N245	N	1.265567	-0.362250	0.333376
N246	N	1.598900	-0.028916	0.666709
H247	H	0.898755	-0.686413	-0.066180
H248	H	1.232089	-0.353080	0.267154
H249	H	1.565422	-0.019746	0.600487
H250	H	0.944560	-0.738119	0.000082
H251	H	1.277894	-0.404786	0.333415
H252	H	1.611227	-0.071452	0.666749
N253	N	0.851305	-0.419654	0.000010
N254	N	1.184638	-0.086321	0.333344
N255	N	1.517971	0.247012	0.666677
H256	H	0.797153	-0.390273	0.000004
H257	H	1.130486	-0.056940	0.333337
H258	H	1.463820	0.276394	0.666670
H259	H	0.851119	-0.446451	-0.066214
H260	H	1.184453	-0.113118	0.267119
H261	H	1.517786	0.220215	0.600453
H262	H	0.876442	-0.304561	0.000002
H263	H	1.209776	0.028772	0.333335
H264	H	1.543109	0.362105	0.666668
N265	N	0.943118	-0.148541	0.000083
N266	N	1.276451	0.184793	0.333416
N267	N	1.609784	0.518126	0.666749
H268	H	0.888957	-0.119165	0.000083
H269	H	1.222290	0.214168	0.333417
H270	H	1.555624	0.547502	0.666750
H271	H	0.942943	-0.175332	-0.066150
H272	H	1.276277	0.158001	0.267183
H273	H	1.609610	0.491335	0.600516
N274	N	0.945575	-0.024937	0.000118
N275	N	1.278908	0.308396	0.333452
N276	N	1.612242	0.641730	0.666785
H277	H	0.959529	0.016880	0.000130
H278	H	1.292862	0.350213	0.333464
H279	H	1.626195	0.683547	0.666797
H280	H	0.911717	-0.036506	-0.066106
H281	H	1.245050	0.296827	0.267227
H282	H	1.578383	0.630160	0.600560
