data_functionalizedCrystal
_audit_creation_method	'MofGen! by Chris Wilmer'
_symmetry_space_group_name_H-M	'P1'
_symmetry_Int_Tables_number	1
_symmetry_cell_setting	triclinic
loop_
_symmetry_equiv_pos_as_xyz
  x,y,z
_cell_length_a	14.395555
_cell_length_b	21.606444
_cell_length_c	21.606444
_cell_angle_alpha	59.991153
_cell_angle_beta	90.001619
_cell_angle_gamma	60.004503
loop_
_atom_site_label
_atom_site_type_symbol
_atom_site_fract_x
_atom_site_fract_y
_atom_site_fract_z
Zr1	Zr	0.894873	0.677540	-0.081350
O2	O	0.746543	0.806670	-0.180196
O3	O	0.940344	0.548410	-0.051034
O4	O	0.940335	0.677546	-0.180178
O5	O	0.746560	0.677530	0.050802
O6	O	1.093202	0.677550	-0.180180
O7	O	0.746552	0.677534	-0.051052
O8	O	1.093218	0.446550	0.050835
O9	O	0.746544	0.908530	-0.180213
O10	O	1.073820	0.601527	-0.038124
O11	O	0.959743	0.601520	0.037891
O12	O	0.959733	0.753561	-0.114160
O13	O	0.845655	0.753554	-0.038146
Zr14	Zr	1.138691	0.677541	0.081092
Zr15	Zr	1.138679	0.677548	-0.081354
Zr16	Zr	0.894886	0.677533	0.081095
Zr17	Zr	0.894875	0.839995	-0.081377
Zr18	Zr	1.138690	0.515085	0.081119
O19	O	1.093221	0.806671	0.050775
O20	O	1.093203	0.806681	-0.180202
O21	O	0.746561	0.806660	0.050780
O22	O	1.287021	0.548411	0.179938
O23	O	1.287004	0.548420	-0.051039
O24	O	0.940361	0.548400	0.179943
O25	O	1.287005	0.677551	-0.051061
O26	O	1.093230	0.677535	0.179919
O27	O	0.940362	0.677530	0.179921
O28	O	1.287013	0.677546	0.050793
O29	O	0.940337	0.908536	-0.180216
O30	O	1.093228	0.446545	0.179958
O31	O	1.287020	0.446550	0.179955
O32	O	1.287011	0.446556	0.050832
O33	O	0.746554	0.908525	-0.051091
O34	O	0.940347	0.908531	-0.051094
O35	O	1.073832	0.601520	0.113901
O36	O	1.187909	0.601527	0.037887
O37	O	1.073821	0.753561	-0.038149
O38	O	0.959744	0.753554	0.037865
C39	C	1.016781	0.474334	-0.000095
C40	C	1.016780	0.405367	-0.000084
C41	C	0.932557	0.429102	-0.056211
C42	C	0.932560	0.364313	-0.056226
C43	C	1.016782	0.275789	-0.000112
C44	C	1.101014	0.252055	0.056018
C45	C	1.101015	0.316844	0.056030
C46	C	1.101013	-0.009232	0.055971
C47	C	1.101004	-0.074021	0.055956
C48	C	0.932558	0.038237	-0.056286
C49	C	0.932559	0.103026	-0.056274
C50	C	1.016794	0.079286	-0.000147
C51	C	1.016791	0.149539	-0.000131
C52	C	1.016781	0.205537	-0.000123
C53	C	0.711819	0.677531	-0.000125
C54	C	0.608317	0.677528	-0.000123
C55	C	0.609934	0.594632	0.041334
C56	C	0.516920	0.636070	0.071367
C57	C	0.516902	0.636094	-0.030134
C58	C	0.516667	0.718966	0.029952
C59	C	0.516662	0.718978	-0.071589
C60	C	0.423632	0.760476	-0.041574
C61	C	1.321746	0.677550	-0.000134
C62	C	1.425248	0.677553	-0.000136
C63	C	1.016767	0.677549	-0.203324
C64	C	1.016761	0.677552	-0.272286
C65	C	1.016784	0.880747	-0.000163
C66	C	1.016784	0.949714	-0.000175
C67	C	0.957208	0.756912	-0.344375
C68	C	0.957218	0.756909	-0.409170
C69	C	1.016775	0.677546	-0.401874
C70	C	1.076336	0.598181	-0.329778
C71	C	1.076332	0.598184	-0.264985
C72	C	1.076354	0.598165	-0.591081
C73	C	1.076350	0.598168	-0.655882
C74	C	0.957240	0.756891	-0.735266
C75	C	0.957236	0.756894	-0.670473
C76	C	1.016801	0.677529	-0.598383
C77	C	1.016792	0.677532	-0.528125
C78	C	1.016779	0.677542	-0.472130
C79	C	1.016798	0.677532	0.203065
C80	C	1.016803	0.677529	0.272028
C81	C	1.321744	0.474343	-0.000100
C82	C	1.425245	0.405379	-0.000090
C83	C	1.016796	0.474325	0.203099
C84	C	1.016801	0.405356	0.272073
C85	C	1.321760	0.474334	0.203094
C86	C	1.425266	0.405368	0.272067
C87	C	0.711805	0.880747	-0.203353
C88	C	0.608298	0.949713	-0.272325
C89	C	0.711820	0.880738	-0.000159
C90	C	0.608319	0.949701	-0.000168
C91	C	1.016768	0.880756	-0.203358
C92	C	1.016764	0.949725	-0.272332
C93	C	1.414297	0.372993	-0.039769
C94	C	1.511539	0.308204	-0.039775
C95	C	1.619726	0.275797	-0.000097
C96	C	1.630672	0.308190	0.039583
C97	C	1.533432	0.372982	0.039584
C98	C	1.076356	0.372967	0.344148
C99	C	1.076356	0.308172	0.408962
C100	C	1.016807	0.275762	0.401701
C101	C	0.957244	0.308157	0.329618
C102	C	0.957238	0.372956	0.264806
C103	C	1.533431	0.372984	0.264778
C104	C	1.630696	0.308192	0.329579
C105	C	1.619793	0.275780	0.401667
C106	C	1.511616	0.308170	0.408954
C107	C	1.414354	0.372966	0.344154
C108	C	0.500133	0.982105	-0.265037
C109	C	0.402868	1.046917	-0.329837
C110	C	0.413771	1.079332	-0.401926
C111	C	0.521948	1.046938	-0.409213
C112	C	0.619210	0.982131	-0.344413
C113	C	0.619267	0.982094	0.039504
C114	C	0.522026	1.046901	0.039492
C115	C	0.413838	1.079310	-0.000189
C116	C	0.402892	1.046915	-0.039866
C117	C	0.500132	0.982113	-0.039858
C118	C	1.076325	0.982114	-0.265046
C119	C	1.076343	1.046910	-0.329848
C120	C	1.016792	1.079320	-0.401935
C121	C	0.957229	1.046924	-0.409220
C122	C	0.957219	0.982125	-0.344418
H123	H	0.863974	0.057561	-0.101990
H124	H	1.698896	0.223038	-0.000103
H125	H	1.124863	0.281803	0.467648
H126	H	1.124844	1.073279	-0.323902
F127	F	1.016811	1.148287	-0.470897
F128	F	1.190657	-0.034506	0.115711
H129	H	1.124849	0.399348	0.350075
F130	F	0.533699	1.081365	0.081726
H131	H	1.326285	0.399324	0.350100
F132	F	0.310245	1.148305	-0.470886
F133	F	0.893812	0.947668	-0.352185
F134	F	1.139711	0.947633	-0.188331
H135	H	1.169594	0.179973	0.101705
H136	H	0.908745	1.073322	-0.467922
F137	F	0.488504	0.947616	-0.188321
F138	F	0.842910	0.523314	-0.115934
H139	H	1.169598	0.297512	0.101735
F140	F	1.139724	0.513716	-0.322015
H141	H	0.517627	0.753985	-0.132009
H142	H	1.016821	0.222999	0.454482
H143	H	0.863976	0.383646	-0.101930
H144	H	1.502604	0.281838	-0.072087
H145	H	1.169593	-0.146104	0.101654
H146	H	0.707281	0.955758	-0.350357
H147	H	1.718772	0.281795	0.071887
H148	H	0.689691	0.524536	0.076440
H149	H	0.314796	1.073281	-0.323889
H150	H	0.908703	0.821538	-0.350325
H151	H	1.542362	0.399343	0.071900
F152	F	1.745814	0.273729	0.321807
H153	H	0.863973	0.175104	-0.101966
H154	H	0.491202	0.955741	-0.072161
H155	H	0.908761	0.281760	0.323717
H156	H	0.515998	0.601033	0.131800
H157	H	0.908745	0.399318	0.206122
F158	F	0.310355	1.148278	-0.000189
F159	F	1.545061	0.407471	0.188062
F160	F	1.723319	0.206818	0.470627
F161	F	0.517746	0.764725	0.063211
H162	H	1.502756	0.281771	0.467657
H163	H	0.530812	1.073338	-0.467915
F164	F	0.319547	0.852170	-0.087395
H165	H	0.707350	0.955712	0.071821
H166	H	0.515989	0.601045	-0.055511
H167	H	0.908726	0.821532	-0.467866
F168	F	0.287741	1.081414	-0.082092
H169	H	0.908734	0.821520	-0.676420
H170	H	1.124852	0.533537	-0.649933
F171	F	0.893848	0.841359	-0.811996
H172	H	1.124856	0.533541	-0.532390
H173	H	1.326214	0.399378	-0.072089
F174	F	1.139727	0.513719	-0.188260
