data_functionalizedCrystal
_audit_creation_method	'MofGen! by Chris Wilmer'
_symmetry_space_group_name_H-M	'P1'
_symmetry_Int_Tables_number	1
_symmetry_cell_setting	triclinic
loop_
_symmetry_equiv_pos_as_xyz
  x,y,z
_cell_length_a	18.215407
_cell_length_b	19.077068
_cell_length_c	19.077579
_cell_angle_alpha	90.063424
_cell_angle_beta	87.686539
_cell_angle_gamma	92.327501
loop_
_atom_site_label
_atom_site_type_symbol
_atom_site_fract_x
_atom_site_fract_y
_atom_site_fract_z
Zn1	Zn	1.131110	-0.263793	-0.408544
Zn2	Zn	1.121148	-0.386024	-0.295750
Zn3	Zn	1.002916	-0.268535	-0.291050
Zn4	Zn	1.003264	-0.381268	-0.413217
O5	O	1.064609	-0.324905	-0.352141
O6	O	1.232773	-0.280013	-0.393593
O7	O	1.101149	-0.374414	-0.196795
O8	O	1.023945	-0.169572	-0.302714
O9	O	1.225454	-0.369816	-0.310724
O10	O	1.118128	-0.166088	-0.389036
O11	O	1.014285	-0.288095	-0.193342
O12	O	0.899978	-0.283483	-0.307245
O13	O	1.024537	-0.361709	-0.510930
O14	O	0.900233	-0.366307	-0.397000
O15	O	1.118465	-0.275401	-0.507496
O16	O	1.101487	-0.483727	-0.315255
O17	O	1.014878	-0.480232	-0.401558
C18	C	0.873403	-0.324894	-0.352120
C19	C	0.791604	-0.324905	-0.352128
C20	C	0.603557	-0.368105	-0.398811
C21	C	0.526698	-0.368107	-0.398820
C22	C	0.526414	-0.281717	-0.305486
C23	C	0.603271	-0.281712	-0.305482
C24	C	0.641841	-0.324910	-0.352143
C25	C	0.488125	-0.324917	-0.352156
C26	C	0.404791	-0.324918	-0.352166
C27	C	0.725179	-0.324907	-0.352135
C28	C	1.057160	-0.507476	-0.359439
C29	C	1.054041	-0.585580	-0.362584
C30	C	1.097706	-0.624068	-0.319166
C31	C	1.094778	-0.697454	-0.322129
C32	C	1.048179	-0.732351	-0.368507
C33	C	1.004512	-0.693858	-0.411930
C34	C	1.007445	-0.620473	-0.408970
C35	C	1.034571	-0.951637	-0.382177
C36	C	1.031639	-1.025027	-0.385132
C37	C	1.121907	-1.028618	-0.295332
C38	C	1.124832	-0.955232	-0.292373
C39	C	1.081168	-0.916745	-0.335798
N40	N	1.045182	-0.807364	-0.371535
N41	N	1.084169	-0.841733	-0.332773
C42	C	1.256563	-0.324917	-0.352162
C43	C	1.338362	-0.324922	-0.352171
C44	C	1.072651	-0.317496	-0.535422
C45	C	1.076079	-0.314338	-0.613526
C46	C	1.072109	-0.141620	-0.344829
C47	C	1.075305	-0.063515	-0.341714
C48	C	1.100657	-0.291744	-1.052976
C49	C	1.097432	-0.294714	-0.979589
C50	C	1.046913	-0.341131	-0.944687
C51	C	0.999620	-0.384586	-0.983175
C52	C	1.002849	-0.381619	-1.056560
C53	C	1.032015	-0.354826	-0.725400
C54	C	1.028788	-0.357788	-0.652009
C55	C	1.126601	-0.267917	-0.648428
C56	C	1.129822	-0.264951	-0.721815
C57	C	1.082533	-0.308408	-0.760297
N58	N	1.043614	-0.344166	-0.869674
N59	N	1.085836	-0.305376	-0.835309
C60	C	1.056643	-0.332235	-0.169570
C61	C	1.053366	-0.335194	-0.091459
H62	H	1.135649	-0.595659	-0.281398
C63	C	1.178620	-0.220121	-0.606093
N64	N	1.217805	-0.184121	-0.574205
H65	H	0.634958	-0.403277	-0.436807
H66	H	0.634443	-0.246533	-0.267479
H67	H	1.130334	-0.728788	-0.286773
H68	H	0.495531	-0.403279	-0.436822
C69	C	1.176075	-0.916851	-0.241336
N70	N	1.214663	-0.887943	-0.202886
H71	H	1.157457	-1.059962	-0.259978
C72	C	0.979988	-0.402624	-0.767720
N73	N	0.940796	-0.438626	-0.799598
C74	C	0.483981	-0.234206	-0.254158
N75	N	0.452020	-0.198421	-0.215495
H76	H	1.135943	-0.259334	-0.948259
C77	C	0.980380	-1.063412	-0.436158
N78	N	0.941774	-1.092324	-0.474589
H79	H	0.999016	-0.920306	-0.417534
C80	C	0.950825	-0.429416	-1.098891
N81	N	0.911639	-0.465420	-1.130774
C82	C	0.953250	-0.732248	-0.462944
N83	N	0.914635	-0.761162	-0.501365
H84	H	0.971889	-0.589136	-0.444326
C85	C	0.944047	-0.435644	-0.944779
N86	N	0.902186	-0.474100	-0.915860
C87	C	1.156232	-0.240681	-1.091362
N88	N	1.198096	-0.202221	-1.120272
C89	C	1.185398	-0.213889	-0.760203
N90	N	1.227258	-0.175428	-0.789116
H91	H	0.987632	-0.395574	-0.623593
