data_functionalizedCrystal
_audit_creation_method	'MofGen! by Chris Wilmer'
_symmetry_space_group_name_H-M	'P1'
_symmetry_Int_Tables_number	1
_symmetry_cell_setting	triclinic
loop_
_symmetry_equiv_pos_as_xyz
  x,y,z
_cell_length_a	16.109318
_cell_length_b	10.654550
_cell_length_c	14.586319
_cell_angle_alpha	89.996358
_cell_angle_beta	90.000075
_cell_angle_gamma	83.976747
loop_
_atom_site_label
_atom_site_type_symbol
_atom_site_fract_x
_atom_site_fract_y
_atom_site_fract_z
O1	O	1.104082	0.161523	-0.076164
O2	O	0.862141	0.181588	-0.076182
O3	O	0.988674	-0.011259	-0.076167
O4	O	0.977549	0.354370	-0.076179
O5	O	0.988666	-0.011262	0.076314
O6	O	0.862133	0.181585	0.076299
O7	O	1.104073	0.161520	0.076317
Cu8	Cu	0.983102	0.171552	0.090230
Cu9	Cu	0.983113	0.171556	-0.090096
O10	O	0.977540	0.354367	0.076302
C11	C	0.831158	0.180770	0.000056
C12	C	0.738848	0.178322	0.000049
C13	C	0.439733	0.170416	-0.083052
C14	C	0.526467	0.172708	-0.083058
C15	C	0.526476	0.172688	0.083185
C16	C	0.439744	0.170387	0.083190
C17	C	0.396374	0.169258	0.000069
C18	C	0.569841	0.173851	0.000058
C19	C	0.663883	0.176336	0.000053
C20	C	0.302326	0.166770	0.000074
C21	C	0.987853	-0.058047	0.000073
C22	C	0.985409	-0.197457	0.000071
C23	C	1.059910	-0.277947	0.000077
C24	C	1.057608	-0.408937	0.000065
C25	C	0.906299	-0.378935	0.000047
C26	C	0.908601	-0.247948	0.000052
C27	C	1.145355	-0.605963	-0.053354
C28	C	1.219860	-0.686457	-0.053333
C29	C	1.287397	-0.657196	0.000108
C30	C	1.280433	-0.547443	0.053549
C31	C	1.205927	-0.466955	0.053537
C32	C	1.138393	-0.496215	0.000075
C33	C	0.820860	-0.050920	0.053479
C34	C	0.746353	0.029570	0.053472
C35	C	0.678809	0.000313	0.000038
C36	C	0.685764	-0.109442	-0.053390
C37	C	0.760271	-0.189933	-0.053384
C38	C	0.827816	-0.160667	0.000049
C39	C	1.135057	0.162338	0.000077
C40	C	1.227366	0.164786	0.000078
C41	C	0.978362	0.401155	0.000060
C42	C	0.980806	0.540566	0.000055
N43	N	0.983101	0.171549	0.217062
N44	N	0.983120	0.171549	-0.216927
C45	C	1.039148	0.086185	0.452076
C46	C	1.039151	0.086182	0.548057
C47	C	0.927067	0.256917	0.548053
C48	C	0.927061	0.256913	0.452073
C49	C	0.983107	0.171549	0.404087
C50	C	0.983115	0.171550	0.596048
C51	C	0.983117	0.171547	0.700115
C52	C	0.983104	0.171549	0.300013
H53	H	0.561799	0.173610	0.150860
C54	C	1.100790	-0.007723	0.399290
C55	C	1.162431	-0.101626	0.452082
C56	C	1.224073	-0.195540	0.399301
C57	C	1.224074	-0.195551	0.293727
C58	C	1.162431	-0.101644	0.240929
C59	C	1.100789	-0.007730	0.293711
H60	H	1.162433	-0.101621	0.530240
H61	H	1.269706	-0.265056	0.438386
H62	H	1.269705	-0.265072	0.254655
H63	H	1.162430	-0.101649	0.162772
H64	H	1.055157	0.061785	0.254626
H65	H	0.881437	0.326421	0.587132
C66	C	0.767928	-0.310664	-0.112159
C67	C	0.693633	-0.342856	-0.170941
C68	C	0.701290	-0.463585	-0.229715
C69	C	0.783242	-0.552121	-0.229707
C70	C	0.857543	-0.519930	-0.170924
C71	C	0.849886	-0.399202	-0.112150
H72	H	0.632962	-0.277314	-0.170948
H73	H	0.646288	-0.487413	-0.273230
H74	H	0.788911	-0.641491	-0.273215
H75	H	0.918214	-0.585472	-0.170916
H76	H	0.904888	-0.375373	-0.068634
C77	C	0.738692	0.150289	0.112261
C78	C	0.812986	0.182478	0.171045
C79	C	0.805321	0.303189	0.229837
C80	C	0.723363	0.391712	0.229846
C81	C	0.649064	0.359525	0.171060
C82	C	0.656728	0.238814	0.112267
H83	H	0.873661	0.116947	0.171040
H84	H	0.860324	0.327016	0.273355
H85	H	0.717690	0.481069	0.273368
H86	H	0.588388	0.425056	0.171065
H87	H	0.601726	0.214988	0.068750
H88	H	1.084784	0.016670	0.587126
H89	H	0.404423	0.169495	-0.150735
C90	C	0.392042	0.169110	0.174629
C91	C	0.439743	0.170366	0.266059
C92	C	0.392042	0.169081	0.357493
C93	C	0.296640	0.166541	0.357497
C94	C	0.248934	0.165286	0.266063
C95	C	0.296635	0.166570	0.174629
H96	H	0.510370	0.172246	0.266060
H97	H	0.427357	0.170011	0.425179
H98	H	0.261329	0.165591	0.425182
H99	H	0.178307	0.163406	0.266062
H100	H	0.261320	0.165641	0.106943
H101	H	0.561767	0.173650	-0.150743
H102	H	1.122451	-0.236842	0.000091
H103	H	1.200256	-0.377599	0.097051
H104	H	1.335428	-0.523637	0.097072
H105	H	1.348061	-0.722744	0.000124
H106	H	1.225525	-0.775816	-0.096852
H107	H	1.090369	-0.629789	-0.096883
H108	H	0.843765	-0.420060	0.000033
C109	C	0.611469	-0.141637	-0.112177
C110	C	0.527693	-0.160984	-0.066229
C111	C	0.453395	-0.193178	-0.125012
C112	C	0.462873	-0.206026	-0.229744
C113	C	0.546653	-0.186679	-0.275697
C114	C	0.620951	-0.154485	-0.216913
H115	H	0.520674	-0.151474	0.011305
H116	H	0.391376	-0.207500	-0.090994
H117	H	0.407873	-0.229858	-0.273259
H118	H	0.553672	-0.196190	-0.353230
H119	H	0.682970	-0.140163	-0.250932
H120	H	0.618137	0.065852	0.000049
H121	H	0.881421	0.326427	0.412998
H122	H	0.875866	-0.027069	0.096973
