data_functionalizedCrystal
_audit_creation_method	'MofGen! by Chris Wilmer'
_symmetry_space_group_name_H-M	'P1'
_symmetry_Int_Tables_number	1
_symmetry_cell_setting	triclinic
loop_
_symmetry_equiv_pos_as_xyz
  x,y,z
_cell_length_a	10.654550
_cell_length_b	23.532407
_cell_length_c	9.130313
_cell_angle_alpha	89.990840
_cell_angle_beta	89.999724
_cell_angle_gamma	83.666804
loop_
_atom_site_label
_atom_site_type_symbol
_atom_site_fract_x
_atom_site_fract_y
_atom_site_fract_z
O1	O	1.665305	0.079985	-0.121707
O2	O	1.299585	0.087605	-0.121735
O3	O	1.493474	0.000935	-0.121693
O4	O	1.471417	0.166655	-0.121749
O5	O	1.493460	0.000933	0.121905
O6	O	1.299572	0.087603	0.121863
O7	O	1.665292	0.079982	0.121892
Cu8	Cu	1.482431	0.083792	0.144120
Cu9	Cu	1.482447	0.083795	-0.143964
O10	O	1.471404	0.166652	0.121850
C11	C	1.252799	0.087044	0.000061
C12	C	1.113408	0.085370	0.000051
C13	C	1.492905	-0.020286	0.000110
C14	C	1.491217	-0.083514	0.000121
C15	C	1.032306	0.136400	0.000038
C16	C	0.901335	0.134824	0.000064
C17	C	0.932582	0.031183	0.000110
C18	C	1.063550	0.032760	0.000094
C19	C	1.595364	-0.481938	0.000049
C20	C	1.593795	-0.541349	0.000037
O21	O	1.690341	-0.577464	-0.000009
N22	N	1.478529	-0.564726	0.000030
C23	C	1.364824	-0.528689	0.000018
O24	O	1.266636	-0.554029	0.000009
C25	C	1.366394	-0.469280	0.000019
C26	C	1.481668	-0.445906	0.000041
C27	C	1.710629	-0.458564	0.000070
C28	C	1.712197	-0.399158	0.000084
C29	C	1.598500	-0.363126	0.000077
C30	C	1.483236	-0.386500	0.000055
C31	C	1.252690	-0.433244	-0.000003
C32	C	1.254270	-0.373831	-0.000004
C33	C	1.369544	-0.350458	0.000019
C34	C	1.371107	-0.291061	0.000062
N35	N	1.486374	-0.267684	0.000070
C36	C	1.600070	-0.303716	0.000077
C37	C	1.361535	-0.653453	0.000014
C38	C	1.359964	-0.712861	0.000023
C39	C	1.588936	-0.725517	0.000040
C40	C	1.590506	-0.666108	0.000041
C41	C	1.476802	-0.630076	0.000022
C42	C	1.603355	-0.178958	0.000108
C43	C	1.604913	-0.119546	0.000128
C44	C	1.375942	-0.106896	0.000104
C45	C	1.374383	-0.166303	0.000091
C46	C	1.488100	-0.202333	0.000088
O47	O	1.274613	-0.254911	0.000103
O48	O	1.698241	-0.278369	0.000067
C49	C	1.712079	0.080543	0.000093
C50	C	1.851469	0.082217	0.000093
C51	C	1.471972	0.187873	0.000044
C52	C	1.473661	0.251101	0.000023
N53	N	1.482429	0.083790	0.346743
N54	N	1.482458	0.083793	-0.346586
C55	C	1.568311	0.045429	0.423413
C56	C	1.568323	0.045429	0.576750
C57	C	1.396567	0.122156	0.576733
C58	C	1.396550	0.122153	0.423399
H59	H	1.072896	0.179239	0.000014
C60	C	1.081293	-0.069847	0.000124
C61	C	1.152709	-0.023336	0.000102
H62	H	1.136339	-0.104476	0.000124
H63	H	1.029571	-0.068308	0.085072
H64	H	1.029551	-0.068304	-0.084825
H65	H	1.204445	-0.024878	0.085058
H66	H	1.204454	-0.024876	-0.084854
H67	H	1.280517	-0.185334	0.000113
C68	C	1.815435	-0.732074	0.000052
C69	C	1.713918	-0.765131	0.000038
H70	H	1.892586	-0.756532	0.000061
H71	H	1.811293	-0.708633	-0.084887
H72	H	1.811281	-0.708645	0.085010
H73	H	1.718066	-0.788557	-0.084926
H74	H	1.718061	-0.788582	0.084986
C75	C	1.734437	-0.253115	0.125331
C76	C	1.728351	-0.218558	0.000113
H77	H	1.811601	-0.277564	0.125333
H78	H	1.730278	-0.229682	0.210266
H79	H	1.665568	-0.275542	0.125299
H80	H	1.797216	-0.196128	0.000150
H81	H	1.732523	-0.241994	-0.084843
H82	H	0.835306	0.176378	0.000057
C83	C	1.831090	-0.138032	0.000132
C84	C	1.731631	-0.093855	0.000141
H85	H	1.909316	-0.122172	0.000128
H86	H	1.825712	-0.160946	0.085071
H87	H	1.825704	-0.160934	-0.084826
H88	H	1.737012	-0.070956	0.085105
H89	H	1.737012	-0.070931	-0.084807
H90	H	0.891971	-0.011650	0.000154
C91	C	1.738104	-0.030407	0.561355
C92	C	1.662733	0.003263	0.661026
H93	H	1.796395	-0.056437	0.613387
H94	H	1.686091	-0.051113	0.501571
H95	H	1.782959	-0.006503	0.501528
H96	H	1.617871	-0.020640	0.720846
H97	H	1.714753	0.023971	0.720835
C98	C	1.123173	-0.299688	0.125205
C99	C	1.129280	-0.334225	-0.000021
H100	H	1.046014	-0.275236	0.125189
H101	H	1.127309	-0.323135	0.210134
H102	H	1.192048	-0.277264	0.125205
H103	H	1.060410	-0.356652	-0.000015
H104	H	1.125132	-0.310776	-0.084972
H105	H	1.806065	-0.380133	0.000096
C106	C	1.321570	0.220431	0.623882
C107	C	1.302173	0.164327	0.660989
H108	H	1.263287	0.246466	0.675889
H109	H	1.405286	0.226969	0.649006
H110	H	1.309271	0.225910	0.521585
H111	H	1.314481	0.158847	0.763285
H112	H	1.218437	0.157787	0.635875
H113	H	1.803219	-0.487896	0.000070
C114	C	1.725119	-0.606637	-0.125174
C115	C	1.717214	-0.640416	0.000051
H116	H	1.803344	-0.590776	-0.125163
H117	H	1.719753	-0.629547	-0.210104
H118	H	1.657629	-0.576673	-0.125166
H119	H	1.784699	-0.670382	0.000038
H120	H	1.722593	-0.617504	0.085003
H121	H	1.266096	-0.731886	0.000030
C122	C	1.135046	-0.646920	0.000021
C123	C	1.236539	-0.613849	0.000021
H124	H	1.057882	-0.622472	0.000034
H125	H	1.139202	-0.670347	-0.084925
H126	H	1.139215	-0.670364	0.084973
H127	H	1.232376	-0.590408	-0.084936
H128	H	1.232380	-0.590413	0.084976
H129	H	1.158822	-0.452264	-0.000031
C130	C	1.276705	-0.010202	0.000089
C131	C	1.250970	-0.067281	0.000087
H132	H	1.199550	0.014254	0.000062
H133	H	1.323980	-0.003077	0.085044
H134	H	1.324019	-0.003070	-0.084853
H135	H	1.203663	-0.074414	0.085035
H136	H	1.203674	-0.074409	-0.084877
H137	H	1.638238	0.014190	0.361004
H138	H	1.326609	0.153392	0.360969
