data_functionalizedCrystal
_audit_creation_method	'MofGen! by Chris Wilmer'
_symmetry_space_group_name_H-M	'P1'
_symmetry_Int_Tables_number	1
_symmetry_cell_setting	triclinic
loop_
_symmetry_equiv_pos_as_xyz
  x,y,z
_cell_length_a	11.026607
_cell_length_b	10.908937
_cell_length_c	15.455313
_cell_angle_alpha	92.001545
_cell_angle_beta	86.732703
_cell_angle_gamma	84.335986
loop_
_atom_site_label
_atom_site_type_symbol
_atom_site_fract_x
_atom_site_fract_y
_atom_site_fract_z
O1	O	1.512653	0.509566	-0.072128
O2	O	1.171153	0.451064	-0.072130
O3	O	1.387171	0.303849	-0.072126
O4	O	1.296635	0.656781	-0.072132
O5	O	1.374827	0.312223	0.072136
O6	O	1.158809	0.459438	0.072132
O7	O	1.500309	0.517940	0.072134
Cu8	Cu	1.328432	0.489454	0.085305
Cu9	Cu	1.343030	0.479550	-0.085301
O10	O	1.284291	0.665155	0.072130
C11	C	1.389460	0.262150	0.000004
C12	C	1.414657	0.125423	0.000000
C13	C	1.121948	0.444459	0.000001
C14	C	0.993726	0.412286	0.000000
C15	C	1.348747	-0.086154	-0.000003
C16	C	1.322702	0.055160	-0.000001
C17	C	0.901994	0.501120	-0.000002
C18	C	0.769470	0.467870	-0.000002
C19	C	1.549514	0.524545	0.000001
C20	C	1.677736	0.556717	-0.000004
C21	C	1.282002	0.706853	-0.000002
C22	C	1.256805	0.843580	-0.000004
N23	N	1.318173	0.496420	0.205300
N24	N	1.353300	0.472576	-0.205297
C25	C	1.409965	0.433913	0.250696
C26	C	1.402215	0.439196	0.341504
C27	C	1.302676	0.506993	0.386914
C28	C	1.210875	0.569501	0.341512
C29	C	1.218622	0.564211	0.250706
C30	C	1.269246	0.529794	0.658495
C31	C	1.261508	0.535083	0.749308
C32	C	1.452848	0.404775	0.749293
C33	C	1.460589	0.399497	0.658485
C34	C	1.368785	0.462000	0.613091
N35	N	1.294754	0.512397	0.479734
N36	N	1.376704	0.456588	0.520273
H37	H	1.446744	-0.130616	0.000002
Br38	Br	1.093462	-0.082327	0.000007
H39	H	1.491024	0.378712	0.213729
H40	H	0.697304	0.657395	-0.000000
H41	H	1.512662	0.080969	0.000003
Br42	Br	0.961112	0.244490	0.000013
H43	H	1.541642	0.344291	0.621514
H44	H	1.224698	0.099617	0.000005
H45	H	0.921570	0.601790	0.000002
Br46	Br	1.577432	0.319951	0.810902
Br47	Br	1.526789	0.354359	0.403115
H48	H	0.749902	0.367192	-0.000023
Br49	Br	1.126410	0.627108	0.810931
Br50	Br	1.144660	0.614620	0.596894
H51	H	1.129823	0.624698	0.378491
H52	H	1.143873	0.615109	0.213746
