data_functionalizedCrystal
_audit_creation_method	'MofGen! by Chris Wilmer'
_symmetry_space_group_name_H-M	'P1'
_symmetry_Int_Tables_number	1
_symmetry_cell_setting	triclinic
loop_
_symmetry_equiv_pos_as_xyz
  x,y,z
_cell_length_a	18.050589
_cell_length_b	18.050591
_cell_length_c	18.101390
_cell_angle_alpha	90.025282
_cell_angle_beta	89.971577
_cell_angle_gamma	89.978346
loop_
_atom_site_label
_atom_site_type_symbol
_atom_site_fract_x
_atom_site_fract_y
_atom_site_fract_z
Zn1	Zn	-0.295762	-1.135311	-0.418911
Zn2	Zn	-0.419967	-1.135216	-0.295079
Zn3	Zn	-0.295781	-1.011125	-0.295067
Zn4	Zn	-0.419900	-1.011078	-0.418862
O5	O	-0.357853	-1.073183	-0.356980
O6	O	-0.312258	-1.239223	-0.402510
O7	O	-0.403530	-1.118735	-0.191444
O8	O	-0.191854	-1.027658	-0.311510
O9	O	-0.403511	-1.239154	-0.311531
O10	O	-0.191840	-1.118897	-0.402498
O11	O	-0.312291	-1.027566	-0.191435
O12	O	-0.312226	-0.907194	-0.311463
O13	O	-0.403397	-1.027578	-0.522501
O14	O	-0.403416	-0.907160	-0.402415
O15	O	-0.312193	-1.118852	-0.522537
O16	O	-0.523883	-1.118690	-0.311484
O17	O	-0.523834	-1.027486	-0.402427
C18	C	-0.357816	-0.880231	-0.356933
C19	C	-0.357819	-0.797685	-0.356930
C20	C	-0.308165	-0.548856	-0.307574
C21	C	-0.290075	-0.598291	-0.375161
C22	C	-0.357841	-0.500564	-0.356975
C23	C	-0.375886	-0.598211	-0.289370
C24	C	-0.357828	-0.646549	-0.356949
C25	C	-0.339715	-0.548912	-0.424598
C26	C	-0.425558	-0.548828	-0.338761
C27	C	-0.407493	-0.598240	-0.406395
C28	C	-0.357846	-0.416466	-0.356989
C29	C	-0.357823	-0.730646	-0.356943
C30	C	-0.550805	-1.073093	-0.356967
C31	C	-0.633351	-1.073123	-0.356987
C32	C	-0.832801	-1.023575	-0.406424
C33	C	-0.882245	-1.005474	-0.338845
C34	C	-0.784481	-1.073196	-0.356996
C35	C	-0.882119	-1.091333	-0.424584
C36	C	-0.930466	-1.073265	-0.357012
C37	C	-0.832838	-1.055059	-0.289381
C38	C	-0.832707	-1.140950	-0.375166
C39	C	-0.882128	-1.122874	-0.307540
C40	C	-0.700383	-1.073154	-0.356989
C41	C	-1.014562	-1.073306	-0.357012
C42	C	-0.164147	-1.073293	-0.357008
C43	C	-0.081601	-1.073340	-0.357020
C44	C	-0.357785	-1.073220	-0.550142
C45	C	-0.357756	-1.073236	-0.632456
C46	C	-0.357876	-0.266888	-0.357014
C47	C	-0.357853	-0.349434	-0.356996
C48	C	-0.357733	-1.073263	-0.783164
C49	C	-0.300345	-1.130692	-0.814541
C50	C	-0.300500	-1.130932	-0.900159
C51	C	-0.357709	-1.073289	-0.931547
C52	C	-0.436043	-1.094228	-0.900445
C53	C	-0.435725	-1.094629	-0.814800
C54	C	-0.337467	-0.994757	-0.814709
C55	C	-0.335727	-0.995193	-0.900361
C56	C	-0.357700	-1.073303	-1.015406
C57	C	-0.357747	-1.073251	-0.699305
C58	C	-0.357866	-1.073188	-0.164569
C59	C	-0.357686	-1.073316	-0.082255
H60	H	-0.449497	-0.619786	-0.448208
H61	H	-0.903650	-1.164867	-0.265698
H62	H	-0.810932	-1.198202	-0.390552
C63	C	-0.212707	-0.627649	-0.395965
C64	C	-0.198711	-0.711695	-0.400417
C65	C	-0.121342	-0.741050	-0.421214
C66	C	-0.057969	-0.686360	-0.437558
C67	C	-0.071963	-0.602310	-0.433107
C68	C	-0.149332	-0.572954	-0.412310
H69	H	-0.245625	-0.752184	-0.388317
H70	H	-0.110983	-0.803270	-0.424509
H71	H	-0.000696	-0.708091	-0.452953
H72	H	-0.025049	-0.561820	-0.445207
H73	H	-0.159692	-0.510735	-0.409015
H74	H	-0.903766	-1.106646	-0.481736
H75	H	-0.242426	-1.117850	-0.921190
H76	H	-0.379263	-0.951972	-0.794414
C77	C	-0.388044	-0.934336	-0.929212
C78	C	-0.433908	-0.887802	-0.874452
C79	C	-0.486235	-0.826949	-0.903301
C80	C	-0.492698	-0.812631	-0.986910
C81	C	-0.446833	-0.859167	-1.041675
C82	C	-0.394506	-0.920019	-1.012826
H83	H	-0.429124	-0.898400	-0.812555
H84	H	-0.520187	-0.792500	-0.862760
H85	H	-0.531434	-0.767584	-1.008265
H86	H	-0.451616	-0.848569	-1.103571
H87	H	-0.360553	-0.954468	-1.053367
H88	H	-0.904022	-0.948209	-0.323491
C89	C	-0.396514	-0.627473	-0.212151
C90	C	-0.347890	-0.607965	-0.145031
C91	C	-0.368509	-0.637227	-0.067811
C92	C	-0.437753	-0.685997	-0.057711
C93	C	-0.486382	-0.705507	-0.124833
C94	C	-0.465763	-0.676246	-0.202052
H95	H	-0.296627	-0.571860	-0.152506
H96	H	-0.332510	-0.622783	-0.018124
H97	H	-0.453017	-0.707658	-0.000549
H98	H	-0.537645	-0.741612	-0.117358
H99	H	-0.501761	-0.690689	-0.251740
H100	H	-0.281328	-0.975628	-0.793109
H101	H	-0.811280	-1.039680	-0.232214
C102	C	-0.251383	-0.519554	-0.251224
C103	C	-0.168767	-0.539096	-0.259736
C104	C	-0.111984	-0.509792	-0.203390
C105	C	-0.137817	-0.460945	-0.138533
C106	C	-0.220437	-0.441399	-0.130018
C107	C	-0.277220	-0.470704	-0.186364
H108	H	-0.149640	-0.575258	-0.307749
H109	H	-0.050823	-0.524261	-0.209694
H110	H	-0.095782	-0.439252	-0.096823
H111	H	-0.239563	-0.405237	-0.082005
H112	H	-0.338381	-0.456235	-0.180060
H113	H	-0.324381	-0.527347	-0.481777
C114	C	-0.803532	-0.966809	-0.462813
C115	C	-0.719502	-0.956820	-0.473621
C116	C	-0.690231	-0.900053	-0.530004
C117	C	-0.744990	-0.853275	-0.575580
C118	C	-0.829026	-0.863261	-0.564774
C119	C	-0.858297	-0.920028	-0.508390
H120	H	-0.678961	-0.991450	-0.439881
H121	H	-0.628022	-0.892661	-0.538004
H122	H	-0.723322	-0.811252	-0.617319
H123	H	-0.869566	-0.828632	-0.598513
H124	H	-0.920505	-0.927421	-0.500391
H125	H	-0.482813	-0.527085	-0.323341
H126	H	-0.242092	-1.117767	-0.793962
C127	C	-0.459594	-1.170903	-0.929433
C128	C	-0.475537	-1.234244	-0.874733
C129	C	-0.499083	-1.310921	-0.903719
C130	C	-0.506687	-1.324257	-0.987404
C131	C	-0.490744	-1.260914	-1.042109
C132	C	-0.467197	-1.184237	-1.013124
H133	H	-0.469908	-1.224373	-0.812779
H134	H	-0.510885	-1.357811	-0.863222
H135	H	-0.524117	-1.381018	-1.008861
H136	H	-0.496372	-1.270785	-1.104063
H137	H	-0.455396	-1.137347	-1.053620
H138	H	-0.313617	-1.188534	-0.793035
H139	H	-0.313929	-1.189112	-0.920664
C140	C	-0.458875	-1.172145	-0.787830
C141	C	-0.412708	-1.240506	-0.809639
C142	C	-0.435856	-1.318025	-0.782674
C143	C	-0.505171	-1.327183	-0.733902
C144	C	-0.551342	-1.258820	-0.712091
C145	C	-0.528194	-1.181301	-0.739055
H146	H	-0.361393	-1.233728	-0.845745
H147	H	-0.401676	-1.368631	-0.798820
H148	H	-0.522306	-1.384567	-0.713941
H149	H	-0.602657	-1.265598	-0.675984
H150	H	-0.562373	-1.130695	-0.722909
H151	H	-0.479940	-1.054588	-0.794041
H152	H	-0.479963	-1.053688	-0.920773
H153	H	-0.278079	-0.979397	-0.920691
