data_functionalizedCrystal
_audit_creation_method	'MofGen! by Chris Wilmer'
_symmetry_space_group_name_H-M	'P1'
_symmetry_Int_Tables_number	1
_symmetry_cell_setting	triclinic
loop_
_symmetry_equiv_pos_as_xyz
  x,y,z
_cell_length_a	19.288859
_cell_length_b	13.101039
_cell_length_c	19.288865
_cell_angle_alpha	86.654591
_cell_angle_beta	83.134986
_cell_angle_gamma	93.346713
loop_
_atom_site_label
_atom_site_type_symbol
_atom_site_fract_x
_atom_site_fract_y
_atom_site_fract_z
O1	O	0.925185	0.085246	0.082780
O2	O	1.425185	0.585246	0.582780
O3	O	0.722924	0.085245	0.094473
O4	O	1.222924	0.585245	0.594473
O5	O	0.829898	0.085225	-0.012503
O6	O	1.329898	0.585225	0.487497
O7	O	0.818211	0.085266	0.189756
O8	O	1.318211	0.585266	0.689756
O9	O	0.822223	-0.085203	-0.004815
O10	O	1.322223	0.414797	0.495185
O11	O	0.715249	-0.085183	0.102161
O12	O	1.215249	0.414817	0.602161
O13	O	0.917510	-0.085182	0.090468
O14	O	1.417510	0.414818	0.590468
Zn15	Zn	0.815161	-0.112242	0.097535
Zn16	Zn	1.315161	0.387758	0.597535
Zn17	Zn	0.825273	0.112305	0.087406
Zn18	Zn	1.325273	0.612305	0.587406
O19	O	0.810536	-0.085163	0.197444
O20	O	1.310536	0.414837	0.697444
C21	C	0.693210	0.000031	0.097942
C22	C	1.193210	0.500031	0.597942
C23	C	0.616106	0.000029	0.096815
C24	C	1.116106	0.500029	0.596815
N25	N	0.808264	-0.265489	0.104448
N26	N	1.308264	0.234511	0.604448
C27	C	0.052066	0.000042	0.151957
C28	C	0.552066	0.500042	0.651957
C29	C	0.124513	0.000048	0.153022
C30	C	0.624513	0.500048	0.653022
C31	C	0.169219	0.000033	0.090254
C32	C	0.669219	0.500033	0.590254
C33	C	0.141474	0.000039	0.026414
C34	C	0.641474	0.500039	0.526414
C35	C	0.069029	0.000044	0.025351
C36	C	0.569029	0.500044	0.525351
C37	C	0.287800	-0.059689	0.046135
C38	C	0.787800	0.440311	0.546135
C39	C	0.360243	-0.059700	0.047202
C40	C	0.860243	0.440300	0.547202
C41	C	0.392664	0.000023	0.093532
C42	C	0.892664	0.500023	0.593532
C43	C	0.352632	0.059744	0.138808
C44	C	0.852632	0.559744	0.638808
C45	C	0.280187	0.059749	0.137744
C46	C	0.780187	0.559749	0.637744
C47	C	0.247774	0.000029	0.091400
C48	C	0.747774	0.500029	0.591400
C49	C	0.498956	0.000030	0.158522
C50	C	0.998956	0.500030	0.658522
C51	C	0.571405	0.000042	0.159584
C52	C	1.071405	0.500042	0.659584
C53	C	0.588365	0.000024	0.032974
C54	C	1.088365	0.500024	0.532974
C55	C	0.515918	0.000022	0.031914
C56	C	1.015918	0.500022	0.531914
C57	C	0.471217	0.000020	0.094690
C58	C	0.971217	0.500020	0.594690
C59	C	0.798881	-0.474530	0.113859
C60	C	1.298881	0.025470	0.613859
C61	C	0.841556	-0.525414	0.071079
C62	C	1.341556	-0.025414	0.571079
C63	C	0.836335	-0.641731	0.076316
C64	C	1.336335	-0.141731	0.576316
C65	C	0.804101	-0.358202	0.108624
C66	C	1.304101	0.141798	0.608624
C67	C	0.947224	0.000034	0.087000
C68	C	1.447224	0.500034	0.587000
C69	C	1.024329	0.000042	0.088127
C70	C	1.524329	0.500042	0.588127
C71	C	0.825684	0.000008	-0.034535
C72	C	1.325684	0.500008	0.465465
C73	C	0.824555	-0.000001	-0.111638
C74	C	1.324555	0.499999	0.388362
N75	N	0.832175	0.265552	0.080488
N76	N	1.332175	0.765552	0.580488
C77	C	0.887323	-0.000006	-0.156336
C78	C	1.387323	0.499994	0.343664
C79	C	0.886263	0.000010	-0.228783
C80	C	1.386263	0.500010	0.271217
C81	C	0.822431	0.000011	-0.256530
C82	C	1.322431	0.500011	0.243470
C83	C	0.759655	0.000021	-0.211823
C84	C	1.259655	0.500021	0.288177
C85	C	0.760717	0.000015	-0.139377
C86	C	1.260717	0.500015	0.360623
C87	C	0.769562	-0.059687	-0.362123
C88	C	1.269562	0.440313	0.137877
C89	C	0.768503	-0.059687	-0.434567
C90	C	1.268503	0.440313	0.065433
C91	C	0.819152	0.000034	-0.479976
C92	C	1.319152	0.500034	0.020024
C93	C	0.870872	0.059742	-0.452933
C94	C	1.370872	0.559742	0.047067
C95	C	0.871935	0.059736	-0.380487
C96	C	1.371935	0.559736	0.119513
C97	C	0.821272	0.000018	-0.335084
C98	C	1.321272	0.500018	0.164916
C99	C	0.880775	0.000048	-0.603230
C100	C	1.380775	0.500048	-0.103230
C101	C	0.879713	0.000071	-0.675679
C102	C	1.379713	0.500071	-0.175679
C103	C	0.753102	0.000071	-0.658716
C104	C	1.253102	0.500071	-0.158716
C105	C	0.754167	0.000059	-0.586270
C106	C	1.254167	0.500059	-0.086270
C107	C	0.818005	0.000043	-0.558531
C108	C	1.318005	0.500043	-0.058531
C109	C	0.814750	0.000057	0.219477
C110	C	1.314750	0.500057	0.719477
C111	C	0.815880	0.000073	0.296579
C112	C	1.315880	0.500073	0.796579
H113	H	0.015675	0.000046	0.203074
H114	H	0.515675	0.500046	0.703074
H115	H	0.758429	-0.518320	0.154415
H116	H	1.258429	-0.018320	0.654415
N117	N	0.189688	0.000027	-0.041287
N118	N	0.689688	0.500027	0.458713
H119	H	0.239791	0.000021	-0.030928
H120	H	0.739791	0.500021	0.469072
H121	H	0.177879	-0.063154	-0.066269
H122	H	0.677879	0.436846	0.433731
N123	N	0.450742	0.000041	0.226227
N124	N	0.950742	0.500041	0.726227
H125	H	0.462487	0.063226	0.251235
H126	H	0.962487	0.563226	0.751235
H127	H	0.400656	-0.000001	0.215813
H128	H	0.900656	0.499999	0.715813
H129	H	0.939305	-0.000016	-0.133756
H130	H	1.439305	0.499984	0.366244
N131	N	0.403423	-0.124101	-0.001629
N132	N	0.903423	0.375899	0.498371
H133	H	0.427761	-0.175164	0.026620
H134	H	0.927761	0.324836	0.526620
H135	H	0.371857	-0.161860	-0.031140
H136	H	0.871857	0.338140	0.468860
H137	H	0.937378	0.000011	-0.265183
H138	H	1.437378	0.500011	0.234817
N139	N	0.686468	0.000052	-0.538050
N140	N	1.186468	0.500052	-0.038050
H141	H	0.661452	0.063230	-0.549791
H142	H	1.161452	0.563230	-0.049791
H143	H	0.655817	-0.063168	-0.544129
H144	H	1.155817	0.436832	-0.044129
N145	N	0.895150	-0.467405	0.017362
N146	N	1.395150	0.032595	0.517362
H147	H	0.943619	-0.486004	0.025978
H148	H	1.443619	0.013996	0.525978
H149	H	0.886344	-0.486039	-0.031047
H150	H	1.386344	0.013961	0.468953
N151	N	0.947416	0.000070	-0.723893
N152	N	1.447416	0.500070	-0.223893
H153	H	0.988015	0.000055	-0.695325
H154	H	1.488015	0.500055	-0.195325
H155	H	0.946881	-0.063107	-0.751480
H156	H	1.446881	0.436893	-0.251480
N157	N	0.693016	0.000001	-0.091157
N158	N	1.193016	0.500001	0.408843
H159	H	0.693480	0.063172	-0.063558
H160	H	1.193480	0.563172	0.436442
H161	H	0.652451	-0.000035	-0.119767
H162	H	1.152451	0.499965	0.380233
H163	H	0.914046	0.108354	-0.358471
H164	H	1.414046	0.608354	0.141529
H165	H	0.726386	-0.108299	-0.456580
H166	H	1.226386	0.391701	0.043420
H167	H	0.912116	0.108373	-0.489904
H168	H	1.412116	0.608373	0.010096
H169	H	0.147101	0.000038	0.205003
H170	H	0.647101	0.500038	0.705003
H171	H	0.932756	0.000039	-0.580645
H172	H	1.432756	0.500039	-0.080645
H173	H	0.701129	0.000077	-0.681307
H174	H	1.201129	0.500077	-0.181307
N175	N	0.252824	-0.124106	-0.003834
N176	N	0.752824	0.375894	0.496166
H177	H	0.272980	-0.101830	-0.053527
H178	H	0.772980	0.398170	0.446473
H179	H	0.261212	-0.198591	0.006243
H180	H	0.761212	0.301409	0.506243
N181	N	0.714927	-0.124098	-0.313148
N182	N	1.214927	0.375902	0.186852
H183	H	0.682006	-0.161926	-0.341272
H184	H	1.182006	0.338074	0.158728
H185	H	0.738629	-0.175100	-0.284220
H186	H	1.238629	0.324900	0.215780
H187	H	0.046447	0.000044	-0.026630
H188	H	0.546447	0.500044	0.473370
N189	N	0.690803	0.000020	-0.241738
N190	N	1.190803	0.500020	0.258262
H191	H	0.690386	0.063198	-0.274262
H192	H	1.190386	0.563198	0.225738
H193	H	0.684733	-0.063200	-0.268537
H194	H	1.184733	0.436800	0.231463
N195	N	0.237009	0.124166	0.186565
N196	N	0.737009	0.624166	0.686565
H197	H	0.268535	0.162005	0.216078
H198	H	0.768535	0.662005	0.716078
H199	H	0.212678	0.175160	0.158257
H200	H	0.712678	0.675160	0.658257
H201	H	0.379027	0.108373	0.176536
H202	H	0.879027	0.608373	0.676536
N203	N	0.486001	0.000005	-0.036936
N204	N	0.986001	0.500005	0.463064
H205	H	0.453474	-0.063173	-0.037349
H206	H	0.953474	0.436827	0.462651
H207	H	0.459205	0.063225	-0.043010
H208	H	0.959205	0.563225	0.456990
H209	H	0.624764	0.000020	-0.018133
H210	H	1.124764	0.500020	0.481867
N211	N	0.601326	0.000061	0.228433
N212	N	1.101326	0.500061	0.728433
H213	H	0.562013	0.000062	0.268036
H214	H	1.062013	0.500062	0.768036
H215	H	0.628173	-0.063115	0.234481
H216	H	1.128173	0.436885	0.734481
