data_functionalizedCrystal
_audit_creation_method	'MofGen! by Chris Wilmer'
_symmetry_space_group_name_H-M	'P1'
_symmetry_Int_Tables_number	1
_symmetry_cell_setting	triclinic
loop_
_symmetry_equiv_pos_as_xyz
  x,y,z
_cell_length_a	18.215407
_cell_length_b	13.031981
_cell_length_c	18.215399
_cell_angle_alpha	97.211043
_cell_angle_beta	90.017368
_cell_angle_gamma	97.189335
loop_
_atom_site_label
_atom_site_type_symbol
_atom_site_fract_x
_atom_site_fract_y
_atom_site_fract_z
Zn1	Zn	1.087911	-0.416191	0.378823
Zn2	Zn	1.421244	-0.082857	0.712157
Zn3	Zn	1.754577	0.250476	1.045490
Zn4	Zn	1.072212	-0.590982	0.240115
Zn5	Zn	1.405546	-0.257648	0.573448
Zn6	Zn	1.738879	0.075685	0.906782
Zn7	Zn	0.964841	-0.416216	0.255774
Zn8	Zn	1.298174	-0.082882	0.589107
Zn9	Zn	1.631508	0.250451	0.922440
Zn10	Zn	0.949208	-0.590914	0.363151
Zn11	Zn	1.282542	-0.257581	0.696485
Zn12	Zn	1.615875	0.075752	1.029818
O13	O	1.018543	-0.503576	0.309466
O14	O	1.351877	-0.170242	0.642799
O15	O	1.685210	0.163091	0.976132
O16	O	1.188811	-0.439395	0.360429
O17	O	1.522144	-0.106061	0.693762
O18	O	1.855478	0.227272	1.027095
O19	O	1.057942	-0.567837	0.139204
O20	O	1.391275	-0.234504	0.472538
O21	O	1.724608	0.098829	0.805871
O22	O	0.994279	-0.269950	0.285208
O23	O	1.327612	0.063384	0.618542
O24	O	1.660945	0.396717	0.951875
O25	O	1.177277	-0.567813	0.258521
O26	O	1.510611	-0.234480	0.591854
O27	O	1.843944	0.098854	0.925187
O28	O	1.084698	-0.269931	0.375612
O29	O	1.418031	0.063402	0.708946
O30	O	1.751364	0.396735	1.042279
O31	O	0.979057	-0.439437	0.150709
O32	O	1.312390	-0.106104	0.484042
O33	O	1.645723	0.227229	0.817375
O34	O	0.859785	-0.439372	0.270012
O35	O	1.193118	-0.106039	0.603345
O36	O	1.526451	0.227295	0.936679
O37	O	0.967635	-0.567698	0.468218
O38	O	1.300968	-0.234365	0.801551
O39	O	1.634302	0.098969	1.134885
O40	O	0.848299	-0.567722	0.348902
O41	O	1.181633	-0.234389	0.682235
O42	O	1.514966	0.098944	1.015569
O43	O	1.069539	-0.439329	0.479732
O44	O	1.402872	-0.105996	0.813065
O45	O	1.736206	0.227337	1.146399
O46	O	1.042783	-0.737235	0.243324
O47	O	1.376117	-0.403902	0.576658
O48	O	1.709450	-0.070569	0.909991
O49	O	0.952413	-0.737186	0.333718
O50	O	1.285746	-0.403852	0.667052
O51	O	1.619080	-0.070519	1.000385
C52	C	0.827340	-0.503543	0.309456
C53	C	1.160673	-0.170210	0.642789
C54	C	1.494006	0.163123	0.976122
C55	C	0.745540	-0.503555	0.309467
C56	C	1.078873	-0.170222	0.642800
C57	C	1.412207	0.163112	0.976133
C58	C	0.563338	-0.436825	0.362592
C59	C	0.896672	-0.103492	0.695926
C60	C	1.230005	0.229842	1.029259
C61	C	0.486479	-0.436834	0.362594
C62	C	0.819812	-0.103501	0.695927
C63	C	1.153145	0.229833	1.029261
C64	C	0.474498	-0.570355	0.256350
C65	C	0.807831	-0.237022	0.589683
C66	C	1.141164	0.096311	0.923016
C67	C	0.551356	-0.570340	0.256345
C68	C	0.884690	-0.237007	0.589679
C69	C	1.218023	0.096326	0.923012
C70	C	0.595774	-0.503577	0.309471
C71	C	0.929108	-0.170243	0.642804
C72	C	1.262441	0.163090	0.976137
C73	C	0.442056	-0.503601	0.309477
C74	C	0.775390	-0.170267	0.642810
C75	C	1.108723	0.163066	0.976143
C76	C	0.358722	-0.503611	0.309478
C77	C	0.692055	-0.170278	0.642811
C78	C	1.025388	0.163056	0.976145
C79	C	0.679114	-0.503565	0.309469
C80	C	1.012448	-0.170232	0.642802
C81	C	1.345781	0.163102	0.976135
C82	C	0.994218	-0.775135	0.285138
C83	C	1.327552	-0.441801	0.618471
C84	C	1.660885	-0.108468	0.951804
C85	C	0.983879	-0.891309	0.274755
C86	C	1.317213	-0.557976	0.608088
C87	C	1.650546	-0.224642	0.941421
C88	C	1.023978	-0.943011	0.314900
C89	C	1.357312	-0.609677	0.648233
C90	C	1.690645	-0.276344	0.981566
C91	C	1.013293	-1.063083	0.304169
C92	C	1.346627	-0.729749	0.637502
C93	C	1.679960	-0.396416	0.970836
C94	C	1.210493	-0.503609	0.309476
C95	C	1.543826	-0.170275	0.642810
C96	C	1.877160	0.163058	0.976143
C97	C	1.292291	-0.503623	0.309481
C98	C	1.625624	-0.170289	0.642814
C99	C	1.958957	0.163044	0.976147
C100	C	1.018594	-0.503503	0.501425
C101	C	1.351928	-0.170170	0.834759
C102	C	1.685261	0.163163	1.168092
C103	C	1.018616	-0.503473	0.583227
C104	C	1.351950	-0.170139	0.916560
C105	C	1.685283	0.163194	1.249894
C106	C	1.042983	-0.230956	0.333905
C107	C	1.376316	0.102377	0.667238
C108	C	1.709650	0.435711	1.000572
C109	C	1.053398	-0.114782	0.344320
C110	C	1.386731	0.218552	0.677653
C111	C	1.720065	0.551885	1.010986
C112	C	1.018541	-0.503572	0.118260
C113	C	1.351875	-0.170239	0.451593
C114	C	1.685208	0.163095	0.784927
C115	C	1.018688	-0.503308	0.036485
C116	C	1.352022	-0.169975	0.369818
C117	C	1.685355	0.163358	0.703152
C118	C	1.071700	-0.436569	0.777423
C119	C	1.405034	-0.103235	1.110756
C120	C	1.738367	0.230098	1.444090
C121	C	1.071712	-0.436538	0.854285
C122	C	1.405045	-0.103205	1.187618
C123	C	1.738378	0.230128	1.520951
C124	C	0.965599	-0.570215	0.842283
C125	C	1.298932	-0.236882	1.175617
C126	C	1.632265	0.096451	1.508950
C127	C	0.965585	-0.570240	0.765424
C128	C	1.298918	-0.236906	1.098757
C129	C	1.632251	0.096427	1.432090
C130	C	1.018639	-0.503418	0.732995
C131	C	1.351973	-0.170085	1.066329
C132	C	1.685306	0.163249	1.399662
C133	C	1.018665	-0.503363	0.886717
C134	C	1.351998	-0.170030	1.220050
C135	C	1.685332	0.163304	1.553383
C136	C	1.018677	-0.503331	0.970053
C137	C	1.352010	-0.169997	1.303386
C138	C	1.685344	0.163336	1.636720
C139	C	1.018627	-0.503449	0.649654
C140	C	1.351960	-0.170115	0.982987
C141	C	1.685293	0.163218	1.316320
H142	H	0.438323	-0.624713	0.213097
H143	H	0.771656	-0.291379	0.546431
H144	H	1.104990	0.041954	0.879764
O145	O	0.586349	-0.642334	0.199043
O146	O	0.919682	-0.309000	0.532376
O147	O	1.253015	0.024333	0.865709
H148	H	0.564271	-0.724395	0.204220
H149	H	0.897604	-0.391061	0.537554
H150	H	1.230937	-0.057728	0.870887
O151	O	0.957340	-1.122192	0.248113
O152	O	1.290674	-0.788859	0.581447
O153	O	1.624007	-0.455526	0.914780
H154	H	0.901412	-1.101366	0.262533
H155	H	1.234746	-0.768033	0.595866
H156	H	1.568079	-0.434699	0.929200
O157	O	1.079937	-0.883902	0.370946
O158	O	1.413270	-0.550569	0.704279
O159	O	1.746604	-0.217236	1.037613
H160	H	1.065440	-0.904747	0.426846
H161	H	1.398773	-0.571414	0.760179
H162	H	1.732107	-0.238080	1.093512
H163	H	0.941635	-0.935938	0.232445
H164	H	1.274969	-0.602605	0.565778
H165	H	1.608302	-0.269271	0.899111
H166	H	1.095639	-1.070158	0.386639
H167	H	1.428972	-0.736824	0.719972
H168	H	1.762305	-0.403491	1.053306
O169	O	1.128915	-0.364493	0.742443
O170	O	1.462249	-0.031160	1.075777
O171	O	1.795582	0.302174	1.409110
H172	H	1.165809	-0.317997	0.786254
H173	H	1.499142	0.015336	1.119587
H174	H	1.832476	0.348670	1.452920
O175	O	0.451497	-0.364837	0.419893
O176	O	0.784830	-0.031503	0.753226
O177	O	1.118164	0.301830	1.086560
H178	H	0.421240	-0.311598	0.391785
H179	H	0.754574	0.021735	0.725118
H180	H	1.087907	0.355069	1.058452
H181	H	1.114918	-0.382101	0.890455
H182	H	1.448251	-0.048768	1.223788
H183	H	1.781585	0.284566	1.557122
O184	O	0.908377	-0.642284	0.877261
O185	O	1.241710	-0.308950	1.210594
O186	O	1.575044	0.024383	1.543927
H187	H	0.936552	-0.695462	0.907509
H188	H	1.269885	-0.362128	1.240843
H189	H	1.603219	-0.028795	1.574176
O190	O	0.611251	-0.364806	0.419880
O191	O	0.944584	-0.031472	0.753213
O192	O	1.277918	0.301861	1.086546
H193	H	0.575781	-0.318382	0.456812
H194	H	0.909114	0.014952	0.790146
H195	H	1.242448	0.348285	1.123479
O196	O	0.908334	-0.642314	0.717499
O197	O	1.241667	-0.308981	1.050832
O198	O	1.575001	0.024353	1.384165
H199	H	0.871444	-0.688775	0.752959
H200	H	1.204777	-0.355442	1.086293
H201	H	1.538110	-0.022108	1.419626
