data_functionalizedCrystal
_audit_creation_method	'MofGen! by Chris Wilmer'
_symmetry_space_group_name_H-M	'P1'
_symmetry_Int_Tables_number	1
_symmetry_cell_setting	triclinic
loop_
_symmetry_equiv_pos_as_xyz
  x,y,z
_cell_length_a	13.897449
_cell_length_b	18.050589
_cell_length_c	13.897441
_cell_angle_alpha	89.973300
_cell_angle_beta	90.018596
_cell_angle_gamma	89.964023
loop_
_atom_site_label
_atom_site_type_symbol
_atom_site_fract_x
_atom_site_fract_y
_atom_site_fract_z
Zn1	Zn	1.474568	0.295618	0.545401
Zn2	Zn	1.474420	0.419820	0.384110
Zn3	Zn	1.313263	0.295651	0.384119
Zn4	Zn	1.313191	0.419773	0.545363
O5	O	1.393861	0.357715	0.464748
O6	O	1.609530	0.312099	0.524017
O7	O	1.453011	0.403382	0.249130
O8	O	1.334753	0.191722	0.405533
O9	O	1.609422	0.403350	0.405518
O10	O	1.453263	0.191697	0.524026
O11	O	1.334610	0.312156	0.249136
O12	O	1.178272	0.312110	0.405496
O13	O	1.334630	0.403270	0.680350
O14	O	1.178219	0.403302	0.523961
O15	O	1.453193	0.312054	0.680377
O16	O	1.452941	0.523738	0.405481
O17	O	1.334487	0.523704	0.523953
C18	C	1.143247	0.357705	0.464726
C19	C	1.036033	0.357719	0.464740
C20	C	0.839737	0.357722	0.464765
C21	C	0.948970	0.357718	0.464748
C22	C	1.393716	0.550667	0.464733
C23	C	1.393742	0.633213	0.464759
C24	C	1.329361	0.832672	0.529162
C25	C	1.305840	0.882117	0.441144
C26	C	1.393815	0.784344	0.464772
C27	C	1.417362	0.881981	0.552801
C28	C	1.393883	0.930329	0.464793
C29	C	1.370248	0.832701	0.376707
C30	C	1.481811	0.832560	0.488424
C31	C	1.458323	0.881983	0.400345
C32	C	1.393773	0.700245	0.464762
C33	C	1.393925	1.014425	0.464793
C34	C	1.645454	0.357726	0.464771
C35	C	1.752668	0.357730	0.464781
C36	C	1.393920	0.357653	0.716341
C37	C	1.393945	0.357626	0.823555
C38	C	1.393996	1.164010	0.464786
C39	C	1.393959	1.081464	0.464805
C40	C	1.393858	0.357724	0.214134
C41	C	1.394019	0.357541	0.106921
C42	C	1.393965	0.357605	0.910625
C43	C	1.393993	0.357572	1.019858
H44	H	1.231458	0.903901	0.421157
H45	H	1.512859	0.903498	0.345838
O46	O	1.264389	0.806800	0.594142
C47	C	1.238476	0.734440	0.737552
C48	C	1.312161	0.763705	0.664052
H49	H	1.277067	0.699579	0.794081
H50	H	1.201031	0.783123	0.774007
H51	H	1.182758	0.698909	0.698934
H52	H	1.367937	0.799225	0.702596
H53	H	1.349532	0.714988	0.627600
H54	H	1.556176	0.810779	0.508453
O55	O	1.346573	0.807026	0.287819
C56	C	1.387199	0.803643	0.119327
C57	C	1.414137	0.832757	0.219937
H58	H	1.441798	0.824448	0.064415
H59	H	1.387378	0.740487	0.119984
H60	H	1.312427	0.824483	0.099092
H61	H	1.488914	0.811972	0.240235
H62	H	1.413892	0.895912	0.219226
O63	O	1.441266	0.907769	0.641574
C64	C	1.560259	0.910655	0.767666
C65	C	1.533330	0.881417	0.667114
H66	H	1.634685	0.889348	0.788355
H67	H	1.560824	0.973807	0.766680
H68	H	1.505162	0.890413	0.822435
H69	H	1.588399	0.901604	0.612288
H70	H	1.532734	0.818266	0.668180
