data_functionalizedCrystal
_audit_creation_method	'MofGen! by Chris Wilmer'
_symmetry_space_group_name_H-M	'P1'
_symmetry_Int_Tables_number	1
_symmetry_cell_setting	triclinic
loop_
_symmetry_equiv_pos_as_xyz
  x,y,z
_cell_length_a	19.288867
_cell_length_b	19.188930
_cell_length_c	17.766277
_cell_angle_alpha	89.988508
_cell_angle_beta	89.992126
_cell_angle_gamma	83.140925
loop_
_atom_site_label
_atom_site_type_symbol
_atom_site_fract_x
_atom_site_fract_y
_atom_site_fract_z
O1	O	0.921359	0.087106	-0.062576
O2	O	1.421359	0.587106	0.437424
O3	O	0.719099	0.098854	-0.062585
O4	O	1.219099	0.598854	0.437415
O5	O	0.826066	-0.008676	-0.062566
O6	O	1.326066	0.491324	0.437434
O7	O	0.814392	0.194636	-0.062595
O8	O	1.314392	0.694636	0.437405
O9	O	0.826047	-0.008682	0.062623
O10	O	1.326047	0.491318	0.562623
O11	O	0.719080	0.098849	0.062604
O12	O	1.219080	0.598849	0.562604
O13	O	0.921340	0.087100	0.062612
O14	O	1.421340	0.587100	0.562612
Cu15	Cu	0.820208	0.092974	0.074039
Cu16	Cu	1.320208	0.592974	0.574039
Cu17	Cu	0.820231	0.092980	-0.074011
Cu18	Cu	1.320231	0.592980	0.425989
O19	O	0.814373	0.194631	0.062593
O20	O	1.314373	0.694631	0.562593
C21	C	0.693213	0.098473	0.000009
C22	C	1.193213	0.598473	0.500009
C23	C	0.616110	0.097338	0.000006
C24	C	1.116110	0.597338	0.500006
C25	C	0.825678	-0.034690	0.000031
C26	C	1.325678	0.465310	0.500031
C27	C	0.824543	-0.112194	0.000037
C28	C	1.324543	0.387806	0.500037
C29	C	0.060554	0.089162	-0.068224
C30	C	0.560554	0.589162	0.431776
C31	C	0.133001	0.090225	-0.068227
C32	C	0.633001	0.590225	0.431773
C33	C	0.169220	0.090756	0.000013
C34	C	0.669220	0.590756	0.500013
C35	C	0.132987	0.090207	0.068261
C36	C	0.632987	0.590207	0.568261
C37	C	0.060542	0.089137	0.068262
C38	C	0.560542	0.589137	0.568262
C39	C	0.278543	0.133342	0.052287
C40	C	0.778543	0.633342	0.552287
C41	C	0.350986	0.134416	0.052283
C42	C	0.850986	0.634416	0.552283
C43	C	0.392666	0.094052	0.000013
C44	C	0.892666	0.594052	0.500013
C45	C	0.361892	0.052624	-0.052267
C46	C	0.861892	0.552624	0.447733
C47	C	0.289447	0.051554	-0.052266
C48	C	0.789447	0.551554	0.447734
C49	C	0.247775	0.091916	0.000019
C50	C	0.747775	0.591916	0.500019
C51	C	0.507447	0.095749	-0.068234
C52	C	1.007447	0.595749	0.431766
C53	C	0.579896	0.096807	-0.068235
C54	C	1.079896	0.596807	0.431765
C55	C	0.579879	0.096797	0.068255
C56	C	1.079879	0.596797	0.568255
C57	C	0.507432	0.095731	0.068254
C58	C	1.007432	0.595731	0.568254
C59	C	0.471220	0.095211	0.000007
C60	C	0.971220	0.595211	0.500007
C61	C	0.887308	-0.157122	0.000044
C62	C	1.387308	0.342878	0.500044
C63	C	0.886242	-0.229946	0.000031
C64	C	1.386242	0.270054	0.500031
C65	C	0.822408	-0.257838	0.000028
C66	C	1.322408	0.242162	0.500028
C67	C	0.759635	-0.212900	0.000018
C68	C	1.259635	0.287100	0.500018
C69	C	0.760703	-0.140078	0.000022
C70	C	1.260703	0.359922	0.500022
N71	N	0.773608	-0.365842	0.042630
N72	N	1.273608	0.134158	0.542630
N73	N	0.772597	-0.435020	0.042627
N74	N	1.272597	0.064980	0.542627
C75	C	0.819186	-0.477247	0.000013
C76	C	1.319186	0.022753	0.500013
N77	N	0.866834	-0.447683	-0.042590
N78	N	1.366834	0.052317	0.457410
N79	N	0.867846	-0.378498	-0.042583
N80	N	1.367846	0.121502	0.457417
C81	C	0.821243	-0.336801	0.000023
C82	C	1.321243	0.163199	0.500023
C83	C	0.880799	-0.601139	0.000005
C84	C	1.380799	-0.101139	0.500005
C85	C	0.879730	-0.673964	-0.000012
C86	C	1.379730	-0.173964	0.499988
C87	C	0.753122	-0.656917	-0.000018
C88	C	1.253122	-0.156917	0.499982
C89	C	0.754192	-0.584094	-0.000009
C90	C	1.254192	-0.084094	0.499991
C91	C	0.818033	-0.556210	0.000006
C92	C	1.318033	-0.056210	0.500006
C93	C	0.947226	0.087481	0.000017
C94	C	1.447226	0.587481	0.500017
C95	C	1.024329	0.088617	0.000015
C96	C	1.524329	0.588617	0.500015
C97	C	0.814761	0.220644	-0.000005
C98	C	1.314761	0.720644	0.499995
C99	C	0.815896	0.298149	-0.000016
C100	C	1.315896	0.798149	0.499984
N101	N	0.820198	0.092969	0.178169
N102	N	1.320198	0.592969	0.678169
N103	N	0.820247	0.092980	-0.178142
N104	N	1.320247	0.592980	0.321858
C105	C	0.867578	0.045378	0.217564
C106	C	1.367578	0.545378	0.717564
C107	C	0.867582	0.045375	0.296366
C108	C	1.367582	0.545375	0.796366
C109	C	0.820213	0.092975	0.335770
C110	C	1.320213	0.592975	0.835770
C111	C	0.772824	0.140569	0.296365
C112	C	1.272824	0.640569	0.796365
C113	C	0.772816	0.140566	0.217564
C114	C	1.272816	0.640566	0.717564
C115	C	0.810918	0.156591	0.460598
C116	C	1.310918	0.656591	0.960598
C117	C	0.810931	0.156595	0.539397
C118	C	1.310931	0.656595	1.039397
C119	C	0.820231	0.092983	0.578816
C120	C	1.320231	0.592983	1.078816
C121	C	0.829534	0.029365	0.539427
C122	C	1.329534	0.529365	1.039427
C123	C	0.829527	0.029362	0.460626
C124	C	1.329527	0.529362	0.960626
C125	C	0.820215	0.092983	0.421215
C126	C	1.320215	0.592983	0.921215
C127	C	0.867618	0.045384	0.703657
C128	C	1.367618	0.545384	1.203657
C129	C	0.867617	0.045380	0.782461
C130	C	1.367617	0.545380	1.282461
C131	C	0.772862	0.140581	0.782458
C132	C	1.272862	0.640581	1.282458
C133	C	0.772860	0.140579	0.703656
C134	C	1.272860	0.640579	1.203656
C135	C	0.820241	0.092982	0.664260
C136	C	1.320241	0.592982	1.164260
H137	H	0.031074	0.088735	-0.123796
H138	H	0.531074	0.588735	0.376204
H139	H	0.930843	-0.710545	-0.000011
H140	H	1.430843	-0.210545	0.499989
Cl141	Cl	0.178518	0.090873	0.154048
Cl142	Cl	0.678518	0.590873	0.654048
H143	H	0.939292	-0.134424	0.000053
H144	H	1.439292	0.365576	0.500053
Cl145	Cl	0.675283	-0.527609	-0.000013
Cl146	Cl	1.175283	-0.027609	0.499987
Cl147	Cl	0.841232	-0.050610	0.588973
Cl148	Cl	1.341232	0.449390	1.088973
H149	H	0.937354	-0.266534	0.000033
H150	H	1.437354	0.233466	0.500033
H151	H	0.803333	0.208395	0.428510
H152	H	1.303333	0.708395	0.928510
Cl153	Cl	0.178550	0.090912	-0.154020
Cl154	Cl	0.678550	0.590912	0.345980
H155	H	0.031048	0.088696	0.123832
H156	H	0.531048	0.588696	0.623832
Cl157	Cl	0.679386	-0.247964	0.000008
Cl158	Cl	1.179386	0.252036	0.500008
H159	H	0.906157	0.006620	0.185491
H160	H	1.406157	0.506620	0.685491
H161	H	0.906166	0.006619	0.328448
H162	H	1.406166	0.506619	0.828448
Cl163	Cl	0.625437	0.097485	-0.154029
Cl164	Cl	1.125437	0.597485	0.345971
H165	H	0.709591	-0.103497	0.000018
H166	H	1.209591	0.396503	0.500018
H167	H	0.932782	-0.578435	0.000014
H168	H	1.432782	-0.078435	0.500014
Cl169	Cl	0.841213	-0.050611	0.411111
Cl170	Cl	1.341213	0.449389	0.911111
Cl171	Cl	0.250762	-0.000528	-0.117983
Cl172	Cl	0.750762	0.499472	0.382017
H173	H	0.906198	0.006622	0.814537
H174	H	1.406198	0.506622	1.314537
H175	H	0.701147	-0.679626	-0.000024
H176	H	1.201147	-0.179626	0.499976
H177	H	0.906197	0.006626	0.671580
H178	H	1.406197	0.506626	1.171580
Cl179	Cl	0.461920	0.095089	-0.154029
Cl180	Cl	0.961920	0.595089	0.345971
H181	H	0.734233	0.179322	0.185488
H182	H	1.234233	0.679322	0.685488
Cl183	Cl	0.713307	0.200416	0.831988
Cl184	Cl	1.213307	0.700416	1.331988
Cl185	Cl	0.713297	0.200414	0.654125
Cl186	Cl	1.213297	0.700414	1.154125
Cl187	Cl	0.713270	0.200407	0.345899
Cl188	Cl	1.213270	0.700407	0.845899
Cl189	Cl	0.414281	0.001880	-0.117987
Cl190	Cl	0.914281	0.501880	0.382013
Cl191	Cl	0.625406	0.097454	0.154044
Cl192	Cl	1.125406	0.597454	0.654044
Cl193	Cl	0.799241	0.236571	0.588907
Cl194	Cl	1.299241	0.736571	1.088907
Cl195	Cl	0.461889	0.095057	0.154045
Cl196	Cl	0.961889	0.595057	0.654045
H197	H	0.244613	0.166207	0.094861
H198	H	0.744613	0.666207	0.594861
Cl199	Cl	0.389665	0.186503	0.118000
Cl200	Cl	0.889665	0.686503	0.618000
