data_functionalizedCrystal
_audit_creation_method	'MofGen! by Chris Wilmer'
_symmetry_space_group_name_H-M	'P1'
_symmetry_Int_Tables_number	1
_symmetry_cell_setting	triclinic
loop_
_symmetry_equiv_pos_as_xyz
  x,y,z
_cell_length_a	17.699104
_cell_length_b	14.044190
_cell_length_c	16.176319
_cell_angle_alpha	90.005109
_cell_angle_beta	90.008289
_cell_angle_gamma	88.241647
loop_
_atom_site_label
_atom_site_type_symbol
_atom_site_fract_x
_atom_site_fract_y
_atom_site_fract_z
O1	O	1.012345	0.119937	0.068773
O2	O	1.512345	0.619937	0.568773
O3	O	0.793044	0.135509	0.068772
O4	O	1.293044	0.635509	0.568772
O5	O	0.899400	-0.010255	0.068756
O6	O	1.399400	0.489745	0.568756
O7	O	0.905989	0.265700	0.068789
O8	O	1.405989	0.765700	0.568789
O9	O	0.899383	-0.010247	-0.068737
O10	O	1.399383	0.489753	0.431263
O11	O	0.793027	0.135517	-0.068721
O12	O	1.293027	0.635517	0.431279
O13	O	1.012328	0.119945	-0.068720
O14	O	1.512328	0.619945	0.431280
Cu15	Cu	0.902676	0.127731	-0.081275
Cu16	Cu	1.402676	0.627731	0.418725
Cu17	Cu	0.902696	0.127722	0.081327
Cu18	Cu	1.402696	0.627722	0.581327
O19	O	0.905972	0.265708	-0.068705
O20	O	1.405972	0.765708	0.431295
C21	C	0.764800	0.134951	0.000025
C22	C	1.264800	0.634951	0.500025
C23	C	0.680666	0.133267	0.000024
C24	C	1.180666	0.633267	0.500024
C25	C	0.161044	0.209330	0.000042
C26	C	0.661044	0.709330	0.500042
C27	C	0.240096	0.210907	0.000044
C28	C	0.740096	0.710907	0.500044
C29	C	0.282809	0.125338	0.000034
C30	C	0.782809	0.625338	0.500034
C31	C	0.246466	0.038187	0.000029
C32	C	0.746466	0.538187	0.500029
C33	C	0.167415	0.036611	0.000033
C34	C	0.667415	0.536611	0.500033
C35	C	0.565270	0.044540	0.000017
C36	C	1.065270	0.544540	0.500017
C37	C	0.644327	0.046122	0.000011
C38	C	1.144327	0.546122	0.500011
C39	C	0.637952	0.218835	0.000028
C40	C	1.137952	0.718835	0.500028
C41	C	0.558901	0.217260	0.000032
C42	C	1.058901	0.717260	0.500032
C43	C	0.522564	0.130109	0.000032
C44	C	1.022564	0.630109	0.500032
C45	C	0.436847	0.128401	0.000030
C46	C	0.936847	0.628401	0.500030
C47	C	0.368526	0.127046	0.000029
C48	C	0.868526	0.627046	0.500029
C49	C	0.896509	-0.045559	0.000007
C50	C	1.396509	0.454441	0.500007
C51	C	0.887911	-0.150766	-0.000000
C52	C	1.387911	0.349234	0.500000
C53	C	0.933171	-0.401152	0.000032
C54	C	1.433171	0.098848	0.500032
C55	C	0.872204	-0.343389	0.000026
C56	C	1.372204	0.156611	0.500026
C57	C	0.880946	-0.236204	0.000012
C58	C	1.380946	0.263796	0.500012
C59	C	0.924431	-0.508347	0.000047
C60	C	1.424431	-0.008347	0.500047
C61	C	1.040572	0.120502	0.000028
C62	C	1.540572	0.620502	0.500028
C63	C	1.124706	0.122186	0.000035
C64	C	1.624706	0.622186	0.500035
C65	C	0.908863	0.301012	0.000046
C66	C	1.408863	0.801012	0.500046
C67	C	0.917461	0.406219	0.000059
C68	C	1.417461	0.906219	0.500059
N69	N	0.902667	0.127737	-0.195640
N70	N	1.402667	0.627737	0.304360
C71	C	0.949813	0.063187	-0.761030
C72	C	1.449813	0.563187	-0.261030
C73	C	0.949810	0.063194	-0.674483
C74	C	1.449810	0.563194	-0.174483
C75	C	0.902700	0.127718	-0.631216
C76	C	1.402700	0.627718	-0.131216
C77	C	0.855595	0.192245	-0.674500
C78	C	1.355595	0.692245	-0.174500
C79	C	0.855603	0.192243	-0.761046
C80	C	1.355603	0.692243	-0.261046
C81	C	0.855566	0.192259	-0.325472
C82	C	1.355566	0.692259	0.174528
C83	C	0.855560	0.192255	-0.238920
C84	C	1.355560	0.692255	0.261080
C85	C	0.949773	0.063210	-0.238909
C86	C	1.449773	0.563210	0.261091
C87	C	0.949780	0.063207	-0.325455
C88	C	1.449780	0.563207	0.174545
C89	C	0.902679	0.127738	-0.368731
C90	C	1.402679	0.627738	0.131269
C91	C	0.902684	0.127731	-0.462576
C92	C	1.402684	0.627731	0.037424
C93	C	0.902691	0.127721	-0.537373
C94	C	1.402691	0.627721	-0.037373
N95	N	0.902710	0.127708	0.195692
N96	N	1.402710	0.627708	0.695692
H97	H	0.269679	0.281869	0.000058
H98	H	0.769679	0.781869	0.500058
H99	H	0.988165	0.010657	-0.639246
H100	H	1.488165	0.510657	-0.139246
Cl101	Cl	0.300163	-0.069386	0.000018
Cl102	Cl	0.800163	0.430614	0.500018
Cl103	Cl	0.796333	0.273378	-0.184528
Cl104	Cl	1.296333	0.773378	0.315472
H105	H	0.988172	0.010641	-0.796252
H106	H	1.488172	0.510641	-0.296252
H107	H	0.817248	0.244783	-0.796282
H108	H	1.317248	0.744783	-0.296282
Cl109	Cl	0.698023	-0.061459	-0.000000
Cl110	Cl	1.198023	0.438541	0.500000
Cl111	Cl	0.121733	-0.072946	0.000024
Cl112	Cl	0.621733	0.427054	0.500024
Cl113	Cl	0.107355	0.316909	0.000048
Cl114	Cl	0.607355	0.816909	0.500048
H115	H	0.817240	0.244787	-0.639267
H116	H	1.317240	0.744787	-0.139267
H117	H	0.988128	0.010668	-0.203664
H118	H	1.488128	0.510668	0.296336
Cl119	Cl	0.505208	0.324836	0.000043
Cl120	Cl	1.005208	0.824836	0.500043
Cl121	Cl	0.796351	0.273377	-0.379871
Cl122	Cl	1.296351	0.773377	0.120129
H123	H	0.667546	0.289798	0.000032
H124	H	1.167546	0.789798	0.500032
H125	H	0.535695	-0.026423	0.000015
H126	H	1.035695	0.473577	0.500015
Cl127	Cl	0.781481	-0.391316	0.000027
Cl128	Cl	1.281481	0.108684	0.500027
H129	H	0.988139	0.010663	-0.360680
H130	H	1.488139	0.510663	0.139320
H131	H	0.991927	-0.370109	0.000024
H132	H	1.491927	0.129891	0.500024
