data_functionalizedCrystal
_audit_creation_method	'MofGen! by Chris Wilmer'
_symmetry_space_group_name_H-M	'P1'
_symmetry_Int_Tables_number	1
_symmetry_cell_setting	triclinic
loop_
_symmetry_equiv_pos_as_xyz
  x,y,z
_cell_length_a	16.120490
_cell_length_b	29.839125
_cell_length_c	16.120484
_cell_angle_alpha	87.117439
_cell_angle_beta	89.835900
_cell_angle_gamma	87.092839
loop_
_atom_site_label
_atom_site_type_symbol
_atom_site_fract_x
_atom_site_fract_y
_atom_site_fract_z
Zn1	Zn	1.254395	-0.299041	0.395807
Zn2	Zn	1.247258	-0.227516	0.534835
Zn3	Zn	1.115356	-0.219937	0.388732
Zn4	Zn	1.108248	-0.298632	0.527752
O5	O	1.181314	-0.261281	0.461781
O6	O	1.369813	-0.292896	0.420174
O7	O	1.229748	-0.163643	0.515457
O8	O	1.139762	-0.227430	0.273306
O9	O	1.364569	-0.240347	0.522318
O10	O	1.241914	-0.285547	0.278504
O11	O	1.132841	-0.158075	0.408116
O12	O	0.998048	-0.227033	0.401247
O13	O	1.127647	-0.361553	0.510245
O14	O	0.992826	-0.284850	0.503385
O15	O	1.235021	-0.361854	0.413306
O16	O	1.222856	-0.239950	0.650259
O17	O	1.120725	-0.292198	0.645055
C18	C	0.965265	-0.255075	0.450780
C19	C	0.872837	-0.252431	0.446094
C20	C	0.659861	-0.274996	0.486082
C21	C	0.703615	-0.247604	0.437546
C22	C	0.797779	-0.250291	0.442304
C23	C	0.565689	-0.272310	0.481326
C24	C	1.181337	-0.378460	0.461775
C25	C	1.181347	-0.428395	0.461772
C26	C	1.237320	-0.738196	0.411159
C27	C	1.237364	-0.925868	0.411091
O28	O	1.284889	-0.950268	0.368133
N29	N	1.181468	-0.949178	0.461555
C30	C	1.125553	-0.925565	0.512036
O31	O	1.078006	-0.949697	0.554951
C32	C	1.125505	-0.737894	0.512100
C33	C	1.181411	-0.714587	0.461639
C34	C	1.293220	-0.714890	0.360701
C35	C	1.293211	-0.667974	0.360722
C36	C	1.237302	-0.644366	0.411202
C37	C	1.181402	-0.667672	0.461660
C38	C	1.069587	-0.714282	0.562576
C39	C	1.069578	-0.667361	0.562586
C40	C	1.125484	-0.644055	0.512125
C41	C	1.125484	-0.597148	0.512160
N42	N	1.181380	-0.573839	0.461695
C43	C	1.237289	-0.597448	0.411216
C44	C	1.125584	-1.024096	0.512000
C45	C	1.125597	-1.071014	0.511986
C46	C	1.237407	-1.071313	0.411039
C47	C	1.237397	-1.024395	0.411058
C48	C	1.181480	-1.000787	0.461536
C49	C	1.237267	-0.498923	0.411265
C50	C	1.237256	-0.452004	0.411293
C51	C	1.125443	-0.451708	0.512236
C52	C	1.125457	-0.498623	0.512212
C53	C	1.181372	-0.522229	0.461720
O54	O	1.077979	-0.572720	0.555088
O55	O	1.284817	-0.573307	0.368294
C56	C	1.237328	-0.785111	0.411138
C57	C	1.181428	-0.808418	0.461596
C58	C	1.125519	-0.784809	0.512076
C59	C	1.181441	-0.855335	0.461582
C60	C	1.237350	-0.878944	0.411103
C61	C	1.293246	-0.855635	0.360638
C62	C	1.293237	-0.808720	0.360659
C63	C	1.069623	-0.808118	0.562540
C64	C	1.069637	-0.855033	0.562516
C65	C	1.125546	-0.878642	0.512036
C66	C	1.398207	-0.267512	0.472825
C67	C	1.490634	-0.270167	0.477532
C68	C	1.170267	-0.266862	0.677830
C69	C	1.165617	-0.269267	0.770261
C70	C	1.181342	-0.144558	0.461730
C71	C	1.181506	-0.094622	0.461507
C72	C	1.192427	-0.255689	0.244889
C73	C	1.197162	-0.253306	0.152463
C74	C	1.157133	-0.273667	0.939493
C75	C	1.205644	-0.248908	0.983236
C76	C	1.200924	-0.251356	1.077403
C77	C	1.161853	-0.271219	0.845318
H78	H	1.282784	-0.433030	0.370201
C79	C	1.008144	-0.880667	0.618031
H80	H	1.016154	-0.911992	0.610800
H81	H	0.952896	-0.871056	0.603020
H82	H	1.017456	-0.874773	0.674528
H83	H	0.670354	-0.222134	0.392420
H84	H	0.693120	-0.300463	0.531206
H85	H	1.024095	-0.788900	0.603648
C86	C	1.298778	-0.524883	0.355731
H87	H	1.332070	-0.504278	0.325694
H88	H	1.268840	-0.541336	0.317867
H89	H	1.333388	-0.545048	0.389385
C90	C	1.354700	-0.642343	0.305206
H91	H	1.387988	-0.663128	0.275138
H92	H	1.389303	-0.625902	0.338857
H93	H	1.324737	-0.622191	0.267355
C94	C	1.096233	-0.304779	0.984435
H95	H	1.101006	-0.302358	1.042747
H96	H	1.109051	-0.334957	0.970834
H97	H	1.041063	-0.296208	0.967466
H98	H	1.250721	-0.225872	0.949963
C99	C	1.354730	-0.740852	0.305174
H100	H	1.388019	-0.720246	0.275135
H101	H	1.324795	-0.757307	0.267311
H102	H	1.389343	-0.761015	0.338830
H103	H	1.024034	-0.648141	0.603683
H104	H	1.282919	-1.005422	0.369967
H105	H	1.282931	-1.090544	0.369937
H106	H	1.080049	-1.004879	0.553111
C107	C	1.064106	-1.096646	0.567499
H108	H	1.030804	-1.075861	0.597556
H109	H	1.094057	-1.116800	0.605347
H110	H	1.029504	-1.113083	0.533833
H111	H	1.024063	-0.733250	0.603667
C112	C	1.063968	-0.524261	0.567723
H113	H	1.030668	-0.503479	0.597787
H114	H	1.093920	-0.544419	0.605565
H115	H	1.029364	-0.540695	0.534054
C116	C	1.063944	-0.425732	0.567755
H117	H	1.071943	-0.394452	0.560528
H118	H	1.073242	-0.435213	0.624246
H119	H	1.008697	-0.431500	0.552724
H120	H	1.338761	-0.789748	0.319568
H121	H	1.338772	-0.874866	0.319539
