data_functionalizedCrystal
_audit_creation_method	'MofGen! by Chris Wilmer'
_symmetry_space_group_name_H-M	'P1'
_symmetry_Int_Tables_number	1
_symmetry_cell_setting	triclinic
loop_
_symmetry_equiv_pos_as_xyz
  x,y,z
_cell_length_a	14.853569
_cell_length_b	14.853568
_cell_length_c	13.930277
_cell_angle_alpha	89.997103
_cell_angle_beta	89.997168
_cell_angle_gamma	96.364624
loop_
_atom_site_label
_atom_site_type_symbol
_atom_site_fract_x
_atom_site_fract_y
_atom_site_fract_z
O1	O	1.196365	-0.117707	-0.079777
O2	O	0.933906	-0.131727	-0.079787
O3	O	1.072146	0.006513	-0.079787
O4	O	1.058125	-0.255946	-0.079778
O5	O	1.072132	0.006509	0.079875
O6	O	0.933892	-0.131731	0.079875
O7	O	1.196351	-0.117711	0.079885
Zn8	Zn	1.065120	-0.124721	0.105230
Zn9	Zn	1.065138	-0.124716	-0.105132
O10	O	1.058111	-0.255950	0.079884
C11	C	0.900310	-0.131093	0.000042
C12	C	0.800227	-0.129189	0.000038
C13	C	0.763850	-0.046178	0.000031
C14	C	0.742561	-0.210410	0.000048
C15	C	0.648527	-0.208624	0.000049
C16	C	0.612150	-0.125613	0.000043
C17	C	0.669807	-0.044389	0.000035
C18	C	0.590862	-0.289847	0.000066
C19	C	0.496822	-0.288064	0.000068
C20	C	0.460444	-0.205052	0.000055
C21	C	0.518107	-0.123824	0.000047
C22	C	0.481730	-0.040813	0.000040
C23	C	0.539393	0.040415	0.000025
C24	C	0.633429	0.038623	0.000022
C25	C	0.366407	-0.203259	0.000058
C26	C	0.387688	-0.039024	0.000044
C27	C	1.071504	0.040100	0.000041
C28	C	1.069599	0.140183	0.000031
C29	C	1.229947	-0.118344	0.000053
C30	C	1.330030	-0.120249	0.000052
N31	N	1.065114	-0.124724	0.248796
C32	C	0.979433	0.552718	0.000040
C33	C	1.143666	0.573998	0.000046
C34	C	1.145456	0.479964	0.000042
C35	C	1.064233	0.422303	0.000038
C36	C	0.981221	0.458675	0.000038
C37	C	1.228467	0.443584	0.000051
C38	C	1.230261	0.349545	0.000048
C39	C	1.149037	0.291882	0.000037
C40	C	1.066021	0.328260	0.000037
C41	C	0.984799	0.270598	0.000033
C42	C	0.901782	0.306974	0.000025
C43	C	0.899997	0.401012	0.000028
C44	C	1.150822	0.197845	0.000035
C45	C	0.986587	0.176556	0.000032
C46	C	1.058753	0.710463	0.000051
C47	C	1.060655	0.610379	0.000043
N48	N	1.065150	-0.124706	-0.248698
C49	C	1.003893	-0.185918	0.299059
C50	C	1.126341	-0.063527	0.299038
C51	C	1.126350	-0.063523	0.399533
C52	C	1.065129	-0.124717	0.449796
C53	C	1.003899	-0.185914	0.399564
C54	C	1.187573	-0.002321	0.449774
C55	C	1.187585	-0.002314	0.550275
C56	C	1.126367	-0.063513	0.600540
C57	C	1.065135	-0.124713	0.550301
C58	C	1.003914	-0.185907	0.600564
C59	C	0.942685	-0.247113	0.550327
C60	C	0.942681	-0.247113	0.449828
C61	C	1.126371	-0.063512	0.701039
C62	C	1.003920	-0.185903	0.701069
H63	H	0.680385	0.104755	0.000012
H64	H	0.772185	-0.277994	0.000060
C65	C	0.302981	-0.292596	0.000078
H66	H	0.241765	-0.279643	0.000084
H67	H	0.314019	-0.326638	-0.055592
H68	H	0.314018	-0.326619	0.055771
H69	H	1.294594	0.490539	0.000063
C70	C	0.630877	-0.381149	0.000076
H71	H	0.695140	-0.370579	0.000061
H72	H	0.611098	-0.414594	0.055759
H73	H	0.611092	-0.414600	-0.055603
C74	C	1.321573	0.309539	0.000043
H75	H	1.369689	0.357350	0.000038
H76	H	1.325686	0.273288	0.055715
H77	H	1.325685	0.273308	-0.055647
C78	C	1.254940	0.065000	0.605528
H79	H	1.291404	0.101438	0.561198
H80	H	1.222474	0.102588	0.644740
H81	H	1.292514	0.032492	0.644723
H82	H	1.218413	0.168232	0.000047
H83	H	0.911842	0.582339	0.000030
H84	H	1.237413	0.047506	0.408846
C85	C	0.433403	-0.377409	0.000073
H86	H	0.468537	-0.427102	0.000070
H87	H	0.396269	-0.380128	0.055748
H88	H	0.396284	-0.380124	-0.055614
H89	H	0.920444	0.129613	0.000024
C90	C	0.936563	-0.253206	0.756351
H91	H	0.900093	-0.289646	0.712036
H92	H	0.969028	-0.290793	0.795567
H93	H	0.898996	-0.220688	0.795545
H94	H	1.209793	0.620951	0.000057
C95	C	0.875325	-0.314403	0.605619
H96	H	0.838848	-0.350847	0.561311
H97	H	0.907785	-0.351989	0.644841
H98	H	0.837764	-0.281873	0.644807
C99	C	0.347681	0.052290	0.000038
H100	H	0.395491	0.100405	0.000035
H101	H	0.311435	0.056400	-0.055635
H102	H	0.311444	0.056404	0.055727
H103	H	1.176219	-0.013676	0.741938
C104	C	0.875327	-0.314420	0.394567
H105	H	0.884084	-0.305647	0.327515
H106	H	0.885185	-0.374610	0.411032
H107	H	0.815150	-0.304508	0.411048
C108	C	0.812443	0.243541	0.000020
H109	H	0.825403	0.182329	0.000017
H110	H	0.778399	0.254574	0.055692
H111	H	0.778418	0.254577	-0.055670
H112	H	0.832409	0.430638	0.000023
H113	H	0.954044	-0.235753	0.258153
C114	C	1.193670	0.003788	0.243751
H115	H	1.184898	-0.004980	0.176703
H116	H	1.183803	0.063973	0.260223
H117	H	1.253855	-0.006112	0.260208
H118	H	0.810802	0.019956	0.000015
H119	H	0.509762	0.108003	0.000014
