data_functionalizedCrystal
_audit_creation_method	'MofGen! by Chris Wilmer'
_symmetry_space_group_name_H-M	'P1'
_symmetry_Int_Tables_number	1
_symmetry_cell_setting	triclinic
loop_
_symmetry_equiv_pos_as_xyz
  x,y,z
_cell_length_a	19.288864
_cell_length_b	13.101039
_cell_length_c	19.288865
_cell_angle_alpha	86.654591
_cell_angle_beta	83.136245
_cell_angle_gamma	93.359745
loop_
_atom_site_label
_atom_site_type_symbol
_atom_site_fract_x
_atom_site_fract_y
_atom_site_fract_z
O1	O	0.925197	0.085556	0.082787
O2	O	1.175197	0.335556	0.332787
O3	O	1.425197	0.585556	0.582787
O4	O	1.675197	0.835556	0.832787
O5	O	0.722933	0.085487	0.094479
O6	O	0.972933	0.335487	0.344479
O7	O	1.222933	0.585487	0.594479
O8	O	1.472933	0.835487	0.844479
O9	O	0.829908	0.085503	-0.012497
O10	O	1.079908	0.335503	0.237503
O11	O	1.329908	0.585503	0.487503
O12	O	1.579908	0.835503	0.737503
O13	O	0.818221	0.085540	0.189762
O14	O	1.068221	0.335540	0.439762
O15	O	1.318221	0.585540	0.689762
O16	O	1.568221	0.835540	0.939762
O17	O	0.822233	-0.084928	-0.004809
O18	O	1.072233	0.165072	0.245191
O19	O	1.322233	0.415072	0.495191
O20	O	1.572233	0.665072	0.745191
O21	O	0.715258	-0.084944	0.102167
O22	O	0.965258	0.165056	0.352167
O23	O	1.215258	0.415056	0.602167
O24	O	1.465258	0.665056	0.852167
O25	O	0.917521	-0.084875	0.090475
O26	O	1.167521	0.165125	0.340475
O27	O	1.417521	0.415125	0.590475
O28	O	1.667521	0.665125	0.840475
Zn29	Zn	0.815171	-0.111969	0.097541
Zn30	Zn	1.065171	0.138031	0.347541
Zn31	Zn	1.315171	0.388031	0.597541
Zn32	Zn	1.565171	0.638031	0.847541
Zn33	Zn	0.825283	0.112581	0.087412
Zn34	Zn	1.075283	0.362581	0.337412
Zn35	Zn	1.325283	0.612581	0.587412
Zn36	Zn	1.575283	0.862581	0.837412
O37	O	0.810546	-0.084891	0.197450
O38	O	1.060546	0.165109	0.447450
O39	O	1.310546	0.415109	0.697450
O40	O	1.560546	0.665109	0.947450
C41	C	0.693218	0.000263	0.097947
C42	C	0.943218	0.250263	0.347947
C43	C	1.193218	0.500263	0.597947
C44	C	1.443218	0.750263	0.847947
C45	C	0.616114	0.000236	0.096819
C46	C	0.866114	0.250236	0.346819
C47	C	1.116114	0.500236	0.596819
C48	C	1.366114	0.750236	0.846819
N49	N	0.808274	-0.265219	0.104454
N50	N	1.058274	-0.015219	0.354454
N51	N	1.308274	0.234781	0.604454
N52	N	1.558274	0.484781	0.854454
C53	C	0.571419	0.000263	0.159586
C54	C	0.821419	0.250263	0.409586
C55	C	1.071419	0.500263	0.659586
C56	C	1.321419	0.750263	0.909586
C57	C	0.498972	0.000274	0.158524
C58	C	0.748972	0.250274	0.408524
C59	C	0.998972	0.500274	0.658524
C60	C	1.248972	0.750274	0.908524
C61	C	0.471225	0.000278	0.094692
C62	C	0.721225	0.250278	0.344692
C63	C	0.971225	0.500278	0.594692
C64	C	1.221225	0.750278	0.844692
C65	C	0.515929	0.000245	0.031918
C66	C	0.765929	0.250245	0.281918
C67	C	1.015929	0.500245	0.531918
C68	C	1.265929	0.750245	0.781918
C69	C	0.588374	0.000224	0.032981
C70	C	0.838374	0.250224	0.282981
C71	C	1.088374	0.500224	0.532981
C72	C	1.338374	0.750224	0.782981
C73	C	0.365653	0.060013	0.041818
C74	C	0.615653	0.310013	0.291818
C75	C	0.865653	0.560013	0.541818
C76	C	1.115653	0.810013	0.791818
C77	C	0.293210	0.060041	0.040757
C78	C	0.543210	0.310041	0.290757
C79	C	0.793210	0.560041	0.540757
C80	C	1.043210	0.810041	0.790757
C81	C	0.247782	0.000340	0.091410
C82	C	0.497782	0.250340	0.341410
C83	C	0.747782	0.500340	0.591410
C84	C	0.997782	0.750340	0.841410
C85	C	0.274805	-0.059376	0.143135
C86	C	0.524805	0.190624	0.393135
C87	C	0.774805	0.440624	0.643135
C88	C	1.024805	0.690624	0.893135
C89	C	0.347250	-0.059397	0.144198
C90	C	0.597250	0.190603	0.394198
C91	C	0.847250	0.440603	0.644198
C92	C	1.097250	0.690603	0.894198
C93	C	0.392672	0.000301	0.093532
C94	C	0.642672	0.250301	0.343532
C95	C	0.892672	0.500301	0.593532
C96	C	1.142672	0.750301	0.843532
C97	C	0.124531	0.000378	0.153030
C98	C	0.374531	0.250378	0.403030
C99	C	0.624531	0.500378	0.653030
C100	C	0.874531	0.750378	0.903030
C101	C	0.052083	0.000383	0.151967
C102	C	0.302083	0.250383	0.401967
C103	C	0.552083	0.500383	0.651967
C104	C	0.802083	0.750383	0.901967
C105	C	0.069043	0.000364	0.025357
C106	C	0.319043	0.250364	0.275357
C107	C	0.569043	0.500364	0.525357
C108	C	0.819043	0.750364	0.775357
C109	C	0.141489	0.000349	0.026423
C110	C	0.391489	0.250349	0.276423
C111	C	0.641489	0.500349	0.526423
C112	C	0.891489	0.750349	0.776423
C113	C	0.169228	0.000361	0.090261
C114	C	0.419228	0.250361	0.340261
C115	C	0.669228	0.500361	0.590261
C116	C	0.919228	0.750361	0.840261
C117	C	0.798891	-0.474263	0.113865
C118	C	1.048891	-0.224263	0.363865
C119	C	1.298891	0.025737	0.613865
C120	C	1.548891	0.275737	0.863865
C121	C	0.841566	-0.525132	0.071085
C122	C	1.091566	-0.275132	0.321085
C123	C	1.341566	-0.025132	0.571085
C124	C	1.591566	0.224868	0.821085
C125	C	0.836345	-0.641451	0.076322
C126	C	1.086345	-0.391451	0.326322
C127	C	1.336345	-0.141451	0.576322
C128	C	1.586345	0.108549	0.826322
C129	C	0.804111	-0.357933	0.108629
C130	C	1.054111	-0.107933	0.358629
C131	C	1.304111	0.142067	0.608629
C132	C	1.554111	0.392067	0.858629
C133	C	0.947236	0.000352	0.087006
C134	C	1.197236	0.250352	0.337006
C135	C	1.447236	0.500352	0.587006
C136	C	1.697236	0.750352	0.837006
C137	C	1.024341	0.000385	0.088134
C138	C	1.274341	0.250385	0.338134
C139	C	1.524341	0.500385	0.588134
C140	C	1.774341	0.750385	0.838134
C141	C	0.825694	0.000284	-0.034529
C142	C	1.075694	0.250284	0.215471
C143	C	1.325694	0.500284	0.465471
C144	C	1.575694	0.750284	0.715471
C145	C	0.824565	0.000275	-0.111632
C146	C	1.074565	0.250275	0.138368
C147	C	1.324565	0.500275	0.388368
C148	C	1.574565	0.750275	0.638368
N149	N	0.832186	0.265831	0.080494
N150	N	1.082186	0.515831	0.330494
N151	N	1.332186	0.765831	0.580494
N152	N	1.582186	1.015831	0.830494
C153	C	0.887334	0.000291	-0.156329
C154	C	1.137334	0.250291	0.093671
C155	C	1.387334	0.500291	0.343671
C156	C	1.637334	0.750291	0.593671
C157	C	0.886274	0.000307	-0.228777
C158	C	1.136274	0.250307	0.021223
C159	C	1.386274	0.500307	0.271223
C160	C	1.636274	0.750307	0.521223
C161	C	0.822441	0.000286	-0.256524
C162	C	1.072441	0.250286	-0.006524
C163	C	1.322441	0.500286	0.243476
C164	C	1.572441	0.750286	0.493476
C165	C	0.759664	0.000276	-0.211817
C166	C	1.009664	0.250276	0.038183
C167	C	1.259664	0.500276	0.288183
C168	C	1.509664	0.750276	0.538183
C169	C	0.760726	0.000270	-0.139371
C170	C	1.010726	0.250270	0.110629
C171	C	1.260726	0.500270	0.360629
C172	C	1.510726	0.750270	0.610629
C173	C	0.769572	-0.059429	-0.362117
C174	C	1.019572	0.190571	-0.112117
C175	C	1.269572	0.440571	0.137883
C176	C	1.519572	0.690571	0.387883
C177	C	0.768512	-0.059430	-0.434562
C178	C	1.018512	0.190570	-0.184562
C179	C	1.268512	0.440570	0.065438
C180	C	1.518512	0.690570	0.315438
C181	C	0.819162	0.000308	-0.479970
C182	C	1.069162	0.250308	-0.229970
C183	C	1.319162	0.500308	0.020030
C184	C	1.569162	0.750308	0.270030
C185	C	0.870883	0.060033	-0.452926
C186	C	1.120883	0.310033	-0.202926
C187	C	1.370883	0.560033	0.047074
C188	C	1.620883	0.810033	0.297074
C189	C	0.871945	0.060028	-0.380481
C190	C	1.121945	0.310028	-0.130481
C191	C	1.371945	0.560028	0.119519
C192	C	1.621945	0.810028	0.369519
C193	C	0.821282	0.000293	-0.335078
C194	C	1.071282	0.250293	-0.085078
C195	C	1.321282	0.500293	0.164922
C196	C	1.571282	0.750293	0.414922
C197	C	0.880786	0.000343	-0.603224
C198	C	1.130786	0.250343	-0.353224
C199	C	1.380786	0.500343	-0.103224
C200	C	1.630786	0.750343	0.146776
C201	C	0.879723	0.000365	-0.675673
C202	C	1.129723	0.250365	-0.425673
C203	C	1.379723	0.500365	-0.175673
C204	C	1.629723	0.750365	0.074327
C205	C	0.753111	0.000323	-0.658711
C206	C	1.003111	0.250323	-0.408711
C207	C	1.253111	0.500323	-0.158711
C208	C	1.503111	0.750323	0.091289
C209	C	0.754176	0.000311	-0.586264
C210	C	1.004176	0.250311	-0.336264
C211	C	1.254176	0.500311	-0.086264
C212	C	1.504176	0.750311	0.163736
C213	C	0.818015	0.000316	-0.558525
C214	C	1.068015	0.250316	-0.308525
C215	C	1.318015	0.500316	-0.058525
C216	C	1.568015	0.750316	0.191475
C217	C	0.814760	0.000330	0.219482
C218	C	1.064760	0.250330	0.469482
C219	C	1.314760	0.500330	0.719482
C220	C	1.564760	0.750330	0.969482
C221	C	0.815890	0.000346	0.296585
C222	C	1.065890	0.250346	0.546585
C223	C	1.315890	0.500346	0.796585
C224	C	1.565890	0.750346	1.046585
H225	H	0.593999	0.000275	0.211567
H226	H	0.843999	0.250275	0.461567
H227	H	1.093999	0.500275	0.711567
H228	H	1.343999	0.750275	0.961567
Cl229	Cl	0.904293	-0.457501	0.008731
Cl230	Cl	1.154293	-0.207501	0.258731
Cl231	Cl	1.404293	0.042499	0.508731
Cl232	Cl	1.654293	0.292499	0.758731
H233	H	0.701137	0.000311	-0.681302
H234	H	0.951137	0.250311	-0.431302
H235	H	1.201137	0.500311	-0.181302
H236	H	1.451137	0.750311	0.068698
H237	H	0.493333	0.000263	-0.020056
H238	H	0.743333	0.250263	0.229944
H239	H	0.993333	0.500263	0.479944
H240	H	1.243333	0.750263	0.729944
H241	H	0.758438	-0.518066	0.154420
H242	H	1.008438	-0.268066	0.404420
H243	H	1.258438	-0.018066	0.654420
H244	H	1.508438	0.231934	0.904420
Cl245	Cl	0.967589	0.000326	-0.121462
Cl246	Cl	1.217589	0.250326	0.128538
Cl247	Cl	1.467589	0.500326	0.378538
Cl248	Cl	1.717589	0.750326	0.628538
H249	H	0.462574	0.000294	0.209638
H250	H	0.712574	0.250294	0.459638
H251	H	0.962574	0.500294	0.709638
H252	H	1.212574	0.750294	0.959638
H253	H	0.937389	0.000324	-0.265177
H254	H	1.187389	0.250324	-0.015177
H255	H	1.437389	0.500324	0.234823
H256	H	1.687389	0.750324	0.484823
Cl257	Cl	0.197680	0.000321	-0.052489
Cl258	Cl	0.447680	0.250321	0.197511
Cl259	Cl	0.697680	0.500321	0.447511
Cl260	Cl	0.947680	0.750321	0.697511
H261	H	0.914057	0.108660	-0.358465
H262	H	1.164057	0.358660	-0.108465
H263	H	1.414057	0.608660	0.141535
H264	H	1.664057	0.858660	0.391535
H265	H	0.369249	-0.108023	0.186312
H266	H	0.619249	0.141977	0.436312
H267	H	0.869249	0.391977	0.686312
H268	H	1.119249	0.641977	0.936312
Cl269	Cl	0.934561	0.135140	-0.510004
Cl270	Cl	1.184561	0.385140	-0.260004
Cl271	Cl	1.434561	0.635140	-0.010004
Cl272	Cl	1.684561	0.885140	0.239996
Cl273	Cl	0.961038	0.000343	-0.568348
Cl274	Cl	1.211038	0.250343	-0.318348
Cl275	Cl	1.461038	0.500343	-0.068348
Cl276	Cl	1.711038	0.750343	0.181652
H277	H	0.930839	0.000384	-0.712066
H278	H	1.180839	0.250384	-0.462066
H279	H	1.430839	0.500384	-0.212066
H280	H	1.680839	0.750384	0.037934
Cl281	Cl	0.675262	0.000286	-0.530070
Cl282	Cl	0.925262	0.250286	-0.280070
Cl283	Cl	1.175262	0.500286	-0.030070
Cl284	Cl	1.425262	0.750286	0.219930
Cl285	Cl	0.159407	0.000383	0.233282
Cl286	Cl	0.409407	0.250383	0.483282
Cl287	Cl	0.659407	0.500383	0.733282
Cl288	Cl	0.909407	0.750383	0.983282
Cl289	Cl	0.644565	0.000190	-0.045933
Cl290	Cl	0.894565	0.250190	0.204067
Cl291	Cl	1.144565	0.500190	0.454067
Cl292	Cl	1.394565	0.750190	0.704067
Cl293	Cl	0.703494	-0.134516	-0.468553
Cl294	Cl	0.953494	0.115484	-0.218553
Cl295	Cl	1.203494	0.365484	0.031447
Cl296	Cl	1.453494	0.615484	0.281447
Cl297	Cl	-0.004107	0.000412	0.230881
Cl298	Cl	0.245893	0.250412	0.480881
Cl299	Cl	0.495893	0.500412	0.730881
Cl300	Cl	0.745893	0.750412	0.980881
H301	H	0.271213	0.108669	-0.001357
H302	H	0.521213	0.358669	0.248643
H303	H	0.771213	0.608669	0.498643
H304	H	1.021213	0.858669	0.748643
Cl305	Cl	0.705892	-0.134539	-0.305039
Cl306	Cl	0.955892	0.115461	-0.055039
Cl307	Cl	1.205892	0.365461	0.194961
Cl308	Cl	1.455892	0.615461	0.444961
H309	H	0.046455	0.000431	-0.026619
H310	H	0.296455	0.250431	0.223381
H311	H	0.546455	0.500431	0.473381
H312	H	0.796455	0.750431	0.723381
H313	H	0.237819	-0.107991	0.184380
H314	H	0.487819	0.142009	0.434380
H315	H	0.737819	0.392009	0.684380
H316	H	0.987819	0.642009	0.934380
Cl317	Cl	0.422756	0.135074	-0.021866
Cl318	Cl	0.672756	0.385074	0.228134
Cl319	Cl	0.922756	0.635074	0.478134
Cl320	Cl	1.172756	0.885074	0.728134
Cl321	Cl	0.679417	0.000258	-0.246698
Cl322	Cl	0.929417	0.250258	0.003302
Cl323	Cl	1.179417	0.500258	0.253302
Cl324	Cl	1.429417	0.750258	0.503302
H325	H	0.709611	0.000257	-0.102978
H326	H	0.959611	0.250257	0.147022
H327	H	1.209611	0.500257	0.397022
H328	H	1.459611	0.750257	0.647022
