data_functionalizedCrystal
_audit_creation_method	'MofGen! by Chris Wilmer'
_symmetry_space_group_name_H-M	'P1'
_symmetry_Int_Tables_number	1
_symmetry_cell_setting	triclinic
loop_
_symmetry_equiv_pos_as_xyz
  x,y,z
_cell_length_a	15.298708
_cell_length_b	15.297327
_cell_length_c	21.395355
_cell_angle_alpha	99.659679
_cell_angle_beta	99.639898
_cell_angle_gamma	107.405650
loop_
_atom_site_label
_atom_site_type_symbol
_atom_site_fract_x
_atom_site_fract_y
_atom_site_fract_z
Zn1	Zn	1.357703	-0.123945	-0.206232
Zn2	Zn	1.857703	0.376055	0.293768
Zn3	Zn	1.330661	-0.279481	-0.123386
Zn4	Zn	1.830661	0.220519	0.376614
Zn5	Zn	1.202169	-0.150905	-0.123371
Zn6	Zn	1.702169	0.349095	0.376629
Zn7	Zn	1.175230	-0.306400	-0.250012
Zn8	Zn	1.675230	0.193600	0.249988
O9	O	1.266441	-0.215183	-0.175750
O10	O	1.766441	0.284817	0.324250
O11	O	1.484256	-0.122029	-0.176926
O12	O	1.984256	0.377971	0.323074
O13	O	1.313573	-0.262443	-0.035714
O14	O	1.813573	0.237557	0.464286
O15	O	1.245392	-0.017161	-0.116035
O16	O	1.745392	0.482839	0.383965
O17	O	1.464388	-0.236301	-0.116060
O18	O	1.964388	0.263699	0.383940
O19	O	1.359663	0.002646	-0.176912
O20	O	1.859663	0.502646	0.323088
O21	O	1.219170	-0.167978	-0.035703
O22	O	1.719170	0.332022	0.464297
O23	O	1.068455	-0.194080	-0.158486
O24	O	1.568455	0.305920	0.341514
O25	O	1.199478	-0.282180	-0.331875
O26	O	1.699478	0.217820	0.168125
O27	O	1.048663	-0.308321	-0.251529
O28	O	1.548663	0.191679	0.248471
O29	O	1.333541	-0.148131	-0.299710
O30	O	1.833541	0.351869	0.200290
O31	O	1.287451	-0.413220	-0.158512
O32	O	1.787451	0.086780	0.341488
O33	O	1.173256	-0.432997	-0.251543
O34	O	1.673256	0.067003	0.248457
C35	C	1.024815	-0.257048	-0.209757
C36	C	1.524815	0.242952	0.290243
C37	C	0.921443	-0.274980	-0.224323
C38	C	1.421443	0.225020	0.275677
C39	C	0.671235	-0.087251	-0.071830
C40	C	1.171235	0.412749	0.428170
C41	C	0.768359	-0.070397	-0.058145
C42	C	1.268359	0.429603	0.441855
C43	C	0.806635	-0.121542	-0.099688
C44	C	1.306635	0.378458	0.400312
C45	C	0.747777	-0.189542	-0.154920
C46	C	1.247777	0.310458	0.345080
C47	C	0.650644	-0.206393	-0.168609
C48	C	1.150644	0.293607	0.331391
C49	C	0.786044	-0.240683	-0.196467
C50	C	1.286044	0.259317	0.303533
C51	C	0.727186	-0.308684	-0.251699
C52	C	1.227186	0.191316	0.248301
C53	C	0.630063	-0.325532	-0.265386
C54	C	1.130063	0.174468	0.234614
C55	C	0.591787	-0.274387	-0.223843
C56	C	1.091787	0.225613	0.276157
C57	C	0.883177	-0.223833	-0.182777
C58	C	1.383177	0.276167	0.317223
C59	C	0.862586	-0.342975	-0.279556
C60	C	1.362586	0.157025	0.220444
C61	C	0.765462	-0.359828	-0.293242
C62	C	1.265462	0.140172	0.206758
C63	C	1.224521	-0.456855	-0.209790
C64	C	1.724521	0.043145	0.290210
C65	C	1.206673	-0.560228	-0.224361
C66	C	1.706673	-0.060228	0.275639
C67	C	1.394388	-0.810273	-0.071768
C68	C	1.894388	-0.310273	0.428232
C69	C	1.411157	-0.713149	-0.058075
C70	C	1.911157	-0.213149	0.441925
C71	C	1.360038	-0.674914	-0.099645
C72	C	1.860038	-0.174914	0.400355
C73	C	1.292146	-0.733813	-0.154911
C74	C	1.792146	-0.233813	0.345089
C75	C	1.275370	-0.830948	-0.168603
C76	C	1.775370	-0.330948	0.331397
C77	C	1.241020	-0.695588	-0.196480
C78	C	1.741020	-0.195588	0.303520
C79	C	1.173128	-0.754488	-0.251746
C80	C	1.673128	-0.254488	0.248254
C81	C	1.156356	-0.851613	-0.265436
C82	C	1.656356	-0.351613	0.234564
C83	C	1.207476	-0.889848	-0.223866
C84	C	1.707476	-0.389848	0.276134
C85	C	1.257796	-0.598453	-0.182788
C86	C	1.757796	-0.098453	0.317212
C87	C	1.138778	-0.619128	-0.279623
C88	C	1.638778	-0.119128	0.220377
C89	C	1.122009	-0.716253	-0.293317
C90	C	1.622009	-0.216253	0.206683
C91	C	1.509009	-0.173155	-0.141611
C92	C	2.009009	0.326845	0.358389
C93	C	1.612378	-0.155246	-0.127063
C94	C	2.112378	0.344754	0.372937
C95	C	1.266521	-0.215151	-0.339160
C96	C	1.766521	0.284849	0.160840
C97	C	1.266555	-0.215137	-0.408796
C98	C	1.766555	0.284863	0.091204
C99	C	1.308549	0.027437	-0.141588
C100	C	1.808549	0.527437	0.358412
C101	C	1.326493	0.130827	-0.127030
C102	C	1.826493	0.630827	0.372970
C103	C	1.336360	-0.145336	-0.424762
C104	C	1.836360	0.354664	0.075238
C105	C	1.336365	-0.145296	-0.490192
C106	C	1.836365	0.354704	0.009808
C107	C	1.266574	-0.215072	-0.539654
C108	C	1.766574	0.284928	-0.039654
C109	C	1.196757	-0.284880	-0.523683
C110	C	1.696757	0.215120	-0.023683
C111	C	1.196748	-0.284912	-0.458253
C112	C	1.696748	0.215088	0.041747
C113	C	1.244703	-0.300099	-0.656160
C114	C	1.744703	0.199901	-0.156160
C115	C	1.244718	-0.300067	-0.721587
C116	C	1.744718	0.199933	-0.221587
C117	C	1.266596	-0.214973	-0.741460
C118	C	1.766596	0.285027	-0.241460
C119	C	1.288479	-0.129906	-0.695895
C120	C	1.788479	0.370094	-0.195895
C121	C	1.288470	-0.129938	-0.630466
C122	C	1.788470	0.370062	-0.130466
C123	C	1.266575	-0.215045	-0.610603
C124	C	1.766575	0.284955	-0.110603
C125	C	1.336411	-0.145123	-0.828372
C126	C	1.836411	0.354877	-0.328372
C127	C	1.336410	-0.145083	-0.893804
C128	C	1.836410	0.354917	-0.393804
C129	C	1.196805	-0.284674	-0.927294
C130	C	1.696805	0.215326	-0.427294
C131	C	1.196803	-0.284707	-0.861863
C132	C	1.696803	0.215293	-0.361863
C133	C	1.266610	-0.214932	-0.812405
C134	C	1.766610	0.285068	-0.312405
C135	C	1.266426	-0.215139	-0.012959
C136	C	1.766426	0.284861	0.487041
C137	C	1.266617	-0.214859	0.056738
C138	C	1.766617	0.285141	0.556738
H139	H	0.885719	-0.107815	-0.088542
H140	H	1.385719	0.392185	0.411458
H141	H	0.582143	-0.380896	-0.310363
H142	H	1.082143	0.119104	0.189637
H143	H	1.097151	-0.587999	-0.313473
H144	H	1.597151	-0.087999	0.186527
Cl145	Cl	1.315972	-0.023002	-0.573188
Cl146	Cl	1.815972	0.476998	-0.073188
H147	H	0.717526	-0.415195	-0.338212
H148	H	1.217526	0.084805	0.161788
Cl149	Cl	0.910698	-0.407266	-0.331790
Cl150	Cl	1.410698	0.092734	0.168210
Cl151	Cl	1.071003	-0.925656	-0.334911
Cl152	Cl	1.571003	-0.425656	0.165089
Cl153	Cl	1.217217	-0.407006	-0.778860
Cl154	Cl	1.717217	0.092994	-0.278860
Cl155	Cl	0.623113	-0.022954	-0.019617
Cl156	Cl	1.123113	0.477046	0.480383
H157	H	1.139930	-0.341690	-0.563959
H158	H	1.639930	0.158310	-0.063959
Cl159	Cl	0.469684	-0.295567	-0.241048
Cl160	Cl	0.969684	0.204433	0.258952
H161	H	1.393201	-0.088519	-0.384496
H162	H	1.893201	0.411481	0.115504
H163	H	1.313073	-0.550506	-0.137790
H164	H	1.813073	-0.050506	0.362210
H165	H	1.373694	-0.595830	-0.088492
H166	H	1.873694	-0.095830	0.411508
Cl167	Cl	1.424162	-0.057404	-0.766194
Cl168	Cl	1.924162	0.442596	-0.266194
H169	H	1.466432	-0.665196	-0.013077
H170	H	1.966432	-0.165196	0.486923
H171	H	0.816274	-0.015034	-0.013173
H172	H	1.316274	0.484966	0.486827
H173	H	1.435996	-0.841415	-0.037924
H174	H	1.935996	-0.341415	0.462076
Cl175	Cl	1.424185	-0.057337	-0.913874
Cl176	Cl	1.924185	0.442663	-0.413874
H177	H	1.139972	-0.341480	-0.967566
H178	H	1.639972	0.158520	-0.467566
H179	H	1.066731	-0.764222	-0.338315
H180	H	1.566731	-0.264222	0.161685
H181	H	1.139965	-0.341551	-0.848865
H182	H	1.639965	0.158449	-0.348865
Cl183	Cl	1.186021	-1.012016	-0.240876
Cl184	Cl	1.686021	-0.512016	0.259124
H185	H	1.226641	-0.369418	-0.640018
H186	H	1.726641	0.130582	-0.140018
Cl187	Cl	1.424110	-0.057524	-0.510270
Cl188	Cl	1.924110	0.442476	-0.010270
H189	H	1.306296	-0.060614	-0.712074
H190	H	1.806296	0.439386	-0.212074
Cl191	Cl	1.108987	-0.372670	-0.438182
Cl192	Cl	1.608987	0.127330	0.061818
H193	H	0.931091	-0.168464	-0.137808
H194	H	1.431091	0.331536	0.362192
