data_functionalizedCrystal
_audit_creation_method	'MofGen! by Chris Wilmer'
_symmetry_space_group_name_H-M	'P1'
_symmetry_Int_Tables_number	1
_symmetry_cell_setting	triclinic
loop_
_symmetry_equiv_pos_as_xyz
  x,y,z
_cell_length_a	27.440280
_cell_length_b	12.970454
_cell_length_c	12.970454
_cell_angle_alpha	59.999776
_cell_angle_beta	90.003573
_cell_angle_gamma	59.998424
loop_
_atom_site_label
_atom_site_type_symbol
_atom_site_fract_x
_atom_site_fract_y
_atom_site_fract_z
Zr1	Zr	0.469502	1.128404	-0.135181
O2	O	0.391684	1.343513	-0.299826
O3	O	0.493357	0.913307	-0.084707
O4	O	0.493358	1.128397	-0.299798
O5	O	0.391682	1.128424	0.084931
O6	O	0.573561	1.128377	-0.299777
O7	O	0.391683	1.128423	-0.084735
O8	O	0.573560	0.743621	0.084981
O9	O	0.391684	1.513180	-0.299827
O10	O	0.563386	1.001760	-0.063166
O11	O	0.503531	1.001776	0.063438
O12	O	0.503532	1.255016	-0.189803
O13	O	0.443677	1.255031	-0.063199
Zr14	Zr	0.597415	1.128374	0.135452
Zr15	Zr	0.597416	1.128372	-0.135147
Zr16	Zr	0.469501	1.128405	0.135418
Zr17	Zr	0.469502	1.399004	-0.135182
Zr18	Zr	0.597415	0.857774	0.135453
O19	O	0.573560	1.343470	0.084978
O20	O	0.573561	1.343468	-0.299778
O21	O	0.391682	1.343515	0.084930
O22	O	0.675234	0.913264	0.300097
O23	O	0.675235	0.913262	-0.084659
O24	O	0.493356	0.913309	0.300049
O25	O	0.675235	1.128353	-0.084660
O26	O	0.573559	1.128380	0.300069
O27	O	0.493356	1.128400	0.300048
O28	O	0.675234	1.128354	0.085006
O29	O	0.493358	1.513155	-0.299800
O30	O	0.573559	0.743622	0.300071
O31	O	0.675234	0.743597	0.300098
O32	O	0.675234	0.743596	0.085008
O33	O	0.391683	1.513182	-0.084737
O34	O	0.493358	1.513156	-0.084710
O35	O	0.563385	1.001761	0.190075
O36	O	0.623240	1.001746	0.063470
O37	O	0.563386	1.255002	-0.063167
O38	O	0.503531	1.255017	0.063437
C39	C	0.533459	0.789909	0.000137
C40	C	0.533459	0.675033	0.000138
C41	C	0.373457	1.128428	0.000093
C42	C	0.319155	1.128442	0.000079
C43	C	0.013700	0.996168	0.066274
C44	C	-0.037318	0.996160	0.066285
O45	O	-0.037135	0.883731	0.122542
N46	N	-0.094078	1.128355	0.000180
C47	C	-0.099819	1.260567	-0.065929
O48	O	-0.152782	1.373009	-0.122154
C49	C	-0.048801	1.260574	-0.065932
C50	C	0.007958	1.128370	0.000166
C51	C	0.070457	0.863974	0.132368
C52	C	0.121472	0.863983	0.132355
C53	C	0.115730	0.996185	0.066247
C54	C	0.058973	1.128378	0.000153
C55	C	-0.054543	1.392784	-0.132034
C56	C	-0.003518	1.392780	-0.132030
C57	C	0.053241	1.260575	-0.065932
C58	C	0.104246	1.260589	-0.065968
N59	N	0.161006	1.128393	0.000136
C60	C	0.166748	0.996191	0.066244
C61	C	-0.206958	1.260543	-0.065916
C62	C	-0.257975	1.260539	-0.065921
C63	C	-0.195471	0.996130	0.066295
C64	C	-0.144453	0.996137	0.066292
C65	C	-0.150198	1.128348	0.000189
C66	C	0.273880	0.996219	0.066210
C67	C	0.324897	0.996240	0.066187
C68	C	0.262388	1.260647	-0.066024
C69	C	0.211376	1.260628	-0.066007
C70	C	0.217126	1.128402	0.000120
O71	O	0.104109	1.372960	-0.122192
O72	O	0.219713	0.883768	0.122473
C73	C	0.693460	1.128349	0.000178
C74	C	0.747763	1.128336	0.000192
C75	C	0.533460	1.128387	-0.338342
C76	C	0.533460	1.128386	-0.453218
C77	C	0.533459	1.466868	0.000134
C78	C	0.533459	1.581745	0.000133
C79	C	0.533457	1.128390	0.338613
C80	C	0.533457	1.128391	0.453489
C81	C	0.693460	0.789870	0.000180
C82	C	0.747763	0.674980	0.000195
C83	C	0.533457	0.789911	0.338615
C84	C	0.533457	0.675035	0.453492
C85	C	0.693459	0.789872	0.338657
C86	C	0.747761	0.674982	0.453548
C87	C	0.373459	1.466906	-0.338386
C88	C	0.319156	1.581795	-0.453277
C89	C	0.373458	1.466908	0.000091
C90	C	0.319155	1.581798	0.000077
C91	C	0.533460	1.466866	-0.338344
C92	C	0.533460	1.581742	-0.453220
C93	C	0.742021	0.621033	-0.065912
C94	C	0.793039	0.513097	-0.065924
C95	C	0.849799	0.459101	0.000180
C96	C	0.855540	0.513058	0.066289
C97	C	0.804522	0.621000	0.066293
C98	C	0.804511	0.621021	0.441416
C99	C	0.855539	0.513085	0.549358
C100	C	0.849816	0.459105	0.669431
C101	C	0.793060	0.513077	0.681561
C102	C	0.742033	0.621018	0.573620
C103	C	0.262406	1.635770	-0.441145
C104	C	0.211378	1.743739	-0.549087
C105	C	0.217102	1.797725	-0.669160
C106	C	0.273858	1.743746	-0.681290
C107	C	0.324884	1.635786	-0.573349
C108	C	0.324897	1.635755	0.066172
C109	C	0.273878	1.743722	0.066154
C110	C	0.217118	1.797721	0.000046
C111	C	0.211377	1.743759	-0.066058
C112	C	0.262395	1.635802	-0.066046
H113	H	0.278571	0.888549	0.120058
C114	C	0.381503	1.646632	-0.714888
C115	C	0.387264	1.576446	-0.586698
H116	H	0.420014	1.609993	-0.723133
H117	H	0.360310	1.748524	-0.754227
H118	H	0.360288	1.628955	-0.754235
H119	H	0.408475	1.594132	-0.547353
H120	H	0.408467	1.474530	-0.547343
C121	C	0.961494	0.347539	0.124996
C122	C	0.917934	0.453683	0.138960
H123	H	1.000014	0.310871	0.169873
H124	H	0.957015	0.389667	0.038045
H125	H	0.957001	0.270079	0.157622
H126	H	0.922424	0.531148	0.106326
H127	H	0.922415	0.411556	0.225929
H128	H	0.891370	0.371212	0.757314
H129	H	0.371109	1.591797	0.120014
C130	C	0.673070	0.742357	0.653093
C131	C	0.679654	0.680308	0.586973
H132	H	0.634562	0.778946	0.661350
H133	H	0.677529	0.819860	0.608231
H134	H	0.702650	0.670334	0.734552
H135	H	0.650078	0.752334	0.505511
H136	H	0.675189	0.602797	0.631835
H137	H	0.257734	1.591821	-0.343385
H138	H	0.165170	1.787671	-0.539186
H139	H	0.809205	0.664909	0.120132
H140	H	0.891336	0.371206	0.000169
C141	C	0.110004	1.952420	-0.071957
C142	C	0.161041	1.916400	0.000030
H143	H	0.075387	2.025696	-0.071970
H144	H	0.109998	1.868227	-0.036566
H145	H	0.110011	1.987792	-0.156164
H146	H	0.161036	1.881018	0.084240
H147	H	0.161048	2.000610	-0.035357
H148	H	0.788408	0.469110	0.779339
H149	H	0.278564	1.787639	0.119988
C150	C	0.312840	1.470312	-0.124725
C151	C	0.256078	1.576479	-0.138686
H152	H	0.308935	1.433700	-0.169578
H153	H	0.334035	1.392833	-0.037772
H154	H	0.334039	1.512413	-0.157377
H155	H	0.234880	1.534375	-0.106025
H156	H	0.234873	1.653971	-0.225657
C157	C	0.109991	1.952342	-0.751782
C158	C	0.161008	1.916385	-0.787804
H159	H	0.075361	2.025588	-0.825026
H160	H	0.110002	1.987716	-0.702962
H161	H	0.110007	1.868106	-0.702945
H162	H	0.160994	2.000619	-0.836633
H163	H	0.160997	1.881015	-0.836645
H164	H	0.165157	1.787742	-0.119881
H165	H	0.809183	0.664955	0.343657
C166	C	-0.111176	1.654130	-0.262669
C167	C	-0.116925	1.538111	-0.204671
H168	H	-0.149690	1.743853	-0.307503
H169	H	-0.089989	1.648646	-0.319729
H170	H	-0.089959	1.648586	-0.200103
H171	H	-0.138138	1.543649	-0.267238
H172	H	-0.138122	1.543598	-0.147606
H173	H	0.371112	0.888579	0.120016
H174	H	-0.190803	0.888484	0.120120
H175	H	0.167684	0.756328	0.186174
C176	C	0.912162	0.523923	0.407816
C177	C	0.917920	0.453759	0.536005
H178	H	0.950672	0.487290	0.399573
H179	H	0.890961	0.625820	0.368459
H180	H	0.890953	0.506219	0.368484
H181	H	0.939125	0.471472	0.575335
H182	H	0.939130	0.351839	0.575378
H183	H	0.075142	0.756314	0.186207
H184	H	0.278511	1.787715	-0.779066
H185	H	-0.304187	1.368192	-0.119762
C186	C	-0.087808	0.734786	0.196985
C187	C	-0.082065	0.850815	0.138964
H188	H	-0.049293	0.645069	0.241860
H189	H	-0.109005	0.740285	0.134438
H190	H	-0.109013	0.740306	0.254024
H191	H	-0.060863	0.845302	0.081918
H192	H	-0.060859	0.845314	0.201519
H193	H	-0.211644	1.368212	-0.119752
H194	H	-0.008203	1.500445	-0.185845
H195	H	0.257723	1.368283	-0.119852
C196	C	0.154720	1.521984	-0.196728
C197	C	0.148983	1.405946	-0.138689
H198	H	0.116203	1.611697	-0.241592
H199	H	0.175919	1.516470	-0.253766
H200	H	0.175922	1.516491	-0.134181
H201	H	0.127785	1.411433	-0.201237
H202	H	0.127776	1.411463	-0.081646
H203	H	0.695809	0.664996	-0.119758
H204	H	0.788353	0.469178	-0.119757
