data_functionalizedCrystal
_audit_creation_method	'MofGen! by Chris Wilmer'
_symmetry_space_group_name_H-M	'P1'
_symmetry_Int_Tables_number	1
_symmetry_cell_setting	triclinic
loop_
_symmetry_equiv_pos_as_xyz
  x,y,z
_cell_length_a	19.288864
_cell_length_b	19.288859
_cell_length_c	18.366186
_cell_angle_alpha	90.003625
_cell_angle_beta	90.022894
_cell_angle_gamma	83.134987
loop_
_atom_site_label
_atom_site_type_symbol
_atom_site_fract_x
_atom_site_fract_y
_atom_site_fract_z
O1	O	0.921351	0.086649	0.060779
O2	O	0.719090	0.098338	0.060729
O3	O	0.826067	-0.008637	0.060755
O4	O	0.814374	0.193624	0.060752
O5	O	0.826049	-0.008643	-0.060344
O6	O	0.719072	0.098332	-0.060371
O7	O	0.921333	0.086644	-0.060320
Zn8	Zn	0.820199	0.092487	-0.079573
Zn9	Zn	0.820223	0.092494	0.079981
O10	O	0.814356	0.193619	-0.060347
C11	C	0.693204	0.097959	0.000173
C12	C	0.616101	0.096830	0.000153
C13	C	0.571403	0.159598	0.000164
C14	C	0.498956	0.158537	0.000172
C15	C	0.471210	0.094705	0.000184
C16	C	0.515918	0.031929	0.000170
C17	C	0.588363	0.032991	0.000154
C18	C	0.362955	0.044528	0.042636
C19	C	0.290511	0.043468	0.042656
C20	C	0.247765	0.091425	0.000228
C21	C	0.277470	0.140455	-0.042210
C22	C	0.349915	0.141517	-0.042225
C23	C	0.392656	0.093546	0.000200
C24	C	0.124511	0.153048	0.000247
C25	C	0.052063	0.151984	0.000250
C26	C	0.069026	0.025374	0.000255
C27	C	0.141472	0.026439	0.000244
C28	C	0.169210	0.090278	0.000243
C29	C	0.825682	-0.034516	0.000207
C30	C	0.824555	-0.111620	0.000212
C31	C	0.947218	0.087022	0.000237
C32	C	1.024322	0.088151	0.000261
C33	C	0.814740	0.219498	0.000203
C34	C	0.815868	0.296602	0.000203
N35	N	0.820188	0.092482	-0.188464
C36	C	0.760724	0.860642	0.000204
C37	C	0.759659	0.788196	0.000198
C38	C	0.822428	0.743489	0.000214
C39	C	0.886268	0.771234	0.000217
C40	C	0.887331	0.843679	0.000216
C41	C	0.869248	0.622219	0.042651
C42	C	0.868181	0.549775	0.042657
C43	C	0.819151	0.520043	0.000214
C44	C	0.771174	0.562765	-0.042225
C45	C	0.772238	0.635210	-0.042226
C46	C	0.821282	0.664933	0.000215
C47	C	0.754160	0.413752	0.000199
C48	C	0.753098	0.341303	0.000188
C49	C	0.879708	0.324343	0.000215
C50	C	0.880769	0.396790	0.000218
C51	C	0.817993	0.441490	0.000214
C52	C	0.867573	0.045137	-0.226552
C53	C	0.867577	0.045134	-0.302780
C54	C	0.820204	0.092488	-0.340917
C55	C	0.772810	0.139837	-0.302819
C56	C	0.772802	0.139834	-0.226593
C57	C	0.810904	0.155776	-0.461679
C58	C	0.810917	0.155780	-0.537904
C59	C	0.820223	0.092497	-0.576024
C60	C	0.829532	0.029207	-0.537910
C61	C	0.829525	0.029204	-0.461683
C62	C	0.820206	0.092496	-0.423571
C63	C	0.867616	0.045144	-0.696768
C64	C	0.867615	0.045140	-0.772997
C65	C	0.772851	0.139849	-0.773034
C66	C	0.772848	0.139847	-0.696806
C67	C	0.820234	0.092495	-0.658678
N68	N	0.820240	0.092494	0.188872
H69	H	0.462556	0.209652	0.000179
O70	O	0.381962	0.194368	-0.088024
H71	H	0.340074	0.227530	-0.117539
O72	O	0.039114	-0.043478	0.000263
H73	H	0.006545	-0.046996	0.049630
H74	H	0.906165	0.006578	-0.333798
O75	O	0.258473	-0.009418	0.088416
H76	H	0.300368	-0.042599	0.117901
H77	H	0.909178	0.646420	0.077215
O78	O	0.231378	0.192183	-0.087981
H79	H	0.176012	0.183204	-0.080851
H80	H	0.906156	0.006579	-0.195510
O81	O	0.918696	-0.005955	-0.655640
H82	H	0.910729	0.001996	-0.596236
O83	O	0.839552	-0.039051	-0.420571
H84	H	0.846019	-0.083059	-0.459878
O85	O	0.839566	-0.039057	-0.579011
H86	H	0.837997	-0.028426	-0.638419
O87	O	0.684246	0.311385	0.000172
H88	H	0.680746	0.278778	0.049524
H89	H	0.703044	0.450149	0.000190
O90	O	0.154437	0.221897	0.000231
H91	H	0.111181	0.265368	0.000226
H92	H	0.731248	0.538559	-0.076786
O93	O	0.721748	0.190920	-0.655717
H94	H	0.688810	0.223854	-0.695039
H95	H	0.177866	-0.024674	0.000240
H96	H	0.937375	0.734829	0.000229
O97	O	0.003847	0.219687	0.000259
H98	H	0.035310	0.264253	0.000262
H99	H	0.397755	0.005473	0.077190
O100	O	0.721698	0.190906	-0.185504
H101	H	0.688757	0.223838	-0.224825
H102	H	0.803341	0.207314	-0.568931
O103	O	0.721773	0.190934	-0.814170
H104	H	0.730462	0.245054	-0.799522
H105	H	0.803313	0.207312	-0.430648
O106	O	0.947409	0.276128	0.000229
H107	H	0.977953	0.285962	-0.049127
H108	H	0.932747	0.419373	0.000229
O109	O	0.485998	-0.036922	0.000183
H110	H	0.428112	-0.027116	0.000203
H111	H	0.707679	0.765608	0.000184
H112	H	0.734236	0.178392	-0.333873
O113	O	0.919936	0.503697	0.088412
H114	H	0.954222	0.536538	0.117908
H115	H	0.624757	-0.018124	0.000146
H116	H	0.709607	0.897034	0.000199
H117	H	0.906200	0.006582	-0.804009
H118	H	0.593982	0.211581	0.000165
H119	H	0.733175	0.669992	-0.076783
O120	O	0.956180	0.873603	0.000238
H121	H	0.999650	0.830348	0.000254
