data_functionalizedCrystal
_audit_creation_method	'MofGen! by Chris Wilmer'
_symmetry_space_group_name_H-M	'P1'
_symmetry_Int_Tables_number	1
_symmetry_cell_setting	triclinic
loop_
_symmetry_equiv_pos_as_xyz
  x,y,z
_cell_length_a	13.897449
_cell_length_b	21.295417
_cell_length_c	21.295411
_cell_angle_alpha	89.978356
_cell_angle_beta	89.976615
_cell_angle_gamma	90.031786
loop_
_atom_site_label
_atom_site_type_symbol
_atom_site_fract_x
_atom_site_fract_y
_atom_site_fract_z
Zn1	Zn	1.474642	-0.250659	-0.355892
Zn2	Zn	1.974642	0.249341	0.144108
Zn3	Zn	1.474492	-0.355911	-0.250617
Zn4	Zn	1.974492	0.144089	0.249383
Zn5	Zn	1.313324	-0.250662	-0.250639
Zn6	Zn	1.813324	0.249338	0.249361
Zn7	Zn	1.313277	-0.355897	-0.355851
Zn8	Zn	1.813277	0.144103	0.144149
O9	O	1.393934	-0.303283	-0.303250
O10	O	1.893934	0.196717	0.196750
O11	O	1.609604	-0.264626	-0.341935
O12	O	2.109604	0.235374	0.158065
O13	O	1.453070	-0.341957	-0.162531
O14	O	1.953070	0.158043	0.337469
O15	O	1.334805	-0.162572	-0.264627
O16	O	1.834805	0.337428	0.235373
O17	O	1.609494	-0.341954	-0.264590
O18	O	2.109494	0.158046	0.235410
O19	O	1.453325	-0.162570	-0.341956
O20	O	1.953325	0.337430	0.158044
O21	O	1.334660	-0.264631	-0.162547
O22	O	1.834660	0.235369	0.337453
O23	O	1.178336	-0.264617	-0.264588
O24	O	1.678336	0.235383	0.235412
O25	O	1.334725	-0.341930	-0.443946
O26	O	1.834725	0.158070	0.056054
O27	O	1.178301	-0.341933	-0.341886
O28	O	1.678301	0.158067	0.158114
O29	O	1.453279	-0.264612	-0.443976
O30	O	1.953279	0.235388	0.056024
O31	O	1.453025	-0.443999	-0.264550
O32	O	1.953025	0.056001	0.235450
O33	O	1.334580	-0.443988	-0.341865
O34	O	1.834580	0.056012	0.158135
C35	C	1.143319	-0.303274	-0.303235
C36	C	1.643319	0.196726	0.196765
C37	C	1.036105	-0.303286	-0.303244
C38	C	1.536105	0.196714	0.196756
C39	C	0.839810	-0.303288	-0.303261
C40	C	1.339810	0.196712	0.196739
C41	C	0.949043	-0.303285	-0.303250
C42	C	1.449043	0.196715	0.196750
C43	C	1.393807	-0.466834	-0.303215
C44	C	1.893807	0.033166	0.196785
C45	C	1.393841	-0.536802	-0.303221
C46	C	1.893841	-0.036802	0.196779
C47	C	1.455570	-0.569653	-0.263004
C48	C	1.955570	-0.069653	0.236996
C49	C	1.455615	-0.635396	-0.263018
C50	C	1.955615	-0.135396	0.236982
C51	C	1.393915	-0.668285	-0.303243
C52	C	1.893915	-0.168285	0.196757
C53	C	1.332181	-0.635426	-0.343467
C54	C	1.832181	-0.135426	0.156533
C55	C	1.332145	-0.569684	-0.343456
C56	C	1.832145	-0.069684	0.156544
N57	N	1.309534	-0.771553	-0.308037
N58	N	1.809534	-0.271553	0.191963
N59	N	1.309571	-0.834004	-0.308043
N60	N	1.809571	-0.334004	0.191957
C61	C	1.394023	-0.866359	-0.303279
C62	C	1.894023	-0.366359	0.196721
N63	N	1.478437	-0.833904	-0.298495
N64	N	1.978437	-0.333904	0.201505
N65	N	1.478398	-0.771447	-0.298485
N66	N	1.978398	-0.271447	0.201515
C67	C	1.393948	-0.739570	-0.303259
C68	C	1.893948	-0.239570	0.196741
C69	C	1.455806	-0.970496	-0.263075
C70	C	1.955806	-0.470496	0.236925
C71	C	1.455852	-1.036240	-0.263094
C72	C	1.955852	-0.536240	0.236906
C73	C	1.332410	-1.036268	-0.343539
C74	C	1.832410	-0.536268	0.156461
C75	C	1.332372	-0.970526	-0.343524
C76	C	1.832372	-0.470526	0.156476
C77	C	1.394068	-0.937644	-0.303289
C78	C	1.894068	-0.437644	0.196711
C79	C	1.645527	-0.303291	-0.303264
C80	C	2.145527	0.196709	0.196736
C81	C	1.752740	-0.303295	-0.303271
C82	C	2.252740	0.196705	0.196729
C83	C	1.394014	-0.303269	-0.467440
C84	C	1.894014	0.196731	0.032560
C85	C	1.394048	-0.303264	-0.537408
C86	C	1.894048	0.196736	-0.037408
C87	C	1.394087	-0.139092	-0.303298
C88	C	1.894087	0.360908	0.196702
C89	C	1.394152	-0.069124	-0.303319
C90	C	1.894152	0.430876	0.196681
C91	C	1.455776	-0.263002	-0.570291
C92	C	1.955776	0.236998	-0.070291
C93	C	1.455775	-0.262975	-0.636034
C94	C	1.955775	0.237025	-0.136034
C95	C	1.394055	-0.303220	-0.668891
C96	C	1.894055	0.196780	-0.168891
C97	C	1.332315	-0.343484	-0.635999
C98	C	1.832315	0.156516	-0.135999
C99	C	1.332311	-0.343506	-0.570258
C100	C	1.832311	0.156494	-0.070258
N101	N	1.386613	-0.358288	-0.772106
N102	N	1.886613	0.141712	-0.272106
N103	N	1.386622	-0.358266	-0.834558
N104	N	1.886622	0.141734	-0.334558
C105	C	1.394061	-0.303156	-0.866965
C106	C	1.894061	0.196844	-0.366965
N107	N	1.401510	-0.248069	-0.834563
N108	N	1.901510	0.251931	-0.334563
N109	N	1.401505	-0.248092	-0.772105
N110	N	1.901505	0.251908	-0.272105
C111	C	1.394052	-0.303201	-0.740176
C112	C	1.894052	0.196799	-0.240176
C113	C	1.455792	-0.262862	-0.971134
C114	C	1.955792	0.237138	-0.471134
C115	C	1.455784	-0.262834	-1.036878
C116	C	1.955784	0.237166	-0.536878
C117	C	1.332328	-0.343349	-1.036842
C118	C	1.832328	0.156651	-0.536842
C119	C	1.332331	-0.343371	-0.971100
C120	C	1.832331	0.156629	-0.471100
C121	C	1.394068	-0.303129	-0.938250
C122	C	1.894068	0.196871	-0.438250
C123	C	1.393909	-0.303250	-0.139698
C124	C	1.893909	0.196750	0.360302
C125	C	1.394062	-0.303079	-0.069730
C126	C	1.894062	0.196921	0.430270
H127	H	1.505809	-0.542883	-0.230244
H128	H	2.005809	-0.042883	0.269756
H129	H	1.281946	-0.662208	-0.376219
H130	H	1.781946	-0.162208	0.123781
H131	H	1.506046	-0.943722	-0.230315
H132	H	2.006046	-0.443722	0.269685
H133	H	1.506126	-1.062986	-0.230346
H134	H	2.006126	-0.562986	0.269654
Cl135	Cl	1.533363	-0.212345	-0.677382
Cl136	Cl	2.033363	0.287655	-0.177382
Cl137	Cl	1.533383	-0.212409	-0.528997
Cl138	Cl	2.033383	0.287591	-0.028997
H139	H	1.282065	-0.376110	-1.063594
H140	H	1.782065	0.123890	-0.563594
Cl141	Cl	1.254760	-0.929225	-0.394082
Cl142	Cl	1.754760	-0.429225	0.105918
Cl143	Cl	1.254849	-1.077608	-0.394112
Cl144	Cl	1.754849	-0.577608	0.105888
Cl145	Cl	1.533222	-0.676703	-0.212455
Cl146	Cl	2.033222	-0.176703	0.287545
Cl147	Cl	1.254720	-0.394076	-0.677304
Cl148	Cl	1.754720	0.105924	-0.177304
Cl149	Cl	1.254703	-0.394125	-0.528917
Cl150	Cl	1.754703	0.105875	-0.028917
Cl151	Cl	1.533397	-0.212270	-0.929834
Cl152	Cl	2.033397	0.287730	-0.429834
Cl153	Cl	1.254535	-0.528384	-0.394018
Cl154	Cl	1.754535	-0.028384	0.105982
Cl155	Cl	1.533408	-0.212225	-1.078218
Cl156	Cl	2.033408	0.287775	-0.578218
H157	H	1.282071	-0.376160	-0.944326
H158	H	1.782071	0.123840	-0.444326
