data_functionalizedCrystal
_audit_creation_method	'MofGen! by Chris Wilmer'
_symmetry_space_group_name_H-M	'P1'
_symmetry_Int_Tables_number	1
_symmetry_cell_setting	triclinic
loop_
_symmetry_equiv_pos_as_xyz
  x,y,z
_cell_length_a	17.699083
_cell_length_b	12.837942
_cell_length_c	16.176319
_cell_angle_alpha	89.994101
_cell_angle_beta	89.998611
_cell_angle_gamma	89.055978
loop_
_atom_site_label
_atom_site_type_symbol
_atom_site_fract_x
_atom_site_fract_y
_atom_site_fract_z
O1	O	1.013708	0.131067	-0.068629
O2	O	0.794582	0.148119	-0.068656
O3	O	0.899286	-0.011297	-0.068638
O4	O	0.909004	0.290484	-0.068647
O5	O	0.899269	-0.011307	0.068855
O6	O	0.794565	0.148109	0.068837
O7	O	1.013691	0.131057	0.068864
Cu8	Cu	0.904126	0.139582	0.081405
Cu9	Cu	0.904146	0.139594	-0.081197
O10	O	0.908987	0.290474	0.068846
C11	C	0.766332	0.147503	0.000087
C12	C	0.682179	0.145670	0.000077
C13	C	0.895995	-0.049915	0.000108
C14	C	0.886204	-0.164967	0.000105
C15	C	0.640432	0.239245	0.000074
C16	C	0.561362	0.237516	0.000085
C17	C	0.524040	0.142212	0.000092
C18	C	0.565792	0.048631	0.000097
C19	C	0.644861	0.050360	0.000093
C20	C	0.246916	0.041653	0.000118
C21	C	0.167842	0.039931	0.000120
C22	C	0.163418	0.228809	0.000111
C23	C	0.242486	0.230539	0.000106
C24	C	0.284232	0.136958	0.000115
C25	C	0.369969	0.138833	0.000105
C26	C	0.438304	0.140336	0.000097
C27	C	1.003908	-0.406222	0.000102
C28	C	0.994712	-0.514324	0.000100
C29	C	0.858617	-0.489277	0.000092
C30	C	0.867813	-0.381174	0.000094
C31	C	0.940461	-0.339651	0.000101
C32	C	0.949656	-0.231546	0.000109
C33	C	0.813561	-0.206501	0.000095
C34	C	0.804365	-0.314604	0.000093
C35	C	1.041941	0.131673	0.000119
C36	C	1.126094	0.133506	0.000124
C37	C	0.912278	0.329091	0.000099
C38	C	0.922069	0.444144	0.000096
N39	N	0.904118	0.139573	0.195770
N40	N	0.904160	0.139595	-0.195562
C41	C	0.950499	0.069012	0.239042
C42	C	0.950502	0.069011	0.325589
C43	C	0.904129	0.139577	0.368863
C44	C	0.857743	0.210141	0.325584
C45	C	0.857736	0.210136	0.239039
C46	C	0.857771	0.210161	0.674613
C47	C	0.857783	0.210162	0.761164
C48	C	0.950537	0.069035	0.761163
C49	C	0.950530	0.069031	0.674617
C50	C	0.904141	0.139591	0.631347
C51	C	0.904137	0.139590	0.537503
C52	C	0.904137	0.139584	0.462705
H53	H	0.670814	0.316852	0.000068
H54	H	0.527375	0.313714	0.000082
O55	O	0.278621	0.323207	0.000136
C56	C	0.224818	0.405430	0.000117
H57	H	0.169104	0.376511	0.026150
H58	H	0.246117	0.471976	0.040033
H59	H	0.215728	0.434293	-0.065846
O60	O	0.788013	-0.529496	0.000187
C61	C	0.748856	-0.495505	0.071402
H62	H	0.774877	-0.420583	0.095156
H63	H	0.686924	-0.480346	0.055376
H64	H	0.753105	-0.558097	0.121259
H65	H	1.008809	-0.197740	0.000117
O66	O	0.131671	-0.052717	0.000023
C67	C	0.152322	-0.109744	-0.071190
H68	H	0.209104	-0.081643	-0.094934
H69	H	0.157049	-0.196081	-0.055164
H70	H	0.107516	-0.097624	-0.121054
H71	H	0.280896	-0.034546	0.000126
O72	O	0.995460	0.000301	0.197066
C73	C	0.975757	-0.102260	0.218272
H74	H	0.915132	-0.102632	0.242057
H75	H	0.980710	-0.154324	0.161379
H76	H	1.015496	-0.132758	0.268524
H77	H	1.063061	-0.372413	0.000116
H78	H	0.745217	-0.348427	0.000084
O79	O	0.995450	0.000368	0.367656
C80	C	0.950329	-0.063498	0.417744
H81	H	0.890522	-0.065154	0.391675
H82	H	0.975273	-0.145929	0.418725
H83	H	0.948709	-0.031059	0.483335
H84	H	0.678850	-0.025837	0.000094
H85	H	0.129419	0.305007	0.000107
H86	H	0.535398	-0.028967	0.000115
H87	H	0.820018	0.267627	0.796396
H88	H	1.046378	-0.568524	0.000098
O89	O	0.752004	-0.141685	0.000054
C90	C	0.775695	-0.037365	0.000081
H91	H	0.835433	-0.033357	-0.025944
H92	H	0.735735	0.011725	-0.039838
H93	H	0.775073	-0.006107	0.066045
H94	H	0.820001	0.267615	0.639388
H95	H	0.988294	0.011573	0.639387
H96	H	0.988306	0.011578	0.796403
O97	O	0.812766	0.278650	0.367746
C98	C	0.822704	0.263511	0.453413
H99	H	0.880076	0.224671	0.465230
H100	H	0.819946	0.342018	0.486294
H101	H	0.776128	0.211602	0.477987
O102	O	0.812663	0.278782	0.197130
C103	C	0.771720	0.341051	0.253880
H104	H	0.802836	0.342174	0.315568
H105	H	0.766138	0.423840	0.228864
H106	H	0.713082	0.307492	0.263097
