data_functionalizedCrystal
_audit_creation_method	'MofGen! by Chris Wilmer'
_symmetry_space_group_name_H-M	'P1'
_symmetry_Int_Tables_number	1
_symmetry_cell_setting	triclinic
loop_
_symmetry_equiv_pos_as_xyz
  x,y,z
_cell_length_a	19.121112
_cell_length_b	19.121111
_cell_length_c	17.077396
_cell_angle_alpha	92.410841
_cell_angle_beta	92.457677
_cell_angle_gamma	89.871706
loop_
_atom_site_label
_atom_site_type_symbol
_atom_site_fract_x
_atom_site_fract_y
_atom_site_fract_z
Zn1	Zn	1.059843	0.324899	0.509778
Zn2	Zn	1.393176	0.658233	0.843112
Zn3	Zn	1.726509	0.991566	1.176445
Zn4	Zn	1.054746	0.442138	0.383855
Zn5	Zn	1.388079	0.775472	0.717188
Zn6	Zn	1.721412	1.108805	1.050521
Zn7	Zn	0.942605	0.319914	0.372707
Zn8	Zn	1.275938	0.653247	0.706041
Zn9	Zn	1.609271	0.986581	1.039374
Zn10	Zn	0.937565	0.437089	0.509259
Zn11	Zn	1.270898	0.770423	0.842592
Zn12	Zn	1.604232	1.103756	1.175926
O13	O	0.998689	0.381010	0.443900
O14	O	1.332023	0.714344	0.777233
O15	O	1.665356	1.047677	1.110566
O16	O	1.157271	0.344651	0.497957
O17	O	1.490605	0.677984	0.831290
O18	O	1.823938	1.011317	1.164624
O19	O	1.039846	0.425952	0.272529
O20	O	1.373179	0.759285	0.605862
O21	O	1.706513	1.092618	0.939196
O22	O	0.962399	0.222472	0.386442
O23	O	1.295732	0.555805	0.719775
O24	O	1.629066	0.889139	1.053109
O25	O	1.153527	0.430786	0.405441
O26	O	1.486860	0.764119	0.738775
O27	O	1.820193	1.097452	1.072108
O28	O	1.048533	0.226135	0.487148
O29	O	1.381866	0.559468	0.820481
O30	O	1.715200	0.892801	1.153814
O31	O	0.957457	0.336154	0.264339
O32	O	1.290790	0.669487	0.597672
O33	O	1.624123	1.002821	0.931006
O34	O	0.843831	0.331258	0.385938
O35	O	1.177165	0.664592	0.719272
O36	O	1.510498	0.997925	1.052605
O37	O	0.953809	0.422180	0.619175
O38	O	1.287143	0.755514	0.952508
O39	O	1.620476	1.088847	1.285841
O40	O	0.840129	0.417346	0.486262
O41	O	1.173462	0.750680	0.819596
O42	O	1.506795	1.084013	1.152929
O43	O	1.043646	0.339755	0.619556
O44	O	1.376979	0.673088	0.952890
O45	O	1.710313	1.006421	1.286223
O46	O	1.034959	0.539572	0.404938
O47	O	1.368292	0.872905	0.738271
O48	O	1.701626	1.206239	1.071604
O49	O	0.948867	0.535862	0.497072
O50	O	1.282200	0.869196	0.830405
O51	O	1.615534	1.202529	1.163738
C52	C	0.816543	0.373214	0.434835
C53	C	1.149876	0.706547	0.768168
C54	C	1.483209	1.039881	1.101502
C55	C	0.738619	0.369896	0.430976
C56	C	1.071952	0.703229	0.764310
C57	C	1.405285	1.036562	1.097643
C58	C	0.297993	0.348843	0.406535
C59	C	0.631327	0.682176	0.739869
C60	C	0.964660	1.015509	1.073202
C61	C	0.371211	0.351965	0.410165
C62	C	0.704544	0.685298	0.743499
C63	C	1.037878	1.018631	1.076832
C64	C	0.405905	0.398421	0.464135
C65	C	0.739238	0.731754	0.797469
C66	C	1.072571	1.065087	1.130802
C67	C	0.367377	0.441753	0.514484
C68	C	0.700711	0.775086	0.847818
C69	C	1.034044	1.108420	1.181151
C70	C	0.294161	0.438627	0.510858
C71	C	0.627494	0.771960	0.844191
C72	C	0.960828	1.105294	1.177524
C73	C	0.626875	0.410102	0.477698
C74	C	0.960208	0.743435	0.811032
C75	C	1.293541	1.076768	1.144365
C76	C	0.700096	0.413226	0.481320
C77	C	1.033430	0.746559	0.814653
C78	C	1.366763	1.079893	1.147986
C79	C	0.703925	0.323436	0.377001
C80	C	1.037258	0.656770	0.710335
C81	C	1.370591	0.990103	1.043668
C82	C	0.630707	0.320317	0.373376
C83	C	0.964040	0.653651	0.706710
C84	C	1.297374	0.986984	1.040043
C85	C	0.592186	0.363647	0.423728
C86	C	0.925519	0.696980	0.757061
C87	C	1.258853	1.030314	1.090394
C88	C	0.480745	0.401615	0.467845
C89	C	0.814078	0.734948	0.801179
C90	C	1.147412	1.068281	1.134512
C91	C	0.517347	0.360449	0.420021
C92	C	0.850681	0.693782	0.753354
C93	C	1.184014	1.027116	1.086688
C94	C	0.990832	0.563155	0.452176
C95	C	1.324165	0.896488	0.785509
C96	C	1.657499	1.229822	1.118843
C97	C	0.987535	0.641080	0.455746
C98	C	1.320868	0.974413	0.789079
C99	C	1.654201	1.307747	1.122413
C100	C	1.030844	0.679599	0.409497
C101	C	1.364177	1.012932	0.742831
C102	C	1.697511	1.346266	1.076164
C103	C	1.027747	0.752818	0.412860
C104	C	1.361080	1.086151	0.746193
C105	C	1.694414	1.419485	1.079527
C106	C	0.981337	0.787517	0.462467
C107	C	1.314670	1.120850	0.795801
C108	C	1.648003	1.454183	1.129134
C109	C	0.938026	0.748992	0.508721
C110	C	1.271359	1.082326	0.842055
C111	C	1.604692	1.415659	1.175388
C112	C	0.941127	0.675775	0.505362
C113	C	1.274460	1.009108	0.838696
C114	C	1.607793	1.342442	1.172029
C115	C	0.969733	1.008490	0.475010
C116	C	1.303066	1.341824	0.808344
C117	C	1.636399	1.675157	1.141677
C118	C	0.966634	1.081713	0.478364
C119	C	1.299967	1.415046	0.811697
C120	C	1.633300	1.748380	1.145031
C121	C	1.056356	1.085534	0.382503
C122	C	1.389690	1.418867	0.715837
C123	C	1.723023	1.752200	1.049170
C124	C	1.059450	1.012314	0.379145
C125	C	1.392783	1.345648	0.712479
C126	C	1.726117	1.678981	1.045812
C127	C	1.016142	0.973797	0.425402
C128	C	1.349475	1.307130	0.758736
C129	C	1.682808	1.640464	1.092069
C130	C	0.978169	0.862358	0.465904
C131	C	1.311502	1.195691	0.799237
C132	C	1.644835	1.529025	1.132570
C133	C	1.019314	0.898957	0.421970
C134	C	1.352647	1.232290	0.755303
C135	C	1.685981	1.565624	1.088636
C136	C	1.181548	0.388837	0.453001
C137	C	1.514881	0.722171	0.786334
C138	C	1.848214	1.055504	1.119667
C139	C	1.259471	0.392173	0.456879
C140	C	1.592804	0.725506	0.790212
C141	C	1.926138	1.058840	1.123546
C142	C	0.998734	0.380960	0.648644
C143	C	1.332067	0.714294	0.981977
C144	C	1.665401	1.047627	1.315311
C145	C	0.998753	0.380939	0.735894
C146	C	1.332086	0.714273	1.069227
C147	C	1.665420	1.047606	1.402560
C148	C	1.006591	1.198155	0.435619
C149	C	1.339924	1.531488	0.768952
C150	C	1.673257	1.864821	1.102286
C151	C	1.009943	1.120232	0.432115
C152	C	1.343276	1.453565	0.765449
C153	C	1.676610	1.786899	1.098782
C154	C	0.998688	0.381011	0.239952
C155	C	1.332021	0.714344	0.573285
C156	C	1.665354	1.047678	0.906619
C157	C	0.998813	0.380841	0.152700
C158	C	1.332146	0.714174	0.486034
C159	C	1.665479	1.047507	0.819367
C160	C	1.045533	0.338016	0.777084
C161	C	1.378866	0.671350	1.110417
C162	C	1.712200	1.004683	1.443750
C163	C	1.045542	0.337994	0.859064
C164	C	1.378876	0.671327	1.192397
C165	C	1.712209	1.004660	1.525730
C166	C	0.998775	0.380897	0.899852
C167	C	1.332108	0.714231	1.233186
C168	C	1.665441	1.047564	1.566519
C169	C	0.951990	0.423822	0.858656
C170	C	1.285323	0.757155	1.191990
C171	C	1.618657	1.090489	1.525323
C172	C	0.951978	0.423841	0.776678
C173	C	1.285311	0.757174	1.110011
C174	C	1.618644	1.090507	1.443344
C175	C	0.952020	0.423781	1.029526
C176	C	1.285353	0.757114	1.362859
C177	C	1.618687	1.090448	1.696193
C178	C	0.952033	0.423763	1.111510
C179	C	1.285366	0.757097	1.444844
C180	C	1.618700	1.090430	1.778177
C181	C	1.045585	0.337934	1.111912
C182	C	1.378918	0.671267	1.445245
C183	C	1.712251	1.004600	1.778579
C184	C	1.045572	0.337953	1.029933
C185	C	1.378906	0.671286	1.363267
C186	C	1.712239	1.004619	1.696600
C187	C	0.998788	0.380878	0.988743
C188	C	1.332122	0.714211	1.322076
C189	C	1.665455	1.047545	1.655410
H190	H	0.395631	0.479576	0.558431
H191	H	0.728964	0.812909	0.891765
H192	H	1.062298	1.146242	1.225098
H193	H	0.900240	0.777250	0.549116
H194	H	1.233574	1.110583	0.882450
H195	H	1.566907	1.443917	1.215783
Cl196	Cl	0.886681	0.627351	0.563509
Cl197	Cl	1.220014	0.960684	0.896842
Cl198	Cl	1.553347	1.294018	1.230176
H199	H	0.595520	0.445386	0.518696
H200	H	0.928853	0.778720	0.852029
H201	H	1.262186	1.112053	1.185362
H202	H	1.057104	0.870703	0.381582
H203	H	1.390437	1.204037	0.714915
H204	H	1.723771	1.537370	1.048249
Cl205	Cl	0.893164	0.477801	0.724895
Cl206	Cl	1.226498	0.811134	1.058229
Cl207	Cl	1.559831	1.144467	1.391562
H208	H	0.940380	0.890618	0.506293
H209	H	1.273713	1.223951	0.839626
H210	H	1.607046	1.557284	1.172959
H211	H	1.083619	0.303081	0.743880
H212	H	1.416952	0.636415	1.077213
H213	H	1.750285	0.969748	1.410546
H214	H	0.928849	1.109963	0.518774
H215	H	1.262183	1.443296	0.852108
H216	H	1.595516	1.776629	1.185441
Cl217	Cl	1.104384	0.284063	0.910845
Cl218	Cl	1.437717	0.617397	1.244178
Cl219	Cl	1.771050	0.950730	1.577512
H220	H	0.402573	0.316684	0.369167
H221	H	0.735906	0.650017	0.702500
H222	H	1.069239	0.983350	1.035834
Cl223	Cl	1.104371	0.284020	0.978657
Cl224	Cl	1.437704	0.617353	1.311991
Cl225	Cl	1.771037	0.950686	1.645324
Cl226	Cl	1.104400	0.283971	1.163693
Cl227	Cl	1.437733	0.617304	1.497027
Cl228	Cl	1.771066	0.950638	1.830360
H229	H	0.913913	0.458724	0.995990
H230	H	1.247246	0.792057	1.329324
H231	H	1.580580	1.125391	1.662657
H232	H	0.602464	0.282493	0.329423
H233	H	0.935797	0.615826	0.662756
H234	H	1.269131	0.949160	0.996089
H235	H	0.913949	0.458698	1.144718
H236	H	1.247283	0.792031	1.478051
H237	H	1.580616	1.125364	1.811385
H238	H	0.913909	0.458752	0.891873
H239	H	1.247242	0.792086	1.225206
H240	H	1.580575	1.125419	1.558539
H241	H	0.269751	0.311014	0.362586
H242	H	0.603084	0.644347	0.695919
H243	H	0.936418	0.977680	1.029253
H244	H	0.728342	0.451056	0.525273
H245	H	1.061675	0.784390	0.858606
H246	H	1.395008	1.117723	1.191940
Cl247	Cl	0.752355	0.268965	0.313710
Cl248	Cl	1.085689	0.602299	0.647043
Cl249	Cl	1.419022	0.935632	0.980377
H250	H	0.262797	0.473909	0.551855
H251	H	0.596130	0.807243	0.885188
H252	H	0.929464	1.140576	1.218521
H253	H	0.489096	0.322622	0.376082
H254	H	0.822430	0.655955	0.709415
H255	H	1.155763	0.989289	1.042748
H256	H	0.509001	0.439441	0.511786
H257	H	0.842334	0.772775	0.845119
H258	H	1.175667	1.106108	1.178453
H259	H	1.068633	0.651352	0.369098
H260	H	1.401966	0.984686	0.702432
H261	H	1.735300	1.318019	1.035765
H262	H	1.063014	0.784177	0.375199
H263	H	1.396347	1.117510	0.708532
H264	H	1.729680	1.450844	1.041865
H265	H	1.091616	1.116902	0.344845
H266	H	1.424950	1.450236	0.678178
H267	H	1.758283	1.783569	1.011511
Cl268	Cl	1.117807	0.968699	0.316791
Cl269	Cl	1.451140	1.302033	0.650124
Cl270	Cl	1.784473	1.635366	0.983457
H271	H	0.934468	0.977135	0.512673
H272	H	1.267801	1.310468	0.846006
H273	H	1.601135	1.643802	1.179340
