data_functionalizedCrystal
_audit_creation_method	'MofGen! by Chris Wilmer'
_symmetry_space_group_name_H-M	'P1'
_symmetry_Int_Tables_number	1
_symmetry_cell_setting	triclinic
loop_
_symmetry_equiv_pos_as_xyz
  x,y,z
_cell_length_a	19.188940
_cell_length_b	17.699083
_cell_length_c	16.776229
_cell_angle_alpha	90.001114
_cell_angle_beta	89.992904
_cell_angle_gamma	96.784135
loop_
_atom_site_label
_atom_site_type_symbol
_atom_site_fract_x
_atom_site_fract_y
_atom_site_fract_z
O1	O	0.088294	-1.003966	-0.066177
O2	O	0.588294	-0.503966	0.433823
O3	O	0.099781	-0.783572	-0.066203
O4	O	0.599781	-0.283572	0.433797
O5	O	-0.007611	-0.900125	-0.066183
O6	O	0.492389	-0.400125	0.433817
O7	O	0.195686	-0.887413	-0.066197
O8	O	0.695686	-0.387413	0.433803
O9	O	-0.007617	-0.900110	0.066393
O10	O	0.492383	-0.400110	0.566393
O11	O	0.099775	-0.783557	0.066373
O12	O	0.599775	-0.283557	0.566373
O13	O	0.088287	-1.003950	0.066399
O14	O	0.588287	-0.503950	0.566399
Zn15	Zn	0.094030	-0.893751	0.087436
Zn16	Zn	0.594030	-0.393751	0.587436
Zn17	Zn	0.094039	-0.893771	-0.087240
Zn18	Zn	0.594039	-0.393771	0.412760
O19	O	0.195679	-0.887397	0.066379
O20	O	0.695679	-0.387397	0.566379
C21	C	0.099366	-0.755368	0.000081
C22	C	0.599366	-0.255368	0.500081
C23	C	0.098131	-0.671352	0.000072
C24	C	0.598131	-0.171352	0.500072
C25	C	-0.033625	-0.899705	0.000105
C26	C	0.466375	-0.399705	0.500105
C27	C	-0.111131	-0.898465	0.000104
C28	C	0.388869	-0.398465	0.500104
C29	C	0.088702	-1.032154	0.000113
C30	C	0.588702	-0.532154	0.500113
C31	C	0.089937	-1.116171	0.000117
C32	C	0.589937	-0.616171	0.500117
C33	C	-0.664403	-0.889639	0.072352
C34	C	-0.164403	-0.389639	0.572352
C35	C	-0.591578	-0.890795	0.072356
C36	C	-0.091578	-0.390795	0.572356
C37	C	-0.555154	-0.891385	0.000090
C38	C	-0.055154	-0.391385	0.500090
C39	C	-0.591559	-0.890799	-0.072187
C40	C	-0.091559	-0.390799	0.427813
C41	C	-0.664383	-0.889636	-0.072189
C42	C	-0.164383	-0.389636	0.427811
N43	N	-0.446077	-0.936287	-0.053694
N44	N	0.053923	-0.436287	0.446306
N45	N	-0.376898	-0.937395	-0.053687
N46	N	0.123102	-0.437395	0.446313
C47	C	-0.335741	-0.894891	0.000093
C48	C	0.164259	-0.394891	0.500093
N49	N	-0.366377	-0.851247	0.053878
N50	N	0.133623	-0.351247	0.553878
N51	N	-0.435563	-0.850143	0.053873
N52	N	0.064437	-0.350143	0.553873
C53	C	-0.476189	-0.892647	0.000084
C54	C	0.023811	-0.392647	0.500084
C55	C	-0.220377	-0.896725	0.072370
C56	C	0.279623	-0.396725	0.572370
C57	C	-0.147550	-0.897876	0.072371
C58	C	0.352450	-0.397876	0.572371
C59	C	-0.147534	-0.897888	-0.072174
C60	C	0.352466	-0.397888	0.427826
C61	C	-0.220359	-0.896729	-0.072173
C62	C	0.279641	-0.396729	0.427827
C63	C	-0.256777	-0.896151	0.000101
C64	C	0.243223	-0.396151	0.500101
C65	C	0.221694	-0.887818	0.000089
C66	C	0.721694	-0.387818	0.500089
C67	C	0.299199	-0.889057	0.000085
C68	C	0.799199	-0.389057	0.500085
N69	N	0.094024	-0.893743	0.206647
N70	N	0.594024	-0.393743	0.706647
C71	C	0.161168	-0.622650	0.000068
C72	C	0.661168	-0.122650	0.500068
C73	C	0.160004	-0.543708	0.000078
C74	C	0.660004	-0.043708	0.500078
C75	C	0.095802	-0.513470	0.000087
C76	C	0.595802	-0.013470	0.500087
C77	C	0.032760	-0.562178	0.000093
C78	C	0.532760	-0.062178	0.500093
C79	C	0.033926	-0.641118	0.000088
C80	C	0.533926	-0.141118	0.500088
C81	C	0.028060	-0.243820	0.000113
C82	C	0.528060	0.256180	0.500113
C83	C	0.026900	-0.164874	0.000115
C84	C	0.526900	0.335126	0.500115
C85	C	0.154138	-0.146411	0.000103
C86	C	0.654138	0.353589	0.500103
C87	C	0.155303	-0.225351	0.000098
C88	C	0.655303	0.274649	0.500098
C89	C	0.092262	-0.274052	0.000109
C90	C	0.592262	0.225948	0.500109
C91	C	0.093526	-0.359650	0.000099
C92	C	0.593526	0.140350	0.500099
C93	C	0.094538	-0.427874	0.000091
C94	C	0.594538	0.072126	0.500091
N95	N	0.094039	-0.893786	-0.206451
N96	N	0.594039	-0.393786	0.293549
C97	C	0.046490	-0.945368	0.248373
C98	C	0.546490	-0.445368	0.748373
C99	C	0.046489	-0.945372	0.331825
C100	C	0.546489	-0.445372	0.831825
C101	C	0.094026	-0.893754	0.373550
C102	C	0.594026	-0.393754	0.873550
C103	C	0.141562	-0.842124	0.331818
C104	C	0.641562	-0.342124	0.831818
C105	C	0.141559	-0.842116	0.248367
C106	C	0.641559	-0.342116	0.748367
C107	C	0.141576	-0.842151	0.668365
C108	C	0.641576	-0.342151	1.168365
C109	C	0.141577	-0.842164	0.751822
C110	C	0.641577	-0.342164	1.251822
C111	C	0.046506	-0.945407	0.751823
C112	C	0.546506	-0.445407	1.251823
C113	C	0.046503	-0.945400	0.668372
C114	C	0.546503	-0.445400	1.168372
C115	C	0.094036	-0.893767	0.626648
C116	C	0.594036	-0.393767	1.126648
C117	C	0.094035	-0.893762	0.536159
C118	C	0.594035	-0.393762	1.036159
C119	C	0.094031	-0.893762	0.464036
C120	C	0.594031	-0.393762	0.964036
H121	H	-0.694050	-0.889167	0.131203
H122	H	-0.194050	-0.389167	0.631203
C123	C	0.225930	-0.258609	0.000093
C124	C	0.725930	0.241391	0.500093
N125	N	0.279128	-0.283657	0.000095
N126	N	0.779128	0.216343	0.500095
H127	H	0.007797	-0.987434	0.634402
H128	H	0.507797	-0.487434	1.134402
C129	C	0.193855	-0.785331	0.202469
C130	C	0.693855	-0.285331	0.702469
N131	N	0.233247	-0.742558	0.167900
N132	N	0.733247	-0.242558	0.667900
H133	H	-0.561935	-0.891254	0.131206
H134	H	-0.061935	-0.391254	0.631206
C135	C	0.193869	-0.785372	0.797717
C136	C	0.693869	-0.285372	1.297717
N137	N	0.233253	-0.742598	0.832286
N138	N	0.733253	-0.242598	1.332286
H139	H	0.180280	-0.800111	0.634400
H140	H	0.680280	-0.300111	1.134400
H141	H	0.180265	-0.800091	0.365795
H142	H	0.680265	-0.300091	0.865795
H143	H	0.205469	-0.106749	0.000098
H144	H	0.705469	0.393251	0.500098
H145	H	-0.561898	-0.891277	-0.131027
H146	H	-0.061898	-0.391277	0.368973
H147	H	0.007800	-0.987447	0.785804
H148	H	0.507800	-0.487447	1.285804
H149	H	0.211335	-0.504058	0.000074
H150	H	0.711335	-0.004058	0.500074
H151	H	-0.025384	-0.140257	0.000124
H152	H	0.474616	0.359743	0.500124
C153	C	-0.704425	-0.889024	-0.151692
C154	C	-0.204425	-0.389024	0.348308
N155	N	-0.734586	-0.888574	-0.211575
N156	N	-0.234586	-0.388574	0.288425
C157	C	-0.041287	-0.297381	0.000120
C158	C	0.458713	0.202619	0.500120
N159	N	-0.093523	-0.337727	0.000123
N160	N	0.406477	0.162273	0.500123
C161	C	-0.035420	-0.694690	0.000090
C162	C	0.464580	-0.194690	0.500090
N163	N	-0.087653	-0.735040	0.000094
N164	N	0.412347	-0.235040	0.500094
C165	C	-0.107471	-0.898535	-0.151668
C166	C	0.392529	-0.398535	0.348332
N167	N	-0.077293	-0.899021	-0.211545
N168	N	0.422707	-0.399021	0.288455
H169	H	-0.250030	-0.896247	0.131219
H170	H	0.249970	-0.396247	0.631219
C171	C	-0.037862	-0.528912	0.000104
C172	C	0.462138	-0.028912	0.500104
N173	N	-0.091057	-0.503858	0.000109
N174	N	0.408943	-0.003858	0.500109
C175	C	-0.005818	-1.002146	0.377720
C176	C	0.494182	-0.502146	0.877720
N177	N	-0.045225	-1.044904	0.412287
N178	N	0.454775	-0.544904	0.912287
C179	C	-0.260403	-0.896136	-0.151674
C180	C	0.239597	-0.396136	0.348326
N181	N	-0.290566	-0.895702	-0.211557
N182	N	0.209434	-0.395702	0.288443
C183	C	-0.107512	-0.898512	0.151875
C184	C	0.392488	-0.398512	0.651875
N185	N	-0.077356	-0.898992	0.211759
N186	N	0.422644	-0.398992	0.711759
H187	H	0.213449	-0.647264	0.000060
H188	H	0.713449	-0.147264	0.500060
H189	H	0.007783	-0.987404	0.214406
H190	H	0.507783	-0.487404	0.714406
