data_functionalizedCrystal
_audit_creation_method	'MofGen! by Chris Wilmer'
_symmetry_space_group_name_H-M	'P1'
_symmetry_Int_Tables_number	1
_symmetry_cell_setting	triclinic
loop_
_symmetry_equiv_pos_as_xyz
  x,y,z
_cell_length_a	14.044220
_cell_length_b	10.654550
_cell_length_c	9.730223
_cell_angle_alpha	90.003749
_cell_angle_beta	89.997406
_cell_angle_gamma	91.163110
loop_
_atom_site_label
_atom_site_type_symbol
_atom_site_fract_x
_atom_site_fract_y
_atom_site_fract_z
O1	O	0.133227	-1.681222	-0.114408
O2	O	0.145921	-1.317019	-0.114387
O3	O	0.001554	-1.493654	-0.114384
O4	O	0.277595	-1.504587	-0.114411
O5	O	0.001557	-1.493652	0.114196
O6	O	0.145925	-1.317017	0.114193
O7	O	0.133231	-1.681220	0.114172
Zn8	Zn	0.139578	-1.499118	0.150474
Zn9	Zn	0.139574	-1.499121	-0.150689
O10	O	0.277598	-1.504585	0.114169
C11	C	0.144991	-1.270127	-0.000094
C12	C	0.142202	-1.130403	-0.000085
C13	C	-0.033790	-1.488867	-0.000093
C14	C	-0.139110	-1.474592	-0.000090
C15	C	0.134161	-1.728113	-0.000124
C16	C	0.136950	-1.867836	-0.000142
C17	C	-0.331943	-1.448493	-0.000108
C18	C	-0.388911	-1.549741	-0.000119
C19	C	-0.496210	-1.535219	-0.000129
C20	C	-0.224634	-1.463013	-0.000098
C21	C	0.312942	-1.509372	-0.000125
C22	C	0.418262	-1.523648	-0.000137
N23	N	0.139581	-1.499126	0.356011
C24	C	0.227203	-1.059459	-0.000114
C25	C	0.224578	-0.928175	-0.000137
C26	C	0.051942	-0.938790	-0.000109
C27	C	0.054569	-1.070072	-0.000076
C28	C	0.326873	-1.053329	-0.000136
C29	C	0.324247	-0.922045	-0.000159
N30	N	0.139563	-1.499123	-0.356226
C31	C	0.075677	-1.577364	0.427938
C32	C	0.075666	-1.577359	0.571821
C33	C	0.203470	-1.420876	0.571837
C34	C	0.203477	-1.420875	0.427956
C35	C	0.001893	-1.667713	0.427931
C36	C	0.001881	-1.667708	0.571814
H37	H	-0.357098	-1.647328	-0.000217
C38	C	0.379533	-1.098252	0.129098
N39	N	0.419194	-1.132087	0.226437
C40	C	-0.374919	-1.316665	-0.000083
N41	N	-0.407299	-1.217373	-0.000052
C42	C	0.369728	-1.105815	-0.133472
N43	N	0.401998	-1.145349	-0.233908
C44	C	-0.091192	-1.617119	0.632107
N45	N	-0.161290	-1.579007	0.677521
H46	H	0.361800	-0.884087	-0.095831
H47	H	0.354370	-0.879400	0.098522
C48	C	-0.038939	-1.148106	-0.000025
N49	N	-0.109373	-1.206881	0.000014
H50	H	-0.019406	-0.889652	-0.000123
H51	H	0.255504	-1.357156	0.369394
C52	C	0.273750	-1.334802	0.650990
N53	N	0.326686	-1.269969	0.710607
H54	H	0.024996	-1.761218	0.383296
H55	H	-0.071017	-1.638943	0.388885
H56	H	0.018134	-1.765853	0.610857
