data_functionalizedCrystal
_audit_creation_method	'MofGen! by Chris Wilmer'
_symmetry_space_group_name_H-M	'P1'
_symmetry_Int_Tables_number	1
_symmetry_cell_setting	triclinic
loop_
_symmetry_equiv_pos_as_xyz
  x,y,z
_cell_length_a	10.723024
_cell_length_b	9.730223
_cell_length_c	10.723024
_cell_angle_alpha	90.001141
_cell_angle_beta	95.532131
_cell_angle_gamma	90.002551
loop_
_atom_site_label
_atom_site_type_symbol
_atom_site_fract_x
_atom_site_fract_y
_atom_site_fract_z
O1	O	1.657186	0.114277	-0.175019
O2	O	2.157186	0.614277	0.324981
O3	O	1.294034	0.114282	-0.191772
O4	O	1.794034	0.614282	0.308228
O5	O	1.483987	0.114274	-0.001819
O6	O	1.983987	0.614274	0.498181
O7	O	1.467234	0.114285	-0.364972
O8	O	1.967234	0.614285	0.135028
O9	O	1.483975	-0.114306	-0.001830
O10	O	1.983975	0.385694	0.498170
O11	O	1.294022	-0.114298	-0.191783
O12	O	1.794022	0.385702	0.308217
O13	O	1.657174	-0.114303	-0.175030
O14	O	2.157174	0.385697	0.324970
Zn15	Zn	1.475596	-0.150593	-0.183408
Zn16	Zn	1.975596	0.349407	0.316592
Zn17	Zn	1.475612	0.150571	-0.183394
Zn18	Zn	1.975612	0.650571	0.316606
O19	O	1.467221	-0.114295	-0.364982
O20	O	1.967221	0.385705	0.135018
C21	C	1.247528	-0.000008	-0.190558
C22	C	1.747528	0.499992	0.309442
C23	C	1.108974	-0.000006	-0.186911
C24	C	1.608974	0.499994	0.313089
N25	N	1.475594	-0.356129	-0.183417
N26	N	1.975594	0.143871	0.316583
C27	C	1.033991	-0.000002	-0.293198
C28	C	1.533991	0.499998	0.206802
C29	C	0.890788	-0.000001	-0.289431
C30	C	1.390788	0.499999	0.210569
C31	C	1.551923	-0.428067	-0.259790
C32	C	2.051923	0.071933	0.240210
C33	C	1.551941	-0.571950	-0.259767
C34	C	2.051941	-0.071950	0.240233
C35	C	1.399292	-0.571944	-0.106993
C36	C	1.899292	-0.071944	0.393007
C37	C	1.399281	-0.428064	-0.107011
C38	C	1.899281	0.071936	0.392989
C39	C	1.628236	-0.356132	-0.336196
C40	C	2.128236	0.143868	0.163804
C41	C	1.704570	-0.428070	-0.412576
C42	C	2.204570	0.071930	0.087424
C43	C	1.704588	-0.571953	-0.412553
C44	C	2.204588	-0.071953	0.087447
C45	C	1.628273	-0.643898	-0.336149
C46	C	2.128273	-0.143898	0.163851
C47	C	1.703680	-0.000010	-0.176243
C48	C	2.203680	0.499990	0.323757
C49	C	1.842234	-0.000003	-0.179891
C50	C	2.342234	0.499997	0.320109
C51	C	1.482762	-0.000014	0.044675
C52	C	1.982762	0.499986	0.544675
C53	C	1.479114	-0.000009	0.183229
C54	C	1.979114	0.499991	0.683229
N55	N	1.475624	0.356108	-0.183375
N56	N	1.975624	0.856108	0.316625
C57	C	1.468447	-0.000004	-0.411477
C58	C	1.968447	0.499996	0.088523
C59	C	1.472094	0.000000	-0.550031
C60	C	1.972094	0.500000	-0.050031
C61	C	1.585401	-0.000009	0.258212
C62	C	2.085401	0.499991	0.758212
C63	C	1.581634	-0.000004	0.401415
C64	C	2.081634	0.499996	0.901415
H65	H	1.075814	-0.000007	-0.386984
H66	H	1.575814	0.499993	0.113016
H67	H	0.826355	0.000008	-0.380421
H68	H	1.326355	0.500008	0.119579
H69	H	1.067152	0.000026	-0.093125
H70	H	1.567152	0.500026	0.406875
F71	F	0.926441	0.000003	-0.060950
F72	F	1.426441	0.500003	0.439050
F73	F	1.628219	-0.203000	-0.336230
F74	F	2.128219	0.297000	0.163770
H75	H	1.766710	-0.369483	-0.474775
H76	H	2.266710	0.130517	0.025225
H77	H	1.766752	-0.630521	-0.474737
H78	H	2.266752	-0.130521	0.025263
H79	H	1.672624	-0.000009	0.465848
H80	H	2.172624	0.499991	0.965848
F81	F	1.318074	-0.648518	-0.025688
F82	F	1.818074	-0.148518	0.474312
F83	F	1.628310	-0.797033	-0.336114
F84	F	2.128310	-0.297033	0.163886
H85	H	1.337125	-0.369491	-0.044823
H86	H	1.837125	0.130509	0.455177
H87	H	1.679187	-0.000018	0.216390
H88	H	2.179187	0.499982	0.716390
H89	H	1.381099	-0.000010	0.385544
H90	H	1.881099	0.499990	0.885544
F91	F	1.356524	0.000005	0.237887
F92	F	1.856524	0.500005	0.737887
