data_functionalizedCrystal
_audit_creation_method	'MofGen! by Chris Wilmer'
_symmetry_space_group_name_H-M	'P1'
_symmetry_Int_Tables_number	1
_symmetry_cell_setting	triclinic
loop_
_symmetry_equiv_pos_as_xyz
  x,y,z
_cell_length_a	19.121414
_cell_length_b	25.639240
_cell_length_c	19.120904
_cell_angle_alpha	92.415401
_cell_angle_beta	94.750371
_cell_angle_gamma	92.473450
loop_
_atom_site_label
_atom_site_type_symbol
_atom_site_fract_x
_atom_site_fract_y
_atom_site_fract_z
Zn1	Zn	1.058645	-0.185725	-0.352066
Zn2	Zn	1.063569	-0.269266	-0.234415
Zn3	Zn	0.946007	-0.185739	-0.239426
Zn4	Zn	0.940935	-0.277027	-0.357043
O5	O	1.002289	-0.229439	-0.295738
O6	O	1.157760	-0.193553	-0.332279
O7	O	1.052157	-0.254944	-0.136619
O8	O	0.961010	-0.112571	-0.254383
O9	O	1.161378	-0.254930	-0.245841
O10	O	1.043765	-0.112560	-0.337138
O11	O	0.965784	-0.193577	-0.140301
O12	O	0.846872	-0.201103	-0.259209
O13	O	0.952367	-0.268157	-0.454844
O14	O	0.843146	-0.268171	-0.345622
O15	O	1.038848	-0.201078	-0.451187
O16	O	1.047239	-0.343463	-0.250667
O17	O	0.957141	-0.349164	-0.340762
C18	C	0.819478	-0.235481	-0.303500
C19	C	0.741271	-0.238079	-0.306837
C20	C	0.706445	-0.204332	-0.263488
C21	C	0.632960	-0.206778	-0.266624
C22	C	0.594303	-0.242968	-0.313112
C23	C	0.629134	-0.276718	-0.356463
C24	C	0.702617	-0.274275	-0.353323
C25	C	0.372335	-0.252097	-0.324836
C26	C	0.298846	-0.254536	-0.327974
C27	C	0.302678	-0.184597	-0.238134
C28	C	0.376162	-0.182154	-0.235001
C29	C	0.410987	-0.215906	-0.278349
C30	C	0.519190	-0.245467	-0.316320
C31	C	0.486099	-0.213409	-0.275137
C32	C	1.002192	-0.365285	-0.295726
C33	C	1.002214	-0.423398	-0.295741
C34	C	1.045373	-0.674534	-0.338875
C35	C	1.045353	-0.619930	-0.338870
O36	O	1.081968	-0.591647	-0.375524
N37	N	1.002291	-0.592670	-0.295747
C38	C	0.959253	-0.620016	-0.252619
O39	O	0.922624	-0.591815	-0.215938
C40	C	0.959278	-0.674618	-0.252621
C41	C	1.002337	-0.701876	-0.295752
C42	C	1.088430	-0.701792	-0.382002
C43	C	1.088449	-0.756392	-0.382008
C44	C	1.045413	-0.783734	-0.338885
C45	C	1.002357	-0.756476	-0.295758
C46	C	0.916244	-0.701963	-0.209490
C47	C	0.916273	-0.756569	-0.209495
C48	C	0.959332	-0.783827	-0.252626
C49	C	0.959340	-0.838419	-0.252640
N50	N	1.002402	-0.865679	-0.295764
C51	C	1.045438	-0.838337	-0.338886
C52	C	0.959204	-0.505347	-0.252619
C53	C	0.959175	-0.450745	-0.252621
C54	C	1.045276	-0.450664	-0.338871
C55	C	1.045301	-0.505266	-0.338873
C56	C	1.002266	-0.532607	-0.295743
C57	C	1.045476	-0.953001	-0.338895
C58	C	1.045490	-1.007606	-0.338898
C59	C	0.959392	-1.007683	-0.252646
C60	C	0.959375	-0.953083	-0.252644
C61	C	1.002423	-0.925743	-0.295771
O62	O	0.922746	-0.866737	-0.216003
O63	O	1.082067	-0.866544	-0.375554
C64	C	1.185813	-0.223374	-0.287946
C65	C	1.264020	-0.220790	-0.284625
C66	C	0.994492	-0.235482	-0.479259
C67	C	0.991170	-0.238057	-0.557465
C68	C	1.002404	-0.093063	-0.295764
C69	C	1.002453	-0.034948	-0.295776
C70	C	1.034633	-0.204343	-0.592303
C71	C	1.031502	-0.206761	-0.665787
C72	C	0.984912	-0.242895	-0.704430
C73	C	0.941445	-0.276610	-0.669586
C74	C	0.944572	-0.274189	-0.596105
C75	C	0.973214	-0.251949	-0.926392
C76	C	0.970092	-0.254368	-0.999879
C77	C	1.060149	-0.184518	-0.996074
C78	C	1.063275	-0.182103	-0.922591
C79	C	1.019805	-0.215816	-0.887754
C80	C	0.981713	-0.245368	-0.779541
C81	C	1.023001	-0.213340	-0.812644
C82	C	1.010096	-0.223381	-0.112928
C83	C	1.013554	-0.220655	-0.034717
H84	H	1.080552	-1.029797	-0.374026
O85	O	0.599240	-0.173941	-0.224490
C86	C	0.610796	-0.104330	-0.135026
C87	C	0.649071	-0.141480	-0.182717
H88	H	0.651068	-0.078084	-0.101229
H89	H	0.575059	-0.079203	-0.168828
H90	H	0.577918	-0.128232	-0.099677
H91	H	0.681987	-0.117620	-0.218073
H92	H	0.684765	-0.166609	-0.148872
H93	H	0.267373	-0.284006	-0.365835
O94	O	0.917657	-1.034328	-0.210775
C95	C	0.879522	-1.118491	-0.172586
C96	C	0.926828	-1.088379	-0.220032
H97	H	0.886910	-1.162197	-0.180064
H98	H	0.894338	-1.105518	-0.115319
H99	H	0.822254	-1.110046	-0.187287
H100	H	0.984110	-1.096809	-0.205393
H101	H	0.911952	-1.101356	-0.277286
O102	O	1.079909	-0.169196	-0.554876
C103	C	1.168929	-0.100189	-0.558866
C104	C	1.117675	-0.139963	-0.601335
H105	H	1.199487	-0.076551	-0.596409
H106	H	1.138145	-0.072749	-0.525857
H107	H	1.207135	-0.121853	-0.522881
H108	H	1.079457	-0.118342	-0.637358
H109	H	1.148504	-0.167402	-0.634298
O110	O	0.930953	-0.284744	-0.892668
C111	C	0.841244	-0.354241	-0.904205
C112	C	0.889086	-0.317143	-0.942489
H113	H	0.807372	-0.380438	-0.944469
H114	H	0.874935	-0.379422	-0.868438
H115	H	0.805971	-0.330297	-0.871358
H116	H	0.924367	-0.341046	-0.975374
H117	H	0.855353	-0.291961	-0.978214
O118	O	1.068181	-0.178168	-0.775146
C119	C	1.103404	-0.087365	-0.751256
C120	C	1.052179	-0.127137	-0.793764
H121	H	1.090493	-0.046098	-0.766304
H122	H	1.098167	-0.091382	-0.692745
H123	H	1.159513	-0.095177	-0.763286
H124	H	0.996048	-0.119350	-0.781794
H125	H	1.057477	-0.123111	-0.852262
H126	H	0.400680	-0.279580	-0.360133
O127	O	1.087306	-0.926531	-0.380857
C128	C	1.172724	-0.932226	-0.466388
C129	C	1.125381	-0.962268	-0.418907
H130	H	1.203532	-0.961106	-0.497152
H131	H	1.138849	-0.908974	-0.504570
H132	H	1.210880	-0.904349	-0.432549
H133	H	1.087218	-0.990173	-0.452689
H134	H	1.159301	-0.985485	-0.380720
H135	H	0.903507	-0.306029	-0.701055
O136	O	0.413605	-0.146981	-0.189784
C137	C	0.409646	-0.077838	-0.101049
C138	C	0.367157	-0.117660	-0.152207
H139	H	0.372111	-0.054114	-0.070665
H140	H	0.445581	-0.099412	-0.062685
H141	H	0.442710	-0.050484	-0.131966
H142	H	0.334052	-0.145025	-0.121349
H143	H	0.331267	-0.096053	-0.190572
H144	H	0.881229	-0.778827	-0.174372
H145	H	0.517577	-0.183945	-0.237284
O146	O	0.591692	-0.311915	-0.401646
C147	C	0.595652	-0.380995	-0.490469
C148	C	0.638139	-0.341171	-0.439313
H149	H	0.633185	-0.404651	-0.520947
H150	H	0.562612	-0.408413	-0.459615
H151	H	0.559694	-0.359373	-0.528752
H152	H	0.674135	-0.362749	-0.401018
H153	H	0.671132	-0.313754	-0.470212
H154	H	1.101215	-0.152680	-0.891132
H155	H	0.274315	-0.157118	-0.202842
H156	H	0.924104	-0.428556	-0.217507
H157	H	1.123518	-0.778581	-0.417125
H158	H	0.943782	-0.274791	-0.811012
H159	H	1.123478	-0.679535	-0.417118
H160	H	0.730971	-0.301755	-0.388622
H161	H	0.924305	-0.930889	-0.217530
H162	H	0.924154	-0.527605	-0.217500
O163	O	0.481598	-0.280545	-0.361559
C164	C	0.394572	-0.293556	-0.460043
C165	C	0.437116	-0.253776	-0.408869
H166	H	0.358588	-0.271930	-0.498296
H167	H	0.432043	-0.317253	-0.490550
H168	H	0.361553	-0.320944	-0.429129
H169	H	0.470139	-0.226355	-0.439728
H170	H	0.399608	-0.230117	-0.378361
H171	H	1.080360	-0.527456	-0.373997
O172	O	1.073747	-0.174085	-0.699710
C173	C	1.165233	-0.166637	-0.778631
C174	C	1.117426	-0.203706	-0.740265
H175	H	1.200569	-0.190570	-0.811417
H176	H	1.131515	-0.141509	-0.814448
H177	H	1.199041	-0.140382	-0.738383
H178	H	1.083609	-0.229993	-0.780462
H179	H	1.151184	-0.228798	-0.704436
H180	H	1.095539	-0.157070	-1.024446
H181	H	0.932150	-0.283794	-1.031340
H182	H	1.080319	-0.428392	-0.373983
O183	O	0.874403	-0.675572	-0.167519
C184	C	0.788997	-0.681441	-0.081982
C185	C	0.836360	-0.711391	-0.129474
H186	H	0.758216	-0.710388	-0.051221
H187	H	0.822855	-0.653599	-0.043797
H188	H	0.750818	-0.658159	-0.115813
H189	H	0.874546	-0.734703	-0.095700
H190	H	0.802457	-0.739201	-0.167663
O191	O	0.902435	-0.307015	-0.562284
C192	C	0.869150	-0.396344	-0.541253
C193	C	0.916922	-0.359227	-0.579585
H194	H	0.880835	-0.438565	-0.555238
H195	H	0.879395	-0.388450	-0.482089
H196	H	0.811809	-0.389491	-0.558093
H197	H	0.974279	-0.366059	-0.562803
H198	H	0.906616	-0.367129	-0.638742
H199	H	0.737914	-0.174859	-0.225638
