data_functionalizedCrystal
_audit_creation_method	'MofGen! by Chris Wilmer'
_symmetry_space_group_name_H-M	'P1'
_symmetry_Int_Tables_number	1
_symmetry_cell_setting	triclinic
loop_
_symmetry_equiv_pos_as_xyz
  x,y,z
_cell_length_a	16.120256
_cell_length_b	15.296363
_cell_length_c	15.297475
_cell_angle_alpha	88.375937
_cell_angle_beta	83.675350
_cell_angle_gamma	82.671063
loop_
_atom_site_label
_atom_site_type_symbol
_atom_site_fract_x
_atom_site_fract_y
_atom_site_fract_z
Zn1	Zn	-0.572790	-0.606217	1.242960
Zn2	Zn	-0.072790	-0.106217	1.742960
Zn3	Zn	-0.408666	-0.745472	1.227777
Zn4	Zn	0.091334	-0.245472	1.727777
Zn5	Zn	-0.416727	-0.573966	1.106234
Zn6	Zn	0.083273	-0.073966	1.606234
Zn7	Zn	-0.526719	-0.725247	1.074000
Zn8	Zn	-0.026719	-0.225247	1.574000
O9	O	-0.481226	-0.662725	1.162743
O10	O	0.018774	-0.162725	1.662743
O11	O	-0.566926	-0.646650	1.362523
O12	O	-0.066926	-0.146650	1.862523
O13	O	-0.295017	-0.717688	1.218789
O14	O	0.204983	-0.217688	1.718789
O15	O	-0.460084	-0.456654	1.144215
O16	O	0.039916	0.043346	1.644215
O17	O	-0.446344	-0.748960	1.351367
O18	O	0.053656	-0.248960	1.851367
O19	O	-0.574743	-0.480348	1.244667
O20	O	-0.074743	0.019652	1.744667
O21	O	-0.300939	-0.591684	1.129492
O22	O	0.199061	-0.091684	1.629492
O23	O	-0.415411	-0.572073	0.980381
O24	O	0.084589	-0.072073	1.480381
O25	O	-0.647549	-0.714490	1.089277
O26	O	-0.147549	-0.214490	1.589277
O27	O	-0.496222	-0.683218	0.956699
O28	O	0.003778	-0.183218	1.456699
O29	O	-0.681397	-0.627039	1.213412
O30	O	-0.181397	-0.127039	1.713412
O31	O	-0.401671	-0.864379	1.187533
O32	O	0.098329	-0.364379	1.687533
O33	O	-0.488405	-0.849520	1.074554
O34	O	0.011595	-0.349520	1.574554
C35	C	-0.451692	-0.621952	0.937017
C36	C	0.048308	-0.121952	1.437017
C37	C	-0.439073	-0.604531	0.840445
C38	C	0.060927	-0.104531	1.340445
C39	C	-0.695050	-0.672106	1.149443
C40	C	-0.195050	-0.172106	1.649443
C41	C	-0.786170	-0.676104	1.143775
C42	C	-0.286170	-0.176104	1.643775
C43	C	-0.439185	-0.888482	1.125921
C44	C	0.060815	-0.388482	1.625921
C45	C	-0.421237	-0.985077	1.110246
C46	C	0.078763	-0.485077	1.610246
C47	C	-1.010360	-0.641856	1.192301
C48	C	-0.510360	-0.141856	1.692301
C49	C	-0.953005	-0.683361	1.133404
C50	C	-0.453005	-0.183361	1.633404
C51	C	-0.860170	-0.679322	1.139176
C52	C	-0.360170	-0.179322	1.639176
C53	C	-1.103204	-0.645895	1.186530
C54	C	-0.603204	-0.145895	1.686530
C55	C	-0.268251	-0.653328	1.176051
C56	C	0.231749	-0.153328	1.676051
C57	C	-0.177200	-0.649116	1.181927
C58	C	0.322800	-0.149116	1.681927
C59	C	-0.609625	-1.306396	1.275124
C60	C	-0.109625	-0.806396	1.775124
C61	C	-0.626488	-1.215641	1.289857
C62	C	-0.126488	-0.715641	1.789857
C63	C	-0.575177	-1.157996	1.244955
C64	C	-0.075177	-0.657996	1.744955
C65	C	-0.507000	-1.191114	1.185318
C66	C	-0.007000	-0.691114	1.685318
C67	C	-0.490132	-1.281878	1.170589
C68	C	0.009868	-0.781878	1.670589
C69	C	-0.455683	-1.133478	1.140420
C70	C	0.044317	-0.633478	1.640420
C71	C	-0.387506	-1.166596	1.080784
C72	C	0.112494	-0.666596	1.580784
C73	C	-0.370641	-1.257352	1.066056
C74	C	0.129359	-0.757352	1.566056
C75	C	-0.421952	-1.314997	1.110958
C76	C	0.078048	-0.814997	1.610958
C77	C	-0.472552	-1.042714	1.155150
C78	C	0.027448	-0.542714	1.655150
C79	C	-0.353058	-1.018196	1.050615
C80	C	0.146942	-0.518196	1.550615
C81	C	-0.336195	-1.108951	1.035882
C82	C	0.163805	-0.608951	1.535882
C83	C	-0.523452	-0.436092	1.199730
C84	C	-0.023452	0.063908	1.699730
C85	C	-0.541446	-0.339515	1.215492
C86	C	-0.041446	0.160485	1.715492
C87	C	-0.571416	-0.787244	0.518968
C88	C	-0.071416	-0.287244	1.018968
C89	C	-0.583269	-0.803619	0.609700
C90	C	-0.083269	-0.303619	1.109700
C91	C	-0.547221	-0.753848	0.667391
C92	C	-0.047221	-0.253848	1.167391
C93	C	-0.499319	-0.687700	0.634340
C94	C	0.000681	-0.187700	1.134340
C95	C	-0.487459	-0.671329	0.543598
C96	C	0.012541	-0.171329	1.043598
C97	C	-0.463264	-0.637932	0.692021
C98	C	0.036736	-0.137932	1.192021
C99	C	-0.415361	-0.571785	0.658971
C100	C	0.084639	-0.071785	1.158971
C101	C	-0.403505	-0.555416	0.568238
C102	C	0.096495	-0.055416	1.068238
C103	C	-0.439552	-0.605186	0.510547
C104	C	0.060448	-0.105186	1.010547
C105	C	-0.475124	-0.654304	0.782763
C106	C	0.024876	-0.154304	1.282763
C107	C	-0.391166	-0.538388	0.807394
C108	C	0.108834	-0.038388	1.307394
C109	C	-0.379314	-0.522014	0.716662
C110	C	0.120686	-0.022014	1.216662
C111	C	-0.510875	-0.703659	1.389350
C112	C	-0.010875	-0.203659	1.889350
C113	C	-0.523510	-0.721102	1.485916
C114	C	-0.023510	-0.221102	1.985916
H115	H	-0.973624	-0.721921	1.078641
H116	H	-0.473624	-0.221921	1.578641
Cl117	Cl	-0.424660	-0.584599	0.396478
Cl118	Cl	0.075340	-0.084599	0.896478
H119	H	-0.408226	-1.388899	1.098965
H120	H	0.091774	-0.888899	1.598965
Cl121	Cl	-0.343276	-0.472265	0.526690
Cl122	Cl	0.156724	0.027735	1.026690
Cl123	Cl	-0.319095	-0.438859	0.675101
Cl124	Cl	0.180905	0.061141	1.175101
H125	H	-0.311275	-0.971261	1.014054
H126	H	0.188725	-0.471261	1.514054
H127	H	-0.989742	-0.603294	1.247055
H128	H	-0.489742	-0.103294	1.747055
Cl129	Cl	-0.558258	-1.001090	1.230119
Cl130	Cl	-0.058258	-0.501090	1.730119
H131	H	-0.588911	-1.084100	1.256955
H132	H	-0.088911	-0.584100	1.756955
H133	H	-0.622270	-0.857479	0.636603
H134	H	-0.122270	-0.357479	1.136603
Cl135	Cl	-0.712194	-1.174013	1.364824
Cl136	Cl	-0.212194	-0.674013	1.864824
Cl137	Cl	-0.674117	-1.378867	1.331570
Cl138	Cl	-0.174117	-0.878867	1.831570
Cl139	Cl	-0.284925	-1.298985	0.991094
Cl140	Cl	0.215075	-0.798985	1.491094
Cl141	Cl	-0.250491	-1.150596	0.960911
Cl142	Cl	0.249509	-0.650596	1.460911
Cl143	Cl	-0.535343	-0.737458	0.824302
Cl144	Cl	-0.035343	-0.237458	1.324302
Cl145	Cl	-0.345842	-0.475819	0.879913
Cl146	Cl	0.154158	0.024181	1.379913
H147	H	-0.556875	-0.767184	0.741269
H148	H	-0.056875	-0.267184	1.241269
H149	H	-0.600755	-0.827766	0.471988
H150	H	-0.100755	-0.327766	0.971988
