data_functionalizedCrystal
_audit_creation_method	'MofGen! by Chris Wilmer'
_symmetry_space_group_name_H-M	'P1'
_symmetry_Int_Tables_number	1
_symmetry_cell_setting	triclinic
loop_
_symmetry_equiv_pos_as_xyz
  x,y,z
_cell_length_a	11.792241
_cell_length_b	10.967926
_cell_length_c	9.482900
_cell_angle_alpha	92.549900
_cell_angle_beta	80.596456
_cell_angle_gamma	95.543052
loop_
_atom_site_label
_atom_site_type_symbol
_atom_site_fract_x
_atom_site_fract_y
_atom_site_fract_z
O1	O	-0.200408	1.611508	0.282862
O2	O	-0.202898	1.262310	0.195374
O3	O	-0.036810	1.445384	0.241233
O4	O	-0.366496	1.428434	0.237003
O5	O	-0.070688	1.408199	0.473711
O6	O	-0.236776	1.225125	0.427852
O7	O	-0.234286	1.574322	0.515340
Cu8	Cu	-0.238625	1.396328	0.492823
Cu9	Cu	-0.198560	1.440304	0.217891
O10	O	-0.400374	1.391248	0.469481
C11	C	-0.217096	1.199013	0.300412
C12	C	-0.208915	1.065806	0.267038
C13	C	-0.222817	0.987155	0.372589
C14	C	-0.214362	0.849479	0.338098
C15	C	-0.425768	1.410905	0.353511
C16	C	-0.551906	1.414091	0.354316
C17	C	-0.782840	1.419956	0.355748
C18	C	-0.654331	1.416697	0.354952
C19	C	-0.011416	1.425728	0.357200
C20	C	0.114724	1.422544	0.356386
C21	C	-0.220088	1.637620	0.410299
C22	C	-0.228267	1.770828	0.443664
N23	N	-0.266804	1.365406	0.686198
N24	N	-0.170372	1.471236	0.024519
C25	C	-0.206865	1.431175	0.774871
C26	C	-0.230320	1.405457	0.935846
H27	H	-0.190750	1.031217	0.151137
H28	H	-0.138180	1.506519	0.731616
H29	H	-0.246427	0.805411	0.559573
F30	F	-0.246554	1.032360	0.524084
H31	H	-0.335480	1.290054	0.729452
F32	F	-0.080793	1.569929	0.968047
H33	H	-0.196196	0.814895	0.222189
F34	F	-0.320090	1.306959	0.992371
