data_functionalizedCrystal
_audit_creation_method	'MofGen! by Chris Wilmer'
_symmetry_space_group_name_H-M	'P1'
_symmetry_Int_Tables_number	1
_symmetry_cell_setting	triclinic
loop_
_symmetry_equiv_pos_as_xyz
  x,y,z
_cell_length_a	14.519731
_cell_length_b	14.519731
_cell_length_c	9.798715
_cell_angle_alpha	89.995867
_cell_angle_beta	89.996220
_cell_angle_gamma	83.688853
loop_
_atom_site_label
_atom_site_type_symbol
_atom_site_fract_x
_atom_site_fract_y
_atom_site_fract_z
O1	O	1.223864	0.120982	-0.113497
O2	O	1.723864	0.620982	0.386503
O3	O	0.955391	0.135197	-0.113500
O4	O	1.455391	0.635197	0.386500
O5	O	1.096735	-0.006147	-0.113486
O6	O	1.596735	0.493853	0.386514
O7	O	1.082519	0.262326	-0.113511
O8	O	1.582519	0.762326	0.386489
O9	O	1.096725	-0.006147	0.113496
O10	O	1.596725	0.493853	0.613496
O11	O	0.955380	0.135197	0.113483
O12	O	1.455380	0.635197	0.613483
O13	O	1.223853	0.120981	0.113485
O14	O	1.723853	0.620981	0.613485
Zn15	Zn	1.089615	0.128089	0.149522
Zn16	Zn	1.589615	0.628089	0.649522
Zn17	Zn	1.089629	0.128090	-0.149537
Zn18	Zn	1.589629	0.628090	0.350463
O19	O	1.082509	0.262326	0.113471
O20	O	1.582509	0.762326	0.613471
C21	C	0.921026	0.134531	-0.000009
C22	C	1.421026	0.634531	0.499991
C23	C	0.818645	0.132535	-0.000009
C24	C	1.318645	0.632535	0.499991
C25	C	1.096064	-0.040507	0.000006
C26	C	1.596064	0.459493	0.500006
C27	C	1.094068	-0.142887	0.000006
C28	C	1.594068	0.357113	0.500006
C29	C	0.735501	0.130913	-0.000015
C30	C	1.235501	0.630913	0.499985
C31	C	0.631192	0.128887	-0.000015
C32	C	1.131192	0.628887	0.499985
C33	C	0.548053	0.127278	-0.000015
C34	C	1.048053	0.627278	0.499985
C35	C	0.443738	0.125252	-0.000017
C36	C	0.943738	0.625252	0.499983
C37	C	1.092446	-0.226031	0.000003
C38	C	1.592446	0.273969	0.500003
C39	C	1.090419	-0.330340	-0.000007
C40	C	1.590419	0.169660	0.499993
C41	C	1.088811	-0.413479	-0.000016
C42	C	1.588811	0.086521	0.499984
C43	C	1.086785	-0.517795	-0.000024
C44	C	1.586785	-0.017795	0.499976
C45	C	1.258218	0.121648	-0.000009
C46	C	1.758218	0.621648	0.499991
C47	C	1.360598	0.123643	-0.000017
C48	C	1.860598	0.623643	0.499983
C49	C	1.083180	0.296685	-0.000023
C50	C	1.583180	0.796685	0.499977
C51	C	1.085176	0.399066	-0.000033
C52	C	1.585176	0.899066	0.499967
N53	N	1.089612	0.128088	0.353622
N54	N	1.589612	0.628088	0.853622
N55	N	1.089639	0.128083	-0.353636
N56	N	1.589639	0.628083	0.146364
C57	C	1.148961	0.068482	0.421405
C58	C	1.648961	0.568482	0.921405
C59	C	1.148976	0.068479	0.578567
C60	C	1.648976	0.568479	1.078567
H61	H	1.199758	0.017449	0.363087
H62	H	1.699758	0.517449	0.863087
H63	H	1.199790	0.017450	0.636857
H64	H	1.699790	0.517450	1.136857
H65	H	1.038809	0.179114	0.411941
H66	H	1.538809	0.679114	0.911941
H67	H	1.038829	0.179121	0.588082
H68	H	1.538829	0.679121	1.088082
