data_functionalizedCrystal
_audit_creation_method	'MofGen! by Chris Wilmer'
_symmetry_space_group_name_H-M	'P1'
_symmetry_Int_Tables_number	1
_symmetry_cell_setting	triclinic
loop_
_symmetry_equiv_pos_as_xyz
  x,y,z
_cell_length_a	18.050591
_cell_length_b	19.121063
_cell_length_c	19.120904
_cell_angle_alpha	94.741613
_cell_angle_beta	92.416941
_cell_angle_gamma	92.465257
loop_
_atom_site_label
_atom_site_type_symbol
_atom_site_fract_x
_atom_site_fract_y
_atom_site_fract_z
Zn1	Zn	1.103413	-0.297188	-0.409883
Zn2	Zn	1.353413	-0.047188	-0.159883
Zn3	Zn	1.603413	0.202812	0.090117
Zn4	Zn	1.853413	0.452812	0.340117
Zn5	Zn	1.103321	-0.409835	-0.297234
Zn6	Zn	1.353321	-0.159835	-0.047234
Zn7	Zn	1.603321	0.090165	0.202766
Zn8	Zn	1.853321	0.340165	0.452766
Zn9	Zn	0.984762	-0.292181	-0.292224
Zn10	Zn	1.234762	-0.042181	-0.042224
Zn11	Zn	1.484762	0.207819	0.207776
Zn12	Zn	1.734762	0.457819	0.457776
Zn13	Zn	0.973652	-0.414806	-0.414841
Zn14	Zn	1.223652	-0.164806	-0.164841
Zn15	Zn	1.473652	0.085194	0.085159
Zn16	Zn	1.723652	0.335194	0.335159
O17	O	1.041287	-0.353503	-0.353546
O18	O	1.291287	-0.103503	-0.103546
O19	O	1.541287	0.146497	0.146454
O20	O	1.791287	0.396497	0.396454
O21	O	1.207324	-0.312146	-0.394962
O22	O	1.457324	-0.062146	-0.144962
O23	O	1.707324	0.187854	0.105038
O24	O	1.957324	0.437854	0.355038
O25	O	1.092205	-0.390052	-0.198110
O26	O	1.342205	-0.140052	0.051890
O27	O	1.592205	0.109948	0.301890
O28	O	1.842205	0.359948	0.551890
O29	O	1.005189	-0.194383	-0.303660
O30	O	1.255189	0.055617	-0.053660
O31	O	1.505189	0.305617	0.196340
O32	O	1.755189	0.555617	0.446340
O33	O	1.207256	-0.394908	-0.312199
O34	O	1.457256	-0.144908	-0.062199
O35	O	1.707256	0.105092	0.187801
O36	O	1.957256	0.355092	0.437801
O37	O	1.092361	-0.198062	-0.390104
O38	O	1.342361	0.051938	-0.140104
O39	O	1.592361	0.301938	0.109896
O40	O	1.842361	0.551938	0.359896
O41	O	1.005100	-0.303612	-0.194429
O42	O	1.255100	-0.053612	0.055571
O43	O	1.505100	0.196388	0.305571
O44	O	1.755100	0.446388	0.555571
O45	O	0.879365	-0.308432	-0.308468
O46	O	1.129365	-0.058432	-0.058468
O47	O	1.379365	0.191568	0.191532
O48	O	1.629365	0.441568	0.441532
O49	O	0.986254	-0.403380	-0.512643
O50	O	1.236254	-0.153380	-0.262643
O51	O	1.486254	0.096620	-0.012643
O52	O	1.736254	0.346620	0.237357
O53	O	0.871203	-0.398524	-0.398554
O54	O	1.121203	-0.148524	-0.148554
O55	O	1.371203	0.101476	0.101446
O56	O	1.621203	0.351476	0.351446
O57	O	1.081589	-0.316967	-0.509001
O58	O	1.331589	-0.066967	-0.259001
O59	O	1.581589	0.183033	-0.009001
O60	O	1.831589	0.433033	0.240999
O61	O	1.081432	-0.508957	-0.317006
O62	O	1.331432	-0.258957	-0.067006
O63	O	1.581432	-0.008957	0.182994
O64	O	1.831432	0.241043	0.432994
O65	O	0.986165	-0.512609	-0.403412
O66	O	1.236165	-0.262609	-0.153412
O67	O	1.486165	-0.012609	0.096588
O68	O	1.736165	0.237391	0.346588
C69	C	0.848338	-0.353475	-0.353506
C70	C	1.098338	-0.103475	-0.103506
C71	C	1.348338	0.146525	0.146494
C72	C	1.598338	0.396525	0.396494
C73	C	0.765792	-0.353480	-0.353506
C74	C	1.015792	-0.103480	-0.103506
C75	C	1.265792	0.146520	0.146494
C76	C	1.515792	0.396520	0.396494
C77	C	0.570756	-0.304438	-0.304623
C78	C	0.820756	-0.054438	-0.054623
C79	C	1.070756	0.195562	0.195377
C80	C	1.320756	0.445562	0.445377
C81	C	0.519132	-0.367877	-0.290041
C82	C	0.769132	-0.117877	-0.040041
C83	C	1.019132	0.132123	0.209959
C84	C	1.269132	0.382123	0.459959
C85	C	0.614659	-0.353503	-0.353539
C86	C	0.864659	-0.103503	-0.103539
C87	C	1.114659	0.146497	0.146461
C88	C	1.364659	0.396497	0.396461
C89	C	0.519200	-0.290086	-0.368119
C90	C	0.769200	-0.040086	-0.118119
C91	C	1.019200	0.209914	0.131881
C92	C	1.269200	0.459914	0.381881
C93	C	0.468672	-0.353519	-0.353569
C94	C	0.718672	-0.103519	-0.103569
C95	C	0.968672	0.146481	0.146431
C96	C	1.218672	0.396481	0.396431
C97	C	0.564122	-0.416974	-0.338925
C98	C	0.814122	-0.166974	-0.088925
C99	C	1.064122	0.083026	0.161075
C100	C	1.314122	0.333026	0.411075
C101	C	0.564195	-0.339142	-0.417031
C102	C	0.814195	-0.089142	-0.167031
C103	C	1.064195	0.160858	0.082969
C104	C	1.314195	0.410858	0.332969
C105	C	0.512591	-0.402626	-0.402476
C106	C	0.762591	-0.152626	-0.152476
C107	C	1.012591	0.097374	0.097524
C108	C	1.262591	0.347374	0.347524
C109	C	0.698758	-0.353493	-0.353519
C110	C	0.948758	-0.103493	-0.103519
C111	C	1.198758	0.146507	0.146481
C112	C	1.448758	0.396507	0.396481
C113	C	0.384573	-0.353537	-0.353588
C114	C	0.634573	-0.103537	-0.103588
C115	C	0.884573	0.146463	0.146412
C116	C	1.134573	0.396463	0.396412
C117	C	1.032602	-0.536314	-0.361306
C118	C	1.282602	-0.286314	-0.111306
C119	C	1.532602	-0.036314	0.138694
C120	C	1.782602	0.213686	0.388694
C121	C	1.028954	-0.614522	-0.364650
C122	C	1.278954	-0.364522	-0.114650
C123	C	1.528954	-0.114522	0.135350
C124	C	1.778954	0.135478	0.385350
C125	C	1.076876	-0.649342	-0.321271
C126	C	1.326876	-0.399342	-0.071271
C127	C	1.576876	-0.149342	0.178729
C128	C	1.826876	0.100658	0.428729
C129	C	1.073449	-0.722827	-0.324420
C130	C	1.323449	-0.472827	-0.074420
C131	C	1.573449	-0.222827	0.175580
C132	C	1.823449	0.027173	0.425580
C133	C	1.022096	-0.761492	-0.370944
C134	C	1.272096	-0.511492	-0.120944
C135	C	1.522096	-0.261492	0.129056
C136	C	1.772096	-0.011492	0.379056
C137	C	0.974172	-0.726668	-0.414328
C138	C	1.224172	-0.476668	-0.164328
C139	C	1.474172	-0.226668	0.085672
C140	C	1.724172	0.023332	0.335672
C141	C	0.977603	-0.653184	-0.411182
C142	C	1.227603	-0.403184	-0.161182
C143	C	1.477603	-0.153184	0.088818
C144	C	1.727603	0.096816	0.338818
C145	C	1.009256	-0.983462	-0.382694
C146	C	1.259256	-0.733462	-0.132694
C147	C	1.509256	-0.483462	0.117306
C148	C	1.759256	-0.233462	0.367306
C149	C	1.005827	-1.056951	-0.385835
C150	C	1.255827	-0.806951	-0.135835
C151	C	1.505827	-0.556951	0.114165
C152	C	1.755827	-0.306951	0.364165
C153	C	1.105105	-1.053106	-0.295928
C154	C	1.355105	-0.803106	-0.045928
C155	C	1.605105	-0.553106	0.204072
C156	C	1.855105	-0.303106	0.454072
C157	C	1.108528	-0.979621	-0.292784
C158	C	1.358528	-0.729621	-0.042784
C159	C	1.608528	-0.479621	0.207216
C160	C	1.858528	-0.229621	0.457216
C161	C	1.060607	-0.944803	-0.336169
C162	C	1.310607	-0.694803	-0.086169
C163	C	1.560607	-0.444803	0.163831
C164	C	1.810607	-0.194803	0.413831
C165	C	1.018590	-0.836606	-0.374162
C166	C	1.268590	-0.586606	-0.124162
C167	C	1.518590	-0.336606	0.125838
C168	C	1.768590	-0.086606	0.375838
C169	C	1.064117	-0.869690	-0.332954
C170	C	1.314117	-0.619690	-0.082954
C171	C	1.564117	-0.369690	0.167046
C172	C	1.814117	-0.119690	0.417046
C173	C	1.234989	-0.353531	-0.353586
C174	C	1.484989	-0.103531	-0.103586
C175	C	1.734989	0.146469	0.146414
C176	C	1.984989	0.396469	0.396414
C177	C	1.317534	-0.353543	-0.353604
C178	C	1.567534	-0.103543	-0.103604
C179	C	1.817534	0.146457	0.146396
C180	C	2.067534	0.396457	0.396396
C181	C	1.032692	-0.361286	-0.537065
C182	C	1.282692	-0.111286	-0.287065
C183	C	1.532692	0.138714	-0.037065
C184	C	1.782692	0.388714	0.212935
C185	C	1.029030	-0.364603	-0.615271
C186	C	1.279030	-0.114603	-0.365271
C187	C	1.529030	0.135397	-0.115271
C188	C	1.779030	0.385397	0.134729
C189	C	1.050025	-0.169978	-0.345770
C190	C	1.300025	0.080022	-0.095770
C191	C	1.550025	0.330022	0.154230
C192	C	1.800025	0.580022	0.404230
C193	C	1.053748	-0.091771	-0.342457
C194	C	1.303748	0.158229	-0.092457
C195	C	1.553748	0.408229	0.157543
C196	C	1.803748	0.658229	0.407543
C197	C	1.076942	-0.321173	-0.650116
C198	C	1.326942	-0.071173	-0.400116
C199	C	1.576942	0.178827	-0.150116
C200	C	1.826942	0.428827	0.099884
C201	C	1.073492	-0.324287	-0.723598
C202	C	1.323492	-0.074287	-0.473598
C203	C	1.573492	0.175713	-0.223598
C204	C	1.823492	0.425713	0.026402
C205	C	1.022133	-0.370835	-0.762233
C206	C	1.272133	-0.120835	-0.512233
C207	C	1.522133	0.129165	-0.262233
C208	C	1.772133	0.379165	-0.012233
C209	C	0.974215	-0.414268	-0.727383
C210	C	1.224215	-0.164268	-0.477383
C211	C	1.474215	0.085732	-0.227383
C212	C	1.724215	0.335732	0.022617
C213	C	0.977662	-0.411150	-0.653902
C214	C	1.227662	-0.161150	-0.403902
C215	C	1.477662	0.088850	-0.153902
C216	C	1.727662	0.338850	0.096098
C217	C	1.009238	-0.382497	-0.984193
C218	C	1.259238	-0.132497	-0.734193
C219	C	1.509238	0.117503	-0.484193
C220	C	1.759238	0.367503	-0.234193
C221	C	1.005796	-0.385614	-1.057679
C222	C	1.255796	-0.135614	-0.807679
C223	C	1.505796	0.114386	-0.557679
C224	C	1.755796	0.364386	-0.307679
C225	C	1.105073	-0.295631	-1.053889
C226	C	1.355073	-0.045631	-0.803889
C227	C	1.605073	0.204369	-0.553889
C228	C	1.855073	0.454369	-0.303889
C229	C	1.108518	-0.292521	-0.980407
C230	C	1.358518	-0.042521	-0.730407
C231	C	1.608518	0.207479	-0.480407
C232	C	1.858518	0.457479	-0.230407
C233	C	1.060598	-0.335950	-0.945563
C234	C	1.310598	-0.085950	-0.695563
C235	C	1.560598	0.164050	-0.445563
C236	C	1.810598	0.414050	-0.195563
C237	C	1.018606	-0.374021	-0.837344
C238	C	1.268606	-0.124021	-0.587344
C239	C	1.518606	0.125979	-0.337344
C240	C	1.768606	0.375979	-0.087344
C241	C	1.064121	-0.332760	-0.870453
C242	C	1.314121	-0.082760	-0.620453
C243	C	1.564121	0.167240	-0.370453
C244	C	1.814121	0.417240	-0.120453
C245	C	1.049893	-0.345698	-0.170738
C246	C	1.299893	-0.095698	0.079262
C247	C	1.549893	0.154302	0.329262
C248	C	1.799893	0.404302	0.579262
C249	C	1.053709	-0.342183	-0.092524
C250	C	1.303709	-0.092183	0.157476
C251	C	1.553709	0.157817	0.407476
C252	C	1.803709	0.407817	0.657476
H253	H	0.584081	-0.326962	-0.470695
H254	H	0.834081	-0.076962	-0.220695
H255	H	1.084081	0.173038	0.029305
H256	H	1.334081	0.423038	0.279305
N257	N	1.119520	-0.282562	-0.828785
N258	N	1.369520	-0.032562	-0.578785
N259	N	1.619520	0.217438	-0.328785
N260	N	1.869520	0.467438	-0.078785
H261	H	1.149355	-0.255521	-0.862007
H262	H	1.399355	-0.005521	-0.612007
H263	H	1.649355	0.244479	-0.362007
H264	H	1.899355	0.494479	-0.112007
H265	H	1.092273	-0.248701	-0.796909
H266	H	1.342273	0.001299	-0.546909
H267	H	1.592273	0.251299	-0.296909
H268	H	1.842273	0.501299	-0.046909
H269	H	1.105931	-0.838208	-0.295077
H270	H	1.355931	-0.588208	-0.045077
H271	H	1.605931	-0.338208	0.204923
H272	H	1.855931	-0.088208	0.454923
N273	N	0.492967	-0.219040	-0.384445
N274	N	0.742967	0.030960	-0.134445
N275	N	0.992967	0.280960	0.115555
N276	N	1.242967	0.530960	0.365555
H277	H	0.459968	-0.224333	-0.428728
H278	H	0.709968	0.025667	-0.178728
H279	H	0.959968	0.275667	0.071272
H280	H	1.209968	0.525667	0.321272
H281	H	0.464146	-0.198580	-0.344108
H282	H	0.714146	0.051420	-0.094108
H283	H	0.964146	0.301420	0.155892
H284	H	1.214146	0.551420	0.405892
H285	H	0.583839	-0.470625	-0.326545
H286	H	0.833839	-0.220625	-0.076545
H287	H	1.083839	0.029375	0.173455
H288	H	1.333839	0.279375	0.423455
H289	H	0.499266	-0.380037	-0.236360
H290	H	0.749266	-0.130037	0.013640
H291	H	0.999266	0.119963	0.263640
H292	H	1.249266	0.369963	0.513640
H293	H	0.487330	-0.444171	-0.443857
H294	H	0.737330	-0.194171	-0.193857
H295	H	0.987330	0.055829	0.056143
H296	H	1.237330	0.305829	0.306143
H297	H	0.976792	-0.411924	-0.868809
H298	H	1.226792	-0.161924	-0.618809
H299	H	1.476792	0.088076	-0.368809
H300	H	1.726792	0.338076	-0.118809
N301	N	1.132262	-0.607641	-0.271089
N302	N	1.382262	-0.357641	-0.021089
N303	N	1.632262	-0.107641	0.228911
N304	N	1.882262	0.142359	0.478911
H305	H	1.162101	-0.640853	-0.244088
H306	H	1.412101	-0.390853	0.005912
H307	H	1.662101	-0.140853	0.255912
H308	H	1.912101	0.109147	0.505912
H309	H	1.166687	-0.578332	-0.298457
H310	H	1.416687	-0.328332	-0.048457
H311	H	1.666687	-0.078332	0.201543
H312	H	1.916687	0.171668	0.451543
H313	H	1.112471	-0.751174	-0.289096
H314	H	1.362471	-0.501174	-0.039096
H315	H	1.612471	-0.251174	0.210904
H316	H	1.862471	-0.001174	0.460904
H317	H	0.932394	-0.452166	-0.758845
H318	H	1.182394	-0.202166	-0.508845
H319	H	1.432394	0.047834	-0.258845
H320	H	1.682394	0.297834	-0.008845
N321	N	1.163926	-0.937920	-0.242614
N322	N	1.413926	-0.687920	0.007386
N323	N	1.663926	-0.437920	0.257386
N324	N	1.913926	-0.187920	0.507386
H325	H	1.193770	-0.971129	-0.215615
H326	H	1.443770	-0.721129	0.034385
H327	H	1.693770	-0.471129	0.284385
H328	H	1.943770	-0.221129	0.534385
H329	H	1.198347	-0.908616	-0.269993
H330	H	1.448347	-0.658616	-0.019993
H331	H	1.698347	-0.408616	0.230007
H332	H	1.948347	-0.158616	0.480007
N333	N	1.163901	-0.242289	-0.938754
N334	N	1.413901	0.007711	-0.688754
N335	N	1.663901	0.257711	-0.438754
N336	N	1.913901	0.507711	-0.188754
H337	H	1.136692	-0.208386	-0.906887
H338	H	1.386692	0.041614	-0.656887
H339	H	1.636692	0.291614	-0.406887
H340	H	1.886692	0.541614	-0.156887
H341	H	1.198385	-0.269625	-0.909522
H342	H	1.448385	-0.019625	-0.659522
H343	H	1.698385	0.230375	-0.409522
H344	H	1.948385	0.480375	-0.159522
N345	N	1.156785	-1.090658	-0.249133
N346	N	1.406785	-0.840658	0.000867
N347	N	1.656785	-0.590658	0.250867
N348	N	1.906785	-0.340658	0.500867
H349	H	1.146821	-1.143077	-0.258182
H350	H	1.396821	-0.893077	-0.008182
H351	H	1.646821	-0.643077	0.241818
H352	H	1.896821	-0.393077	0.491818
H353	H	1.209903	-1.078239	-0.259581
H354	H	1.459903	-0.828239	-0.009581
H355	H	1.709903	-0.578239	0.240419
H356	H	1.959903	-0.328239	0.490419
H357	H	0.964017	-1.088431	-0.423733
H358	H	1.214017	-0.838431	-0.173733
H359	H	1.464017	-0.588431	0.076267
H360	H	1.714017	-0.338431	0.326267
H361	H	0.970235	-0.955120	-0.418020
H362	H	1.220235	-0.705120	-0.168020
H363	H	1.470235	-0.455120	0.081980
H364	H	1.720235	-0.205120	0.331980
H365	H	0.963970	-0.423521	-1.089134
H366	H	1.213970	-0.173521	-0.839134
H367	H	1.463970	0.076479	-0.589134
H368	H	1.713970	0.326479	-0.339134
H369	H	0.932362	-0.758154	-0.452212
H370	H	1.182362	-0.508154	-0.202212
H371	H	1.432362	-0.258154	0.047788
H372	H	1.682362	-0.008154	0.297788
N373	N	0.604408	-0.249535	-0.249780
N374	N	0.854408	0.000465	0.000220
N375	N	1.104408	0.250465	0.250220
N376	N	1.354408	0.500465	0.500220
H377	H	0.587377	-0.201720	-0.260288
H378	H	0.837377	0.048280	-0.010288
H379	H	1.087377	0.298280	0.239712
H380	H	1.337377	0.548280	0.489712
H381	H	0.588061	-0.260548	-0.201869
H382	H	0.838061	-0.010548	0.048131
H383	H	1.088061	0.239452	0.298131
H384	H	1.338061	0.489452	0.548131
H385	H	0.976777	-0.868095	-0.412041
H386	H	1.226777	-0.618095	-0.162041
H387	H	1.476777	-0.368095	0.087959
H388	H	1.726777	-0.118095	0.337959
H389	H	0.938581	-0.624835	-0.446506
H390	H	1.188581	-0.374835	-0.196506
H391	H	1.438581	-0.124835	0.053494
H392	H	1.688581	0.125165	0.303494
N393	N	0.957532	-0.429314	-0.946615
N394	N	1.207532	-0.179314	-0.696615
N395	N	1.457532	0.070686	-0.446615
N396	N	1.707532	0.320686	-0.196615
H397	H	0.924469	-0.459268	-0.982242
H398	H	1.174469	-0.209268	-0.732242
H399	H	1.424469	0.040732	-0.482242
H400	H	1.674469	0.290732	-0.232242
H401	H	0.987613	-0.460596	-0.917500
H402	H	1.237613	-0.210596	-0.667500
H403	H	1.487613	0.039404	-0.417500
H404	H	1.737613	0.289404	-0.167500
H405	H	1.118767	-0.283270	-0.618665
H406	H	1.368767	-0.033270	-0.368665
H407	H	1.618767	0.216730	-0.118665
H408	H	1.868767	0.466730	0.131335
H409	H	1.112510	-0.288923	-0.751966
H410	H	1.362510	-0.038923	-0.501966
H411	H	1.612510	0.211077	-0.251966
H412	H	1.862510	0.461077	-0.001966
H413	H	1.144086	-0.260273	-1.082267
H414	H	1.394086	-0.010273	-0.832267
H415	H	1.644086	0.239727	-0.582267
H416	H	1.894086	0.489727	-0.332267
H417	H	0.938639	-0.446508	-0.625531
H418	H	1.188639	-0.196508	-0.375531
H419	H	1.438639	0.053492	-0.125531
H420	H	1.688639	0.303492	0.124469
