data_functionalizedCrystal
_audit_creation_method	'MofGen! by Chris Wilmer'
_symmetry_space_group_name_H-M	'P1'
_symmetry_Int_Tables_number	1
_symmetry_cell_setting	triclinic
loop_
_symmetry_equiv_pos_as_xyz
  x,y,z
_cell_length_a	16.625546
_cell_length_b	10.685912
_cell_length_c	10.686551
_cell_angle_alpha	98.411230
_cell_angle_beta	85.590142
_cell_angle_gamma	85.613067
loop_
_atom_site_label
_atom_site_type_symbol
_atom_site_fract_x
_atom_site_fract_y
_atom_site_fract_z
Zn1	Zn	-0.180765	-1.995772	-0.866778
Zn2	Zn	0.319235	-1.495772	-0.366778
Zn3	Zn	-0.326838	-1.979317	-0.654493
Zn4	Zn	0.173162	-1.479317	-0.154493
Zn5	Zn	-0.203203	-1.767191	-0.638228
Zn6	Zn	0.296797	-1.267191	-0.138228
Zn7	Zn	-0.326756	-1.783439	-0.850393
Zn8	Zn	0.173244	-1.283439	-0.350393
O9	O	-0.259391	-1.881430	-0.752473
O10	O	0.240609	-1.381430	-0.252473
O11	O	-0.190786	-2.171227	-0.852281
O12	O	0.309214	-1.671227	-0.352281
O13	O	-0.319862	-1.937493	-0.474701
O14	O	0.180138	-1.437493	0.025299
O15	O	-0.087388	-1.797600	-0.668595
O16	O	0.412612	-1.297600	-0.168595
O17	O	-0.298105	-2.159138	-0.696317
O18	O	0.201895	-1.659138	-0.196317
O19	O	-0.070903	-1.965537	-0.836510
O20	O	0.429097	-1.465537	-0.336510
O21	O	-0.229028	-1.781645	-0.462751
O22	O	0.270972	-1.281645	0.037249
O23	O	-0.228948	-1.591709	-0.652708
O24	O	0.271052	-1.091709	-0.152708
O25	O	-0.297965	-1.825291	-1.030201
O26	O	0.202035	-1.325291	-0.530201
O27	O	-0.319722	-1.603646	-0.808585
O28	O	0.180278	-1.103646	-0.308585
O29	O	-0.190707	-1.981291	-1.042238
O30	O	0.309293	-1.481291	-0.542238
O31	O	-0.439666	-1.953247	-0.680429
O32	O	0.060334	-1.453247	-0.180429
O33	O	-0.439606	-1.809336	-0.824357
O34	O	0.060394	-1.309336	-0.324357
C35	C	-0.276762	-1.551618	-0.727104
C36	C	0.223238	-1.051618	-0.227104
C37	C	-0.284211	-1.410526	-0.716282
C38	C	0.215789	-0.910526	-0.216282
C39	C	-0.468891	-1.881306	-0.752410
C40	C	0.031109	-1.381306	-0.252410
C41	C	-0.558507	-1.881372	-0.752435
C42	C	-0.058507	-1.381372	-0.252435
C43	C	-0.886664	-1.881604	-0.752584
C44	C	-0.386664	-1.381604	-0.252584
C45	C	-0.795361	-1.881535	-0.752546
C46	C	-0.295361	-1.381535	-0.252546
C47	C	-0.722589	-1.881487	-0.752509
C48	C	-0.222589	-1.381487	-0.252509
C49	C	-0.631279	-1.881421	-0.752472
C50	C	-0.131279	-1.381421	-0.252472
C51	C	-0.049069	-1.881591	-0.752566
C52	C	0.450931	-1.381591	-0.252566
C53	C	0.040557	-1.881660	-0.752605
C54	C	0.540557	-1.381660	-0.252605
C55	C	-0.241824	-1.906939	-1.083566
C56	C	0.258176	-1.406939	-0.583566
C57	C	-0.234338	-1.917810	-1.224658
C58	C	0.265662	-1.417810	-0.724658
C59	C	-0.241947	-1.212529	-0.777929
C60	C	0.258053	-0.712529	-0.277929
C61	C	-0.234500	-1.353621	-0.788748
C62	C	0.265500	-0.853621	-0.288748
C63	C	-0.276827	-1.856093	-0.422673
C64	C	0.223173	-1.356093	0.077327
C65	C	-0.284072	-1.845469	-0.281601
C66	C	0.215928	-1.345469	0.218399
H67	H	-0.332466	-1.351304	-0.645960
H68	H	0.167534	-0.851304	-0.145960
H69	H	-0.332381	-1.775222	-1.222413
H70	H	0.167619	-1.275222	-0.722413
C71	C	-0.169301	-1.433631	-0.883753
C72	C	0.330699	-0.933631	-0.383753
N73	N	-0.120194	-1.493895	-0.955310
N74	N	0.379806	-0.993895	-0.455310
H75	H	-0.186032	-1.988070	-1.283854
H76	H	0.313968	-1.488070	-0.783854
