data_functionalizedCrystal
_audit_creation_method	'MofGen! by Chris Wilmer'
_symmetry_space_group_name_H-M	'P1'
_symmetry_Int_Tables_number	1
_symmetry_cell_setting	triclinic
loop_
_symmetry_equiv_pos_as_xyz
  x,y,z
_cell_length_a	12.594516
_cell_length_b	14.908795
_cell_length_c	14.908694
_cell_angle_alpha	83.203537
_cell_angle_beta	93.272183
_cell_angle_gamma	93.308798
loop_
_atom_site_label
_atom_site_type_symbol
_atom_site_fract_x
_atom_site_fract_y
_atom_site_fract_z
Zn1	Zn	-0.367929	1.413403	-0.591796
Zn2	Zn	0.132071	1.913403	-0.091796
Zn3	Zn	-0.536231	1.404576	-0.440438
Zn4	Zn	-0.036231	1.904576	0.059562
Zn5	Zn	-0.367956	1.253299	-0.431700
Zn6	Zn	0.132044	1.753299	0.068300
Zn7	Zn	-0.555559	1.262004	-0.583010
Zn8	Zn	-0.055559	1.762004	-0.083010
O9	O	-0.456919	1.333321	-0.511736
O10	O	0.043081	1.833321	-0.011736
O11	O	-0.382154	1.538903	-0.579051
O12	O	0.117846	2.038903	-0.079051
O13	O	-0.505831	1.377172	-0.312611
O14	O	-0.005831	1.877172	0.187389
O15	O	-0.219004	1.274588	-0.452958
O16	O	0.280996	1.774588	0.047042
O17	O	-0.505805	1.532418	-0.467849
O18	O	-0.005805	2.032418	0.032151
O19	O	-0.218984	1.392215	-0.570579
O20	O	0.281016	1.892215	-0.070579
O21	O	-0.382200	1.266030	-0.306192
O22	O	0.117800	1.766030	0.193808
O23	O	-0.400942	1.127783	-0.444439
O24	O	0.099058	1.627783	0.055561
O25	O	-0.538747	1.289424	-0.710843
O26	O	-0.038747	1.789424	-0.210843
O27	O	-0.538774	1.134178	-0.555605
O28	O	-0.038774	1.634178	-0.055605
O29	O	-0.400896	1.400656	-0.717298
O30	O	0.099104	1.900656	-0.217298
O31	O	-0.687743	1.385613	-0.459330
O32	O	-0.187743	1.885613	0.040670
O33	O	-0.701943	1.280866	-0.564077
O34	O	-0.201943	1.780866	-0.064077
C35	C	-0.471959	1.098136	-0.498121
C36	C	0.028041	1.598136	0.001879
C37	C	-0.478421	0.997525	-0.492318
C38	C	0.021579	1.497525	0.007682
C39	C	-0.551787	0.852337	-0.426152
C40	C	-0.051787	1.352337	0.073848
C41	C	-0.545720	0.946871	-0.431604
C42	C	-0.045720	1.446871	0.068396
C43	C	-0.417181	0.953638	-0.547581
C44	C	0.082819	1.453638	-0.047581
C45	C	-0.423248	0.859105	-0.542129
C46	C	0.076752	1.359105	-0.042129
C47	C	-0.490554	0.808457	-0.481413
C48	C	0.009446	1.308457	0.018587
C49	C	-0.496626	0.713922	-0.475966
C50	C	0.003374	1.213922	0.024034
C51	C	-0.368082	0.720691	-0.591938
C52	C	0.131918	1.220691	-0.091938
C53	C	-0.362015	0.815225	-0.597390
C54	C	0.137985	1.315225	-0.097390
C55	C	-0.733463	1.333252	-0.511720
C56	C	-0.233463	1.833252	-0.011720
C57	C	-0.851767	1.333307	-0.511748
C58	C	-0.351767	1.833307	-0.011748
C59	C	-0.999541	1.276382	-0.568692
C60	C	-0.499541	1.776382	-0.068692
C61	C	-0.924770	1.360186	-0.595668
C62	C	-0.424770	1.860186	-0.095668
C63	C	-0.924968	1.249514	-0.484812
C64	C	-0.424968	1.749514	0.015188
C65	C	-0.987774	1.417306	-0.538811
C66	C	-0.487774	1.917306	-0.038811
C67	C	-0.987980	1.306577	-0.427914
C68	C	-0.487980	1.806577	0.072086
C69	C	-0.913235	1.390435	-0.454862
C70	C	-0.413235	1.890435	0.045138
C71	C	-0.179294	1.333415	-0.511774
C72	C	0.320706	1.833415	-0.011774
C73	C	-0.060987	1.333456	-0.511790
C74	C	0.439013	1.833456	-0.011790
C75	C	-0.471975	1.346996	-0.747832
C76	C	0.028025	1.846996	-0.247832
C77	C	-0.478391	1.352823	-0.848442
C78	C	0.021609	1.852823	-0.348442
C79	C	-0.441820	1.569423	-0.525405
C80	C	0.058180	2.069423	-0.025405
C81	C	-0.435386	1.670036	-0.531230
C82	C	0.064614	2.170036	-0.031230
C83	C	-0.361714	1.248020	-1.030815
C84	C	0.138286	1.748020	-0.530815
C85	C	-0.367739	1.253492	-1.125347
C86	C	0.132261	1.753492	-0.625347
C87	C	-0.496471	1.369235	-1.132039
C88	C	0.003529	1.869235	-0.632039
C89	C	-0.490446	1.363763	-1.037507
C90	C	0.009554	1.863763	-0.537507
C91	C	-0.423064	1.303154	-0.986898
C92	C	0.076936	1.803154	-0.486898
C93	C	-0.417034	1.297687	-0.892365
C94	C	0.082966	1.797687	-0.392365
C95	C	-0.545771	1.413425	-0.899059
C96	C	-0.045771	1.913425	-0.399059
C97	C	-0.551796	1.418897	-0.993591
C98	C	-0.051796	1.918897	-0.493591
C99	C	-0.441841	1.319751	-0.276562
C100	C	0.058159	1.819751	0.223438
C101	C	-0.435114	1.314099	-0.175962
C102	C	0.064886	1.814099	0.324038
H103	H	-0.595581	0.982594	-0.386604
H104	H	-0.095581	1.482594	0.113396
H105	H	-0.896878	1.382862	-0.666582
H106	H	-0.396878	1.882862	-0.166582
H107	H	-0.307214	0.856475	-0.646820
H108	H	0.192786	1.356475	-0.146820
H109	H	-0.362164	1.248340	-0.851161
H110	H	0.137836	1.748340	-0.351161
H111	H	-0.362377	0.994891	-0.597007
H112	H	0.137623	1.494891	-0.097007
H113	H	-1.015365	1.488257	-0.561692
H114	H	-0.515365	1.988257	-0.061692
H115	H	-0.306839	1.198678	-0.989609
H116	H	0.193161	1.698678	-0.489609
H117	H	-0.595723	1.458322	-0.863292
H118	H	-0.095723	1.958322	-0.363292
H119	H	-0.317782	1.208596	-1.161100
H120	H	0.182218	1.708596	-0.661100
H121	H	-0.606660	1.468240	-1.034809
H122	H	-0.106660	1.968240	-0.534809
H123	H	-1.037178	1.228246	-0.616873
H124	H	-0.537178	1.728246	-0.116873
H125	H	-0.551434	0.672687	-0.426532
H126	H	-0.051434	1.172687	0.073468
H127	H	-0.875787	1.438696	-0.406727
H128	H	-0.375787	1.938696	0.093273
H129	H	-0.606599	0.811100	-0.376723
H130	H	-0.106599	1.311100	0.123277
H131	H	-0.318223	0.684955	-0.636937
H132	H	0.181777	1.184955	-0.136937
H133	H	-1.015898	1.283877	-0.357019
H134	H	-0.515898	1.783877	0.142981
H135	H	-0.551345	1.418567	-1.173260
H136	H	-0.051345	1.918567	-0.673260
H137	H	-0.897248	1.178588	-0.462014
H138	H	-0.397248	1.678588	0.037986
