data_functionalizedCrystal
_audit_creation_method	'MofGen! by Chris Wilmer'
_symmetry_space_group_name_H-M	'P1'
_symmetry_Int_Tables_number	1
_symmetry_cell_setting	triclinic
loop_
_symmetry_equiv_pos_as_xyz
  x,y,z
_cell_length_a	16.109302
_cell_length_b	13.596369
_cell_length_c	16.109301
_cell_angle_alpha	90.001815
_cell_angle_beta	83.461631
_cell_angle_gamma	90.007866
loop_
_atom_site_label
_atom_site_type_symbol
_atom_site_fract_x
_atom_site_fract_y
_atom_site_fract_z
O1	O	1.103134	0.081839	0.106865
O2	O	0.861072	0.081831	0.120163
O3	O	0.988753	0.081825	-0.007517
O4	O	0.975453	0.081845	0.234545
O5	O	0.988737	-0.081758	-0.007510
O6	O	0.861056	-0.081752	0.120170
O7	O	1.103118	-0.081744	0.106872
Zn8	Zn	0.982085	-0.107720	0.113522
Zn9	Zn	0.982105	0.107807	0.113513
O10	O	0.975438	-0.081738	0.234552
C11	C	0.830089	0.000039	0.119628
C12	C	0.737794	0.000036	0.118013
C13	C	0.525444	-0.089124	0.114281
C14	C	0.438724	-0.089121	0.112755
C15	C	0.438752	0.089227	0.112751
C16	C	0.525471	0.089222	0.114272
C17	C	0.568815	0.000044	0.115041
C18	C	0.395375	0.000052	0.111994
C19	C	0.301350	0.000056	0.110338
C20	C	0.662847	0.000039	0.116695
N21	N	0.982077	-0.254812	0.113528
C22	C	0.982081	-0.343810	0.113530
C23	C	0.982089	-0.455461	0.113524
C24	C	0.982100	-0.544452	0.113515
C25	C	0.982109	-0.656110	0.113510
C26	C	1.134101	0.000050	0.107407
C27	C	1.226396	0.000060	0.109022
C28	C	0.988206	0.000033	-0.038488
C29	C	0.986591	0.000032	-0.130784
N30	N	0.982120	0.254899	0.113500
C31	C	1.058599	0.000050	-0.353056
C32	C	1.057074	0.000058	-0.439776
C33	C	0.905586	0.000049	-0.419902
C34	C	0.907111	0.000048	-0.333184
C35	C	0.983620	0.000043	-0.299763
C36	C	0.980571	0.000052	-0.473202
C37	C	0.978918	0.000061	-0.567228
C38	C	0.985273	0.000037	-0.205731
C39	C	0.975984	0.000056	0.265523
C40	C	0.977599	0.000064	0.357819
H41	H	0.560785	0.161838	0.114888
H42	H	1.118130	0.000065	-0.483165
C43	C	1.148196	0.084146	-0.267055
C44	C	1.142693	0.000056	-0.316315
H45	H	1.200112	0.084147	-0.244371
H46	H	1.144458	0.141180	-0.300472
H47	H	1.103755	0.084129	-0.222906
H48	H	1.187131	0.000077	-0.360468
H49	H	1.146440	-0.056993	-0.282897
C50	C	0.835983	0.000034	-0.544012
C51	C	0.821490	0.000040	-0.456642
H52	H	0.784064	0.000020	-0.566690
H53	H	0.866850	0.057079	-0.562302
H54	H	0.866854	-0.057011	-0.562298
H55	H	0.790624	0.057090	-0.438356
H56	H	0.790610	-0.057011	-0.438345
C57	C	0.778459	0.084128	-0.289542
C58	C	0.824686	0.000040	-0.274599
H59	H	0.727574	0.084121	-0.253378
H60	H	0.809835	0.141163	-0.279410
H61	H	0.766606	0.084115	-0.345974
H62	H	0.836544	0.000057	-0.218168
H63	H	0.793303	-0.057010	-0.284725
C64	C	0.561492	-0.241133	0.043315
C65	C	0.573092	-0.187145	0.115114
H66	H	0.590912	-0.301645	0.043826
H67	H	0.503645	-0.253889	0.042307
H68	H	0.582067	-0.204481	-0.004882
H69	H	0.552511	-0.223794	0.163311
H70	H	0.630952	-0.174392	0.116130
C71	C	0.305783	-0.168306	0.110407
C72	C	0.391052	-0.187136	0.111914
H73	H	0.276355	-0.228821	0.109880
H74	H	0.285221	-0.131676	0.158609
H75	H	0.297944	-0.131664	0.061701
H76	H	0.398891	-0.223773	0.160624
H77	H	0.411619	-0.223782	0.063707
C78	C	0.305828	0.168424	0.110428
C79	C	0.391104	0.187248	0.111917
H80	H	0.276414	0.228941	0.109920
H81	H	0.297967	0.131793	0.061727
H82	H	0.285266	0.131784	0.158636
H83	H	0.411667	0.223882	0.063705
H84	H	0.398970	0.223894	0.160623
