data_functionalizedCrystal
_audit_creation_method	'MofGen! by Chris Wilmer'
_symmetry_space_group_name_H-M	'P1'
_symmetry_Int_Tables_number	1
_symmetry_cell_setting	triclinic
loop_
_symmetry_equiv_pos_as_xyz
  x,y,z
_cell_length_a	13.339070
_cell_length_b	15.625429
_cell_length_c	12.376457
_cell_angle_alpha	83.658771
_cell_angle_beta	75.589755
_cell_angle_gamma	99.150231
loop_
_atom_site_label
_atom_site_type_symbol
_atom_site_fract_x
_atom_site_fract_y
_atom_site_fract_z
O1	O	1.397552	0.417076	-0.264988
O2	O	1.098183	0.360785	-0.241910
O3	O	1.245374	0.266309	-0.203185
O4	O	1.250361	0.511552	-0.303714
O5	O	1.208587	0.289887	-0.024837
O6	O	1.061396	0.384362	-0.063562
O7	O	1.360764	0.440654	-0.086641
Zn8	Zn	1.205239	0.416251	-0.046785
Zn9	Zn	1.253708	0.385187	-0.281766
O10	O	1.213574	0.535129	-0.125366
C11	C	1.041283	0.363065	-0.148838
C12	C	0.926543	0.334721	-0.137219
C13	C	0.580705	0.555103	-0.227575
C14	C	0.688509	0.581735	-0.238496
C15	C	0.748023	0.519984	-0.213177
C16	C	0.699722	0.431596	-0.176936
C17	C	0.591910	0.404960	-0.166022
C18	C	0.759227	0.369841	-0.151624
C19	C	0.710927	0.281453	-0.115383
C20	C	0.603125	0.254822	-0.104470
C21	C	0.543611	0.316573	-0.129789
C22	C	0.867040	0.396477	-0.162539
C23	C	0.878245	0.246334	-0.100986
C24	C	0.770441	0.219702	-0.090064
C25	C	1.223561	0.246068	-0.100884
C26	C	1.213360	0.150626	-0.061768
C27	C	1.280035	-0.227532	-0.419164
C28	C	1.270438	-0.317210	-0.382375
C29	C	1.230335	-0.291494	-0.187953
C30	C	1.239934	-0.201811	-0.224726
C31	C	1.264783	-0.169838	-0.340333
C32	C	1.224682	-0.144117	-0.145895
C33	C	1.234275	-0.054443	-0.182665
C34	C	1.259120	-0.022463	-0.298267
C35	C	1.274376	-0.080164	-0.377103
C36	C	1.199826	-0.176093	-0.030288
C37	C	1.184574	-0.118399	0.048543
C38	C	1.194174	-0.028722	0.011773
C39	C	1.219019	0.003258	-0.103829
C40	C	1.178918	0.028979	0.090609
C41	C	1.188511	0.118653	0.053839
C42	C	1.228612	0.092932	-0.140599
C43	C	1.417666	0.438373	-0.179715
C44	C	1.532406	0.466716	-0.191342
C45	C	1.235387	0.555370	-0.227669
C46	C	1.245590	0.650811	-0.266793
N47	N	1.172168	0.437453	0.113583
N48	N	1.286787	0.363980	-0.442132
C49	C	1.363555	0.314747	0.518865
C50	C	1.386696	0.299907	0.406608
C51	C	1.333066	0.334292	0.333346
C52	C	1.256291	0.383521	0.372352
C53	C	1.233154	0.398368	0.484617
C54	C	1.202664	0.417913	0.299099
C55	C	1.125890	0.467142	0.338105
C56	C	1.102756	0.481986	0.450360
C57	C	1.156386	0.447601	0.523621
C58	C	1.225802	0.403065	0.186834
C59	C	1.095400	0.486686	0.152587
C60	C	1.072259	0.501527	0.264843
H61	H	0.532242	0.605369	-0.248194
Cl62	Cl	1.289609	-0.389740	-0.481491
H63	H	1.351911	0.322206	0.241943
Cl64	Cl	1.483207	0.238023	0.357573
Cl65	Cl	1.430978	0.271535	0.610960
Cl66	Cl	0.749223	0.692845	-0.284059
Cl67	Cl	1.127289	0.466255	0.664752
H68	H	1.248856	0.118967	-0.234738
Cl69	Cl	1.199089	-0.331699	-0.042624
Cl70	Cl	1.271185	0.090272	-0.344496
Cl71	Cl	1.187764	-0.288829	0.015937
H72	H	1.294620	-0.054129	-0.471242
Cl73	Cl	1.322314	0.341179	0.137813
H74	H	0.926702	0.196051	-0.080373
Cl75	Cl	1.006252	0.543886	0.499392
H76	H	0.455828	0.294893	-0.120898
H77	H	1.051732	0.514688	0.092936
Cl78	Cl	0.927747	0.507589	-0.208096
Cl79	Cl	0.883549	0.553467	-0.226904
H80	H	0.563804	0.182849	-0.074972
H81	H	1.158675	0.002931	0.184737
Cl82	Cl	0.709708	0.108589	-0.044507
H83	H	1.300279	-0.201497	-0.513303
Cl84	Cl	1.153327	-0.158604	0.193873
Cl85	Cl	1.169343	0.191188	0.152942
Cl86	Cl	0.975746	0.563414	0.313891
