data_functionalizedCrystal
_audit_creation_method	'MofGen! by Chris Wilmer'
_symmetry_space_group_name_H-M	'P1'
_symmetry_Int_Tables_number	1
_symmetry_cell_setting	triclinic
loop_
_symmetry_equiv_pos_as_xyz
  x,y,z
_cell_length_a	14.853567
_cell_length_b	10.540539
_cell_length_c	13.930277
_cell_angle_alpha	89.997612
_cell_angle_beta	89.995755
_cell_angle_gamma	84.080211
loop_
_atom_site_label
_atom_site_type_symbol
_atom_site_fract_x
_atom_site_fract_y
_atom_site_fract_z
O1	O	1.197288	0.165727	-0.079760
O2	O	0.934938	0.185470	-0.079776
O3	O	1.072098	-0.009174	-0.079766
O4	O	1.060128	0.360371	-0.079770
O5	O	1.072079	-0.009178	0.079895
O6	O	0.934919	0.185465	0.079886
O7	O	1.197269	0.165723	0.079902
Zn8	Zn	1.066091	0.175594	0.105244
Zn9	Zn	1.066116	0.175599	-0.105118
O10	O	1.060108	0.360367	0.079892
C11	C	0.901335	0.184573	0.000053
C12	C	0.801236	0.181892	0.000047
C13	C	1.071191	-0.056469	0.000063
C14	C	1.068505	-0.197388	0.000057
C15	C	0.387998	0.054938	0.000069
C16	C	0.368000	0.286179	0.000066
C17	C	0.462048	0.288700	0.000063
C18	C	0.519075	0.174338	0.000062
C19	C	0.482055	0.057455	0.000063
C20	C	0.499075	0.405580	0.000052
C21	C	0.593129	0.408105	0.000048
C22	C	0.650158	0.293742	0.000053
C23	C	0.613132	0.176855	0.000056
C24	C	0.670159	0.062493	0.000054
C25	C	0.633135	-0.054396	0.000064
C26	C	0.539084	-0.056908	0.000069
C27	C	0.744209	0.296254	0.000048
C28	C	0.764216	0.065010	0.000048
C29	C	0.965588	-0.379682	-0.000307
C30	C	0.968311	-0.233094	0.000052
C31	C	1.116712	-0.259578	0.091235
C32	C	1.113293	-0.406085	0.091312
C33	C	1.115353	-0.406621	-0.090254
C34	C	1.116276	-0.259649	-0.091459
C35	C	1.230872	0.166620	0.000071
C36	C	1.330971	0.169300	0.000071
C37	C	1.061016	0.407662	0.000061
C38	C	1.063702	0.548580	0.000060
N39	N	1.066080	0.175589	0.248810
N40	N	1.066134	0.175594	-0.248684
C41	C	1.005379	0.261753	0.701075
C42	C	1.126878	0.089435	0.701053
C43	C	1.126867	0.089431	0.600557
C44	C	1.066112	0.175591	0.550315
C45	C	1.005368	0.261755	0.600570
C46	C	1.187617	0.003277	0.550295
C47	C	1.187609	0.003271	0.449793
C48	C	1.126849	0.089426	0.399550
C49	C	1.066102	0.175592	0.449810
C50	C	1.005347	0.261752	0.399569
C51	C	0.944594	0.347913	0.449828
C52	C	0.944608	0.347909	0.550327
C53	C	1.126835	0.089429	0.299051
C54	C	1.005336	0.261753	0.299064
H55	H	0.679579	-0.147509	0.000056
H56	H	1.081003	-0.218401	-0.158910
H57	H	0.321563	0.379287	0.000060
H58	H	0.955913	0.331901	0.741998
O59	O	1.070907	-0.439363	0.172674
C60	C	1.082042	-0.562380	0.318777
C61	C	1.130163	-0.524784	0.226685
H62	H	1.129923	-0.631469	0.362461
H63	H	1.061314	-0.473351	0.363254
H64	H	1.019229	-0.610219	0.298755
H65	H	1.193008	-0.476974	0.246621
H66	H	1.150824	-0.613855	0.182232
O67	O	1.199308	-0.464063	0.096309
C68	C	1.358147	-0.436585	0.105161
C69	C	1.260785	-0.370770	0.099520
H70	H	1.407879	-0.361188	0.107739
H71	H	1.366006	-0.497911	0.172648
H72	H	1.372637	-0.499395	0.039197
H73	H	1.246229	-0.307896	0.165435
H74	H	1.252975	-0.309521	0.031992
O75	O	0.443716	0.516694	-0.000121
C76	C	0.397863	0.713590	-0.082817
C77	C	0.460602	0.587785	-0.082753
H78	H	0.411506	0.771115	-0.149607
H79	H	0.324267	0.691778	-0.082869
H80	H	0.411413	0.771056	-0.015974
H81	H	0.447132	0.530258	-0.149584
H82	H	0.534177	0.609687	-0.082651
H83	H	0.357849	-0.040229	0.000081
O84	O	0.629126	0.521617	-0.000136
C85	C	0.723734	0.658639	-0.082846
C86	C	0.683013	0.530054	-0.082766
H87	H	0.767326	0.665490	-0.149635
H88	H	0.666849	0.739985	-0.082912
H89	H	0.767227	0.665599	-0.016002
H90	H	0.639530	0.522969	-0.149599
H91	H	0.739942	0.448770	-0.082650
H92	H	1.176347	0.019292	0.741962
O93	O	0.885670	0.431784	0.401062
C94	C	0.834219	0.652367	0.370346
C95	C	0.901012	0.557528	0.425621
H96	H	0.846586	0.754052	0.390197
H97	H	0.844655	0.637677	0.289874
H98	H	0.761915	0.635571	0.390098
H99	H	0.973342	0.574267	0.405949
H100	H	0.890496	0.572242	0.506079
H101	H	0.774350	0.391423	0.000042
O102	O	0.922985	-0.181959	-0.077940
C103	C	0.838134	-0.221880	-0.220272
C104	C	0.889430	-0.279946	-0.131974
H105	H	0.811007	-0.301077	-0.263994
H106	H	0.779326	-0.151288	-0.195704
H107	H	0.886156	-0.170281	-0.266524
H108	H	0.841479	-0.331610	-0.085685
H109	H	0.948248	-0.350471	-0.156608
O110	O	1.204473	-0.233821	0.095466
C111	C	1.318206	-0.137537	0.185373
C112	C	1.218801	-0.166650	0.180716
H113	H	1.329818	-0.083201	0.254282
H114	H	1.364557	-0.230735	0.184426
H115	H	1.333821	-0.077041	0.120813
H116	H	1.203101	-0.227106	0.245263
H117	H	1.172505	-0.073403	0.181616
H118	H	0.926017	-0.407845	-0.065692
O119	O	1.246545	-0.080362	0.599246
C120	C	1.300438	-0.156676	0.754068
C121	C	1.233637	-0.061902	0.698745
H122	H	1.290038	-0.141766	0.834523
H123	H	1.288043	-0.258409	0.734385
H124	H	1.372738	-0.139956	0.734241
H125	H	1.161311	-0.078506	0.718543
H126	H	1.246111	0.039798	0.718433
O127	O	0.918604	-0.415417	0.077224
C128	C	0.859566	-0.588316	0.161764
C129	C	0.912803	-0.548022	0.073927
H130	H	0.854842	-0.695525	0.159118
H131	H	0.895834	-0.563499	0.230315
H132	H	0.788547	-0.535722	0.160853
H133	H	0.983826	-0.600594	0.074746
H134	H	0.876464	-0.572813	0.005416
H135	H	0.955858	0.331910	0.258163
H136	H	0.930096	-0.190919	0.065517
O137	O	1.246649	-0.080551	0.401126
C138	C	1.367195	-0.251423	0.411718
C139	C	1.300370	-0.156581	0.466955
H140	H	1.410659	-0.312900	0.464918
H141	H	1.327905	-0.315028	0.364709
H142	H	1.412535	-0.196483	0.364625
H143	H	1.255014	-0.211417	0.514101
H144	H	1.339716	-0.092977	0.513904
O145	O	1.076742	-0.208550	0.172249
C146	C	0.997338	-0.247740	0.318396
C147	C	1.042600	-0.305695	0.226702
H148	H	0.969705	-0.326249	0.362437
H149	H	1.049287	-0.200871	0.362736
H150	H	0.939453	-0.173161	0.297858
H151	H	1.100478	-0.380323	0.247154
H152	H	0.990595	-0.352481	0.182386
H153	H	1.189326	-0.236231	-0.096960
O154	O	1.076686	-0.443612	-0.172769
C155	C	1.003172	-0.377211	-0.321311
C156	C	1.046969	-0.335147	-0.227921
H157	H	0.979117	-0.289540	-0.365919
H158	H	1.054948	-0.441603	-0.364099
H159	H	0.942965	-0.431642	-0.303018
H160	H	1.107168	-0.280666	-0.246128
H161	H	0.995135	-0.270818	-0.185159
O162	O	1.201673	-0.463962	-0.091162
C163	C	1.313948	-0.601857	-0.176489
C164	C	1.216182	-0.536966	-0.175603
H165	H	1.325704	-0.660917	-0.244743
H166	H	1.363353	-0.526013	-0.174148
H167	H	1.325148	-0.666755	-0.111186
H168	H	1.204895	-0.472075	-0.240896
H169	H	1.166827	-0.612876	-0.177895
H170	H	0.895146	0.418060	0.591253
H171	H	0.508930	-0.152072	0.000099
H172	H	0.810642	-0.028119	0.000051
H173	H	1.176303	0.019284	0.258135
