data_functionalizedCrystal
_audit_creation_method	'MofGen! by Chris Wilmer'
_symmetry_space_group_name_H-M	'P1'
_symmetry_Int_Tables_number	1
_symmetry_cell_setting	triclinic
loop_
_symmetry_equiv_pos_as_xyz
  x,y,z
_cell_length_a	10.723024
_cell_length_b	10.723023
_cell_length_c	9.798715
_cell_angle_alpha	89.997861
_cell_angle_beta	89.996609
_cell_angle_gamma	84.467709
loop_
_atom_site_label
_atom_site_type_symbol
_atom_site_fract_x
_atom_site_fract_y
_atom_site_fract_z
O1	O	1.657187	0.175025	-0.113479
O2	O	1.294034	0.191778	-0.113483
O3	O	1.483988	0.001825	-0.113475
O4	O	1.467233	0.364977	-0.113487
O5	O	1.483974	0.001824	0.113507
O6	O	1.294020	0.191777	0.113499
O7	O	1.657173	0.175024	0.113503
Zn8	Zn	1.475594	0.183401	0.149539
Zn9	Zn	1.475613	0.183401	-0.149519
O10	O	1.467219	0.364977	0.113495
C11	C	1.247528	0.190558	0.000007
C12	C	1.108973	0.186911	0.000006
C13	C	1.033991	0.293198	0.000001
C14	C	0.890787	0.289431	-0.000000
C15	C	1.482762	-0.044675	0.000014
C16	C	1.479114	-0.183229	0.000010
C17	C	1.477496	-0.244995	-0.117576
C18	C	1.473726	-0.388198	-0.117583
C19	C	1.703679	0.176243	0.000010
C20	C	1.842234	0.179891	0.000002
C21	C	1.468445	0.411477	0.000003
C22	C	1.472093	0.550031	-0.000002
N23	N	1.475590	0.183399	0.353639
N24	N	1.475626	0.183393	-0.353619
C25	C	1.555347	0.103292	0.421419
C26	C	1.555367	0.103288	0.578582
H27	H	0.906659	0.088896	-0.000003
H28	H	1.477701	-0.236366	0.100673
H29	H	1.478895	-0.191856	-0.218239
H30	H	1.472340	-0.441315	-0.218252
O31	O	1.394331	0.265275	0.576714
C32	C	1.462112	0.342618	0.494073
H33	H	1.559240	0.293531	0.472787
H34	H	1.471595	0.434920	0.549058
C35	C	1.272847	0.429015	0.384425
C36	C	1.392137	0.368721	0.358271
H37	H	1.229681	0.445123	0.300658
H38	H	1.227180	0.376912	0.440105
H39	H	1.280766	0.505927	0.430249
H40	H	1.384216	0.291804	0.312464
H41	H	1.437801	0.420812	0.302581
O42	O	1.473966	-0.386705	0.120146
C43	C	1.580992	-0.431663	0.195488
H44	H	1.655468	-0.476757	0.123146
H45	H	1.554603	-0.504162	0.272733
C46	C	1.541472	-0.266538	0.360012
C47	C	1.632949	-0.321914	0.271160
H48	H	1.573519	-0.198842	0.406696
H49	H	1.469363	-0.236251	0.309257
H50	H	1.519489	-0.326966	0.424372
H51	H	1.654918	-0.261491	0.206793
H52	H	1.705063	-0.352189	0.321907
H53	H	1.623611	0.034707	0.363099
H54	H	1.623654	0.034709	0.636870
O55	O	1.393969	0.265093	0.423145
C56	C	1.270143	0.244080	0.388327
H57	H	1.268365	0.144229	0.348957
H58	H	1.234180	0.313074	0.305501
C59	C	1.188046	0.385449	0.563716
C60	C	1.185861	0.262806	0.515371
H61	H	1.136055	0.397006	0.642080
H62	H	1.271469	0.399610	0.587170
H63	H	1.158080	0.442930	0.494683
H64	H	1.215842	0.205329	0.584398
H65	H	1.102441	0.248636	0.491931
O66	O	1.083933	0.405058	-0.000239
C67	C	1.158463	0.413727	-0.117773
H68	H	1.127036	0.348306	-0.199941
H69	H	1.260835	0.385682	-0.091189
C70	C	1.182637	0.629802	-0.070157
C71	C	1.144032	0.549459	-0.171081
H72	H	1.173741	0.713528	-0.103038
H73	H	1.132429	0.623961	0.009031
H74	H	1.267945	0.606415	-0.048013
H75	H	1.058722	0.572836	-0.193211
H76	H	1.194225	0.555306	-0.250275
O77	O	0.813802	0.397905	-0.000188
C78	C	0.737703	0.402637	-0.117765
H79	H	0.730400	0.303508	-0.156955
H80	H	0.780944	0.460059	-0.200082
C81	C	0.614997	0.585898	-0.033930
C82	C	0.606019	0.464145	-0.082057
H83	H	0.533770	0.623843	-0.011907
H84	H	0.666269	0.582713	0.045282
H85	H	0.651037	0.633733	-0.102536
H86	H	0.569995	0.416308	-0.013445
H87	H	0.554737	0.467322	-0.161256
H88	H	1.067152	0.093125	-0.000026
