data_functionalizedCrystal
_audit_creation_method	'MofGen! by Chris Wilmer'
_symmetry_space_group_name_H-M	'P1'
_symmetry_Int_Tables_number	1
_symmetry_cell_setting	triclinic
loop_
_symmetry_equiv_pos_as_xyz
  x,y,z
_cell_length_a	31.640172
_cell_length_b	21.606444
_cell_length_c	21.606444
_cell_angle_alpha	60.001331
_cell_angle_beta	90.005700
_cell_angle_gamma	59.997094
loop_
_atom_site_label
_atom_site_type_symbol
_atom_site_fract_x
_atom_site_fract_y
_atom_site_fract_z
Zr1	Zr	0.407174	0.677376	-0.081121
O2	O	0.339680	0.806511	-0.179957
O3	O	0.427865	0.548252	-0.050826
O4	O	0.427860	0.677376	-0.179944
O5	O	0.339689	0.677383	0.051015
O6	O	0.497417	0.677363	-0.179931
O7	O	0.339686	0.677387	-0.050839
O8	O	0.497427	0.446384	0.051039
O9	O	0.339680	0.908362	-0.179954
O10	O	0.488599	0.601349	-0.037891
O11	O	0.436692	0.601355	0.038111
O12	O	0.436686	0.753382	-0.113909
O13	O	0.384779	0.753388	-0.037907
Zr14	Zr	0.518115	0.677348	0.081346
Zr15	Zr	0.518110	0.677355	-0.081100
Zr16	Zr	0.407180	0.677369	0.081324
Zr17	Zr	0.407173	0.839816	-0.081116
Zr18	Zr	0.518117	0.514908	0.081341
O19	O	0.497424	0.806472	0.051050
O20	O	0.497416	0.806482	-0.179926
O21	O	0.339688	0.806501	0.051020
O22	O	0.585609	0.548213	0.180182
O23	O	0.585601	0.548223	-0.050795
O24	O	0.427873	0.548242	0.180151
O25	O	0.585600	0.677342	-0.050791
O26	O	0.497430	0.677348	0.180169
O27	O	0.427873	0.677361	0.180155
O28	O	0.585604	0.677337	0.051063
O29	O	0.427858	0.908345	-0.179937
O30	O	0.497431	0.446379	0.180161
O31	O	0.585610	0.446363	0.180178
O32	O	0.585606	0.446368	0.051056
O33	O	0.339684	0.908356	-0.050831
O34	O	0.427863	0.908340	-0.050814
O35	O	0.488604	0.601342	0.114134
O36	O	0.540511	0.601336	0.038131
O37	O	0.488598	0.753369	-0.037887
O38	O	0.436691	0.753375	0.038116
C39	C	0.462646	0.474174	0.000106
C40	C	0.462647	0.405214	0.000103
C41	C	0.489741	0.372813	-0.039570
C42	C	0.489742	0.308013	-0.039565
C43	C	0.462647	0.275620	0.000110
C44	C	0.435553	0.308023	0.039788
C45	C	0.435554	0.372818	0.039787
C46	C	0.435546	0.046714	0.039794
C47	C	0.435546	-0.018083	0.039791
C48	C	0.489735	-0.018091	-0.039558
C49	C	0.489736	0.046704	-0.039559
C50	C	0.462644	0.079098	0.000123
C51	C	0.462643	0.149361	0.000118
C52	C	0.462645	0.205363	0.000111
C53	C	0.323881	0.677388	0.000085
C54	C	0.276786	0.677396	0.000076
C55	C	0.011879	0.597994	0.039808
C56	C	-0.165106	0.597979	0.039823
O57	O	-0.164946	0.530486	0.073598
N58	N	-0.214334	0.677338	0.000142
C59	C	-0.219315	0.756707	-0.039542
O60	O	-0.265248	0.824206	-0.073287
C61	C	-0.042331	0.756721	-0.039553
C62	C	0.006897	0.677357	0.000125
C63	C	0.061104	0.518636	0.079483
C64	C	0.105347	0.518641	0.079476
C65	C	0.100365	0.598003	0.039793
C66	C	0.051140	0.677361	0.000118
C67	C	-0.047312	0.836089	-0.079232
C68	C	-0.003061	0.836085	-0.079229
C69	C	0.046167	0.756721	-0.039551
C70	C	0.090402	0.756728	-0.039573
N71	N	0.139629	0.677369	0.000109
C72	C	0.144611	0.598007	0.039792
C73	C	-0.312233	0.756694	-0.039536
C74	C	-0.356479	0.756690	-0.039534
C75	C	-0.302267	0.597962	0.039833
C76	C	-0.258020	0.597967	0.039826
C77	C	-0.263005	0.677335	0.000146
C78	C	0.237524	0.598022	0.039772
C79	C	0.281768	0.598034	0.039759
C80	C	0.227553	0.756761	-0.039604
C81	C	0.183312	0.756750	-0.039594
C82	C	0.188300	0.677374	0.000100
O83	O	0.090281	0.824186	-0.073322
O84	O	0.190548	0.530517	0.073545
C85	C	-0.032365	0.597990	0.039816
C86	C	-0.081590	0.677347	0.000140
C87	C	-0.086572	0.756710	-0.039542
C88	C	-0.125836	0.677344	0.000142
C89	C	-0.120854	0.597982	0.039824
C90	C	-0.071626	0.518623	0.079506
C91	C	-0.027383	0.518627	0.079498
C92	C	-0.135800	0.836069	-0.079224
C93	C	-0.180041	0.836058	-0.079214
C94	C	-0.175059	0.756695	-0.039531
C95	C	0.601408	0.677337	0.000139
C96	C	0.648503	0.677328	0.000149
C97	C	0.462638	0.677371	-0.203082
C98	C	0.462635	0.677374	-0.272045
C99	C	0.462643	0.880550	0.000119
C100	C	0.462643	0.949510	0.000121
C101	C	0.435537	0.756733	-0.344124
C102	C	0.435541	0.756731	-0.408919
C103	C	0.462642	0.677368	-0.401633
C104	C	0.489743	0.598003	-0.329546
C105	C	0.489742	0.598006	-0.264753
C106	C	0.489752	0.597988	-0.590849
C107	C	0.489750	0.597990	-0.655650
C108	C	0.435551	0.756712	-0.735015
C109	C	0.435550	0.756715	-0.670222
C110	C	0.462653	0.677351	-0.598141
C111	C	0.462649	0.677354	-0.527883
C112	C	0.462643	0.677364	-0.471889
C113	C	0.462652	0.677353	0.203307
C114	C	0.462654	0.677350	0.272269
C115	C	0.601410	0.474149	0.000133
C116	C	0.648505	0.405180	0.000140
C117	C	0.462653	0.474165	0.203300
C118	C	0.462656	0.405202	0.272260
C119	C	0.601417	0.474140	0.203327
C120	C	0.648515	0.405168	0.272297
C121	C	0.323873	0.880585	-0.203103
C122	C	0.276775	0.949556	-0.272072
C123	C	0.323880	0.880576	0.000092
C124	C	0.276785	0.949545	0.000085
C125	C	0.462636	0.880559	-0.203076
C126	C	0.462633	0.949522	-0.272036
C127	C	0.643524	0.372798	-0.039547
C128	C	0.687771	0.308003	-0.039556
C129	C	0.736999	0.275587	0.000127
C130	C	0.741979	0.307975	0.039815
C131	C	0.697732	0.372773	0.039819
C132	C	0.489755	0.372810	0.344335
C133	C	0.489756	0.308021	0.409136
C134	C	0.462660	0.275621	0.401862
C135	C	0.435558	0.308020	0.329780
C136	C	0.435555	0.372812	0.264980
C137	C	0.697732	0.372775	0.265013
C138	C	0.741989	0.307977	0.329811
C139	C	0.737029	0.275570	0.401892
C140	C	0.687806	0.307970	0.409174
C141	C	0.643550	0.372770	0.344377
C142	C	0.227558	0.981957	-0.264788
C143	C	0.183300	1.046775	-0.329586
C144	C	0.188261	1.079186	-0.401667
C145	C	0.237483	1.046782	-0.408949
C146	C	0.281740	0.981970	-0.344152
C147	C	0.281766	0.981933	0.039765
C148	C	0.237519	1.046746	0.039755
C149	C	0.188291	1.079164	0.000070
C150	C	0.183311	1.046773	-0.039614
C151	C	0.227557	0.981966	-0.039609
C152	C	0.489734	0.981901	-0.264737
C153	C	0.489742	1.046691	-0.329526
C154	C	0.462645	1.079104	-0.401614
C155	C	0.435543	1.046719	-0.408911
C156	C	0.435539	0.981926	-0.344122
H157	H	0.511797	-0.044476	-0.071866
O158	O	0.518998	0.512409	-0.187009
H159	H	0.514458	0.525743	-0.143178
H160	H	0.241584	1.073108	0.072074
O161	O	0.140525	1.149100	-0.471554
H162	H	0.105469	1.166179	-0.454372
O163	O	0.406358	0.407756	0.187219
H164	H	0.433746	0.395293	0.155851
H165	H	0.701781	0.399151	0.206327
O166	O	0.334828	0.947031	-0.352001
H167	H	0.356294	0.875549	-0.324377
O168	O	0.066486	0.433028	0.122279
H169	H	0.087987	0.394962	0.183262
H170	H	0.413481	-0.044457	0.072101
O171	O	0.406311	0.842328	-0.486660
H172	H	0.410870	0.828997	-0.530493
O173	O	0.795077	0.273005	0.082613
H174	H	0.791114	0.306408	0.110209
O175	O	0.222180	0.947034	-0.082407
H176	H	0.241044	0.875553	-0.042349
O177	O	0.518957	0.081647	-0.082356
H178	H	0.548906	0.069212	-0.042296
H179	H	0.413498	0.281630	0.323868
O180	O	0.518992	0.273078	0.486876
H181	H	0.548938	0.201593	0.518304
H182	H	0.413480	0.821340	-0.676161
H183	H	0.782064	0.281604	0.323868
H184	H	0.321845	0.955543	0.072086
H185	H	0.773023	0.222824	0.000119
O186	O	0.590431	0.407763	-0.082359
H187	H	0.594409	0.374361	-0.109962
O188	O	0.406316	1.081668	-0.486657
H189	H	0.376364	1.153150	-0.518078
O190	O	-0.204926	0.512369	0.082626
H191	H	-0.208901	0.457187	0.110221
H192	H	0.701795	0.399130	0.072141
H193	H	0.511800	0.955520	-0.206046
H194	H	0.241516	1.073179	-0.467645
H195	H	0.511820	0.399183	0.350272
H196	H	0.511802	0.399187	-0.071882
O197	O	0.518960	0.273078	-0.082367
H198	H	0.560607	0.243562	-0.059441
H199	H	0.413483	0.821335	-0.793713
O200	O	0.406321	0.081660	0.082582
H201	H	0.387475	0.048256	0.110160
H202	H	0.152267	1.131934	0.000072
O203	O	0.682394	0.273070	-0.082356
H204	H	0.640729	0.306489	-0.109935
O205	O	0.784765	0.205668	0.471779
H206	H	0.819820	0.188585	0.454596
H207	H	0.413494	0.281639	0.072096
O208	O	0.518972	1.081617	-0.321648
H209	H	0.537804	1.048199	-0.260636
H210	H	0.223509	0.955572	-0.206102
H211	H	0.511820	0.533360	-0.649709
H212	H	0.683775	0.281574	0.467871
H213	H	0.462667	0.222863	0.454632
H214	H	0.143224	1.073178	-0.071925
O215	O	0.590465	0.407689	0.352236
H216	H	0.594456	0.374252	0.413246
O217	O	0.406329	0.407774	0.082573
H218	H	0.387483	0.374371	0.110155
O219	O	0.130214	1.081702	-0.321724
H220	H	0.134204	1.048257	-0.260714
O221	O	0.334866	0.512431	0.082557
H222	H	0.330893	0.457247	0.110157
H223	H	0.462652	1.131863	-0.454362
O224	O	0.406305	0.947006	-0.351994
H225	H	0.364658	1.001417	-0.383463
O226	O	0.242909	0.512410	0.082574
H227	H	0.264411	0.474344	0.143556
O228	O	0.158441	0.433041	0.122276
H229	H	0.154463	0.377862	0.149873
H230	H	-0.396559	0.821317	-0.071854
O231	O	-0.296895	0.512360	0.082641
H232	H	-0.335935	0.525700	0.075977
H233	H	-0.087388	0.900716	-0.111541
O234	O	-0.317609	0.842299	-0.082350
H235	H	-0.339100	0.880367	-0.059435
O236	O	-0.008436	0.921691	-0.122034
H237	H	-0.050102	0.976870	-0.149626
O238	O	0.130213	0.842347	-0.082390
H239	H	0.134185	0.897532	-0.109982
H240	H	0.223505	0.821376	-0.071916
H241	H	0.012697	0.454001	0.111810
O242	O	-0.066255	0.433021	0.122309
H243	H	-0.105295	0.446361	0.115648
H244	H	-0.220123	0.900691	-0.111532
H245	H	0.413465	0.821359	-0.350065
O246	O	-0.141177	0.921671	-0.122034
H247	H	-0.182843	0.976846	-0.149628
H248	H	0.511812	0.533385	-0.323618
O249	O	0.518977	0.512392	-0.513110
H250	H	0.537815	0.457209	-0.518933
