data_functionalizedCrystal
_audit_creation_method	'MofGen! by Chris Wilmer'
_symmetry_space_group_name_H-M	'P1'
_symmetry_Int_Tables_number	1
_symmetry_cell_setting	triclinic
loop_
_symmetry_equiv_pos_as_xyz
  x,y,z
_cell_length_a	15.186229
_cell_length_b	16.109301
_cell_length_c	16.109301
_cell_angle_alpha	83.461481
_cell_angle_beta	90.005167
_cell_angle_gamma	90.000638
loop_
_atom_site_label
_atom_site_type_symbol
_atom_site_fract_x
_atom_site_fract_y
_atom_site_fract_z
O1	O	-0.073176	-1.103131	-0.106866
O2	O	0.260158	-0.769797	0.226467
O3	O	0.593491	-0.436464	0.559801
O4	O	-0.073190	-0.861069	-0.120165
O5	O	0.260143	-0.527735	0.213168
O6	O	0.593477	-0.194402	0.546501
O7	O	-0.073174	-0.988749	0.007515
O8	O	0.260160	-0.655416	0.340849
O9	O	0.593493	-0.322083	0.674182
O10	O	-0.073192	-0.975450	-0.234547
O11	O	0.260141	-0.642117	0.098787
O12	O	0.593474	-0.308783	0.432120
O13	O	0.073284	-0.988741	0.007517
O14	O	0.406617	-0.655407	0.340850
O15	O	0.739950	-0.322074	0.674184
O16	O	0.073267	-0.861060	-0.120164
O17	O	0.406601	-0.527727	0.213170
O18	O	0.739934	-0.194393	0.546503
O19	O	0.073282	-1.103122	-0.106864
O20	O	0.406615	-0.769789	0.226469
O21	O	0.739948	-0.436455	0.559802
Zn22	Zn	0.096528	-0.982090	-0.113514
Zn23	Zn	0.429861	-0.648756	0.219820
Zn24	Zn	0.763194	-0.315423	0.553153
Zn25	Zn	-0.096436	-0.982101	-0.113516
Zn26	Zn	0.236897	-0.648768	0.219817
Zn27	Zn	0.570231	-0.315434	0.553151
O28	O	0.073265	-0.975441	-0.234545
O29	O	0.406598	-0.642108	0.098788
O30	O	0.739932	-0.308775	0.432122
C31	C	0.000037	-0.830090	-0.119626
C32	C	0.333370	-0.496756	0.213708
C33	C	0.666704	-0.163423	0.547041
C34	C	0.000032	-0.737794	-0.118011
C35	C	0.333365	-0.404461	0.215323
C36	C	0.666698	-0.071128	0.548656
N37	N	0.228220	-0.982088	-0.113511
N38	N	0.561554	-0.648755	0.219822
N39	N	0.894887	-0.315422	0.553155
C40	C	0.000056	-0.988206	0.038491
C41	C	0.333389	-0.654873	0.371824
C42	C	0.666722	-0.321540	0.705158
C43	C	0.000057	-0.986591	0.130786
C44	C	0.333390	-0.653258	0.464120
C45	C	0.666723	-0.319925	0.797453
N46	N	-0.228129	-0.982109	-0.113512
N47	N	0.105205	-0.648776	0.219822
N48	N	0.438538	-0.315442	0.553155
C49	C	0.453950	-1.038644	-0.056994
C50	C	0.787284	-0.705311	0.276340
C51	C	1.120617	-0.371978	0.609673
C52	C	0.546140	-1.038647	-0.056992
C53	C	0.879473	-0.705314	0.276342
C54	C	1.212807	-0.371980	0.609675
C55	C	0.546135	-0.925547	-0.170032
C56	C	0.879468	-0.592214	0.163301
C57	C	1.212801	-0.258880	0.496634
C58	C	0.453947	-0.925541	-0.170030
C59	C	0.787280	-0.592208	0.163304
C60	C	1.120613	-0.258874	0.496637
C61	C	0.407857	-0.982094	-0.113511
C62	C	0.741190	-0.648761	0.219822
C63	C	1.074524	-0.315428	0.553155
C64	C	0.592235	-0.982103	-0.113512
C65	C	0.925568	-0.648770	0.219821
C66	C	1.258901	-0.315436	0.553155
C67	C	0.692191	-0.982105	-0.113510
C68	C	1.025524	-0.648772	0.219823
C69	C	1.358857	-0.315439	0.553157
C70	C	0.307894	-0.982091	-0.113512
C71	C	0.641228	-0.648758	0.219822
C72	C	0.974561	-0.315424	0.553155
C73	C	0.000053	-1.134101	-0.107404
C74	C	0.333386	-0.800768	0.225929
C75	C	0.666719	-0.467435	0.559263
C76	C	0.000052	-1.226397	-0.109019
C77	C	0.333385	-0.893063	0.224314
C78	C	0.666719	-0.559730	0.557648
C79	C	0.000036	-0.515522	-0.190018
C80	C	0.333370	-0.182188	0.143315
C81	C	0.666703	0.151145	0.476648
C82	C	0.000042	-0.428801	-0.188494
C83	C	0.333375	-0.095468	0.144839
C84	C	0.666709	0.237865	0.478172
C85	C	0.000050	-0.448676	-0.037006
C86	C	0.333383	-0.115342	0.296328
C87	C	0.666717	0.217991	0.629661
C88	C	0.000051	-0.535394	-0.038530
C89	C	0.333384	-0.202061	0.294803
C90	C	0.666717	0.131272	0.628136
C91	C	0.000039	-0.568815	-0.115039
C92	C	0.333373	-0.235482	0.218294
C93	C	0.666706	0.097852	0.551627
C94	C	0.000045	-0.395376	-0.111990
C95	C	0.333378	-0.062042	0.221343
C96	C	0.666711	0.271291	0.554676
C97	C	0.000051	-0.301350	-0.110337
C98	C	0.333384	0.031984	0.222996
C99	C	0.666717	0.365317	0.556329
C100	C	0.000035	-0.662847	-0.116693
C101	C	0.333368	-0.329514	0.216641
C102	C	0.666701	0.003820	0.549974
C103	C	0.000034	-0.975984	-0.265521
C104	C	0.333367	-0.642651	0.067813
C105	C	0.666701	-0.309318	0.401146
C106	C	0.000027	-0.977600	-0.357816
C107	C	0.333360	-0.644266	-0.024483
C108	C	0.666694	-0.310933	0.308851
C109	C	0.000047	-1.058599	0.353059
C110	C	0.333380	-0.725266	0.686392
C111	C	0.666714	-0.391932	1.019725
C112	C	0.000040	-1.057075	0.439779
C113	C	0.333373	-0.723742	0.773112
C114	C	0.666706	-0.390408	1.106446
C115	C	0.000034	-0.905586	0.419905
C116	C	0.333367	-0.572253	0.753238
C117	C	0.666701	-0.238919	1.086571
C118	C	0.000035	-0.907111	0.333186
C119	C	0.333369	-0.573778	0.666519
C120	C	0.666702	-0.240444	0.999853
C121	C	0.000046	-0.983620	0.299766
C122	C	0.333379	-0.650287	0.633099
C123	C	0.666713	-0.316953	0.966432
C124	C	0.000038	-0.980571	0.473205
C125	C	0.333371	-0.647238	0.806538
C126	C	0.666704	-0.313904	1.139871
C127	C	0.000030	-0.978918	0.567231
C128	C	0.333363	-0.645585	0.900564
C129	C	0.666696	-0.312251	1.233897
C130	C	0.000052	-0.985273	0.205734
C131	C	0.333386	-0.651940	0.539067
C132	C	0.666719	-0.318607	0.872400
H133	H	0.416426	-1.084692	-0.010972
H134	H	0.749760	-0.751359	0.322362
H135	H	1.083093	-0.418026	0.655695
H136	H	0.583670	-0.879503	-0.216049
H137	H	0.917003	-0.546170	0.117284
H138	H	1.250337	-0.212837	0.450617
F139	F	0.404887	-0.865347	-0.230183
F140	F	0.738220	-0.532013	0.103150
F141	F	1.071553	-0.198680	0.436484
F142	F	0.000040	-0.372086	-0.268298
F143	F	0.333374	-0.038753	0.065036
F144	F	0.666707	0.294581	0.398369
F145	F	0.000028	-0.551087	-0.271446
F146	F	0.333361	-0.217754	0.061888
F147	F	0.666694	0.115579	0.395221
F148	F	0.000028	-0.827304	0.276464
F149	F	0.333361	-0.493970	0.609797
F150	F	0.666694	-0.160637	0.943130
F151	F	0.000039	-1.136878	0.496495
F152	F	0.333372	-0.803545	0.829828
F153	F	0.666705	-0.470211	1.163161
H154	H	0.000065	-0.421454	0.025285
H155	H	0.333398	-0.088121	0.358619
H156	H	0.666731	0.245213	0.691952
H157	H	0.000056	-0.578788	0.022530
H158	H	0.333389	-0.245455	0.355864
H159	H	0.666722	0.087878	0.689197
H160	H	0.000054	-1.120897	0.325851
H161	H	0.333387	-0.787564	0.659184
H162	H	0.666721	-0.454231	0.992518
F163	F	0.000022	-0.824164	0.455481
F164	F	0.333355	-0.490831	0.788814
F165	F	0.666689	-0.157498	1.122148
H166	H	0.583667	-1.084694	-0.010969
H167	H	0.917000	-0.751361	0.322364
H168	H	1.250334	-0.418027	0.655698
