data_functionalizedCrystal
_audit_creation_method	'MofGen! by Chris Wilmer'
_symmetry_space_group_name_H-M	'P1'
_symmetry_Int_Tables_number	1
_symmetry_cell_setting	triclinic
loop_
_symmetry_equiv_pos_as_xyz
  x,y,z
_cell_length_a	18.215407
_cell_length_b	16.625545
_cell_length_c	18.215399
_cell_angle_alpha	89.975452
_cell_angle_beta	90.017368
_cell_angle_gamma	89.975606
loop_
_atom_site_label
_atom_site_type_symbol
_atom_site_fract_x
_atom_site_fract_y
_atom_site_fract_z
Zn1	Zn	1.125061	0.321065	0.416085
Zn2	Zn	1.124965	0.455905	0.293026
Zn3	Zn	1.001994	0.321084	0.293038
Zn4	Zn	1.001955	0.455853	0.416056
O5	O	1.063494	0.388477	0.354551
O6	O	1.228033	0.338965	0.399768
O7	O	1.108629	0.438051	0.190043
O8	O	1.018375	0.208249	0.309377
O9	O	1.227962	0.438032	0.309357
O10	O	1.108793	0.208235	0.399779
O11	O	1.018282	0.338998	0.190052
O12	O	0.899005	0.338948	0.309349
O13	O	1.018310	0.437943	0.519044
O14	O	0.898976	0.437962	0.399730
O15	O	1.108755	0.338915	0.519065
O16	O	1.108591	0.568731	0.309329
O17	O	1.018217	0.568693	0.399719
C18	C	0.872288	0.388452	0.354538
C19	C	0.790489	0.388461	0.354550
C20	C	0.602331	0.336983	0.401701
C21	C	0.525472	0.336990	0.401704
C22	C	0.525409	0.439993	0.307414
C23	C	0.602267	0.439982	0.307408
C24	C	0.640725	0.388478	0.354556
C25	C	0.487009	0.388496	0.354564
C26	C	0.403676	0.388504	0.354567
C27	C	0.724064	0.388469	0.354553
C28	C	1.063409	0.597968	0.354536
C29	C	1.063441	0.687589	0.354554
C30	C	1.063467	0.760371	0.354571
C31	C	1.063508	0.851680	0.354591
C32	C	1.063545	0.924456	0.354603
C33	C	1.063585	1.015770	0.354621
C34	C	1.255447	0.388502	0.354564
C35	C	1.337246	0.388513	0.354570
C36	C	1.063539	0.388421	0.546504
C37	C	1.063558	0.388398	0.628303
C38	C	1.063593	1.178168	0.354592
C39	C	1.063622	1.088547	0.354633
C40	C	1.063492	0.388474	0.163345
C41	C	1.063615	0.388271	0.081546
C42	C	1.110670	0.336785	0.816509
C43	C	1.110679	0.336762	0.893368
C44	C	1.016498	0.439885	0.893335
C45	C	1.016486	0.439904	0.816477
C46	C	1.063576	0.388355	0.778067
C47	C	1.063597	0.388313	0.931783
C48	C	1.063606	0.388288	1.015116
C49	C	1.063566	0.388379	0.694728
H50	H	0.633641	0.295043	0.440090
O51	O	0.639601	0.489893	0.261532
C52	C	0.684067	0.443914	0.214080
H53	H	0.660917	0.380408	0.209632
H54	H	0.684914	0.472999	0.157400
H55	H	0.742324	0.441155	0.236837
O56	O	1.156327	0.286591	0.779231
C57	C	1.140291	0.206226	0.798041
H58	H	1.081503	0.202149	0.819159
H59	H	1.146641	0.166401	0.747507
H60	H	1.179761	0.185142	0.842665
O61	O	0.970799	0.490074	0.930568
C62	C	0.986855	0.570442	0.911788
H63	H	1.015134	0.572129	0.855987
H64	H	0.933725	0.606594	0.909145
H65	H	1.024687	0.597592	0.955043
H66	H	1.149026	0.294767	0.924665
H67	H	0.978132	0.481898	0.785176
H68	H	0.494214	0.295057	0.440093
H69	H	0.494087	0.481927	0.269028
