data_functionalizedCrystal
_audit_creation_method	'MofGen! by Chris Wilmer'
_symmetry_space_group_name_H-M	'P1'
_symmetry_Int_Tables_number	1
_symmetry_cell_setting	triclinic
loop_
_symmetry_equiv_pos_as_xyz
  x,y,z
_cell_length_a	21.395362
_cell_length_b	21.395361
_cell_length_c	21.395355
_cell_angle_alpha	90.019049
_cell_angle_beta	89.956060
_cell_angle_gamma	89.953589
loop_
_atom_site_label
_atom_site_type_symbol
_atom_site_fract_x
_atom_site_fract_y
_atom_site_fract_z
Zn1	Zn	0.957860	0.249246	-0.354583
Zn2	Zn	1.207860	0.499246	-0.104583
Zn3	Zn	1.457860	0.749246	0.145417
Zn4	Zn	1.707860	0.999246	0.395417
Zn5	Zn	0.957763	0.354005	-0.249805
Zn6	Zn	1.207763	0.604005	0.000195
Zn7	Zn	1.457763	0.854005	0.250195
Zn8	Zn	1.707763	1.104005	0.500195
Zn9	Zn	0.853075	0.249275	-0.249785
Zn10	Zn	1.103075	0.499275	0.000215
Zn11	Zn	1.353075	0.749275	0.250215
Zn12	Zn	1.603075	0.999275	0.500215
Zn13	Zn	0.853045	0.354018	-0.354510
Zn14	Zn	1.103045	0.604018	-0.104510
Zn15	Zn	1.353045	0.854018	0.145490
Zn16	Zn	1.603045	1.104018	0.395490
O17	O	0.905436	0.301636	-0.302171
O18	O	1.155436	0.551636	-0.052171
O19	O	1.405436	0.801636	0.197829
O20	O	1.655436	1.051636	0.447829
O21	O	1.045525	0.263125	-0.340724
O22	O	1.295525	0.513125	-0.090724
O23	O	1.545525	0.763125	0.159276
O24	O	1.795525	1.013125	0.409276
O25	O	0.943848	0.340119	-0.162124
O26	O	1.193848	0.590119	0.087876
O27	O	1.443848	0.840119	0.337876
O28	O	1.693848	1.090119	0.587876
O29	O	0.867029	0.161593	-0.263709
O30	O	1.117029	0.411593	-0.013709
O31	O	1.367029	0.661593	0.236291
O32	O	1.617029	0.911593	0.486291
O33	O	1.045454	0.340091	-0.263743
O34	O	1.295454	0.590091	-0.013743
O35	O	1.545454	0.840091	0.236257
O36	O	1.795454	1.090091	0.486257
O37	O	0.944014	0.161572	-0.340704
O38	O	1.194014	0.411572	-0.090704
O39	O	1.444014	0.661572	0.159296
O40	O	1.694014	0.911572	0.409296
O41	O	0.866934	0.263174	-0.162109
O42	O	1.116934	0.513174	0.087891
O43	O	1.366934	0.763174	0.337891
O44	O	1.616934	1.013174	0.587891
O45	O	0.765393	0.263187	-0.263637
O46	O	1.015393	0.513187	-0.013637
O47	O	1.265393	0.763187	0.236363
O48	O	1.515393	1.013187	0.486363
O49	O	0.866977	0.340113	-0.442197
O50	O	1.116977	0.590113	-0.192197
O51	O	1.366977	0.840113	0.057803
O52	O	1.616977	1.090113	0.307803
O53	O	0.765371	0.340141	-0.340578
O54	O	1.015371	0.590141	-0.090578
O55	O	1.265371	0.840141	0.159422
O56	O	1.515371	1.090141	0.409422
O57	O	0.943984	0.263137	-0.442251
O58	O	1.193984	0.513137	-0.192251
O59	O	1.443984	0.763137	0.057749
O60	O	1.693984	1.013137	0.307749
O61	O	0.943819	0.441685	-0.263672
O62	O	1.193819	0.691685	-0.013672
O63	O	1.443819	0.941685	0.236328
O64	O	1.693819	1.191685	0.486328
O65	O	0.866882	0.441695	-0.340598
O66	O	1.116882	0.691695	-0.090598
O67	O	1.366882	0.941695	0.159402
O68	O	1.616882	1.191695	0.409402
C69	C	0.742648	0.301669	-0.302098
C70	C	0.992648	0.551669	-0.052098
C71	C	1.242648	0.801669	0.197902
C72	C	1.492648	1.051669	0.447902
C73	C	0.673007	0.301698	-0.302082
C74	C	0.923007	0.551698	-0.052082
C75	C	1.173007	0.801698	0.197918
C76	C	1.423007	1.051698	0.447918
C77	C	0.905354	0.464424	-0.302143
C78	C	1.155354	0.714424	-0.052143
C79	C	1.405354	0.964424	0.197857
C80	C	1.655354	1.214424	0.447857
C81	C	0.905376	0.534065	-0.302152
C82	C	1.155376	0.784065	-0.052152
C83	C	1.405376	1.034065	0.197848
C84	C	1.655376	1.284065	0.447848
C85	C	0.640298	0.341822	-0.342085
C86	C	0.890298	0.591822	-0.092085
C87	C	1.140298	0.841822	0.157915
C88	C	1.390298	1.091822	0.407915
C89	C	0.574863	0.341806	-0.342113
C90	C	0.824863	0.591806	-0.092113
C91	C	1.074863	0.841806	0.157887
C92	C	1.324863	1.091806	0.407887
C93	C	0.542139	0.301674	-0.302126
C94	C	0.792139	0.551674	-0.052126
C95	C	1.042139	0.801674	0.197874
C96	C	1.292139	1.051674	0.447874
C97	C	0.574855	0.261543	-0.262120
C98	C	0.824855	0.511543	-0.012120
C99	C	1.074855	0.761543	0.237880
C100	C	1.324855	1.011543	0.487880
C101	C	0.640289	0.261555	-0.262098
C102	C	0.890289	0.511555	-0.012098
C103	C	1.140289	0.761555	0.237902
C104	C	1.390289	1.011555	0.487902
C105	C	0.438414	0.296627	-0.245721
C106	C	0.688414	0.546627	0.004279
C107	C	0.938414	0.796627	0.254279
C108	C	1.188414	1.046627	0.504279
C109	C	0.372981	0.296619	-0.245742
C110	C	0.622981	0.546619	0.004258
C111	C	0.872981	0.796619	0.254258
C112	C	1.122981	1.046619	0.504258
C113	C	0.340318	0.301633	-0.302195
C114	C	0.590318	0.551633	-0.052195
C115	C	0.840318	0.801633	0.197805
C116	C	1.090318	1.051633	0.447805
C117	C	0.373096	0.306668	-0.358629
C118	C	0.623096	0.556668	-0.108629
C119	C	0.873096	0.806668	0.141371
C120	C	1.123096	1.056668	0.391371
C121	C	0.438530	0.306681	-0.358607
C122	C	0.688530	0.556681	-0.108607
C123	C	0.938530	0.806681	0.141393
C124	C	1.188530	1.056681	0.391393
C125	C	0.471186	0.301656	-0.302146
C126	C	0.721186	0.551656	-0.052146
C127	C	0.971186	0.801656	0.197854
C128	C	1.221186	1.051656	0.447854
C129	C	0.236657	0.341742	-0.342232
C130	C	0.486657	0.591742	-0.092232
C131	C	0.736657	0.841742	0.157768
C132	C	0.986657	1.091742	0.407768
C133	C	0.171220	0.341723	-0.342261
C134	C	0.421220	0.591723	-0.092261
C135	C	0.671220	0.841723	0.157739
C136	C	0.921220	1.091723	0.407739
C137	C	0.171213	0.261462	-0.262263
C138	C	0.421213	0.511462	-0.012263
C139	C	0.671213	0.761462	0.237737
C140	C	0.921213	1.011462	0.487737
C141	C	0.236649	0.261479	-0.262240
C142	C	0.486649	0.511479	-0.012240
C143	C	0.736649	0.761479	0.237760
C144	C	0.986649	1.011479	0.487760
C145	C	0.269367	0.301622	-0.302223
C146	C	0.519367	0.551622	-0.052223
C147	C	0.769367	0.801622	0.197777
C148	C	1.019367	1.051622	0.447777
C149	C	0.945472	0.566752	-0.262139
C150	C	1.195472	0.816752	-0.012139
C151	C	1.445472	1.066752	0.237861
C152	C	1.695472	1.316752	0.487861
C153	C	0.945501	0.632188	-0.262156
C154	C	1.195501	0.882188	-0.012156
C155	C	1.445501	1.132188	0.237844
C156	C	1.695501	1.382188	0.487844
C157	C	0.905423	0.664933	-0.302179
C158	C	1.155423	0.914933	-0.052179
C159	C	1.405423	1.164933	0.197821
C160	C	1.655423	1.414933	0.447821
C161	C	0.865324	0.632238	-0.342200
C162	C	1.115324	0.882238	-0.092200
C163	C	1.365324	1.132238	0.157800
C164	C	1.615324	1.382238	0.407800
C165	C	0.865300	0.566804	-0.342186
C166	C	1.115300	0.816804	-0.092186
C167	C	1.365300	1.066804	0.157814
C168	C	1.615300	1.316804	0.407814
C169	C	0.849009	0.768664	-0.307074
C170	C	1.099009	1.018664	-0.057074
C171	C	1.349009	1.268664	0.192926
C172	C	1.599009	1.518664	0.442926
C173	C	0.849032	0.834097	-0.307083
C174	C	1.099032	1.084097	-0.057083
C175	C	1.349032	1.334097	0.192917
C176	C	1.599032	1.584097	0.442917
C177	C	0.905497	0.866754	-0.302224
C178	C	1.155497	1.116754	-0.052224
C179	C	1.405497	1.366754	0.197776
C180	C	1.655497	1.616754	0.447776
C181	C	0.961941	0.833970	-0.297343
C182	C	1.211941	1.083970	-0.047343
C183	C	1.461941	1.333970	0.202657
C184	C	1.711941	1.583970	0.452657
C185	C	0.961917	0.768536	-0.297329
C186	C	1.211917	1.018536	-0.047329
C187	C	1.461917	1.268536	0.202671
C188	C	1.711917	1.518536	0.452671
C189	C	0.905445	0.735886	-0.302198
C190	C	1.155445	0.985886	-0.052198
C191	C	1.405445	1.235886	0.197802
C192	C	1.655445	1.485886	0.447802
C193	C	0.945628	0.970394	-0.262227
C194	C	1.195628	1.220394	-0.012227
C195	C	1.445628	1.470394	0.237773
C196	C	1.695628	1.720394	0.487773
C197	C	0.945659	1.035830	-0.262249
C198	C	1.195659	1.285830	-0.012249
C199	C	1.445659	1.535830	0.237751
C200	C	1.695659	1.785830	0.487751
C201	C	0.865476	1.035879	-0.342289
C202	C	1.115476	1.285879	-0.092289
C203	C	1.365476	1.535879	0.157711
C204	C	1.615476	1.785879	0.407711
C205	C	0.865451	0.970444	-0.342271
C206	C	1.115451	1.220444	-0.092271
C207	C	1.365451	1.470444	0.157729
C208	C	1.615451	1.720444	0.407729
C209	C	0.905526	0.937705	-0.302237
C210	C	1.155526	1.187705	-0.052237
C211	C	1.405526	1.437705	0.197763
C212	C	1.655526	1.687705	0.447763
C213	C	1.068859	0.301603	-0.302244
C214	C	1.318859	0.551603	-0.052244
C215	C	1.568859	0.801603	0.197756
C216	C	1.818859	1.051603	0.447756
C217	C	1.138500	0.301589	-0.302275
C218	C	1.388500	0.551589	-0.052275
C219	C	1.638500	0.801589	0.197725
C220	C	1.888500	1.051589	0.447725
C221	C	0.905488	0.301623	-0.465594
C222	C	1.155488	0.551623	-0.215594
C223	C	1.405488	0.801623	0.034406
C224	C	1.655488	1.051623	0.284406
C225	C	0.905510	0.301618	-0.535235
C226	C	1.155510	0.551618	-0.285235
C227	C	1.405510	0.801618	-0.035235
C228	C	1.655510	1.051618	0.214765
C229	C	0.905536	1.138213	-0.302223
C230	C	1.155536	1.388213	-0.052223
C231	C	1.405536	1.638213	0.197777
C232	C	1.655536	1.888213	0.447777
C233	C	0.905581	1.068571	-0.302273
C234	C	1.155581	1.318571	-0.052273
C235	C	1.405581	1.568571	0.197727
C236	C	1.655581	1.818571	0.447727
C237	C	0.945606	0.261535	-0.567978
C238	C	1.195606	0.511535	-0.317978
C239	C	1.445606	0.761535	-0.067978
C240	C	1.695606	1.011535	0.182022
C241	C	0.945605	0.261508	-0.633413
C242	C	1.195605	0.511508	-0.383413
C243	C	1.445605	0.761508	-0.133413
C244	C	1.695605	1.011508	0.116587
C245	C	0.905515	0.301575	-0.666104
C246	C	1.155515	0.551575	-0.416104
C247	C	1.405515	0.801575	-0.166104
C248	C	1.655515	1.051575	0.083896
C249	C	0.865411	0.341661	-0.633353
C250	C	1.115411	0.591661	-0.383353
C251	C	1.365411	0.841661	-0.133353
C252	C	1.615411	1.091661	0.116647
C253	C	0.865409	0.341682	-0.567919
C254	C	1.115409	0.591682	-0.317919
C255	C	1.365409	0.841682	-0.067919
C256	C	1.615409	1.091682	0.182081
C257	C	0.900539	0.357992	-0.769767
C258	C	1.150539	0.607992	-0.519767
C259	C	1.400539	0.857992	-0.269767
C260	C	1.650539	1.107992	-0.019767
C261	C	0.900546	0.357972	-0.835200
C262	C	1.150546	0.607972	-0.585200
C263	C	1.400546	0.857972	-0.335200
C264	C	1.650546	1.107972	-0.085200
C265	C	0.905519	0.301509	-0.867924
C266	C	1.155519	0.551509	-0.617924
C267	C	1.405519	0.801509	-0.367924
C268	C	1.655519	1.051509	-0.117924
C269	C	0.910498	0.245065	-0.835208
C270	C	1.160498	0.495065	-0.585208
C271	C	1.410498	0.745065	-0.335208
C272	C	1.660498	0.995065	-0.085208
C273	C	0.910495	0.245086	-0.769774
C274	C	1.160495	0.495086	-0.519774
C275	C	1.410495	0.745086	-0.269774
C276	C	1.660495	0.995086	-0.019774
C277	C	0.905513	0.301556	-0.737056
C278	C	1.155513	0.551556	-0.487056
C279	C	1.405513	0.801556	-0.237056
C280	C	1.655513	1.051556	0.012944
C281	C	0.945616	0.261393	-0.971619
C282	C	1.195616	0.511393	-0.721619
C283	C	1.445616	0.761393	-0.471619
C284	C	1.695616	1.011393	-0.221619
C285	C	0.945611	0.261365	-1.037056
C286	C	1.195611	0.511365	-0.787056
C287	C	1.445611	0.761365	-0.537056
C288	C	1.695611	1.011365	-0.287056
C289	C	0.865420	0.341524	-1.036995
C290	C	1.115420	0.591524	-0.786995
C291	C	1.365420	0.841524	-0.536995
C292	C	1.615420	1.091524	-0.286995
C293	C	0.865422	0.341547	-0.971560
C294	C	1.115422	0.591547	-0.721560
C295	C	1.365422	0.841547	-0.471560
C296	C	1.615422	1.091547	-0.221560
C297	C	0.905523	0.301482	-0.938876
C298	C	1.155523	0.551482	-0.688876
C299	C	1.405523	0.801482	-0.438876
C300	C	1.655523	1.051482	-0.188876
C301	C	0.905420	0.301603	-0.139383
C302	C	1.155420	0.551603	0.110617
C303	C	1.405420	0.801603	0.360617
C304	C	1.655420	1.051603	0.610617
C305	C	0.905519	0.301432	-0.069742
C306	C	1.155519	0.551432	0.180258
C307	C	1.405519	0.801432	0.430258
C308	C	1.655519	1.051432	0.680258
H309	H	0.666933	0.374509	-0.374644
H310	H	0.916933	0.624509	-0.124644
H311	H	1.166933	0.874509	0.125356
H312	H	1.416933	1.124509	0.375356
H313	H	0.832775	0.374190	-0.944901
H314	H	1.082775	0.624190	-0.694901
H315	H	1.332775	0.874190	-0.444901
H316	H	1.582775	1.124190	-0.194901
H317	H	0.914548	0.199088	-0.861851
H318	H	1.164548	0.449088	-0.611851
H319	H	1.414548	0.699088	-0.361851
H320	H	1.664548	0.949088	-0.111851
H321	H	0.978266	0.228767	-0.945007
H322	H	1.228266	0.478767	-0.695007
H323	H	1.478266	0.728767	-0.445007
H324	H	1.728266	0.978767	-0.195007
H325	H	0.978259	0.228910	-0.541370
H326	H	1.228259	0.478910	-0.291370
H327	H	1.478259	0.728910	-0.041370
H328	H	1.728259	0.978910	0.208630
H329	H	0.803024	0.742081	-0.311033
H330	H	1.053024	0.992081	-0.061033
H331	H	1.303024	1.242081	0.188967
H332	H	1.553024	1.492081	0.438967
Cl333	Cl	0.996003	0.211101	-0.674584
Cl334	Cl	1.246003	0.461101	-0.424584
Cl335	Cl	1.496003	0.711101	-0.174584
Cl336	Cl	1.746003	0.961101	0.075416
Cl337	Cl	0.996075	1.076924	-0.211946
Cl338	Cl	1.246075	1.326924	0.038054
Cl339	Cl	1.496075	1.576924	0.288054
Cl340	Cl	1.746075	1.826924	0.538054
H341	H	0.263297	0.374426	-0.374793
H342	H	0.513297	0.624426	-0.124793
H343	H	0.763297	0.874426	0.125207
H344	H	1.013297	1.124426	0.375207
Cl345	Cl	0.277770	0.211037	-0.211945
Cl346	Cl	0.527770	0.461037	0.038055
Cl347	Cl	0.777770	0.711037	0.288055
Cl348	Cl	1.027770	0.961037	0.538055
Cl349	Cl	0.894292	0.428929	-0.876322
Cl350	Cl	1.144292	0.678929	-0.626322
Cl351	Cl	1.394292	0.928929	-0.376322
Cl352	Cl	1.644292	1.178929	-0.126322
H353	H	0.144590	0.374395	-0.374841
H354	H	0.394590	0.624395	-0.124841
H355	H	0.644590	0.874395	0.125159
H356	H	0.894590	1.124395	0.375159
Cl357	Cl	0.331781	0.290289	-0.174799
Cl358	Cl	0.581781	0.540289	0.075201
Cl359	Cl	0.831781	0.790289	0.325201
Cl360	Cl	1.081781	1.040289	0.575201
H361	H	0.832846	1.062540	-0.374880
H362	H	1.082846	1.312540	-0.124880
H363	H	1.332846	1.562540	0.125120
H364	H	1.582846	1.812540	0.375120
H365	H	0.144570	0.228783	-0.229708
H366	H	0.394570	0.478783	0.020292
H367	H	0.644570	0.728783	0.270292
H368	H	0.894570	0.978783	0.520292
Cl369	Cl	0.996032	0.210980	-1.078219
Cl370	Cl	1.246032	0.460980	-0.828219
Cl371	Cl	1.496032	0.710980	-0.578219
Cl372	Cl	1.746032	0.960980	-0.328219
H373	H	0.465215	0.310779	-0.404557
H374	H	0.715215	0.560779	-0.154557
H375	H	0.965215	0.810779	0.095443
H376	H	1.215215	1.060779	0.345443
Cl377	Cl	0.479469	0.290325	-0.174744
Cl378	Cl	0.729469	0.540325	0.075256
Cl379	Cl	0.979469	0.790325	0.325256
Cl380	Cl	1.229469	1.040325	0.575256
H381	H	0.803071	0.860785	-0.311052
H382	H	1.053071	1.110785	-0.061052
H383	H	1.303071	1.360785	0.188948
H384	H	1.553071	1.610785	0.438948
Cl385	Cl	0.533717	0.211088	-0.211855
Cl386	Cl	0.783717	0.461088	0.038145
Cl387	Cl	1.033717	0.711088	0.288145
Cl388	Cl	1.283717	0.961088	0.538145
Cl389	Cl	0.814998	0.392078	-0.526755
Cl390	Cl	1.064998	0.642078	-0.276755
Cl391	Cl	1.314998	0.892078	-0.026755
Cl392	Cl	1.564998	1.142078	0.223245
H393	H	0.978155	0.658807	-0.229572
H394	H	1.228155	0.908807	0.020428
H395	H	1.478155	1.158807	0.270428
H396	H	1.728155	1.408807	0.520428
H397	H	1.007876	0.741844	-0.293357
H398	H	1.257876	0.991844	-0.043357
H399	H	1.507876	1.241844	0.206643
H400	H	1.757876	1.491844	0.456643
H401	H	0.666920	0.228880	-0.229522
H402	H	0.916920	0.478880	0.020478
H403	H	1.166920	0.728880	0.270478
H404	H	1.416920	0.978880	0.520478
Cl405	Cl	0.815009	0.392029	-0.674449
Cl406	Cl	1.065009	0.642029	-0.424449
Cl407	Cl	1.315009	0.892029	-0.174449
Cl408	Cl	1.565009	1.142029	0.075551
Cl409	Cl	0.814943	0.673403	-0.392517
Cl410	Cl	1.064943	0.923403	-0.142517
Cl411	Cl	1.314943	1.173403	0.107483
Cl412	Cl	1.564943	1.423403	0.357483
Cl413	Cl	0.995861	0.525598	-0.211819
Cl414	Cl	1.245861	0.775598	0.038181
Cl415	Cl	1.495861	1.025598	0.288181
Cl416	Cl	1.745861	1.275598	0.538181
Cl417	Cl	0.815038	0.929349	-0.392574
Cl418	Cl	1.065038	1.179349	-0.142574
Cl419	Cl	1.315038	1.429349	0.107426
Cl420	Cl	1.565038	1.679349	0.357426
H421	H	0.978262	0.943737	-0.229631
H422	H	1.228262	1.193737	0.020369
H423	H	1.478262	1.443737	0.270369
H424	H	1.728262	1.693737	0.520369
Cl425	Cl	0.814889	0.525709	-0.392492
Cl426	Cl	1.064889	0.775709	-0.142492
Cl427	Cl	1.314889	1.025709	0.107508
Cl428	Cl	1.564889	1.275709	0.357508
H429	H	0.896322	0.403959	-0.743128
H430	H	1.146322	0.653959	-0.493128
H431	H	1.396322	0.903959	-0.243128
H432	H	1.646322	1.153959	0.006872
H433	H	0.914548	0.199128	-0.743139
H434	H	1.164548	0.449128	-0.493139
H435	H	1.414548	0.699128	-0.243139
H436	H	1.664548	0.949128	0.006861
Cl437	Cl	0.332041	0.312969	-0.429604
Cl438	Cl	0.582041	0.562969	-0.179604
Cl439	Cl	0.832041	0.812969	0.070396
Cl440	Cl	1.082041	1.062969	0.320396
Cl441	Cl	0.533735	0.392251	-0.392406
Cl442	Cl	0.783735	0.642251	-0.142406
Cl443	Cl	1.033735	0.892251	0.107594
Cl444	Cl	1.283735	1.142251	0.357594
H445	H	0.832771	0.374141	-1.063611
H446	H	1.082771	0.624141	-0.813611
H447	H	1.332771	0.874141	-0.563611
H448	H	1.582771	1.124141	-0.313611
Cl449	Cl	1.032931	0.875017	-0.291227
Cl450	Cl	1.282931	1.125017	-0.041227
Cl451	Cl	1.532931	1.375017	0.208773
Cl452	Cl	1.782931	1.625017	0.458773
