data_functionalizedCrystal
_audit_creation_method	'MofGen! by Chris Wilmer'
_symmetry_space_group_name_H-M	'P1'
_symmetry_Int_Tables_number	1
_symmetry_cell_setting	triclinic
loop_
_symmetry_equiv_pos_as_xyz
  x,y,z
_cell_length_a	7.540329
_cell_length_b	9.065218
_cell_length_c	8.559649
_cell_angle_alpha	102.602692
_cell_angle_beta	90.003371
_cell_angle_gamma	89.997391
loop_
_atom_site_label
_atom_site_type_symbol
_atom_site_fract_x
_atom_site_fract_y
_atom_site_fract_z
O1	O	0.147562	-1.931000	0.233909
O2	O	0.147545	-1.499304	0.253095
O3	O	0.147553	-1.753184	0.011450
O4	O	0.147554	-1.677119	0.475553
O5	O	-0.147412	-1.753184	0.011437
O6	O	-0.147420	-1.499304	0.253081
O7	O	-0.147403	-1.930999	0.233896
Cu8	Cu	-0.174344	-1.715152	0.243487
Cu9	Cu	0.174486	-1.715152	0.243503
O10	O	-0.147411	-1.677119	0.475540
C11	C	0.000060	-1.444549	0.251244
C12	C	0.000054	-1.281399	0.245731
N13	N	-0.419692	-1.715162	0.243475
N14	N	0.419835	-1.715154	0.243503
C15	C	0.000074	-1.758949	-0.048003
C16	C	0.000085	-1.776108	-0.225135
C17	C	0.000075	-0.985754	0.235746
C18	C	0.000060	-1.148905	0.241259
C19	C	0.000072	-1.671354	0.534993
C20	C	0.000073	-1.654196	0.712125
H21	H	0.000063	-1.536695	-0.206079
C22	C	0.000092	-2.044070	-0.242521
C23	C	0.000080	-1.934746	-0.335552
H24	H	0.000078	-2.142003	-0.310691
H25	H	0.102954	-2.032187	-0.176908
H26	H	-0.102769	-2.032173	-0.176890
H27	H	0.102948	-1.946636	-0.401176
H28	H	-0.102792	-1.946634	-0.401194
