data_functionalizedCrystal
_audit_creation_method	'MofGen! by Chris Wilmer'
_symmetry_space_group_name_H-M	'P1'
_symmetry_Int_Tables_number	1
_symmetry_cell_setting	triclinic
loop_
_symmetry_equiv_pos_as_xyz
  x,y,z
_cell_length_a	12.759401
_cell_length_b	12.759400
_cell_length_c	12.759393
_cell_angle_alpha	89.968436
_cell_angle_beta	89.978811
_cell_angle_gamma	90.014632
loop_
_atom_site_label
_atom_site_type_symbol
_atom_site_fract_x
_atom_site_fract_y
_atom_site_fract_z
Zn1	Zn	1.606256	-0.418206	-0.594057
Zn2	Zn	1.606150	-0.593925	-0.418377
Zn3	Zn	1.430557	-0.418260	-0.418388
Zn4	Zn	1.430546	-0.593843	-0.594010
O5	O	1.518377	-0.506058	-0.506208
O6	O	1.753263	-0.441527	-0.570767
O7	O	1.582818	-0.570679	-0.271357
O8	O	1.453913	-0.271232	-0.441715
O9	O	1.753185	-0.570627	-0.441696
O10	O	1.582998	-0.271192	-0.570778
O11	O	1.453811	-0.441619	-0.271365
O12	O	1.283535	-0.441540	-0.441670
O13	O	1.453894	-0.570488	-0.741037
O14	O	1.283527	-0.570540	-0.570699
O15	O	1.582987	-0.441448	-0.741072
O16	O	1.582807	-0.740935	-0.441651
O17	O	1.453791	-0.740875	-0.570688
C18	C	1.245410	-0.506038	-0.506181
C19	C	1.128633	-0.506055	-0.506194
C20	C	0.963997	-0.573193	-0.438933
C21	C	1.073721	-0.573174	-0.438903
C22	C	1.073816	-0.438943	-0.573512
C23	C	0.964094	-0.438958	-0.573536
C24	C	0.963943	-0.650693	-0.361220
C25	C	1.073667	-0.650674	-0.361191
C26	C	1.518315	-0.779026	-0.506186
C27	C	1.518384	-0.895802	-0.506212
C28	C	1.585637	-0.950661	-0.439097
C29	C	1.585702	-1.060385	-0.439129
C30	C	1.451252	-1.060382	-0.573395
C31	C	1.451193	-0.950660	-0.573367
C32	C	1.663258	-0.950663	-0.361576
C33	C	1.663322	-1.060387	-0.361608
C34	C	1.792411	-0.506080	-0.506236
C35	C	1.909187	-0.506089	-0.506248
C36	C	1.518451	-0.505952	-0.780241
C37	C	1.518482	-0.505907	-0.897018
C38	C	1.518468	-0.232025	-0.506253
C39	C	1.518507	-0.115248	-0.506272
C40	C	1.585710	-0.438710	-0.951900
C41	C	1.585735	-0.438672	-1.061624
C42	C	1.451301	-0.573038	-1.061575
C43	C	1.451272	-0.573070	-0.951853
C44	C	1.663328	-0.361138	-0.951929
C45	C	1.663353	-0.361100	-1.061653
C46	C	1.518364	-0.506088	-0.233241
C47	C	1.518537	-0.505837	-0.116464
H48	H	1.107655	-0.621437	-0.283934
H49	H	1.740599	-0.390306	-0.917896
C50	C	1.133242	-0.365954	-0.646613
C51	C	1.061753	-0.307174	-0.705554
C52	C	1.116455	-0.239918	-0.772899
H53	H	1.176072	-0.406075	-0.692403
H54	H	1.176002	-0.320066	-0.606516
H55	H	1.019011	-0.353057	-0.745648
H56	H	1.018921	-0.267033	-0.659792
H57	H	1.159215	-0.194029	-0.732802
H58	H	1.159284	-0.280046	-0.818682
H59	H	1.067959	-0.200021	-0.812892
H60	H	1.641585	-1.090249	-0.280227
H61	H	1.744723	-0.382892	-1.091435
H62	H	1.634239	-0.283790	-1.095699
H63	H	0.919472	-0.384307	-0.628342
C64	C	1.113184	-0.759248	-0.390138
C65	C	1.027662	-0.825680	-0.407874
C66	C	1.064024	-0.925696	-0.434558
H67	H	1.154483	-0.786355	-0.334450
H68	H	1.154552	-0.754922	-0.451916
H69	H	0.986311	-0.830009	-0.346104
H70	H	0.986354	-0.798606	-0.463566
H71	H	1.105392	-0.921370	-0.496336
H72	H	1.105323	-0.952793	-0.378866
H73	H	1.006004	-0.970780	-0.446604
H74	H	1.641559	-0.279773	-0.922172
C75	C	1.378471	-1.120080	-0.646360
C76	C	1.437959	-1.182986	-0.713751
C77	C	1.370947	-1.238001	-0.780972
H78	H	1.338383	-1.071812	-0.686427
H79	H	1.332755	-1.163015	-0.606171
H80	H	1.483656	-1.140054	-0.753937
H81	H	1.478044	-1.231273	-0.673713
H82	H	1.325232	-1.280937	-0.740783
H83	H	1.330863	-1.189726	-0.821033
H84	H	1.411299	-1.280696	-0.826699
C85	C	0.924375	-0.621442	-0.252730
C86	C	1.009865	-0.603536	-0.186342
C87	C	0.973455	-0.576574	-0.086401
H88	H	0.883016	-0.677052	-0.225473
H89	H	0.883055	-0.559672	-0.257227
H90	H	1.051167	-0.665298	-0.181843
H91	H	1.051232	-0.547922	-0.213566
H92	H	0.932136	-0.514804	-0.090898
H93	H	0.932096	-0.632188	-0.059155
H94	H	1.031454	-0.564412	-0.041348
C95	C	1.378064	-0.891288	-0.646279
C96	C	1.319215	-0.962818	-0.705071
C97	C	1.251824	-0.908164	-0.772239
H98	H	1.418090	-0.848411	-0.692171
H99	H	1.332225	-0.848579	-0.606062
H100	H	1.365047	-1.005510	-0.745285
H101	H	1.279167	-1.005698	-0.659206
H102	H	1.205985	-0.865454	-0.732022
H103	H	1.291858	-0.865288	-0.818125
H104	H	1.211880	-0.956688	-0.812131
H105	H	1.744601	-0.920805	-0.383431
C106	C	1.378164	-0.645829	-1.121059
C107	C	1.274214	-0.622933	-1.094382
C108	C	1.206811	-0.689960	-1.149165
H109	H	1.393371	-0.716465	-1.103108
H110	H	1.387736	-0.636176	-1.194276
H111	H	1.264646	-0.632595	-1.021181
H112	H	1.258974	-0.552309	-1.112335
H113	H	1.216384	-0.680307	-1.222382
H114	H	1.222027	-0.760592	-1.131210
H115	H	1.136274	-0.674428	-1.131080
C116	C	1.378393	-0.646190	-0.892327
C117	C	1.401236	-0.750141	-0.918970
C118	C	1.334122	-0.817527	-0.864148
H119	H	1.307780	-0.630924	-0.910270
H120	H	1.387999	-0.636664	-0.819116
H121	H	1.391620	-0.759662	-0.992165
H122	H	1.471836	-0.765439	-0.901025
H123	H	1.343729	-0.808001	-0.790936
H124	H	1.263514	-0.802252	-0.882095
H125	H	1.349619	-0.888066	-0.882210
H126	H	1.740626	-1.094332	-0.390824
C127	C	1.624454	-0.905589	-0.258373
C128	C	1.598795	-0.987573	-0.190035
C129	C	1.563057	-0.946090	-0.094951
H130	H	1.564132	-0.863736	-0.270646
H131	H	1.677953	-0.863699	-0.227945
H132	H	1.545300	-1.029445	-0.220457
H133	H	1.659100	-1.029433	-0.177731
H134	H	1.616556	-0.904201	-0.064523
H135	H	1.502739	-0.904237	-0.107236
H136	H	1.545653	-1.001709	-0.048570
H137	H	0.929918	-0.728024	-0.390243
