data_functionalizedCrystal
_audit_creation_method	'MofGen! by Chris Wilmer'
_symmetry_space_group_name_H-M	'P1'
_symmetry_Int_Tables_number	1
_symmetry_cell_setting	triclinic
loop_
_symmetry_equiv_pos_as_xyz
  x,y,z
_cell_length_a	12.759401
_cell_length_b	12.759400
_cell_length_c	18.215399
_cell_angle_alpha	90.023429
_cell_angle_beta	90.017098
_cell_angle_gamma	90.013149
loop_
_atom_site_label
_atom_site_type_symbol
_atom_site_fract_x
_atom_site_fract_y
_atom_site_fract_z
Zn1	Zn	1.606246	-0.418278	0.416085
Zn2	Zn	1.606151	-0.593975	0.293029
Zn3	Zn	1.430554	-0.418310	0.293039
Zn4	Zn	1.430541	-0.593915	0.416060
O5	O	1.518373	-0.506119	0.354553
O6	O	1.753254	-0.441595	0.399768
O7	O	1.582823	-0.570711	0.190046
O8	O	1.453905	-0.271285	0.309376
O9	O	1.753185	-0.570680	0.309359
O10	O	1.582985	-0.271261	0.399778
O11	O	1.453813	-0.441652	0.190053
O12	O	1.283531	-0.441594	0.309351
O13	O	1.453883	-0.570577	0.519047
O14	O	1.283522	-0.570609	0.399734
O15	O	1.582973	-0.441537	0.519066
O16	O	1.582811	-0.740988	0.309334
O17	O	1.453791	-0.740944	0.399724
C18	C	1.245406	-0.506099	0.354541
C19	C	1.128629	-0.506116	0.354553
C20	C	1.518318	-0.779087	0.354541
C21	C	1.518390	-0.895863	0.354561
C22	C	0.964073	-0.439037	0.401708
C23	C	1.073798	-0.439022	0.401702
C24	C	1.073731	-0.573236	0.307414
C25	C	0.964009	-0.573255	0.307425
C26	C	0.909248	-0.371931	0.448855
C27	C	0.964138	-0.304812	0.495996
C28	C	1.073862	-0.304797	0.495989
C29	C	1.128696	-0.371902	0.448842
C30	C	1.585569	-0.950633	0.401672
C31	C	1.585618	-1.060357	0.401690
C32	C	1.451307	-1.060532	0.307480
C33	C	1.451254	-0.950810	0.307466
C34	C	1.652706	-0.895687	0.448767
C35	C	1.719890	-0.950456	0.495881
C36	C	1.719939	-1.060180	0.495899
C37	C	1.652803	-1.115135	0.448803
C38	C	1.792406	-0.506141	0.354565
C39	C	1.909183	-0.506149	0.354571
C40	C	1.518437	-0.506047	0.546506
C41	C	1.518464	-0.506016	0.628305
C42	C	1.518457	-0.232086	0.354581
C43	C	1.518493	-0.115310	0.354593
C44	C	1.518370	-0.506116	0.163347
C45	C	1.518546	-0.505851	0.081548
C46	C	1.585705	-0.438762	0.816510
C47	C	1.585718	-0.438732	0.893369
C48	C	1.451298	-0.573108	0.893338
C49	C	1.451280	-0.573132	0.816480
C50	C	1.518490	-0.505961	0.778069
C51	C	1.518520	-0.505906	0.931785
C52	C	1.518533	-0.505873	1.015118
C53	C	1.518476	-0.505992	0.694730
H54	H	0.919486	-0.250184	0.534385
H55	H	1.640429	-0.384064	0.785237
H56	H	1.774636	-1.104771	0.534267
H57	H	0.819905	-0.371931	0.448862
H58	H	1.218041	-0.371877	0.448835
H59	H	1.396550	-0.906216	0.269105
H60	H	1.118552	-0.250153	0.534378
H61	H	1.396538	-0.627853	0.785181
N62	N	0.904809	-0.645636	0.256575
H63	H	0.859266	-0.602882	0.222528
H64	H	0.859361	-0.694375	0.286479
N65	N	1.658202	-0.366241	0.934832
H66	H	1.700769	-0.323692	0.898833
H67	H	1.706819	-0.408988	0.966726
H68	H	1.652836	-1.204479	0.448830
H69	H	1.118385	-0.627869	0.269028
N70	N	1.378914	-1.119797	0.256676
H71	H	1.303827	-1.100753	0.268054
H72	H	1.389235	-1.197598	0.263854
H73	H	1.396580	-0.627798	0.924622
N74	N	1.652664	-0.777343	0.448739
H75	H	1.705390	-0.750843	0.485718
H76	H	1.580538	-0.751023	0.462197
N77	N	1.792285	-0.891192	0.546684
H78	H	1.782062	-0.813373	0.539526
H79	H	1.867339	-0.910329	0.535281
