data_functionalizedCrystal
_audit_creation_method	'MofGen! by Chris Wilmer'
_symmetry_space_group_name_H-M	'P1'
_symmetry_Int_Tables_number	1
_symmetry_cell_setting	triclinic
loop_
_symmetry_equiv_pos_as_xyz
  x,y,z
_cell_length_a	27.732048
_cell_length_b	17.038272
_cell_length_c	15.500227
_cell_angle_alpha	86.966746
_cell_angle_beta	87.176649
_cell_angle_gamma	93.122895
loop_
_atom_site_label
_atom_site_type_symbol
_atom_site_fract_x
_atom_site_fract_y
_atom_site_fract_z
O1	O	0.647280	-0.089326	-0.071995
O2	O	0.980613	0.244007	0.261339
O3	O	1.313947	0.577340	0.594672
O4	O	0.507133	-0.103465	-0.071986
O5	O	0.840466	0.229868	0.261348
O6	O	1.173800	0.563202	0.594681
O7	O	0.576373	0.017410	-0.071983
O8	O	0.909707	0.350743	0.261350
O9	O	1.243040	0.684076	0.594683
O10	O	0.578040	-0.210201	-0.071997
O11	O	0.911373	0.123132	0.261336
O12	O	1.244706	0.456466	0.594670
O13	O	0.572170	0.010103	0.071905
O14	O	0.905504	0.343437	0.405239
O15	O	1.238837	0.676770	0.738572
O16	O	0.502930	-0.110771	0.071903
O17	O	0.836263	0.222562	0.405236
O18	O	1.169597	0.555895	0.738570
O19	O	0.643077	-0.096633	0.071894
O20	O	0.976410	0.236701	0.405227
O21	O	1.309744	0.570034	0.738561
Cu22	Cu	0.572620	-0.104369	0.085037
Cu23	Cu	0.905953	0.228964	0.418370
Cu24	Cu	1.239287	0.562298	0.751703
Cu25	Cu	0.577590	-0.095728	-0.085128
Cu26	Cu	0.910924	0.237605	0.248205
Cu27	Cu	1.244257	0.570938	0.581538
O28	O	0.573837	-0.217507	0.071892
O29	O	0.907170	0.115826	0.405225
O30	O	1.240503	0.449159	0.738558
C31	C	0.572757	0.042867	-0.000039
C32	C	0.906090	0.376200	0.333294
C33	C	1.239423	0.709534	0.666628
C34	C	0.568236	0.129607	-0.000039
C35	C	0.901570	0.462941	0.333294
C36	C	1.234903	0.796274	0.666628
C37	C	0.487011	-0.106821	-0.000040
C38	C	0.820344	0.226512	0.333293
C39	C	1.153678	0.559845	0.666626
C40	C	0.433315	-0.105928	-0.000037
C41	C	0.766649	0.227405	0.333297
C42	C	1.099982	0.560739	0.666630
C43	C	0.663199	-0.093276	-0.000053
C44	C	0.996532	0.240057	0.333280
C45	C	1.329866	0.573391	0.666613
C46	C	0.716895	-0.094169	-0.000063
C47	C	1.050228	0.239164	0.333271
C48	C	1.383562	0.572497	0.666604
C49	C	1.052699	-0.028368	-0.000029
C50	C	1.386033	0.304965	0.333304
C51	C	1.719366	0.638299	0.666638
C52	C	1.254511	-0.031684	-0.000026
C53	C	1.587844	0.301650	0.333307
C54	C	1.921177	0.634983	0.666640
O55	O	1.283013	0.028486	0.000015
O56	O	1.616346	0.361820	0.333348
O57	O	1.949679	0.695153	0.666681
N58	N	1.276913	-0.103357	-0.000033
N59	N	1.610246	0.229976	0.333300
N60	N	1.943580	0.563309	0.666633
C61	C	1.248859	-0.174207	-0.000035
C62	C	1.582192	0.159126	0.333298
C63	C	1.915526	0.492460	0.666632
O64	O	1.272544	-0.235246	-0.000032
O65	O	1.605878	0.098087	0.333301
O66	O	1.939211	0.431421	0.666635
C67	C	1.047049	-0.170891	-0.000031
C68	C	1.380382	0.162443	0.333302
C69	C	1.713715	0.495776	0.666635
C70	C	1.024649	-0.099212	-0.000033
C71	C	1.357983	0.234121	0.333300
C72	C	1.691316	0.567455	0.666633
C73	C	1.030300	0.043305	-0.000030
C74	C	1.363633	0.376638	0.333304
C75	C	1.696966	0.709971	0.666637
C76	C	0.979850	0.044133	-0.000035
C77	C	1.313183	0.377466	0.333298
C78	C	1.646517	0.710800	0.666631
C79	C	0.951800	-0.026711	-0.000040
C80	C	1.285133	0.306622	0.333294
C81	C	1.618467	0.639956	0.666627
C82	C	0.974200	-0.098384	-0.000039
C83	C	1.307533	0.234950	0.333295
C84	C	1.640866	0.568283	0.666628
C85	C	1.018996	-0.241740	-0.000027
C86	C	1.352329	0.091594	0.333306
C87	C	1.685662	0.424927	0.666640
C88	C	0.968540	-0.240904	-0.000024
C89	C	1.301873	0.092429	0.333309
C90	C	1.635207	0.425762	0.666643
C91	C	0.946141	-0.169226	-0.000026
C92	C	1.279474	0.164107	0.333307
C93	C	1.612807	0.497441	0.666641
C94	C	0.895700	-0.168399	-0.000048
C95	C	1.229033	0.164934	0.333285
C96	C	1.562367	0.498267	0.666618
N97	N	0.873298	-0.096726	-0.000042
N98	N	1.206631	0.236607	0.333292
N99	N	1.539964	0.569941	0.666625
C100	C	0.901348	-0.025882	-0.000037
C101	C	1.234681	0.307451	0.333296
C102	C	1.568014	0.640785	0.666629
C103	C	1.354813	-0.175943	-0.000039
C104	C	1.688146	0.157390	0.333295
C105	C	2.021479	0.490724	0.666628
C106	C	1.405265	-0.176772	-0.000041
C107	C	1.738599	0.156561	0.333292
C108	C	2.071932	0.489895	0.666626
C109	C	1.410913	-0.034249	-0.000031
C110	C	1.744246	0.299085	0.333303
C111	C	2.077580	0.632418	0.666636
C112	C	1.360460	-0.033420	-0.000034
C113	C	1.693793	0.299913	0.333299
C114	C	2.027127	0.633247	0.666632
C115	C	1.332410	-0.104270	-0.000032
C116	C	1.665744	0.229064	0.333302
C117	C	1.999077	0.562397	0.666635
C118	C	0.795399	-0.024147	-0.000049
C119	C	1.128733	0.309186	0.333284
C120	C	1.462066	0.642519	0.666617
C121	C	0.744945	-0.023325	-0.000058
C122	C	1.078278	0.310008	0.333275
C123	C	1.411612	0.643342	0.666608
C124	C	0.739302	-0.165848	-0.000064
C125	C	1.072635	0.167485	0.333269
C126	C	1.405968	0.500818	0.666603
C127	C	0.789752	-0.166671	-0.000060
C128	C	1.123085	0.166662	0.333274
C129	C	1.456418	0.499996	0.666607
C130	C	0.817799	-0.095814	-0.000049
C131	C	1.151133	0.237519	0.333284
C132	C	1.484466	0.570852	0.666617
O133	O	0.867168	-0.228538	-0.000080
O134	O	1.200501	0.104796	0.333254
O135	O	1.533834	0.438129	0.666587
O136	O	0.877653	0.035147	-0.000021
O137	O	1.210986	0.368481	0.333312
O138	O	1.544320	0.701814	0.666646
C139	C	1.103149	-0.029196	-0.000024
C140	C	1.436482	0.304137	0.333310
C141	C	1.769816	0.637470	0.666643
C142	C	1.125549	-0.100869	-0.000023
C143	C	1.458882	0.232464	0.333311
C144	C	1.792215	0.565798	0.666644
C145	C	1.097499	-0.171713	-0.000027
C146	C	1.430832	0.161620	0.333306
C147	C	1.764165	0.494954	0.666640
C148	C	1.176001	-0.101698	-0.000025
C149	C	1.509334	0.231635	0.333308
C150	C	1.842668	0.564968	0.666642
C151	C	1.204051	-0.030854	-0.000021
C152	C	1.537384	0.302479	0.333313
C153	C	1.870718	0.635813	0.666646
C154	C	1.181649	0.040819	-0.000014
C155	C	1.514982	0.374153	0.333320
C156	C	1.848315	0.707486	0.666653
C157	C	1.131199	0.041648	-0.000019
C158	C	1.464532	0.374981	0.333314
C159	C	1.797866	0.708314	0.666648
C160	C	1.119901	-0.243387	-0.000034
C161	C	1.453234	0.089947	0.333299
C162	C	1.786568	0.423280	0.666633
C163	C	1.170351	-0.244209	-0.000030
C164	C	1.503684	0.089124	0.333304
C165	C	1.837018	0.422458	0.666637
C166	C	1.198401	-0.173365	-0.000025
C167	C	1.531734	0.159968	0.333308
C168	C	1.865068	0.493302	0.666642
C169	C	0.577453	-0.242965	-0.000055
C170	C	0.910787	0.090369	0.333279
C171	C	1.244120	0.423702	0.666612
C172	C	0.581974	-0.329705	-0.000060
C173	C	0.915307	0.003629	0.333273
C174	C	1.248641	0.336962	0.666606
N175	N	0.569127	-0.110446	0.204721
N176	N	0.902461	0.222887	0.538055
N177	N	1.235794	0.556221	0.871388
C178	C	0.609739	0.180205	-0.000041
C179	C	0.943073	0.513539	0.333293
C180	C	1.276406	0.846872	0.666626
C181	C	0.605489	0.261707	-0.000049
C182	C	0.938822	0.595040	0.333285
C183	C	1.272156	0.928373	0.666618
C184	C	0.559736	0.292608	-0.000049
C185	C	0.893069	0.625942	0.333285
C186	C	1.226402	0.959275	0.666618
C187	C	0.518230	0.242004	-0.000049
C188	C	0.851563	0.575337	0.333284
C189	C	1.184896	0.908670	0.666617
C190	C	0.522480	0.160504	-0.000048
C191	C	0.855814	0.493838	0.333286
C192	C	1.189147	0.827171	0.666619
C193	C	0.544719	0.538192	-0.000059
C194	C	0.878052	0.871525	0.333274
C195	C	1.211386	1.204858	0.666607
C196	C	0.540471	0.619697	-0.000059
C197	C	0.873804	0.953031	0.333275
C198	C	1.207138	1.286364	0.666608
C199	C	0.627731	0.639395	-0.000059
C200	C	0.961064	0.972728	0.333274
C201	C	1.294398	1.306062	0.666607
C202	C	0.631978	0.557893	-0.000052
C203	C	0.965311	0.891226	0.333281
C204	C	1.298644	1.224559	0.666614
C205	C	0.590472	0.507296	-0.000058
C206	C	0.923805	0.840629	0.333276
C207	C	1.257138	1.173962	0.666609
C208	C	0.555390	0.375915	-0.000054
C209	C	0.888724	0.709249	0.333279
C210	C	1.222057	1.042582	0.666613
C211	C	0.594818	0.423990	-0.000059
C212	C	0.928151	0.757324	0.333275
C213	C	1.261484	1.090657	0.666608
N214	N	0.581086	-0.089645	-0.204813
N215	N	0.914420	0.243688	0.128520
N216	N	1.247753	0.577021	0.461854
C217	C	0.598479	-0.059246	0.249999
C218	C	0.931812	0.274088	0.583332
C219	C	1.265145	0.607421	0.916666
C220	C	0.595842	-0.063849	0.340572
C221	C	0.929176	0.269485	0.673905
C222	C	1.262509	0.602818	1.007239
C223	C	0.563857	-0.119656	0.385865
C224	C	0.897190	0.213677	0.719199
C225	C	1.230523	0.547010	1.052532
C226	C	0.534502	-0.170859	0.340581
C227	C	0.867836	0.162475	0.673915
C228	C	1.201169	0.495808	1.007248
C229	C	0.537137	-0.166252	0.250010
C230	C	0.870470	0.167082	0.583344
C231	C	1.203803	0.500415	0.916677
C232	C	0.554366	-0.136241	0.659332
C233	C	0.887699	0.197093	0.992665
C234	C	1.221033	0.530426	1.325999
C235	C	0.551735	-0.140846	0.749909
C236	C	0.885068	0.192488	1.083243
C237	C	1.218402	0.525821	1.416576
C238	C	0.613075	-0.033834	0.749894
C239	C	0.946408	0.299499	1.083227
C240	C	1.279741	0.632833	1.416560
C241	C	0.615708	-0.029235	0.659321
C242	C	0.949042	0.304098	0.992654
C243	C	1.282375	0.637432	1.325987
C244	C	0.586352	-0.080435	0.614045
C245	C	0.919685	0.252899	0.947378
C246	C	1.253019	0.586232	1.280711
C247	C	0.561162	-0.124364	0.478445
C248	C	0.894495	0.208969	0.811778
C249	C	1.227829	0.542302	1.145112
C250	C	0.589044	-0.075722	0.521466
C251	C	0.922378	0.257611	0.854800
C252	C	1.255711	0.590944	1.188133
H253	H	0.726710	0.035047	-0.000062
H254	H	1.060044	0.368380	0.333271
H255	H	1.393377	0.701713	0.666605
Cl256	Cl	0.830652	0.064931	-0.000039
Cl257	Cl	1.163985	0.398264	0.333295
Cl258	Cl	1.497319	0.731598	0.666628
Cl259	Cl	0.494289	-0.241014	0.397520
Cl260	Cl	0.827622	0.092319	0.730853
Cl261	Cl	1.160955	0.425652	1.064186
H262	H	0.480976	0.267170	-0.000055
H263	H	0.814310	0.600504	0.333278
H264	H	1.147643	0.933837	0.666612
H265	H	0.646996	0.155052	-0.000035
H266	H	0.980330	0.488386	0.333298
H267	H	1.313663	0.821719	0.666631
Cl268	Cl	0.482948	0.658543	-0.000054
Cl269	Cl	0.816281	0.991876	0.333280
Cl270	Cl	1.149615	1.325209	0.666613
H271	H	0.510922	0.497005	-0.000064
H272	H	0.844255	0.830338	0.333270
H273	H	1.177588	1.163671	0.666603
Cl274	Cl	0.638694	0.010913	0.193068
Cl275	Cl	0.972027	0.344246	0.526402
Cl276	Cl	1.305361	0.677579	0.859735
H277	H	0.488684	0.119307	-0.000046
H278	H	0.822018	0.452641	0.333287
H279	H	1.155351	0.785974	0.666620
Cl280	Cl	0.933281	-0.329979	-0.000017
Cl281	Cl	1.266614	0.003355	0.333316
Cl282	Cl	1.599947	0.336688	0.666650
Cl283	Cl	0.817912	-0.256781	-0.000068
Cl284	Cl	1.151245	0.076552	0.333265
Cl285	Cl	1.484579	0.409885	0.666598
Cl286	Cl	0.520953	-0.194523	0.535389
Cl287	Cl	0.854286	0.138810	0.868723
Cl288	Cl	1.187620	0.472143	1.202056
H289	H	0.961617	0.102501	-0.000033
H290	H	1.294950	0.435834	0.333300
H291	H	1.628284	0.769168	0.666634
Cl292	Cl	0.679906	0.703006	-0.000055
Cl293	Cl	1.013239	1.036340	0.333278
Cl294	Cl	1.346573	1.369673	0.666612
H295	H	1.433760	0.023435	-0.000030
H296	H	1.767093	0.356769	0.333303
H297	H	2.100427	0.690102	0.666636
H298	H	0.632071	0.398828	-0.000078
H299	H	0.965404	0.732161	0.333256
H300	H	1.298737	1.065495	0.666589
H301	H	0.525687	-0.186294	0.786783
H302	H	0.859020	0.147039	1.120116
H303	H	1.192354	0.480373	1.453450
H304	H	0.513235	-0.207943	0.213146
H305	H	0.846568	0.125390	0.546479
H306	H	1.179902	0.458723	0.879813
H307	H	0.619742	-0.022157	0.377437
H308	H	0.953075	0.311176	0.710770
H309	H	1.286409	0.644510	1.044103
Cl310	Cl	1.216921	0.129880	-0.000011
Cl311	Cl	1.550255	0.463213	0.333323
Cl312	Cl	1.883588	0.796546	0.666656
Cl313	Cl	0.657667	0.325313	-0.000048
Cl314	Cl	0.991000	0.658646	0.333285
Cl315	Cl	1.324333	0.991980	0.666619
H316	H	1.053133	0.100998	-0.000023
H317	H	1.386466	0.434331	0.333310
H318	H	1.719800	0.767664	0.666643
Cl319	Cl	0.497873	0.414770	-0.000059
Cl320	Cl	0.831207	0.748104	0.333275
Cl321	Cl	1.164540	1.081437	0.666608
H322	H	0.641753	0.016208	0.622445
H323	H	0.975087	0.349541	0.955778
H324	H	1.308420	0.682875	1.289111
H325	H	0.530464	-0.177931	0.622475
H326	H	0.863797	0.155402	0.955808
H327	H	1.197131	0.488736	1.289142
Cl328	Cl	0.649976	0.030530	0.806816
Cl329	Cl	0.983309	0.363864	1.140149
Cl330	Cl	1.316642	0.697197	1.473483
Cl331	Cl	0.629252	-0.005564	0.464526
Cl332	Cl	0.962585	0.327769	0.797859
Cl333	Cl	1.295919	0.661103	1.131192
H334	H	1.342226	0.024947	-0.000035
H335	H	1.675559	0.358280	0.333298
H336	H	2.008893	0.691614	0.666631
H337	H	1.423499	-0.235139	-0.000052
H338	H	1.756832	0.098194	0.333282
H339	H	2.090165	0.431527	0.666615
H340	H	1.037224	-0.300108	-0.000029
H341	H	1.370558	0.033225	0.333304
H342	H	1.703891	0.366559	0.666637
Cl343	Cl	1.103048	0.131763	-0.000025
Cl344	Cl	1.436381	0.465096	0.333308
Cl345	Cl	1.769714	0.798430	0.666642
Cl346	Cl	1.319557	-0.265020	-0.000043
Cl347	Cl	1.652891	0.068313	0.333290
Cl348	Cl	1.986224	0.401646	0.666624
H349	H	0.669235	0.532739	-0.000052
H350	H	1.002568	0.866073	0.333281
H351	H	1.335901	1.199406	0.666614
H352	H	0.716454	-0.223527	-0.000072
H353	H	1.049788	0.109806	0.333261
H354	H	1.383121	0.443139	0.666595
H355	H	1.188584	-0.302582	-0.000034
H356	H	1.521917	0.030751	0.333299
H357	H	1.855251	0.364084	0.666633
H358	H	1.097068	-0.301078	-0.000036
H359	H	1.430401	0.032255	0.333297
H360	H	1.763734	0.365589	0.666630
