data_functionalizedCrystal
_audit_creation_method	'MofGen! by Chris Wilmer'
_symmetry_space_group_name_H-M	'P1'
_symmetry_Int_Tables_number	1
_symmetry_cell_setting	triclinic
loop_
_symmetry_equiv_pos_as_xyz
  x,y,z
_cell_length_a	29.839131
_cell_length_b	29.839134
_cell_length_c	29.839126
_cell_angle_alpha	90.025950
_cell_angle_beta	90.021998
_cell_angle_gamma	90.021992
loop_
_atom_site_label
_atom_site_type_symbol
_atom_site_fract_x
_atom_site_fract_y
_atom_site_fract_z
Zn1	Zn	-0.179130	0.686780	0.254008
Zn2	Zn	-0.254248	0.686695	0.178878
Zn3	Zn	-0.179107	0.611645	0.178890
Zn4	Zn	-0.254208	0.611611	0.253979
O5	O	-0.216673	0.649183	0.216439
O6	O	-0.189121	0.749636	0.244048
O7	O	-0.244287	0.676718	0.116012
O8	O	-0.116243	0.621662	0.188872
O9	O	-0.244309	0.749573	0.188851
O10	O	-0.116260	0.676864	0.244060
O11	O	-0.189082	0.621579	0.116021
O12	O	-0.189043	0.548774	0.188844
O13	O	-0.244242	0.621604	0.316850
O14	O	-0.244220	0.548748	0.244011
O15	O	-0.189083	0.676831	0.316871
O16	O	-0.317110	0.676684	0.188823
O17	O	-0.317081	0.621521	0.243999
C18	C	-0.216625	0.532460	0.216426
C19	C	-0.216615	0.482526	0.216431
C20	C	-0.333396	0.649102	0.216416
C21	C	-0.383330	0.649108	0.216422
C22	C	-0.187997	0.125967	0.245237
C23	C	-0.187960	0.313641	0.245226
O24	O	-0.163570	0.337930	0.269715
N25	N	-0.216645	0.337081	0.216442
C26	C	-0.245342	0.313600	0.187660
O27	O	-0.269743	0.337843	0.163181
C28	C	-0.245381	0.125928	0.187673
C29	C	-0.216691	0.102490	0.216456
C30	C	-0.159310	0.102530	0.274017
C31	C	-0.159317	0.055614	0.274018
C32	C	-0.188012	0.032137	0.245238
C33	C	-0.216699	0.055574	0.216457
C34	C	-0.274080	0.102448	0.158894
C35	C	-0.274088	0.055527	0.158901
C36	C	-0.245398	0.032089	0.187684
C37	C	-0.245401	-0.014819	0.187677
N38	N	-0.216716	-0.038259	0.216461
C39	C	-0.188022	-0.014781	0.245242
C40	C	-0.245320	0.412130	0.187655
C41	C	-0.245310	0.459048	0.187651
C42	C	-0.187928	0.459086	0.245218
C43	C	-0.187936	0.412167	0.245219
C44	C	-0.216635	0.388690	0.216439
C45	C	-0.188040	-0.113307	0.245240
C46	C	-0.188048	-0.160227	0.245237
C47	C	-0.245431	-0.160260	0.187672
C48	C	-0.245421	-0.113345	0.187674
C49	C	-0.216724	-0.089869	0.216461
O50	O	-0.269781	-0.039137	0.163204
O51	O	-0.163632	-0.039033	0.269725
C52	C	-0.187989	0.172883	0.245236
C53	C	-0.216676	0.196321	0.216455
C54	C	-0.245370	0.172843	0.187675
C55	C	-0.216666	0.243239	0.216451
C56	C	-0.187971	0.266716	0.245231
C57	C	-0.159287	0.243276	0.274016
C58	C	-0.159295	0.196361	0.274016
C59	C	-0.274055	0.196283	0.158891
C60	C	-0.274044	0.243199	0.158892
C61	C	-0.245350	0.266676	0.187672
C62	C	-0.692976	0.677959	0.187750
C63	C	-0.880649	0.678014	0.187768
O64	O	-0.904916	0.702480	0.163373
N65	N	-0.904115	0.649276	0.216472
C66	C	-0.880660	0.620524	0.245177
O67	O	-0.904926	0.596085	0.269596
C68	C	-0.692988	0.620471	0.245162
C69	C	-0.669525	0.649208	0.216452
C70	C	-0.669512	0.706694	0.159043
C71	C	-0.622597	0.706678	0.159037
C72	C	-0.599145	0.677927	0.187738
C73	C	-0.622609	0.649192	0.216446
C74	C	-0.669534	0.591722	0.273868
C75	C	-0.622613	0.591712	0.273863
C76	C	-0.599149	0.620449	0.245153
C77	C	-0.552242	0.620425	0.245141
N78	N	-0.528776	0.649164	0.216437
C79	C	-0.552227	0.677914	0.187735
C80	C	-0.979191	0.620553	0.245183
C81	C	-1.026109	0.620566	0.245186
C82	C	-1.026094	0.678057	0.187777
C83	C	-0.979176	0.678041	0.187772
C84	C	-0.955725	0.649291	0.216478
C85	C	-0.453702	0.677879	0.187725
C86	C	-0.406782	0.677859	0.187720
C87	C	-0.406801	0.620370	0.245131
C88	C	-0.453716	0.620388	0.245134
C89	C	-0.477165	0.649146	0.216429
O90	O	-0.527946	0.595976	0.269527
O91	O	-0.527954	0.702357	0.163327
C92	C	-0.739892	0.677975	0.187756
C93	C	-0.763355	0.649240	0.216463
C94	C	-0.739904	0.620489	0.245165
C95	C	-0.810273	0.649252	0.216467
C96	C	-0.833725	0.678003	0.187765
C97	C	-0.810259	0.706741	0.159060
C98	C	-0.763343	0.706725	0.159054
C99	C	-0.763370	0.591751	0.273870
C100	C	-0.810285	0.591769	0.273873
C101	C	-0.833737	0.620519	0.245171
C102	C	-0.099495	0.649277	0.216471
C103	C	-0.049561	0.649316	0.216484
C104	C	-0.216661	0.649223	0.333617
C105	C	-0.216655	0.649240	0.383551
C106	C	-0.216722	0.766361	0.216451
C107	C	-0.216743	0.816296	0.216457
C108	C	-0.216654	0.649169	0.099716
C109	C	-0.216533	0.649238	0.049782
C110	C	-0.245341	0.677945	0.740137
C111	C	-0.245372	0.677946	0.552464
O112	O	-0.269832	0.702347	0.528198
N113	N	-0.216633	0.649238	0.528997
C114	C	-0.187887	0.620527	0.552450
O115	O	-0.163447	0.596106	0.528184
C116	C	-0.187858	0.620524	0.740123
C117	C	-0.216596	0.649236	0.763588
C118	C	-0.274076	0.706655	0.763602
C119	C	-0.274066	0.706656	0.810517
C120	C	-0.245321	0.677947	0.833968
C121	C	-0.216586	0.649238	0.810503
C122	C	-0.159115	0.591810	0.763576
C123	C	-0.159111	0.591812	0.810497
C124	C	-0.187848	0.620524	0.833962
C125	C	-0.187831	0.620530	0.880869
N126	N	-0.216569	0.649238	0.904336
C127	C	-0.245315	0.677946	0.880886
C128	C	-0.187904	0.620531	0.453920
C129	C	-0.187910	0.620532	0.407002
C130	C	-0.245396	0.677950	0.407019
C131	C	-0.245387	0.677951	0.453937
C132	C	-0.216642	0.649238	0.477387
C133	C	-0.245291	0.677947	0.979412
C134	C	-0.245278	0.677947	1.026331
C135	C	-0.187794	0.620527	1.026311
C136	C	-0.187806	0.620528	0.979395
C137	C	-0.216558	0.649240	0.955947
O138	O	-0.163387	0.596139	0.905164
O139	O	-0.269758	0.702356	0.905160
C140	C	-0.245351	0.677944	0.693221
C141	C	-0.216615	0.649234	0.669757
C142	C	-0.187870	0.620525	0.693207
C143	C	-0.216622	0.649235	0.622839
C144	C	-0.245367	0.677943	0.599388
C145	C	-0.274105	0.706651	0.622855
C146	C	-0.274096	0.706652	0.669771
C147	C	-0.159132	0.591818	0.669740
C148	C	-0.159143	0.591820	0.622825
C149	C	-0.187889	0.620528	0.599374
H150	H	-0.164684	-0.179308	0.268675
C151	C	-1.051914	0.588949	0.276765
N152	N	-1.071348	0.565135	0.300553
H153	H	-0.164504	0.597157	0.387901
C154	C	-0.127738	0.128348	0.305678
N155	N	-0.103953	0.147791	0.329524
C156	C	-0.127487	0.560226	0.836289
N157	N	-0.103667	0.536437	0.855714
H158	H	-0.297442	0.121523	0.135456
H159	H	-0.297460	0.036414	0.135466
C160	C	-0.276916	0.709536	0.953625
N161	N	-0.300732	0.733332	0.934203
C162	C	-0.695334	0.560110	0.305453
N163	N	-0.714765	0.536298	0.329246
H164	H	-0.135933	0.177282	0.297454
H165	H	-0.744242	0.730126	0.135676
H166	H	-0.688602	0.730108	0.135670
C167	C	-0.305690	0.738250	0.737813
N168	N	-0.329498	0.762055	0.718393
C169	C	-0.479527	0.588774	0.276714
N170	N	-0.498965	0.564966	0.300505
C171	C	-0.836065	0.738367	0.127488
N172	N	-0.855504	0.762187	0.103711
H173	H	-1.045197	0.701467	0.164407
H174	H	-0.960101	0.597140	0.268559
H175	H	-0.829386	0.568364	0.297251
C176	C	-0.276894	0.709533	1.052140
N177	N	-0.300708	0.733321	1.071577
H178	H	-0.297422	0.177173	0.135454
C179	C	-0.156191	0.588946	0.953583
N180	N	-0.132382	0.565154	0.934145
H181	H	-0.387699	0.596960	0.268498
H182	H	-0.297406	0.262278	0.135449
C183	C	-0.380975	0.709471	0.156134
N184	N	-0.361538	0.733280	0.132343
H185	H	-0.164671	-0.094199	0.268682
C186	C	-0.305684	0.738237	0.836322
N187	N	-0.329503	0.762024	0.855756
C188	C	-0.277002	0.709534	0.479744
N189	N	-0.300818	0.733322	0.499180
H190	H	-0.164495	0.597148	0.473008
H191	H	-0.744279	0.568339	0.297242
H192	H	-0.603522	0.568300	0.297240
C193	C	-0.277018	0.709527	0.381214
N194	N	-0.300837	0.733307	0.361776
H195	H	-0.135715	0.568429	0.744479
C196	C	-0.156379	0.386390	0.276885
N197	N	-0.132610	0.366977	0.300738
H198	H	-0.164389	0.597155	1.045413
C199	C	-0.276979	-0.087562	0.156010
N200	N	-0.300753	-0.068146	0.132163
C201	C	-0.127761	0.029839	0.305686
N202	N	-0.103992	0.010428	0.329542
C203	C	-0.305726	0.738229	0.597051
N204	N	-0.329543	0.762011	0.577612
H205	H	-0.472789	0.701297	0.164352
H206	H	-0.297496	0.730033	0.688872
H207	H	-0.135738	0.568439	0.603723
H208	H	-0.603495	0.730079	0.135660
C209	C	-0.127504	0.560239	0.695529
N210	N	-0.103677	0.536454	0.714952
H211	H	-0.268667	0.478127	0.164208
C212	C	-0.156367	0.484920	0.276879
N213	N	-0.132598	0.504380	0.300727
H214	H	-0.960074	0.701442	0.164394
C215	C	-0.276888	0.386312	0.155987
N216	N	-0.300662	0.366867	0.132132
H217	H	-0.268792	-0.179384	0.164238
H218	H	-0.135921	0.262400	0.297448
