data_functionalizedCrystal
_audit_creation_method	'MofGen! by Chris Wilmer'
_symmetry_space_group_name_H-M	'P1'
_symmetry_Int_Tables_number	1
_symmetry_cell_setting	triclinic
loop_
_symmetry_equiv_pos_as_xyz
  x,y,z
_cell_length_a	12.837943
_cell_length_b	27.732048
_cell_length_c	11.295483
_cell_angle_alpha	94.055952
_cell_angle_beta	85.461227
_cell_angle_gamma	88.735798
loop_
_atom_site_label
_atom_site_type_symbol
_atom_site_fract_x
_atom_site_fract_y
_atom_site_fract_z
O1	O	1.380472	0.122633	-0.099030
O2	O	1.078766	0.116430	-0.099036
O3	O	1.238988	0.049600	-0.099010
O4	O	1.220251	0.189464	-0.099056
O5	O	1.224916	0.055460	0.099039
O6	O	1.064694	0.122290	0.099013
O7	O	1.366400	0.128493	0.099019
Cu8	Cu	1.214262	0.125927	0.117099
Cu9	Cu	1.230904	0.118997	-0.117116
O10	O	1.206178	0.195323	0.098993
C11	C	1.033143	0.117265	-0.000012
C12	C	0.918166	0.111016	-0.000013
C13	C	0.676005	0.186144	-0.000020
C14	C	0.567973	0.180275	-0.000021
C15	C	0.594068	0.093407	-0.000005
C16	C	0.702100	0.099277	-0.000005
C17	C	0.743064	0.145647	-0.000014
C18	C	0.851099	0.151516	-0.000023
C19	C	0.877191	0.064649	0.000002
C20	C	0.769159	0.058780	0.000001
C21	C	1.231558	0.034504	0.000018
C22	C	1.230373	-0.019210	0.000027
C23	C	1.317601	-0.353705	-0.000032
C24	C	1.313207	-0.555583	-0.000049
O25	O	1.392971	-0.582888	-0.000099
N26	N	1.218201	-0.579414	-0.000050
C27	C	1.124288	-0.552772	-0.000054
O28	O	1.043380	-0.577674	-0.000067
C29	C	1.128684	-0.350895	-0.000046
C30	C	1.223695	-0.327067	-0.000033
C31	C	1.412605	-0.329876	-0.000021
C32	C	1.413702	-0.279410	-0.000010
C33	C	1.319795	-0.252772	-0.000011
C34	C	1.224792	-0.276600	-0.000022
C35	C	1.034772	-0.324255	-0.000058
C36	C	1.035879	-0.273783	-0.000059
C37	C	1.130890	-0.249954	-0.000047
C38	C	1.131982	-0.199496	-0.000012
N39	N	1.226988	-0.175665	-0.000012
C40	C	1.320895	-0.202303	-0.000011
C41	C	1.121987	-0.658760	-0.000056
C42	C	1.120887	-0.709229	-0.000056
C43	C	1.309807	-0.712036	-0.000053
C44	C	1.310905	-0.661566	-0.000045
C45	C	1.216993	-0.634929	-0.000055
C46	C	1.323191	-0.096319	0.000012
C47	C	1.324279	-0.045848	0.000028
C48	C	1.135361	-0.043045	0.000019
C49	C	1.134271	-0.093512	0.000010
C50	C	1.228195	-0.120148	0.000002
O51	O	1.052262	-0.172160	0.000025
O52	O	1.401793	-0.177392	-0.000024
C53	C	1.316504	-0.404172	-0.000043
C54	C	1.221501	-0.428000	-0.000054
C55	C	1.127594	-0.401362	-0.000055
C56	C	1.220401	-0.478469	-0.000054
C57	C	1.314308	-0.505107	-0.000053
C58	C	1.409314	-0.481276	-0.000053
C59	C	1.410411	-0.430810	-0.000042
C60	C	1.032588	-0.425193	-0.000056
C61	C	1.031499	-0.475660	-0.000065
C62	C	1.125405	-0.502298	-0.000064
C63	C	1.412023	0.127658	-0.000008
C64	C	1.527001	0.133908	-0.000015
C65	C	1.213608	0.210420	-0.000037
C66	C	1.214794	0.264133	-0.000055
N67	N	1.202564	0.130801	0.281834
N68	N	1.242610	0.114119	-0.281851
C69	C	1.326818	0.079005	0.531143
C70	C	1.317985	0.082692	0.655805
C71	C	1.176062	0.141860	0.655823
C72	C	1.184894	0.138173	0.531160
C73	C	1.260276	0.106745	0.468825
C74	C	1.269113	0.103060	0.344160
C75	C	1.127185	0.162225	0.344180
C76	C	1.118353	0.165912	0.468842
H77	H	0.884449	0.189273	-0.000028
C78	C	0.494930	0.033405	-0.101789
C79	C	0.549023	0.042442	0.000014
H80	H	0.467126	0.001940	-0.101776
H81	H	0.439540	0.056685	-0.101783
H82	H	0.541445	0.035455	-0.170850
H83	H	0.502506	0.040395	0.069075
H84	H	0.604420	0.019156	0.000019
C85	C	1.477911	0.070927	0.390956
C86	C	1.409704	0.044472	0.462634
H87	H	1.529093	0.049609	0.348675
H88	H	1.439543	0.086907	0.335991
H89	H	1.511366	0.094202	0.439599
H90	H	1.376242	0.021199	0.413990
H91	H	1.448077	0.028484	0.517605
H92	H	0.709358	0.223900	-0.000030
C93	C	0.945905	-0.551774	-0.000091
C94	C	0.927053	-0.501849	-0.000079
H95	H	0.881425	-0.567940	-0.000101
H96	H	0.989441	-0.562657	-0.069147
H97	H	0.979619	-0.558584	0.068981
H98	H	0.893346	-0.495039	-0.069157
H99	H	0.883500	-0.490963	0.068984
H100	H	1.114681	0.167444	0.706592
H101	H	1.073006	0.184814	0.293426
H102	H	1.372168	0.060103	0.706541
H103	H	0.513376	0.213252	-0.000022
H104	H	1.330495	0.077472	0.293408
C105	C	0.967285	0.174015	0.609076
C106	C	1.035500	0.200456	0.537374
H107	H	0.916141	0.195343	0.651388
H108	H	0.933791	0.150753	0.560455
H109	H	1.005663	0.158022	0.664026
H110	H	0.997123	0.216447	0.482418
H111	H	1.068996	0.223727	0.585999
H112	H	0.735790	0.021027	0.000023
C113	C	1.054382	0.035072	0.000001
C114	C	0.950907	0.020130	0.000007
H115	H	1.099888	0.007588	0.000006
H116	H	1.071622	0.051836	-0.069061
H117	H	1.061814	0.055920	0.069068
H118	H	0.943473	-0.000715	-0.069065
H119	H	0.933661	0.003359	0.069076
C120	C	1.492879	-0.035709	-0.101781
C121	C	1.428722	-0.019655	0.000033
H122	H	1.557352	-0.019538	-0.101781
H123	H	1.505658	-0.069575	-0.101778
H124	H	1.459142	-0.028894	-0.170834
H125	H	1.462456	-0.026473	0.069086
H126	H	1.415946	0.014218	0.000040
H127	H	0.957404	-0.343648	-0.000076
H128	H	1.491070	-0.260013	-0.000005
C129	C	1.438824	-0.157699	-0.101804
C130	C	1.426433	-0.125592	0.000010
H131	H	1.502564	-0.175768	-0.101802
H132	H	1.382101	-0.179117	-0.101804
H133	H	1.440228	-0.139985	-0.170858
H134	H	1.425021	-0.143306	0.069063
H135	H	1.483171	-0.104171	0.000020
H136	H	1.388271	-0.642169	-0.000035
H137	H	1.043518	-0.728625	-0.000045
H138	H	1.489079	-0.351560	-0.000025
H139	H	1.386270	-0.733734	-0.000052
H140	H	1.045507	-0.637077	-0.000064
C141	C	0.882424	-0.258861	-0.101882
C142	C	0.932644	-0.244505	-0.000068
H143	H	0.818689	-0.240788	-0.101880
H144	H	0.926323	-0.253200	-0.170928
H145	H	0.868186	-0.292330	-0.101876
H146	H	0.946889	-0.211036	-0.000079
H147	H	0.888736	-0.250161	0.068995
C148	C	1.030678	-0.151644	-0.101812
C149	C	1.029838	-0.119710	0.000007
H150	H	0.966207	-0.167818	-0.101816
H151	H	1.039933	-0.134048	-0.170855
H152	H	1.086455	-0.174730	-0.101806
H153	H	0.974066	-0.096622	-0.000004
H154	H	1.020572	-0.137307	0.069067
C155	C	0.948510	-0.045328	-0.000002
C156	C	1.032141	-0.013759	0.000010
H157	H	0.884788	-0.027246	-0.000009
H158	H	0.956921	-0.067110	-0.069061
H159	H	0.947095	-0.063032	0.069068
H160	H	1.033561	0.003943	-0.069065
H161	H	1.023728	0.008032	0.069076
C162	C	1.597034	-0.438670	-0.000050
C163	C	1.514852	-0.404622	-0.000042
H164	H	1.661514	-0.422504	-0.000059
H165	H	1.587765	-0.456255	0.069010
H166	H	1.597565	-0.460336	-0.069119
H167	H	1.514316	-0.382958	0.069032
H168	H	1.524123	-0.387029	-0.069108
C169	C	1.491497	-0.559893	-0.000076
C170	C	1.512539	-0.510564	-0.000060
H171	H	1.555222	-0.577975	-0.000094
H172	H	1.447609	-0.565544	0.068985
H173	H	1.457403	-0.569615	-0.069144
H174	H	1.546625	-0.500841	0.069012
H175	H	1.556443	-0.504910	-0.069128
C176	C	0.845745	-0.427497	-0.000041
C177	C	0.929356	-0.395917	-0.000043
H178	H	0.782010	-0.409423	-0.000020
H179	H	0.854153	-0.449275	-0.069108
H180	H	0.844361	-0.445206	0.069020
H181	H	0.930745	-0.378211	-0.069109
H182	H	0.920946	-0.374131	0.069031
