data_functionalizedCrystal
_audit_creation_method	'MofGen! by Chris Wilmer'
_symmetry_space_group_name_H-M	'P1'
_symmetry_Int_Tables_number	1
_symmetry_cell_setting	triclinic
loop_
_symmetry_equiv_pos_as_xyz
  x,y,z
_cell_length_a	12.645331
_cell_length_b	18.215405
_cell_length_c	18.215399
_cell_angle_alpha	89.969449
_cell_angle_beta	90.019880
_cell_angle_gamma	89.976136
loop_
_atom_site_label
_atom_site_type_symbol
_atom_site_fract_x
_atom_site_fract_y
_atom_site_fract_z
Zn1	Zn	1.620649	0.293012	0.416103
Zn2	Zn	1.620517	0.416083	0.293032
Zn3	Zn	1.443372	0.293033	0.293051
Zn4	Zn	1.443323	0.416039	0.416056
O5	O	1.531965	0.354542	0.354561
O6	O	1.768979	0.309347	0.399789
O7	O	1.596984	0.399787	0.190050
O8	O	1.466964	0.190046	0.309402
O9	O	1.768882	0.399767	0.309369
O10	O	1.597209	0.190030	0.399808
O11	O	1.466836	0.309383	0.190064
O12	O	1.295018	0.309340	0.309356
O13	O	1.466880	0.399692	0.519047
O14	O	1.294982	0.399712	0.399728
O15	O	1.597161	0.309304	0.519082
O16	O	1.596936	0.519062	0.309323
O17	O	1.466752	0.519029	0.399709
C18	C	1.256536	0.354524	0.354539
C19	C	1.138706	0.354534	0.354548
C20	C	1.531853	0.545748	0.354525
C21	C	1.531902	0.627547	0.354535
C22	C	1.532030	0.354491	0.546514
C23	C	1.532057	0.354469	0.628312
C24	C	0.971129	0.297420	0.298008
C25	C	1.093689	0.297568	0.297759
C26	C	1.094173	0.432059	0.333354
C27	C	0.971574	0.431747	0.332968
C28	C	0.971554	0.334862	0.432499
C29	C	1.094160	0.333130	0.432066
C30	C	1.808471	0.354560	0.354582
C31	C	1.926301	0.354568	0.354592
C32	C	1.532107	0.162589	0.354612
C33	C	1.532167	0.080790	0.354634
C34	C	1.599848	0.815733	0.307557
C35	C	1.599896	0.892592	0.307575
C36	C	1.464218	0.892598	0.401617
C37	C	1.464177	0.815741	0.401602
C38	C	1.531990	0.777310	0.354568
C39	C	1.532079	0.931026	0.354601
C40	C	1.532130	1.014360	0.354620
C41	C	1.531941	0.693971	0.354549
C42	C	1.531962	0.354539	0.163354
C43	C	1.532140	0.354353	0.081556
C44	C	1.599919	0.307361	0.816526
C45	C	1.599932	0.307339	0.893385
C46	C	1.464271	0.401464	0.893337
C47	C	1.464254	0.401482	0.816480
C48	C	1.532084	0.354431	0.778076
C49	C	1.532114	0.354392	0.931792
C50	C	1.532127	0.354369	1.015126
C51	C	1.532069	0.354452	0.694737
H52	H	1.123799	0.240080	0.311045
N53	N	1.669106	0.776478	0.259509
N54	N	1.662138	0.785117	0.191598
H55	H	1.711054	0.757394	0.157662
N56	N	1.669179	0.259294	0.777285
N57	N	1.669155	0.259313	0.708663
H58	H	1.718069	0.225363	0.680950
N59	N	1.394945	0.931868	0.449642
N60	N	1.327441	0.974811	0.423708
H61	H	1.278513	1.002546	0.457625
N62	N	1.394976	0.449524	0.932556
N63	N	1.334401	0.491539	0.898214
H64	H	1.285453	0.525479	0.925910
H65	H	1.122968	0.310591	0.240027
N66	N	0.935633	0.452688	0.261515
N67	N	0.879730	0.409677	0.224761
H68	H	0.854351	0.424464	0.174294
N69	N	0.932793	0.265186	0.456673
N70	N	0.871335	0.229202	0.416770
H71	H	0.843957	0.179991	0.433835
H72	H	1.124829	0.449057	0.277011
H73	H	1.655154	0.923872	0.269295
N74	N	1.669211	0.259249	0.932660
N75	N	1.662223	0.191343	0.924093
H76	H	1.711152	0.157375	0.951831
H77	H	1.408918	0.784455	0.439887
H78	H	1.123274	0.276081	0.448047
N79	N	1.394941	0.449555	0.777200
N80	N	1.297127	0.444662	0.785773
H81	H	1.248172	0.478610	0.758032
N82	N	0.934183	0.225083	0.314495
N83	N	0.955186	0.196468	0.375161
H84	H	0.929083	0.145378	0.386806
H85	H	0.940283	0.310299	0.240616
H86	H	0.941919	0.475768	0.372383
H87	H	1.123331	0.475776	0.373272
H88	H	1.124808	0.371718	0.476480
N89	N	0.935207	0.387094	0.485378
N90	N	0.876231	0.438627	0.465873
H91	H	0.850563	0.475523	0.503211
