data_functionalizedCrystal
_audit_creation_method	'MofGen! by Chris Wilmer'
_symmetry_space_group_name_H-M	'P1'
_symmetry_Int_Tables_number	1
_symmetry_cell_setting	triclinic
loop_
_symmetry_equiv_pos_as_xyz
  x,y,z
_cell_length_a	18.050589
_cell_length_b	13.897449
_cell_length_c	13.897441
_cell_angle_alpha	90.018596
_cell_angle_beta	89.973098
_cell_angle_gamma	89.970500
loop_
_atom_site_label
_atom_site_type_symbol
_atom_site_fract_x
_atom_site_fract_y
_atom_site_fract_z
Zn1	Zn	-0.295618	-1.474612	-0.545399
Zn2	Zn	0.204382	-0.974612	-0.045399
Zn3	Zn	-0.419820	-1.474482	-0.384108
Zn4	Zn	0.080180	-0.974482	0.115892
Zn5	Zn	-0.295651	-1.313307	-0.384118
Zn6	Zn	0.204349	-0.813307	0.115882
Zn7	Zn	-0.419773	-1.313253	-0.545361
Zn8	Zn	0.080227	-0.813253	-0.045361
O9	O	-0.357715	-1.393913	-0.464747
O10	O	0.142285	-0.893913	0.035253
O11	O	-0.312099	-1.609576	-0.524016
O12	O	0.187901	-1.109576	-0.024016
O13	O	-0.403382	-1.453070	-0.249128
O14	O	0.096618	-0.953070	0.250872
O15	O	-0.191722	-1.334781	-0.405532
O16	O	0.308278	-0.834781	0.094468
O17	O	-0.403350	-1.609481	-0.405516
O18	O	0.096650	-1.109481	0.094484
O19	O	-0.191697	-1.453291	-0.524025
O20	O	0.308303	-0.953291	-0.024025
O21	O	-0.312156	-1.334655	-0.249135
O22	O	0.187844	-0.834655	0.250865
O23	O	-0.312110	-1.178318	-0.405495
O24	O	0.187890	-0.678318	0.094505
O25	O	-0.403270	-1.334689	-0.680348
O26	O	0.096730	-0.834689	-0.180348
O27	O	-0.403302	-1.178278	-0.523960
O28	O	0.096698	-0.678278	-0.023960
O29	O	-0.312054	-1.453239	-0.680376
O30	O	0.187946	-0.953239	-0.180376
O31	O	-0.523738	-1.453018	-0.405479
O32	O	-0.023738	-0.953018	0.094521
O33	O	-0.523704	-1.334564	-0.523951
O34	O	-0.023704	-0.834564	-0.023951
C35	C	-0.357705	-1.143299	-0.464725
C36	C	0.142295	-0.643299	0.035275
C37	C	-0.357719	-1.036085	-0.464738
C38	C	0.142281	-0.536085	0.035262
C39	C	-0.550667	-1.393797	-0.464731
C40	C	-0.050667	-0.893797	0.035269
C41	C	-0.633213	-1.393835	-0.464756
C42	C	-0.133213	-0.893835	0.035244
C43	C	-0.357653	-1.393972	-0.716340
C44	C	0.142347	-0.893972	-0.216340
C45	C	-0.357626	-1.393998	-0.823554
C46	C	0.142374	-0.893998	-0.323554
C47	C	-0.832672	-1.329483	-0.529158
C48	C	-0.332672	-0.829483	-0.029158
C49	C	-0.882117	-1.305969	-0.441140
C50	C	-0.382117	-0.805969	0.058860
C51	C	-0.784344	-1.393930	-0.464769
C52	C	-0.284344	-0.893930	0.035231
C53	C	-0.881981	-1.417491	-0.552797
C54	C	-0.381981	-0.917491	-0.052797
C55	C	-0.930329	-1.394020	-0.464789
C56	C	-0.430329	-0.894020	0.035211
C57	C	-0.832701	-1.370370	-0.376703
C58	C	-0.332701	-0.870370	0.123297
C59	C	-0.832560	-1.481933	-0.488420
C60	C	-0.332560	-0.981933	0.011580
C61	C	-0.881983	-1.458453	-0.400341
C62	C	-0.381983	-0.958453	0.099659
C63	C	-0.700245	-1.393876	-0.464758
C64	C	-0.200245	-0.893876	0.035242
C65	C	-1.014425	-1.394074	-0.464789
C66	C	-0.514425	-0.894074	0.035211
C67	C	-0.164010	-1.394057	-0.464784
C68	C	0.335990	-0.894057	0.035216
C69	C	-0.081464	-1.394118	-0.464800
C70	C	0.418536	-0.894118	0.035200
C71	C	-0.357726	-1.645506	-0.464769
C72	C	0.142274	-1.145506	0.035231
C73	C	-0.357730	-1.752720	-0.464779
C74	C	0.142270	-1.252720	0.035221
C75	C	-0.357722	-0.839790	-0.464763
C76	C	0.142278	-0.339790	0.035237
C77	C	-0.357718	-0.949023	-0.464747
C78	C	0.142282	-0.449023	0.035253
C79	C	-0.357605	-1.394017	-0.910624
C80	C	0.142395	-0.894017	-0.410624
C81	C	-0.357572	-1.394045	-1.019856
C82	C	0.142428	-0.894045	-0.519856
C83	C	-0.357724	-1.393910	-0.214132
C84	C	0.142276	-0.893910	0.285868
C85	C	-0.357541	-1.394072	-0.106919
C86	C	0.142459	-0.894072	0.393081
H87	H	-0.811020	-1.274902	-0.583534
H88	H	-0.311020	-0.774902	-0.083534
Br89	Br	-0.918394	-1.181994	-0.407796
Br90	Br	-0.418394	-0.681994	0.092204
Br91	Br	-0.796777	-1.337076	-0.252600
Br92	Br	-0.296777	-0.837076	0.247400
H93	H	-0.810779	-1.556295	-0.508449
H94	H	-0.310779	-1.056295	-0.008449
H95	H	-0.903627	-1.437384	-0.627234
H96	H	-0.403627	-0.937384	-0.127234
H97	H	-0.903498	-1.512992	-0.345834
H98	H	-0.403498	-1.012992	0.154166
