data_functionalizedCrystal
_audit_creation_method	'MofGen! by Chris Wilmer'
_symmetry_space_group_name_H-M	'P1'
_symmetry_Int_Tables_number	1
_symmetry_cell_setting	triclinic
loop_
_symmetry_equiv_pos_as_xyz
  x,y,z
_cell_length_a	12.811445
_cell_length_b	11.892095
_cell_length_c	16.109301
_cell_angle_alpha	86.113381
_cell_angle_beta	83.754728
_cell_angle_gamma	99.333684
loop_
_atom_site_label
_atom_site_type_symbol
_atom_site_fract_x
_atom_site_fract_y
_atom_site_fract_z
O1	O	1.409668	0.238507	0.098583
O2	O	1.101826	0.206954	0.112530
O3	O	1.264203	0.223585	-0.015491
O4	O	1.247291	0.221875	0.226605
O5	O	1.250664	0.034191	-0.004833
O6	O	1.088288	0.017560	0.123188
O7	O	1.396129	0.049113	0.109241
Zn8	Zn	1.240059	0.003266	0.117907
Zn9	Zn	1.257897	0.252801	0.103865
O10	O	1.233752	0.032481	0.237263
C11	C	1.055665	0.108219	0.117403
C12	C	0.938288	0.096188	0.116035
N13	N	1.227893	-0.167035	0.127490
C14	C	0.732482	0.280078	0.101860
C15	C	0.622197	0.268779	0.100575
C16	C	0.607430	0.062290	0.112185
C17	C	0.717715	0.073590	0.113470
C18	C	0.780238	0.182487	0.108306
C19	C	0.890526	0.193786	0.109586
C20	C	0.875756	-0.012702	0.121202
C21	C	0.765471	-0.024001	0.119917
C22	C	1.354728	-0.390691	0.027546
C23	C	1.346232	-0.509903	0.034250
C24	C	1.202399	-0.524674	0.147598
C25	C	1.210896	-0.405461	0.140894
C26	C	1.287064	-0.338474	0.080866
C27	C	1.295564	-0.219259	0.074167
C28	C	1.151728	-0.234032	0.187510
C29	C	1.143231	-0.353244	0.194215
C30	C	1.442291	0.147850	0.104368
C31	C	1.559668	0.159889	0.105736
C32	C	1.256748	0.128818	-0.041136
C33	C	1.254694	0.128605	-0.133427
N34	N	1.270071	0.423102	0.094275
C35	C	1.346271	0.138010	-0.355893
C36	C	1.344334	0.137820	-0.442610
C37	C	1.151678	0.118069	-0.422330
C38	C	1.153617	0.118267	-0.335615
C39	C	1.250916	0.128232	-0.302399
C40	C	1.247040	0.127845	-0.475830
C41	C	1.244938	0.127639	-0.569852
C42	C	1.253019	0.128439	-0.208371
C43	C	1.241207	0.127251	0.262907
C44	C	1.243262	0.127471	0.355198
H45	H	0.783390	0.368747	0.097651
H46	H	0.556504	-0.026369	0.116397
O47	O	0.697952	-0.141458	0.125994
H48	H	0.613210	-0.132924	0.124198
O49	O	0.927259	-0.117973	0.128160
H50	H	1.014451	-0.091825	0.128191
H51	H	1.416754	-0.336148	-0.021326
O52	O	0.570693	0.374042	0.093621
H53	H	0.483499	0.347894	0.093602
O54	O	1.046741	0.107304	-0.458163
H55	H	1.006438	0.179804	-0.441007
O56	O	0.957956	0.311240	0.104014
H57	H	1.017987	0.322301	0.047662
H58	H	1.357586	-0.164718	0.025292
O59	O	1.447181	0.148350	-0.500305
H60	H	1.499270	0.230308	-0.492856
O61	O	1.419223	-0.566228	-0.023250
H62	H	1.473619	-0.499615	-0.066108
O63	O	1.050765	0.107707	-0.277907
H64	H	0.982780	0.100724	-0.315569
H65	H	1.140378	-0.579231	0.196466
O66	O	1.061090	-0.425503	0.258959
H67	H	1.076180	-0.401227	0.322456
H68	H	1.096633	-0.191504	0.230930
O69	O	1.451211	0.148780	-0.320063
H70	H	1.517192	0.155562	-0.371834
