data_functionalizedCrystal
_audit_creation_method	'MofGen! by Chris Wilmer'
_symmetry_space_group_name_H-M	'P1'
_symmetry_Int_Tables_number	1
_symmetry_cell_setting	triclinic
loop_
_symmetry_equiv_pos_as_xyz
  x,y,z
_cell_length_a	10.654551
_cell_length_b	16.109301
_cell_length_c	15.186229
_cell_angle_alpha	90.005167
_cell_angle_beta	90.002784
_cell_angle_gamma	83.973376
loop_
_atom_site_label
_atom_site_type_symbol
_atom_site_fract_x
_atom_site_fract_y
_atom_site_fract_z
O1	O	-1.666254	-0.116776	-0.073220
O2	O	-1.166254	0.383224	0.426780
O3	O	-1.300625	-0.127901	-0.073225
O4	O	-0.800625	0.372099	0.426775
O5	O	-1.493484	-0.001367	-0.073214
O6	O	-0.993484	0.498633	0.426786
O7	O	-1.473396	-0.243310	-0.073232
O8	O	-0.973396	0.256690	0.426768
O9	O	-1.493471	-0.001366	0.073244
O10	O	-0.993471	0.498634	0.573244
O11	O	-1.300612	-0.127899	0.073232
O12	O	-0.800612	0.372101	0.573232
O13	O	-1.666242	-0.116774	0.073237
O14	O	-1.166242	0.383226	0.573237
Zn15	Zn	-1.483425	-0.122337	0.096488
Zn16	Zn	-0.983425	0.377663	0.596488
Zn17	Zn	-1.483442	-0.122339	-0.096476
Zn18	Zn	-0.983442	0.377661	0.403524
O19	O	-1.473383	-0.243308	0.073225
O20	O	-0.973383	0.256692	0.573225
C21	C	-1.253832	-0.127083	0.000003
C22	C	-0.753832	0.372917	0.500003
C23	C	-1.114422	-0.124639	0.000002
C24	C	-0.614422	0.375361	0.500002
C25	C	-1.713035	-0.117592	0.000007
C26	C	-1.213035	0.382408	0.500007
C27	C	-1.852445	-0.120037	0.000002
C28	C	-1.352445	0.379963	0.500002
C29	C	-0.917930	-0.121184	0.079837
C30	C	-0.417930	0.378816	0.579837
C31	C	-1.048919	-0.123488	0.079837
C32	C	-0.548919	0.376512	0.579837
C33	C	-1.048927	-0.123494	-0.079839
C34	C	-0.548927	0.376506	0.420161
C35	C	-0.917939	-0.121196	-0.079838
C36	C	-0.417939	0.378804	0.420162
C37	C	-0.852435	-0.120024	0.159677
C38	C	-0.352435	0.379976	0.659677
C39	C	-0.917921	-0.121170	0.239518
C40	C	-0.417921	0.378830	0.739518
C41	C	-1.048910	-0.123474	0.239518
C42	C	-0.548910	0.376526	0.739518
C43	C	-1.114414	-0.124632	0.159678
C44	C	-0.614414	0.375368	0.659678
C45	C	-1.492664	0.029613	0.000015
C46	C	-0.992664	0.529613	0.500015
C47	C	-1.490224	0.121923	0.000017
C48	C	-0.990224	0.621923	0.500017
C49	C	-1.474203	-0.274289	-0.000006
C50	C	-0.974203	0.225711	0.499994
C51	C	-1.476643	-0.366599	-0.000013
C52	C	-0.976643	0.133401	0.499987
N53	N	-1.483423	-0.122334	0.228180
N54	N	-0.983423	0.377666	0.728180
C55	C	-1.598990	0.343549	0.000004
C56	C	-1.098990	0.843549	0.500004
C57	C	-1.596688	0.430283	-0.000003
C58	C	-1.096688	0.930283	0.499997
C59	C	-1.367868	0.411769	-0.000003
C60	C	-0.867868	0.911769	0.499997
C61	C	-1.370171	0.325037	-0.000002
C62	C	-0.870171	0.825037	0.499998
C63	C	-1.485736	0.290929	0.000006
C64	C	-0.985736	0.790929	0.500006
C65	C	-1.481131	0.464396	-0.000002
C66	C	-0.981131	0.964396	0.499998
C67	C	-1.478634	0.558436	-0.000010
C68	C	-0.978634	1.058436	0.499990
C69	C	-1.488234	0.196882	0.000012
C70	C	-0.988234	0.696882	0.500012
N71	N	-1.483454	-0.122335	-0.228169
N72	N	-0.983454	0.377665	0.271831
C73	C	-1.568849	-0.066324	0.453908
C74	C	-1.068849	0.433676	0.953908
C75	C	-1.568853	-0.066323	0.546098
C76	C	-1.068853	0.433677	1.046098
C77	C	-1.398018	-0.178347	0.546097
C78	C	-0.898018	0.321653	1.046097
C79	C	-1.398009	-0.178344	0.453909
C80	C	-0.898009	0.321656	0.953909
C81	C	-1.483432	-0.122334	0.407817
C82	C	-0.983432	0.377666	0.907817
C83	C	-1.483445	-0.122335	0.592195
C84	C	-0.983445	0.377665	1.092195
C85	C	-1.483448	-0.122333	0.692151
C86	C	-0.983448	0.377667	1.192151
C87	C	-1.483427	-0.122334	0.307855
C88	C	-0.983427	0.377666	0.807855
H89	H	-0.745778	-0.118147	0.159686
H90	H	-0.245778	0.381853	0.659686
O91	O	-1.660943	-0.005896	0.404188
O92	O	-1.160943	0.494104	0.904188
H93	H	-1.721972	-0.041252	0.362172
H94	H	-1.221972	0.458748	0.862172
H95	H	-1.102271	-0.124436	-0.144841
H96	H	-0.602271	0.375564	0.355159
H97	H	-1.328446	-0.223954	0.416379
H98	H	-0.828446	0.276046	0.916379
O99	O	-1.660997	-0.005923	0.595814
O100	O	-1.160997	0.494077	1.095814
H101	H	-1.720401	0.033015	0.548273
H102	H	-1.220401	0.533015	1.048273
O103	O	-0.847297	-0.119947	-0.165942
O104	O	-0.347297	0.380053	0.334058
H105	H	-0.914846	-0.121123	-0.221460
H106	H	-0.414846	0.378877	0.278540
O107	O	-1.723634	0.306763	0.000003
O108	O	-1.223634	0.806763	0.500003
H109	H	-1.706214	0.237612	0.000013
H110	H	-1.206214	0.737612	0.500013
H111	H	-1.273779	0.439551	-0.000007
H112	H	-0.773779	0.939551	0.499993
O113	O	-0.847204	-0.120321	0.325629
O114	O	-0.347204	0.379679	0.825629
H115	H	-0.745091	-0.118664	0.312219
H116	H	-0.245091	0.381336	0.812219
O117	O	-1.119543	-0.124733	0.325625
O118	O	-0.619543	0.375267	0.825625
H119	H	-1.051990	-0.123542	0.381139
H120	H	-0.551990	0.376458	0.881139
O121	O	-1.305900	-0.238767	0.595809
O122	O	-0.805900	0.261233	1.095809
H123	H	-1.320265	-0.229367	0.667657
H124	H	-0.820265	0.270633	1.167657
H125	H	-1.221072	-0.126518	0.159684
H126	H	-0.721072	0.373482	0.659684
O127	O	-1.718840	0.487040	0.000006
O128	O	-1.218840	0.987040	0.500006
H129	H	-1.799580	0.448748	0.000020
H130	H	-1.299580	0.948748	0.500020
O131	O	-1.248014	0.268272	0.000011
O132	O	-0.748014	0.768272	0.500011
H133	H	-1.167267	0.306559	0.000021
H134	H	-0.667267	0.806559	0.500021
