data_functionalizedCrystal
_audit_creation_method	'MofGen! by Chris Wilmer'
_symmetry_space_group_name_H-M	'P1'
_symmetry_Int_Tables_number	1
_symmetry_cell_setting	triclinic
loop_
_symmetry_equiv_pos_as_xyz
  x,y,z
_cell_length_a	18.215407
_cell_length_b	10.686285
_cell_length_c	18.215399
_cell_angle_alpha	85.606976
_cell_angle_beta	89.983176
_cell_angle_gamma	85.632014
loop_
_atom_site_label
_atom_site_type_symbol
_atom_site_fract_x
_atom_site_fract_y
_atom_site_fract_z
Zn1	Zn	1.147617	-0.502315	-0.393705
Zn2	Zn	1.157013	-0.713340	-0.261224
Zn3	Zn	1.024558	-0.502365	-0.270650
Zn4	Zn	1.033993	-0.713261	-0.384253
O5	O	1.090795	-0.607821	-0.327458
O6	O	1.251848	-0.530320	-0.376142
O7	O	1.139426	-0.685408	-0.159488
O8	O	1.033002	-0.325783	-0.294875
O9	O	1.258751	-0.685360	-0.278809
O10	O	1.123413	-0.325746	-0.385283
O11	O	1.042113	-0.530406	-0.166413
O12	O	0.922825	-0.530329	-0.285709
O13	O	1.049081	-0.685225	-0.488493
O14	O	0.929756	-0.685273	-0.369172
O15	O	1.132561	-0.530244	-0.495438
O16	O	1.148574	-0.889906	-0.269643
O17	O	1.058192	-0.889847	-0.360032
C18	C	0.899588	-0.607799	-0.327438
C19	C	0.817790	-0.607820	-0.327445
C20	C	1.105446	-0.935661	-0.312805
C21	C	1.111781	-1.075912	-0.306561
C22	C	0.633230	-0.688627	-0.370840
C23	C	0.556372	-0.688631	-0.370849
C24	C	0.549113	-0.527037	-0.284091
C25	C	0.625970	-0.527028	-0.284087
C26	C	0.668027	-0.607830	-0.327460
C27	C	0.514311	-0.607843	-0.327473
C28	C	0.430978	-0.607847	-0.327483
C29	C	0.751366	-0.607825	-0.327451
C30	C	1.282749	-0.607843	-0.327479
C31	C	1.364548	-0.607853	-0.327487
C32	C	1.090825	-0.607720	-0.519416
C33	C	1.090838	-0.607677	-0.601216
C34	C	1.076107	-0.278700	-0.342185
C35	C	1.069848	-0.138449	-0.348460
C36	C	1.040205	-0.526913	-0.793020
C37	C	1.040216	-0.526887	-0.869880
C38	C	1.141553	-0.688291	-0.862658
C39	C	1.141538	-0.688321	-0.785799
C40	C	1.090864	-0.607625	-0.750982
C41	C	1.090891	-0.607569	-0.904701
C42	C	1.090904	-0.607542	-0.988036
C43	C	1.090850	-0.607654	-0.667642
C44	C	1.090803	-0.607830	-0.136251
C45	C	1.090917	-0.607517	-0.054467
H46	H	0.528044	-0.754422	-0.406175
H47	H	0.998943	-0.461205	-0.764675
C48	C	1.014806	-1.065843	-0.403382
H49	H	0.989344	-1.123881	-0.428827
H50	H	1.040640	-1.014355	-0.437739
H51	H	0.980464	-1.014508	-0.377457
C52	C	1.166823	-1.148529	-0.251636
H53	H	1.164004	-1.236430	-0.254500
H54	H	1.155125	-1.127055	-0.203126
H55	H	1.215302	-1.126915	-0.263407
C56	C	0.984483	-0.438122	-0.916121
H57	H	0.991740	-0.449673	-0.966881
H58	H	0.991455	-0.353340	-0.907330
H59	H	0.935861	-0.456616	-0.902684
C60	C	0.679490	-0.777492	-0.418555
H61	H	0.647755	-0.825603	-0.444397
H62	H	0.711918	-0.832413	-0.387899
H63	H	0.707325	-0.729275	-0.452821
C64	C	0.502850	-0.438177	-0.236376
H65	H	0.452093	-0.449763	-0.242585
H66	H	0.511657	-0.353415	-0.251009
H67	H	0.516252	-0.456554	-0.186089
C68	C	0.664250	-0.438149	-0.236365
H69	H	0.628196	-0.390041	-0.210527
H70	H	0.691787	-0.383227	-0.267022
H71	H	0.696375	-0.486357	-0.202096
H72	H	1.182810	-0.753990	-0.891015
H73	H	1.182793	-0.754052	-0.751570
