data_functionalizedCrystal
_audit_creation_method	'MofGen! by Chris Wilmer'
_symmetry_space_group_name_H-M	'P1'
_symmetry_Int_Tables_number	1
_symmetry_cell_setting	triclinic
loop_
_symmetry_equiv_pos_as_xyz
  x,y,z
_cell_length_a	31.640172
_cell_length_b	14.560438
_cell_length_c	14.560438
_cell_angle_alpha	59.996693
_cell_angle_beta	90.004997
_cell_angle_gamma	59.999585
loop_
_atom_site_label
_atom_site_type_symbol
_atom_site_fract_x
_atom_site_fract_y
_atom_site_fract_z
Zr1	Zr	0.407184	1.005204	-0.120473
O2	O	0.339693	1.196833	-0.267153
O3	O	0.427873	0.813590	-0.075499
O4	O	0.427871	1.005201	-0.267115
O5	O	0.339697	1.005219	0.075604
O6	O	0.497429	1.005182	-0.267095
O7	O	0.339695	1.005222	-0.075537
O8	O	0.497431	0.662424	0.075672
O9	O	0.339694	1.347977	-0.267163
O10	O	0.488607	0.892384	-0.056313
O11	O	0.436699	0.892396	0.056466
O12	O	0.436697	1.117994	-0.169137
O13	O	0.384788	1.118006	-0.056358
Zr14	Zr	0.518122	1.005170	0.120611
Zr15	Zr	0.518119	1.005174	-0.120441
Zr16	Zr	0.407187	1.005200	0.120579
Zr17	Zr	0.407185	1.246261	-0.120488
Zr18	Zr	0.518121	0.764113	0.120627
O19	O	0.497433	1.196784	0.075637
O20	O	0.497429	1.196790	-0.267108
O21	O	0.339697	1.196828	0.075592
O22	O	0.585613	0.813541	0.267292
O23	O	0.585609	0.813547	-0.075453
O24	O	0.427877	0.813584	0.267246
O25	O	0.585610	1.005155	-0.075465
O26	O	0.497435	1.005173	0.267254
O27	O	0.427878	1.005192	0.267234
O28	O	0.585611	1.005152	0.075675
O29	O	0.427873	1.347953	-0.267137
O30	O	0.497434	0.662421	0.267276
O31	O	0.585612	0.662397	0.267302
O32	O	0.585610	0.662400	0.075697
O33	O	0.339696	1.347974	-0.075559
O34	O	0.427875	1.347950	-0.075533
O35	O	0.488610	0.892380	0.169276
O36	O	0.540518	0.892368	0.056496
O37	O	0.488608	1.117978	-0.056328
O38	O	0.436699	1.117990	0.056452
C39	C	0.462652	0.703662	0.000089
C40	C	0.462652	0.601327	0.000095
C41	C	0.424330	0.636552	-0.083198
C42	C	0.424333	0.540413	-0.083227
C43	C	0.500980	0.373822	0.083341
C44	C	0.500979	0.469961	0.083365
C45	C	0.323890	1.005225	0.000029
C46	C	0.276795	1.005238	0.000016
C47	C	0.011885	0.887409	0.058985
C48	C	-0.165100	0.887386	0.059007
O49	O	-0.164941	0.787230	0.109135
N50	N	-0.214326	1.005151	0.000113
C51	C	-0.219305	1.122931	-0.058785
O52	O	-0.265236	1.223097	-0.108869
C53	C	-0.042321	1.122952	-0.058800
C54	C	0.006905	1.005179	0.000089
C55	C	0.061109	0.769645	0.117870
C56	C	0.105352	0.769652	0.117859
C57	C	0.100372	0.887422	0.058963
C58	C	0.051148	1.005186	0.000078
C59	C	-0.047300	1.240730	-0.117691
C60	C	-0.003049	1.240725	-0.117688
C61	C	0.046177	1.122952	-0.058799
C62	C	0.090412	1.122963	-0.058830
N63	N	0.139638	1.005197	0.000064
C64	C	0.144618	0.887427	0.058961
C65	C	-0.312223	1.122911	-0.058775
C66	C	-0.356469	1.122906	-0.058773
C67	C	-0.302260	0.887361	0.059021
C68	C	-0.258014	0.887368	0.059012
C69	C	-0.262997	1.005146	0.000119
C70	C	0.237530	0.887451	0.058932
C71	C	0.281775	0.887468	0.058912
C72	C	0.227563	1.123012	-0.058878
C73	C	0.183322	1.122995	-0.058863
C74	C	0.188309	1.005204	0.000051
O75	O	0.090292	1.223067	-0.108921
O76	O	0.190553	0.787276	0.109057
C77	C	-0.032358	0.887402	0.058996
C78	C	-0.081582	1.005165	0.000111
C79	C	-0.086562	1.122935	-0.058786
C80	C	-0.125828	1.005160	0.000113
C81	C	-0.120847	0.887390	0.059009
C82	C	-0.071621	0.769625	0.117904
C83	C	-0.027378	0.769632	0.117893
C84	C	-0.135788	1.240701	-0.117680
C85	C	-0.180029	1.240684	-0.117665
C86	C	-0.175049	1.122914	-0.058769
C87	C	0.601416	1.005149	0.000110
C88	C	0.648511	1.005136	0.000123
C89	C	0.462650	1.005192	-0.301450
C90	C	0.462648	1.005194	-0.403783
C91	C	0.462654	1.306713	0.000050
C92	C	0.462654	1.409048	0.000043
C93	C	0.435552	1.122958	-0.510752
C94	C	0.435558	1.122952	-0.606901
C95	C	0.489757	0.887407	-0.489098
C96	C	0.489754	0.887415	-0.392951
C97	C	0.462657	1.005182	0.301589
C98	C	0.462658	1.005180	0.403922
C99	C	0.601415	0.703624	0.000129
C100	C	0.648510	0.601276	0.000149
C101	C	0.462656	0.703656	0.301608
C102	C	0.462656	0.601320	0.403948
C103	C	0.601419	0.703618	0.301648
C104	C	0.648515	0.601269	0.404002
C105	C	0.323887	1.306756	-0.301510
C106	C	0.276791	1.409105	-0.403863
C107	C	0.323891	1.306751	0.000010
C108	C	0.276796	1.409098	-0.000010
C109	C	0.462651	1.306718	-0.301470
C110	C	0.462650	1.409054	-0.403809
C111	C	0.643529	0.553220	-0.058737
C112	C	0.687775	0.457067	-0.058741
C113	C	0.737002	0.408964	0.000149
C114	C	0.741982	0.457029	0.059037
C115	C	0.697736	0.553187	0.059033
C116	C	0.697732	0.553198	0.393198
C117	C	0.741988	0.457043	0.489360
C118	C	0.737025	0.408954	0.596325
C119	C	0.687803	0.457035	0.607127
C120	C	0.643548	0.553194	0.510965
C121	C	0.227574	1.457188	-0.393059
C122	C	0.183319	1.553373	-0.489222
C123	C	0.188281	1.601467	-0.596187
C124	C	0.237503	1.553380	-0.606988
C125	C	0.281758	1.457204	-0.510827
C126	C	0.281777	1.457164	0.058866
C127	C	0.237531	1.553344	0.058843
C128	C	0.188304	1.601450	-0.000051
C129	C	0.183324	1.553381	-0.058934
C130	C	0.227570	1.457209	-0.058917
C131	C	0.489753	0.553231	0.510913
C132	C	0.489748	0.457084	0.607068
C133	C	0.435549	0.457118	0.489279
C134	C	0.435551	0.553270	0.393127
H135	H	0.393119	0.743513	-0.150995
C136	C	0.519566	0.757857	-0.477195
N137	N	0.542016	0.660277	-0.468228
C138	C	0.519560	0.404185	0.724729
N139	N	0.542016	0.364341	0.813354
C140	C	0.703224	0.606025	0.123830
N141	N	0.707361	0.645816	0.172639
H142	H	-0.087375	1.336633	-0.165644
H143	H	0.152281	1.679759	-0.000055
H144	H	-0.298212	0.791468	0.106971
H145	H	0.773064	0.330655	0.674617
C146	C	0.405741	1.252502	-0.724568
N147	N	0.383277	1.350084	-0.813197
H148	H	0.782068	0.417849	0.106983
C149	C	0.785669	0.303178	0.000151
N150	N	0.822323	0.223495	0.000153
C151	C	0.543135	0.229316	0.174940
N152	N	0.574885	0.120473	0.243936
H153	H	0.413481	0.417983	0.480482
H154	H	0.683711	0.417944	-0.106694
H155	H	0.393128	0.569106	-0.151054
H156	H	0.152242	1.679779	-0.674478
C157	C	0.796127	0.404160	0.477453
N158	N	0.836903	0.364329	0.468482
C159	C	0.405742	0.606169	0.275454
N160	N	0.383289	0.646014	0.186825
C161	C	0.682353	0.404112	0.724799
N162	N	0.678250	0.364240	0.813433
H163	H	0.603475	0.592321	0.519778
C164	C	0.543138	0.431204	0.174999
N165	N	0.574891	0.402016	0.244013
C166	C	0.405741	1.252518	-0.522672
N167	N	0.383288	1.350107	-0.531655
C168	C	0.243020	1.606192	0.123632
N169	N	0.247156	1.645991	0.172434
C170	C	0.159497	0.640091	0.182653
N171	N	0.200278	0.542499	0.231464
H172	H	0.065173	0.673737	0.165837
H173	H	0.321857	0.791559	0.106870
H174	H	0.511822	0.592355	0.519730
C175	C	-0.203868	0.757810	0.123802
N176	N	-0.163086	0.660221	0.172609
H177	H	0.241599	0.791534	0.106906
C178	C	0.129170	1.606294	-0.123694
N179	N	0.088380	1.646141	-0.172460
H180	H	0.511821	0.791511	-0.305846
C181	C	0.222103	1.404311	-0.275406
N182	N	0.217978	1.364497	-0.186792
H183	H	-0.396547	1.218809	-0.106741
C184	C	0.129171	1.252551	-0.123648
N185	N	0.088388	1.350135	-0.172435
C186	C	-0.008536	1.370294	-0.182481
N187	N	-0.012670	1.467885	-0.231288
H188	H	0.603450	0.592385	-0.106706
H189	H	0.143244	1.592508	-0.480405
H190	H	-0.316288	1.218826	-0.106741
H191	H	0.701782	0.592338	0.306110
H192	H	0.223516	1.218897	-0.106834
C193	C	0.026767	0.640071	0.182683
N194	N	0.067548	0.542479	0.231489
C195	C	-0.066151	0.640077	0.182692
N196	N	-0.062035	0.542508	0.231494
H197	H	-0.220110	1.336596	-0.165631
H198	H	-0.139851	1.336605	-0.165644
H199	H	0.321831	1.418055	-0.519637
H200	H	0.241537	1.592551	-0.694091
H201	H	0.321856	1.418003	0.106831
H202	H	0.223507	1.418077	-0.106858
