data_functionalizedCrystal
_audit_creation_method	'MofGen! by Chris Wilmer'
_symmetry_space_group_name_H-M	'P1'
_symmetry_Int_Tables_number	1
_symmetry_cell_setting	triclinic
loop_
_symmetry_equiv_pos_as_xyz
  x,y,z
_cell_length_a	10.540539
_cell_length_b	19.188930
_cell_length_c	9.616153
_cell_angle_alpha	89.992615
_cell_angle_beta	89.995174
_cell_angle_gamma	83.835137
loop_
_atom_site_label
_atom_site_type_symbol
_atom_site_fract_x
_atom_site_fract_y
_atom_site_fract_z
O1	O	1.683724	0.098389	-0.115598
O2	O	2.183724	0.598389	0.384402
O3	O	1.314107	0.107659	-0.115617
O4	O	1.814107	0.607659	0.384383
O5	O	1.509582	0.001439	-0.115579
O6	O	2.009582	0.501439	0.384421
O7	O	1.488249	0.204608	-0.115635
O8	O	1.988249	0.704608	0.384365
O9	O	1.509555	0.001441	0.115712
O10	O	2.009555	0.501441	0.615712
O11	O	1.314080	0.107661	0.115675
O12	O	1.814080	0.607661	0.615675
O13	O	1.683697	0.098391	0.115694
O14	O	2.183697	0.598391	0.615694
Zn15	Zn	1.498885	0.103026	0.152407
Zn16	Zn	1.998885	0.603026	0.652407
Zn17	Zn	1.498920	0.103023	-0.152330
Zn18	Zn	1.998920	0.603023	0.347670
O19	O	1.488222	0.204610	0.115657
O20	O	1.988222	0.704610	0.615657
C21	C	1.266806	0.106965	0.000027
C22	C	1.766806	0.606965	0.500027
C23	C	1.125904	0.104885	0.000021
C24	C	1.625904	0.604885	0.500021
C25	C	1.508878	-0.024575	0.000070
C26	C	2.008878	0.475425	0.500070
C27	C	1.506804	-0.102094	0.000082
C28	C	2.006804	0.397906	0.500082
C29	C	0.944233	0.025184	0.000583
C30	C	1.444233	0.525184	0.500583
C31	C	1.090805	0.027292	0.000047
C32	C	1.590805	0.527292	0.500047
C33	C	1.063423	0.142224	-0.132063
C34	C	1.563423	0.642224	0.367937
C35	C	0.916937	0.139576	-0.132158
C36	C	1.416937	0.639576	0.367842
C37	C	0.916384	0.141157	0.130863
C38	C	1.416384	0.641157	0.630863
C39	C	1.063350	0.141872	0.132594
C40	C	1.563350	0.641872	0.632594
C41	C	1.621502	-0.146253	0.000095
C42	C	2.121502	0.353747	0.500095
C43	C	1.619554	-0.219090	0.000072
C44	C	2.119554	0.280910	0.500072
C45	C	1.502901	-0.247764	0.000065
C46	C	2.002901	0.252236	0.500065
C47	C	1.388187	-0.203595	0.000045
C48	C	1.888187	0.296405	0.500045
C49	C	1.390139	-0.130760	0.000053
C50	C	1.890139	0.369240	0.500053
N51	N	1.413724	-0.356363	0.078774
N52	N	1.913724	0.143637	0.578774
N53	N	1.411878	-0.425554	0.078769
N54	N	1.911878	0.074446	0.578769
C55	C	1.497014	-0.467212	0.000037
C56	C	1.997014	0.032788	0.500037
N57	N	1.584085	-0.437067	-0.078672
N58	N	2.084085	0.062933	0.421328
N59	N	1.585935	-0.367870	-0.078661
N60	N	2.085935	0.132130	0.421339
C61	C	1.500772	-0.326741	0.000055
C62	C	2.000772	0.173259	0.500055
C63	C	1.609608	-0.590350	0.000023
C64	C	2.109608	-0.090350	0.500023
C65	C	1.607655	-0.663188	-0.000008
C66	C	2.107655	-0.163188	0.499992
C67	C	1.376285	-0.647691	-0.000021
C68	C	1.876285	-0.147691	0.499979
C69	C	1.378241	-0.574855	-0.000004
C70	C	1.878241	-0.074855	0.499996
C71	C	1.494906	-0.546189	0.000025
C72	C	1.994906	-0.046189	0.500025
C73	C	1.730998	0.099085	0.000047
C74	C	2.230998	0.599085	0.500047
C75	C	1.871901	0.101165	0.000044
C76	C	2.371901	0.601165	0.500044
C77	C	1.488927	0.230625	0.000004
C78	C	1.988927	0.730625	0.500004
C79	C	1.491000	0.308143	-0.000017
C80	C	1.991000	0.808143	0.499983
N81	N	1.498870	0.103028	0.360381
N82	N	1.998870	0.603028	0.860381
N83	N	1.498945	0.103016	-0.360304
N84	N	1.998945	0.603016	0.139696
C85	C	1.393992	0.159658	0.580731
C86	C	1.893992	0.659658	1.080731
C87	C	1.394216	0.159870	0.419564
C88	C	1.894216	0.659870	0.919564
C89	C	1.631228	0.119601	0.418832
C90	C	2.131228	0.619601	0.918832
C91	C	1.630655	0.120002	0.580050
C92	C	2.130655	0.620002	1.080050
C93	C	1.472715	0.029640	0.580311
C94	C	1.972715	0.529640	1.080311
C95	C	1.469658	0.030115	0.419084
C96	C	1.969658	0.530115	0.919084
H97	H	1.134055	-0.002088	0.094731
H98	H	1.634055	0.497912	0.594731
F99	F	0.853042	0.214412	0.132011
F100	F	1.353042	0.714412	0.632011
F101	F	1.117535	0.106161	0.260314
F102	F	1.617535	0.606161	0.760314
F103	F	1.119847	0.108320	-0.260531
F104	F	1.619847	0.608320	0.239469
F105	F	1.662251	0.188782	0.366024
F106	F	2.162251	0.688782	0.866024
F107	F	1.091028	0.216699	-0.138533
F108	F	1.591028	0.716699	0.361467
H109	H	0.885379	0.116047	0.230981
H110	H	1.385379	0.616047	0.730981
H111	H	1.284841	-0.538899	-0.000006
H112	H	1.784841	-0.038899	0.499994
F113	F	1.729739	-0.710186	-0.000004
F114	F	2.229739	-0.210186	0.499996
H115	H	1.296735	-0.094804	0.000044
H116	H	1.796735	0.405196	0.500044
H117	H	1.704603	-0.567009	0.000040
H118	H	2.204603	-0.067009	0.500040
F119	F	1.660945	0.189973	0.629167
F120	F	2.160945	0.689973	1.129167
H121	H	1.281303	-0.671037	-0.000034
H122	H	1.781303	-0.171037	0.499966
H123	H	1.716500	-0.122918	0.000113
H124	H	2.216500	0.377082	0.500113
F125	F	1.735681	0.068120	0.631034
F126	F	2.235681	0.568120	1.131034
H127	H	1.295819	0.149898	0.380047
H128	H	1.795819	0.649898	0.880047
F129	F	1.264965	0.146817	0.631430
F130	F	1.764965	0.646817	1.131430
F131	F	1.349319	0.009034	0.633517
F132	F	1.849319	0.509034	1.133517
H133	H	1.086329	0.198442	0.140553
H134	H	1.586329	0.698442	0.640553
F135	F	1.415536	0.230414	0.633624
F136	F	1.915536	0.730414	1.133624
H137	H	1.293208	-0.226946	0.000036
H138	H	1.793208	0.273054	0.500036
H139	H	1.549256	-0.012519	0.618442
H140	H	2.049256	0.487481	1.118442
F141	F	1.416002	0.231032	0.369113
F142	F	1.916002	0.731032	0.869113
H143	H	1.712958	-0.255051	0.000077
H144	H	2.212958	0.244949	0.500077
F145	F	1.735717	0.067150	0.368728
F146	F	2.235717	0.567150	0.868728
H147	H	1.372296	0.017553	0.380883
H148	H	1.872296	0.517553	0.880883
H149	H	1.541158	-0.014059	0.378804
H150	H	2.041158	0.485941	0.878804
H151	H	0.916312	-0.005469	0.095309
H152	H	1.416312	0.494531	0.595309
H153	H	0.914709	-0.005341	-0.093599
H154	H	1.414709	0.494659	0.406401
H155	H	0.889346	0.111977	-0.230877
H156	H	1.389346	0.611977	0.269123
F157	F	0.852628	0.212514	-0.140014
F158	F	1.352628	0.712514	0.359986
F159	F	1.146203	-0.011227	-0.124101
F160	F	1.646203	0.488773	0.375899
