data_functionalizedCrystal
_audit_creation_method	'MofGen! by Chris Wilmer'
_symmetry_space_group_name_H-M	'P1'
_symmetry_Int_Tables_number	1
_symmetry_cell_setting	triclinic
loop_
_symmetry_equiv_pos_as_xyz
  x,y,z
_cell_length_a	19.288864
_cell_length_b	12.837942
_cell_length_c	17.766277
_cell_angle_alpha	89.994736
_cell_angle_beta	89.976791
_cell_angle_gamma	88.982593
loop_
_atom_site_label
_atom_site_type_symbol
_atom_site_fract_x
_atom_site_fract_y
_atom_site_fract_z
O1	O	0.930181	0.129276	-0.062838
O2	O	0.729111	0.146715	-0.062786
O3	O	0.825187	-0.012886	-0.062806
O4	O	0.834104	0.288878	-0.062818
O5	O	0.825168	-0.012894	0.062382
O6	O	0.729091	0.146707	0.062402
O7	O	0.930161	0.129268	0.062351
Cu8	Cu	0.829625	0.137987	0.073807
Cu9	Cu	0.829647	0.137996	-0.074243
O10	O	0.834085	0.288870	0.062371
C11	C	0.703186	0.146150	-0.000185
C12	C	0.625968	0.144466	-0.000166
C13	C	0.587666	0.238113	-0.000181
C14	C	0.515111	0.236530	-0.000189
C15	C	0.480860	0.141295	-0.000197
C16	C	0.519171	0.047636	-0.000178
C17	C	0.591725	0.049221	-0.000162
C18	C	0.367493	0.066433	-0.044079
C19	C	0.294941	0.064852	-0.044099
C20	C	0.257081	0.136402	-0.000243
C21	C	0.291782	0.209552	0.043625
C22	C	0.364335	0.211137	0.043640
C23	C	0.402188	0.139566	-0.000214
C24	C	0.140106	0.228340	-0.000266
C25	C	0.067550	0.226753	-0.000270
C26	C	0.071611	0.037857	-0.000265
C27	C	0.144166	0.039446	-0.000254
C28	C	0.178409	0.134690	-0.000258
C29	C	0.822165	-0.051497	-0.000212
C30	C	0.813181	-0.166532	-0.000211
C31	C	0.921187	-0.407995	-0.000254
C32	C	0.912748	-0.516081	-0.000253
C33	C	0.787867	-0.490793	-0.000213
C34	C	0.796305	-0.382707	-0.000214
C35	C	0.862967	-0.341312	-0.000233
C36	C	0.871405	-0.233223	-0.000229
C37	C	0.746524	-0.207938	-0.000195
C38	C	0.738086	-0.316024	-0.000194
C39	C	0.956086	0.129833	-0.000252
C40	C	1.033304	0.131518	-0.000276
C41	C	0.837107	0.327480	-0.000225
C42	C	0.846091	0.442515	-0.000231
N43	N	0.829614	0.137979	0.177938
N44	N	0.829663	0.137996	-0.178373
C45	C	0.872174	0.067342	0.217316
C46	C	0.872178	0.067338	0.296118
C47	C	0.829629	0.137988	0.335538
C48	C	0.787060	0.208630	0.296151
C49	C	0.787052	0.208626	0.217350
C50	C	0.826778	0.232410	0.460374
C51	C	0.826790	0.232416	0.539173
C52	C	0.829648	0.138000	0.578584
C53	C	0.832508	0.043575	0.539188
C54	C	0.832501	0.043571	0.460387
C55	C	0.829632	0.138000	0.420984
C56	C	0.872215	0.067352	0.703409
C57	C	0.872213	0.067346	0.782212
C58	C	0.787100	0.208647	0.782243
C59	C	0.787097	0.208645	0.703442
C60	C	0.829658	0.137998	0.664029
H61	H	0.266693	0.005293	-0.079822
O62	O	0.913474	-0.001390	0.665126
C63	C	0.942295	-0.181711	0.640967
C64	C	0.895511	-0.103995	0.684368
H65	H	0.927798	-0.264683	0.656519
H66	H	0.934959	-0.169620	0.577879
H67	H	0.998803	-0.168353	0.656411
H68	H	0.838985	-0.117306	0.668987
H69	H	0.902906	-0.116104	0.747445
H70	H	0.615542	0.315668	-0.000186
O71	O	0.745685	0.277131	0.665150
C72	C	0.652341	0.299559	0.576189
C73	C	0.699184	0.221882	0.619521
H74	H	0.614743	0.254921	0.539276
H75	H	0.621879	0.350046	0.617861
H76	H	0.685763	0.351228	0.539309
H77	H	0.665814	0.170146	0.656402
H78	H	0.729651	0.171468	0.577809
O79	O	0.823980	0.324227	0.577323
C80	C	0.818341	0.511531	0.568990
C81	C	0.821504	0.407628	0.525694
H82	H	0.816353	0.578989	0.527267
H83	H	0.769976	0.514310	0.605891
H84	H	0.866407	0.518212	0.605873
H85	H	0.773473	0.400878	0.488770
H86	H	0.869899	0.404895	0.488841
H87	H	0.683812	-0.349743	-0.000181
H88	H	0.960157	-0.570371	-0.000272
H89	H	0.483920	0.312791	-0.000200
O90	O	0.689911	-0.143267	-0.000275
C91	C	0.585783	-0.088530	-0.065114
C92	C	0.649856	-0.161842	-0.065113
H93	H	0.553389	-0.103506	-0.117538
H94	H	0.553281	-0.103573	-0.012748
H95	H	0.603277	-0.004173	-0.065079
H96	H	0.632424	-0.246225	-0.065175
H97	H	0.682345	-0.146709	-0.117474
O98	O	0.723105	-0.530970	-0.000336
C99	C	0.613788	-0.542384	-0.065150
C100	C	0.687117	-0.496831	-0.065110
H101	H	0.584666	-0.514783	-0.117506
H102	H	0.617725	-0.631094	-0.065207
H103	H	0.584671	-0.514938	-0.012726
H104	H	0.716276	-0.524198	-0.117525
H105	H	0.683131	-0.408126	-0.065014
O106	O	0.397936	0.282220	0.086324
C107	C	0.387155	0.425607	0.173306
C108	C	0.349015	0.345149	0.125012
H109	H	0.347619	0.476521	0.204586
H110	H	0.422002	0.383394	0.215682
H111	H	0.420087	0.476519	0.135354
H112	H	0.316047	0.294215	0.162904
H113	H	0.314211	0.387428	0.082630
H114	H	0.906828	0.009816	0.185228
H115	H	0.906836	0.009814	0.328185
O116	O	0.985902	-0.367652	-0.000369
C117	C	1.067926	-0.260329	-0.065267
C118	C	0.994610	-0.305928	-0.065221
H119	H	1.074995	-0.210434	-0.117702
H120	H	1.075002	-0.210297	-0.012913
H121	H	1.108077	-0.326572	-0.065241
H122	H	0.954414	-0.239751	-0.065274
H123	H	0.987592	-0.355988	-0.117571
O124	O	0.835244	-0.048240	0.422234
C125	C	0.840949	-0.235543	0.430554
C126	C	0.837832	-0.131643	0.473856
H127	H	0.843057	-0.303001	0.472272
H128	H	0.792864	-0.242339	0.393711
H129	H	0.889287	-0.238199	0.393613
H130	H	0.789524	-0.128916	0.510839
H131	H	0.885950	-0.124889	0.510652
H132	H	0.167988	0.305893	-0.000258
H133	H	0.925684	-0.199522	-0.000242
O134	O	0.824098	0.324067	0.422007
C135	C	0.880486	0.436157	0.333027
C136	C	0.883600	0.332319	0.376418
H137	H	0.928593	0.442872	0.296170
H138	H	0.832159	0.438884	0.296109
H139	H	0.878417	0.503628	0.374728
H140	H	0.885695	0.264789	0.334771
H141	H	0.931919	0.329682	0.413347
O142	O	0.745691	0.277118	0.334524
C143	C	0.652303	0.299538	0.423511
C144	C	0.699122	0.221864	0.380114
H145	H	0.614630	0.254895	0.460369
H146	H	0.685672	0.351185	0.460429
H147	H	0.621913	0.350047	0.381813
H148	H	0.729520	0.171286	0.421757
H149	H	0.665715	0.170289	0.343185
O150	O	0.745691	0.277351	0.179211
C151	C	0.661240	0.417457	0.187558
C152	C	0.708058	0.339696	0.230846
H153	H	0.630791	0.467869	0.229286
H154	H	0.694611	0.469186	0.150666
H155	H	0.623621	0.372824	0.150667
H156	H	0.745684	0.384244	0.267778
H157	H	0.674644	0.287969	0.267690
H158	H	0.260958	0.267814	0.079337
H159	H	0.622910	-0.027040	-0.000150
O160	O	0.030447	0.317823	-0.000316
C161	C	0.034078	0.505346	-0.000286
C162	C	0.076183	0.402287	-0.000251
H163	H	0.071038	0.573662	-0.000217
H164	H	0.000052	0.509396	-0.052695
H165	H	-0.000035	0.509271	0.052088
H166	H	0.110335	0.398293	-0.052589
H167	H	0.110164	0.398280	0.052192
O168	O	0.038380	-0.054681	-0.000140
C169	C	0.019646	-0.216643	0.064694
C170	C	0.057317	-0.111868	0.064650
H171	H	0.034953	-0.262918	0.117063
H172	H	-0.038797	-0.201751	0.064731
H173	H	0.034930	-0.262858	0.012283
H174	H	0.042089	-0.065600	0.117052
H175	H	0.115751	-0.126834	0.064574
H176	H	0.175352	-0.036812	-0.000246
H177	H	0.398313	0.008166	-0.079797
H178	H	0.491280	-0.029905	-0.000194
H179	H	0.834835	-0.033307	0.571275
H180	H	0.906869	0.009819	0.814274
H181	H	0.752453	0.266168	0.814339
