data_functionalizedCrystal
_audit_creation_method	'MofGen! by Chris Wilmer'
_symmetry_space_group_name_H-M	'P1'
_symmetry_Int_Tables_number	1
_symmetry_cell_setting	triclinic
loop_
_symmetry_equiv_pos_as_xyz
  x,y,z
_cell_length_a	15.625950
_cell_length_b	14.971486
_cell_length_c	14.185292
_cell_angle_alpha	103.172275
_cell_angle_beta	120.549834
_cell_angle_gamma	96.054890
loop_
_atom_site_label
_atom_site_type_symbol
_atom_site_fract_x
_atom_site_fract_y
_atom_site_fract_z
O1	O	1.290725	-0.023141	0.385956
O2	O	1.002635	-0.062474	0.281188
O3	O	1.154404	0.088074	0.336388
O4	O	1.138957	-0.173690	0.330756
O5	O	1.199252	0.132550	0.519542
O6	O	1.047484	-0.017999	0.464342
O7	O	1.335574	0.021334	0.569110
Cu8	Cu	1.195624	0.005729	0.533449
Cu9	Cu	1.142585	-0.046869	0.316848
O10	O	1.183805	-0.129214	0.513910
C11	C	0.988191	-0.042860	0.359358
C12	C	0.878335	-0.050665	0.319408
C13	C	0.639142	0.044802	0.687068
C14	C	0.535901	0.037437	0.649477
C15	C	0.487060	-0.011044	0.449828
C16	C	0.590298	-0.003689	0.487402
C17	C	0.666332	0.024236	0.606023
C18	C	0.617489	-0.024255	0.406358
C19	C	0.720719	-0.016894	0.443930
C20	C	0.796759	0.011031	0.562546
C21	C	0.769563	0.031596	0.643595
C22	C	0.541454	-0.052172	0.287737
C23	C	0.568644	-0.072738	0.206693
C24	C	0.671875	-0.065385	0.244264
C25	C	0.747915	-0.037459	0.362880
C26	C	0.699071	-0.085949	0.163215
C27	C	0.802301	-0.078589	0.200786
C28	C	0.851145	-0.030099	0.400452
C29	C	1.176137	0.143576	0.427713
C30	C	1.174067	0.242690	0.426960
C31	C	1.350017	0.001719	0.490938
C32	C	1.459871	0.009522	0.530881
C33	C	1.162071	-0.184716	0.422582
C34	C	1.164139	-0.283833	0.423329
N35	N	1.232936	0.042724	0.685798
C36	C	1.263226	0.307769	0.459384
C37	C	1.261273	0.400894	0.458664
C38	C	1.170162	0.428940	0.425526
C39	C	1.080995	0.363853	0.393096
C40	C	1.082948	0.270728	0.393809
C41	C	1.076933	0.557957	0.391615
C42	C	1.074980	0.651089	0.390904
C43	C	1.255258	0.688123	0.456470
C44	C	1.257211	0.594998	0.457183
C45	C	1.168044	0.529917	0.424754
N46	N	1.105281	-0.083856	0.164503
C47	C	1.342521	0.151359	0.883181
C48	C	1.314261	0.123350	0.767876
C49	C	1.179834	-0.009922	0.718999
C50	C	1.208079	0.018078	0.834301
C51	C	1.289424	0.098718	0.916384
C52	C	1.154982	-0.034562	0.867504
C53	C	1.183229	-0.006567	0.982797
C54	C	1.264573	0.074069	1.064887
C55	C	1.317671	0.126714	1.031677
C56	C	1.073643	-0.115206	0.785421
C57	C	1.020546	-0.167846	0.818624
C58	C	1.048788	-0.139847	0.933917
C59	C	1.130131	-0.059212	1.016007
C60	C	0.995690	-0.192492	0.967127
C61	C	1.023936	-0.164497	1.082420
C62	C	1.158378	-0.031216	1.131300
H63	H	0.913056	-0.007374	0.497044
Br64	Br	0.595879	-0.123801	0.002237
H65	H	1.010345	0.217741	0.367405
Br66	Br	1.386339	0.194799	0.722828
Br67	Br	1.452907	0.260812	0.994581
Br68	Br	1.386888	0.269720	0.504375
H69	H	1.331403	0.572168	0.484174
H70	H	1.113604	-0.075582	0.652156
H71	H	1.000794	0.673924	0.363939
Br72	Br	0.957338	0.401910	0.348105
Br73	Br	1.035318	-0.153202	0.628953
Br74	Br	0.936862	0.021033	0.613542
Br75	Br	0.872759	0.069478	0.804583
H76	H	0.457398	-0.058169	0.257150
H77	H	1.224610	0.034455	1.198134
H78	H	0.954316	-0.233506	0.751780
H79	H	0.980700	-0.207363	1.109453
H80	H	0.929464	-0.258155	0.900284
H81	H	0.701053	0.067527	0.783660
Br82	Br	0.955919	0.469633	0.347601
Br83	Br	0.839210	-0.106494	0.090798
Br84	Br	1.302917	0.112059	1.221361
H85	H	1.383903	0.192385	1.098511
H86	H	0.513767	0.054166	0.715481
H87	H	0.506725	-0.095470	0.110111
Br88	Br	0.383869	-0.048905	0.288849
Br89	Br	1.382280	0.489213	0.502670
H90	H	1.327860	0.741115	0.482871
