data_functionalizedCrystal
_audit_creation_method	'MofGen! by Chris Wilmer'
_symmetry_space_group_name_H-M	'P1'
_symmetry_Int_Tables_number	1
_symmetry_cell_setting	triclinic
loop_
_symmetry_equiv_pos_as_xyz
  x,y,z
_cell_length_a	23.532407
_cell_length_b	23.532407
_cell_length_c	22.610064
_cell_angle_alpha	89.994501
_cell_angle_beta	89.988412
_cell_angle_gamma	97.151289
loop_
_atom_site_label
_atom_site_type_symbol
_atom_site_fract_x
_atom_site_fract_y
_atom_site_fract_z
O1	O	-0.069127	0.755263	-0.049138
O2	O	0.264206	1.088597	0.284195
O3	O	0.597539	1.421930	0.617529
O4	O	-0.079131	0.589400	-0.049146
O5	O	0.254203	0.922733	0.284187
O6	O	0.587536	1.256067	0.617521
O7	O	0.008803	0.677333	-0.049149
O8	O	0.342136	1.010667	0.284184
O9	O	0.675469	1.344000	0.617518
O10	O	-0.157061	0.667330	-0.049135
O11	O	0.176273	1.000663	0.284199
O12	O	0.509606	1.333997	0.617532
O13	O	0.008790	0.677318	0.049220
O14	O	0.342123	1.010651	0.382553
O15	O	0.675456	1.343985	0.715887
O16	O	-0.079143	0.589385	0.049223
O17	O	0.254190	0.922718	0.382557
O18	O	0.587523	1.256051	0.715890
O19	O	-0.069140	0.755248	0.049231
O20	O	0.264193	1.088581	0.382565
O21	O	0.597526	1.421915	0.715898
Zn22	Zn	-0.074144	0.672314	0.064846
Zn23	Zn	0.259189	1.005647	0.398179
Zn24	Zn	0.592523	1.338980	0.731512
Zn25	Zn	-0.074127	0.672334	-0.064760
Zn26	Zn	0.259206	1.005668	0.268573
Zn27	Zn	0.592540	1.339001	0.601907
O28	O	-0.157074	0.667315	0.049235
O29	O	0.176260	1.000648	0.382568
O30	O	0.509593	1.333981	0.715901
C31	C	-0.078882	0.568176	0.000038
C32	C	0.254451	0.901510	0.333371
C33	C	0.587784	1.234843	0.666704
C34	C	-0.078116	0.504959	0.000034
C35	C	0.255217	0.838293	0.333367
C36	C	0.588550	1.171626	0.666701
C37	C	-0.022921	0.238792	0.000045
C38	C	0.310412	0.572125	0.333379
C39	C	0.643746	0.905458	0.666712
C40	C	-0.023632	0.298192	0.000045
C41	C	0.309701	0.631525	0.333378
C42	C	0.643034	0.964859	0.666712
O43	O	0.020153	0.334937	0.000062
O44	O	0.353487	0.668270	0.333395
O45	O	0.686820	1.001603	0.666728
N46	N	-0.075909	0.320818	0.000046
N47	N	0.257425	0.654152	0.333379
N48	N	0.590758	0.987485	0.666712
C49	C	-0.127477	0.284041	0.000052
C50	C	0.205856	0.617374	0.333386
C51	C	0.539190	0.950707	0.666719
O52	O	-0.172007	0.308740	0.000053
O53	O	0.161326	0.642074	0.333387
O54	O	0.494659	0.975407	0.666720
C55	C	-0.126765	0.224642	0.000057
C56	C	0.206568	0.557975	0.333390
C57	C	0.539902	0.891308	0.666723
C58	C	-0.074485	0.202019	0.000050
C59	C	0.258848	0.535352	0.333383
C60	C	0.592181	0.868686	0.666717
C61	C	0.029354	0.216168	0.000039
C62	C	0.362688	0.549502	0.333373
C63	C	0.696021	0.882835	0.666706
C64	C	0.030066	0.156772	0.000038
C65	C	0.363399	0.490106	0.333372
C66	C	0.696732	0.823439	0.666705
C67	C	-0.021499	0.119999	0.000043
C68	C	0.311835	0.453333	0.333377
C69	C	0.645168	0.786666	0.666710
C70	C	-0.073774	0.142623	0.000049
C71	C	0.259559	0.475956	0.333382
C72	C	0.592893	0.809289	0.666716
C73	C	-0.178333	0.187865	0.000068
C74	C	0.155001	0.521199	0.333401
C75	C	0.488334	0.854532	0.666734
C76	C	-0.177616	0.128463	0.000072
C77	C	0.155717	0.461796	0.333406
C78	C	0.489051	0.795129	0.666739
C79	C	-0.125336	0.105840	0.000066
C80	C	0.207997	0.439173	0.333399
C81	C	0.541330	0.772507	0.666732
C82	C	-0.124627	0.046454	0.000053
C83	C	0.208706	0.379787	0.333386
C84	C	0.542040	0.713120	0.666720
N85	N	-0.072351	0.023828	0.000052
N86	N	0.260983	0.357161	0.333386
N87	N	0.594316	0.690494	0.666719
C88	C	-0.020787	0.060600	0.000048
C89	C	0.312547	0.393934	0.333381
C90	C	0.645880	0.727267	0.666714
C91	C	-0.128968	0.408783	0.000044
C92	C	0.204365	0.742117	0.333378
C93	C	0.537698	1.075450	0.666711
C94	C	-0.129681	0.468181	0.000036
C95	C	0.203652	0.801514	0.333369
C96	C	0.536986	1.134848	0.666702
C97	C	-0.025836	0.482328	0.000030
C98	C	0.307497	0.815662	0.333363
C99	C	0.640830	1.148995	0.666696
C100	C	-0.025124	0.422929	0.000034
C101	C	0.308209	0.756263	0.333367
C102	C	0.641543	1.089596	0.666701
C103	C	-0.076692	0.386157	0.000044
C104	C	0.256641	0.719490	0.333377
C105	C	0.589975	1.052824	0.666710
C106	C	-0.019297	-0.064136	0.000045
C107	C	0.314036	0.269197	0.333378
C108	C	0.647370	0.602530	0.666712
C109	C	-0.018590	-0.123538	0.000041
C110	C	0.314743	0.209795	0.333375
C111	C	0.648076	0.543128	0.666708
C112	C	-0.122435	-0.137680	0.000051
C113	C	0.210899	0.195653	0.333384
C114	C	0.544232	0.528986	0.666717
C115	C	-0.123142	-0.078284	0.000051
C116	C	0.210192	0.255050	0.333384
C117	C	0.543525	0.588383	0.666718
C118	C	-0.071568	-0.041512	0.000050
C119	C	0.261765	0.291821	0.333383
C120	C	0.595099	0.625154	0.666717
O121	O	-0.168390	0.009675	0.000039
O122	O	0.164943	0.343008	0.333372
O123	O	0.498277	0.676341	0.666705
O124	O	0.023737	0.035892	0.000054
O125	O	0.357070	0.369226	0.333388
O126	O	0.690403	0.702559	0.666721
C127	C	-0.178283	0.667577	0.000052
C128	C	0.155050	1.000910	0.333385
C129	C	0.488383	1.334244	0.666719
C130	C	-0.241500	0.668343	0.000057
C131	C	0.091833	1.001676	0.333391
C132	C	0.425166	1.335010	0.666724
C133	C	-0.640603	0.621110	0.000025
C134	C	-0.307270	0.954443	0.333358
C135	C	0.026063	1.287776	0.666692
C136	C	-0.700004	0.621821	0.000021
C137	C	-0.366670	0.955154	0.333354
C138	C	-0.033337	1.288488	0.666687
O139	O	-0.736748	0.578035	-0.000003
O140	O	-0.403415	0.911368	0.333330
O141	O	-0.070081	1.244702	0.666664
N142	N	-0.722630	0.674097	0.000024
N143	N	-0.389296	1.007431	0.333357
N144	N	-0.055963	1.340764	0.666691
C145	C	-0.685852	0.725666	0.000025
C146	C	-0.352519	1.058999	0.333359
C147	C	-0.019185	1.392332	0.666692
O148	O	-0.710552	0.770196	0.000027
O149	O	-0.377218	1.103529	0.333361
O150	O	-0.043885	1.436863	0.666694
C151	C	-0.626453	0.724953	0.000025
C152	C	-0.293120	1.058287	0.333359
C153	C	0.040214	1.391620	0.666692
C154	C	-0.603830	0.672674	0.000028
C155	C	-0.270497	1.006007	0.333361
C156	C	0.062836	1.339340	0.666695
C157	C	-0.617980	0.568834	0.000027
C158	C	-0.284647	0.902167	0.333360
C159	C	0.048687	1.235501	0.666694
C160	C	-0.558584	0.568123	0.000032
C161	C	-0.225251	0.901456	0.333366
C162	C	0.108083	1.234790	0.666699
C163	C	-0.521811	0.619687	0.000035
C164	C	-0.188478	0.953020	0.333369
C165	C	0.144856	1.286354	0.666702
C166	C	-0.544434	0.671963	0.000033
C167	C	-0.211101	1.005296	0.333367
C168	C	0.122232	1.338629	0.666700
C169	C	-0.589677	0.776521	0.000022
C170	C	-0.256343	1.109854	0.333356
C171	C	0.076990	1.443188	0.666689
C172	C	-0.530274	0.775804	0.000022
C173	C	-0.196941	1.109138	0.333355
C174	C	0.136393	1.442471	0.666689
C175	C	-0.507652	0.723525	0.000025
C176	C	-0.174318	1.056858	0.333358
C177	C	0.159015	1.390191	0.666691
C178	C	-0.448265	0.722816	0.000042
C179	C	-0.114932	1.056149	0.333375
C180	C	0.218401	1.389482	0.666708
N181	N	-0.425639	0.670539	0.000038
N182	N	-0.092306	1.003873	0.333372
N183	N	0.241028	1.337206	0.666705
C184	C	-0.462412	0.618975	0.000035
C185	C	-0.129079	0.952308	0.333369
C186	C	0.204255	1.285642	0.666702
C187	C	-0.810595	0.727157	0.000025
C188	C	-0.477261	1.060490	0.333358
C189	C	-0.143928	1.393824	0.666691
C190	C	-0.869993	0.727870	0.000029
C191	C	-0.536659	1.061203	0.333362
C192	C	-0.203326	1.394536	0.666696
C193	C	-0.884140	0.624025	0.000023
C194	C	-0.550807	0.957358	0.333357
C195	C	-0.217473	1.290691	0.666690
C196	C	-0.824741	0.623313	0.000023
C197	C	-0.491408	0.956646	0.333357
C198	C	-0.158074	1.289979	0.666690
C199	C	-0.787969	0.674881	0.000021
C200	C	-0.454635	1.008214	0.333355
C201	C	-0.121302	1.341547	0.666688
C202	C	-0.337675	0.617485	0.000047
C203	C	-0.004342	0.950819	0.333380
C204	C	0.328992	1.284152	0.666713
C205	C	-0.278273	0.616779	0.000054
C206	C	0.055060	0.950112	0.333388
C207	C	0.388394	1.283445	0.666721
C208	C	-0.264131	0.720623	0.000057
C209	C	0.069202	1.053957	0.333390
C210	C	0.402536	1.387290	0.666724
C211	C	-0.323528	0.721330	0.000052
C212	C	0.009806	1.054663	0.333386
C213	C	0.343139	1.387997	0.666719
C214	C	-0.360299	0.669757	0.000045
C215	C	-0.026966	1.003090	0.333379
C216	C	0.306368	1.336423	0.666712
O217	O	-0.411486	0.766578	0.000063
O218	O	-0.078153	1.099912	0.333396
O219	O	0.255181	1.433245	0.666730
O220	O	-0.437704	0.574452	0.000026
O221	O	-0.104371	0.907785	0.333359
O222	O	0.228963	1.241119	0.666692
C223	C	0.030012	0.677071	0.000032
C224	C	0.363346	1.010404	0.333366
C225	C	0.696679	1.343738	0.666699
C226	C	0.093229	0.676305	0.000023
C227	C	0.426563	1.009638	0.333356
C228	C	0.759896	1.342972	0.666689
C229	C	-0.069389	0.776472	0.000047
C230	C	0.263945	1.109805	0.333380
C231	C	0.597278	1.443138	0.666713
C232	C	-0.070155	0.839689	0.000046
C233	C	0.263179	1.173022	0.333380
C234	C	0.596512	1.506355	0.666713
N235	N	-0.074155	0.672304	0.153298
N236	N	0.259178	1.005637	0.486631
N237	N	0.592512	1.338971	0.819965
N238	N	-0.074111	0.672349	-0.153213
N239	N	0.259222	1.005682	0.180121
N240	N	0.592555	1.339015	0.513454
C241	C	-0.035196	0.711273	0.561938
C242	C	0.298137	1.044606	0.895271
C243	C	0.631471	1.377939	1.228605
C244	C	-0.035192	0.711276	0.623858
C245	C	0.298141	1.044609	0.957191
C246	C	0.631475	1.377942	1.290525
O247	O	-0.002076	0.744384	0.655875
O248	O	0.331257	1.077717	0.989209
O249	O	0.664590	1.411051	1.322542
N250	N	-0.074115	0.672334	0.654835
N251	N	0.259218	1.005667	0.988168
N252	N	0.592551	1.339000	1.321502
C253	C	-0.113041	0.633383	0.623889
C254	C	0.220292	0.966716	0.957223
C255	C	0.553625	1.300049	1.290556
O256	O	-0.146148	0.600259	0.655924
O257	O	0.187186	0.933593	0.989257
O258	O	0.520519	1.266926	1.322590
C259	C	-0.113042	0.633377	0.561971
C260	C	0.220291	0.966711	0.895304
C261	C	0.553624	1.300044	1.228637
C262	C	-0.074120	0.672326	0.530996
C263	C	0.259213	1.005659	0.864330
C264	C	0.592546	1.338992	1.197663
C265	C	0.003723	0.750217	0.530964
C266	C	0.337056	1.083551	0.864297
C267	C	0.670390	1.416884	1.197631
C268	C	0.003718	0.750215	0.469048
C269	C	0.337051	1.083548	0.802382
C270	C	0.670385	1.416882	1.135715
C271	C	-0.035206	0.711268	0.438107
C272	C	0.298127	1.044601	0.771440
C273	C	0.631461	1.377935	1.104773
C274	C	-0.074125	0.672323	0.469081
C275	C	0.259208	1.005657	0.802414
C276	C	0.592541	1.338990	1.135747
C277	C	-0.151965	0.594424	0.531026
C278	C	0.181368	0.927757	0.864359
C279	C	0.514701	1.261091	1.197692
C280	C	-0.151963	0.594422	0.469103
C281	C	0.181371	0.927755	0.802436
C282	C	0.514704	1.261089	1.135769
C283	C	-0.113041	0.633370	0.438129
C284	C	0.220293	0.966703	0.771462
C285	C	0.553626	1.300037	1.104795
C286	C	-0.113055	0.633374	0.376224
C287	C	0.220279	0.966707	0.709557
C288	C	0.553612	1.300041	1.042890
N289	N	-0.074131	0.672316	0.345246
N290	N	0.259202	1.005649	0.678580
N291	N	0.592535	1.338982	1.011913
C292	C	-0.035207	0.711263	0.376188
C293	C	0.298126	1.044596	0.709521
C294	C	0.631460	1.377930	1.042855
C295	C	-0.113036	0.633396	0.753923
C296	C	0.220298	0.966729	1.087256
C297	C	0.553631	1.300062	1.420590
C298	C	-0.113038	0.633403	0.815841
C299	C	0.220296	0.966737	1.149174
C300	C	0.553629	1.300070	1.482507
C301	C	-0.035188	0.711296	0.815805
C302	C	0.298146	1.044629	1.149138
C303	C	0.631479	1.377962	1.482472
C304	C	-0.035189	0.711291	0.753886
C305	C	0.298145	1.044624	1.087219
C306	C	0.631478	1.377957	1.420553
C307	C	-0.074112	0.672338	0.722946
C308	C	0.259221	1.005671	1.056279
C309	C	0.592554	1.339004	1.389612
C310	C	-0.035221	0.711255	0.246161
C311	C	0.298112	1.044589	0.579494
C312	C	0.631446	1.377922	0.912827
C313	C	-0.035231	0.711251	0.184239
C314	C	0.298102	1.044584	0.517573
C315	C	0.631436	1.377918	0.850906
C316	C	-0.113079	0.633357	0.184281
C317	C	0.220255	0.966690	0.517614
C318	C	0.553588	1.300023	0.850947
C319	C	-0.113071	0.633363	0.246196
C320	C	0.220262	0.966696	0.579530
C321	C	0.553596	1.300029	0.912863
C322	C	-0.074137	0.672314	0.277135
C323	C	0.259196	1.005648	0.610468
C324	C	0.592529	1.338981	0.943801
O325	O	-0.146152	0.600281	0.344167
O326	O	0.187181	0.933614	0.677500
O327	O	0.520515	1.266948	1.010833
O328	O	-0.002101	0.744376	0.344146
O329	O	0.331232	1.077709	0.677479
O330	O	0.664566	1.411042	1.010813
H331	H	-0.172252	0.486595	0.000033
H332	H	0.161081	0.819928	0.333366
H333	H	0.494414	1.153261	0.666699
F334	F	-0.534515	0.512479	0.000030
F335	F	-0.201182	0.845813	0.333363
F336	F	0.132152	1.179146	0.666696
H337	H	-0.164417	-0.167631	0.000052
H338	H	0.168916	0.165702	0.333385
H339	H	0.502250	0.499035	0.666718
H340	H	-0.165712	-0.059864	0.000056
H341	H	0.167621	0.273470	0.333389
H342	H	0.500955	0.606803	0.666722
H343	H	-0.259858	0.574205	0.000059
H344	H	0.073476	0.907538	0.333393
H345	H	0.406809	1.240871	0.666726
H346	H	-0.367608	0.575489	0.000041
H347	H	-0.034275	0.908822	0.333374
H348	H	0.299059	1.242156	0.666707
F349	F	-0.232503	0.089330	0.000085
F350	F	0.100830	0.422663	0.333419
F351	F	0.434163	0.755996	0.666752
F352	F	0.029043	0.521475	0.000024
F353	F	0.362377	0.854809	0.333357
F354	F	0.695710	1.188142	0.666691
F355	F	0.006240	0.752746	0.848747
F356	F	0.339573	1.086079	1.182080
F357	F	0.672907	1.419412	1.515414
H358	H	-0.647915	0.526842	0.000022
H359	H	-0.314582	0.860175	0.333356
H360	H	0.018751	1.193508	0.666689
F361	F	0.037055	-0.147611	0.000031
F362	F	0.370389	0.185722	0.333364
F363	F	0.703722	0.519056	0.666697
F364	F	0.045156	0.791673	0.563886
F365	F	0.378489	1.125006	0.897219
F366	F	0.711822	1.458340	1.230552
F367	F	0.006196	0.752708	0.151278
F368	F	0.339529	1.086041	0.484611
F369	F	0.672862	1.419374	0.817944
F370	F	0.085709	0.132703	0.000027
F371	F	0.419043	0.466037	0.333360
F372	F	0.752376	0.799370	0.666693
F373	F	-0.183858	0.369651	0.000048
F374	F	0.149476	0.702985	0.333382
F375	F	0.482809	1.036318	0.666715
F376	F	-0.193390	0.552969	0.563980
F377	F	0.139943	0.886303	0.897313
F378	F	0.473276	1.219636	1.230646
F379	F	-0.800670	0.567670	0.000025
F380	F	-0.467336	0.901004	0.333359
F381	F	-0.134003	1.234337	0.666692
H382	H	-0.144737	0.601677	0.728734
H383	H	0.188597	0.935010	1.062068
H384	H	0.521930	1.268344	1.395401
H385	H	-0.003517	0.742972	0.271344
H386	H	0.329817	1.076306	0.604677
H387	H	0.663150	1.409639	0.938010
H388	H	-0.003495	0.743005	0.728671
H389	H	0.329839	1.076339	1.062004
H390	H	0.663172	1.409672	1.395337
H391	H	-0.144772	0.601648	0.159078
H392	H	0.188561	0.934981	0.492412
H393	H	0.521894	1.268315	0.825745
F394	F	-0.923287	0.569145	0.000020
F395	F	-0.589954	0.902478	0.333353
F396	F	-0.256620	1.235812	0.666686
F397	F	-0.193391	0.552960	0.436178
F398	F	0.139943	0.886293	0.769511
F399	F	0.473276	1.219627	1.102845
H400	H	-0.144770	0.601653	0.271416
H401	H	0.188563	0.934986	0.604749
H402	H	0.521896	1.268320	0.938083
F403	F	0.035594	-0.025010	0.000044
F404	F	0.368927	0.308324	0.333377
F405	F	0.702260	0.641657	0.666710
H406	H	0.071347	0.246104	0.000037
H407	H	0.404680	0.579437	0.333371
H408	H	0.738013	0.912771	0.666704
F409	F	0.030518	0.398858	0.000029
F410	F	0.363852	0.732192	0.333362
F411	F	0.697185	1.065525	0.666696
H412	H	-0.780657	0.769152	0.000027
H413	H	-0.447324	1.102486	0.333361
H414	H	-0.113990	1.435819	0.666694
H415	H	0.035413	0.781929	0.443833
H416	H	0.368747	1.115262	0.777166
H417	H	0.702080	1.448595	1.110499
F418	F	-0.233977	0.211929	0.000074
F419	F	0.099357	0.545262	0.333408
F420	F	0.432690	0.878595	0.666741
F421	F	-0.613740	0.832165	0.000009
F422	F	-0.280407	1.165498	0.333342
F423	F	0.052927	1.498832	0.666676
F424	F	-0.894062	0.783513	0.000035
F425	F	-0.560729	1.116846	0.333368
F426	F	-0.227396	1.450179	0.666701
H427	H	-0.500336	0.817798	0.000017
H428	H	-0.167003	1.151132	0.333351
H429	H	0.166330	1.484465	0.666684
F430	F	-0.347605	0.776972	0.000068
F431	F	-0.014272	1.110305	0.333402
F432	F	0.319061	1.443638	0.666735
H433	H	-0.234180	0.762605	0.000062
H434	H	0.099153	1.095939	0.333396
H435	H	0.432487	1.429272	0.666729
F436	F	-0.154471	0.591956	0.848799
F437	F	0.178863	0.925290	1.182133
F438	F	0.512196	1.258623	1.515466
