data_functionalizedCrystal
_audit_creation_method	'MofGen! by Chris Wilmer'
_symmetry_space_group_name_H-M	'P1'
_symmetry_Int_Tables_number	1
_symmetry_cell_setting	triclinic
loop_
_symmetry_equiv_pos_as_xyz
  x,y,z
_cell_length_a	21.295418
_cell_length_b	19.076915
_cell_length_c	19.077174
_cell_angle_alpha	89.935824
_cell_angle_beta	87.664690
_cell_angle_gamma	87.653381
loop_
_atom_site_label
_atom_site_type_symbol
_atom_site_fract_x
_atom_site_fract_y
_atom_site_fract_z
Zn1	Zn	0.965555	0.295455	-0.386433
Zn2	Zn	1.465555	0.795455	0.113567
Zn3	Zn	0.957024	0.408254	-0.264197
Zn4	Zn	1.457024	0.908254	0.235803
Zn5	Zn	0.856240	0.290788	-0.268897
Zn6	Zn	1.356240	0.790788	0.231103
Zn7	Zn	0.855847	0.412964	-0.381626
Zn8	Zn	1.355847	0.912964	0.118374
O9	O	0.908666	0.351865	-0.325288
O10	O	1.408666	0.851865	0.174712
O11	O	1.052515	0.310400	-0.370262
O12	O	1.552515	0.810400	0.129738
O13	O	0.940248	0.388747	-0.166487
O14	O	1.440248	0.888747	0.333513
O15	O	0.874475	0.193069	-0.288467
O16	O	1.374475	0.693069	0.211533
O17	O	1.046247	0.393273	-0.280457
O18	O	1.546247	0.893273	0.219543
O19	O	0.954789	0.196498	-0.374820
O20	O	1.454789	0.696498	0.125180
O21	O	0.866203	0.302445	-0.169940
O22	O	1.366203	0.802445	0.330060
O23	O	0.768096	0.307012	-0.283806
O24	O	1.268096	0.807012	0.216194
O25	O	0.873807	0.401300	-0.480597
O26	O	1.373807	0.901300	0.019403
O27	O	0.767808	0.396775	-0.366628
O28	O	1.267808	0.896775	0.133372
O29	O	0.954409	0.314967	-0.484129
O30	O	1.454409	0.814967	0.015871
O31	O	0.939868	0.507216	-0.275796
O32	O	1.439868	1.007216	0.224204
O33	O	0.865534	0.510677	-0.362071
O34	O	1.365534	1.010677	0.137929
C35	C	0.901750	0.534445	-0.317917
C36	C	1.401750	1.034445	0.182083
C37	C	0.898850	0.612554	-0.314787
C38	C	1.398850	1.112554	0.185213
C39	C	0.745111	0.351899	-0.325206
C40	C	1.245111	0.851899	0.174794
C41	C	0.675141	0.351931	-0.325187
C42	C	1.175141	0.851931	0.174813
C43	C	0.878022	1.052043	-0.292361
C44	C	1.378022	1.552043	0.207639
C45	C	0.880749	0.978651	-0.295302
C46	C	1.380749	1.478651	0.204698
C47	C	0.923901	0.943683	-0.341767
C48	C	1.423901	1.443683	0.158233
C49	C	0.964324	0.982110	-0.385299
C50	C	1.464324	1.482110	0.114701
C51	C	0.961594	1.055501	-0.382361
C52	C	1.461594	1.555501	0.117639
C53	C	0.936544	0.724373	-0.355381
C54	C	1.436544	1.224373	0.144619
C55	C	0.939272	0.650976	-0.358314
C56	C	1.439272	1.150976	0.141686
C57	C	0.855695	0.647523	-0.268318
C58	C	1.355695	1.147523	0.231682
C59	C	0.852971	0.720915	-0.265381
C60	C	1.352971	1.220915	0.234619
C61	C	0.893393	0.759336	-0.308916
C62	C	1.393393	1.259336	0.191084
N63	N	0.926690	0.868664	-0.344773
N64	N	1.426690	1.368664	0.155227
N65	N	0.890600	0.834354	-0.305913
N66	N	1.390600	1.334354	0.194087
C67	C	0.642136	0.398727	-0.368242
C68	C	1.142136	0.898727	0.131758
C69	C	0.576395	0.398711	-0.368275
C70	C	1.076395	0.898711	0.131725
C71	C	0.543661	0.351905	-0.325238
C72	C	1.043661	0.851905	0.174762
C73	C	0.576674	0.305101	-0.282180
C74	C	1.076674	0.805101	0.217820
C75	C	0.642414	0.305113	-0.282154
C76	C	1.142414	0.805113	0.217846
N77	N	0.438479	0.343947	-0.263999
N78	N	0.938479	0.843947	0.236001
N79	N	0.376029	0.343939	-0.264025
N80	N	0.876029	0.843939	0.235975
C81	C	0.345591	0.351864	-0.325315
C82	C	0.845591	0.851864	0.174685
N83	N	0.379961	0.359810	-0.386577
N84	N	0.879961	0.859810	0.113423
N85	N	0.442417	0.359821	-0.386550
N86	N	0.942417	0.859821	0.113450
C87	C	0.472377	0.351886	-0.325262
C88	C	0.972377	0.851886	0.174738
C89	C	0.241302	0.398645	-0.368409
C90	C	0.741302	0.898645	0.131591
C91	C	0.175560	0.398624	-0.368443
C92	C	0.675560	0.898624	0.131557
C93	C	0.175840	0.305017	-0.282342
C94	C	0.675840	0.805017	0.217658
C95	C	0.241581	0.305035	-0.282314
C96	C	0.741581	0.805035	0.217686
C97	C	0.274308	0.351852	-0.325347
C98	C	0.774308	0.851852	0.174653
C99	C	1.072861	0.351832	-0.325371
C100	C	1.572861	0.851832	0.174629
C101	C	1.142831	0.351817	-0.325407
C102	C	1.642831	0.851817	0.174593
C103	C	0.915015	0.359180	-0.508573
C104	C	1.415015	0.859180	-0.008573
C105	C	0.917721	0.362297	-0.586677
C106	C	1.417721	0.862297	-0.086677
C107	C	0.915590	1.168573	-0.332710
C108	C	1.415590	1.668573	0.167290
C109	C	0.918444	1.090466	-0.335888
C110	C	1.418444	1.590466	0.164112
C111	C	0.880442	0.318830	-0.625169
C112	C	1.380442	0.818830	-0.125169
C113	C	0.882982	0.321764	-0.698556
C114	C	1.382982	0.821764	-0.198556
C115	C	0.922804	0.368164	-0.733451
C116	C	1.422804	0.868164	-0.233451
C117	C	0.960084	0.411636	-0.694955
C118	C	1.460084	0.911636	-0.194955
C119	C	0.957541	0.408704	-0.621569
C120	C	1.457541	0.908704	-0.121569
C121	C	0.934541	0.381753	-0.952740
C122	C	1.434541	0.881753	-0.452740
C123	C	0.937083	0.384680	-1.026132
C124	C	1.437083	0.884680	-0.526132
C125	C	0.859979	0.294809	-1.029728
C126	C	1.359979	0.794809	-0.529728
C127	C	0.857442	0.291879	-0.956340
C128	C	1.357442	0.791879	-0.456340
C129	C	0.894720	0.335353	-0.917850
C130	C	1.394720	0.835353	-0.417850
N131	N	0.925402	0.371163	-0.808465
N132	N	1.425402	0.871163	-0.308465
N133	N	0.892118	0.332357	-0.842837
N134	N	1.392118	0.832357	-0.342837
C135	C	0.902380	0.344528	-0.142719
C136	C	1.402380	0.844528	0.357281
C137	C	0.899804	0.341213	-0.064623
C138	C	1.399804	0.841213	0.435377
H139	H	0.842885	1.080509	-0.254522
H140	H	1.342885	1.580509	0.245478
H141	H	0.992505	0.449418	-0.723372
H142	H	1.492505	0.949418	-0.223372
H143	H	0.549518	0.436817	-0.403338
H144	H	1.049518	0.936817	0.096662
H145	H	0.268453	0.266932	-0.247250
H146	H	0.768453	0.766932	0.252750
H147	H	0.848018	0.281042	-0.596762
H148	H	1.348018	0.781042	-0.096762
Br149	Br	0.832351	0.262808	-0.750790
Br150	Br	1.332351	0.762808	-0.250790
Br151	Br	0.803399	0.228903	-0.908987
Br152	Br	1.303399	0.728903	-0.408987
H153	H	0.829629	0.259415	-1.061074
H154	H	1.329629	0.759415	-0.561074
H155	H	0.969514	0.422465	-1.054541
H156	H	1.469514	0.922465	-0.554541
Br157	Br	0.131423	0.241488	-0.223941
Br158	Br	0.631423	0.741488	0.276059
H159	H	0.987902	0.444095	-0.590230
H160	H	1.487902	0.944095	-0.090230
H161	H	0.974414	0.622509	-0.396154
H162	H	1.474414	1.122509	0.103846
H163	H	0.964888	0.417161	-0.921410
H164	H	1.464888	0.917161	-0.421410
Br165	Br	1.016452	1.107647	-0.441439
Br166	Br	1.516452	1.607647	0.058561
Br167	Br	0.825877	0.926510	-0.236239
Br168	Br	1.325877	1.426510	0.263761
Br169	Br	1.022881	0.934654	-0.448369
Br170	Br	1.522881	1.434654	0.051631
Br171	Br	0.794406	0.768368	-0.202319
Br172	Br	1.294406	1.268368	0.297681
Br173	Br	0.532251	0.241573	-0.223779
Br174	Br	1.032251	0.741573	0.276221
Br175	Br	0.800839	0.595377	-0.209241
Br176	Br	1.300839	1.095377	0.290759
Br177	Br	0.991394	0.776507	-0.414473
Br178	Br	1.491394	1.276507	0.085527
Br179	Br	0.686548	0.462263	-0.426645
Br180	Br	1.186548	0.962263	0.073355
H181	H	0.669286	0.267004	-0.247093
H182	H	1.169286	0.767004	0.252907
H183	H	0.267950	0.436763	-0.403452
H184	H	0.767950	0.936763	0.096548
H185	H	0.148689	0.436730	-0.403508
H186	H	0.648689	0.936730	0.096492
