data_functionalizedCrystal
_audit_creation_method	'MofGen! by Chris Wilmer'
_symmetry_space_group_name_H-M	'P1'
_symmetry_Int_Tables_number	1
_symmetry_cell_setting	triclinic
loop_
_symmetry_equiv_pos_as_xyz
  x,y,z
_cell_length_a	11.169417
_cell_length_b	14.908520
_cell_length_c	14.908308
_cell_angle_alpha	96.360765
_cell_angle_beta	93.281299
_cell_angle_gamma	93.321403
loop_
_atom_site_label
_atom_site_type_symbol
_atom_site_fract_x
_atom_site_fract_y
_atom_site_fract_z
Zn1	Zn	1.763991	-0.389851	-0.532495
Zn2	Zn	1.763855	-0.532497	-0.389865
Zn3	Zn	1.575581	-0.381156	-0.381160
Zn4	Zn	1.550958	-0.541172	-0.541183
O5	O	1.663596	-0.461169	-0.461176
O6	O	1.931922	-0.408782	-0.513582
O7	O	1.749128	-0.505151	-0.262050
O8	O	1.610935	-0.255645	-0.393956
O9	O	1.931822	-0.513582	-0.408792
O10	O	1.749360	-0.262033	-0.505141
O11	O	1.610803	-0.393962	-0.255654
O12	O	1.404366	-0.402374	-0.402381
O13	O	1.568970	-0.528369	-0.666691
O14	O	1.386276	-0.519938	-0.519949
O15	O	1.725485	-0.417194	-0.660308
O16	O	1.725252	-0.660312	-0.417217
O17	O	1.568838	-0.666686	-0.528389
C18	C	1.351774	-0.461155	-0.461163
C19	C	1.218371	-0.461172	-0.461181
C20	C	1.644389	-0.696343	-0.474710
C21	C	1.636280	-0.796953	-0.480530
C22	C	1.784066	-0.979318	-0.375797
C23	C	1.776451	-1.073850	-0.381263
C24	C	1.613441	-1.080552	-0.496932
C25	C	1.621056	-0.986019	-0.491466
C26	C	1.706370	-0.935406	-0.430895
C27	C	1.713979	-0.840872	-0.425426
C28	C	1.550975	-0.847575	-0.541099
C29	C	1.543360	-0.942107	-0.546565
C30	C	1.976637	-0.461184	-0.461189
C31	C	2.110036	-0.461191	-0.461194
C32	C	1.644496	-0.474719	-0.697260
C33	C	1.636356	-0.480493	-0.797865
C34	C	1.682909	-0.225078	-0.447609
C35	C	1.691140	-0.124470	-0.441827
C36	C	1.784038	-0.375556	-0.980266
C37	C	1.776394	-0.380979	-1.074793
C38	C	1.613420	-0.496755	-1.081448
C39	C	1.621064	-0.491333	-0.986921
C40	C	1.706377	-0.430732	-0.936333
C41	C	1.714026	-0.425315	-0.841804
C42	C	1.551047	-0.541087	-0.848460
C43	C	1.543403	-0.546509	-0.942988
C44	C	1.682697	-0.447606	-0.226006
C45	C	1.691090	-0.441577	-0.125387
H46	H	1.783443	-0.799662	-0.376104
H47	H	1.839631	-0.336046	-1.110560
H48	H	1.543962	-0.546093	-1.122652
H49	H	1.839721	-1.109599	-0.336397
C50	C	1.519615	-1.136233	-0.563562
H51	H	1.474436	-1.096544	-0.595603
H52	H	1.467193	-1.171177	-0.531044
H53	H	1.559342	-1.175321	-0.605161
H54	H	1.473903	-0.983330	-0.595881
C55	C	1.449571	-0.613167	-0.998638
H56	H	1.456145	-0.608499	-1.061228
H57	H	1.371265	-0.599038	-0.982384
H58	H	1.463433	-0.673097	-0.986644
H59	H	1.487707	-0.811812	-0.585961
H60	H	1.487812	-0.586017	-0.812680
C61	C	1.807856	-0.358652	-0.786159
H62	H	1.853003	-0.326561	-0.825866
H63	H	1.860307	-0.391154	-0.751272
H64	H	1.768135	-0.317098	-0.747019
C65	C	1.877900	-0.923640	-0.309172
H66	H	1.923086	-0.963332	-0.277140
H67	H	1.838193	-0.884541	-0.267576
H68	H	1.930331	-0.888707	-0.341702
H69	H	1.853509	-0.326218	-0.939077
