data_functionalizedCrystal
_audit_creation_method	'MofGen! by Chris Wilmer'
_symmetry_space_group_name_H-M	'P1'
_symmetry_Int_Tables_number	1
_symmetry_cell_setting	triclinic
loop_
_symmetry_equiv_pos_as_xyz
  x,y,z
_cell_length_a	19.188930
_cell_length_b	14.853567
_cell_length_c	13.930277
_cell_angle_alpha	90.004245
_cell_angle_beta	89.990320
_cell_angle_gamma	96.610144
loop_
_atom_site_label
_atom_site_type_symbol
_atom_site_fract_x
_atom_site_fract_y
_atom_site_fract_z
O1	O	0.091155	-1.195862	-0.079776
O2	O	0.102014	-0.933342	-0.079794
O3	O	-0.005046	-1.072177	-0.079766
O4	O	0.198215	-1.057026	-0.079804
O5	O	-0.005048	-1.072158	0.079896
O6	O	0.102012	-0.933322	0.079868
O7	O	0.091153	-1.195842	0.079886
Zn8	Zn	0.096582	-1.064579	0.105227
Zn9	Zn	0.096585	-1.064605	-0.105135
O10	O	0.198213	-1.057007	0.079858
C11	C	0.101521	-0.899746	0.000035
C12	C	0.100046	-0.799671	0.000029
C13	C	-0.031060	-1.071677	0.000068
C14	C	-0.108569	-1.070204	0.000076
N15	N	0.096579	-1.064569	0.248793
C16	C	-0.153221	-1.151668	0.000086
C17	C	-0.226050	-1.150285	0.000071
C18	C	-0.254223	-1.067432	0.000065
C19	C	-0.209561	-0.985957	0.000049
C20	C	-0.136734	-0.987343	0.000055
N21	N	-0.362440	-1.004095	0.054396
N22	N	-0.431623	-1.002783	0.054393
C23	C	-0.473645	-1.063251	0.000045
N24	N	-0.443873	-1.125093	-0.054287
N25	N	-0.374684	-1.126407	-0.054279
C26	C	-0.333190	-1.065920	0.000058
C27	C	-0.597267	-1.143220	0.000037
C28	C	-0.670096	-1.141833	0.000015
C29	C	-0.653606	-0.977503	0.000003
C30	C	-0.580778	-0.978893	0.000015
C31	C	-0.552613	-1.061754	0.000036
C32	C	0.224226	-1.057507	0.000022
C33	C	0.301736	-1.058980	0.000008
C34	C	0.091646	-1.229438	0.000055
C35	C	0.093120	-1.329513	0.000055
C36	C	0.030218	-0.387525	0.000064
C37	C	0.157407	-0.365537	0.000039
C38	C	0.158794	-0.459563	0.000036
C39	C	0.095891	-0.517574	0.000045
C40	C	0.031602	-0.481560	0.000058
C41	C	0.223081	-0.495585	0.000013
C42	C	0.224470	-0.589616	0.000009
C43	C	0.161567	-0.647629	0.000025
C44	C	0.097276	-0.611610	0.000039
C45	C	0.034373	-0.669621	0.000048
C46	C	-0.029919	-0.633603	0.000069
C47	C	-0.031301	-0.539574	0.000074
C48	C	0.162949	-0.741659	0.000020
C49	C	0.035757	-0.763656	0.000042
N50	N	0.096582	-1.064623	-0.248701
C51	C	0.143972	-1.003126	0.701050
C52	C	0.049192	-1.126108	0.701044
C53	C	0.049190	-1.126098	0.600548
C54	C	0.096580	-1.064601	0.550299
C55	C	0.143973	-1.003115	0.600545
C56	C	0.001803	-1.187588	0.550295
C57	C	0.001799	-1.187581	0.449793
C58	C	0.049187	-1.126079	0.399541
C59	C	0.096581	-1.064590	0.449794
C60	C	0.143971	-1.003094	0.399544
C61	C	0.191363	-0.941600	0.449794
C62	C	0.191361	-0.941614	0.550293
C63	C	0.049189	-1.126065	0.299043
C64	C	0.143972	-1.003083	0.299039
H65	H	-0.130295	-1.219140	0.000100
H66	H	-0.574334	-1.210691	0.000050
Cl67	Cl	-0.112118	-0.494288	0.000094
Cl68	Cl	0.250936	-0.864316	0.613467
H69	H	-0.676543	-0.910043	-0.000007
Cl70	Cl	0.203545	-0.925819	0.764216
Cl71	Cl	0.243766	-0.786936	-0.000013
H72	H	-0.544421	-0.912556	0.000012
Cl73	Cl	-0.043325	-0.836578	0.000061
Cl74	Cl	-0.282195	-1.252705	0.000083
H75	H	-0.100377	-0.921003	0.000047
Cl76	Cl	-0.010380	-1.203371	0.235877
H77	H	-0.232504	-0.918498	0.000042
H78	H	-0.081134	-0.680849	0.000070
Cl79	Cl	-0.050602	-0.342248	0.000095
Cl80	Cl	-0.726233	-1.244255	0.000022
H81	H	0.010611	-1.176181	0.741960
H82	H	-0.036790	-1.237651	0.408885
Cl83	Cl	0.203549	-0.925763	0.235876
H84	H	0.208620	-0.318299	0.000023
Cl85	Cl	0.305293	-0.634887	-0.000014
Cl86	Cl	0.302153	-0.422653	-0.000015
Cl87	Cl	-0.057767	-1.264901	0.613463
Cl88	Cl	0.250942	-0.864298	0.386613
