data_functionalizedCrystal
_audit_creation_method	'MofGen! by Chris Wilmer'
_symmetry_space_group_name_H-M	'P1'
_symmetry_Int_Tables_number	1
_symmetry_cell_setting	triclinic
loop_
_symmetry_equiv_pos_as_xyz
  x,y,z
_cell_length_a	17.699097
_cell_length_b	8.965430
_cell_length_c	17.699083
_cell_angle_alpha	90.000469
_cell_angle_beta	83.285722
_cell_angle_gamma	90.007394
loop_
_atom_site_label
_atom_site_type_symbol
_atom_site_fract_x
_atom_site_fract_y
_atom_site_fract_z
O1	O	1.004069	0.124166	0.095753
O2	O	1.504069	0.624166	0.595753
O3	O	0.783692	0.124142	0.108195
O4	O	1.283692	0.624142	0.608195
O5	O	0.900107	0.124142	-0.008215
O6	O	1.400107	0.624142	0.491785
O7	O	0.887655	0.124167	0.212163
O8	O	1.387655	0.624167	0.712163
O9	O	0.900097	-0.123937	-0.008207
O10	O	1.400097	0.376063	0.491793
O11	O	0.783683	-0.123937	0.108203
O12	O	1.283683	0.376063	0.608203
O13	O	1.004060	-0.123913	0.095761
O14	O	1.504060	0.376087	0.595761
Cu15	Cu	0.893870	-0.146576	0.101983
Cu16	Cu	1.393870	0.353424	0.601983
Cu17	Cu	0.893882	0.146806	0.101974
Cu18	Cu	1.393882	0.646806	0.601974
O19	O	0.887645	-0.123912	0.212171
O20	O	1.387645	0.376088	0.712171
C21	C	0.755491	0.000100	0.107752
C22	C	1.255491	0.500100	0.607752
C23	C	0.671473	0.000090	0.106409
C24	C	1.171473	0.500090	0.606409
N25	N	0.893868	-0.352925	0.101989
N26	N	1.393868	0.147075	0.601989
C27	C	0.155760	0.135377	0.098175
C28	C	0.655760	0.635377	0.598175
C29	C	0.234704	0.135370	0.099432
C30	C	0.734704	0.635370	0.599432
C31	C	0.274165	0.000136	0.100065
C32	C	0.774165	0.500136	0.600065
C33	C	0.234678	-0.135099	0.099435
C34	C	0.734678	0.364901	0.599435
C35	C	0.155736	-0.135090	0.098173
C36	C	0.655736	0.364910	0.598173
C37	C	0.553042	-0.135138	0.104522
C38	C	1.053042	0.364862	0.604522
C39	C	0.631990	-0.135136	0.105786
C40	C	1.131990	0.364864	0.605786
C41	C	0.632010	0.135322	0.105781
C42	C	1.132010	0.635322	0.605781
C43	C	0.553068	0.135331	0.104519
C44	C	1.053068	0.635331	0.604519
C45	C	0.513589	0.000097	0.103885
C46	C	1.013589	0.500097	0.603885
C47	C	0.427989	0.000107	0.102521
C48	C	0.927989	0.500107	0.602521
C49	C	0.359763	0.000125	0.101434
C50	C	0.859763	0.500125	0.601434
C51	C	0.840013	-0.450231	0.155807
C52	C	1.340013	0.049769	0.655807
C53	C	0.908380	-0.549635	0.170371
C54	C	1.408380	-0.049635	0.670371
C55	C	0.825530	-0.549649	0.087431
C56	C	1.325530	-0.049649	0.587431
C57	C	0.962268	-0.450141	0.116587
C58	C	1.462268	0.049859	0.616587
C59	C	0.879374	-0.450145	0.033617
C60	C	1.379374	0.049855	0.533617
C61	C	0.947790	-0.549505	0.048152
C62	C	1.447790	-0.049505	0.548152
C63	C	1.032261	0.000133	0.096205
C64	C	1.532261	0.500133	0.596205
C65	C	1.116279	0.000152	0.097547
C66	C	1.616279	0.500152	0.597547
C67	C	0.899656	0.000102	-0.036408
C68	C	1.399656	0.500102	0.463592
C69	C	0.898317	0.000101	-0.120426
C70	C	1.398317	0.500101	0.379574
N71	N	0.893890	0.353155	0.101962
N72	N	1.393890	0.853155	0.601962
C73	C	0.966650	0.000107	-0.169044
C74	C	1.466650	0.500107	0.330956
C75	C	0.965388	0.000120	-0.247987
C76	C	1.465388	0.500120	0.252013
C77	C	0.895792	0.000117	-0.278311
C78	C	1.395792	0.500117	0.221689
C79	C	0.827454	0.000116	-0.229687
C80	C	1.327454	0.500116	0.270313
C81	C	0.828717	0.000114	-0.150745
C82	C	1.328717	0.500114	0.349255
C83	C	0.822359	0.000128	-0.548050
C84	C	1.322359	0.500128	-0.048050
C85	C	0.821101	0.000125	-0.626998
C86	C	1.321101	0.500125	-0.126998
C87	C	0.959030	0.000134	-0.645292
C88	C	1.459030	0.500134	-0.145292
C89	C	0.960293	0.000131	-0.566350
C90	C	1.460293	0.500131	-0.066350
C91	C	0.891955	0.000138	-0.517733
C92	C	1.391955	0.500138	-0.017733
C93	C	0.893325	0.000127	-0.432134
C94	C	1.393325	0.500127	0.067866
C95	C	0.894422	0.000117	-0.363909
C96	C	1.394422	0.500117	0.136091
C97	C	0.888096	0.000131	0.240364
C98	C	1.388096	0.500131	0.740364
C99	C	0.889435	0.000141	0.324382
C100	C	1.389435	0.500141	0.824382
H101	H	0.123636	0.245501	0.097665
H102	H	0.623636	0.745501	0.597665
C103	C	0.862760	-0.391050	-0.044453
C104	C	1.362760	0.108950	0.455547
N105	N	0.850238	-0.346535	-0.103255
N106	N	1.350238	0.153465	0.396745
C107	C	0.778547	-0.391325	0.217347
C108	C	1.278547	0.108675	0.717347
N109	N	0.732256	-0.346953	0.263700
N110	N	1.232256	0.153047	0.763700
H111	H	0.773073	0.000110	-0.111161
H112	H	1.273073	0.500110	0.388839
H113	H	0.920655	-0.593335	0.228179
H114	H	1.420655	-0.093335	0.728179
C115	C	0.747442	-0.608691	0.070808
C116	C	1.247442	-0.108691	0.570808
N117	N	0.688625	-0.653156	0.058294
N118	N	1.188625	-0.153156	0.558294
H119	H	0.123591	-0.245204	0.097670
H120	H	0.623591	0.254796	0.597670
H121	H	1.023323	0.000100	-0.144360
H122	H	1.523323	0.500100	0.355640
H123	H	1.020082	-0.406615	0.128957
H124	H	1.520082	0.093385	0.628957
H125	H	0.664164	0.245437	0.106294
H126	H	1.164164	0.745437	0.606294
C127	C	1.040560	0.000101	-0.301464
C128	C	1.540560	0.500101	0.198536
N129	N	1.097183	0.000080	-0.341742
N130	N	1.597183	0.500080	0.158258
H131	H	0.993392	-0.592820	0.002625
H132	H	1.493392	-0.092820	0.502625
H133	H	0.664116	-0.245267	0.106302
H134	H	1.164116	0.254733	0.606302
C135	C	1.036854	0.000134	-0.532999
C136	C	1.536854	0.500134	-0.032999
N137	N	1.094521	0.000144	-0.507880
N138	N	1.594521	0.500144	-0.007880
H139	H	0.520943	0.245453	0.104007
H140	H	1.020943	0.745453	0.604007
H141	H	1.014674	0.000135	-0.684886
H142	H	1.514674	0.500135	-0.184886
C143	C	0.747185	0.000143	-0.494582
C144	C	1.247185	0.500143	0.005418
N145	N	0.690560	0.000160	-0.454306
N146	N	1.190560	0.500160	0.045694
C147	C	0.509623	-0.283900	0.103847
C148	C	1.009623	0.216100	0.603847
N149	N	0.476915	-0.395955	0.103347
N150	N	0.976915	0.104045	0.603347
H151	H	0.764424	0.000120	-0.651685
H152	H	1.264424	0.500120	-0.151685
C153	C	0.750897	0.000100	-0.263046
C154	C	1.250897	0.500100	0.236954
N155	N	0.693233	0.000077	-0.288172
N156	N	1.193233	0.500077	0.211828
H157	H	0.266847	0.245484	0.099939
H158	H	0.766847	0.745484	0.599939
H159	H	0.266814	-0.245209	0.099946
H160	H	0.766814	0.254791	0.599946
