data_functionalizedCrystal
_audit_creation_method	'MofGen! by Chris Wilmer'
_symmetry_space_group_name_H-M	'P1'
_symmetry_Int_Tables_number	1
_symmetry_cell_setting	triclinic
loop_
_symmetry_equiv_pos_as_xyz
  x,y,z
_cell_length_a	6.817900
_cell_length_b	17.329528
_cell_length_c	17.110486
_cell_angle_alpha	92.675316
_cell_angle_beta	99.060439
_cell_angle_gamma	103.027692
loop_
_atom_site_label
_atom_site_type_symbol
_atom_site_fract_x
_atom_site_fract_y
_atom_site_fract_z
V1	V	-3.971147	-0.108505	-0.239566
O2	O	-3.965663	0.005455	-0.242383
O3	O	-3.917327	-0.215379	-0.230832
O4	O	-3.901098	-0.106731	-0.347286
O5	O	-3.982004	-0.103946	-0.125123
V6	V	-4.458282	-0.094887	-0.226740
O7	O	-4.224481	-0.138378	-0.267702
O8	O	-4.655145	-0.065014	-0.198604
O9	O	-4.288895	0.011987	-0.235474
O10	O	-4.581163	-0.208847	-0.223922
O11	O	-4.564822	-0.099446	-0.341183
O12	O	-4.305123	-0.096662	-0.119019
C13	C	-3.761710	-0.241436	-0.225222
C14	C	-3.798849	-0.328806	-0.218799
C15	C	-4.007496	-0.822382	-0.178804
C16	C	-3.972614	-0.740291	-0.184852
C17	C	-3.980205	-0.710410	-0.259607
C18	C	-4.022660	-0.762625	-0.328317
C19	C	-4.057526	-0.844714	-0.322268
C20	C	-3.876170	-0.463111	-0.281460
C21	C	-3.841306	-0.381015	-0.287504
C22	C	-3.791259	-0.358687	-0.144039
C23	C	-3.826140	-0.440779	-0.137996
C24	C	-3.868581	-0.492986	-0.206706
C25	C	-3.944557	-0.626500	-0.265791
C26	C	-3.904213	-0.576894	-0.200521
C27	C	-3.741008	-0.102843	-0.373770
C28	C	-3.764984	-0.102099	-0.461785
C29	C	-3.957335	-0.105672	-0.506907
C30	C	-3.979851	-0.104973	-0.589607
C31	C	-3.810015	-0.100706	-0.627183
C32	C	-3.617647	-0.097130	-0.582054
C33	C	-3.595131	-0.097824	-0.499356
C34	C	-3.868936	-0.098410	-0.876689
C35	C	-3.891468	-0.097719	-0.959394
C36	C	-4.253671	-0.105560	-0.966940
C37	C	-4.231140	-0.106258	-0.884240
C38	C	-4.038773	-0.102678	-0.839119
C39	C	-3.833026	-0.099993	-0.711715
C40	C	-4.015762	-0.103385	-0.754588
C41	C	-4.107854	0.038040	-0.241081
C42	C	-4.049952	0.125409	-0.247509
C43	C	-4.128557	-0.100552	-0.092532
C44	C	-4.083820	-0.101292	-0.004516
H45	H	-3.819960	-0.465101	-0.077123
H46	H	-4.001320	-0.846704	-0.117931
C47	C	-4.417957	-0.110940	-0.842911
H48	H	-4.535739	-0.112959	-0.881629
H49	H	-4.438522	-0.157408	-0.814996
H50	H	-4.394871	-0.065327	-0.806619
H51	H	-3.712315	-0.095523	-0.839963
C52	C	-3.430909	-0.092615	-0.623398
H53	H	-3.313148	-0.090633	-0.584682
H54	H	-3.454269	-0.138280	-0.659638
H55	H	-3.410106	-0.046186	-0.651374
H56	H	-3.950738	-0.602161	-0.326657
H57	H	-3.753155	-0.094241	-0.989985
H58	H	-3.756697	-0.316171	-0.088099
H59	H	-4.410290	-0.108473	-1.003687
H60	H	-3.898023	-0.601227	-0.139656
H61	H	-4.136479	-0.107878	-0.626341
H62	H	-3.910732	-0.505609	-0.337409
H63	H	-3.847532	-0.356691	-0.348382
C64	C	-4.202577	-0.108080	-0.713260
H65	H	-4.320370	-0.110107	-0.751975
H66	H	-4.223113	-0.154550	-0.685347
H67	H	-4.179508	-0.062470	-0.676966
C68	C	-3.925900	-0.682864	-0.109276
H69	H	-3.926392	-0.712418	-0.063890
H70	H	-3.795393	-0.647818	-0.106300
H71	H	-4.027122	-0.652936	-0.111006
H72	H	-3.438490	-0.094895	-0.462616
C73	C	-3.646331	-0.095546	-0.753070
H74	H	-3.528571	-0.093588	-0.714362
H75	H	-3.669811	-0.141230	-0.789294
H76	H	-3.625445	-0.049132	-0.781066
H77	H	-4.028825	-0.738289	-0.389184
H78	H	-4.092091	-0.887222	-0.378215
H79	H	-4.095641	-0.109152	-0.476320
