data_functionalizedCrystal
_audit_creation_method	'MofGen! by Chris Wilmer'
_symmetry_space_group_name_H-M	'P1'
_symmetry_Int_Tables_number	1
_symmetry_cell_setting	triclinic
loop_
_symmetry_equiv_pos_as_xyz
  x,y,z
_cell_length_a	25.639242
_cell_length_b	12.759400
_cell_length_c	12.759393
_cell_angle_alpha	90.029816
_cell_angle_beta	90.032165
_cell_angle_gamma	90.008688
loop_
_atom_site_label
_atom_site_type_symbol
_atom_site_fract_x
_atom_site_fract_y
_atom_site_fract_z
Zn1	Zn	-0.799361	0.418359	-0.594357
Zn2	Zn	-0.799308	0.594076	-0.418681
Zn3	Zn	-0.711923	0.418396	-0.418656
Zn4	Zn	-0.711920	0.593980	-0.594282
O5	O	-0.755628	0.506203	-0.506494
O6	O	-0.872519	0.441693	-0.571095
O7	O	-0.787696	0.570828	-0.271656
O8	O	-0.723546	0.271370	-0.441984
O9	O	-0.872480	0.570792	-0.442026
O10	O	-0.787785	0.271343	-0.571071
O11	O	-0.723495	0.441756	-0.271638
O12	O	-0.638758	0.441663	-0.441912
O13	O	-0.723539	0.570628	-0.741313
O14	O	-0.638755	0.570664	-0.570943
O15	O	-0.787782	0.441600	-0.741368
O16	O	-0.787692	0.741085	-0.441954
O17	O	-0.723488	0.741014	-0.570967
C18	C	-0.619785	0.506157	-0.506417
C19	C	-0.561671	0.506163	-0.506410
C20	C	-0.755598	0.779170	-0.506478
C21	C	-0.755634	0.895947	-0.506506
C22	C	-0.310470	0.438916	-0.439397
C23	C	-0.365075	0.438907	-0.439387
O24	O	-0.393305	0.381671	-0.382365
N25	N	-0.392397	0.506175	-0.506452
C26	C	-0.365113	0.573449	-0.573540
O27	O	-0.393367	0.630664	-0.630584
C28	C	-0.310510	0.573452	-0.573555
C29	C	-0.283190	0.506187	-0.506477
C30	C	-0.283151	0.371656	-0.372325
C31	C	-0.228550	0.371667	-0.372334
C32	C	-0.201269	0.438938	-0.439415
C33	C	-0.228589	0.506198	-0.506486
C34	C	-0.283226	0.640720	-0.640647
C35	C	-0.228619	0.640717	-0.640656
C36	C	-0.201299	0.573452	-0.573579
C37	C	-0.146708	0.573480	-0.573575
N38	N	-0.119385	0.506212	-0.506510
C39	C	-0.146666	0.438941	-0.439429
C40	C	-0.479783	0.573436	-0.573506
C41	C	-0.534386	0.573439	-0.573486
C42	C	-0.534344	0.438895	-0.439334
C43	C	-0.479741	0.438898	-0.439349
C44	C	-0.452461	0.506168	-0.506440
C45	C	-0.032001	0.438970	-0.439453
C46	C	0.022604	0.438990	-0.439464
C47	C	0.022558	0.573529	-0.573620
C48	C	-0.032043	0.573513	-0.573605
C49	C	-0.059321	0.506225	-0.506518
O50	O	-0.118443	0.630684	-0.630571
O51	O	-0.118405	0.381726	-0.382404
C52	C	-0.755666	0.506099	-0.780527
C53	C	-0.755682	0.506055	-0.897304
C54	C	0.107999	0.506247	-0.506556
C55	C	0.049885	0.506261	-0.506545
C56	C	-0.755672	0.232170	-0.506533
C57	C	-0.755690	0.115393	-0.506550
C58	C	-0.789095	1.060442	-0.573802
C59	C	-0.789068	0.950718	-0.573778
C60	C	-0.722228	0.950906	-0.439247
C61	C	-0.722258	1.060628	-0.439266
C62	C	-0.789146	0.438820	-1.061928
C63	C	-0.789136	0.438861	-0.952203
C64	C	-0.722239	0.573221	-0.952135
C65	C	-0.722252	0.573185	-1.061857
C66	C	-0.755620	0.506230	-0.233527
C67	C	-0.755705	0.505978	-0.116750
H68	H	0.044846	0.384213	-0.384839
H69	H	-0.816315	1.105029	-0.628593
H70	H	-0.305357	0.316870	-0.317701
H71	H	-0.695020	0.627879	-1.106495
H72	H	-0.816386	0.384096	-1.106619
C73	C	-0.825809	0.890276	-0.647762
H74	H	-0.845720	0.938610	-0.687839
H75	H	-0.848591	0.847469	-0.607621
H76	H	-0.805779	0.847471	-0.693488
H77	H	-0.695003	0.627937	-0.907427
H78	H	-0.206411	0.695494	-0.695295
H79	H	-0.695007	0.906305	-0.384468
H80	H	-0.305460	0.695495	-0.695268
H81	H	-0.695056	1.105370	-0.384496
H82	H	-0.816368	0.384175	-0.907572
H83	H	-0.556566	0.384117	-0.384716
C84	C	-0.198505	0.297663	-0.298561
H85	H	-0.222579	0.257594	-0.258623
H86	H	-0.177185	0.337786	-0.252713
H87	H	-0.177223	0.251929	-0.338842
C88	C	-0.061999	0.364957	-0.365656
H89	H	-0.037902	0.324912	-0.325712
H90	H	-0.083315	0.319218	-0.405911
H91	H	-0.083282	0.405093	-0.319799
C92	C	-0.449694	0.364899	-0.365573
H93	H	-0.473766	0.324833	-0.325629
H94	H	-0.428372	0.405027	-0.319732
H95	H	-0.428413	0.319162	-0.405854
C96	C	-0.564432	0.647437	-0.647265
H97	H	-0.540359	0.687494	-0.687218
H98	H	-0.585719	0.693166	-0.607000
H99	H	-0.585747	0.607293	-0.693114
H100	H	-0.054288	0.628294	-0.628217
H101	H	0.044780	0.628303	-0.628232
C102	C	-0.449780	0.647434	-0.647314
H103	H	-0.473877	0.687492	-0.687247
H104	H	-0.428501	0.607295	-0.693165
H105	H	-0.428461	0.693178	-0.607061
