data_functionalizedCrystal
_audit_creation_method	'MofGen! by Chris Wilmer'
_symmetry_space_group_name_H-M	'P1'
_symmetry_Int_Tables_number	1
_symmetry_cell_setting	triclinic
loop_
_symmetry_equiv_pos_as_xyz
  x,y,z
_cell_length_a	16.120484
_cell_length_b	19.077105
_cell_length_c	19.076919
_cell_angle_alpha	90.076224
_cell_angle_beta	84.953390
_cell_angle_gamma	89.261477
loop_
_atom_site_label
_atom_site_type_symbol
_atom_site_fract_x
_atom_site_fract_y
_atom_site_fract_z
Zn1	Zn	-0.403262	-1.040337	0.456942
Zn2	Zn	-0.537287	-1.039017	0.344927
Zn3	Zn	-0.392095	-0.928051	0.334278
Zn4	Zn	-0.536784	-0.916861	0.457659
O5	O	-0.467357	-0.981066	0.398451
O6	O	-0.425924	-1.138276	0.446240
O7	O	-0.513564	-1.028428	0.245000
O8	O	-0.276934	-0.948182	0.345793
O9	O	-0.524392	-1.137306	0.363943
O10	O	-0.285138	-1.030678	0.435913
O11	O	-0.406892	-0.946902	0.237176
O12	O	-0.406405	-0.828452	0.346488
O13	O	-0.523535	-0.929109	0.556078
O14	O	-0.512707	-0.820230	0.437136
O15	O	-0.425436	-1.019827	0.555551
O16	O	-0.653863	-1.017576	0.364638
O17	O	-0.653494	-0.927829	0.447462
C18	C	-0.683924	-0.971363	0.407299
C19	C	-0.776577	-0.967276	0.411111
C20	C	-0.458290	-0.798901	0.390734
C21	C	-0.454433	-0.720969	0.387451
C22	C	-0.475675	-0.973367	0.582072
C23	C	-0.479220	-0.970086	0.660321
C24	C	-0.946215	-0.959816	0.418084
C25	C	-0.987665	-1.002442	0.378836
C26	C	-1.082058	-0.998291	0.382716
C27	C	-0.851814	-0.963966	0.414205
C28	C	-0.249946	-0.990826	0.389585
C29	C	-0.157298	-0.994984	0.385807
C30	C	-0.476459	-1.163943	0.406199
C31	C	-0.480338	-1.241874	0.409501
C32	C	-0.508043	-0.680093	0.433036
C33	C	-0.504408	-0.606867	0.429953
C34	C	-0.447165	-0.574519	0.381281
C35	C	-0.393548	-0.615400	0.335694
C36	C	-0.397180	-0.688624	0.338781
C37	C	-0.430354	-0.355979	0.367000
C38	C	-0.426728	-0.282749	0.363916
C39	C	-0.537586	-0.274222	0.458176
C40	C	-0.541217	-0.347448	0.461255
C41	C	-0.487598	-0.388323	0.415670
N42	N	-0.443449	-0.499670	0.378128
N43	N	-0.491310	-0.463169	0.418828
C44	C	-0.459013	-0.988779	0.215544
C45	C	-0.455240	-0.992206	0.137292
C46	C	-0.429813	-1.015774	0.696809
C47	C	-0.433140	-1.012683	0.770331
C48	C	-0.485879	-0.963906	0.807364
C49	C	-0.535288	-0.918214	0.770871
C50	C	-0.531956	-0.921302	0.697350
C51	C	-0.501317	-0.949602	1.027278
C52	C	-0.504647	-0.946518	1.100804
C53	C	-0.402498	-1.040987	1.100259
C54	C	-0.399174	-1.044074	1.026737
C55	C	-0.448580	-0.998378	0.990250
N56	N	-0.489283	-0.960747	0.882516
N57	N	-0.445171	-1.001535	0.915099
H58	H	-0.952260	-1.042052	0.342319
F59	F	-0.992488	-0.908044	0.465809
F60	F	-0.568974	-0.714514	0.484836
F61	F	-0.561467	-0.563367	0.478472
H62	H	-0.356231	-1.083794	0.996590
H63	H	-0.386870	-1.055495	0.666662
H64	H	-0.587832	-0.373781	0.500887
H65	H	-0.547595	-0.906796	1.130954
H66	H	-0.581239	-0.240934	0.495289
H67	H	-0.380104	-0.256414	0.324285
H68	H	-0.578226	-0.878496	0.801029
F69	F	-0.373285	-0.399472	0.318486
F70	F	-0.332621	-0.580970	0.283898
F71	F	-0.340119	-0.732127	0.290264
H72	H	-0.392910	-1.049888	0.800037
F73	F	-0.349919	-1.089614	1.139097
F74	F	-0.553899	-0.900968	0.988455
F75	F	-0.584539	-0.872673	0.658517
