data_functionalizedCrystal
_audit_creation_method	'MofGen! by Chris Wilmer'
_symmetry_space_group_name_H-M	'P1'
_symmetry_Int_Tables_number	1
_symmetry_cell_setting	triclinic
loop_
_symmetry_equiv_pos_as_xyz
  x,y,z
_cell_length_a	16.109301
_cell_length_b	17.766277
_cell_length_c	19.288865
_cell_angle_alpha	89.988397
_cell_angle_beta	83.298864
_cell_angle_gamma	89.993359
loop_
_atom_site_label
_atom_site_type_symbol
_atom_site_fract_x
_atom_site_fract_y
_atom_site_fract_z
O1	O	1.102832	-0.062555	0.089282
O2	O	1.602832	0.437445	0.589282
O3	O	0.860732	-0.062569	0.100392
O4	O	1.360732	0.437431	0.600392
O5	O	0.988778	-0.062547	-0.006277
O6	O	1.488778	0.437453	0.493723
O7	O	0.974787	-0.062577	0.195951
O8	O	1.474787	0.437423	0.695951
O9	O	0.988755	0.062642	-0.006282
O10	O	1.488755	0.562642	0.493718
O11	O	0.860710	0.062620	0.100387
O12	O	1.360710	0.562620	0.600387
O13	O	1.102810	0.062633	0.089276
O14	O	1.602810	0.562633	0.589276
Cu15	Cu	0.981758	0.074057	0.094831
Cu16	Cu	1.481758	0.574057	0.594831
Cu17	Cu	0.981784	-0.073993	0.094838
Cu18	Cu	1.481784	0.426007	0.594838
O19	O	0.974764	0.062611	0.195945
O20	O	1.474764	0.562611	0.695945
C21	C	0.829748	0.000024	0.099940
C22	C	1.329748	0.500024	0.599940
C23	C	0.737457	0.000020	0.098590
C24	C	1.237457	0.500020	0.598590
N25	N	0.981745	0.178188	0.094826
N26	N	1.481745	0.678188	0.594826
N27	N	0.981803	-0.178123	0.094837
N28	N	1.481803	0.321877	0.594837
C29	C	0.514979	0.000020	0.158748
C30	C	1.014979	0.500020	0.658748
C31	C	0.428263	0.000025	0.157475
C32	C	0.928263	0.500025	0.657475
C33	C	0.448570	0.000041	0.030916
C34	C	0.948570	0.500041	0.530916
C35	C	0.535284	0.000041	0.032190
C36	C	1.035284	0.500041	0.532190
C37	C	0.568486	0.000027	0.096108
C38	C	1.068486	0.500027	0.596108
C39	C	0.395056	0.000031	0.093561
C40	C	0.895056	0.500031	0.593561
C41	C	0.301034	0.000037	0.092180
C42	C	0.801034	0.500037	0.592180
C43	C	0.662513	0.000023	0.097489
C44	C	1.162513	0.500023	0.597489
C45	C	1.133794	0.000039	0.089729
C46	C	1.633794	0.500039	0.589729
C47	C	1.226085	0.000038	0.091078
C48	C	1.726085	0.500038	0.591078
C49	C	0.988316	0.000050	-0.032157
C50	C	1.488316	0.500050	0.467843
C51	C	0.986965	0.000056	-0.109264
C52	C	1.486965	0.500056	0.390736
C53	C	1.038462	0.217584	0.047616
C54	C	1.538462	0.717584	0.547616
C55	C	1.038467	0.296386	0.047613
C56	C	1.538467	0.796386	0.547613
C57	C	0.981763	0.335788	0.094832
C58	C	1.481763	0.835788	0.594832
C59	C	0.925035	0.296382	0.142045
C60	C	1.425035	0.796382	0.642045
C61	C	0.925026	0.217582	0.142042
C62	C	1.425026	0.717582	0.642042
C63	C	0.970632	0.460616	0.158093
C64	C	1.470632	0.960616	0.658093
C65	C	0.970647	0.539415	0.158096
C66	C	1.470647	1.039415	0.658096
C67	C	0.981785	0.578834	0.094840
C68	C	1.481785	1.078834	0.594840
C69	C	0.992926	0.539445	0.031577
C70	C	1.492926	1.039445	0.531577
C71	C	0.992917	0.460645	0.031575
C72	C	1.492917	0.960645	0.531575
C73	C	0.981765	0.421234	0.094840
C74	C	1.481765	0.921234	0.594840
C75	C	1.038510	0.703677	0.047623
C76	C	1.538510	1.203677	0.547623
C77	C	1.038509	0.782480	0.047619
C78	C	1.538509	1.282480	0.547619
C79	C	0.925081	0.782475	0.142057
C80	C	1.425081	1.282475	0.642057
C81	C	0.925078	0.703673	0.142055
C82	C	1.425078	1.203673	0.642055
C83	C	0.981797	0.664279	0.094839
C84	C	1.481797	1.164279	0.594839
C85	C	1.062096	0.000064	-0.153781
C86	C	1.562096	0.500064	0.346219
C87	C	1.060827	0.000052	-0.226231
C88	C	1.560827	0.500052	0.273769
C89	C	0.984421	0.000047	-0.254161
C90	C	1.484421	0.500047	0.245839
C91	C	0.909280	0.000036	-0.209634
C92	C	1.409280	0.500036	0.290366
C93	C	0.910552	0.000040	-0.137185
C94	C	1.410552	0.500040	0.362815
C95	C	0.924350	0.043895	-0.362593
C96	C	1.424350	0.543895	0.137407
C97	C	0.923082	0.043895	-0.435041
C98	C	1.423082	0.543895	0.064959
C99	C	0.980496	0.000030	-0.477616
C100	C	1.480496	0.500030	0.022384
C101	C	1.039193	-0.043825	-0.447735
C102	C	1.539193	0.456175	0.052265
C103	C	1.040465	-0.043821	-0.375287
C104	C	1.540465	0.456179	0.124713
C105	C	0.983034	0.000042	-0.332718
C106	C	1.483034	0.500042	0.167282
C107	C	1.054256	0.000024	-0.600692
C108	C	1.554256	0.500024	-0.100692
C109	C	1.052983	0.000007	-0.673143
C110	C	1.552983	0.500007	-0.173143
C111	C	0.901434	-0.000002	-0.656544
C112	C	1.401434	0.499998	-0.156544
C113	C	0.902709	0.000008	-0.584095
C114	C	1.402709	0.500008	-0.084095
C115	C	0.979122	0.000024	-0.556173
C116	C	1.479122	0.500024	-0.056173
C117	C	0.975226	0.000013	0.221825
C118	C	1.475226	0.500013	0.721825
C119	C	0.976577	0.000002	0.298932
C120	C	1.476577	0.500002	0.798932
H121	H	0.384700	0.000020	0.208483
H122	H	0.884700	0.500020	0.708483
H123	H	0.961580	0.571480	0.209609
H124	H	1.461580	1.071480	0.709609
H125	H	0.421526	0.000057	-0.021124
H126	H	0.921526	0.500057	0.478876
O127	O	0.550785	0.000017	0.227689
O128	O	1.050785	0.500017	0.727689
H129	H	0.589806	-0.051011	0.231310
H130	H	1.089806	0.448989	0.731310
H131	H	1.001995	0.571539	-0.019932
H132	H	1.501995	1.071539	0.480068
H133	H	0.578853	0.000049	-0.018823
H134	H	1.078853	0.500049	0.481177
H135	H	0.839224	-0.000009	-0.679284
H136	H	1.339224	0.499991	-0.179284
H137	H	1.084691	0.671601	0.009174
H138	H	1.584691	1.171601	0.509174
H139	H	1.084644	0.185512	0.009169
H140	H	1.584644	0.685512	0.509169
O141	O	1.141867	0.000071	-0.274254
O142	O	1.641867	0.500071	0.225746
H143	H	1.128143	0.000064	-0.329323
H144	H	1.628143	0.500064	0.170677
H145	H	1.084692	0.814558	0.009171
H146	H	1.584692	1.314558	0.509171
H147	H	1.088256	-0.079530	-0.350962
H148	H	1.588256	0.420470	0.149038
H149	H	0.878909	0.814555	0.180500
H150	H	1.378909	1.314555	0.680500
O151	O	0.863887	0.338882	0.192979
O152	O	1.363887	0.838882	0.692979
H153	H	0.874276	0.323732	0.247126
H154	H	1.374276	0.823732	0.747126
O155	O	1.099650	0.338893	-0.003300
O156	O	1.599650	0.838893	0.496700
H157	H	1.139092	0.298261	-0.036128
H158	H	1.639092	0.798261	0.463872
H159	H	1.001986	0.428578	-0.019936
H160	H	1.501986	0.928578	0.480064
O161	O	1.144513	0.000076	-0.123669
O162	O	1.644513	0.500076	0.376331
H163	H	1.132778	0.000084	-0.065811
H164	H	1.632778	0.500084	0.434189
H165	H	0.878898	0.671594	0.180500
H166	H	1.378898	1.171594	0.680500
O167	O	0.821671	0.000018	-0.536077
O168	O	1.321671	0.500018	-0.036077
H169	H	0.785094	-0.051004	-0.545994
H170	H	1.285094	0.448996	-0.045994
O171	O	0.958625	0.418101	0.226323
O172	O	1.458625	0.918101	0.726323
H173	H	0.950895	0.458726	0.270312
H174	H	1.450895	0.958726	0.770312
H175	H	0.878840	0.185504	0.180487
H176	H	1.378840	0.685504	0.680487
O177	O	1.101121	-0.091147	-0.493642
O178	O	1.601121	0.408853	0.006358
H179	H	1.090371	-0.083794	-0.549039
H180	H	1.590371	0.416206	-0.049039
H181	H	1.116476	0.000034	-0.577957
H182	H	1.616476	0.500034	-0.077957
O183	O	0.859779	0.091195	-0.467269
O184	O	1.359779	0.591195	0.032731
H185	H	0.820059	0.121687	-0.425493
H186	H	1.320059	0.621687	0.074507
O187	O	1.134021	0.000022	-0.721164
O188	O	1.634021	0.500022	-0.221164
H189	H	1.187365	0.000044	-0.689573
H190	H	1.687365	0.500044	-0.189573
H191	H	0.877594	0.079619	-0.327934
H192	H	1.377594	0.579619	0.172066
H193	H	0.847071	0.000030	-0.232379
H194	H	1.347071	0.500030	0.267621
O195	O	0.829515	0.000045	-0.089163
O196	O	1.329515	0.500045	0.410837
H197	H	0.776170	0.000045	-0.120753
H198	H	1.276170	0.500045	0.379247
