data_functionalizedCrystal
_audit_creation_method	'MofGen! by Chris Wilmer'
_symmetry_space_group_name_H-M	'P1'
_symmetry_Int_Tables_number	1
_symmetry_cell_setting	triclinic
loop_
_symmetry_equiv_pos_as_xyz
  x,y,z
_cell_length_a	17.699083
_cell_length_b	14.421503
_cell_length_c	15.944499
_cell_angle_alpha	89.992463
_cell_angle_beta	83.380312
_cell_angle_gamma	90.001584
loop_
_atom_site_label
_atom_site_type_symbol
_atom_site_fract_x
_atom_site_fract_y
_atom_site_fract_z
O1	O	1.004244	0.076975	0.106211
O2	O	0.783887	0.077005	0.120031
O3	O	0.900103	0.076991	-0.009170
O4	O	0.888028	0.076989	0.235411
O5	O	0.900084	-0.077233	-0.009150
O6	O	0.783868	-0.077219	0.120050
O7	O	1.004225	-0.077248	0.106230
Cu8	Cu	0.894044	-0.091315	0.113142
Cu9	Cu	0.894067	0.091072	0.113119
O10	O	0.888008	-0.077234	0.235431
C11	C	0.755680	-0.000103	0.119545
C12	C	0.671659	-0.000092	0.118060
N13	N	0.894034	-0.219597	0.113157
C14	C	0.623155	-0.000092	0.193898
C15	C	0.544210	-0.000104	0.192497
C16	C	0.513770	-0.000109	0.115257
C17	C	0.562280	-0.000111	0.039413
C18	C	0.641224	-0.000106	0.040815
C19	C	0.243908	-0.000134	0.033758
C20	C	0.164958	-0.000137	0.032362
C21	C	0.146894	-0.000133	0.185440
C22	C	0.225838	-0.000127	0.186842
C23	C	0.274341	-0.000134	0.110999
C24	C	0.359943	-0.000123	0.112519
C25	C	0.428170	-0.000114	0.113736
C26	C	0.840286	-0.469244	0.172873
C27	C	0.908674	-0.531056	0.189037
C28	C	0.894052	-0.408758	0.113137
C29	C	0.825682	-0.531040	0.096993
C30	C	0.894064	-0.591480	0.113120
C31	C	0.962475	-0.469210	0.129339
C32	C	0.879438	-0.469188	0.037262
C33	C	0.947875	-0.530972	0.053394
C34	C	0.894045	-0.303497	0.113150
C35	C	0.894080	-0.696738	0.113107
C36	C	1.032432	-0.000139	0.106716
C37	C	1.116453	-0.000144	0.108201
C38	C	0.899599	-0.000119	-0.040454
C39	C	0.898117	-0.000112	-0.133699
N40	N	0.894084	0.219353	0.113097
C41	C	0.965636	-0.000126	-0.425377
C42	C	0.930528	-0.076165	-0.364268
C43	C	0.892732	-0.000122	-0.469324
C44	C	0.930528	0.075888	-0.364293
C45	C	0.895382	-0.000115	-0.304421
C46	C	0.857604	-0.076223	-0.409444
C47	C	0.857614	0.075897	-0.409475
C48	C	0.822454	-0.000160	-0.348384
C49	C	0.891208	-0.000126	-0.564321
C50	C	0.896901	-0.000117	-0.209425
C51	C	0.888512	-0.000123	0.266715
C52	C	0.889995	-0.000124	0.359960
H53	H	0.647932	-0.000088	0.256795
H54	H	0.250617	-0.000119	0.249738
H55	H	0.921046	-0.558231	0.253195
O56	O	0.497201	-0.000063	0.266244
C57	C	0.487614	-0.000110	0.418229
C58	C	0.540937	-0.000133	0.334770
H59	H	0.522953	-0.000187	0.473655
H60	H	0.450213	0.064442	0.421449
H61	H	0.450191	-0.064643	0.421365
H62	H	0.578408	0.064356	0.331579
H63	H	0.578286	-0.064728	0.331585
O64	O	0.864563	-0.436622	-0.039181
C65	C	0.781555	-0.344727	-0.115479
C66	C	0.798333	-0.381529	-0.028854
H67	H	0.727999	-0.300192	-0.107161
H68	H	0.831594	-0.301165	-0.144599
H69	H	0.772624	-0.405643	-0.158821
H70	H	0.807248	-0.320669	0.014552
H71	H	0.748286	-0.425118	0.000197
O72	O	1.031404	-0.436797	0.145796
C73	C	1.108725	-0.302450	0.164281
C74	C	1.030636	-0.339033	0.145616
H75	H	1.108135	-0.223404	0.164124
H76	H	1.121259	-0.328441	0.228776
H77	H	1.154614	-0.328434	0.113698
H78	H	0.984697	-0.313065	0.196146
H79	H	1.018168	-0.313050	0.081096
H80	H	0.761898	-0.000196	-0.315074
O81	O	1.002278	-0.563069	-0.006796
C82	C	1.135788	-0.567764	-0.057791
C83	C	1.074255	-0.531367	0.010433
H84	H	1.193994	-0.542131	-0.043895
H85	H	1.135132	-0.646811	-0.057730
H86	H	1.123780	-0.541240	-0.122297
H87	H	1.086221	-0.557823	0.074973
H88	H	1.074926	-0.452321	0.010297
O89	O	0.967340	0.152506	-0.340284
C90	C	1.009329	0.238804	-0.224820
C91	C	0.967631	0.151992	-0.251892
H92	H	1.009564	0.238427	-0.153352
H93	H	1.070384	0.238696	-0.256718
H94	H	0.978859	0.303598	-0.244351
H95	H	0.998037	0.087152	-0.232366
H96	H	0.906574	0.152181	-0.220001
O97	O	0.756764	-0.563550	0.080599
C98	C	0.687647	-0.653971	-0.012250
C99	C	0.765747	-0.617237	0.006217
H100	H	0.694882	-0.697368	-0.072397
H101	H	0.661979	-0.698651	0.042791
H102	H	0.648249	-0.593022	-0.020844
H103	H	0.805203	-0.678129	0.014794
H104	H	0.791354	-0.572529	-0.048832
O105	O	1.037825	-0.000382	-0.465262
C106	C	1.157789	-0.080820	-0.487568
C107	C	1.076053	-0.080651	-0.442360
H108	H	1.188725	-0.145701	-0.469056
H109	H	1.156010	-0.080215	-0.558812
H110	H	1.189159	-0.016624	-0.468258
H111	H	1.044636	-0.144837	-0.461601
H112	H	1.077887	-0.081208	-0.371126
O113	O	0.967231	-0.152959	-0.340452
C114	C	0.971057	-0.319939	-0.337457
C115	C	0.929423	-0.233053	-0.364487
H116	H	0.940497	-0.384716	-0.356863
H117	H	1.032086	-0.319923	-0.369433
H118	H	0.971384	-0.319493	-0.266002
H119	H	0.929038	-0.233442	-0.435932
H120	H	0.868416	-0.233101	-0.332450
H121	H	0.826786	-0.140575	-0.429352
O122	O	0.786019	-0.436854	0.233071
C123	C	0.671647	-0.346354	0.263011
C124	C	0.733038	-0.382994	0.194749
H125	H	0.628805	-0.302784	0.232055
H126	H	0.641166	-0.407282	0.297674
H127	H	0.699560	-0.301816	0.309854
H128	H	0.705185	-0.427517	0.147851
H129	H	0.763514	-0.322023	0.160150
H130	H	0.826812	0.140192	-0.429531
O131	O	0.532751	-0.000278	-0.035640
C132	C	0.524079	-0.080145	-0.166923
C133	C	0.557554	-0.080087	-0.081945
H134	H	0.544132	-0.144653	-0.204392
H135	H	0.459321	-0.080204	-0.154951
H136	H	0.544047	-0.015572	-0.204363
H137	H	0.537645	-0.144649	-0.044462
H138	H	0.622309	-0.079979	-0.093976
H139	H	0.680716	-0.000105	-0.020940
H140	H	0.140178	-0.000142	-0.030539
O141	O	0.099699	-0.000012	0.259062
C142	C	0.000116	0.079912	0.346336
C143	C	0.053504	0.079875	0.262924
H144	H	-0.037236	0.144503	0.349494
H145	H	-0.037347	0.015410	0.349533
H146	H	0.035449	0.079876	0.401767
H147	H	0.018230	0.079944	0.207447
H148	H	0.090969	0.144371	0.259802
O149	O	0.290910	-0.000096	-0.039990
C150	C	0.300489	-0.000159	-0.191975
C151	C	0.247170	-0.000179	-0.108514
H152	H	0.265147	-0.000246	-0.247398
H153	H	0.337890	0.064398	-0.195219
H154	H	0.337913	-0.064687	-0.195092
H155	H	0.209698	0.064305	-0.105341
H156	H	0.209821	-0.064779	-0.105305
