data_functionalizedCrystal
_audit_creation_method	'MofGen! by Chris Wilmer'
_symmetry_space_group_name_H-M	'P1'
_symmetry_Int_Tables_number	1
_symmetry_cell_setting	triclinic
loop_
_symmetry_equiv_pos_as_xyz
  x,y,z
_cell_length_a	13.897449
_cell_length_b	10.686285
_cell_length_c	10.686551
_cell_angle_alpha	80.915481
_cell_angle_beta	85.604174
_cell_angle_gamma	85.632943
loop_
_atom_site_label
_atom_site_type_symbol
_atom_site_fract_x
_atom_site_fract_y
_atom_site_fract_z
Zn1	Zn	1.541007	-0.450121	-0.679016
Zn2	Zn	2.041007	0.049879	-0.179016
Zn3	Zn	1.540929	-0.678701	-0.450513
Zn4	Zn	2.040929	-0.178701	0.049487
Zn5	Zn	1.368204	-0.466480	-0.466777
Zn6	Zn	1.868204	0.033520	0.033223
Zn7	Zn	1.391196	-0.662322	-0.662716
Zn8	Zn	1.891196	-0.162322	-0.162716
O9	O	1.460334	-0.564406	-0.564756
O10	O	1.960334	-0.064406	-0.064756
O11	O	1.675980	-0.480451	-0.648720
O12	O	2.175980	0.019549	-0.148720
O13	O	1.508362	-0.664250	-0.275040
O14	O	2.008362	-0.164250	0.224960
O15	O	1.381537	-0.286687	-0.508558
O16	O	1.881537	0.213313	-0.008558
O17	O	1.675923	-0.648388	-0.480840
O18	O	2.175923	-0.148388	0.019160
O19	O	1.508495	-0.274669	-0.664490
O20	O	2.008495	0.225331	-0.164490
O21	O	1.381461	-0.508332	-0.286989
O22	O	1.881461	-0.008332	0.213011
O23	O	1.236271	-0.492450	-0.492753
O24	O	1.736271	0.007550	0.007247
O25	O	1.420723	-0.620473	-0.842509
O26	O	1.920723	-0.120473	-0.342509
O27	O	1.253163	-0.636335	-0.636709
O28	O	1.753163	-0.136335	-0.136709
O29	O	1.530789	-0.464569	-0.854484
O30	O	2.030789	0.035431	-0.354484
O31	O	1.530656	-0.854151	-0.465035
O32	O	2.030656	-0.354151	0.034965
O33	O	1.420648	-0.842117	-0.620939
O34	O	1.920648	-0.342117	-0.120939
C35	C	1.478166	-0.894187	-0.539481
C36	C	1.978166	-0.394187	-0.039481
C37	C	1.485885	-1.035266	-0.528711
C38	C	1.985885	-0.535266	-0.028711
C39	C	1.209717	-0.564391	-0.564728
C40	C	1.709717	-0.064391	-0.064728
C41	C	1.102505	-0.564413	-0.564744
C42	C	1.602505	-0.064413	-0.064744
C43	C	0.906212	-0.564415	-0.564777
C44	C	1.406212	-0.064415	-0.064777
C45	C	1.015443	-0.564410	-0.564755
C46	C	1.515443	-0.064410	-0.064755
C47	C	1.711930	-0.564422	-0.564784
C48	C	2.211930	-0.064422	-0.064784
C49	C	1.819145	-0.564428	-0.564796
C50	C	2.319145	-0.064428	-0.064796
C51	C	1.478330	-0.538869	-0.895842
C52	C	1.978330	-0.038869	-0.395842
C53	C	1.485998	-0.527987	-1.036931
C54	C	1.985998	-0.027987	-0.536931
C55	C	1.442460	-0.233335	-0.590156
C56	C	1.942460	0.266665	-0.090156
C57	C	1.434843	-0.092252	-0.600981
C58	C	1.934843	0.407748	-0.100981
C59	C	1.442459	-0.589752	-0.234964
C60	C	1.942459	-0.089752	0.265036
C61	C	1.434958	-0.600276	-0.093903
C62	C	1.934958	-0.100276	0.406097
H63	H	1.535486	-1.094415	-0.458585
H64	H	2.035486	-0.594415	0.041415
H65	H	1.385396	-0.670495	-1.034742
H66	H	1.885396	-0.170495	-0.534742
H67	H	1.535571	-0.457773	-1.096098
H68	H	2.035571	0.042227	-0.596098
H69	H	1.385239	-1.033112	-0.671095
H70	H	1.885239	-0.533112	-0.171095
