data_functionalizedCrystal
_audit_creation_method	'MofGen! by Chris Wilmer'
_symmetry_space_group_name_H-M	'P1'
_symmetry_Int_Tables_number	1
_symmetry_cell_setting	triclinic
loop_
_symmetry_equiv_pos_as_xyz
  x,y,z
_cell_length_a	12.594517
_cell_length_b	12.594516
_cell_length_c	15.296720
_cell_angle_alpha	99.650531
_cell_angle_beta	99.667897
_cell_angle_gamma	90.016010
loop_
_atom_site_label
_atom_site_type_symbol
_atom_site_fract_x
_atom_site_fract_y
_atom_site_fract_z
Zn1	Zn	1.523072	-0.527846	-0.509957
Zn2	Zn	1.553783	-0.675054	-0.359114
Zn3	Zn	1.375892	-0.497093	-0.359134
Zn4	Zn	1.345062	-0.705779	-0.509939
O5	O	1.449453	-0.601443	-0.434536
O6	O	1.676092	-0.547384	-0.489946
O7	O	1.555941	-0.625718	-0.232876
O8	O	1.395466	-0.352230	-0.379156
O9	O	1.698655	-0.655537	-0.379123
O10	O	1.503599	-0.374824	-0.489965
O11	O	1.425245	-0.494971	-0.232891
O12	O	1.222857	-0.524765	-0.379139
O13	O	1.342920	-0.707904	-0.636182
O14	O	1.200206	-0.678085	-0.489936
O15	O	1.473704	-0.577178	-0.636195
O16	O	1.526046	-0.828072	-0.379106
O17	O	1.372699	-0.850646	-0.489917
C18	C	1.172911	-0.601423	-0.434538
C19	C	1.054601	-0.601444	-0.434560
C20	C	1.449385	-0.877982	-0.434527
C21	C	1.449447	-0.996293	-0.434554
C22	C	0.902318	-0.684941	-0.494711
C23	C	0.989911	-0.694036	-0.412378
C24	C	0.968582	-0.592394	-0.516884
C25	C	0.931423	-0.610610	-0.352157
C26	C	0.910076	-0.508934	-0.456719
C27	C	0.997648	-0.517981	-0.374329
C28	C	1.366043	-1.077854	-0.494781
C29	C	1.356929	-1.131910	-0.412466
C30	C	1.458656	-1.153038	-0.516883
C31	C	1.440290	-1.048782	-0.352195
C32	C	1.542051	-1.069915	-0.456667
C33	C	1.532984	-1.123928	-0.374295
C34	C	1.727074	-0.601464	-0.434534
C35	C	1.845379	-0.601473	-0.434534
C36	C	1.401447	-0.649399	-0.669837
C37	C	1.380990	-0.669834	-0.770108
C38	C	1.449546	-0.323828	-0.434565
C39	C	1.449585	-0.205525	-0.434577
C40	C	1.595702	-0.455198	-1.052782
C41	C	1.614929	-0.435999	-0.958572
C42	C	1.556446	-0.494456	-0.911452
C43	C	1.478732	-0.572116	-0.958550
C44	C	1.459509	-0.591322	-1.052769
C45	C	1.420253	-0.630580	-0.911438
C46	C	1.342540	-0.708240	-0.958536
C47	C	1.323320	-0.727442	-1.052746
C48	C	1.381803	-0.668985	-1.099867
C49	C	1.439476	-0.611374	-0.817219
C50	C	1.303284	-0.747498	-0.817206
C51	C	1.284057	-0.766696	-0.911416
C52	C	1.497332	-0.553597	-0.200151
C53	C	1.517996	-0.532861	-0.099880
H54	H	1.024832	-0.772280	-0.393619
N55	N	1.523294	-0.527622	-0.766429
H56	H	1.526607	-0.524326	-0.699595
H57	H	1.595937	-0.547570	-0.782904
N58	N	0.863765	-0.405324	-0.481576
H59	H	0.899774	-0.342198	-0.436779
H60	H	0.876759	-0.398628	-0.543830
N61	N	1.361035	-0.689667	-1.201482
H62	H	1.409865	-0.640837	-1.224181
H63	H	1.375913	-0.767326	-1.224123
N64	N	0.909247	-0.620887	-0.259896
H65	H	0.863715	-0.688189	-0.264186
H66	H	0.979693	-0.625454	-0.218169
H67	H	1.603587	-1.144355	-0.323314
N68	N	1.253282	-1.168162	-0.387682
H69	H	1.190269	-1.151752	-0.433201
H70	H	1.254488	-1.248262	-0.387283
H71	H	1.255664	-0.795100	-0.778840
N72	N	1.645669	-1.033625	-0.481461
H73	H	1.652501	-1.071974	-0.543687
H74	H	1.645064	-0.953275	-0.480633
N75	N	1.429916	-0.989031	-0.259957
H76	H	1.425306	-1.042418	-0.218191
H77	H	1.494924	-0.939313	-0.235665
H78	H	1.038918	-0.447370	-0.323392
N79	N	1.272504	-1.050497	-0.562153
H80	H	1.202647	-1.072903	-0.545336
H81	H	1.273603	-0.970292	-0.562047
N82	N	1.468906	-1.212974	-0.609090
H83	H	1.405811	-1.196542	-0.654522
H84	H	1.538217	-1.189511	-0.626175
N85	N	0.990949	-0.582229	-0.609113
H86	H	0.955944	-0.645331	-0.654506
H87	H	0.960588	-0.512925	-0.626249
N88	N	1.577179	-0.473753	-0.809840
H89	H	1.635282	-0.415685	-0.787153
H90	H	1.508750	-0.449597	-0.787222
N91	N	1.200248	-0.850455	-0.962233
H92	H	1.220089	-0.923168	-0.945836
H93	H	1.127580	-0.830482	-0.945825
H94	H	1.643317	-0.407617	-1.091156
N95	N	0.847418	-0.778490	-0.562024
H96	H	0.876611	-0.848339	-0.545154
H97	H	0.767258	-0.777348	-0.561916
N98	N	1.698744	-0.352248	-0.907775
H99	H	1.732875	-0.318129	-0.951919
H100	H	1.663415	-0.295019	-0.868689
H101	H	1.260049	-0.790686	-1.091091
