data_functionalizedCrystal
_audit_creation_method	'MofGen! by Chris Wilmer'
_symmetry_space_group_name_H-M	'P1'
_symmetry_Int_Tables_number	1
_symmetry_cell_setting	triclinic
loop_
_symmetry_equiv_pos_as_xyz
  x,y,z
_cell_length_a	12.645331
_cell_length_b	19.121063
_cell_length_c	12.645323
_cell_angle_alpha	92.408124
_cell_angle_beta	89.977324
_cell_angle_gamma	92.467980
loop_
_atom_site_label
_atom_site_type_symbol
_atom_site_fract_x
_atom_site_fract_y
_atom_site_fract_z
Zn1	Zn	1.602654	-0.279627	-0.617388
Zn2	Zn	1.594942	-0.397086	-0.447665
Zn3	Zn	1.425367	-0.279651	-0.440134
Zn4	Zn	1.417760	-0.397040	-0.624877
O5	O	1.510181	-0.338351	-0.532516
O6	O	1.749978	-0.295217	-0.594892
O7	O	1.572404	-0.381537	-0.298321
O8	O	1.455295	-0.181363	-0.457361
O9	O	1.744312	-0.381514	-0.470197
O10	O	1.585547	-0.181346	-0.587589
O11	O	1.447818	-0.295258	-0.292788
O12	O	1.276011	-0.295213	-0.464623
O13	O	1.442330	-0.381436	-0.772230
O14	O	1.270422	-0.381459	-0.600353
O15	O	1.578171	-0.295173	-0.766727
O16	O	1.565027	-0.495364	-0.477459
O17	O	1.434852	-0.495330	-0.607656
C18	C	1.234752	-0.338334	-0.532485
C19	C	1.116921	-0.338344	-0.532497
C20	C	0.952854	-0.283838	-0.447545
C21	C	1.075405	-0.283979	-0.447195
C22	C	1.067618	-0.412331	-0.506730
C23	C	0.945039	-0.412033	-0.506155
C24	C	0.950986	-0.319567	-0.643576
C25	C	1.073698	-0.317914	-0.642847
C26	C	1.498306	-0.520831	-0.544210
C27	C	1.493323	-0.598897	-0.549248
C28	C	1.558810	-0.635567	-0.483885
C29	C	1.554130	-0.708918	-0.488629
C30	C	1.483957	-0.745598	-0.558733
C31	C	1.418467	-0.708923	-0.624104
C32	C	1.423154	-0.635573	-0.619364
C33	C	1.466419	-0.967067	-0.576438
C34	C	1.461736	-1.040422	-0.581171
C35	C	1.597400	-1.040412	-0.445697
C36	C	1.602076	-0.967061	-0.440959
C37	C	1.536590	-0.930392	-0.506334
C38	C	1.479169	-0.820575	-0.563582
C39	C	1.541384	-0.855417	-0.501489
C40	C	1.786685	-0.338368	-0.532549
C41	C	1.904514	-0.338375	-0.532563
C42	C	1.510262	-0.338296	-0.809018
C43	C	1.510297	-0.338273	-0.926847
C44	C	1.522130	-0.155158	-0.520800
C45	C	1.527222	-0.077092	-0.515807
C46	C	1.424603	-0.392285	-1.097856
C47	C	1.424801	-0.392553	-0.975313
C48	C	1.620698	-0.358362	-0.972656
C49	C	1.620225	-0.358700	-1.095276
C50	C	1.486666	-0.263871	-1.089271
C51	C	1.484145	-0.264317	-0.966693
C52	C	1.510164	-0.338354	-0.257087
C53	C	1.510347	-0.338179	-0.139246
H54	H	0.919439	-0.359290	-0.706863
C55	C	1.571115	-0.209413	-1.124969
N56	N	1.634727	-0.168401	-1.151860
C57	C	1.111889	-0.367668	-0.732482
N58	N	1.140651	-0.405150	-0.799993
C59	C	1.636004	-0.595225	-0.406762
N60	N	1.694152	-0.564842	-0.348673
C61	C	1.313455	-0.375463	-1.136584
N62	N	1.229736	-0.362791	-1.165761
C63	C	1.709041	-0.306811	-0.929983
N64	N	1.775579	-0.267983	-0.897838
C65	C	1.626165	-0.749251	-0.416717
N66	N	1.680423	-0.779630	-0.362547
H67	H	1.659216	-0.937197	-0.383875
H68	H	1.650716	-1.070275	-0.392474
C69	C	1.384543	-1.080769	-0.658300
N70	N	1.326406	-1.111158	-0.716392
C71	C	1.649180	-0.430980	-0.935865
N72	N	1.670626	-0.485679	-0.908156
H73	H	1.109052	-0.229114	-0.462801
C74	C	0.917851	-0.209493	-0.468330
N75	N	0.891479	-0.153495	-0.483987
C76	C	1.394436	-0.926741	-0.648407
N77	N	1.340235	-0.896366	-0.702638
H78	H	1.598523	-0.825550	-0.444415
C79	C	1.341272	-0.749274	-0.701215
N80	N	1.283123	-0.779665	-0.759292
H81	H	1.369829	-0.605717	-0.672591
H82	H	1.342785	-0.379982	-0.944405
H83	H	1.402923	-0.249167	-0.936622
C84	C	1.380136	-0.239138	-1.129422
N85	N	1.299893	-0.220517	-1.159663
H86	H	0.912678	-0.454044	-0.565636
C87	C	1.444987	-0.466245	-1.144220
N88	N	1.460348	-0.521952	-1.179137
C89	C	0.904945	-0.433573	-0.396702
N90	N	0.874751	-0.449793	-0.314258
C91	C	1.562852	-0.206973	-0.921627
N92	N	1.622137	-0.163783	-0.887676
C93	C	1.103394	-0.468698	-0.588028
N94	N	1.130346	-0.511154	-0.649260
C95	C	1.445375	-0.466978	-0.940482
N96	N	1.460851	-0.523041	-0.914249
C97	C	1.648091	-0.432087	-1.138639
N98	N	1.669075	-0.487365	-1.171295
H99	H	0.921211	-0.296131	-0.365663
C100	C	1.113877	-0.300777	-0.335928
N101	N	1.142852	-0.313432	-0.252117
C102	C	1.107604	-0.434248	-0.398489
N103	N	1.137718	-0.450750	-0.316958
H104	H	1.422032	-0.850448	-0.620658
C105	C	1.117758	-0.244355	-0.669208
N106	N	1.150947	-0.188948	-0.689058
C107	C	0.913886	-0.247949	-0.676467
N108	N	0.885946	-0.194002	-0.701227
H109	H	1.686020	-0.321003	-1.122535
