data_functionalizedCrystal
_audit_creation_method	'MofGen! by Chris Wilmer'
_symmetry_space_group_name_H-M	'P1'
_symmetry_Int_Tables_number	1
_symmetry_cell_setting	triclinic
loop_
_symmetry_equiv_pos_as_xyz
  x,y,z
_cell_length_a	19.288864
_cell_length_b	9.798715
_cell_length_c	19.288865
_cell_angle_alpha	89.991627
_cell_angle_beta	96.863755
_cell_angle_gamma	90.017526
loop_
_atom_site_label
_atom_site_type_symbol
_atom_site_fract_x
_atom_site_fract_y
_atom_site_fract_z
O1	O	0.921348	0.113944	-0.086646
O2	O	1.421348	0.613944	0.413354
O3	O	0.719087	0.113853	-0.098335
O4	O	1.219087	0.613853	0.401665
O5	O	0.826062	0.113874	0.008640
O6	O	1.326062	0.613874	0.508640
O7	O	0.814373	0.113923	-0.193621
O8	O	1.314373	0.613923	0.306379
O9	O	0.826054	-0.113108	0.008640
O10	O	1.326054	0.386892	0.508640
O11	O	0.719079	-0.113129	-0.098335
O12	O	1.219079	0.386871	0.401665
O13	O	0.921340	-0.113038	-0.086646
O14	O	1.421340	0.386962	0.413354
Zn15	Zn	0.820208	-0.149122	-0.092490
Zn16	Zn	1.320208	0.350878	0.407510
Zn17	Zn	0.820219	0.149937	-0.092491
Zn18	Zn	1.320219	0.649937	0.407509
O19	O	0.814365	-0.113059	-0.193621
O20	O	1.314365	0.386941	0.306379
C21	C	0.693207	0.000350	-0.097959
C22	C	1.193207	0.500350	0.402041
C23	C	0.616103	0.000314	-0.096830
C24	C	1.116103	0.500314	0.403170
C25	C	0.571407	0.000350	-0.159598
C26	C	1.071407	0.500350	0.340402
C27	C	0.498960	0.000365	-0.158537
C28	C	0.998960	0.500365	0.341463
C29	C	0.471212	0.000371	-0.094705
C30	C	0.971212	0.500371	0.405295
C31	C	0.515918	0.000327	-0.031929
C32	C	1.015918	0.500327	0.468071
C33	C	0.588364	0.000298	-0.032991
C34	C	1.088364	0.500298	0.467009
C35	C	0.362953	0.079927	-0.044526
C36	C	0.862953	0.579927	0.455474
C37	C	0.290508	0.079963	-0.043466
C38	C	0.790508	0.579963	0.456534
C39	C	0.247767	0.000453	-0.091425
C40	C	0.747767	0.500453	0.408575
C41	C	0.277476	-0.079077	-0.140456
C42	C	0.777476	0.420923	0.359544
C43	C	0.349922	-0.079106	-0.141519
C44	C	0.849922	0.420894	0.358481
C45	C	0.392658	0.000401	-0.093546
C46	C	0.892658	0.500401	0.406454
C47	C	0.124514	0.000503	-0.153047
C48	C	0.624514	0.500503	0.346953
C49	C	0.052066	0.000510	-0.151984
C50	C	0.552066	0.500510	0.348016
C51	C	0.069026	0.000485	-0.025374
C52	C	0.569026	0.500485	0.474626
C53	C	0.141473	0.000465	-0.026439
C54	C	0.641473	0.500465	0.473561
C55	C	0.169212	0.000480	-0.090278
C56	C	0.669212	0.500480	0.409722
N57	N	0.820206	-0.353222	-0.092490
N58	N	1.320206	0.146778	0.407510
C59	C	0.865124	-0.420990	-0.047378
C60	C	1.365124	0.079010	0.452622
C61	C	0.865135	-0.578152	-0.047376
C62	C	1.365135	-0.078152	0.452624
C63	C	0.947220	0.000468	-0.087022
C64	C	1.447220	0.500468	0.412978
C65	C	1.024324	0.000513	-0.088151
C66	C	1.524324	0.500513	0.411849
C67	C	0.825682	0.000379	0.034516
C68	C	1.325682	0.500379	0.534516
C69	C	0.824553	0.000366	0.111620
C70	C	1.324553	0.500366	0.611620
N71	N	0.820226	0.354037	-0.092486
N72	N	1.320226	0.854037	0.407514
C73	C	0.814745	0.000439	-0.219497
C74	C	1.314745	0.500439	0.280503
C75	C	0.815874	0.000461	-0.296601
C76	C	1.315874	0.500461	0.203399
C77	C	0.887321	0.000388	0.156316
C78	C	1.387321	0.500388	0.656316
C79	C	0.886260	0.000409	0.228763
C80	C	1.386260	0.500409	0.728763
C81	C	0.822428	0.000381	0.256511
C82	C	1.322428	0.500381	0.756511
C83	C	0.759652	0.000367	0.211805
C84	C	1.259652	0.500367	0.711805
C85	C	0.760714	0.000360	0.139359
C86	C	1.260714	0.500360	0.639359
C87	C	0.772245	-0.079148	0.364798
C88	C	1.272245	0.420852	0.864798
C89	C	0.771186	-0.079149	0.437243
C90	C	1.271186	0.420851	0.937243
C91	C	0.819148	0.000410	0.479956
C92	C	1.319148	0.500410	0.979956
C93	C	0.868182	0.079953	0.450218
C94	C	1.368182	0.579953	0.950218
C95	C	0.869245	0.079946	0.377773
C96	C	1.369245	0.579946	0.877773
C97	C	0.821269	0.000390	0.335065
C98	C	1.321269	0.500390	0.835065
C99	C	0.880770	0.000457	0.603209
C100	C	1.380770	0.500457	1.103209
C101	C	0.879707	0.000486	0.675657
C102	C	1.379707	0.500486	1.175657
C103	C	0.753097	0.000431	0.658697
C104	C	1.253097	0.500431	1.158697
C105	C	0.754162	0.000415	0.586250
C106	C	1.254162	0.500415	1.086250
C107	C	0.818000	0.000421	0.558511
C108	C	1.318000	0.500421	1.058511
H109	H	0.624756	0.000269	0.018124
H110	H	1.124756	0.500269	0.518124
H111	H	0.266324	0.144727	-0.003545
H112	H	0.766324	0.644727	0.496455
H113	H	0.939303	0.000398	0.133736
H114	H	1.439303	0.500398	0.633736
H115	H	0.903570	-0.362659	-0.008756
H116	H	1.403570	0.137341	0.491244
F117	F	0.693905	0.000337	0.091788
F118	F	1.193905	0.500337	0.591788
H119	H	0.781756	-0.411554	-0.131107
H120	H	1.281756	0.088446	0.368893
F121	F	0.600925	0.000363	-0.227541
F122	F	1.100925	0.500363	0.272459
H123	H	0.462561	0.000391	-0.209652
H124	H	0.962561	0.500391	0.290348
H125	H	0.397748	0.144682	-0.005470
H126	H	0.897748	0.644682	0.494530
H127	H	0.903594	-0.636430	-0.008756
H128	H	1.403594	-0.136430	0.491244
F129	F	0.769961	-0.569802	-0.142974
F130	F	1.269961	-0.069802	0.357026
H131	H	0.909169	0.144715	0.353563
H132	H	1.409169	0.644715	0.853563
H133	H	0.177866	0.000442	0.024674
H134	H	0.677866	0.500442	0.524674
H135	H	0.937375	0.000432	0.265162
H136	H	1.437375	0.500432	0.765162
H137	H	0.733187	-0.143943	0.330026
H138	H	1.233187	0.356057	0.830026
H139	H	0.493322	0.000350	0.020044
H140	H	0.993322	0.500350	0.520044
F141	F	0.919231	0.164635	0.495672
F142	F	1.419231	0.664635	0.995672
F143	F	0.948712	0.000457	0.573684
F144	F	1.448712	0.500457	1.073684
F145	F	0.381539	-0.163749	-0.193697
F146	F	0.881539	0.336251	0.306303
F147	F	0.946517	0.000518	0.723227
F148	F	1.446517	0.500518	1.223227
F149	F	0.685161	0.000408	0.688223
F150	F	1.185161	0.500408	1.188223
F151	F	0.687355	0.000386	0.538679
F152	F	1.187355	0.500386	1.038679
F153	F	0.719002	-0.163810	0.468886
F154	F	1.219002	0.336190	0.968886
F155	F	0.691717	0.000346	0.241336
F156	F	1.191717	0.500346	0.741336
F157	F	0.231993	-0.163705	-0.191503
F158	F	0.731993	0.336295	0.308497
H159	H	0.015674	0.000532	-0.203099
H160	H	0.515674	0.500532	0.296901
F161	F	0.039500	0.000477	0.042562
F162	F	0.539500	0.500477	0.542562
F163	F	0.154039	0.000510	-0.220989
F164	F	0.654039	0.500510	0.279011
