data_functionalizedCrystal
_audit_creation_method	'MofGen! by Chris Wilmer'
_symmetry_space_group_name_H-M	'P1'
_symmetry_Int_Tables_number	1
_symmetry_cell_setting	triclinic
loop_
_symmetry_equiv_pos_as_xyz
  x,y,z
_cell_length_a	16.992694
_cell_length_b	16.992695
_cell_length_c	16.053789
_cell_angle_alpha	87.278479
_cell_angle_beta	87.284206
_cell_angle_gamma	90.668223
loop_
_atom_site_label
_atom_site_type_symbol
_atom_site_fract_x
_atom_site_fract_y
_atom_site_fract_z
O1	O	-1.053992	-0.170057	0.069326
O2	O	-0.553992	0.329943	0.569326
O3	O	-0.825593	-0.168227	0.069350
O4	O	-0.325593	0.331773	0.569350
O5	O	-0.938876	-0.054942	0.069331
O6	O	-0.438876	0.445058	0.569331
O7	O	-0.940708	-0.283343	0.069344
O8	O	-0.440708	0.216657	0.569344
O9	O	-0.932574	-0.048647	-0.069528
O10	O	-0.432574	0.451353	0.430472
O11	O	-0.819290	-0.161932	-0.069509
O12	O	-0.319290	0.338068	0.430491
O13	O	-1.047689	-0.163762	-0.069533
O14	O	-0.547689	0.336238	0.430467
Zn15	Zn	-0.932489	-0.161847	-0.091568
Zn16	Zn	-0.432489	0.338153	0.408432
Zn17	Zn	-0.940793	-0.170142	0.091385
Zn18	Zn	-0.440793	0.329858	0.591385
O19	O	-0.934406	-0.277047	-0.069515
O20	O	-0.434406	0.222953	0.430485
C21	C	-0.793082	-0.162724	-0.000076
C22	C	-0.293082	0.337276	0.499924
C23	C	-0.705597	-0.155696	-0.000067
C24	C	-0.205597	0.344304	0.499933
N25	N	-0.926828	-0.156187	-0.216428
N26	N	-0.426828	0.343813	0.283572
C27	C	-0.933369	-0.022434	-0.000098
C28	C	-0.433369	0.477566	0.499902
C29	C	-0.926341	0.065050	-0.000097
C30	C	-0.426341	0.565050	0.499903
C31	C	-1.080201	-0.169265	-0.000105
C32	C	-0.580201	0.330735	0.499895
C33	C	-1.167685	-0.176294	-0.000109
C34	C	-0.667685	0.323706	0.499891
C35	C	-0.659607	-0.223514	-0.000064
C36	C	-0.159607	0.276486	0.499936
C37	C	-0.577405	-0.216904	-0.000076
C38	C	-0.077405	0.283096	0.499924
C39	C	-0.541197	-0.142476	-0.000085
C40	C	-0.041197	0.357524	0.499915
C41	C	-0.587193	-0.074653	-0.000091
C42	C	-0.087193	0.425347	0.499909
C43	C	-0.669393	-0.081263	-0.000085
C44	C	-0.169393	0.418737	0.499915
C45	C	-0.295881	-0.115081	-0.000109
C46	C	0.204119	0.384919	0.499891
C47	C	-0.213676	-0.108476	-0.000112
C48	C	0.286324	0.391524	0.499888
C49	C	-0.203893	-0.250728	-0.000099
C50	C	0.296107	0.249272	0.499901
C51	C	-0.286095	-0.257332	-0.000088
C52	C	0.213905	0.242668	0.499912
C53	C	-0.332084	-0.189508	-0.000098
C54	C	0.167916	0.310492	0.499902
N55	N	-0.457174	-0.135719	-0.000094
N56	N	0.042826	0.364281	0.499906
N57	N	-0.416105	-0.196266	-0.000094
N58	N	0.083895	0.303734	0.499906
C59	C	-0.939913	-0.309555	-0.000084
C60	C	-0.439913	0.190445	0.499916
C61	C	-0.946942	-0.397040	-0.000079
C62	C	-0.446942	0.102960	0.499921
C63	C	-0.994158	0.111042	-0.000105
C64	C	-0.494158	0.611042	0.499895
C65	C	-0.987550	0.193242	-0.000096
C66	C	-0.487550	0.693242	0.499904
C67	C	-0.913123	0.229450	-0.000086
C68	C	-0.413123	0.729450	0.499914
C69	C	-0.845300	0.183452	-0.000075
C70	C	-0.345300	0.683452	0.499925
C71	C	-0.851910	0.101253	-0.000078
C72	C	-0.351910	0.601253	0.499922
C73	C	-0.885729	0.474763	-0.000071
C74	C	-0.385729	0.974763	0.499929
C75	C	-0.879124	0.556969	-0.000071
C76	C	-0.379124	1.056969	0.499929
C77	C	-1.021375	0.566753	-0.000091
C78	C	-0.521375	1.066753	0.499909
C79	C	-1.027977	0.484552	-0.000099
C80	C	-0.527977	0.984552	0.499901
C81	C	-0.960155	0.438561	-0.000083
C82	C	-0.460155	0.938561	0.499917
N83	N	-0.906366	0.313472	-0.000079
N84	N	-0.406366	0.813472	0.499921
N85	N	-0.966913	0.354541	-0.000084
N86	N	-0.466913	0.854541	0.499916
C87	C	-0.975581	-0.204971	-0.260121
C88	C	-0.475581	0.295029	0.239879
C89	C	-0.971631	-0.201007	-0.347528
C90	C	-0.471631	0.298993	0.152472
C91	C	-0.918923	-0.148261	-0.391241
C92	C	-0.418923	0.351739	0.108759
C93	C	-0.870168	-0.099472	-0.347542
C94	C	-0.370168	0.400528	0.152458
C95	C	-0.874122	-0.103433	-0.260136
C96	C	-0.374122	0.396567	0.239864
C97	C	-0.901660	-0.130968	-0.652651
C98	C	-0.401660	0.369032	-0.152651
C99	C	-0.897707	-0.127012	-0.740062
C100	C	-0.397707	0.372988	-0.240062
C101	C	-0.999172	-0.228547	-0.740043
C102	C	-0.499172	0.271453	-0.240043
C103	C	-1.003118	-0.232506	-0.652636
C104	C	-0.503118	0.267494	-0.152636
C105	C	-0.954366	-0.183714	-0.608944
C106	C	-0.454366	0.316286	-0.108944
N107	N	-0.914882	-0.144210	-0.480584
N108	N	-0.414882	0.355790	0.019416
N109	N	-0.958411	-0.187762	-0.519602
N110	N	-0.458411	0.312238	-0.019602
N111	N	-0.946460	-0.175797	0.216245
N112	N	-0.446460	0.324203	0.716245
H113	H	-0.689081	-0.284121	-0.000056
H114	H	-0.189081	0.215879	0.499944
H115	H	-0.818513	0.586447	-0.000076
H116	H	-0.318513	1.086447	0.499924
C117	C	-0.325923	-0.339201	-0.000074
C118	C	0.174077	0.160799	0.499926
H119	H	-0.381465	-0.333424	-0.000061
H120	H	0.118535	0.166576	0.499939
H121	H	-0.308254	-0.365154	-0.048493
H122	H	0.191746	0.134846	0.451507
H123	H	-0.312630	-0.369529	0.048360
H124	H	0.187370	0.130471	0.548360
C125	C	-0.839709	-0.069007	-0.788144
C126	C	-0.339709	0.430993	-0.288144
H127	H	-0.811239	-0.040516	-0.749606
H128	H	-0.311239	0.459484	-0.249606
H129	H	-0.803965	-0.097449	-0.822228
H130	H	-0.303965	0.402551	-0.322228
H131	H	-0.868145	-0.033268	-0.822255
H132	H	-0.368145	0.466732	-0.322255
H133	H	-1.011332	-0.240731	-0.383099
H134	H	-0.511332	0.259269	0.116901
H135	H	-1.042774	0.230685	-0.000105
H136	H	-0.542774	0.730685	0.499895
C137	C	-0.848027	-0.077306	-0.604601
C138	C	-0.348027	0.422694	-0.104601
H139	H	-0.816064	-0.045334	-0.643155
H140	H	-0.316064	0.454666	-0.143155
H141	H	-0.879554	-0.044659	-0.570505
H142	H	-0.379554	0.455341	-0.070505
H143	H	-0.815358	-0.108823	-0.570505
H144	H	-0.315358	0.391177	-0.070505
C145	C	-1.061096	-0.290527	-0.604558
C146	C	-0.561096	0.209473	-0.104558
H147	H	-1.089571	-0.319011	-0.643099
H148	H	-0.589571	0.180989	-0.143099
H149	H	-1.032646	-0.326258	-0.570461
H150	H	-0.532646	0.173742	-0.070461
H151	H	-1.096851	-0.262102	-0.570461
H152	H	-0.596851	0.237898	-0.070461
H153	H	-1.038864	-0.268270	-0.775625
H154	H	-0.538864	0.231730	-0.275625
C155	C	-0.820491	-0.049776	-0.212070
C156	C	-0.320491	0.450224	0.287930
H157	H	-0.830399	-0.059684	-0.153755
H158	H	-0.330399	0.440316	0.346245
H159	H	-0.766899	-0.060346	-0.226397
H160	H	-0.266899	0.439654	0.273603
H161	H	-0.831101	0.003813	-0.226398
H162	H	-0.331101	0.503813	0.273602
C163	C	-1.095973	0.617343	-0.000095
C164	C	-0.595973	1.117343	0.499905
H165	H	-1.081380	0.671483	-0.000085
H166	H	-0.581380	1.171483	0.499915
H167	H	-1.124085	0.608082	-0.048520
H168	H	-0.624085	1.108082	0.451480
H169	H	-1.128472	0.603680	0.048333
H170	H	-0.628472	1.103680	0.548333
H171	H	-1.018497	-0.247926	-0.224537
H172	H	-0.518497	0.252074	0.275463
H173	H	-0.827256	-0.056522	-0.383139
H174	H	-0.327256	0.443478	0.116861
H175	H	-0.784700	0.212939	-0.000061
H176	H	-0.284700	0.712939	0.499939
C177	C	-0.526816	-0.291502	-0.000064
C178	C	-0.026816	0.208498	0.499936
H179	H	-0.472674	-0.276908	-0.000077
H180	H	0.027326	0.223092	0.499923
H181	H	-0.540467	-0.323999	0.048366
H182	H	-0.040467	0.176001	0.548366
H183	H	-0.536087	-0.319619	-0.048487
H184	H	-0.036087	0.180381	0.451513
C185	C	-0.173848	-0.026601	-0.000124
C186	C	0.326152	0.473399	0.499876
H187	H	-0.213009	0.012846	-0.000136
H188	H	0.286991	0.512846	0.499864
H189	H	-0.144178	-0.023261	0.048299
H190	H	0.355822	0.476739	0.548299
H191	H	-0.139792	-0.018877	-0.048554
H192	H	0.360208	0.481123	0.451446
C193	C	-0.153308	-0.325329	-0.000092
C194	C	0.346692	0.174671	0.499908
H195	H	-0.186646	-0.370601	-0.000080
H196	H	0.313354	0.129399	0.499920
H197	H	-0.118846	-0.323516	-0.048516
H198	H	0.381154	0.176484	0.451484
H199	H	-0.123232	-0.327901	0.048337
H200	H	0.376768	0.172099	0.548337
H201	H	-0.796685	0.063808	-0.000071
H202	H	-0.296685	0.563808	0.499929
C203	C	-0.346459	-0.040478	-0.000114
C204	C	0.153541	0.459522	0.499886
H205	H	-0.313120	0.004793	-0.000112
H206	H	0.186880	0.504793	0.499888
H207	H	-0.376537	-0.037902	-0.048536
H208	H	0.123463	0.462098	0.451464
H209	H	-0.380920	-0.042292	0.048316
H210	H	0.119080	0.457708	0.548316
C211	C	-1.109845	0.444725	-0.000116
C212	C	-0.609845	0.944725	0.499884
H213	H	-1.104068	0.389184	-0.000127
H214	H	-0.604068	0.889184	0.499873
H215	H	-1.140192	0.458005	0.048300
H216	H	-0.640192	0.958005	0.548300
H217	H	-1.135779	0.462409	-0.048552
H218	H	-0.635779	0.962409	0.451448
C219	C	-0.547366	0.007216	-0.000099
C220	C	-0.047366	0.507216	0.499901
H221	H	-0.491824	0.001441	-0.000093
H222	H	0.008176	0.501441	0.499907
H223	H	-0.560656	0.037553	-0.048523
H224	H	-0.060656	0.537553	0.451477
H225	H	-0.565041	0.033159	0.048330
H226	H	-0.065041	0.533159	0.548330
H227	H	-0.706838	-0.026038	-0.000087
H228	H	-0.206838	0.473962	0.499913
H229	H	-1.054765	0.081568	-0.000119
H230	H	-0.554765	0.581568	0.499881
H231	H	-0.830503	0.437328	-0.000059
H232	H	-0.330503	0.937328	0.499941
