data_functionalizedCrystal
_audit_creation_method	'MofGen! by Chris Wilmer'
_symmetry_space_group_name_H-M	'P1'
_symmetry_Int_Tables_number	1
_symmetry_cell_setting	triclinic
loop_
_symmetry_equiv_pos_as_xyz
  x,y,z
_cell_length_a	6.817900
_cell_length_b	16.417823
_cell_length_c	17.982968
_cell_angle_alpha	95.669223
_cell_angle_beta	102.451960
_cell_angle_gamma	103.385419
loop_
_atom_site_label
_atom_site_type_symbol
_atom_site_fract_x
_atom_site_fract_y
_atom_site_fract_z
V1	V	-4.014588	-0.116670	-0.237814
O2	O	-4.002842	0.004799	-0.233016
O3	O	-3.965698	-0.230561	-0.236448
O4	O	-3.961101	-0.115230	-0.341414
O5	O	-4.007471	-0.111330	-0.127324
V6	V	-4.498938	-0.102099	-0.224567
O7	O	-4.274031	-0.148633	-0.266873
O8	O	-4.689692	-0.070137	-0.195508
O9	O	-4.324621	0.011792	-0.225932
O10	O	-4.628080	-0.223569	-0.229365
O11	O	-4.623452	-0.107439	-0.335057
O12	O	-4.329218	-0.103540	-0.120967
C13	C	-3.810744	-0.258314	-0.232764
C14	C	-3.852023	-0.351423	-0.232338
C15	C	-3.949108	-0.640954	-0.161198
C16	C	-3.910295	-0.553465	-0.161586
C17	C	-3.983791	-0.577828	-0.301190
C18	C	-4.022588	-0.665314	-0.300801
C19	C	-4.005255	-0.696875	-0.230803
C20	C	-3.927644	-0.521900	-0.231580
C21	C	-3.885561	-0.427041	-0.232001
C22	C	-4.047337	-0.791740	-0.230382
C23	C	-3.804879	-0.111197	-0.366657
C24	C	-3.842429	-0.110773	-0.451352
C25	C	-4.041971	-0.114770	-0.495033
C26	C	-4.077241	-0.114371	-0.574612
C27	C	-3.912968	-0.109981	-0.610511
C28	C	-3.713407	-0.105980	-0.566824
C29	C	-3.678137	-0.106373	-0.487245
C30	C	-3.855641	-0.104394	-0.887757
C31	C	-3.890929	-0.104003	-0.967342
C32	C	-4.254745	-0.112392	-0.975125
C33	C	-4.219475	-0.112785	-0.895546
C34	C	-4.019917	-0.108780	-0.851865
C35	C	-3.981675	-0.109211	-0.765575
C36	C	-3.951210	-0.109555	-0.696800
C37	C	-4.142917	0.039540	-0.229614
C38	C	-4.080876	0.132649	-0.230045
C39	C	-4.148782	-0.107576	-0.095720
C40	C	-4.090471	-0.107995	-0.011024
H41	H	-4.175749	-0.118352	-0.465811
H42	H	-4.068303	-0.710848	-0.357485
O43	O	-4.292452	-0.118665	-0.621726
H44	H	-4.400757	-0.121788	-0.583394
O45	O	-3.536133	-0.101292	-0.605487
H46	H	-3.513917	-0.043550	-0.633314
H47	H	-4.353249	-0.116365	-0.866322
O48	O	-3.930372	-0.674997	-0.085703
H49	H	-4.041297	-0.655557	-0.055151
O50	O	-4.002493	-0.543781	-0.376684
H51	H	-4.048034	-0.597367	-0.425019
H52	H	-4.417237	-0.115650	-1.010699
H53	H	-3.757145	-0.100426	-0.996568
O54	O	-3.640422	-0.100086	-0.840650
H55	H	-3.532132	-0.096978	-0.878986
H56	H	-3.515641	-0.103097	-0.451677
H57	H	-3.864573	-0.507937	-0.104907
