data_functionalizedCrystal
_audit_creation_method	'MofGen! by Chris Wilmer'
_symmetry_space_group_name_H-M	'P1'
_symmetry_Int_Tables_number	1
_symmetry_cell_setting	triclinic
loop_
_symmetry_equiv_pos_as_xyz
  x,y,z
_cell_length_a	10.967874
_cell_length_b	11.026607
_cell_length_c	16.176319
_cell_angle_alpha	89.996049
_cell_angle_beta	77.863909
_cell_angle_gamma	96.380181
loop_
_atom_site_label
_atom_site_type_symbol
_atom_site_fract_x
_atom_site_fract_y
_atom_site_fract_z
O1	O	1.694044	0.170540	-0.310074
O2	O	1.334405	0.186859	-0.258842
O3	O	1.484418	0.001798	-0.280209
O4	O	1.544031	0.355601	-0.288707
O5	O	1.484389	0.001786	-0.142712
O6	O	1.334376	0.186847	-0.121345
O7	O	1.694015	0.170528	-0.172577
Cu8	Cu	1.514193	0.178686	-0.134406
Cu9	Cu	1.514227	0.178701	-0.297013
O10	O	1.544002	0.355589	-0.151210
C11	C	1.287633	0.185665	-0.183433
C12	C	1.148308	0.182110	-0.163585
C13	C	1.086208	0.180531	-0.225964
C14	C	0.942209	0.176856	-0.205453
C15	C	1.473406	-0.043510	-0.209895
C16	C	1.440622	-0.178498	-0.205227
C17	C	1.531144	-0.251549	-0.218124
C18	C	1.497263	-0.391066	-0.213300
C19	C	1.740787	0.171723	-0.247988
C20	C	1.880112	0.175278	-0.267841
C21	C	1.555014	0.400898	-0.221526
C22	C	1.587798	0.535885	-0.226199
N23	N	1.514178	0.178676	-0.020039
N24	N	1.514250	0.178702	-0.411381
C25	C	1.580637	0.096765	0.013759
C26	C	1.580643	0.096764	0.100306
C27	C	1.514196	0.178680	0.153051
C28	C	1.447729	0.260595	0.119248
C29	C	1.447717	0.260589	0.032704
C30	C	1.447777	0.260618	0.468270
C31	C	1.447798	0.260620	0.554818
C32	C	1.580703	0.096792	0.535871
C33	C	1.580691	0.096787	0.449327
C34	C	1.514219	0.178697	0.415532
C35	C	1.514211	0.178695	0.321689
C36	C	1.514210	0.178688	0.246892
H37	H	0.888773	0.175495	-0.136858
C38	C	1.724669	-0.410041	-0.245735
C39	C	1.801612	-0.504477	-0.256717
C40	C	1.927701	-0.454711	-0.274725
H41	H	1.741385	-0.361137	-0.200182
H42	H	1.741295	-0.361141	-0.296069
H43	H	1.784993	-0.553357	-0.206389
H44	H	1.784936	-0.553389	-0.302272
H45	H	1.944327	-0.405811	-0.325059
H46	H	1.944404	-0.405807	-0.229169
H47	H	1.979922	-0.518777	-0.282186
H48	H	1.338039	-0.219244	-0.190619
H49	H	1.633727	-0.210802	-0.232732
C50	C	1.652806	0.007688	-0.043358
C51	C	1.710980	-0.064068	0.004774
C52	C	1.777457	-0.146154	-0.047808
H53	H	1.714758	0.051742	-0.085960
H54	H	1.596474	-0.043392	-0.069065
H55	H	1.767306	-0.012994	0.030467
H56	H	1.649056	-0.108148	0.047374
H57	H	1.721125	-0.197235	-0.073515
H58	H	1.839402	-0.102091	-0.090408
H59	H	1.816926	-0.194858	-0.015158
H60	H	0.933547	0.176655	-0.336436
C61	C	1.360542	-0.445611	-0.193785
C62	C	1.354116	-0.573146	-0.192853
C63	C	1.228194	-0.623436	-0.174869
H64	H	1.319975	-0.419441	-0.235939
H65	H	1.320052	-0.419395	-0.140050
H66	H	1.394590	-0.599351	-0.246581
H67	H	1.394656	-0.599349	-0.150699
H68	H	1.187704	-0.597219	-0.121134
H69	H	1.187638	-0.597257	-0.217025
H70	H	1.223818	-0.709972	-0.174227
H71	H	1.634757	0.030065	0.127823
C72	C	1.652752	0.007650	0.572478
C73	C	1.605663	-0.112002	0.558127
C74	C	1.672012	-0.194148	0.591826
H75	H	1.643290	0.019208	0.631580
H76	H	1.739169	0.021522	0.545955
H77	H	1.519267	-0.125870	0.584652
H78	H	1.615125	-0.123600	0.499032
H79	H	1.758429	-0.180275	0.565303
H80	H	1.662546	-0.182578	0.650927
H81	H	1.640079	-0.275340	0.582087
C82	C	1.652460	0.007574	0.392090
C83	C	1.568973	-0.067405	0.354397
C84	C	1.634969	-0.149692	0.301704
H85	H	1.691938	-0.041319	0.424600
H86	H	1.714374	0.051517	0.349390
H87	H	1.507082	-0.111345	0.397090
H88	H	1.529492	-0.018546	0.321871
H89	H	1.696884	-0.105748	0.259005
H90	H	1.674445	-0.198576	0.334221
H91	H	1.578336	-0.200567	0.276117
C92	C	1.375512	0.349607	0.611958
C93	C	1.317264	0.421316	0.563844
C94	C	1.250655	0.503287	0.616454
H95	H	1.431735	0.400740	0.637701
H96	H	1.313596	0.305428	0.654535
H97	H	1.379174	0.465491	0.521282
H98	H	1.261022	0.370216	0.538102
H99	H	1.188739	0.459108	0.659031
H100	H	1.306887	0.554411	0.642194
H101	H	1.211117	0.551943	0.583818
C102	C	1.077296	0.180351	-0.072070
C103	C	1.162497	0.182549	-0.018497
C104	C	1.097132	0.180946	0.065814
H105	H	1.019834	0.108294	-0.060695
H106	H	1.032636	0.249852	-0.062592
H107	H	1.207136	0.113055	-0.027971
H108	H	1.219961	0.254601	-0.029845
H109	H	1.052472	0.250447	0.075292
H110	H	1.039672	0.108887	0.077180
H111	H	1.154931	0.182448	0.102173
C112	C	1.375842	0.349629	0.431451
C113	C	1.459151	0.424625	0.369868
C114	C	1.392930	0.506636	0.335924
H115	H	1.336276	0.398534	0.475170
H116	H	1.313985	0.305476	0.406464
H117	H	1.520986	0.468774	0.394856
H118	H	1.498721	0.375754	0.326134
H119	H	1.331073	0.462483	0.310937
H120	H	1.353366	0.555532	0.379649
H121	H	1.449443	0.557523	0.294131
H122	H	1.393597	0.327288	0.005188
C123	C	1.157233	0.182421	-0.317481
C124	C	1.072037	0.180286	-0.371055
C125	C	1.137417	0.182047	-0.455368
H126	H	1.201937	0.112974	-0.327041
H127	H	1.214660	0.254530	-0.328776
H128	H	1.014632	0.108184	-0.359765
H129	H	1.027330	0.249727	-0.361522
H130	H	1.194844	0.254156	-0.466663
H131	H	1.182118	0.112598	-0.464919
H132	H	1.079623	0.180610	-0.491728
C133	C	1.375349	0.349387	0.176505
C134	C	1.248052	0.328547	0.173626
C135	C	1.181335	0.410310	0.226367
H136	H	1.406985	0.430704	0.157841
H137	H	1.384792	0.337653	0.232907
H138	H	1.238616	0.340291	0.117235
H139	H	1.216380	0.247246	0.192296
H140	H	1.190777	0.398575	0.282770
H141	H	1.212981	0.491621	0.207698
H142	H	1.094955	0.396173	0.224426
