data_functionalizedCrystal
_audit_creation_method	'MofGen! by Chris Wilmer'
_symmetry_space_group_name_H-M	'P1'
_symmetry_Int_Tables_number	1
_symmetry_cell_setting	triclinic
loop_
_symmetry_equiv_pos_as_xyz
  x,y,z
_cell_length_a	16.625547
_cell_length_b	21.295416
_cell_length_c	16.625548
_cell_angle_alpha	89.986091
_cell_angle_beta	90.012490
_cell_angle_gamma	89.969732
loop_
_atom_site_label
_atom_site_type_symbol
_atom_site_fract_x
_atom_site_fract_y
_atom_site_fract_z
Zn1	Zn	1.232538	0.250715	0.455986
Zn2	Zn	1.732538	0.750715	0.955986
Zn3	Zn	1.232452	0.355957	0.321147
Zn4	Zn	1.732452	0.855957	0.821147
Zn5	Zn	1.097729	0.250705	0.321157
Zn6	Zn	1.597729	0.750705	0.821157
Zn7	Zn	1.097652	0.355950	0.455927
Zn8	Zn	1.597652	0.855950	0.955927
O9	O	1.165093	0.303332	0.388554
O10	O	1.665093	0.803332	0.888554
O11	O	1.345359	0.264682	0.438120
O12	O	1.845359	0.764682	0.938120
O13	O	1.214577	0.341994	0.208316
O14	O	1.714577	0.841994	0.708316
O15	O	1.115680	0.162617	0.339071
O16	O	1.615680	0.662617	0.839071
O17	O	1.345296	0.342003	0.339055
O18	O	1.845296	0.842003	0.839055
O19	O	1.214724	0.162624	0.438129
O20	O	1.714724	0.662624	0.938129
O21	O	1.115597	0.264666	0.208323
O22	O	1.615597	0.764666	0.708323
O23	O	0.984886	0.264659	0.339013
O24	O	1.484886	0.764659	0.839013
O25	O	1.115549	0.341991	0.568767
O26	O	1.615549	0.841991	1.068767
O27	O	0.984830	0.341982	0.438029
O28	O	1.484830	0.841982	0.938029
O29	O	1.214649	0.264675	0.568811
O30	O	1.714649	0.764675	1.068811
O31	O	1.214502	0.444045	0.338997
O32	O	1.714502	0.944045	0.838997
O33	O	1.115465	0.444040	0.438019
O34	O	1.615465	0.944040	0.938019
C35	C	0.955602	0.303319	0.388516
C36	C	1.455602	0.803319	0.888516
C37	C	0.865981	0.303329	0.388519
C38	C	1.365981	0.803329	0.888519
C39	C	0.793198	0.303331	0.388529
C40	C	1.293198	0.803331	0.888529
C41	C	0.701890	0.303334	0.388549
C42	C	1.201890	0.803334	0.888549
C43	C	0.629114	0.303340	0.388570
C44	C	1.129114	0.803340	0.888570
C45	C	0.537799	0.303344	0.388589
C46	C	1.037799	0.803344	0.888589
C47	C	1.164988	0.466883	0.388519
C48	C	1.664988	0.966883	0.888519
C49	C	1.165017	0.536851	0.388530
C50	C	1.665017	1.036851	0.888530
C51	C	1.216631	0.569700	0.337024
C52	C	1.716631	1.069700	0.837024
C53	C	1.216669	0.635442	0.337046
C54	C	1.716669	1.135442	0.837046
C55	C	1.165078	0.668334	0.388565
C56	C	1.665078	1.168334	0.888565
C57	C	1.113460	0.635478	0.440082
C58	C	1.613460	1.135478	0.940082
C59	C	1.113429	0.569736	0.440064
C60	C	1.613429	1.069736	0.940064
N61	N	1.094542	0.771601	0.394705
N62	N	1.594542	1.271601	0.894705
N63	N	1.094574	0.834052	0.394717
N64	N	1.594574	1.334052	0.894717
C65	C	1.165169	0.866409	0.388623
C66	C	1.665169	1.366409	0.888623
N67	N	1.235734	0.833954	0.382500
N68	N	1.735734	1.333954	0.882500
N69	N	1.235701	0.771497	0.382484
N70	N	1.735701	1.271497	0.882484
C71	C	1.165106	0.739619	0.388590
C72	C	1.665106	1.239619	0.888590
C73	C	1.216829	0.970543	0.337137
C74	C	1.716829	1.470543	0.837137
C75	C	1.216869	1.036286	0.337165
C76	C	1.716869	1.536286	0.837165
C77	C	1.113653	1.036320	0.440196
C78	C	1.613653	1.536320	0.940196
C79	C	1.113621	0.970578	0.440173
C80	C	1.613621	1.470578	0.940173
C81	C	1.165208	0.937693	0.388639
C82	C	1.665208	1.437693	0.888639
C83	C	1.375402	0.303344	0.388593
C84	C	1.875402	0.803344	0.888593
C85	C	1.465023	0.303350	0.388609
C86	C	1.965023	0.803350	0.888609
C87	C	1.165100	0.303334	0.598863
C88	C	1.665100	0.803334	1.098863
C89	C	1.165103	0.303334	0.688484
C90	C	1.665103	0.803334	1.188484
C91	C	1.165221	1.139141	0.388621
C92	C	1.665221	1.639141	0.888621
C93	C	1.165278	1.069173	0.388686
C94	C	1.665278	1.569173	0.888686
C95	C	1.165069	0.303340	1.016660
C96	C	1.665069	0.803340	1.516660
C97	C	1.165077	0.303340	0.925351
C98	C	1.665077	0.803340	1.425351
C99	C	1.165087	0.303338	0.852575
C100	C	1.665087	0.803338	1.352575
C101	C	1.165093	0.303337	0.761261
C102	C	1.665093	0.803337	1.261261
C103	C	1.165078	0.303343	1.179063
C104	C	1.665078	0.803343	1.679063
C105	C	1.165070	0.303338	1.089442
C106	C	1.665070	0.803338	1.589442
H107	H	1.258638	0.542927	0.295064
H108	H	1.758638	1.042927	0.795064
H109	H	1.258703	0.662193	0.295104
H110	H	1.758703	1.162193	0.795104
C111	C	1.273588	0.934367	0.280462
C112	C	1.773588	1.434367	0.780462
N113	N	1.316342	0.907121	0.237776
N114	N	1.816342	1.407121	0.737776
H115	H	1.071456	0.662262	0.482030
H116	H	1.571456	1.162262	0.982030
C117	C	1.056856	0.934443	0.496851
C118	C	1.556856	1.434443	0.996851
N119	N	1.014108	0.907227	0.539553
N120	N	1.514108	1.407227	1.039553
H121	H	1.071398	0.542991	0.482007
H122	H	1.571398	1.042991	0.982007
C123	C	1.273651	1.072419	0.280500
C124	C	1.773651	1.572419	0.780500
N125	N	1.316419	1.099635	0.237817
N126	N	1.816419	1.599635	0.737817
C127	C	1.056903	1.072497	0.496870
C128	C	1.556903	1.572497	0.996870
N129	N	1.014160	1.099749	0.539560
N130	N	1.514160	1.599749	1.039560
