data_functionalizedCrystal
_audit_creation_method	'MofGen! by Chris Wilmer'
_symmetry_space_group_name_H-M	'P1'
_symmetry_Int_Tables_number	1
_symmetry_cell_setting	triclinic
loop_
_symmetry_equiv_pos_as_xyz
  x,y,z
_cell_length_a	16.109317
_cell_length_b	12.837942
_cell_length_c	15.186229
_cell_angle_alpha	89.990771
_cell_angle_beta	89.992508
_cell_angle_gamma	90.851422
loop_
_atom_site_label
_atom_site_type_symbol
_atom_site_fract_x
_atom_site_fract_y
_atom_site_fract_z
O1	O	-1.113706	0.133332	-0.073133
O2	O	-0.613706	0.633332	0.426867
O3	O	-0.872962	0.149895	-0.073156
O4	O	-0.372962	0.649895	0.426844
O5	O	-0.987995	-0.009288	-0.073140
O6	O	-0.487995	0.490712	0.426860
O7	O	-0.998672	0.292515	-0.073149
O8	O	-0.498672	0.792515	0.426851
O9	O	-0.988002	-0.009309	0.073318
O10	O	-0.488002	0.490691	0.573318
O11	O	-0.872968	0.149875	0.073302
O12	O	-0.372968	0.649875	0.573302
O13	O	-1.113712	0.133311	0.073324
O14	O	-0.613712	0.633311	0.573324
Zn15	Zn	-0.993341	0.141589	0.096566
Zn16	Zn	-0.493341	0.641589	0.596566
Zn17	Zn	-0.993333	0.141617	-0.096398
Zn18	Zn	-0.493333	0.641617	0.403602
O19	O	-0.998678	0.292494	0.073308
O20	O	-0.498678	0.792494	0.573308
C21	C	-0.841937	0.149211	0.000070
C22	C	-0.341937	0.649211	0.500070
C23	C	-0.749482	0.147190	0.000062
C24	C	-0.249482	0.647190	0.500062
C25	C	-0.449886	0.140676	-0.079762
C26	C	0.050114	0.640676	0.420238
C27	C	-0.536757	0.142568	-0.079766
C28	C	-0.036757	0.642568	0.420234
C29	C	-0.536782	0.142531	0.079910
C30	C	-0.036782	0.642531	0.579910
C31	C	-0.449912	0.140632	0.079913
C32	C	0.050088	0.640632	0.579913
C33	C	-0.406466	0.139710	0.000074
C34	C	0.093534	0.639710	0.500074
C35	C	-0.580208	0.143500	0.000068
C36	C	-0.080208	0.643500	0.500068
C37	C	-0.674398	0.145551	0.000064
C38	C	-0.174398	0.645551	0.500064
C39	C	-0.312270	0.137657	0.000078
C40	C	0.187730	0.637657	0.500078
C41	C	-0.984392	-0.047918	0.000088
C42	C	-0.484392	0.452082	0.500088
C43	C	-0.973635	-0.162992	0.000086
C44	C	-0.473635	0.337008	0.500086
C45	C	-1.102952	-0.403985	0.000079
C46	C	-0.602952	0.096015	0.500079
C47	C	-1.092849	-0.512108	0.000077
C48	C	-0.592849	-0.012108	0.500077
C49	C	-0.943327	-0.487364	0.000072
C50	C	-0.443327	0.012636	0.500072
C51	C	-0.953430	-0.379241	0.000075
C52	C	-0.453430	0.120759	0.500075
C53	C	-1.033245	-0.337555	0.000080
C54	C	-0.533245	0.162445	0.500080
C55	C	-1.043347	-0.229430	0.000088
C56	C	-0.543347	0.270570	0.500088
C57	C	-0.893826	-0.204688	0.000077
C58	C	-0.393826	0.295312	0.500077
C59	C	-0.883723	-0.312811	0.000075
C60	C	-0.383723	0.187189	0.500075
C61	C	-0.144737	0.133996	0.000091
C62	C	0.355263	0.633996	0.500091
C63	C	-0.237192	0.136020	0.000080
C64	C	0.262808	0.636020	0.500080
C65	C	-1.002282	0.331124	0.000078
C66	C	-0.502282	0.831124	0.500078
C67	C	-1.013039	0.446198	0.000075
C68	C	-0.513039	0.946198	0.500075
N69	N	-0.993327	0.141628	-0.228090
N70	N	-0.493327	0.641628	0.271910
C71	C	-0.938034	0.078575	-0.453815
C72	C	-0.438034	0.578575	0.046185
C73	C	-0.938039	0.078563	-0.546005
C74	C	-0.438039	0.578563	-0.046005
C75	C	-1.048652	0.204625	-0.546010
C76	C	-0.548652	0.704625	-0.046010
C77	C	-1.048650	0.204631	-0.453822
C78	C	-0.548650	0.704631	0.046178
C79	C	-0.993336	0.141608	-0.407727
C80	C	-0.493336	0.641608	0.092273
C81	C	-0.993344	0.141590	-0.592105
C82	C	-0.493344	0.641590	-0.092105
C83	C	-0.993350	0.141577	-0.692061
C84	C	-0.493350	0.641577	-0.192061
C85	C	-0.993331	0.141619	-0.307765
C86	C	-0.493331	0.641619	0.192235
N87	N	-0.993353	0.141570	0.228259
N88	N	-0.493353	0.641570	0.728259
H89	H	-0.572166	0.143284	0.144912
H90	H	-0.072166	0.643284	0.644912
H91	H	-1.093685	0.255938	-0.583552
H92	H	-0.593685	0.755938	-0.083552
N93	N	-0.797640	-0.357775	0.000067
N94	N	-0.297640	0.142225	0.500067
H95	H	-0.801816	-0.436351	0.000064
H96	H	-0.301816	0.063649	0.500064
H97	H	-0.766768	-0.333486	0.054362
H98	H	-0.266768	0.166514	0.554362
N99	N	-0.878388	0.010586	-0.404100
N100	N	-0.378388	0.510586	0.095900
H101	H	-0.886775	0.020153	-0.338705
H102	H	-0.386775	0.520153	0.161295
H103	H	-0.819514	0.030892	-0.420227
H104	H	-0.319514	0.530892	0.079773
H105	H	-0.837065	-0.150589	0.000084
H106	H	-0.337065	0.349411	0.500084
H107	H	-1.167940	-0.370044	0.000092
H108	H	-0.667940	0.129956	0.500092
H109	H	-0.893007	0.027234	-0.583526
H110	H	-0.393007	0.527234	-0.083526
H111	H	-0.572106	0.143353	-0.144776
H112	H	-0.072106	0.643353	0.355224
N113	N	-0.403024	0.139677	-0.165869
N114	N	0.096976	0.639677	0.334131
H115	H	-0.443716	0.140573	-0.216445
H116	H	0.056284	0.640573	0.283555
H117	H	-0.368632	0.074668	-0.169345
H118	H	0.131368	0.574668	0.330655
N119	N	-0.403075	0.139581	0.166026
N120	N	0.096925	0.639581	0.666026
H121	H	-0.443794	0.139749	0.216601
H122	H	0.056206	0.639749	0.716601
H123	H	-0.365795	0.203375	0.169769
H124	H	0.134205	0.703375	0.669769
N125	N	-1.108320	0.272592	-0.404104
N126	N	-0.608320	0.772592	0.095896
H127	H	-1.143363	0.312514	-0.447292
H128	H	-0.643363	0.812514	0.052708
H129	H	-1.076024	0.323182	-0.365857
H130	H	-0.576024	0.823182	0.134143
H131	H	-1.108337	-0.195492	0.000095
H132	H	-0.608337	0.304508	0.500095
H133	H	-0.878345	-0.521323	0.000059
H134	H	-0.378345	-0.021323	0.500059
N135	N	-1.168032	-0.583759	0.000075
N136	N	-0.668032	-0.083759	0.500075
H137	H	-1.220124	-0.540940	0.000078
H138	H	-0.720124	-0.040940	0.500078
H139	H	-1.167102	-0.629170	0.054368
H140	H	-0.667102	-0.129170	0.554368
