data_functionalizedCrystal
_audit_creation_method	'MofGen! by Chris Wilmer'
_symmetry_space_group_name_H-M	'P1'
_symmetry_Int_Tables_number	1
_symmetry_cell_setting	triclinic
loop_
_symmetry_equiv_pos_as_xyz
  x,y,z
_cell_length_a	17.019383
_cell_length_b	17.019294
_cell_length_c	14.048226
_cell_angle_alpha	86.114596
_cell_angle_beta	86.117564
_cell_angle_gamma	83.133350
loop_
_atom_site_label
_atom_site_type_symbol
_atom_site_fract_x
_atom_site_fract_y
_atom_site_fract_z
O1	O	1.046558	0.100561	-0.173108
O2	O	0.816881	0.113363	-0.155350
O3	O	0.938126	-0.007878	-0.155336
O4	O	0.925312	0.221801	-0.173123
O5	O	0.938111	-0.007885	0.002987
O6	O	0.816866	0.113356	0.002973
O7	O	1.046543	0.100553	-0.014785
Zn8	Zn	0.931702	0.106953	0.019231
Zn9	Zn	0.931721	0.106963	-0.189366
O10	O	0.925298	0.221794	-0.014800
C11	C	0.787485	0.112872	-0.073742
C12	C	0.699917	0.111409	-0.066452
C13	C	0.658778	0.110728	-0.149322
C14	C	0.576498	0.109366	-0.142459
C15	C	0.535358	0.108681	-0.052724
C16	C	0.576502	0.109364	0.030152
C17	C	0.658781	0.110731	0.023287
C18	C	0.286929	0.104558	-0.027680
C19	C	0.204645	0.103188	-0.020822
C20	C	0.204646	0.103192	-0.193433
C21	C	0.286927	0.104554	-0.200290
C22	C	0.328063	0.105242	-0.117414
C23	C	0.451254	0.107286	-0.045706
C24	C	0.412165	0.106642	-0.124433
C25	C	0.937633	-0.037271	-0.073726
C26	C	0.936175	-0.124840	-0.066431
C27	C	0.935500	-0.165971	-0.149306
C28	C	0.934125	-0.248251	-0.142448
C29	C	0.933431	-0.289398	-0.052715
C30	C	0.934104	-0.248260	0.030165
C31	C	0.935473	-0.165981	0.023307
C32	C	0.929291	-0.537827	-0.027690
C33	C	0.927924	-0.620113	-0.020838
C34	C	0.927944	-0.620097	-0.193452
C35	C	0.929318	-0.537817	-0.200303
C36	C	0.929986	-0.496686	-0.117422
C37	C	0.932028	-0.373502	-0.045704
C38	C	0.931384	-0.412583	-0.124434
C39	C	1.075939	0.101045	-0.096395
C40	C	1.163506	0.102507	-0.103692
C41	C	0.925791	0.251187	-0.096411
C42	C	0.927249	0.338756	-0.103712
N43	N	0.931695	0.106946	0.161593
N44	N	0.931735	0.106963	-0.331728
C45	C	0.985399	0.053283	0.211414
C46	C	0.985405	0.053283	0.311071
C47	C	0.931709	0.106950	0.360905
C48	C	0.877999	0.160616	0.311077
C49	C	0.877990	0.160612	0.211422
C50	C	0.878021	0.160622	0.518789
C51	C	0.878031	0.160627	0.618450
C52	C	0.985436	0.053292	0.618438
C53	C	0.985427	0.053288	0.518783
C54	C	0.931718	0.106956	0.468962
H55	H	0.171143	0.102634	-0.260906
H56	H	0.933578	-0.281737	-0.209933
H57	H	0.933534	-0.281768	0.103228
F58	F	0.927189	-0.663903	0.074672
F59	F	1.042562	-0.003833	0.364095
F60	F	1.042597	-0.003823	0.671465
F61	F	1.042555	-0.003835	0.158386
H62	H	0.171149	0.102652	0.052253
F63	F	0.820855	0.217739	0.465770
H64	H	0.834275	0.204310	0.351658
H65	H	1.029154	0.009592	0.478208
H66	H	0.834305	0.204327	0.659020
F67	F	0.702556	0.111452	-0.244830
F68	F	0.532718	0.108642	-0.230661
H69	H	0.692275	0.111290	0.090769
H70	H	0.834258	0.204309	0.170859
H71	H	0.320413	0.105113	0.039803
F72	F	0.330705	0.105280	-0.295797
H73	H	0.931943	-0.379077	-0.197493
F74	F	0.532715	0.108641	0.125654
H75	H	0.417749	0.106726	0.027356
F76	F	0.927232	-0.663878	-0.281653
F77	F	0.936244	-0.122187	-0.244812
F78	F	0.455950	0.107375	-0.219932
H79	H	0.929851	-0.504350	0.039797
F80	F	0.930058	-0.494032	-0.295808
H81	H	0.936011	-0.132492	0.090793
F82	F	0.931286	-0.417300	0.049794
