data_functionalizedCrystal
_audit_creation_method	'MofGen! by Chris Wilmer'
_symmetry_space_group_name_H-M	'P1'
_symmetry_Int_Tables_number	1
_symmetry_cell_setting	triclinic
loop_
_symmetry_equiv_pos_as_xyz
  x,y,z
_cell_length_a	14.044190
_cell_length_b	14.044191
_cell_length_c	16.053802
_cell_angle_alpha	87.186691
_cell_angle_beta	92.795827
_cell_angle_gamma	93.191777
loop_
_atom_site_label
_atom_site_type_symbol
_atom_site_fract_x
_atom_site_fract_y
_atom_site_fract_z
O1	O	0.226523	1.280865	-0.069406
O2	O	0.726523	1.780865	0.430594
O3	O	0.218210	1.004193	-0.069416
O4	O	0.718210	1.504193	0.430584
O5	O	0.084031	1.138371	-0.069394
O6	O	0.584031	1.638371	0.430606
O7	O	0.360702	1.146686	-0.069427
O8	O	0.860702	1.646686	0.430573
O9	O	0.091383	1.130983	0.069463
O10	O	0.591383	1.630983	0.569463
O11	O	0.225562	0.996804	0.069442
O12	O	0.725562	1.496804	0.569442
O13	O	0.233875	1.273476	0.069452
O14	O	0.733875	1.773476	0.569452
Zn15	Zn	0.230886	1.133967	0.091494
Zn16	Zn	0.730886	1.633967	0.591494
Zn17	Zn	0.221199	1.143702	-0.091457
Zn18	Zn	0.721199	1.643702	0.408543
O19	O	0.368054	1.139298	0.069431
O20	O	0.868054	1.639298	0.569431
C21	C	0.218249	0.964876	0.000012
C22	C	0.718249	1.464876	0.500012
C23	C	0.207402	0.858733	0.000009
C24	C	0.707402	1.358733	0.500009
C25	C	0.264502	0.613276	0.000011
C26	C	0.764502	1.113276	0.500011
C27	C	0.187586	0.664399	0.000018
C28	C	0.687586	1.164399	0.500018
C29	C	0.198614	0.772537	0.000013
C30	C	0.698614	1.272537	0.500013
C31	C	0.253476	0.505129	0.000016
C32	C	0.753476	1.005129	0.500016
C33	C	0.052085	1.131041	0.000037
C34	C	0.552085	1.631041	0.500037
C35	C	-0.054058	1.120193	0.000044
C36	C	0.445942	1.620193	0.500044
C37	C	-0.299517	1.177295	0.000013
C38	C	0.200483	1.677295	0.500013
C39	C	-0.248393	1.100378	0.000016
C40	C	0.251607	1.600378	0.500016
C41	C	-0.140255	1.111406	0.000031
C42	C	0.359745	1.611406	0.500031
C43	C	-0.407664	1.166269	-0.000002
C44	C	0.092336	1.666269	0.499998
C45	C	0.400000	1.146629	-0.000002
C46	C	0.900000	1.646629	0.499998
C47	C	0.506143	1.157476	-0.000015
C48	C	1.006143	1.657476	0.499985
C49	C	0.233836	1.312793	0.000022
C50	C	0.733836	1.812793	0.500022
C51	C	0.244683	1.418936	0.000020
C52	C	0.744683	1.918936	0.500020
N53	N	0.237497	1.127331	0.216353
N54	N	0.737497	1.627331	0.716353
N55	N	0.214581	1.150345	-0.216317
N56	N	0.714581	1.650345	0.283683
C57	C	0.180428	1.184449	0.260056
C58	C	0.680428	1.684449	0.760056
C59	C	0.185062	1.179816	0.347462
C60	C	0.685062	1.679816	0.847462
C61	C	0.246771	1.118069	0.391163
C62	C	0.746771	1.618069	0.891163
C63	C	0.303843	1.060945	0.347454
C64	C	0.803843	1.560945	0.847454
C65	C	0.299203	1.065574	0.260050
C66	C	0.799203	1.565574	0.760050
C67	C	0.267012	1.097849	0.652570
C68	C	0.767012	1.597849	1.152570
C69	C	0.271650	1.093227	0.739980
C70	C	0.771650	1.593227	1.239980
C71	C	0.152868	1.212097	0.739982
C72	C	0.652868	1.712097	1.239982
C73	C	0.148237	1.216724	0.652576
C74	C	0.648237	1.716724	1.152576
C75	C	0.205305	1.159597	0.608874
C76	C	0.705305	1.659597	1.108874
N77	N	0.251512	1.113335	0.480506
N78	N	0.751512	1.613335	0.980506
N79	N	0.200559	1.164327	0.519533
N80	N	0.700559	1.664327	1.019533
H81	H	0.338629	0.650720	-0.000001
H82	H	0.838629	1.150720	0.499999
H83	H	-0.285839	1.026246	0.000009
H84	H	0.214161	1.526246	0.500009
H85	H	-0.262073	1.251421	0.000024
H86	H	0.237927	1.751421	0.500024
O87	O	0.099076	0.619884	0.000060
O88	O	0.599076	1.119884	0.500060
C89	C	0.029725	0.688717	0.000040
C90	C	0.529725	1.188717	0.500040
H91	H	0.063483	0.757279	0.026328
H92	H	0.563483	1.257279	0.526328
H93	H	-0.031209	0.660473	0.040355
H94	H	0.468791	1.160473	0.540355
H95	H	0.000823	0.704060	-0.066577
H96	H	0.500823	1.204060	0.433423
H97	H	0.130182	1.234733	0.224480
H98	H	0.630182	1.734733	0.724480
O99	O	0.363914	1.001015	0.389809
O100	O	0.863914	1.501015	0.889809
C101	C	0.458613	1.025665	0.368441
C102	C	0.958613	1.525665	0.868441
H103	H	0.458260	1.065819	0.304974
H104	H	0.958260	1.565819	0.804974
H105	H	0.499355	0.958032	0.365448
H106	H	0.999355	1.458032	0.865448
H107	H	0.494800	1.073074	0.417619
H108	H	0.994800	1.573074	0.917619
O109	O	0.129602	1.235408	0.389785
O110	O	0.629602	1.735408	0.889785
C111	C	0.074134	1.290891	0.332471
C112	C	0.574134	1.790891	0.832471
H113	H	0.110059	1.298564	0.270156
H114	H	0.610059	1.798564	0.770156
H115	H	0.067421	1.364572	0.357711
H116	H	0.567421	1.864572	0.857711
H117	H	0.000070	1.254405	0.323200
H118	H	0.500070	1.754405	0.823200
O119	O	0.322315	1.042270	0.610084
O120	O	0.822315	1.542270	1.110084
C121	C	0.263499	0.981737	0.559527
C122	C	0.763499	1.481737	1.059527
H123	H	0.189468	0.972351	0.585882
H124	H	0.689468	1.472351	1.085882
H125	H	0.295949	0.909204	0.558537
H126	H	0.795949	1.409204	1.058537
H127	H	0.257521	1.014704	0.493282
H128	H	0.757521	1.514704	0.993282
O129	O	0.354688	1.010231	0.217502
O130	O	0.854688	1.510231	0.717502
C131	C	0.415274	1.069015	0.166936
C132	C	0.915274	1.569015	0.666936
H133	H	0.382918	1.141202	0.153838
H134	H	0.882918	1.641202	0.653838
H135	H	0.423718	1.033696	0.105476
H136	H	0.923718	1.533696	0.605476
H137	H	0.488176	1.079681	0.200602
H138	H	0.988176	1.579681	0.700602
O139	O	0.088207	1.276723	0.610256
O140	O	0.588207	1.776723	1.110256
C141	C	0.038845	1.326162	0.667573
C142	C	0.538845	1.826162	1.167573
H143	H	0.037739	1.283631	0.729886
H144	H	0.537739	1.783631	1.229886
H145	H	-0.037498	1.335620	0.642332
H146	H	0.462502	1.835620	1.142332
H147	H	0.076378	1.399213	0.676850
H148	H	0.576378	1.899213	1.176850
H149	H	0.321905	1.042944	0.775558
H150	H	0.821905	1.542944	1.275558
O151	O	0.097465	1.267485	0.782563
O152	O	0.597465	1.767485	1.282563
C153	C	0.114806	1.250181	0.869080
C154	C	0.614806	1.750181	1.369080
H155	H	0.144661	1.176663	0.881025
H156	H	0.644661	1.676663	1.381025
H157	H	0.045171	1.252930	0.902310
H158	H	0.545171	1.752930	1.402310
H159	H	0.168605	1.306956	0.893864
H160	H	0.668605	1.806956	1.393864
