data_functionalizedCrystal
_audit_creation_method	'MofGen! by Chris Wilmer'
_symmetry_space_group_name_H-M	'P1'
_symmetry_Int_Tables_number	1
_symmetry_cell_setting	triclinic
loop_
_symmetry_equiv_pos_as_xyz
  x,y,z
_cell_length_a	18.215407
_cell_length_b	13.897447
_cell_length_c	18.215399
_cell_angle_alpha	89.974944
_cell_angle_beta	89.980167
_cell_angle_gamma	90.019978
loop_
_atom_site_label
_atom_site_type_symbol
_atom_site_fract_x
_atom_site_fract_y
_atom_site_fract_z
Zn1	Zn	1.125099	-0.384013	-0.416131
Zn2	Zn	1.625099	0.115987	0.083869
Zn3	Zn	1.125019	-0.545323	-0.293071
Zn4	Zn	1.625019	-0.045323	0.206929
Zn5	Zn	1.002032	-0.384045	-0.293078
Zn6	Zn	1.502032	0.115955	0.206922
Zn7	Zn	1.002009	-0.545269	-0.416096
Zn8	Zn	1.502009	-0.045269	0.083904
O9	O	1.063540	-0.464663	-0.354594
O10	O	1.563540	0.035337	0.145406
O11	O	1.228073	-0.405421	-0.399818
O12	O	1.728073	0.094579	0.100182
O13	O	1.108681	-0.523965	-0.190087
O14	O	1.608681	-0.023965	0.309913
O15	O	1.018400	-0.249059	-0.309419
O16	O	1.518400	0.250941	0.190581
O17	O	1.228014	-0.523934	-0.309406
O18	O	1.728014	-0.023934	0.190594
O19	O	1.108817	-0.249036	-0.399825
O20	O	1.608817	0.250964	0.100175
O21	O	1.018322	-0.405474	-0.190093
O22	O	1.518322	0.094526	0.309907
O23	O	0.899045	-0.405422	-0.309385
O24	O	1.399045	0.094578	0.190615
O25	O	1.018361	-0.523843	-0.519084
O26	O	1.518361	-0.023843	-0.019084
O27	O	0.899028	-0.523873	-0.399765
O28	O	1.399028	-0.023873	0.100235
O29	O	1.108795	-0.405369	-0.519110
O30	O	1.608795	0.094631	-0.019110
O31	O	1.108659	-0.680297	-0.309372
O32	O	1.608659	-0.180297	0.190628
O33	O	1.018284	-0.680258	-0.399758
O34	O	1.518284	-0.180258	0.100242
C35	C	0.872334	-0.464646	-0.354573
C36	C	1.372334	0.035354	0.145427
C37	C	0.790535	-0.464662	-0.354581
C38	C	1.290535	0.035338	0.145419
C39	C	1.063480	-0.715277	-0.354577
C40	C	1.563480	-0.215277	0.145423
C41	C	1.063522	-0.822491	-0.354594
C42	C	1.563522	-0.322491	0.145406
C43	C	0.602351	-0.526437	-0.401583
C44	C	1.102351	-0.026437	0.098417
C45	C	0.525493	-0.526440	-0.401592
C46	C	1.025493	-0.026440	0.098408
C47	C	0.525480	-0.402906	-0.307620
C48	C	1.025480	0.097094	0.192380
C49	C	0.602338	-0.402899	-0.307616
C50	C	1.102338	0.097101	0.192384
C51	C	0.640771	-0.464670	-0.354596
C52	C	1.140771	0.035330	0.145404
C53	C	0.487055	-0.464680	-0.354610
C54	C	0.987055	0.035320	0.145390
C55	C	0.403722	-0.464683	-0.354619
C56	C	0.903722	0.035317	0.145381
C57	C	0.724110	-0.464666	-0.354587
C58	C	1.224110	0.035334	0.145413
C59	C	1.063557	-0.909561	-0.354611
C60	C	1.563557	-0.409561	0.145389
C61	C	1.063609	-1.018793	-0.354630
C62	C	1.563609	-0.518793	0.145370
C63	C	1.255493	-0.464680	-0.354615
C64	C	1.755493	0.035320	0.145385
C65	C	1.337292	-0.464687	-0.354625
C66	C	1.837292	0.035313	0.145375
C67	C	1.063585	-0.464596	-0.546547
C68	C	1.563585	0.035404	-0.046547
C69	C	1.063604	-0.464568	-0.628346
C70	C	1.563604	0.035432	-0.128346
C71	C	1.063620	-0.213070	-0.354627
C72	C	1.563620	0.286930	0.145373
C73	C	1.063654	-0.105856	-0.354641
C74	C	1.563654	0.394144	0.145359
C75	C	1.110710	-0.402821	-0.816554
C76	C	1.610710	0.097179	-0.316554
C77	C	1.110718	-0.402792	-0.893413
C78	C	1.610718	0.097208	-0.393413
C79	C	1.016550	-0.526166	-0.893375
C80	C	1.516550	-0.026166	-0.393375
C81	C	1.016538	-0.526188	-0.816518
C82	C	1.516538	-0.026188	-0.316518
C83	C	1.063622	-0.464517	-0.778109
C84	C	1.563622	0.035483	-0.278109
C85	C	1.063643	-0.464466	-0.931825
C86	C	1.563643	0.035534	-0.431825
C87	C	1.063652	-0.464436	-1.015159
C88	C	1.563652	0.035564	-0.515159
C89	C	1.063612	-0.464546	-0.694770
C90	C	1.563612	0.035454	-0.194770
C91	C	1.063538	-0.464659	-0.163387
C92	C	1.563538	0.035341	0.336613
C93	C	1.063661	-0.464416	-0.081589
C94	C	1.563661	0.035584	0.418411
H95	H	0.633642	-0.576732	-0.439839
H96	H	1.133642	-0.076732	0.060161
H97	H	0.494178	-0.352616	-0.269370
H98	H	0.994178	0.147384	0.230630
H99	H	0.978218	-0.576378	-0.924656
H100	H	1.478218	-0.076378	-0.424656
H101	H	0.633620	-0.352595	-0.269353
H102	H	1.133620	0.147405	0.230647
H103	H	1.149046	-0.352601	-0.785285
H104	H	1.649046	0.147399	-0.285285
H105	H	1.149061	-0.352551	-0.924712
H106	H	1.649061	0.147449	-0.424712
H107	H	0.494215	-0.576735	-0.439855
H108	H	0.994215	-0.076735	0.060145
H109	H	0.978189	-0.576428	-0.785215
H110	H	1.478189	-0.076428	-0.285215
