data_functionalizedCrystal
_audit_creation_method	'MofGen! by Chris Wilmer'
_symmetry_space_group_name_H-M	'P1'
_symmetry_Int_Tables_number	1
_symmetry_cell_setting	triclinic
loop_
_symmetry_equiv_pos_as_xyz
  x,y,z
_cell_length_a	12.837939
_cell_length_b	12.811434
_cell_length_c	11.892095
_cell_angle_alpha	99.326143
_cell_angle_beta	94.310906
_cell_angle_gamma	90.588503
loop_
_atom_site_label
_atom_site_type_symbol
_atom_site_fract_x
_atom_site_fract_y
_atom_site_fract_z
O1	O	-1.381294	0.268695	-0.066437
O2	O	-0.881294	0.768695	0.433563
O3	O	-1.079529	0.255122	-0.067834
O4	O	-0.579529	0.755122	0.432166
O5	O	-1.239109	0.108867	-0.082823
O6	O	-0.739109	0.608867	0.417177
O7	O	-1.221713	0.414949	-0.051448
O8	O	-0.721713	0.914949	0.448552
O9	O	-1.225804	0.121041	0.106432
O10	O	-0.725804	0.621041	0.606432
O11	O	-1.066223	0.267295	0.121421
O12	O	-0.566223	0.767295	0.621421
O13	O	-1.367989	0.280869	0.122818
O14	O	-0.867989	0.780869	0.622818
Zn15	Zn	-1.214993	0.276015	0.152168
Zn16	Zn	-0.714993	0.776015	0.652168
Zn17	Zn	-1.232524	0.259976	-0.097184
Zn18	Zn	-0.732524	0.759976	0.402816
O19	O	-1.208408	0.427123	0.137807
O20	O	-0.708408	0.927123	0.637807
C21	C	-1.034269	0.256623	0.026323
C22	C	-0.534269	0.756623	0.526323
C23	C	-0.919232	0.242947	0.024919
C24	C	-0.419232	0.742947	0.524919
C25	C	-1.231890	0.075505	0.007759
C26	C	-0.731890	0.575505	0.507759
C27	C	-1.230190	-0.042043	-0.004298
C28	C	-0.730190	0.457957	0.495702
C29	C	-0.677791	0.407362	0.041790
C30	C	-0.177791	0.907362	0.541790
C31	C	-0.569703	0.394517	0.040472
C32	C	-0.069703	0.894517	0.540472
C33	C	-0.594965	0.204414	0.020973
C34	C	-0.094965	0.704414	0.520973
C35	C	-0.703053	0.217259	0.022291
C36	C	-0.203053	0.717259	0.522291
C37	C	-0.744462	0.318736	0.032698
C38	C	-0.244462	0.818736	0.532698
C39	C	-0.852553	0.331579	0.034008
C40	C	-0.352553	0.831579	0.534008
C41	C	-0.877812	0.141477	0.014517
C42	C	-0.377812	0.641477	0.514517
C43	C	-0.769724	0.128633	0.013200
C44	C	-0.269724	0.628633	0.513200
C45	C	-0.413249	0.279368	0.028660
C46	C	0.086751	0.779368	0.528660
C47	C	-0.528285	0.293046	0.030062
C48	C	-0.028285	0.793046	0.530062
C49	C	-1.215627	0.460485	0.047223
C50	C	-0.715627	0.960485	0.547223
C51	C	-1.217328	0.578033	0.059272
C52	C	-0.717328	1.078033	0.559272
N53	N	-1.203037	0.286961	0.322344
N54	N	-0.703037	0.786961	0.822344
C55	C	-1.235051	0.785644	-0.124436
C56	C	-0.735051	1.285644	0.375564
C57	C	-1.236650	0.896090	-0.113121
C58	C	-0.736650	1.396090	0.386879
C59	C	-1.222133	0.909372	0.093217
C60	C	-0.722133	1.409372	0.593217
C61	C	-1.220534	0.798926	0.081901
C62	C	-0.720534	1.298926	0.581901
C63	C	-1.226992	0.737066	-0.026929
C64	C	-0.726992	1.237066	0.473071
C65	C	-1.225385	0.626618	-0.038243
C66	C	-0.725385	1.126618	0.461757
C67	C	-1.210875	0.639902	0.168093
C68	C	-0.710875	1.139902	0.668093
C69	C	-1.212474	0.750348	0.179409
C70	C	-0.712474	1.250348	0.679409
N71	N	-1.244489	0.249022	-0.267361
N72	N	-0.744489	0.749022	0.232639
C73	C	-1.327688	0.172791	0.547291
C74	C	-0.827688	0.672791	1.047291
C75	C	-1.319338	0.180451	0.666418
C76	C	-0.819338	0.680451	1.166418
C77	C	-1.177982	0.309935	0.679726
C78	C	-0.677982	0.809935	1.179726
C79	C	-1.186333	0.302275	0.560599
C80	C	-0.686333	0.802275	1.060599
C81	C	-1.261189	0.233702	0.494385
C82	C	-0.761189	0.733702	0.994385
C83	C	-1.269543	0.226048	0.375257
C84	C	-0.769543	0.726048	0.875257
C85	C	-1.128183	0.355526	0.388567
C86	C	-0.628183	0.855526	0.888567
C87	C	-1.119833	0.363186	0.507694
C88	C	-0.619833	0.863186	1.007694
H89	H	-0.886265	0.414207	0.042483
H90	H	-0.386265	0.914207	0.542483
H91	H	-0.711507	0.489988	0.050261
H92	H	-0.211507	0.989988	0.550261
O93	O	-0.497789	0.490104	0.050272
O94	O	0.002211	0.990104	0.550272
H95	H	-0.544747	0.562820	0.057722
H96	H	-0.044747	1.062820	0.557722
O97	O	-1.205508	0.817068	0.296786
O98	O	-0.705508	1.317068	0.796786
H99	H	-1.207968	0.902031	0.288276
H100	H	-0.707968	1.402031	0.788276
H101	H	-0.561223	0.121802	0.012594
H102	H	-0.061223	0.621802	0.512594
H103	H	-0.735992	0.046013	0.004740
H104	H	-0.235992	0.546013	0.504740
H105	H	-1.230637	0.576253	-0.126858
H106	H	-0.730637	1.076253	0.373142
O107	O	-1.245339	0.948481	-0.218293
O108	O	-0.745339	1.448481	0.281707
H109	H	-1.245373	1.035674	-0.192146
H110	H	-0.745373	1.535674	0.307854
O111	O	-0.949719	0.045877	0.004717
O112	O	-0.449719	0.545877	0.504717
H113	H	-1.031837	0.071853	0.007388
H114	H	-0.531837	0.571853	0.507388
H115	H	-1.204306	0.600338	0.247491
H116	H	-0.704306	1.100338	0.747491
H117	H	-1.330497	0.170215	0.321347
H118	H	-0.830497	0.670215	0.821347
O119	O	-1.039108	0.437156	0.579111
O120	O	-0.539108	0.937156	1.079111
H121	H	-0.985065	0.391061	0.628322
H122	H	-0.485065	0.891061	1.128322
H123	H	-1.388646	0.116963	0.493379
H124	H	-0.888646	0.616963	0.993379
H125	H	-1.373487	0.130849	0.709489
H126	H	-0.873487	0.630849	1.209489
O127	O	-1.097249	0.383892	0.751149
O128	O	-0.597249	0.883892	1.251149
H129	H	-1.102622	0.378984	0.842872
H130	H	-0.602622	0.878984	1.342872
O131	O	-1.215185	0.976101	0.210589
O132	O	-0.715185	1.476101	0.710589
H133	H	-1.144953	1.029050	0.220919
H134	H	-0.644953	1.529050	0.720919
O135	O	-1.242001	0.718913	-0.241808
O136	O	-0.742001	1.218913	0.258192
H137	H	-1.247872	0.771249	-0.307712
H138	H	-0.747872	1.271249	0.192288
O139	O	-1.056444	0.421224	0.331508
O140	O	-0.556444	0.921224	0.831508
H141	H	-1.074819	0.404375	0.237547
H142	H	-0.574819	0.904375	0.737547
