data_functionalizedCrystal
_audit_creation_method	'MofGen! by Chris Wilmer'
_symmetry_space_group_name_H-M	'P1'
_symmetry_Int_Tables_number	1
_symmetry_cell_setting	triclinic
loop_
_symmetry_equiv_pos_as_xyz
  x,y,z
_cell_length_a	14.044191
_cell_length_b	14.044190
_cell_length_c	12.996460
_cell_angle_alpha	89.989157
_cell_angle_beta	89.997003
_cell_angle_gamma	93.191777
loop_
_atom_site_label
_atom_site_type_symbol
_atom_site_fract_x
_atom_site_fract_y
_atom_site_fract_z
O1	O	1.277180	0.230203	-0.085538
O2	O	1.777180	0.730203	0.414462
O3	O	1.000507	0.221890	-0.085551
O4	O	1.500507	0.721890	0.414449
O5	O	1.134687	0.087710	-0.085525
O6	O	1.634687	0.587710	0.414475
O7	O	1.143000	0.364383	-0.085565
O8	O	1.643000	0.864383	0.414435
O9	O	1.134671	0.087701	0.085609
O10	O	1.634671	0.587701	0.585609
O11	O	1.000491	0.221880	0.085583
O12	O	1.500491	0.721880	0.585583
O13	O	1.277164	0.230193	0.085595
O14	O	1.777164	0.730193	0.585595
Cu15	Cu	1.138826	0.226036	0.101215
Cu16	Cu	1.638826	0.726036	0.601215
Cu17	Cu	1.138845	0.226047	-0.101170
Cu18	Cu	1.638845	0.726047	0.398830
O19	O	1.142984	0.364373	0.085569
O20	O	1.642984	0.864373	0.585569
C21	C	0.964877	0.218249	0.000015
C22	C	1.464877	0.718249	0.500015
C23	C	0.858734	0.207401	0.000011
C24	C	1.358734	0.707401	0.500011
C25	C	0.613277	0.264502	0.000013
C26	C	1.113277	0.764502	0.500013
C27	C	0.664400	0.187585	0.000023
C28	C	1.164400	0.687585	0.500023
C29	C	0.772537	0.198614	0.000016
C30	C	1.272537	0.698614	0.500016
C31	C	0.505130	0.253475	0.000019
C32	C	1.005130	0.753475	0.500019
C33	C	1.131043	0.052083	0.000045
C34	C	1.631043	0.552083	0.500045
C35	C	1.120195	-0.054060	0.000054
C36	C	1.620195	0.445940	0.500054
C37	C	1.177296	-0.299517	0.000016
C38	C	1.677296	0.200483	0.500016
C39	C	1.100379	-0.248394	0.000020
C40	C	1.600379	0.251606	0.500020
C41	C	1.111408	-0.140257	0.000039
C42	C	1.611408	0.359743	0.500039
C43	C	1.166269	-0.407664	-0.000003
C44	C	1.666269	0.092336	0.499997
C45	C	1.312794	0.233834	0.000027
C46	C	1.812794	0.733834	0.500027
C47	C	1.418937	0.244682	0.000024
C48	C	1.918937	0.744682	0.500024
C49	C	1.146628	0.400000	-0.000003
C50	C	1.646628	0.900000	0.499997
C51	C	1.157476	0.506143	-0.000018
C52	C	1.657476	1.006143	0.499982
N53	N	1.138820	0.226028	0.243562
N54	N	1.638820	0.726028	0.743562
N55	N	1.138858	0.226048	-0.243518
N56	N	1.638858	0.726048	0.256482
C57	C	1.138844	0.226048	0.663376
C58	C	1.638844	0.726048	1.163376
C59	C	1.138834	0.226045	0.546571
C60	C	1.638834	0.726045	1.046571
C61	C	1.138832	0.226039	0.453473
C62	C	1.638832	0.726039	0.953473
C63	C	1.138822	0.226035	0.336660
C64	C	1.638822	0.726035	0.836660
H65	H	1.026247	-0.285839	0.000011
H66	H	1.526247	0.214161	0.500011
H67	H	0.650720	0.338629	-0.000001
H68	H	1.150720	0.838629	0.499999
H69	H	1.251423	-0.262074	0.000030
H70	H	1.751423	0.237926	0.500030
H71	H	0.626955	0.113453	-0.000039
H72	H	1.126955	0.613453	0.499961
