data_functionalizedCrystal
_audit_creation_method	'MofGen! by Chris Wilmer'
_symmetry_space_group_name_H-M	'P1'
_symmetry_Int_Tables_number	1
_symmetry_cell_setting	triclinic
loop_
_symmetry_equiv_pos_as_xyz
  x,y,z
_cell_length_a	14.853567
_cell_length_b	10.654545
_cell_length_c	9.730223
_cell_angle_alpha	89.997167
_cell_angle_beta	89.999394
_cell_angle_gamma	84.059005
loop_
_atom_site_label
_atom_site_type_symbol
_atom_site_fract_x
_atom_site_fract_y
_atom_site_fract_z
O1	O	0.126607	1.666527	-0.114263
O2	O	0.138675	1.300922	-0.114268
O3	O	0.001463	1.493491	-0.114270
O4	O	0.263818	1.473959	-0.114262
O5	O	0.001459	1.493478	0.114310
O6	O	0.138671	1.300910	0.114312
O7	O	0.126603	1.666515	0.114316
Zn8	Zn	0.132636	1.483710	0.150606
Zn9	Zn	0.132641	1.483727	-0.150558
O10	O	0.263814	1.473947	0.114318
C11	C	0.137788	1.254127	0.000021
C12	C	0.135139	1.114711	0.000019
C13	C	0.133890	1.049213	0.124619
C14	C	0.131387	0.918220	0.124619
C15	C	0.131385	0.918234	-0.124592
C16	C	0.133882	1.049226	-0.124590
C17	C	-0.032132	1.492599	0.000016
C18	C	-0.132230	1.489947	0.000004
C19	C	-0.545435	1.364347	0.000029
C20	C	-0.565494	1.593123	0.000032
C21	C	-0.471447	1.595616	0.000023
C22	C	-0.414389	1.482473	0.000020
C23	C	-0.451379	1.366837	0.000025
C24	C	-0.434450	1.711250	0.000033
C25	C	-0.340397	1.713749	0.000026
C26	C	-0.283338	1.600605	0.000013
C27	C	-0.320333	1.484964	0.000016
C28	C	-0.263276	1.371821	0.000013
C29	C	-0.300269	1.256179	0.000006
C30	C	-0.394320	1.253693	0.000012
C31	C	-0.189288	1.603090	0.000008
C32	C	-0.169220	1.374311	0.000009
C33	C	0.297410	1.474838	0.000029
C34	C	0.397508	1.477490	0.000032
N35	N	0.132632	1.483709	0.356143
C36	C	0.127490	1.713310	0.000024
C37	C	0.130138	1.852726	0.000017
N38	N	0.132638	1.483739	-0.356094
C39	C	0.071901	1.569007	0.428068
C40	C	0.071901	1.569019	0.571951
C41	C	0.193372	1.398431	0.571971
C42	C	0.193367	1.398414	0.428090
H43	H	0.130370	0.864897	0.226080
F44	F	0.130029	0.848532	-0.257202
F45	F	0.135205	1.118939	-0.257214
F46	F	-0.108501	1.253886	-0.000004
H47	H	0.022447	1.638475	0.630508
F48	F	-0.584805	1.241279	0.000010
H49	H	-0.253800	1.164059	0.000013
F50	F	-0.626220	1.713529	0.000055
H51	H	-0.480912	1.803365	0.000048
H52	H	0.134914	1.102527	0.226084
F53	F	0.258005	1.307619	0.351536
H54	H	-0.424448	1.159543	0.000008
F55	F	-0.301035	1.836823	0.000016
H56	H	-0.159172	1.697244	0.000022
F57	F	0.258010	1.307662	0.648552
F58	F	0.007259	1.659782	0.351501
