data_functionalizedCrystal
_audit_creation_method	'MofGen! by Chris Wilmer'
_symmetry_space_group_name_H-M	'P1'
_symmetry_Int_Tables_number	1
_symmetry_cell_setting	triclinic
loop_
_symmetry_equiv_pos_as_xyz
  x,y,z
_cell_length_a	15.995350
_cell_length_b	15.995292
_cell_length_c	15.455313
_cell_angle_alpha	92.667666
_cell_angle_beta	87.322339
_cell_angle_gamma	83.480495
loop_
_atom_site_label
_atom_site_type_symbol
_atom_site_fract_x
_atom_site_fract_y
_atom_site_fract_z
O1	O	1.114630	0.104271	-0.072051
O2	O	1.614630	0.604271	0.427949
O3	O	0.870853	0.117598	-0.072068
O4	O	1.370853	0.617598	0.427932
O5	O	0.999430	-0.010956	-0.072060
O6	O	1.499430	0.489044	0.427940
O7	O	0.986052	0.232826	-0.072059
O8	O	1.486052	0.732826	0.427941
O9	O	0.992078	-0.003635	0.072201
O10	O	1.492078	0.496365	0.572201
O11	O	0.863500	0.124919	0.072194
O12	O	1.363500	0.624919	0.572194
O13	O	1.107277	0.111592	0.072211
O14	O	1.607277	0.611592	0.572211
Cu15	Cu	0.984717	0.118924	0.085374
Cu16	Cu	1.484717	0.618924	0.585374
Cu17	Cu	0.993413	0.110266	-0.085232
Cu18	Cu	1.493413	0.610266	0.414768
O19	O	0.978699	0.240147	0.072203
O20	O	1.478699	0.740147	0.572203
C21	C	0.835982	0.120707	0.000060
C22	C	1.335982	0.620707	0.500060
C23	C	0.743032	0.119055	0.000054
C24	C	1.243032	0.619055	0.500054
C25	C	0.405285	0.113124	0.000072
C26	C	0.905285	0.613124	0.500072
C27	C	0.452722	0.021586	0.000393
C28	C	0.952722	0.521586	0.500393
C29	C	0.549428	0.023221	0.000062
C30	C	1.049428	0.523221	0.500062
C31	C	0.572845	0.116066	0.000063
C32	C	1.072845	0.616066	0.500063
C33	C	0.535947	0.157043	-0.082314
C34	C	1.035947	0.657043	0.417686
C35	C	0.439315	0.154740	-0.082376
C36	C	0.939315	0.654740	0.417624
C37	C	0.430614	0.164957	0.081676
C38	C	0.930614	0.664957	0.581676
C39	C	0.527505	0.164990	0.082759
C40	C	1.027505	0.664990	0.582759
C41	C	0.667543	0.117733	0.000056
C42	C	1.167543	0.617733	0.500056
C43	C	0.310587	0.111459	0.000073
C44	C	0.810587	0.611459	0.500073
C45	C	0.995210	-0.038492	0.000068
C46	C	1.495210	0.461508	0.500068
C47	C	0.993578	-0.131445	0.000062
C48	C	1.493578	0.368555	0.500062
C49	C	0.987576	-0.469183	0.000069
C50	C	1.487576	0.030817	0.500069
C51	C	1.080364	-0.445854	0.000398
C52	C	1.580364	0.054146	0.500398
C53	C	1.082144	-0.349195	0.000070
C54	C	1.582144	0.150805	0.500070
C55	C	0.990554	-0.301627	0.000066
C56	C	1.490554	0.198373	0.500066
C57	C	0.948355	-0.334909	-0.082315
C58	C	1.448355	0.165091	0.417685
C59	C	0.947241	-0.431703	-0.082381
C60	C	1.447241	0.068297	0.417619
C61	C	0.936985	-0.423235	0.081671
C62	C	1.436985	0.076765	0.581671
C63	C	0.940368	-0.326687	0.082757
C64	C	1.440368	0.173313	0.582757
C65	C	0.992232	-0.206931	0.000061
C66	C	1.492232	0.293069	0.500061
C67	C	0.985895	-0.563879	0.000068
C68	C	1.485895	-0.063879	0.500068
C69	C	1.142148	0.108483	0.000080
C70	C	1.642148	0.608483	0.500080
C71	C	1.235098	0.110135	0.000081
C72	C	1.735098	0.610135	0.500081
C73	C	0.982920	0.267682	0.000072
C74	C	1.482920	0.767682	0.500072
C75	C	0.984552	0.360635	0.000073
C76	C	1.484552	0.860635	0.500073
N77	N	0.978607	0.125013	0.205369
N78	N	1.478607	0.625013	0.705369
N79	N	0.999529	0.104170	-0.205227
N80	N	1.499529	0.604170	0.294773
C81	C	1.033251	0.070419	0.250767
C82	C	1.533251	0.570419	0.750767
C83	C	1.028638	0.075031	0.341574
C84	C	1.528638	0.575031	0.841574
C85	C	0.969385	0.134243	0.386983
C86	C	1.469385	0.634243	0.886983
C87	C	0.914736	0.188840	0.341579
C88	C	1.414736	0.688840	0.841579
C89	C	0.919345	0.184223	0.250773
C90	C	1.419345	0.684223	0.750773
C91	C	0.949489	0.154150	0.658563
C92	C	1.449489	0.654150	1.158563
C93	C	0.944886	0.158765	0.749376
C94	C	1.444886	0.658765	1.249376
C95	C	1.058787	0.044955	0.749365
C96	C	1.558787	0.544955	1.249365
C97	C	1.063395	0.040346	0.658557
C98	C	1.563395	0.540346	1.158557
C99	C	1.008742	0.094940	0.613161
C100	C	1.508742	0.594940	1.113161
N101	N	0.964670	0.138961	0.479803
N102	N	1.464670	0.638961	0.979803
N103	N	1.013454	0.090217	0.520343
N104	N	1.513454	0.590217	1.020343
H105	H	0.431196	-0.012013	0.059468
H106	H	0.931196	0.487987	0.559468
Cl107	Cl	0.550805	0.269917	0.090442
Cl108	Cl	1.050805	0.769917	0.590442
Cl109	Cl	0.394012	0.123634	0.178079
Cl110	Cl	0.894012	0.623634	0.678079
Cl111	Cl	0.880789	0.222784	0.601500
Cl112	Cl	1.380789	0.722784	1.101500
Cl113	Cl	0.976898	-0.462032	0.178075
Cl114	Cl	1.476898	0.037968	0.678075
Cl115	Cl	0.381513	0.269219	0.082539
Cl116	Cl	0.881513	0.769219	0.582539
H117	H	1.081504	0.022206	0.213801
H118	H	1.581504	0.522206	0.713801
Cl119	Cl	0.870390	0.233211	0.806455
Cl120	Cl	1.370390	0.733211	1.306455
Cl121	Cl	0.597087	-0.036354	-0.091425
Cl122	Cl	1.097087	0.463646	0.408575
Cl123	Cl	0.564790	0.118786	0.176849
Cl124	Cl	1.064790	0.618786	0.676849
H125	H	1.118930	-0.477853	-0.058345
H126	H	1.618930	0.022147	0.441655
H127	H	0.982513	-0.461644	-0.143960
H128	H	1.482513	0.038356	0.356040
H129	H	1.115472	-0.327173	0.059123
H130	H	1.615472	0.172827	0.559123
Cl131	Cl	0.831476	-0.444793	0.082526
Cl132	Cl	1.331476	0.055207	0.582526
H133	H	0.567453	0.122567	-0.143621
H134	H	1.067453	0.622567	0.356379
Cl135	Cl	1.097333	0.006396	0.398647
Cl136	Cl	1.597333	0.506396	0.898647
Cl137	Cl	1.130948	-0.484450	0.091612
Cl138	Cl	1.630948	0.015550	0.591612
Cl139	Cl	0.427102	-0.039266	-0.090307
Cl140	Cl	0.927102	0.460734	0.409693
H141	H	1.121711	-0.333792	-0.059083
H142	H	1.621711	0.166208	0.440917
H143	H	0.879387	-0.446443	-0.086117
H144	H	1.379387	0.053557	0.413883
H145	H	0.881113	-0.303197	-0.085381
H146	H	1.381113	0.196803	0.414619
Cl147	Cl	0.840241	0.263275	0.398662
Cl148	Cl	1.340241	0.763275	0.898662
H149	H	0.874848	0.228678	0.213812
H150	H	1.374848	0.728678	0.713812
H151	H	1.111643	-0.007869	0.621587
H152	H	1.611643	0.492131	1.121587
Cl153	Cl	0.415901	0.099071	-0.177449
Cl154	Cl	0.915901	0.599071	0.322551
Cl155	Cl	0.588689	-0.026959	0.091230
Cl156	Cl	1.088689	0.473041	0.591230
H157	H	0.873263	-0.293465	0.087729
H158	H	1.373263	0.206535	0.587729
Cl159	Cl	1.127485	-0.023676	0.806437
Cl160	Cl	1.627485	0.476324	1.306437
H161	H	0.983699	-0.317960	-0.143620
H162	H	1.483699	0.182040	0.356380
H163	H	0.971047	-0.305029	0.143702
H164	H	1.471047	0.194971	0.643702
H165	H	0.550214	0.225099	-0.085376
H166	H	1.050214	0.725099	0.414624
Cl167	Cl	0.389795	0.258223	-0.088149
Cl168	Cl	0.889795	0.758223	0.411851
