data_functionalizedCrystal
_audit_creation_method	'MofGen! by Chris Wilmer'
_symmetry_space_group_name_H-M	'P1'
_symmetry_Int_Tables_number	1
_symmetry_cell_setting	triclinic
loop_
_symmetry_equiv_pos_as_xyz
  x,y,z
_cell_length_a	18.760487
_cell_length_b	14.560438
_cell_length_c	14.560438
_cell_angle_alpha	59.997697
_cell_angle_beta	60.021725
_cell_angle_gamma	90.035998
loop_
_atom_site_label
_atom_site_type_symbol
_atom_site_fract_x
_atom_site_fract_y
_atom_site_fract_z
Zr1	Zr	0.686688	-0.120044	1.005311
O2	O	0.572872	-0.266793	1.196916
O3	O	0.721578	-0.075049	0.813703
O4	O	0.721579	-0.266663	1.005308
O5	O	0.572873	0.075959	1.005314
O6	O	0.838881	-0.266570	1.005308
O7	O	0.572872	-0.075180	1.005312
O8	O	0.838881	0.076192	0.662562
O9	O	0.572873	-0.266803	1.348060
O10	O	0.824001	-0.055801	0.892515
O11	O	0.736460	0.056923	0.892517
O12	O	0.736460	-0.168677	1.118107
O13	O	0.648919	-0.055954	1.118109
Zr14	Zr	0.873774	0.121152	1.005314
Zr15	Zr	0.873773	-0.119896	1.005310
Zr16	Zr	0.686689	0.121004	1.005315
Zr17	Zr	0.686690	-0.120060	1.246368
Zr18	Zr	0.873772	0.121168	0.764257
O19	O	0.838884	0.076157	1.196922
O20	O	0.838883	-0.266582	1.196916
O21	O	0.572874	0.075946	1.196922
O22	O	0.987590	0.267901	0.813708
O23	O	0.987588	-0.074839	0.813703
O24	O	0.721580	0.267690	0.813709
O25	O	0.987590	-0.074851	1.005311
O26	O	0.838884	0.267771	1.005317
O27	O	0.721581	0.267678	1.005317
O28	O	0.987590	0.076287	1.005313
O29	O	0.721580	-0.266685	1.348060
O30	O	0.838882	0.267793	0.662565
O31	O	0.987589	0.267911	0.662565
O32	O	0.987588	0.076309	0.662561
O33	O	0.572874	-0.075202	1.348064
O34	O	0.721581	-0.075084	1.348063
O35	O	0.824002	0.169785	0.892518
O36	O	0.911543	0.057062	0.892516
O37	O	0.824002	-0.055815	1.118108
O38	O	0.736461	0.056908	1.118110
C39	C	0.546217	0.000368	1.005313
C40	C	0.466794	0.000305	1.005313
C41	C	0.780229	0.000573	0.703787
C42	C	0.780229	0.000580	0.601452
C43	C	0.780232	0.302068	1.005318
C44	C	0.780233	0.404400	1.005319
C45	C	0.085282	-0.058171	1.123074
C46	C	0.176681	0.059674	0.887552
C47	C	0.251303	0.059578	0.887550
C48	C	0.242917	0.000605	1.005312
C49	C	0.159910	-0.058272	1.123076
C50	C	0.334315	0.118444	0.769788
C51	C	0.408944	0.118348	0.769781
C52	C	0.400559	0.059381	0.887545
C53	C	0.317545	0.000503	1.005313
C54	C	0.309159	-0.058470	1.123075
C55	C	0.226146	-0.117342	1.240845
C56	C	0.151525	-0.117239	1.240839
C57	C	0.475180	0.059279	0.887551
C58	C	0.383787	-0.058571	1.123077
C59	C	1.014245	0.000739	1.005312
C60	C	1.093668	0.000802	1.005312
C61	C	0.780230	-0.300960	1.005307
C62	C	0.780229	-0.403292	1.005306
C63	C	0.734538	0.393557	1.123074
C64	C	0.734534	0.489712	1.123068
C65	C	0.825925	0.607548	0.887542
C66	C	0.825924	0.511394	0.887549
C67	C	0.715604	-0.082752	0.636665
C68	C	0.715607	-0.082781	0.540525
C69	C	0.844865	0.083865	0.373961
C70	C	0.844864	0.083888	0.470100
C71	C	0.780233	0.000535	1.306838
C72	C	0.780233	0.000528	1.409173
C73	C	1.014244	0.000759	0.703787
C74	C	1.093665	0.000828	0.601451
C75	C	0.780231	0.302088	0.703792
C76	C	0.780230	0.404425	0.601459
C77	C	1.014245	0.302273	0.703792
C78	C	1.093667	0.404674	0.601458
C79	C	0.546217	-0.301165	1.306833
C80	C	0.466795	-0.403566	1.409167
C81	C	0.546218	0.000349	1.306838
C82	C	0.466797	0.000279	1.409174
C83	C	0.780232	-0.300980	1.306833
C84	C	0.780232	-0.403318	1.409166
C85	C	1.085266	-0.058062	0.553393
C86	C	1.159884	-0.058019	0.457251
C87	C	1.242901	0.000921	0.409164
C88	C	1.251298	0.059813	0.457232
C89	C	1.176681	0.059763	0.553378
C90	C	1.176668	0.393922	0.553400
C91	C	1.251301	0.490129	0.457261
C92	C	1.242931	0.597087	0.409174
C93	C	1.159921	0.607837	0.457241
C94	C	1.085290	0.511631	0.553386
C95	C	0.383794	-0.392814	1.457236
C96	C	0.309161	-0.489021	1.553406
C97	C	0.317532	-0.595979	1.601498
C98	C	0.400541	-0.606729	1.553424
C99	C	0.475172	-0.510523	1.457263
C100	C	0.475196	0.059160	1.457242
C101	C	0.400578	0.059090	1.553410
C102	C	0.317562	0.000147	1.601501
C103	C	0.309164	-0.058741	1.553429
C104	C	0.383782	-0.058677	1.457269
C105	C	0.825926	0.511417	0.553381
C106	C	0.825916	0.607570	0.457237
C107	C	0.734514	0.489727	0.457253
C108	C	0.734519	0.393576	0.553402
H109	H	0.376948	-0.106583	1.218974
C110	C	0.374532	-0.123434	1.404387
H111	H	0.314402	-0.158533	1.446797
H112	H	0.401739	-0.179135	1.420131
H113	H	0.401734	-0.072573	1.313607
C114	C	0.566469	-0.522364	1.404381
H115	H	0.560757	-0.599845	1.446791
H116	H	0.597498	-0.487284	1.420123
H117	H	0.597470	-0.487287	1.313600
H118	H	0.256811	0.000104	1.679800
C119	C	0.876178	0.725260	0.404352
H120	H	0.869622	0.780973	0.340217
H121	H	0.936299	0.733752	0.366833
H122	H	0.853608	0.733667	0.473390
H123	H	0.697299	0.480907	0.418111
H124	H	0.407346	-0.693826	1.592593
H125	H	1.318884	0.481356	0.418134
C126	C	0.217845	-0.123564	1.606328
H127	H	0.174615	-0.115151	1.670469
H128	H	0.211281	-0.201036	1.643844
H129	H	0.211294	-0.094473	1.537298
C130	C	0.684248	0.275879	0.606296
H131	H	0.657031	0.283187	0.563895
H132	H	0.641011	0.235891	0.697075
H133	H	0.723694	0.235954	0.590531
C134	C	0.876191	0.523351	0.606260
H135	H	0.903395	0.600845	0.563864
H136	H	0.919437	0.488331	0.590503
H137	H	0.836740	0.488255	0.697043
H138	H	0.542785	0.107166	1.418094
C139	C	0.343540	0.183311	0.640260
H140	H	0.403664	0.218350	0.570123
H141	H	0.316399	0.239069	0.635367
H142	H	0.316256	0.132526	0.635367
H143	H	0.219328	-0.165364	1.336727
C144	C	0.684274	0.275867	1.252611
H145	H	0.690823	0.220151	1.235754
H146	H	0.624156	0.267382	1.300996
H147	H	0.706847	0.267454	1.300993
H148	H	0.083931	-0.165169	1.336721
H149	H	0.407432	0.107048	1.592535
C150	C	0.644516	-0.174442	0.579263
H151	H	0.606021	-0.224045	0.671259
H152	H	0.671058	-0.215565	0.545240
H153	H	0.612597	-0.140262	0.545205
H154	H	0.017690	-0.106099	1.218959
H155	H	0.697324	0.480875	1.218955
H156	H	0.476530	0.166284	0.673886
H157	H	0.183502	0.107683	0.791675
H158	H	1.318899	0.107800	0.418065
H159	H	0.542765	0.107221	0.791665
H160	H	0.241579	-0.480247	1.592531
C161	C	1.185930	0.124562	0.606217
H162	H	1.246060	0.159678	0.563791
H163	H	1.158723	0.073736	0.696996
H164	H	1.158728	0.180271	0.590433
C165	C	0.235436	-0.701800	1.707267
H166	H	0.252302	-0.767045	1.729036
H167	H	0.201677	-0.701818	1.675745
H168	H	0.201684	-0.701823	1.782286
C169	C	0.876194	0.725240	0.758006
H170	H	0.869660	0.780954	0.774865
H171	H	0.853632	0.733663	0.709614
H172	H	0.936316	0.733715	0.709631
H173	H	0.863133	0.520231	0.791654
H174	H	1.017710	0.520401	0.592502
H175	H	0.897488	0.151692	0.267005
C176	C	0.644514	-0.174394	0.781145
H177	H	0.606031	-0.224033	0.788343
H178	H	0.612592	-0.140209	0.822103
H179	H	0.671065	-0.215496	0.822120
C180	C	1.325029	0.702904	0.303407
H181	H	1.375658	0.681172	0.281669
H182	H	1.325047	0.746409	0.334909
H183	H	1.325041	0.746402	0.228374
C184	C	0.915953	0.175560	0.431365
H185	H	0.954440	0.225182	0.339369
H186	H	0.947871	0.141389	0.465421
H187	H	0.889400	0.216678	0.465396
H188	H	1.017677	-0.106072	0.592545
H189	H	1.153030	-0.105976	0.418126
C190	C	1.324972	0.000979	0.303394
H191	H	1.308072	-0.042529	0.281656
H192	H	1.358739	-0.030518	0.334893
H193	H	1.358727	0.076027	0.228362
H194	H	1.183500	0.306840	0.592538
H195	H	1.153118	0.694935	0.418075
H196	H	0.376962	-0.305732	1.418085
