data_functionalizedCrystal
_audit_creation_method	'MofGen! by Chris Wilmer'
_symmetry_space_group_name_H-M	'P1'
_symmetry_Int_Tables_number	1
_symmetry_cell_setting	triclinic
loop_
_symmetry_equiv_pos_as_xyz
  x,y,z
_cell_length_a	6.817900
_cell_length_b	11.102288
_cell_length_c	11.102291
_cell_angle_alpha	91.949285
_cell_angle_beta	108.605752
_cell_angle_gamma	108.605689
loop_
_atom_site_label
_atom_site_type_symbol
_atom_site_fract_x
_atom_site_fract_y
_atom_site_fract_z
V1	V	-4.111539	-0.175855	-0.396259
O2	O	-4.070571	0.008434	-0.388716
O3	O	-4.088316	-0.348675	-0.393549
O4	O	-4.088324	-0.173157	-0.569081
O5	O	-4.070563	-0.168299	-0.211968
V6	V	-4.588641	-0.153811	-0.374216
O7	O	-4.386882	-0.224210	-0.444611
O8	O	-4.763495	-0.105456	-0.325864
O9	O	-4.388657	0.019009	-0.376926
O10	O	-4.747006	-0.338100	-0.381760
O11	O	-4.747013	-0.161367	-0.558507
O12	O	-4.388650	-0.156509	-0.201394
C13	C	-3.938627	-0.390805	-0.387298
C14	C	-4.001094	-0.532088	-0.386234
C15	C	-4.214449	-0.604936	-0.392075
C16	C	-4.273137	-0.737688	-0.391086
C17	C	-3.905090	-0.724729	-0.378409
C18	C	-3.846410	-0.591981	-0.379407
C19	C	-3.938635	-0.166913	-0.611205
C20	C	-4.001104	-0.165850	-0.752488
C21	C	-4.214459	-0.171690	-0.825336
C22	C	-4.273130	-0.170667	-0.958082
C23	C	-3.905073	-0.157970	-0.945121
C24	C	-3.846401	-0.158984	-0.812376
C25	C	-4.426957	-0.179026	-0.832821
C26	C	-4.485628	-0.178003	-0.965567
C27	C	-4.201689	0.061132	-0.383174
C28	C	-4.118462	0.202414	-0.384246
C29	C	-4.201680	-0.162758	-0.159264
C30	C	-4.118448	-0.163813	-0.017979
H31	H	-4.340405	-0.556175	-0.397632
H32	H	-3.672673	-0.154230	-0.753068
H33	H	-4.522090	-0.087766	-0.994669
H34	H	-4.629325	-0.269897	-1.018414
H35	H	-3.779159	-0.773510	-0.372848
F36	F	-3.740444	-0.150664	-1.008870
H37	H	-3.672667	-0.532666	-0.374656
F38	F	-4.452395	-0.066275	-0.771256
H39	H	-4.446867	-0.796996	-0.395844
F40	F	-4.551645	-0.302905	-0.800839
