data_functionalizedCrystal
_audit_creation_method	'MofGen! by Chris Wilmer'
_symmetry_space_group_name_H-M	'P1'
_symmetry_Int_Tables_number	1
_symmetry_cell_setting	triclinic
loop_
_symmetry_equiv_pos_as_xyz
  x,y,z
_cell_length_a	17.077396
_cell_length_b	17.077404
_cell_length_c	17.077402
_cell_angle_alpha	89.983028
_cell_angle_beta	89.972472
_cell_angle_gamma	90.020945
loop_
_atom_site_label
_atom_site_type_symbol
_atom_site_fract_x
_atom_site_fract_y
_atom_site_fract_z
Zn1	Zn	-0.443878	-1.200051	-0.312645
Zn2	Zn	-0.312614	-1.199957	-0.443920
Zn3	Zn	-0.312623	-1.068783	-0.312657
Zn4	Zn	-0.443835	-1.068750	-0.443858
O5	O	-0.378237	-1.134385	-0.378270
O6	O	-0.426480	-1.309886	-0.330079
O7	O	-0.202768	-1.182531	-0.426538
O8	O	-0.330056	-1.086250	-0.202808
O9	O	-0.330041	-1.309816	-0.426527
O10	O	-0.426489	-1.182692	-0.202799
O11	O	-0.202775	-1.086158	-0.330100
O12	O	-0.330014	-0.958932	-0.330040
O13	O	-0.553687	-1.086193	-0.426421
O14	O	-0.426414	-0.958907	-0.426433
O15	O	-0.553719	-1.182659	-0.330019
O16	O	-0.329999	-1.182499	-0.553758
O17	O	-0.426406	-1.086101	-0.553713
C18	C	-0.378211	-0.930437	-0.378231
C19	C	-0.378218	-0.843188	-0.378234
C20	C	-0.582982	-1.134433	-0.378212
C21	C	-0.670232	-1.134453	-0.378187
C22	C	-0.428363	-0.467381	-0.428551
C23	C	-0.428353	-0.549361	-0.428544
C24	C	-0.378239	-0.590339	-0.378272
C25	C	-0.328126	-0.549331	-0.328011
C26	C	-0.328133	-0.467352	-0.328023
C27	C	-0.328117	-0.720201	-0.327988
C28	C	-0.328111	-0.802186	-0.327974
C29	C	-0.428337	-0.802210	-0.428509
C30	C	-0.428344	-0.720231	-0.428521
C31	C	-0.378232	-0.679230	-0.378258
C32	C	-0.711240	-1.184685	-0.327987
C33	C	-0.793220	-1.184694	-0.327961
C34	C	-0.834191	-1.134475	-0.378139
C35	C	-0.793177	-1.084238	-0.428342
C36	C	-0.711198	-1.084225	-0.428364
C37	C	-0.964047	-1.084269	-0.428295
C38	C	-1.046032	-1.084283	-0.428275
C39	C	-1.046069	-1.184739	-0.327892
C40	C	-0.964090	-1.184726	-0.327913
C41	C	-0.923082	-1.134489	-0.378117
C42	C	-0.174290	-1.134383	-0.378271
C43	C	-0.087040	-1.134515	-0.378074
C44	C	-0.378214	-1.134307	-0.582218
C45	C	-0.378230	-1.134346	-0.669467
C46	C	-0.378260	-0.339129	-0.378300
C47	C	-0.378256	-0.426379	-0.378292
C48	C	-0.428483	-1.184536	-0.710385
C49	C	-0.428500	-1.184569	-0.792366
C50	C	-0.378259	-1.134415	-0.833427
C51	C	-0.328004	-1.084220	-0.792503
C52	C	-0.327992	-1.084183	-0.710524
C53	C	-0.328031	-1.084300	-0.963373
C54	C	-0.328042	-1.084337	-1.045358
C55	C	-0.428540	-1.184686	-1.045215
C56	C	-0.428527	-1.184649	-0.963236
C57	C	-0.378271	-1.134455	-0.922318
C58	C	-0.378278	-1.134485	-0.173525
C59	C	-0.378295	-1.134527	-0.086276
H60	H	-0.469154	-0.582741	-0.469472
H61	H	-0.930734	-1.225623	-0.287058
C62	C	-0.272711	-1.028975	-0.665511
C63	C	-0.217444	-0.973808	-0.710672
C64	C	-0.162165	-0.918595	-0.665660
C65	C	-0.162152	-0.918550	-0.575487
C66	C	-0.217420	-0.973719	-0.530320
C67	C	-0.272700	-1.028932	-0.575332
H68	H	-0.217452	-0.973840	-0.777429
H69	H	-0.121251	-0.877755	-0.699096
H70	H	-0.121230	-0.877678	-0.542166
H71	H	-0.217412	-0.973687	-0.463564
H72	H	-0.313613	-1.069772	-0.541896
H73	H	-1.079462	-1.225642	-0.287013
H74	H	-0.677887	-1.225582	-0.287128
C75	C	-0.483749	-1.239708	-0.665222
C76	C	-0.539029	-1.294913	-0.710235
C77	C	-0.594299	-1.350085	-0.665074
C78	C	-0.594288	-1.350051	-0.574901
C79	C	-0.539006	-1.294844	-0.529883
C80	C	-0.483736	-1.239672	-0.575043
H81	H	-0.539039	-1.294939	-0.776991
H82	H	-0.635222	-1.390953	-0.698400
H83	H	-0.635201	-1.390893	-0.541470
H84	H	-0.538996	-1.294818	-0.463126
H85	H	-0.442813	-1.198804	-0.541718
H86	H	-0.677811	-1.043313	-0.469234
H87	H	-0.826542	-1.043345	-0.469196
H88	H	-0.826605	-1.225600	-0.287084
C89	C	-0.483791	-1.239817	-0.918064
C90	C	-0.545372	-1.205736	-0.861689
C91	C	-0.600637	-1.260902	-0.816515
C92	C	-0.594320	-1.350149	-0.827717
C93	C	-0.532737	-1.384234	-0.884095
C94	C	-0.477472	-1.329068	-0.929269
H95	H	-0.550050	-1.139667	-0.853394
H96	H	-0.646225	-1.235670	-0.774781
H97	H	-0.635231	-1.390986	-0.794278
H98	H	-0.528058	-1.450304	-0.892390
H99	H	-0.431883	-1.354301	-0.971003
H100	H	-0.469461	-1.225556	-1.078534
H101	H	-1.079388	-1.043388	-0.469133
C102	C	-0.272779	-1.029172	-1.090532
C103	C	-0.183546	-1.035619	-1.079316
C104	C	-0.128281	-0.980457	-1.124493
C105	C	-0.162250	-0.918847	-1.180887
C106	C	-0.251488	-0.912397	-1.192107
C107	C	-0.306752	-0.967559	-1.146929
H108	H	-0.158397	-1.081229	-1.037567
H109	H	-0.062222	-0.985232	-1.116188
H110	H	-0.121340	-0.878012	-1.214331
H111	H	-0.276637	-0.866787	-1.233855
H112	H	-0.372812	-0.962784	-1.155235
H113	H	-0.930661	-1.043349	-0.469164
H114	H	-0.469415	-1.225445	-0.825678
C115	C	-0.483467	-0.675152	-0.483819
C116	C	-0.545158	-0.618824	-0.449892
C117	C	-0.600280	-0.573744	-0.505192
C118	C	-0.593711	-0.584992	-0.594419
C119	C	-0.532018	-0.641323	-0.628351
C120	C	-0.476896	-0.686403	-0.573051
H121	H	-0.550023	-0.610496	-0.383836
H122	H	-0.645949	-0.532044	-0.480073
H123	H	-0.634515	-0.551621	-0.635356
H124	H	-0.527153	-0.649652	-0.694407
H125	H	-0.431227	-0.728103	-0.598170
C126	C	-0.273001	-0.675094	-0.272694
C127	C	-0.279579	-0.686381	-0.183465
C128	C	-0.224471	-0.641272	-0.128168
C129	C	-0.162786	-0.584876	-0.162100
C130	C	-0.156206	-0.573586	-0.251334
C131	C	-0.211313	-0.618695	-0.306631
H132	H	-0.325244	-0.728131	-0.158342
H133	H	-0.229343	-0.649629	-0.062111
H134	H	-0.121992	-0.551483	-0.121166
H135	H	-0.110541	-0.531836	-0.276457
H136	H	-0.206442	-0.610338	-0.372688
H137	H	-0.287110	-1.043423	-0.930060
H138	H	-0.287100	-1.043380	-0.825941
H139	H	-0.287333	-0.433970	-0.287094
H140	H	-0.469176	-0.434023	-0.469484
H141	H	-0.469142	-0.835598	-0.469433
H142	H	-0.287319	-0.582701	-0.287082
H143	H	-0.287311	-0.835547	-0.287031
