data_functionalizedCrystal
_audit_creation_method	'MofGen! by Chris Wilmer'
_symmetry_space_group_name_H-M	'P1'
_symmetry_Int_Tables_number	1
_symmetry_cell_setting	triclinic
loop_
_symmetry_equiv_pos_as_xyz
  x,y,z
_cell_length_a	14.044191
_cell_length_b	13.101039
_cell_length_c	10.654546
_cell_angle_alpha	93.385731
_cell_angle_beta	91.162349
_cell_angle_gamma	93.662449
loop_
_atom_site_label
_atom_site_type_symbol
_atom_site_fract_x
_atom_site_fract_y
_atom_site_fract_z
O1	O	1.264870	0.085203	-0.296678
O2	O	0.988829	0.085215	-0.285734
O3	O	1.133196	0.085178	-0.109107
O4	O	1.120503	0.085239	-0.473305
O5	O	1.122838	-0.085249	-0.121803
O6	O	0.978471	-0.085213	-0.298430
O7	O	1.254512	-0.085224	-0.309374
Zn8	Zn	1.114847	-0.112277	-0.305918
Zn9	Zn	1.128494	0.112268	-0.289190
O10	O	1.110145	-0.085188	-0.486001
C11	C	0.948304	0.000002	-0.287295
C12	C	0.842985	0.000005	-0.273016
C13	C	0.593192	0.000007	-0.348181
C14	C	0.650155	-0.000008	-0.246932
C15	C	0.757455	-0.000001	-0.261448
C16	C	0.485882	0.000000	-0.333666
N17	N	1.105540	-0.265524	-0.317333
C18	C	1.092878	-0.474563	-0.332877
C19	C	1.150468	-0.525453	-0.262226
C20	C	1.143422	-0.641770	-0.270874
C21	C	1.099922	-0.358236	-0.324230
C22	C	1.295037	-0.000009	-0.307813
C23	C	1.400357	-0.000006	-0.322091
C24	C	1.127085	-0.000041	-0.068564
C25	C	1.124297	-0.000058	0.071159
N26	N	1.137808	0.265514	-0.277765
C27	C	1.209298	-0.000075	0.142099
C28	C	1.206672	-0.000087	0.273383
C29	C	1.034038	-0.000068	0.262775
C30	C	1.036664	-0.000049	0.131494
C31	C	1.308967	-0.000090	0.148224
C32	C	1.306341	-0.000102	0.279508
C33	C	1.116256	-0.000003	0.473453
C34	C	1.119045	-0.000089	0.333724
H35	H	0.618343	0.000048	-0.149342
H36	H	0.625007	0.000027	-0.445758
H37	H	1.352286	0.071231	0.120260
C38	C	1.019108	-0.533705	-0.423331
H39	H	0.983888	-0.486482	-0.466511
H40	H	1.051132	-0.575562	-0.482482
H41	H	0.976773	-0.575555	-0.376783
H42	H	1.205064	-0.481665	-0.195246
H43	H	0.962690	-0.000060	0.311915
C44	C	0.943164	-0.000023	0.053464
H45	H	0.890600	-0.000030	0.108202
H46	H	0.944217	0.059415	0.006454
H47	H	0.936983	-0.059455	-0.002392
H48	H	1.336233	-0.073673	0.103925
H49	H	1.340935	0.073476	0.327604
H50	H	1.339561	-0.071432	0.312179
