data_functionalizedCrystal
_audit_creation_method	'MofGen! by Chris Wilmer'
_symmetry_space_group_name_H-M	'P1'
_symmetry_Int_Tables_number	1
_symmetry_cell_setting	triclinic
loop_
_symmetry_equiv_pos_as_xyz
  x,y,z
_cell_length_a	12.759401
_cell_length_b	10.686285
_cell_length_c	12.759393
_cell_angle_alpha	85.601950
_cell_angle_beta	89.980163
_cell_angle_gamma	85.633237
loop_
_atom_site_label
_atom_site_type_symbol
_atom_site_fract_x
_atom_site_fract_y
_atom_site_fract_z
Zn1	Zn	1.638389	-0.502223	-0.562006
Zn2	Zn	2.138389	-0.002223	-0.062006
Zn3	Zn	1.651787	-0.713267	-0.372874
Zn4	Zn	2.151787	-0.213267	0.127126
Zn5	Zn	1.462695	-0.502295	-0.386337
Zn6	Zn	1.962695	-0.002295	0.113663
Zn7	Zn	1.476177	-0.713175	-0.548517
Zn8	Zn	1.976177	-0.213175	-0.048517
O9	O	1.557262	-0.607740	-0.467434
O10	O	2.057262	-0.107740	0.032566
O11	O	1.787188	-0.530227	-0.536929
O12	O	2.287188	-0.030227	-0.036929
O13	O	1.626668	-0.685349	-0.227634
O14	O	2.126668	-0.185349	0.272366
O15	O	1.474753	-0.325709	-0.420920
O16	O	1.974753	0.174291	0.079080
O17	O	1.797031	-0.685280	-0.397974
O18	O	2.297031	-0.185280	0.102026
O19	O	1.603834	-0.325656	-0.549983
O20	O	2.103834	0.174344	-0.049983
O21	O	1.487744	-0.530349	-0.237526
O22	O	1.987744	-0.030349	0.262474
O23	O	1.317462	-0.530259	-0.407840
O24	O	1.817462	-0.030259	0.092160
O25	O	1.497730	-0.685123	-0.697332
O26	O	1.997730	-0.185123	-0.197332
O27	O	1.327367	-0.685192	-0.526992
O28	O	1.827367	-0.185192	-0.026992
O29	O	1.616906	-0.530138	-0.707243
O30	O	2.116906	-0.030138	-0.207243
O31	O	1.639740	-0.889831	-0.384893
O32	O	2.139740	-0.389831	0.115107
O33	O	1.510721	-0.889763	-0.513938
O34	O	2.010721	-0.389763	-0.013938
C35	C	1.284294	-0.607724	-0.467414
C36	C	1.784294	-0.107724	0.032586
C37	C	1.167518	-0.607748	-0.467428
C38	C	1.667518	-0.107748	0.032572
C39	C	1.117849	-0.688544	-0.529358
C40	C	1.617849	-0.188544	-0.029358
C41	C	1.008125	-0.688549	-0.529378
C42	C	1.508125	-0.188549	-0.029378
C43	C	0.997750	-0.526958	-0.405531
C44	C	1.497750	-0.026958	0.094469
C45	C	1.107471	-0.526948	-0.405517
C46	C	1.607471	-0.026948	0.094483
C47	C	1.578176	-0.935581	-0.446514
C48	C	2.078176	-0.435581	0.053486
C49	C	1.587219	-1.075833	-0.437599
C50	C	2.087219	-0.575833	0.062401
C51	C	1.831296	-0.607756	-0.467454
C52	C	2.331296	-0.107756	0.032546
C53	C	1.948073	-0.607763	-0.467463
C54	C	2.448073	-0.107763	0.032537
C55	C	1.557327	-0.607612	-0.741475
C56	C	2.057327	-0.107612	-0.241475
C57	C	1.557355	-0.607558	-0.858255
C58	C	2.057355	-0.107558	-0.358255
C59	C	1.536295	-0.278618	-0.488458
C60	C	2.036295	0.221382	0.011542
C61	C	1.527360	-0.138366	-0.497418
C62	C	2.027360	0.361634	0.002582
C63	C	1.485040	-0.526834	-0.918268
C64	C	1.985040	-0.026834	-0.418268
C65	C	1.485062	-0.526796	-1.027995
C66	C	1.985062	-0.026796	-0.527995
C67	C	1.629723	-0.688207	-1.017686
C68	C	2.129723	-0.188207	-0.517686
C69	C	1.629695	-0.688251	-0.907961
C70	C	2.129695	-0.188251	-0.407961
C71	C	1.557252	-0.607776	-0.194464
C72	C	2.057252	-0.107776	0.305536
C73	C	1.557405	-0.607475	-0.077707
C74	C	2.057405	-0.107475	0.422293
H75	H	0.967690	-0.754340	-0.579809
H76	H	1.467690	-0.254340	-0.079809
H77	H	1.426136	-0.461129	-0.877802
H78	H	1.926136	0.038871	-0.377802
H79	H	1.469195	-1.084607	-0.555452
H80	H	1.969195	-0.584607	-0.055452
F81	F	1.706710	-0.774080	-1.070596
F82	F	2.206710	-0.274080	-0.570596
F83	F	1.663241	-1.146105	-0.361728
F84	F	2.163241	-0.646105	0.138272
F85	F	1.408084	-0.440892	-1.091860
F86	F	1.908084	0.059108	-0.591860
H87	H	1.147912	-0.461146	-0.355087
H88	H	1.647912	0.038854	0.144913
F89	F	1.181752	-0.774536	-0.595252
F90	F	1.681752	-0.274536	-0.095252
F91	F	0.933834	-0.440971	-0.339643
F92	F	1.433834	0.059029	0.160357
F93	F	1.706663	-0.774177	-0.844086
F94	F	2.206663	-0.274177	-0.344086
