data_functionalizedCrystal
_audit_creation_method	'MofGen! by Chris Wilmer'
_symmetry_space_group_name_H-M	'P1'
_symmetry_Int_Tables_number	1
_symmetry_cell_setting	triclinic
loop_
_symmetry_equiv_pos_as_xyz
  x,y,z
_cell_length_a	18.101398
_cell_length_b	16.625546
_cell_length_c	16.625539
_cell_angle_alpha	90.030397
_cell_angle_beta	89.974087
_cell_angle_gamma	89.982266
loop_
_atom_site_label
_atom_site_type_symbol
_atom_site_fract_x
_atom_site_fract_y
_atom_site_fract_z
Zn1	Zn	1.132177	0.321102	-0.456013
Zn2	Zn	1.132088	0.455945	-0.321175
Zn3	Zn	1.008333	0.321119	-0.321181
Zn4	Zn	1.008305	0.455885	-0.455952
O5	O	1.070226	0.388513	-0.388580
O6	O	1.235798	0.339007	-0.438149
O7	O	1.115646	0.438092	-0.208343
O8	O	1.024809	0.208284	-0.339094
O9	O	1.235733	0.438076	-0.339084
O10	O	1.115797	0.208272	-0.438154
O11	O	1.024723	0.339036	-0.208347
O12	O	0.904696	0.338978	-0.339035
O13	O	1.024763	0.437974	-0.568793
O14	O	0.904676	0.437990	-0.438051
O15	O	1.115771	0.338949	-0.568837
O16	O	1.115620	0.568770	-0.339026
O17	O	1.024677	0.568725	-0.438046
C18	C	1.070156	0.598004	-0.388546
C19	C	1.070193	0.687625	-0.388559
C20	C	0.877815	0.388480	-0.388538
C21	C	0.795501	0.388485	-0.388539
C22	C	1.070274	0.388453	-0.598889
C23	C	1.070294	0.388427	-0.688510
C24	C	0.496410	0.388536	-0.388607
C25	C	0.527723	0.325929	-0.326612
C26	C	0.613341	0.326097	-0.326348
C27	C	0.644793	0.388510	-0.388573
C28	C	0.613686	0.473447	-0.365354
C29	C	0.528041	0.473099	-0.364923
C30	C	0.528024	0.366944	-0.473966
C31	C	0.613675	0.365053	-0.473500
C32	C	0.728652	0.388501	-0.388556
C33	C	0.412551	0.388551	-0.388622
C34	C	1.263388	0.388546	-0.388623
C35	C	1.345702	0.388560	-0.388641
C36	C	1.070316	0.178204	-0.388632
C37	C	1.070355	0.088583	-0.388654
C38	C	1.070323	1.015800	-0.388643
C39	C	1.070284	0.924492	-0.388622
C40	C	1.070257	0.851715	-0.388600
C41	C	1.070220	0.760401	-0.388580
C42	C	1.070329	0.388337	-1.016686
C43	C	1.070317	0.388365	-0.925378
C44	C	1.070312	0.388383	-0.852601
C45	C	1.070300	0.388409	-0.761287
C46	C	1.070220	0.388514	-0.179089
C47	C	1.070343	0.388313	-0.089469
H48	H	0.634374	0.263112	-0.340902
O49	O	0.500591	0.536983	-0.422116
H50	H	0.466561	0.508508	-0.469789
O51	O	0.640668	0.536901	-0.423285
H52	H	0.676625	0.508505	-0.469348
O53	O	0.640614	0.282261	-0.496698
H54	H	0.618382	0.266127	-0.556784
O55	O	0.642055	0.498128	-0.283591
H56	H	0.619685	0.558280	-0.267845
O57	O	0.642018	0.421074	-0.537957
H58	H	0.703239	0.417928	-0.540082
H59	H	0.506444	0.306086	-0.495077
O60	O	0.501196	0.427335	-0.535160
H61	H	0.520237	0.488366	-0.517769
H62	H	0.633795	0.340370	-0.263097
O63	O	0.500414	0.242258	-0.345661
H64	H	0.518819	0.224954	-0.406968
O65	O	0.499204	0.344629	-0.243309
H66	H	0.462823	0.398319	-0.245868
H67	H	0.508030	0.491410	-0.302521
