data_functionalizedCrystal
_audit_creation_method	'MofGen! by Chris Wilmer'
_symmetry_space_group_name_H-M	'P1'
_symmetry_Int_Tables_number	1
_symmetry_cell_setting	triclinic
loop_
_symmetry_equiv_pos_as_xyz
  x,y,z
_cell_length_a	11.792241
_cell_length_b	8.559649
_cell_length_c	7.681481
_cell_angle_alpha	94.930900
_cell_angle_beta	84.232897
_cell_angle_gamma	76.986040
loop_
_atom_site_label
_atom_site_type_symbol
_atom_site_fract_x
_atom_site_fract_y
_atom_site_fract_z
O1	O	-1.474850	-0.233845	-0.146253
O2	O	-1.142441	-0.256403	-0.146293
O3	O	-1.337931	-0.012775	-0.146267
O4	O	-1.279360	-0.477473	-0.146278
O5	O	-1.361999	0.017279	0.146594
O6	O	-1.166509	-0.226348	0.146568
O7	O	-1.498918	-0.203790	0.146608
Zn8	Zn	-1.336535	-0.210298	0.193086
Zn9	Zn	-1.304825	-0.249896	-0.192771
O10	O	-1.303428	-0.447418	0.146583
C11	C	-1.112313	-0.239960	0.000132
C12	C	-0.986687	-0.235721	0.000117
C13	C	-1.354404	0.061743	0.000160
C14	C	-1.367615	0.239008	0.000152
C15	C	-1.529045	-0.220234	0.000179
C16	C	-1.654671	-0.224474	0.000183
C17	C	-0.756692	-0.227918	0.000168
C18	C	-0.884679	-0.232253	0.000140
C19	C	-1.286955	-0.521937	0.000151
C20	C	-1.273743	-0.699203	0.000148
N21	N	-1.358184	-0.183272	0.456423
N22	N	-1.283185	-0.276909	-0.456108
H23	H	-1.183267	0.218083	0.000143
H24	H	-1.458099	0.321733	0.000177
H25	H	-1.206627	-0.372485	0.468685
H26	H	-1.434755	-0.087701	0.531639
