data_functionalizedCrystal
_audit_creation_method	'MofGen! by Chris Wilmer'
_symmetry_space_group_name_H-M	'P1'
_symmetry_Int_Tables_number	1
_symmetry_cell_setting	triclinic
loop_
_symmetry_equiv_pos_as_xyz
  x,y,z
_cell_length_a	16.992694
_cell_length_b	10.540539
_cell_length_c	15.455313
_cell_angle_alpha	92.694186
_cell_angle_beta	87.142206
_cell_angle_gamma	87.596857
loop_
_atom_site_label
_atom_site_type_symbol
_atom_site_fract_x
_atom_site_fract_y
_atom_site_fract_z
O1	O	1.045302	0.264111	-0.072015
O2	O	0.817001	0.261155	-0.072041
O3	O	0.936360	0.078379	-0.072026
O4	O	0.925943	0.446887	-0.072030
O5	O	0.929534	0.088785	0.072235
O6	O	0.810175	0.271561	0.072220
O7	O	1.038476	0.274517	0.072246
Cu8	Cu	0.923702	0.273989	0.085405
Cu9	Cu	0.931774	0.261683	-0.085200
O10	O	0.919117	0.457293	0.072232
C11	C	0.784354	0.262557	0.000086
C12	C	0.697247	0.251216	0.000077
C13	C	0.647619	0.360636	0.000076
C14	C	0.565773	0.349973	0.000088
C15	C	0.533555	0.229889	0.000094
C16	C	0.583189	0.120461	0.000097
C17	C	0.665034	0.131125	0.000092
C18	C	0.289709	0.185692	0.000118
C19	C	0.207858	0.175036	0.000121
C20	C	0.190446	0.404549	0.000114
C21	C	0.272294	0.415202	0.000103
C22	C	0.321921	0.305774	0.000110
N23	N	0.449895	0.218988	0.000104
N24	N	0.405579	0.316677	0.000107
C25	C	0.932166	0.036211	0.000103
C26	C	0.929829	-0.104941	0.000098
C27	C	0.840284	-0.296163	-0.000236
C28	C	0.842638	-0.149316	0.000089
C29	C	0.967891	-0.157014	0.082483
C30	C	0.964912	-0.303812	0.082552
C31	C	0.974447	-0.316010	-0.081500
C32	C	0.975302	-0.169037	-0.082589
C33	C	1.071122	0.273115	0.000117
C34	C	1.158230	0.284456	0.000121
C35	C	0.923311	0.499461	0.000101
C36	C	0.925648	0.640612	0.000100
N37	N	0.918030	0.282645	0.205400
N38	N	0.937452	0.253018	-0.205195
C39	C	0.968756	0.205027	0.250801
C40	C	0.964474	0.211585	0.341608
C41	C	0.909469	0.295768	0.387013
C42	C	0.858738	0.373389	0.341607
C43	C	0.863017	0.366823	0.250801
C44	C	0.891000	0.324073	0.658593
C45	C	0.886727	0.330635	0.749405
C46	C	0.992462	0.168829	0.749400
C47	C	0.996739	0.162277	0.658592
C48	C	0.946005	0.239893	0.613193
N49	N	0.905093	0.302477	0.479833
N50	N	0.950379	0.233177	0.520375
H51	H	0.705441	0.042024	0.000091
Br52	Br	1.079457	-0.385679	-0.082414
Br53	Br	1.033314	0.106241	0.403226
H54	H	0.841933	0.399192	0.786370
Br55	Br	1.071392	0.048033	0.596969
H56	H	1.033766	0.105637	0.786371
H57	H	0.947484	-0.135239	-0.143535
Br58	Br	0.787531	-0.355909	-0.098710
Br59	Br	0.357049	0.037181	0.000130
Br60	Br	0.822151	0.429408	0.596985
Br61	Br	0.792266	-0.090175	-0.098344
H62	H	0.803202	-0.325110	0.058505
Br63	Br	0.164134	0.012055	0.000148
H64	H	0.150032	0.493639	0.000110
Br65	Br	0.691335	0.523614	0.000059
Br66	Br	0.794167	0.472158	0.189186
Br67	Br	0.539467	-0.042511	0.000114
H68	H	0.525368	0.439075	0.000087
Br69	Br	0.316012	0.578178	0.000085
H70	H	0.813948	0.441928	0.378581
H71	H	0.806591	-0.106178	0.059237
H72	H	0.930988	-0.330261	0.144129
H73	H	1.013550	0.136482	0.213837
H74	H	1.027442	-0.346069	0.086296
Br75	Br	1.074373	-0.110134	0.087605
Br76	Br	0.914478	-0.082864	0.184660
Br77	Br	0.932330	-0.380170	-0.185576
Br78	Br	1.081647	-0.120063	-0.090878
