data_functionalizedCrystal
_audit_creation_method	'MofGen! by Chris Wilmer'
_symmetry_space_group_name_H-M	'P1'
_symmetry_Int_Tables_number	1
_symmetry_cell_setting	triclinic
loop_
_symmetry_equiv_pos_as_xyz
  x,y,z
_cell_length_a	10.685194
_cell_length_b	14.908993
_cell_length_c	10.685910
_cell_angle_alpha	90.836557
_cell_angle_beta	98.389653
_cell_angle_gamma	97.914783
loop_
_atom_site_label
_atom_site_type_symbol
_atom_site_fract_x
_atom_site_fract_y
_atom_site_fract_z
Zn1	Zn	-0.346071	1.391703	0.574779
Zn2	Zn	-0.576455	1.366619	0.348128
Zn3	Zn	-0.374588	1.228347	0.374770
Zn4	Zn	-0.570556	1.228321	0.570674
O5	O	-0.466918	1.303747	0.467088
O6	O	-0.367166	1.514619	0.535282
O7	O	-0.564080	1.337790	0.174821
O8	O	-0.192376	1.260524	0.414170
O9	O	-0.536428	1.496190	0.368762
O10	O	-0.171425	1.380541	0.561116
O11	O	-0.415769	1.236202	0.194395
O12	O	-0.410050	1.102100	0.410189
O13	O	-0.526374	1.260481	0.748059
O14	O	-0.554026	1.102081	0.554118
O15	O	-0.361447	1.380517	0.751076
O16	O	-0.754101	1.337765	0.364781
O17	O	-0.749768	1.236158	0.528285
C18	C	-0.484493	1.069357	0.484600
C19	C	-0.492040	0.969084	0.492119
C20	C	-0.798195	1.284263	0.443222
C21	C	-0.939907	1.276013	0.433048
C22	C	-0.356036	0.780655	0.356618
C23	C	-0.363123	0.686440	0.363679
C24	C	-0.513309	0.686434	0.513295
C25	C	-0.506221	0.780650	0.506234
C26	C	-0.427581	0.827757	0.427894
C27	C	-0.420487	0.921975	0.420841
C28	C	-0.570679	0.921968	0.570449
C29	C	-0.577766	0.827752	0.577510
C30	C	-0.134342	1.323334	0.491072
C31	C	0.007382	1.331680	0.501293
C32	C	-0.440072	1.323294	0.796702
C33	C	-0.428631	1.331624	0.937165
C34	C	-0.449274	1.539053	0.449508
C35	C	-0.441756	1.639326	0.442017
C36	C	-0.493690	1.284270	1.138753
C37	C	-0.505137	1.275945	0.998290
H38	H	-0.356446	0.960330	0.357060
F39	F	-0.286978	0.636313	0.287815
F40	F	-0.597037	0.636280	0.596622
H41	H	-0.641797	0.789384	0.641288
F42	F	-0.909894	1.402232	0.587850
F43	F	-0.331578	1.402271	1.009220
F44	F	-0.602197	1.205309	0.926239
H45	H	-0.291987	0.819012	0.292847
H46	H	-1.003194	1.222033	0.366843
H47	H	-0.628929	0.960329	0.628495
