data_functionalizedCrystal
_audit_creation_method	'MofGen! by Chris Wilmer'
_symmetry_space_group_name_H-M	'P1'
_symmetry_Int_Tables_number	1
_symmetry_cell_setting	triclinic
loop_
_symmetry_equiv_pos_as_xyz
  x,y,z
_cell_length_a	14.044220
_cell_length_b	10.654549
_cell_length_c	9.130307
_cell_angle_alpha	89.997449
_cell_angle_beta	90.004455
_cell_angle_gamma	91.162102
loop_
_atom_site_label
_atom_site_type_symbol
_atom_site_fract_x
_atom_site_fract_y
_atom_site_fract_z
O1	O	0.133252	-1.681224	0.121840
O2	O	0.145941	-1.317021	0.121836
O3	O	0.001576	-1.493656	0.121823
O4	O	0.277617	-1.504589	0.121852
O5	O	0.001575	-1.493649	-0.121776
O6	O	0.145940	-1.317015	-0.121763
O7	O	0.133251	-1.681217	-0.121759
Cu8	Cu	0.139595	-1.499115	-0.144004
Cu9	Cu	0.139597	-1.499123	0.144080
O10	O	0.277616	-1.504583	-0.121747
C11	C	-0.033771	-1.488867	0.000023
C12	C	-0.139090	-1.474591	0.000021
C13	C	0.145008	-1.270126	0.000035
C14	C	0.142217	-1.130403	0.000033
C15	C	0.134184	-1.728112	0.000044
C16	C	0.136975	-1.867836	0.000056
C17	C	-0.331924	-1.448492	0.000042
C18	C	-0.388890	-1.549740	0.000048
C19	C	-0.496189	-1.535219	0.000059
C20	C	-0.224615	-1.463012	0.000030
C21	C	0.312963	-1.509372	0.000057
C22	C	0.418282	-1.523647	0.000068
N23	N	0.139593	-1.499119	-0.346626
C24	C	0.309607	-0.857239	0.000092
C25	C	0.397234	-0.917582	0.000095
C26	C	0.399859	-1.048864	0.000076
C27	C	0.314847	-1.119806	0.000059
C28	C	0.227220	-1.059464	0.000055
C29	C	0.224604	-0.928178	0.000070
C30	C	0.054590	-1.070060	0.000030
C31	C	0.051963	-0.938778	0.000038
C32	C	-0.030422	-1.141003	0.000012
C33	C	-0.118051	-1.080660	-0.000001
C34	C	-0.120673	-0.949370	0.000016
C35	C	-0.035665	-0.878436	0.000035
C36	C	0.011796	-1.655603	-0.346627
C37	C	-0.052100	-1.733853	-0.423295
C38	C	-0.052101	-1.733866	-0.576628
C39	C	0.011800	-1.655617	-0.653298
C40	C	0.075696	-1.577366	-0.576631
C41	C	0.075691	-1.577365	-0.423294
C42	C	0.203487	-1.420878	-0.576630
C43	C	0.203494	-1.420870	-0.423296
C44	C	0.267388	-1.342629	-0.653299
C45	C	0.331290	-1.264383	-0.576632
C46	C	0.331288	-1.264375	-0.423290
C47	C	0.267390	-1.342620	-0.346629
N48	N	0.139591	-1.499128	0.346703
H49	H	-0.363736	-1.350913	0.000044
H50	H	-0.187261	-1.138432	-0.000006
C51	C	0.352839	-0.666304	0.125340
C52	C	0.306719	-0.712932	0.000106
H53	H	0.351050	-0.577215	0.125351
H54	H	0.417185	-0.692081	0.125331
H55	H	0.321546	-0.697980	0.210273
H56	H	0.338016	-0.681264	-0.084827
H57	H	0.242361	-0.687143	0.000102
H58	H	0.466448	-0.859806	0.000115
H59	H	-0.357076	-1.647328	0.000147
C60	C	-0.291052	-0.973044	-0.000009
C61	C	-0.216998	-0.883046	0.000011
H62	H	-0.350518	-0.932099	-0.000020
H63	H	-0.286436	-1.024034	0.084930
H64	H	-0.286430	-1.024021	-0.084967
H65	H	-0.221615	-0.832075	0.084976
H66	H	-0.221616	-0.832035	-0.084936
C67	C	-0.073674	-1.331930	-0.125233
C68	C	-0.027546	-1.285310	-0.000001
H69	H	-0.071905	-1.421021	-0.125235
H70	H	-0.042383	-1.300271	-0.210159
H71	H	-0.138024	-1.306130	-0.125221
H72	H	0.036807	-1.311103	-0.000019
H73	H	-0.058835	-1.316982	0.084946
C74	C	0.247402	-1.222097	-0.872969
C75	C	0.267385	-1.342639	-0.821846
H76	H	0.247397	-1.222109	-0.977024
H77	H	0.294599	-1.164309	-0.838288
H78	H	0.186647	-1.198134	-0.838285
H79	H	0.328143	-1.366599	-0.856522
H80	H	0.220185	-1.400446	-0.856543
C81	C	0.385438	-1.053050	-0.623865
C82	C	0.401516	-1.178375	-0.660913
H83	H	0.428791	-0.999953	-0.675910
H84	H	0.394596	-1.041856	-0.521588
H85	H	0.322026	-1.032342	-0.648998
H86	H	0.464927	-1.199085	-0.635770
H87	H	0.392366	-1.189574	-0.763213
C88	C	-0.086417	-0.693281	0.125284
C89	C	-0.038548	-0.734129	0.000057
H90	H	-0.088198	-0.604191	0.125293
H91	H	-0.053940	-0.721035	0.210213
H92	H	-0.149583	-0.726900	0.125256
H93	H	0.024621	-0.700517	0.000090
H94	H	-0.071023	-0.706362	-0.084894
C95	C	0.570242	-1.025217	0.000097
C96	C	0.496179	-1.115200	0.000077
H97	H	0.629704	-1.066173	0.000088
H98	H	0.565633	-0.974249	0.085049
H99	H	0.565626	-0.974215	-0.084849
H100	H	0.500791	-1.166196	0.085029
H101	H	0.500791	-1.166189	-0.084884
C102	C	-0.215785	-1.789332	-0.375996
C103	C	-0.122313	-1.819865	-0.338973
H104	H	-0.259123	-1.842427	-0.323922
H105	H	-0.224948	-1.800561	-0.478267
H106	H	-0.226680	-1.704301	-0.350883
H107	H	-0.111416	-1.904894	-0.364096
H108	H	-0.113146	-1.808647	-0.236679
C109	C	0.412597	-1.302096	0.000062
C110	C	0.317732	-1.264113	0.000047
H111	H	0.414374	-1.391186	0.000047
H112	H	0.443869	-1.270452	0.085015
H113	H	0.443878	-1.270425	-0.084883
H114	H	0.286453	-1.295777	0.084998
H115	H	0.286446	-1.295771	-0.084914
C116	C	0.494984	-1.208933	-0.376071
C117	C	0.401528	-1.178362	-0.339019
H118	H	0.538346	-1.155835	-0.324042
H119	H	0.504118	-1.197735	-0.478351
H120	H	0.505872	-1.293960	-0.350922
H121	H	0.390638	-1.093337	-0.364178
H122	H	0.392390	-1.189549	-0.236716
C123	C	-0.071472	-1.902603	-0.749058
C124	C	-0.122337	-1.819876	-0.660909
H125	H	-0.114836	-1.955694	-0.801093
H126	H	-0.031678	-1.952221	-0.689227
H127	H	-0.033418	-1.855993	-0.816654
H128	H	-0.160386	-1.866485	-0.593305
H129	H	-0.162148	-1.770252	-0.720745
H130	H	0.011798	-1.655612	-0.221775
H131	H	0.011787	-1.655620	-0.778150
H132	H	0.267387	-1.342625	-0.221777
