data_functionalizedCrystal
_audit_creation_method	'MofGen! by Chris Wilmer'
_symmetry_space_group_name_H-M	'P1'
_symmetry_Int_Tables_number	1
_symmetry_cell_setting	triclinic
loop_
_symmetry_equiv_pos_as_xyz
  x,y,z
_cell_length_a	12.827892
_cell_length_b	12.827893
_cell_length_c	12.827885
_cell_angle_alpha	90.021379
_cell_angle_beta	89.970214
_cell_angle_gamma	89.986399
loop_
_atom_site_label
_atom_site_type_symbol
_atom_site_fract_x
_atom_site_fract_y
_atom_site_fract_z
Zn1	Zn	-0.416032	-1.597672	-0.590902
Zn2	Zn	0.083968	-1.097672	-0.090902
Zn3	Zn	-0.590810	-1.597565	-0.416162
Zn4	Zn	-0.090810	-1.097565	0.083838
Zn5	Zn	-0.416078	-1.422912	-0.416170
Zn6	Zn	0.083922	-0.922912	0.083830
Zn7	Zn	-0.590727	-1.422898	-0.590857
Zn8	Zn	-0.090727	-0.922898	-0.090857
O9	O	-0.503412	-1.510262	-0.503523
O10	O	-0.003412	-1.010262	-0.003523
O11	O	-0.439233	-1.743893	-0.567738
O12	O	0.060767	-1.243893	-0.067738
O13	O	-0.567685	-1.574358	-0.269927
O14	O	-0.067685	-1.074358	0.230073
O15	O	-0.269836	-1.446145	-0.439371
O16	O	0.230164	-0.946145	0.060629
O17	O	-0.567641	-1.743815	-0.439358
O18	O	-0.067641	-1.243815	0.060642
O19	O	-0.269802	-1.574540	-0.567746
O20	O	0.230198	-1.074540	-0.067746
O21	O	-0.439310	-1.446042	-0.269933
O22	O	0.060690	-0.946042	0.230067
O23	O	-0.439230	-1.276674	-0.439327
O24	O	0.060770	-0.776674	0.060673
O25	O	-0.567499	-1.446121	-0.737099
O26	O	-0.067499	-0.946121	-0.237099
O27	O	-0.567543	-1.276664	-0.567668
O28	O	-0.067543	-0.776664	-0.067668
O29	O	-0.439152	-1.574526	-0.737132
O30	O	0.060848	-1.074526	-0.237132
O31	O	-0.737035	-1.574345	-0.439314
O32	O	-0.237035	-1.074345	0.060686
O33	O	-0.736974	-1.446018	-0.567661
O34	O	-0.236974	-0.946018	-0.067661
C35	C	-0.503383	-1.238752	-0.503494
C36	C	-0.003383	-0.738752	-0.003494
C37	C	-0.503396	-1.122599	-0.503506
C38	C	-0.003396	-0.622599	-0.003506
C39	C	-0.439967	-1.070853	-0.567130
C40	C	0.060033	-0.570853	-0.067130
C41	C	-0.439979	-0.950802	-0.567144
C42	C	0.060021	-0.450802	-0.067144
C43	C	-0.774922	-1.510196	-0.503504
C44	C	-0.274922	-1.010196	-0.003504
C45	C	-0.891075	-1.510264	-0.503531
C46	C	-0.391075	-1.010264	-0.003531
C47	C	-0.942855	-1.573840	-0.440092
C48	C	-0.442855	-1.073840	0.059908
C49	C	-1.062905	-1.573911	-0.440118
C50	C	-0.562905	-1.073911	0.059882
C51	C	-0.230841	-1.510356	-0.503564
C52	C	0.269159	-1.010356	-0.003564
C53	C	-0.114688	-1.510396	-0.503582
C54	C	0.385312	-1.010396	-0.003582
C55	C	-0.503311	-1.510334	-0.776093
C56	C	-0.003311	-1.010334	-0.276093
C57	C	-0.503269	-1.510365	-0.892246
C58	C	-0.003269	-1.010365	-0.392246
C59	C	-0.503432	-0.782832	-0.503544
C60	C	-0.003432	-0.282832	-0.003544
C61	C	-0.503419	-0.898985	-0.503532
C62	C	-0.003419	-0.398985	-0.003532
C63	C	-0.439732	-1.446890	-0.944034
C64	C	0.060268	-0.946890	-0.444034
C65	C	-0.439687	-1.446920	-1.064084
C66	C	0.060313	-0.946920	-0.564084
C67	C	-0.503436	-1.510250	-0.232013
C68	C	-0.003436	-1.010250	0.267987
C69	C	-0.503185	-1.510422	-0.115860
C70	C	-0.003185	-1.010422	0.384140
H71	H	-0.385650	-1.115427	-0.621587
H72	H	0.114350	-0.615427	-0.121587
H73	H	-0.557579	-1.564772	-1.071331
H74	H	-0.057579	-1.064772	-0.571331
H75	H	-0.385286	-1.392581	-1.108620
H76	H	0.114714	-0.892581	-0.608620
H77	H	-0.557732	-0.943479	-0.449064
H78	H	-0.057732	-0.443479	0.050936
Br79	Br	-0.593890	-1.600974	-0.966471
Br80	Br	-0.093890	-1.100974	-0.466471
H81	H	-0.557707	-1.078024	-0.449044
H82	H	-0.057707	-0.578024	0.050956
Br83	Br	-0.965309	-1.419636	-0.594104
Br84	Br	-0.465309	-0.919636	-0.094104
Br85	Br	-0.349471	-0.876639	-0.657948
Br86	Br	0.150529	-0.376639	-0.157948
H87	H	-0.898312	-1.628221	-0.385762
H88	H	-0.398312	-1.128221	0.114238
H89	H	-1.107435	-1.628338	-0.385802
H90	H	-0.607435	-1.128338	0.114198
H91	H	-0.385374	-1.392520	-0.899494
H92	H	0.114626	-0.892520	-0.399494
H93	H	-1.070166	-1.455959	-0.557894
H94	H	-0.570166	-0.955959	-0.057894
