data_functionalizedCrystal
_audit_creation_method	'MofGen! by Chris Wilmer'
_symmetry_space_group_name_H-M	'P1'
_symmetry_Int_Tables_number	1
_symmetry_cell_setting	triclinic
loop_
_symmetry_equiv_pos_as_xyz
  x,y,z
_cell_length_a	16.109301
_cell_length_b	10.489741
_cell_length_c	14.586319
_cell_angle_alpha	89.996488
_cell_angle_beta	89.999213
_cell_angle_gamma	84.000327
loop_
_atom_site_label
_atom_site_type_symbol
_atom_site_fract_x
_atom_site_fract_y
_atom_site_fract_z
O1	O	1.104141	0.163947	-0.076182
O2	O	0.862205	0.184350	-0.076196
O3	O	0.988678	-0.011529	-0.076183
O4	O	0.977668	0.359826	-0.076195
O5	O	0.988670	-0.011532	0.076298
O6	O	0.862196	0.184347	0.076284
O7	O	1.104132	0.163944	0.076299
Cu8	Cu	0.983164	0.174145	0.090214
Cu9	Cu	0.983174	0.174149	-0.090112
O10	O	0.977659	0.359823	0.076286
C11	C	0.831221	0.183522	0.000042
C12	C	0.738910	0.181044	0.000037
C13	C	0.517319	0.291514	0.000044
C14	C	0.430584	0.289175	0.000050
C15	C	0.449026	0.056771	0.000053
C16	C	0.535759	0.059111	0.000054
C17	C	0.569903	0.176486	0.000045
C18	C	0.396435	0.171808	0.000050
C19	C	0.302393	0.169272	0.000056
C20	C	0.663950	0.179022	0.000040
C21	C	0.987842	-0.059050	0.000057
C22	C	0.985354	-0.200644	0.000055
C23	C	0.904883	-0.267616	0.000043
C24	C	0.942893	-0.360292	0.075226
C25	C	0.942920	-0.360264	-0.075108
C26	C	1.023397	-0.291454	0.075300
C27	C	1.023414	-0.291417	-0.075102
C28	C	1.061482	-0.384066	0.000100
C29	C	1.135117	0.164772	0.000058
C30	C	1.227427	0.167250	0.000058
C31	C	0.978495	0.407344	0.000044
C32	C	0.980983	0.548938	0.000040
N33	N	0.983162	0.174142	0.217046
N34	N	0.983182	0.174142	-0.216944
C35	C	1.039183	0.087436	0.452058
C36	C	1.039186	0.087433	0.548040
C37	C	0.927155	0.260852	0.548038
C38	C	0.927149	0.260848	0.452058
C39	C	0.983168	0.174141	0.404071
C40	C	0.983176	0.174142	0.596032
C41	C	0.983178	0.174140	0.700099
C42	C	0.983165	0.174142	0.299997
H43	H	0.387773	0.382843	0.000051
H44	H	0.545116	0.387088	0.000043
C45	C	1.150942	-0.452146	0.000164
N46	N	1.218322	-0.503429	0.000218
C47	C	0.411459	-0.072334	0.000055
N48	N	0.383164	-0.169579	0.000053
H49	H	0.838720	-0.217005	0.000115
C50	C	1.069348	-0.250474	0.161268
N51	N	1.103954	-0.219603	0.226021
C52	C	0.865535	0.356222	0.600832
N53	N	0.819122	0.428056	0.640596
C54	C	1.100801	-0.007961	0.600821
N55	N	1.147209	-0.079820	0.640576
C56	C	1.100799	-0.007954	0.399276
N57	N	1.147208	-0.079809	0.359523
H58	H	0.881530	0.331455	0.412984
C59	C	0.593605	-0.067435	0.000055
N60	N	0.637175	-0.162746	0.000058
C61	C	1.069378	-0.250136	-0.160971
N62	N	1.103992	-0.219040	-0.225656
C63	C	0.896888	-0.401528	0.161088
N64	N	0.862233	-0.432584	0.225756
H65	H	0.908865	-0.390732	-0.138675
