data_functionalizedCrystal
_audit_creation_method	'MofGen! by Chris Wilmer'
_symmetry_space_group_name_H-M	'P1'
_symmetry_Int_Tables_number	1
_symmetry_cell_setting	triclinic
loop_
_symmetry_equiv_pos_as_xyz
  x,y,z
_cell_length_a	6.817900
_cell_length_b	19.551136
_cell_length_c	17.110486
_cell_angle_alpha	96.710744
_cell_angle_beta	99.060439
_cell_angle_gamma	101.650842
loop_
_atom_site_label
_atom_site_type_symbol
_atom_site_fract_x
_atom_site_fract_y
_atom_site_fract_z
V1	V	-3.967823	-0.096468	-0.247109
O2	O	-3.965830	0.004850	-0.242004
O3	O	-3.910730	-0.191486	-0.245805
O4	O	-3.897829	-0.094890	-0.354706
O5	O	-3.978820	-0.092415	-0.132349
V6	V	-4.455375	-0.084360	-0.233336
O7	O	-4.220242	-0.123027	-0.277321
O8	O	-4.653153	-0.057801	-0.203124
O9	O	-4.289262	0.010657	-0.234640
O10	O	-4.574765	-0.185678	-0.238441
O11	O	-4.561775	-0.088414	-0.348096
O12	O	-4.302162	-0.085938	-0.125739
C13	C	-3.754314	-0.214652	-0.242006
C14	C	-3.788777	-0.292330	-0.241657
C15	C	-3.780302	-0.318882	-0.168978
C16	C	-3.812760	-0.391867	-0.168625
C17	C	-3.853651	-0.438297	-0.240955
C18	C	-3.862136	-0.411738	-0.313644
C19	C	-3.829699	-0.338754	-0.313994
C20	C	-3.807637	-0.559263	-0.293400
C21	C	-3.840061	-0.632244	-0.293045
C22	C	-3.953709	-0.663402	-0.239876
C23	C	-4.034899	-0.621566	-0.187047
C24	C	-4.002462	-0.548583	-0.187398
C25	C	-3.888828	-0.517436	-0.240583
C26	C	-3.980430	-0.769091	-0.166810
C27	C	-4.012901	-0.842078	-0.166461
C28	C	-4.062258	-0.861947	-0.311481
C29	C	-4.029806	-0.788962	-0.311828
C30	C	-3.988884	-0.742538	-0.239491
C31	C	-3.737858	-0.091434	-0.380919
C32	C	-3.761856	-0.090773	-0.468883
C33	C	-3.954098	-0.093949	-0.514253
C34	C	-3.976635	-0.093327	-0.596904
C35	C	-3.806930	-0.089534	-0.634183
C36	C	-3.614671	-0.086355	-0.588806
C37	C	-3.592134	-0.086972	-0.506156
C38	C	-3.865921	-0.087493	-0.883530
C39	C	-3.888475	-0.086878	-0.966187
C40	C	-4.250438	-0.093849	-0.974278
C41	C	-4.227885	-0.094470	-0.891627
C42	C	-4.035628	-0.091287	-0.846257
C43	C	-3.829963	-0.088900	-0.718666
C44	C	-4.012595	-0.091916	-0.761775
C45	C	-4.109019	0.033820	-0.238437
C46	C	-4.053794	0.111497	-0.238791
C47	C	-4.125477	-0.089397	-0.099522
C48	C	-4.080717	-0.090055	-0.011557
H49	H	-3.836608	-0.317138	-0.373180
C50	C	-3.750726	-0.678257	-0.351142
H51	H	-3.786288	-0.726184	-0.343309
H52	H	-3.804211	-0.674315	-0.404735
H53	H	-3.606534	-0.662664	-0.341208
H54	H	-4.092298	-0.097043	-0.483908
H55	H	-4.036694	-0.767344	-0.371011
H56	H	-3.476494	-0.083262	-0.619165
H57	H	-4.406967	-0.096439	-1.011228
H58	H	-3.691794	-0.085815	-0.749029
C59	C	-4.091798	-0.502569	-0.129303
H60	H	-4.164147	-0.531574	-0.097589
H61	H	-3.984371	-0.468054	-0.095479
H62	H	-4.182041	-0.479702	-0.159008
C63	C	-4.107243	-0.913009	-0.391045
H64	H	-4.107651	-0.886739	-0.434382
H65	H	-4.005157	-0.939634	-0.391390
H66	H	-4.236716	-0.944150	-0.396455
C67	C	-3.682606	-0.524997	-0.351885
H68	H	-3.638870	-0.560361	-0.383287
H69	H	-3.764724	-0.502563	-0.385985
H70	H	-3.567056	-0.490932	-0.322457
H71	H	-3.746996	-0.281087	-0.110075
C72	C	-4.188099	-0.096818	-0.646808
H73	H	-4.285944	-0.099173	-0.612769
H74	H	-4.184012	-0.055790	-0.671822
H75	H	-4.224821	-0.137656	-0.686614
C76	C	-3.803428	-0.421085	-0.088678
H77	H	-3.828617	-0.471200	-0.098831
H78	H	-3.672192	-0.402780	-0.056412
H79	H	-3.903754	-0.407306	-0.061473
C80	C	-4.414558	-0.098632	-0.850624
H81	H	-4.532278	-0.100428	-0.889481
H82	H	-4.433700	-0.139946	-0.825938
H83	H	-4.392870	-0.058080	-0.811160
H84	H	-3.750269	-0.083787	-0.996536
C85	C	-3.380670	-0.083482	-0.456249
H86	H	-3.282829	-0.081141	-0.490289
H87	H	-3.343952	-0.042648	-0.416446
H88	H	-3.384763	-0.124513	-0.431234
C89	C	-4.159952	-0.655831	-0.128569
H90	H	-4.167677	-0.705290	-0.135934
H91	H	-4.095853	-0.635866	-0.075090
H92	H	-4.293503	-0.647488	-0.138624
H93	H	-3.947107	-0.731290	-0.107908
H94	H	-4.006010	-0.863694	-0.107275
H95	H	-3.895435	-0.449546	-0.372535
H96	H	-3.709389	-0.084926	-0.846604
H97	H	-4.150765	-0.095002	-0.731418
