data_functionalizedCrystal
_audit_creation_method	'MofGen! by Chris Wilmer'
_symmetry_space_group_name_H-M	'P1'
_symmetry_Int_Tables_number	1
_symmetry_cell_setting	triclinic
loop_
_symmetry_equiv_pos_as_xyz
  x,y,z
_cell_length_a	16.109295
_cell_length_b	15.186229
_cell_length_c	16.109301
_cell_angle_alpha	90.005167
_cell_angle_beta	96.539666
_cell_angle_gamma	89.999572
loop_
_atom_site_label
_atom_site_type_symbol
_atom_site_fract_x
_atom_site_fract_y
_atom_site_fract_z
O1	O	-1.103134	0.073171	0.106844
O2	O	-0.853134	0.323171	0.356844
O3	O	-0.603134	0.573171	0.606844
O4	O	-0.353134	0.823171	0.856844
O5	O	-0.861071	0.073187	0.120148
O6	O	-0.611071	0.323187	0.370148
O7	O	-0.361071	0.573187	0.620148
O8	O	-0.111071	0.823187	0.870148
O9	O	-0.988752	0.073170	-0.007535
O10	O	-0.738752	0.323170	0.242465
O11	O	-0.488752	0.573170	0.492465
O12	O	-0.238752	0.823170	0.742465
O13	O	-0.975453	0.073188	0.234527
O14	O	-0.725453	0.323188	0.484527
O15	O	-0.475453	0.573188	0.734527
O16	O	-0.225453	0.823188	0.984527
O17	O	-0.988743	-0.073288	-0.007537
O18	O	-0.738743	0.176712	0.242463
O19	O	-0.488743	0.426712	0.492463
O20	O	-0.238743	0.676712	0.742463
O21	O	-0.861062	-0.073271	0.120146
O22	O	-0.611062	0.176729	0.370146
O23	O	-0.361062	0.426729	0.620146
O24	O	-0.111062	0.676729	0.870146
O25	O	-1.103125	-0.073286	0.106842
O26	O	-0.853125	0.176714	0.356842
O27	O	-0.603125	0.426714	0.606842
O28	O	-0.353125	0.676714	0.856842
Zn29	Zn	-0.982092	-0.096531	0.113494
Zn30	Zn	-0.732092	0.153469	0.363494
Zn31	Zn	-0.482092	0.403469	0.613494
Zn32	Zn	-0.232092	0.653469	0.863494
Zn33	Zn	-0.982104	0.096432	0.113496
Zn34	Zn	-0.732104	0.346432	0.363496
Zn35	Zn	-0.482104	0.596432	0.613496
Zn36	Zn	-0.232104	0.846432	0.863496
O37	O	-0.975444	-0.073269	0.234525
O38	O	-0.725444	0.176731	0.484525
O39	O	-0.475444	0.426731	0.734525
O40	O	-0.225444	0.676731	0.984525
C41	C	-0.830092	-0.000040	0.119609
C42	C	-0.580092	0.249960	0.369609
C43	C	-0.330092	0.499960	0.619609
C44	C	-0.080092	0.749960	0.869609
C45	C	-0.737796	-0.000035	0.117996
C46	C	-0.487796	0.249965	0.367996
C47	C	-0.237796	0.499965	0.617996
C48	C	0.012204	0.749965	0.867996
N49	N	-0.982091	-0.228224	0.113492
N50	N	-0.732091	0.021776	0.363492
N51	N	-0.482091	0.271776	0.613492
N52	N	-0.232091	0.521776	0.863492
C53	C	-0.515523	-0.000038	0.190008
C54	C	-0.265523	0.249962	0.440008
C55	C	-0.015523	0.499962	0.690008
C56	C	0.234477	0.749962	0.940008
C57	C	-0.428803	-0.000044	0.188486
C58	C	-0.178803	0.249956	0.438486
C59	C	0.071197	0.499956	0.688486
C60	C	0.321197	0.749956	0.938486
C61	C	-0.448677	-0.000052	0.036996
C62	C	-0.198677	0.249948	0.286996
C63	C	0.051323	0.499948	0.536996
C64	C	0.301323	0.749948	0.786996
C65	C	-0.535396	-0.000053	0.038520
C66	C	-0.285396	0.249947	0.288520
C67	C	-0.035396	0.499947	0.538520
C68	C	0.214604	0.749947	0.788520
C69	C	-0.568816	-0.000041	0.115028
C70	C	-0.318816	0.249959	0.365028
C71	C	-0.068816	0.499959	0.615028
C72	C	0.181184	0.749959	0.865028
C73	C	-0.395377	-0.000046	0.111982
C74	C	-0.145377	0.249954	0.361982
C75	C	0.104623	0.499954	0.611982
C76	C	0.354623	0.749954	0.861982
C77	C	-0.301351	-0.000052	0.110331
C78	C	-0.051351	0.249948	0.360331
C79	C	0.198649	0.499948	0.610331
C80	C	0.448649	0.749948	0.860331
C81	C	-0.662849	-0.000037	0.116679
C82	C	-0.412849	0.249963	0.366679
C83	C	-0.162849	0.499963	0.616679
C84	C	0.087151	0.749963	0.866679
C85	C	-1.038647	-0.453955	0.056973
C86	C	-0.788647	-0.203955	0.306973
C87	C	-0.538647	0.046045	0.556973
C88	C	-0.288647	0.296045	0.806973
C89	C	-1.038650	-0.546144	0.056971
C90	C	-0.788650	-0.296144	0.306971
C91	C	-0.538650	-0.046144	0.556971
C92	C	-0.288650	0.203856	0.806971
C93	C	-0.925549	-0.546138	0.170014
C94	C	-0.675549	-0.296138	0.420014
C95	C	-0.425549	-0.046138	0.670014
C96	C	-0.175549	0.203862	0.920014
C97	C	-0.925543	-0.453950	0.170011
C98	C	-0.675543	-0.203950	0.420011
C99	C	-0.425543	0.046050	0.670011
C100	C	-0.175543	0.296050	0.920011
C101	C	-0.982097	-0.407861	0.113491
C102	C	-0.732097	-0.157861	0.363491
C103	C	-0.482097	0.092139	0.613491
C104	C	-0.232097	0.342139	0.863491
C105	C	-0.982106	-0.592238	0.113492
C106	C	-0.732106	-0.342238	0.363492
C107	C	-0.482106	-0.092238	0.613492
C108	C	-0.232106	0.157762	0.863492
C109	C	-0.982108	-0.692195	0.113490
C110	C	-0.732108	-0.442195	0.363490
C111	C	-0.482108	-0.192195	0.613490
C112	C	-0.232108	0.057805	0.863490
C113	C	-0.982094	-0.307898	0.113492
C114	C	-0.732094	-0.057898	0.363492
C115	C	-0.482094	0.192102	0.613492
C116	C	-0.232094	0.442102	0.863492
C117	C	-0.134104	-0.000056	0.107386
C118	C	0.115896	0.249944	0.357386
C119	C	0.365896	0.499944	0.607386
C120	C	0.615896	0.749944	0.857386
C121	C	-0.226397	-0.000053	0.109014
C122	C	0.023603	0.249947	0.359014
C123	C	0.273603	0.499947	0.609014
C124	C	0.523603	0.749947	0.859014
C125	C	-0.988209	-0.000059	-0.038511
C126	C	-0.738209	0.249941	0.211489
C127	C	-0.488209	0.499941	0.461489
C128	C	-0.238209	0.749941	0.711489
C129	C	-0.986594	-0.000061	-0.130806
C130	C	-0.736594	0.249939	0.119194
C131	C	-0.486594	0.499939	0.369194
C132	C	-0.236594	0.749939	0.619194
N133	N	-0.982112	0.228125	0.113492
N134	N	-0.732112	0.478125	0.363492
N135	N	-0.482112	0.728125	0.613492
N136	N	-0.232112	0.978125	0.863492
C137	C	-1.058602	-0.000051	-0.353080
C138	C	-0.808602	0.249949	-0.103080
C139	C	-0.558602	0.499949	0.146920
C140	C	-0.308602	0.749949	0.396920
C141	C	-1.057078	-0.000044	-0.439800
C142	C	-0.807078	0.249956	-0.189800
C143	C	-0.557078	0.499956	0.060200
C144	C	-0.307078	0.749956	0.310200
C145	C	-0.905588	-0.000038	-0.419923
C146	C	-0.655588	0.249962	-0.169923
C147	C	-0.405588	0.499962	0.080077
C148	C	-0.155588	0.749962	0.330077
C149	C	-0.907113	-0.000039	-0.333204
C150	C	-0.657113	0.249961	-0.083204
C151	C	-0.407113	0.499961	0.166796
C152	C	-0.157113	0.749961	0.416796
C153	C	-0.983622	-0.000050	-0.299785
C154	C	-0.733622	0.249950	-0.049785
C155	C	-0.483622	0.499950	0.200215
C156	C	-0.233622	0.749950	0.450215
C157	C	-0.980573	-0.000042	-0.473225
C158	C	-0.730573	0.249958	-0.223225
C159	C	-0.480573	0.499958	0.026775
C160	C	-0.230573	0.749958	0.276775
C161	C	-0.978920	-0.000034	-0.567251
C162	C	-0.728920	0.249966	-0.317251
C163	C	-0.478920	0.499966	-0.067251
C164	C	-0.228920	0.749966	0.182749
C165	C	-0.985276	-0.000056	-0.205754
C166	C	-0.735276	0.249944	0.044246
C167	C	-0.485276	0.499944	0.294246
C168	C	-0.235276	0.749944	0.544246
C169	C	-0.975987	-0.000038	0.265501
C170	C	-0.725987	0.249962	0.515501
C171	C	-0.475987	0.499962	0.765501
C172	C	-0.225987	0.749962	1.015501
C173	C	-0.977602	-0.000031	0.357796
C174	C	-0.727602	0.249969	0.607796
C175	C	-0.477602	0.499969	0.857796
C176	C	-0.227602	0.749969	1.107796
H177	H	-0.542731	-0.000036	0.252306
H178	H	-0.292731	0.249964	0.502306
H179	H	-0.042731	0.499964	0.752306
H180	H	0.207269	0.749964	1.002306
H181	H	-0.846052	-0.000035	-0.289809
H182	H	-0.596052	0.249965	-0.039809
H183	H	-0.346052	0.499965	0.210191
H184	H	-0.096052	0.749965	0.460191
H185	H	-0.385414	-0.000043	0.249542
H186	H	-0.135414	0.249957	0.499542
H187	H	0.114586	0.499957	0.749542
H188	H	0.364586	0.749957	0.999542
H189	H	-0.578790	-0.000058	-0.022542
H190	H	-0.328790	0.249942	0.227458
H191	H	-0.078790	0.499942	0.477458
H192	H	0.171210	0.749942	0.727458
H193	H	-1.120900	-0.000058	-0.325874
H194	H	-0.870900	0.249942	-0.075874
H195	H	-0.620900	0.499942	0.174126
H196	H	-0.370900	0.749942	0.424126
H197	H	-1.118133	-0.000043	-0.483190
H198	H	-0.868133	0.249957	-0.233190
H199	H	-0.618133	0.499957	0.016810
H200	H	-0.368133	0.749957	0.266810
H201	H	-1.084695	-0.416431	0.010950
H202	H	-0.834695	-0.166431	0.260950
H203	H	-0.584695	0.083569	0.510950
H204	H	-0.334695	0.333569	0.760950
H205	H	-0.879489	-0.416418	0.216036
H206	H	-0.629489	-0.166418	0.466036
H207	H	-0.379489	0.083582	0.716036
H208	H	-0.129489	0.333582	0.966036
H209	H	-1.084697	-0.583671	0.010947
H210	H	-0.834697	-0.333671	0.260947
H211	H	-0.584697	-0.083671	0.510947
H212	H	-0.334697	0.166329	0.760947
H213	H	-0.879506	-0.583673	0.216032
H214	H	-0.629506	-0.333673	0.466032
H215	H	-0.379506	-0.083673	0.716032
H216	H	-0.129506	0.166327	0.966032
Cl217	Cl	-0.406656	-0.000060	-0.059180
Cl218	Cl	-0.156656	0.249940	0.190820
Cl219	Cl	0.093344	0.499940	0.440820
Cl220	Cl	0.343344	0.749940	0.690820
H221	H	-0.843297	-0.000030	-0.447144
H222	H	-0.593297	0.249970	-0.197144
H223	H	-0.343297	0.499970	0.052856
H224	H	-0.093297	0.749970	0.302856
