data_functionalizedCrystal
_audit_creation_method	'MofGen! by Chris Wilmer'
_symmetry_space_group_name_H-M	'P1'
_symmetry_Int_Tables_number	1
_symmetry_cell_setting	triclinic
loop_
_symmetry_equiv_pos_as_xyz
  x,y,z
_cell_length_a	19.288864
_cell_length_b	19.288865
_cell_length_c	18.366186
_cell_angle_alpha	89.988521
_cell_angle_beta	89.977106
_cell_angle_gamma	83.136245
loop_
_atom_site_label
_atom_site_type_symbol
_atom_site_fract_x
_atom_site_fract_y
_atom_site_fract_z
O1	O	0.921353	0.086649	-0.060791
O2	O	1.171353	0.336649	0.189209
O3	O	1.421353	0.586649	0.439209
O4	O	1.671353	0.836649	0.689209
O5	O	0.719092	0.098337	-0.060743
O6	O	0.969092	0.348337	0.189257
O7	O	1.219092	0.598337	0.439257
O8	O	1.469092	0.848337	0.689257
O9	O	0.826067	-0.008637	-0.060754
O10	O	1.076067	0.241363	0.189246
O11	O	1.326067	0.491363	0.439246
O12	O	1.576067	0.741363	0.689246
O13	O	0.814378	0.193623	-0.060780
O14	O	1.064378	0.443623	0.189220
O15	O	1.314378	0.693623	0.439220
O16	O	1.564378	0.943623	0.689220
O17	O	0.826049	-0.008643	0.060345
O18	O	1.076049	0.241357	0.310345
O19	O	1.326049	0.491357	0.560345
O20	O	1.576049	0.741357	0.810345
O21	O	0.719074	0.098332	0.060357
O22	O	0.969074	0.348332	0.310357
O23	O	1.219074	0.598332	0.560357
O24	O	1.469074	0.848332	0.810357
O25	O	0.921335	0.086643	0.060308
O26	O	1.171335	0.336643	0.310308
O27	O	1.421335	0.586643	0.560308
O28	O	1.671335	0.836643	0.810308
Zn29	Zn	0.820201	0.092487	0.079559
Zn30	Zn	1.070201	0.342487	0.329559
Zn31	Zn	1.320201	0.592487	0.579559
Zn32	Zn	1.570201	0.842487	0.829559
Zn33	Zn	0.820225	0.092494	-0.079994
Zn34	Zn	1.070225	0.342494	0.170006
Zn35	Zn	1.320225	0.592494	0.420006
Zn36	Zn	1.570225	0.842494	0.670006
O37	O	0.814360	0.193618	0.060319
O38	O	1.064360	0.443618	0.310319
O39	O	1.314360	0.693618	0.560319
O40	O	1.564360	0.943618	0.810319
C41	C	0.693207	0.097959	-0.000187
C42	C	0.943207	0.347959	0.249813
C43	C	1.193207	0.597959	0.499813
C44	C	1.443207	0.847959	0.749813
C45	C	0.616103	0.096830	-0.000167
C46	C	0.866103	0.346830	0.249833
C47	C	1.116103	0.596830	0.499833
C48	C	1.366103	0.846830	0.749833
C49	C	0.825682	-0.034516	-0.000202
C50	C	1.075682	0.215484	0.249798
C51	C	1.325682	0.465484	0.499798
C52	C	1.575682	0.715484	0.749798
C53	C	0.824553	-0.111620	-0.000195
C54	C	1.074553	0.138380	0.249805
C55	C	1.324553	0.388380	0.499805
C56	C	1.574553	0.638380	0.749805
C57	C	0.571407	0.159598	-0.000187
C58	C	0.821407	0.409598	0.249813
C59	C	1.071407	0.659598	0.499813
C60	C	1.321407	0.909598	0.749813
C61	C	0.498960	0.158537	-0.000195
C62	C	0.748960	0.408537	0.249805
C63	C	0.998960	0.658537	0.499805
C64	C	1.248960	0.908537	0.749805
C65	C	0.471212	0.094705	-0.000198
C66	C	0.721212	0.344705	0.249802
C67	C	0.971212	0.594705	0.499802
C68	C	1.221212	0.844705	0.749802
C69	C	0.515918	0.031929	-0.000174
C70	C	0.765918	0.281929	0.249826
C71	C	1.015918	0.531929	0.499826
C72	C	1.265918	0.781929	0.749826
C73	C	0.588364	0.032991	-0.000159
C74	C	0.838364	0.282991	0.249841
C75	C	1.088364	0.532991	0.499841
C76	C	1.338364	0.782991	0.749841
C77	C	0.362956	0.044527	-0.042642
C78	C	0.612956	0.294527	0.207358
C79	C	0.862956	0.544527	0.457358
C80	C	1.112956	0.794527	0.707358
C81	C	0.290512	0.043468	-0.042662
C82	C	0.540512	0.293468	0.207338
C83	C	0.790512	0.543468	0.457338
C84	C	1.040512	0.793468	0.707338
C85	C	0.247767	0.091425	-0.000241
C86	C	0.497767	0.341425	0.249759
C87	C	0.747767	0.591425	0.499759
C88	C	0.997767	0.841425	0.749759
C89	C	0.277473	0.140454	0.042189
C90	C	0.527473	0.390454	0.292189
C91	C	0.777473	0.640454	0.542189
C92	C	1.027473	0.890454	0.792189
C93	C	0.349918	0.141517	0.042205
C94	C	0.599918	0.391517	0.292205
C95	C	0.849918	0.641517	0.542205
C96	C	1.099918	0.891517	0.792205
C97	C	0.392658	0.093546	-0.000214
C98	C	0.642658	0.343546	0.249786
C99	C	0.892658	0.593546	0.499786
C100	C	1.142658	0.843546	0.749786
C101	C	0.124514	0.153047	-0.000269
C102	C	0.374514	0.403047	0.249731
C103	C	0.624514	0.653047	0.499731
C104	C	0.874514	0.903047	0.749731
C105	C	0.052066	0.151984	-0.000272
C106	C	0.302066	0.401984	0.249728
C107	C	0.552066	0.651984	0.499728
C108	C	0.802066	0.901984	0.749728
C109	C	0.069026	0.025374	-0.000259
C110	C	0.319026	0.275374	0.249741
C111	C	0.569026	0.525374	0.499741
C112	C	0.819026	0.775374	0.749741
C113	C	0.141473	0.026439	-0.000248
C114	C	0.391473	0.276439	0.249752
C115	C	0.641473	0.526439	0.499752
C116	C	0.891473	0.776439	0.749752
C117	C	0.169212	0.090278	-0.000256
C118	C	0.419212	0.340278	0.249744
C119	C	0.669212	0.590278	0.499744
C120	C	0.919212	0.840278	0.749744
C121	C	0.887321	-0.156316	-0.000207
C122	C	1.137321	0.093684	0.249793
C123	C	1.387321	0.343684	0.499793
C124	C	1.637321	0.593684	0.749793
C125	C	0.886260	-0.228763	-0.000218
C126	C	1.136260	0.021237	0.249782
C127	C	1.386260	0.271237	0.499782
C128	C	1.636260	0.521237	0.749782
C129	C	0.822428	-0.256511	-0.000203
C130	C	1.072428	-0.006511	0.249797
C131	C	1.322428	0.243489	0.499797
C132	C	1.572428	0.493489	0.749797
C133	C	0.759652	-0.211805	-0.000196
C134	C	1.009652	0.038195	0.249804
C135	C	1.259652	0.288195	0.499804
C136	C	1.509652	0.538195	0.749804
C137	C	0.760714	-0.139359	-0.000192
C138	C	1.010714	0.110641	0.249808
C139	C	1.260714	0.360641	0.499808
C140	C	1.510714	0.610641	0.749808
C141	C	0.772242	-0.364800	0.042227
C142	C	1.022242	-0.114800	0.292227
C143	C	1.272242	0.135200	0.542227
C144	C	1.522242	0.385200	0.792227
C145	C	0.771182	-0.437245	0.042228
C146	C	1.021182	-0.187245	0.292228
C147	C	1.271182	0.062755	0.542228
C148	C	1.521182	0.312755	0.792228
C149	C	0.819148	-0.479956	-0.000219
C150	C	1.069148	-0.229956	0.249781
C151	C	1.319148	0.020044	0.499781
C152	C	1.569148	0.270044	0.749781
C153	C	0.868186	-0.450216	-0.042657
C154	C	1.118186	-0.200216	0.207343
C155	C	1.368186	0.049784	0.457343
C156	C	1.618186	0.299784	0.707343
C157	C	0.869248	-0.377771	-0.042653
C158	C	1.119248	-0.127771	0.207347
C159	C	1.369248	0.122229	0.457347
C160	C	1.619248	0.372229	0.707347
C161	C	0.821269	-0.335065	-0.000208
C162	C	1.071269	-0.085065	0.249792
C163	C	1.321269	0.164935	0.499792
C164	C	1.571269	0.414935	0.749792
C165	C	0.880770	-0.603209	-0.000244
C166	C	1.130770	-0.353209	0.249756
C167	C	1.380770	-0.103209	0.499756
C168	C	1.630770	0.146791	0.749756
C169	C	0.879707	-0.675657	-0.000259
C170	C	1.129707	-0.425657	0.249741
C171	C	1.379707	-0.175657	0.499741
C172	C	1.629707	0.074343	0.749741
C173	C	0.753097	-0.658697	-0.000230
C174	C	1.003097	-0.408697	0.249770
C175	C	1.253097	-0.158697	0.499770
C176	C	1.503097	0.091303	0.749770
C177	C	0.754162	-0.586250	-0.000221
C178	C	1.004162	-0.336250	0.249779
C179	C	1.254162	-0.086250	0.499779
C180	C	1.504162	0.163750	0.749779
C181	C	0.818001	-0.558511	-0.000225
C182	C	1.068001	-0.308511	0.249775
C183	C	1.318001	-0.058511	0.499775
C184	C	1.568001	0.191489	0.749775
C185	C	0.947220	0.087022	-0.000250
C186	C	1.197220	0.337022	0.249750
C187	C	1.447220	0.587022	0.499750
C188	C	1.697220	0.837022	0.749750
C189	C	1.024324	0.088151	-0.000274
C190	C	1.274324	0.338151	0.249726
C191	C	1.524324	0.588151	0.499726
C192	C	1.774324	0.838151	0.749726
C193	C	0.814745	0.219497	-0.000234
C194	C	1.064745	0.469497	0.249766
C195	C	1.314745	0.719497	0.499766
C196	C	1.564745	0.969497	0.749766
C197	C	0.815874	0.296601	-0.000246
C198	C	1.065874	0.546601	0.249754
C199	C	1.315874	0.796601	0.499754
C200	C	1.565874	1.046601	0.749754
N201	N	0.820190	0.092482	0.188451
N202	N	1.070190	0.342482	0.438451
N203	N	1.320190	0.592482	0.688451
N204	N	1.570190	0.842482	0.938451
N205	N	0.820242	0.092493	-0.188885
N206	N	1.070242	0.342493	0.061115
N207	N	1.320242	0.592493	0.311115
N208	N	1.570242	0.842493	0.561115
C209	C	0.867574	0.045137	0.226546
C210	C	1.117574	0.295137	0.476546
C211	C	1.367574	0.545137	0.726546
C212	C	1.617574	0.795137	0.976546
C213	C	0.867578	0.045134	0.302774
C214	C	1.117578	0.295134	0.552774
C215	C	1.367578	0.545134	0.802774
C216	C	1.617578	0.795134	1.052774
C217	C	0.820206	0.092488	0.340903
C218	C	1.070206	0.342488	0.590903
C219	C	1.320206	0.592488	0.840903
C220	C	1.570206	0.842488	1.090903
C221	C	0.772813	0.139836	0.302799
C222	C	1.022813	0.389836	0.552799
C223	C	1.272813	0.639836	0.802799
C224	C	1.522813	0.889836	1.052799
C225	C	0.772805	0.139834	0.226572
C226	C	1.022805	0.389834	0.476572
C227	C	1.272805	0.639834	0.726572
C228	C	1.522805	0.889834	0.976572
C229	C	0.810907	0.155775	0.461657
C230	C	1.060907	0.405775	0.711657
C231	C	1.310907	0.655775	0.961657
C232	C	1.560907	0.905775	1.211657
C233	C	0.810920	0.155779	0.537882
C234	C	1.060920	0.405779	0.787882
C235	C	1.310920	0.655779	1.037882
C236	C	1.560920	0.905779	1.287882
C237	C	0.820225	0.092496	0.576011
C238	C	1.070225	0.342496	0.826011
C239	C	1.320225	0.592496	1.076011
C240	C	1.570225	0.842496	1.326011
C241	C	0.829533	0.029207	0.537905
C242	C	1.079533	0.279207	0.787905
C243	C	1.329533	0.529207	1.037905
C244	C	1.579533	0.779207	1.287905
C245	C	0.829525	0.029204	0.461679
C246	C	1.079525	0.279204	0.711679
C247	C	1.329525	0.529204	0.961679
C248	C	1.579525	0.779204	1.211679
C249	C	0.820208	0.092496	0.423558
C250	C	1.070208	0.342496	0.673558
C251	C	1.320208	0.592496	0.923558
C252	C	1.570208	0.842496	1.173558
C253	C	0.867617	0.045144	0.696761
C254	C	1.117617	0.295144	0.946761
C255	C	1.367617	0.545144	1.196761
C256	C	1.617617	0.795144	1.446761
C257	C	0.867616	0.045140	0.772990
C258	C	1.117616	0.295140	1.022990
C259	C	1.367616	0.545140	1.272990
C260	C	1.617616	0.795140	1.522990
C261	C	0.772854	0.139849	0.773014
C262	C	1.022854	0.389849	1.023014
C263	C	1.272854	0.639849	1.273014
C264	C	1.522854	0.889849	1.523014
C265	C	0.772851	0.139847	0.696786
C266	C	1.022851	0.389847	0.946786
C267	C	1.272851	0.639847	1.196786
C268	C	1.522851	0.889847	1.446786
C269	C	0.820236	0.092495	0.658664
C270	C	1.070236	0.342495	0.908664
C271	C	1.320236	0.592495	1.158664
C272	C	1.570236	0.842495	1.408664
H273	H	0.593987	0.211580	-0.000195
H274	H	0.843987	0.461580	0.249805
H275	H	1.093987	0.711580	0.499805
H276	H	1.343987	0.961580	0.749805
H277	H	0.932751	-0.580622	-0.000250
H278	H	1.182751	-0.330622	0.249750
H279	H	1.432751	-0.080622	0.499750
H280	H	1.682751	0.169378	0.749750
H281	H	0.734269	0.178402	0.665767
H282	H	0.984269	0.428402	0.915767
H283	H	1.234269	0.678402	1.165767
H284	H	1.484269	0.928402	1.415767
H285	H	0.624756	-0.018124	-0.000144
H286	H	0.874756	0.231876	0.249856
H287	H	1.124756	0.481876	0.499856
H288	H	1.374756	0.731876	0.749856
H289	H	0.177866	-0.024674	-0.000236
H290	H	0.427866	0.225326	0.249764
H291	H	0.677866	0.475326	0.499764
H292	H	0.927866	0.725326	0.749764
H293	H	0.266331	0.003548	-0.077215
H294	H	0.516331	0.253548	0.172785
H295	H	0.766331	0.503548	0.422785
H296	H	1.016331	0.753548	0.672785
H297	H	0.803318	0.207311	0.430619
H298	H	1.053318	0.457311	0.680619
H299	H	1.303318	0.707311	0.930619
H300	H	1.553318	0.957311	1.180619
H301	H	0.397755	0.005473	-0.077191
H302	H	0.647755	0.255473	0.172809
H303	H	0.897755	0.505473	0.422809
H304	H	1.147755	0.755473	0.672809
H305	H	0.731250	-0.461452	0.076779
H306	H	0.981250	-0.211452	0.326779
H307	H	1.231250	0.038548	0.576779
H308	H	1.481250	0.288548	0.826779
H309	H	0.462561	0.209652	-0.000209
H310	H	0.712561	0.459652	0.249791
H311	H	0.962561	0.709652	0.499791
H312	H	1.212561	0.959652	0.749791
H313	H	0.906165	0.006578	0.333797
H314	H	1.156165	0.256578	0.583797
H315	H	1.406165	0.506578	0.833797
H316	H	1.656165	0.756578	1.083797
H317	H	0.242671	0.179506	0.076733
H318	H	0.492671	0.429506	0.326733
H319	H	0.742671	0.679506	0.576733
H320	H	0.992671	0.929506	0.826733
H321	H	0.703049	-0.549857	-0.000208
H322	H	0.953049	-0.299857	0.249792
H323	H	1.203049	-0.049857	0.499792
H324	H	1.453049	0.200143	0.749792
H325	H	0.707679	-0.234401	-0.000185
H326	H	0.957679	0.015599	0.249815
H327	H	1.207679	0.265599	0.499815
H328	H	1.457679	0.515599	0.749815
H329	H	0.734219	0.178388	0.195554
H330	H	0.984219	0.428388	0.445554
H331	H	1.234219	0.678388	0.695554
H332	H	1.484219	0.928388	0.945554
H333	H	0.930822	-0.712049	-0.000273
H334	H	1.180822	-0.462049	0.249727
H335	H	1.430822	-0.212049	0.499727
H336	H	1.680822	0.037951	0.749727
H337	H	0.374102	0.181436	0.076756
H338	H	0.624102	0.431436	0.326756
H339	H	0.874102	0.681436	0.576756
H340	H	1.124102	0.931436	0.826756
H341	H	0.709599	-0.102967	-0.000182
H342	H	0.959599	0.147033	0.249818
H343	H	1.209599	0.397033	0.499818
H344	H	1.459599	0.647033	0.749818
H345	H	0.937375	-0.265162	-0.000231
H346	H	1.187375	-0.015162	0.249769
H347	H	1.437375	0.234838	0.499769
H348	H	1.687375	0.484838	0.749769
H349	H	0.734279	0.178402	0.804058
H350	H	0.984279	0.428402	1.054058
H351	H	1.234279	0.678402	1.304058
H352	H	1.484279	0.928402	1.554058
H353	H	0.147101	0.205028	-0.000265
H354	H	0.397101	0.455028	0.249735
H355	H	0.647101	0.705028	0.499735
H356	H	0.897101	0.955028	0.749735
H357	H	0.906156	0.006579	0.195509
H358	H	1.156156	0.256579	0.445509
H359	H	1.406156	0.506579	0.695509
H360	H	1.656156	0.756579	0.945509
H361	H	0.837102	-0.022328	0.430657
H362	H	1.087102	0.227672	0.680657
H363	H	1.337102	0.477672	0.930657
H364	H	1.587102	0.727672	1.180657
H365	H	0.015674	0.203099	-0.000284
H366	H	0.265674	0.453099	0.249716
H367	H	0.515674	0.703099	0.499716
H368	H	0.765674	0.953099	0.749716
H369	H	0.733180	-0.330029	0.076796
H370	H	0.983180	-0.080029	0.326796
H371	H	1.233180	0.169971	0.576796
H372	H	1.483180	0.419971	0.826796
H373	H	0.837110	-0.022324	0.568948
H374	H	1.087110	0.227676	0.818948
H375	H	1.337110	0.477676	1.068948
H376	H	1.587110	0.727676	1.318948
H377	H	0.701123	-0.681288	-0.000221
H378	H	0.951123	-0.431288	0.249779
H379	H	1.201123	-0.181288	0.499779
H380	H	1.451123	0.068712	0.749779
H381	H	0.493322	-0.020044	-0.000187
H382	H	0.743322	0.229956	0.249813
H383	H	0.993322	0.479956	0.499813
H384	H	1.243322	0.729956	0.749813
H385	H	0.906198	0.006585	0.665721
H386	H	1.156198	0.256585	0.915721
H387	H	1.406198	0.506585	1.165721
H388	H	1.656198	0.756585	1.415721
H389	H	0.046435	-0.026600	-0.000306
H390	H	0.296435	0.223400	0.249694
H391	H	0.546435	0.473400	0.499694
H392	H	0.796435	0.723400	0.749694
H393	H	0.734240	0.178392	0.333848
H394	H	0.984240	0.428392	0.583848
H395	H	1.234240	0.678392	0.833848
H396	H	1.484240	0.928392	1.083848
H397	H	0.939303	-0.133736	-0.000212
H398	H	1.189303	0.116264	0.249788
H399	H	1.439303	0.366264	0.499788
H400	H	1.689303	0.616264	0.749788
H401	H	0.803346	0.207313	0.568901
H402	H	1.053346	0.457313	0.818901
H403	H	1.303346	0.707313	1.068901
H404	H	1.553346	0.957313	1.318901
H405	H	0.909175	-0.353560	-0.077208
H406	H	1.159175	-0.103560	0.172792
H407	H	1.409175	0.146440	0.422792
H408	H	1.659175	0.396440	0.672792
H409	H	0.907244	-0.484991	-0.077221
H410	H	1.157244	-0.234991	0.172779
H411	H	1.407244	0.015009	0.422779
H412	H	1.657244	0.265009	0.672779
H413	H	0.906200	0.006582	0.804008
H414	H	1.156200	0.256582	1.054008
H415	H	1.406200	0.506582	1.304008
H416	H	1.656200	0.756582	1.554008
