data_functionalizedCrystal
_audit_creation_method	'MofGen! by Chris Wilmer'
_symmetry_space_group_name_H-M	'P1'
_symmetry_Int_Tables_number	1
_symmetry_cell_setting	triclinic
loop_
_symmetry_equiv_pos_as_xyz
  x,y,z
_cell_length_a	12.645331
_cell_length_b	18.050589
_cell_length_c	12.645323
_cell_angle_alpha	89.974557
_cell_angle_beta	89.977324
_cell_angle_gamma	90.027200
loop_
_atom_site_label
_atom_site_type_symbol
_atom_site_fract_x
_atom_site_fract_y
_atom_site_fract_z
Zn1	Zn	1.620654	-0.295674	-0.599442
Zn2	Zn	1.953987	0.037660	-0.266109
Zn3	Zn	2.287320	0.370993	0.067225
Zn4	Zn	1.620503	-0.419873	-0.422180
Zn5	Zn	1.953836	-0.086539	-0.088847
Zn6	Zn	2.287169	0.246794	0.244486
Zn7	Zn	1.443368	-0.295699	-0.422186
Zn8	Zn	1.776702	0.037634	-0.088853
Zn9	Zn	2.110035	0.370968	0.244480
Zn10	Zn	1.443317	-0.419824	-0.599396
Zn11	Zn	1.776651	-0.086491	-0.266062
Zn12	Zn	2.109984	0.246842	0.067271
O13	O	1.531961	-0.357767	-0.510801
O14	O	1.865294	-0.024434	-0.177468
O15	O	2.198627	0.308899	0.155866
O16	O	1.768981	-0.312159	-0.575945
O17	O	2.102314	0.021174	-0.242611
O18	O	2.435648	0.354508	0.090722
O19	O	1.596964	-0.403432	-0.273834
O20	O	1.930297	-0.070098	0.059500
O21	O	2.263630	0.263235	0.392833
O22	O	1.466970	-0.191771	-0.445722
O23	O	1.800303	0.141562	-0.112388
O24	O	2.133637	0.474896	0.220945
O25	O	1.768870	-0.403407	-0.445711
O26	O	2.102203	-0.070074	-0.112378
O27	O	2.435537	0.263259	0.220955
O28	O	1.597221	-0.191753	-0.575951
O29	O	1.930554	0.141581	-0.242617
O30	O	2.263887	0.474914	0.090716
O31	O	1.466824	-0.312202	-0.273838
O32	O	1.800157	0.021132	0.059495
O33	O	2.133490	0.354465	0.392828
O34	O	1.295014	-0.312155	-0.445677
O35	O	1.628348	0.021179	-0.112343
O36	O	1.961681	0.354512	0.220990
O37	O	1.466883	-0.403325	-0.747749
O38	O	1.800217	-0.069991	-0.414416
O39	O	2.133550	0.263342	-0.081083
O40	O	1.294977	-0.403349	-0.575872
O41	O	1.628310	-0.070016	-0.242538
O42	O	1.961644	0.263318	0.090795
O43	O	1.597172	-0.312112	-0.747783
O44	O	1.930505	0.021222	-0.414450
O45	O	2.263838	0.354555	-0.081117
O46	O	1.596914	-0.523791	-0.445666
O47	O	1.930248	-0.190458	-0.112333
O48	O	2.263581	0.142876	0.221000
O49	O	1.466737	-0.523755	-0.575866
O50	O	1.800070	-0.190422	-0.242532
O51	O	2.133404	0.142911	0.090801
C52	C	1.256531	-0.357750	-0.510770
C53	C	1.589864	-0.024416	-0.177437
C54	C	1.923198	0.308917	0.155896
C55	C	1.138701	-0.357760	-0.510783
C56	C	1.472034	-0.024427	-0.177449
C57	C	1.805367	0.308907	0.155884
C58	C	0.971125	-0.300126	-0.429329
C59	C	1.304458	0.033207	-0.095995
C60	C	1.637792	0.366541	0.237338
C61	C	1.093685	-0.300275	-0.428970
C62	C	1.427018	0.033058	-0.095637
C63	C	1.760351	0.366392	0.237697
C64	C	1.094160	-0.435993	-0.480267
C65	C	1.427493	-0.102660	-0.146933
C66	C	1.760827	0.230673	0.186400
C67	C	0.971562	-0.435678	-0.479711
C68	C	1.304895	-0.102345	-0.146377
C69	C	1.638228	0.230988	0.186956
C70	C	0.971557	-0.337906	-0.623067
C71	C	1.304890	-0.004573	-0.289733
C72	C	1.638223	0.328761	0.043600
C73	C	1.094163	-0.336158	-0.622443
C74	C	1.427496	-0.002825	-0.289110
C75	C	1.760830	0.330509	0.044224
C76	C	1.531833	-0.550720	-0.510784
C77	C	1.865166	-0.217386	-0.177450
C78	C	2.198499	0.115947	0.155883
C79	C	1.531875	-0.633265	-0.510811
C80	C	1.865208	-0.299932	-0.177478
C81	C	2.198541	0.033401	0.155855
C82	C	1.461154	-0.832724	-0.581589
C83	C	1.794487	-0.499390	-0.248256
C84	C	2.127821	-0.166057	0.085078
C85	C	1.435307	-0.882166	-0.484854
C86	C	1.768641	-0.548832	-0.151521
C87	C	2.101974	-0.215499	0.181812
C88	C	1.531979	-0.784396	-0.510825
C89	C	1.865312	-0.451062	-0.177492
C90	C	2.198646	-0.117729	0.155841
C91	C	1.557878	-0.882035	-0.607571
C92	C	1.891211	-0.548702	-0.274238
C93	C	2.224544	-0.215369	0.059096
C94	C	1.532078	-0.930381	-0.510847
C95	C	1.865411	-0.597047	-0.177514
C96	C	2.198744	-0.263714	0.155820
C97	C	1.506082	-0.832751	-0.414039
C98	C	1.839415	-0.499417	-0.080706
C99	C	2.172748	-0.166084	0.252627
C100	C	1.628697	-0.832616	-0.536821
C101	C	1.962030	-0.499282	-0.203488
C102	C	2.295363	-0.165949	0.129846
C103	C	1.602887	-0.882036	-0.440020
C104	C	1.936220	-0.548702	-0.106687
C105	C	2.269554	-0.215369	0.226647
C106	C	1.531919	-0.700297	-0.510814
C107	C	1.865253	-0.366964	-0.177481
C108	C	2.198586	-0.033631	0.155853
C109	C	1.532137	-1.014477	-0.510847
C110	C	1.865471	-0.681144	-0.177514
C111	C	2.198804	-0.347811	0.155819
C112	C	1.808466	-0.357786	-0.510832
C113	C	2.141799	-0.024452	-0.177499
C114	C	2.475132	0.308881	0.155834
C115	C	1.926296	-0.357793	-0.510846
C116	C	2.259629	-0.024460	-0.177513
C117	C	2.592962	0.308873	0.155821
C118	C	1.532039	-0.357710	-0.787307
C119	C	1.865372	-0.024377	-0.453973
C120	C	2.198705	0.308957	-0.120640
C121	C	1.532072	-0.357686	-0.905137
C122	C	1.865405	-0.024352	-0.571803
C123	C	2.198739	0.308981	-0.238470
C124	C	1.532118	-0.164062	-0.510842
C125	C	1.865451	0.169272	-0.177509
C126	C	2.198785	0.502605	0.155825
C127	C	1.532185	-0.081516	-0.510859
C128	C	1.865518	0.251817	-0.177526
C129	C	2.198852	0.585151	0.155807
C130	C	1.449855	-0.414797	-1.072679
C131	C	1.783188	-0.081464	-0.739346
C132	C	2.116522	0.251870	-0.406013
C133	C	1.450070	-0.415080	-0.950119
C134	C	1.783403	-0.081747	-0.616786
C135	C	2.116737	0.251587	-0.283453
C136	C	1.643766	-0.378927	-0.949656
C137	C	1.977099	-0.045593	-0.616323
C138	C	2.310433	0.287740	-0.282990
C139	C	1.643315	-0.379285	-1.072254
C140	C	1.976648	-0.045951	-0.738921
C141	C	2.309982	0.287382	-0.405588
C142	C	1.503651	-0.279014	-1.072336
C143	C	1.836985	0.054320	-0.739002
C144	C	2.170318	0.387653	-0.405669
C145	C	1.501159	-0.279485	-0.949729
C146	C	1.834492	0.053848	-0.616396
C147	C	2.167826	0.387182	-0.283063
C148	C	1.531944	-0.357771	-0.235371
C149	C	1.865277	-0.024438	0.097962
C150	C	2.198610	0.308896	0.431295
C151	C	1.532116	-0.357586	-0.117542
C152	C	1.865449	-0.024253	0.215791
C153	C	2.198783	0.309080	0.549125
H154	H	0.940675	-0.281854	-0.650819
H155	H	1.274008	0.051479	-0.317486
H156	H	1.607341	0.384813	0.015847
H157	H	1.124810	-0.375097	-0.686428
H158	H	1.458144	-0.041763	-0.353095
H159	H	1.791477	0.291570	-0.019761
Cl160	Cl	1.680566	-0.467965	-1.116431
Cl161	Cl	2.013900	-0.134631	-0.783098
Cl162	Cl	2.347233	0.198702	-0.449764
H163	H	1.367244	-0.401788	-0.920018
H164	H	1.700578	-0.068454	-0.586684
H165	H	2.033911	0.264879	-0.253351
H166	H	1.353563	-0.903947	-0.462887
H167	H	1.686896	-0.570614	-0.129554
H168	H	2.020229	-0.237280	0.203780
H169	H	0.941676	-0.241938	-0.448251
H170	H	1.275009	0.091395	-0.114917
H171	H	1.608343	0.424728	0.218416
H172	H	1.706683	-0.339424	-1.101934
H173	H	2.040016	-0.006091	-0.768600
H174	H	2.373350	0.327243	-0.435267
H175	H	0.942911	-0.452544	-0.397672
H176	H	1.276245	-0.119211	-0.064338
H177	H	1.609578	0.214123	0.268995
H178	H	1.123801	-0.242262	-0.448097
H179	H	1.457134	0.091071	-0.114764
H180	H	1.790467	0.424405	0.218570
H181	H	1.556698	-0.234606	-0.919109
H182	H	1.890032	0.098727	-0.585775
H183	H	2.223365	0.432061	-0.252442
Cl184	Cl	1.321592	-0.394471	-1.118174
Cl185	Cl	1.654925	-0.061137	-0.784840
Cl186	Cl	1.988259	0.272196	-0.451507
H187	H	1.122959	-0.313420	-0.345809
H188	H	1.456292	0.019914	-0.012476
H189	H	1.789626	0.353247	0.320857
H190	H	0.941905	-0.480100	-0.536495
H191	H	1.275239	-0.146767	-0.203162
H192	H	1.608572	0.186567	0.130171
Cl193	Cl	1.591636	-0.915463	-0.733874
Cl194	Cl	1.924970	-0.582129	-0.400540
Cl195	Cl	2.258303	-0.248796	-0.067207
Cl196	Cl	1.374247	-0.254755	-0.904817
Cl197	Cl	1.707580	0.078579	-0.571484
Cl198	Cl	2.040913	0.411912	-0.238150
Cl199	Cl	1.368551	-0.799290	-0.673852
Cl200	Cl	1.701885	-0.465957	-0.340519
Cl201	Cl	2.035218	-0.132623	-0.007185
Cl202	Cl	1.478517	-0.504158	-1.120336
Cl203	Cl	1.811850	-0.170825	-0.787003
Cl204	Cl	2.145184	0.162509	-0.453670
Cl205	Cl	1.479140	-0.505003	-0.904852
Cl206	Cl	1.812473	-0.171670	-0.571518
Cl207	Cl	2.145807	0.161663	-0.238185
H208	H	1.710423	-0.810837	-0.558835
H209	H	2.043756	-0.477503	-0.225502
H210	H	2.377090	-0.144170	0.107832
Cl211	Cl	1.596154	-0.213205	-1.117130
Cl212	Cl	1.929487	0.120129	-0.783797
Cl213	Cl	2.262820	0.453462	-0.450463
Cl214	Cl	1.472178	-0.799469	-0.287697
Cl215	Cl	1.805511	-0.466136	0.045636
Cl216	Cl	2.138845	-0.132803	0.378969
H217	H	1.123318	-0.480108	-0.537776
H218	H	1.456651	-0.146775	-0.204443
H219	H	1.789985	0.186558	0.128890
Cl220	Cl	1.139139	-0.247280	-0.657986
Cl221	Cl	1.472472	0.086053	-0.324652
Cl222	Cl	1.805805	0.419387	0.008681
Cl223	Cl	0.923473	-0.320180	-0.301693
Cl224	Cl	1.256807	0.013154	0.031640
Cl225	Cl	1.590140	0.346487	0.364974
H226	H	1.706699	-0.338575	-0.920522
H227	H	2.040032	-0.005242	-0.587188
H228	H	2.373366	0.328092	-0.253855
Cl229	Cl	1.141475	-0.462482	-0.354962
Cl230	Cl	1.474809	-0.129148	-0.021629
Cl231	Cl	1.808142	0.204185	0.311705
H232	H	0.942567	-0.379909	-0.683804
H233	H	1.275900	-0.046575	-0.350471
H234	H	1.609233	0.286758	-0.017138
Cl235	Cl	1.695428	-0.915256	-0.347540
Cl236	Cl	2.028761	-0.581923	-0.014207
Cl237	Cl	2.362094	-0.248590	0.319126
Cl238	Cl	1.681664	-0.466678	-0.902279
Cl239	Cl	2.014997	-0.133344	-0.568945
Cl240	Cl	2.348330	0.199989	-0.235612
Cl241	Cl	1.380091	-0.249122	-1.120043
Cl242	Cl	1.713424	0.084212	-0.786710
Cl243	Cl	2.046758	0.417545	-0.453377
