data_functionalizedCrystal
_audit_creation_method	'MofGen! by Chris Wilmer'
_symmetry_space_group_name_H-M	'P1'
_symmetry_Int_Tables_number	1
_symmetry_cell_setting	triclinic
loop_
_symmetry_equiv_pos_as_xyz
  x,y,z
_cell_length_a	27.731994
_cell_length_b	27.731996
_cell_length_c	26.210047
_cell_angle_alpha	89.998501
_cell_angle_beta	89.997128
_cell_angle_gamma	82.620961
loop_
_atom_site_label
_atom_site_type_symbol
_atom_site_fract_x
_atom_site_fract_y
_atom_site_fract_z
O1	O	0.640938	0.057387	-0.042363
O2	O	0.500139	0.066160	-0.042381
O3	O	0.574924	-0.008626	-0.042360
O4	O	0.566152	0.132173	-0.042383
O5	O	0.574910	-0.008614	0.042498
O6	O	0.500124	0.066172	0.042477
O7	O	0.640923	0.057398	0.042495
Cu8	Cu	0.570522	0.061786	0.050235
Cu9	Cu	0.570540	0.061772	-0.050120
O10	O	0.566138	0.132184	0.042475
C11	C	0.482124	0.065986	0.000046
C12	C	0.428468	0.065443	0.000040
C13	C	0.095742	0.062034	0.046316
C14	C	-0.105915	0.059972	0.046322
O15	O	-0.131995	0.059690	0.085661
N16	N	-0.131122	0.059710	0.000066
C17	C	-0.105911	0.059960	-0.046195
O18	O	-0.131978	0.059684	-0.085538
C19	C	0.095746	0.062018	-0.046200
C20	C	0.120950	0.062285	0.000059
C21	C	0.120946	0.062301	0.092572
C22	C	0.171357	0.062819	0.092570
C23	C	0.196564	0.063070	0.046312
C24	C	0.171361	0.062803	0.000057
C25	C	0.120957	0.062264	-0.092460
C26	C	0.171374	0.062777	-0.092458
C27	C	0.196578	0.063045	-0.046199
C28	C	0.246979	0.063572	-0.046202
N29	N	0.272186	0.063835	0.000054
C30	C	0.246979	0.063584	0.046311
C31	C	-0.211784	0.058880	-0.046188
C32	C	-0.262199	0.058366	-0.046187
C33	C	-0.262199	0.058378	0.046330
C34	C	-0.211785	0.058895	0.046328
C35	C	-0.186578	0.059142	0.000068
C36	C	0.352845	0.064672	0.046303
C37	C	0.403261	0.065192	0.046297
C38	C	0.403257	0.065178	-0.046220
C39	C	0.352846	0.064660	-0.046214
C40	C	0.327642	0.064406	0.000052
O41	O	0.273090	0.063849	-0.085521
O42	O	0.273055	0.063848	0.085649
C43	C	0.045331	0.061516	0.046318
C44	C	0.020127	0.061249	0.000063
C45	C	0.045335	0.061500	-0.046194
C46	C	-0.030287	0.060735	0.000064
C47	C	-0.055494	0.060484	0.046322
C48	C	-0.030287	0.060746	0.092578
C49	C	0.020124	0.061264	0.092576
C50	C	0.020128	0.061238	-0.092450
C51	C	-0.030283	0.060720	-0.092445
C52	C	-0.055491	0.060469	-0.046187
C53	C	0.574737	-0.026628	0.000071
C54	C	0.574194	-0.080284	0.000076
C55	C	0.570787	-0.413006	-0.046206
C56	C	0.568726	-0.614664	-0.046215
O57	O	0.568445	-0.640740	-0.085554
N58	N	0.568462	-0.639874	0.000041
C59	C	0.568710	-0.614667	0.046302
O60	O	0.568434	-0.640737	0.085645
C61	C	0.570768	-0.413010	0.046311
C62	C	0.571037	-0.387802	0.000052
C63	C	0.571055	-0.387798	-0.092461
C64	C	0.571573	-0.337387	-0.092458
C65	C	0.571823	-0.312184	-0.046200
C66	C	0.571555	-0.337391	0.000055
C67	C	0.571013	-0.387803	0.092571
C68	C	0.571526	-0.337385	0.092569
C69	C	0.571795	-0.312178	0.046311
C70	C	0.572322	-0.261777	0.046315
N71	N	0.572586	-0.236566	0.000060
C72	C	0.572336	-0.261769	-0.046198
C73	C	0.567631	-0.720540	0.046294
C74	C	0.567118	-0.770954	0.046292
C75	C	0.567132	-0.770947	-0.046225
C76	C	0.567649	-0.720533	-0.046222
C77	C	0.567895	-0.695329	0.000038
C78	C	0.573424	-0.155903	-0.046189
C79	C	0.573944	-0.105487	-0.046182
C80	C	0.573927	-0.105498	0.046335
C81	C	0.573410	-0.155910	0.046328
C82	C	0.573157	-0.181110	0.000062
O83	O	0.572598	-0.235669	0.085634
O84	O	0.572602	-0.235689	-0.085535
C85	C	0.570269	-0.463417	-0.046209
C86	C	0.570001	-0.488624	0.000046
C87	C	0.570251	-0.463421	0.046304
C88	C	0.569487	-0.539039	0.000044
C89	C	0.569238	-0.564242	-0.046213
C90	C	0.569502	-0.539031	-0.092469
C91	C	0.570020	-0.488620	-0.092466
C92	C	0.569987	-0.488632	0.092560
C93	C	0.569469	-0.539043	0.092553
C94	C	0.569220	-0.564246	0.046296
C95	C	0.658938	0.057573	0.000067
C96	C	0.712594	0.058115	0.000070
C97	C	0.566325	0.150186	0.000043
C98	C	0.566868	0.203842	0.000034
N99	N	0.570514	0.061795	0.120818
N100	N	0.570552	0.061759	-0.120704
C101	C	0.603651	0.028664	0.473342
C102	C	0.603662	0.028658	0.687000
O103	O	0.631818	0.000491	0.714630
N104	N	0.570542	0.061762	0.713712
C105	C	0.537415	0.094867	0.687007
O106	O	0.509242	0.123021	0.714630
C107	C	0.537403	0.094872	0.473349
C108	C	0.570528	0.061769	0.446640
C109	C	0.636773	-0.004436	0.446632
C110	C	0.636772	-0.004432	0.393221
C111	C	0.603649	0.028672	0.366519
C112	C	0.570527	0.061773	0.393228
C113	C	0.504274	0.127975	0.446644
C114	C	0.504273	0.127972	0.393226
C115	C	0.537398	0.094869	0.366517
C116	C	0.537402	0.094881	0.313115
N117	N	0.570522	0.061777	0.286403
C118	C	0.603645	0.028672	0.313105
C119	C	0.537425	0.094864	0.799180
C120	C	0.537429	0.094863	0.852594
C121	C	0.603675	0.028653	0.852584
C122	C	0.603673	0.028656	0.799169
C123	C	0.570545	0.061760	0.772468
C124	C	0.603640	0.028683	0.200937
C125	C	0.603637	0.028691	0.147520
C126	C	0.537390	0.094900	0.147535
C127	C	0.537394	0.094894	0.200947
C128	C	0.570521	0.061781	0.227646
O129	O	0.509257	0.123029	0.285452
O130	O	0.631807	0.000516	0.285472
C131	C	0.603652	0.028661	0.526753
C132	C	0.570530	0.061761	0.553463
C133	C	0.537407	0.094865	0.526761
C134	C	0.570534	0.061761	0.606877
C135	C	0.603657	0.028657	0.633579
C136	C	0.636777	-0.004447	0.606867
C137	C	0.636776	-0.004444	0.553455
C138	C	0.504287	0.127969	0.553473
C139	C	0.504292	0.127963	0.606884
C140	C	0.537415	0.094859	0.633586
H141	H	-0.191267	0.059113	0.083997
O142	O	0.505207	0.127041	0.878457
C143	C	0.475981	0.156265	0.843429
H144	H	0.475590	0.136447	0.805355
H145	H	0.437321	0.163912	0.858862
H146	H	0.491398	0.192065	0.837745
H147	H	0.570850	-0.408313	-0.130131
O148	O	0.635830	-0.003573	0.878471
C149	C	0.628326	-0.051370	0.865433
H150	H	0.609696	-0.051178	0.826650
H151	H	0.664840	-0.075440	0.863608
H152	H	0.604375	-0.066143	0.895496
H153	H	0.423779	0.065411	0.083969
H154	H	-0.050800	0.060507	-0.130117
O155	O	0.569170	-0.563532	-0.137389
C156	C	0.526994	-0.586900	-0.140145
H157	H	0.497876	-0.567646	-0.113899
H158	H	0.512932	-0.585533	-0.181057
H159	H	0.536068	-0.626417	-0.127707
O160	O	0.505312	0.127048	0.773192
C161	C	0.530967	0.156698	0.742304
H162	H	0.568936	0.137174	0.734289
H163	H	0.510726	0.164499	0.704749
H164	H	0.533985	0.192397	0.762895
O165	O	0.668874	-0.036586	0.367185
C166	C	0.698506	-0.011028	0.336172
H167	H	0.699227	0.027064	0.352261
H168	H	0.737018	-0.031162	0.335434
H169	H	0.683235	-0.008317	0.295743
O170	O	0.472067	0.160065	0.527514
C171	C	0.442447	0.134399	0.496605
H172	H	0.441919	0.096279	0.512695
H173	H	0.403877	0.154400	0.496006
H174	H	0.457592	0.131765	0.456122
O175	O	0.569121	-0.563489	0.137508
C176	C	0.527364	-0.545350	0.165638
H177	H	0.498244	-0.527440	0.138560
H178	H	0.512955	-0.576550	0.186624
H179	H	0.537127	-0.517394	0.194478
O180	O	0.635865	-0.003501	0.226788
C181	C	0.665087	-0.032720	0.191751
H182	H	0.665475	-0.012897	0.153679
H183	H	0.703749	-0.040372	0.207176
H184	H	0.649667	-0.068519	0.186067
O185	O	0.567885	-0.696119	-0.091203
C186	C	0.567568	-0.729184	-0.132028
H187	H	0.551892	-0.763001	-0.118466
H188	H	0.544244	-0.711371	-0.164385
H189	H	0.606312	-0.739916	-0.146245
H190	H	0.663746	-0.031396	0.468368
O191	O	0.328304	0.064491	0.091212
C192	C	0.293351	0.106080	0.093983
H193	H	0.283860	0.119958	0.053818
H194	H	0.259206	0.096302	0.113570
H195	H	0.308721	0.135611	0.116799
H196	H	0.574164	-0.084966	-0.083853
H197	H	0.571790	-0.316867	-0.130126
H198	H	-0.282732	0.058174	0.083995
H199	H	0.100445	0.062046	-0.130130
H200	H	0.573216	-0.176415	-0.083863
H201	H	0.100428	0.062095	0.130242
O202	O	0.505170	0.127067	0.226816
C203	C	0.475944	0.156295	0.191792
H204	H	0.475558	0.136484	0.153713
H205	H	0.437282	0.163935	0.207222
H206	H	0.491357	0.192099	0.186118
O207	O	-0.054787	0.060414	0.137500
C208	C	-0.078157	0.018239	0.140262
H209	H	-0.058904	-0.010879	0.114016
H210	H	-0.076788	0.004177	0.181175
H211	H	-0.117674	0.027314	0.127829
H212	H	0.570238	-0.468101	-0.130135
O213	O	0.472048	0.160149	0.472502
C214	C	0.442823	0.189369	0.437470
H215	H	0.442436	0.169549	0.399397
H216	H	0.404161	0.197015	0.452899
H217	H	0.458238	0.225170	0.431786
H218	H	0.663749	-0.031399	0.531712
H219	H	0.566929	-0.791477	-0.083890
H220	H	-0.282716	0.058156	-0.083856
O221	O	0.668886	-0.036653	0.632834
C222	C	0.643222	-0.066281	0.663741
H223	H	0.605110	-0.066825	0.647641
H224	H	0.663237	-0.104845	0.664352
H225	H	0.640568	-0.051130	0.704221
O226	O	0.328317	0.064340	-0.091117
C227	C	0.304971	0.022150	-0.093886
H228	H	0.299349	0.008115	-0.053722
H229	H	0.268218	0.031200	-0.113468
H230	H	0.328468	-0.006978	-0.116707
H231	H	0.510423	0.121854	0.125786
H232	H	0.570191	-0.468116	0.130229
O233	O	0.566841	-0.795361	0.091273
C234	C	0.567183	-0.762300	0.132098
H235	H	0.552243	-0.724245	0.118532
H236	H	0.543551	-0.773613	0.164448
H237	H	0.606031	-0.762309	0.146327
H238	H	-0.191265	0.059081	-0.083861
O239	O	0.472065	0.160141	0.632747
C240	C	0.442839	0.189365	0.597719
H241	H	0.442453	0.169550	0.559643
H242	H	0.404178	0.197008	0.613149
H243	H	0.458254	0.225167	0.592040
H244	H	0.567833	-0.700025	0.083967
H245	H	0.477295	0.154929	0.371489
O246	O	0.195765	0.063051	0.137552
C247	C	0.162696	0.062729	0.178374
H248	H	0.128881	0.047052	0.164809
H249	H	0.180506	0.039403	0.210731
H250	H	0.151961	0.101472	0.192592
O251	O	0.195781	0.063042	-0.137443
C252	C	0.162723	0.062684	-0.178266
H253	H	0.124666	0.077625	-0.164704
H254	H	0.174035	0.086307	-0.210624
H255	H	0.162736	0.023831	-0.192483
O256	O	0.570728	-0.412203	0.137553
C257	C	0.571067	-0.379139	0.178375
H258	H	0.556131	-0.341084	0.164803
H259	H	0.547429	-0.390446	0.210723
H260	H	0.609913	-0.379149	0.192609
H261	H	0.423790	0.065384	-0.083881
H262	H	0.571719	-0.316866	0.130242
O263	O	0.573132	-0.180322	0.091308
C264	C	0.573479	-0.147266	0.132136
H265	H	0.558544	-0.109207	0.118574
H266	H	0.549844	-0.158577	0.164485
H267	H	0.612328	-0.147282	0.146366
H268	H	0.040640	0.061482	0.130245
H269	H	0.040647	0.061441	-0.130119
H270	H	0.574133	-0.084969	0.083997
H271	H	0.630613	0.001735	0.125775
H272	H	0.630646	0.001700	0.777425
