data_functionalizedCrystal
_audit_creation_method	'MofGen! by Chris Wilmer'
_symmetry_space_group_name_H-M	'P1'
_symmetry_Int_Tables_number	1
_symmetry_cell_setting	triclinic
loop_
_symmetry_equiv_pos_as_xyz
  x,y,z
_cell_length_a	22.863218
_cell_length_b	22.862586
_cell_length_c	22.858745
_cell_angle_alpha	60.006856
_cell_angle_beta	60.013818
_cell_angle_gamma	59.991795
loop_
_atom_site_label
_atom_site_type_symbol
_atom_site_fract_x
_atom_site_fract_y
_atom_site_fract_z
O1	O	0.081006	-0.854581	0.714630
O2	O	0.030492	-0.665350	0.575795
O3	O	0.150314	-0.785089	0.575706
O4	O	-0.038816	-0.734841	0.714718
O5	O	0.190066	-0.745348	0.615369
O6	O	0.070244	-0.625609	0.615458
O7	O	0.120758	-0.814840	0.754293
Zn8	Zn	0.101812	-0.713914	0.691173
Zn9	Zn	0.049438	-0.766275	0.638915
O10	O	0.000936	-0.695100	0.754381
N11	N	0.137558	-0.678184	0.726840
N12	N	0.013698	-0.802011	0.603247
C13	C	0.187224	-0.518558	0.776483
C14	C	0.187235	-0.628552	0.776467
C15	C	0.214753	-0.601061	0.803961
C16	C	0.334724	-0.580392	0.740801
C17	C	0.409718	-0.605392	0.715784
C18	C	0.409746	-0.726732	0.762051
C19	C	0.334754	-0.701730	0.787070
C20	C	0.205297	-0.481049	0.702756
C21	C	0.180267	-0.406048	0.677779
C22	C	0.119099	-0.406071	0.800259
C23	C	0.144128	-0.481071	0.825236
C24	C	0.113501	-0.610437	0.794610
C25	C	0.088492	-0.635428	0.769607
C26	C	0.210943	-0.696652	0.708337
C27	C	0.235956	-0.671660	0.733331
C28	C	0.113585	-0.610461	0.923980
C29	C	0.088635	-0.635476	0.998978
C30	C	0.211128	-0.696714	0.998930
C31	C	0.236077	-0.671700	0.923930
C32	C	0.187303	-0.628571	0.886457
C33	C	0.297246	-0.628559	0.776441
C34	C	-0.117796	-0.823430	0.581283
C35	C	-0.007671	-0.823587	0.471446
C36	C	-0.007879	-0.933535	0.581483
C37	C	-0.007861	-0.823583	0.581554
C38	C	-0.035301	-0.851035	0.553942
N39	N	0.446162	-0.678198	0.726752
O40	O	0.691234	-0.690164	0.550341
O41	O	0.691462	-0.829422	0.739388
O42	O	0.691373	-0.829102	0.619485
O43	O	0.691323	-0.690484	0.670244
O44	O	0.572233	-0.789455	0.659278
O45	O	0.572322	-0.789775	0.779181
O46	O	0.572094	-0.650517	0.590134
Zn47	Zn	0.553292	-0.713851	0.690976
Zn48	Zn	0.710264	-0.766088	0.638547
O49	O	0.572183	-0.650837	0.710037
N50	N	0.817394	-0.801741	0.602763
N51	N	0.137538	-0.369628	0.726874
O52	O	-0.038795	-0.124419	0.714761
O53	O	0.150256	-0.124417	0.575522
O54	O	0.030331	-0.124432	0.575860
O55	O	0.081131	-0.124404	0.714423
O56	O	0.070086	-0.243584	0.615573
O57	O	0.190011	-0.243569	0.615236
O58	O	0.000960	-0.243571	0.754474
Zn59	Zn	0.101797	-0.262488	0.691160
Zn60	Zn	0.049419	-0.105500	0.638836
O61	O	0.120885	-0.243556	0.754137
N62	N	0.013669	0.001640	0.603123
N63	N	0.137749	-0.678230	1.035381
O64	O	0.125655	-0.854547	1.280566
O65	O	-0.013567	-0.665426	1.280590
O66	O	-0.013245	-0.785328	1.280537
O67	O	0.125333	-0.734644	1.280618
O68	O	0.026456	-0.745599	1.161392
O69	O	0.026134	-0.625697	1.161444
O70	O	0.165355	-0.814817	1.161420
Zn71	Zn	0.102048	-0.713949	1.142516
Zn72	Zn	0.049740	-0.766294	1.299495
O73	O	0.165033	-0.694915	1.161473
N74	N	0.014038	-0.802020	1.406629
C75	C	0.045634	-0.621635	0.576499
C76	C	0.194019	-0.769918	0.576389
C77	C	0.105616	-0.858555	0.753588
C78	C	-0.042769	-0.710272	0.753698
C79	C	0.631920	-0.828776	0.783102
C80	C	0.631811	-0.828380	0.634616
C81	C	0.631633	-0.651162	0.546422
C82	C	0.631745	-0.651559	0.694907
C83	C	0.193900	-0.183846	0.576155
C84	C	0.045437	-0.184012	0.576622
C85	C	-0.042734	-0.183994	0.753792
C86	C	0.105780	-0.183977	0.753375
C87	C	-0.012889	-0.621735	1.221020
C88	C	-0.012483	-0.770211	1.220931
C89	C	0.164678	-0.858508	1.220991
C90	C	0.164280	-0.710023	1.221052
H91	H	0.073862	-0.575336	0.893474
C92	C	-0.106746	-0.245234	0.872809
C93	C	-0.116029	-0.183990	0.812802
H94	H	-0.151998	-0.245231	0.909235
H95	H	-0.076642	-0.245223	0.890100
H96	H	-0.085313	-0.286785	0.859789
H97	H	-0.137458	-0.142439	0.825821
H98	H	-0.146145	-0.183995	0.795509
H99	H	0.116656	-0.183968	0.796904
H100	H	-0.056598	-0.567419	1.221026
H101	H	0.116407	-0.912913	0.797192
C102	C	-0.128924	-0.638255	0.829150
C103	C	-0.116098	-0.695821	0.812636
H104	H	-0.174191	-0.629338	0.865540
H105	H	-0.128804	-0.596793	0.787524
H106	H	-0.092479	-0.649600	0.845597
H107	H	-0.152540	-0.684475	0.796184
H108	H	-0.116223	-0.737292	0.854270
H109	H	0.129402	-0.511613	0.885274
H110	H	0.207816	-0.699179	1.221068
H111	H	-0.056000	-0.781036	1.220859
C112	C	0.632021	-0.862287	0.900761
C113	C	0.632006	-0.887799	0.856396
H114	H	0.632079	-0.898728	0.946008
H115	H	0.590455	-0.821596	0.907061
H116	H	0.673549	-0.849246	0.879307
H117	H	0.590475	-0.900835	0.877847
H118	H	0.673576	-0.928502	0.850098
H119	H	0.208389	-0.912821	1.220975
H120	H	0.028603	-0.620718	1.029520
H121	H	0.034558	-0.184014	0.533090
C122	C	0.307866	-0.806609	1.021965
C123	C	0.264743	-0.744109	1.040114
H124	H	0.340963	-0.835870	1.047395
H125	H	0.333268	-0.794299	0.971935
H126	H	0.278611	-0.832052	1.034269
H127	H	0.293997	-0.718664	1.027806
H128	H	0.239339	-0.756418	1.090155
C129	C	0.335198	-0.629093	0.839565
C130	C	0.317114	-0.691611	0.882684
H131	H	0.385226	-0.641387	0.814100
H132	H	0.322920	-0.603662	0.868827
H133	H	0.309719	-0.599836	0.806516
H134	H	0.342589	-0.720866	0.915737
H135	H	0.329400	-0.717053	0.853419
C136	C	0.631762	-0.861351	0.550049
C137	C	0.631833	-0.887169	0.619958
H138	H	0.631770	-0.897644	0.541003
H139	H	0.673277	-0.848284	0.516992
H140	H	0.590183	-0.820622	0.544746
H141	H	0.673415	-0.927895	0.625259
H142	H	0.590314	-0.900246	0.653024
C143	C	0.631517	-0.617646	0.428767
C144	C	0.631535	-0.592135	0.473132
H145	H	0.631461	-0.581206	0.383521
H146	H	0.589997	-0.630688	0.450220
H147	H	0.673091	-0.658341	0.422465
H148	H	0.589959	-0.551444	0.479439
H149	H	0.673060	-0.579083	0.451675
C150	C	0.693000	-0.617155	0.726290
C151	C	0.631724	-0.592773	0.709568
H152	H	0.692983	-0.580864	0.735345
H153	H	0.734517	-0.628271	0.687191
H154	H	0.693049	-0.658861	0.767681
H155	H	0.631677	-0.551070	0.668173
H156	H	0.590196	-0.581647	0.748670
H157	H	0.073825	-0.575337	0.829731
C158	C	0.321027	-0.244508	0.540938
C159	C	0.267044	-0.183399	0.516997
H160	H	0.366184	-0.244229	0.504418
H161	H	0.312522	-0.286145	0.552074
H162	H	0.320991	-0.244587	0.582552
H163	H	0.267077	-0.183323	0.475386
H164	H	0.275551	-0.141751	0.505851
C165	C	-0.030043	-0.572422	0.832702
C166	C	0.007442	-0.615528	0.789554
H167	H	-0.080079	-0.560143	0.845021
H168	H	-0.017776	-0.530013	0.807264
H169	H	-0.017704	-0.597882	0.875092
H170	H	-0.004893	-0.590066	0.747162
H171	H	-0.004831	-0.657944	0.814992
H172	H	0.250621	-0.731757	0.673222
H173	H	0.304240	-0.740958	0.816091
C174	C	0.347983	-0.666091	0.638793
C175	C	0.317003	-0.691546	0.713385
H176	H	0.398017	-0.678366	0.626479
H177	H	0.326881	-0.615495	0.621577
H178	H	0.340070	-0.687160	0.617739
H179	H	0.324912	-0.670472	0.734439
H180	H	0.338112	-0.742152	0.730609
C181	C	0.402248	-0.844165	0.810291
C182	C	0.450982	-0.807164	0.773724
H183	H	0.427706	-0.893819	0.817500
H184	H	0.372976	-0.826570	0.782824
H185	H	0.373019	-0.837209	0.855355
H186	H	0.480208	-0.814116	0.728657
H187	H	0.480266	-0.824765	0.801192
H188	H	0.304191	-0.520811	0.732143
C189	C	0.432751	-0.501830	0.615179
C190	C	0.450917	-0.552444	0.676602
H191	H	0.458190	-0.469144	0.590987
H192	H	0.382726	-0.476472	0.628561
H193	H	0.445030	-0.525549	0.584327
H194	H	0.438633	-0.528726	0.707456
H195	H	0.500953	-0.577805	0.663221
C196	C	0.263226	-0.473491	0.579180
C197	C	0.252660	-0.522256	0.649169
H198	H	0.292462	-0.498932	0.546097
H199	H	0.286124	-0.444241	0.571970
H200	H	0.218256	-0.444236	0.572005
H201	H	0.297630	-0.551507	0.656346
H202	H	0.229764	-0.551518	0.656382
H203	H	0.194981	-0.375507	0.617742
H204	H	0.084019	-0.375548	0.839959
H205	H	0.248339	-0.780632	0.532734
C206	C	-0.038830	-0.504034	0.543332
C207	C	0.031072	-0.548257	0.517629
H208	H	-0.047819	-0.458736	0.506986
H209	H	-0.044176	-0.497823	0.584042
H210	H	-0.071901	-0.525549	0.556389
H211	H	0.064144	-0.526744	0.504578
H212	H	0.036425	-0.554466	0.476906
