data_functionalizedCrystal
_audit_creation_method	'MofGen! by Chris Wilmer'
_symmetry_space_group_name_H-M	'P1'
_symmetry_Int_Tables_number	1
_symmetry_cell_setting	triclinic
loop_
_symmetry_equiv_pos_as_xyz
  x,y,z
_cell_length_a	16.959455
_cell_length_b	21.295417
_cell_length_c	16.959447
_cell_angle_alpha	90.034146
_cell_angle_beta	90.020374
_cell_angle_gamma	90.026722
loop_
_atom_site_label
_atom_site_type_symbol
_atom_site_fract_x
_atom_site_fract_y
_atom_site_fract_z
Zn1	Zn	1.208331	-0.250647	0.447015
Zn2	Zn	1.208231	-0.355924	0.314828
Zn3	Zn	1.076159	-0.250667	0.314839
Zn4	Zn	1.076102	-0.355877	0.446953
O5	O	1.142206	-0.303278	0.380909
O6	O	1.318929	-0.264623	0.429502
O7	O	1.190694	-0.341989	0.204218
O8	O	1.093758	-0.162575	0.332403
O9	O	1.318855	-0.341970	0.332385
O10	O	1.190864	-0.162560	0.429513
O11	O	1.093661	-0.264657	0.204226
O12	O	0.965541	-0.264612	0.332342
O13	O	1.093660	-0.341890	0.557572
O14	O	0.965499	-0.341909	0.429406
O15	O	1.190808	-0.264578	0.557618
O16	O	1.190638	-0.444007	0.332324
O17	O	1.093563	-0.443972	0.429395
C18	C	0.936840	-0.303258	0.380869
C19	C	0.848983	-0.303264	0.380871
C20	C	0.477459	-0.343513	0.330314
C21	C	0.477556	-0.263096	0.431600
C22	C	0.560102	-0.263086	0.431581
C23	C	0.601330	-0.303290	0.380928
C24	C	0.560012	-0.343505	0.330295
C25	C	0.601426	-0.222877	0.482219
C26	C	0.683977	-0.222865	0.482202
C27	C	0.725207	-0.263067	0.431545
C28	C	0.683884	-0.303282	0.380909
C29	C	0.725112	-0.343487	0.330256
C30	C	0.683790	-0.383700	0.279616
C31	C	0.601242	-0.383707	0.279638
C32	C	0.807755	-0.263060	0.431523
C33	C	0.807665	-0.343479	0.330237
C34	C	1.142105	-0.466830	0.380869
C35	C	1.142134	-0.536798	0.380878
C36	C	1.192668	-0.569600	0.431479
C37	C	1.192696	-0.635342	0.431498
C38	C	1.142198	-0.668281	0.380903
C39	C	1.091655	-0.635471	0.330298
C40	C	1.091622	-0.569730	0.330286
N41	N	1.136233	-0.771546	0.311726
N42	N	1.136268	-0.833997	0.311740
C43	C	1.142291	-0.866355	0.380939
N44	N	1.148292	-0.833903	0.450124
N45	N	1.148261	-0.771446	0.450109
C46	C	1.142227	-0.739566	0.380911
C47	C	1.192858	-0.970443	0.431565
C48	C	1.192880	-1.036186	0.431586
C49	C	1.091842	-1.036313	0.330379
C50	C	1.091816	-0.970571	0.330365
C51	C	1.142328	-0.937640	0.380957
C52	C	1.348374	-0.303299	0.380949
C53	C	1.436231	-0.303308	0.380966
C54	C	1.142239	-0.303226	0.587077
C55	C	1.142253	-0.303204	0.674934
C56	C	1.142329	-0.139088	0.380966
C57	C	1.142381	-0.069120	0.380991
C58	C	1.142219	-0.303285	0.175542
C59	C	1.142358	-0.303130	0.087686
C60	C	1.091767	-0.343390	1.046388
C61	C	1.192928	-0.262885	1.046431
C62	C	1.192907	-0.262898	0.963885
C63	C	1.142316	-0.303159	0.922587
C64	C	1.091746	-0.343406	0.963834
C65	C	1.243482	-0.222656	0.922631
C66	C	1.243463	-0.222668	0.840080
C67	C	1.192867	-0.262926	0.798780
C68	C	1.142295	-0.303175	0.840033
C69	C	1.091704	-0.343436	0.798735
C70	C	1.041126	-0.383681	0.839986
C71	C	1.041150	-0.383664	0.922534
C72	C	1.192844	-0.262943	0.716232
C73	C	1.091683	-0.343451	0.716181
H74	H	0.567852	-0.190148	0.523462
N75	N	1.244287	-0.535979	0.483149
N76	N	1.317225	-0.543296	0.477960
H77	H	1.353688	-0.519556	0.514452
N78	N	0.989488	-0.424775	0.964661
N79	N	0.994669	-0.482865	0.955415
H80	H	0.958178	-0.511898	0.985166
N81	N	1.040088	-0.669127	0.278614
N82	N	1.067959	-0.705821	0.228284
H83	H	1.031539	-0.729593	0.191782
H84	H	1.284646	-0.189898	0.806501
N85	N	1.295139	-0.181524	0.964819
N86	N	1.289932	-0.123439	0.955627
H87	H	1.326413	-0.094385	0.985427
H88	H	0.717614	-0.190121	0.523436
N89	N	1.040094	-0.384497	1.088507
N90	N	0.994922	-0.420434	1.051621
H91	H	0.958422	-0.449464	1.081367
N92	N	1.244510	-0.221839	0.674108
N93	N	1.289681	-0.185899	0.710990
H94	H	1.326173	-0.156866	0.681241
N95	N	1.039993	-0.536230	0.278593
N96	N	0.994903	-0.565642	0.233426
H97	H	0.958438	-0.541982	0.196916
N98	N	1.040257	-1.069960	0.278708
N99	N	1.040288	-1.128657	0.278728
H100	H	1.003852	-1.152424	0.242237
H101	H	1.234031	-1.062893	0.472795
N102	N	0.849763	-0.384546	0.278483
N103	N	0.812858	-0.420442	0.233274
H104	H	0.842589	-0.449446	0.196721
H105	H	0.717369	-0.416437	0.238379
H106	H	1.233841	-0.662055	0.472713
N107	N	0.559021	-0.424776	0.227919
N108	N	0.485317	-0.424778	0.227948
H109	H	0.455495	-0.453784	0.191424
N110	N	1.244606	-0.221773	1.088625
N111	N	1.244621	-0.221769	1.162329
H112	H	1.281121	-0.192731	1.192132
N113	N	1.244456	-0.936809	0.483246
N114	N	1.289569	-0.966108	0.528429
H115	H	1.326012	-0.942356	0.564929
H116	H	0.443983	-0.230367	0.472843
N117	N	1.040186	-0.937065	0.278681
N118	N	0.967251	-0.944459	0.283859
H119	H	0.930780	-0.920798	0.247357
H120	H	1.050478	-0.376231	0.682562
H121	H	0.999939	-0.416464	0.806350
N122	N	0.435243	-0.384580	0.278588
N123	N	0.361540	-0.384581	0.278604
H124	H	0.331723	-0.413584	0.242071
H125	H	0.841395	-0.230320	0.472755
