data_functionalizedCrystal
_audit_creation_method	'MofGen! by Chris Wilmer'
_symmetry_space_group_name_H-M	'P1'
_symmetry_Int_Tables_number	1
_symmetry_cell_setting	triclinic
loop_
_symmetry_equiv_pos_as_xyz
  x,y,z
_cell_length_a	14.560438
_cell_length_b	17.917603
_cell_length_c	14.560438
_cell_angle_alpha	89.999707
_cell_angle_beta	60.005799
_cell_angle_gamma	57.010693
loop_
_atom_site_label
_atom_site_type_symbol
_atom_site_fract_x
_atom_site_fract_y
_atom_site_fract_z
Zr1	Zr	0.920643	0.754938	-0.078109
O2	O	1.126243	0.629820	-0.231735
O3	O	0.724762	0.793288	-0.031034
O4	O	0.916350	0.793295	-0.222610
O5	O	0.934653	0.629814	0.110982
O6	O	0.901907	0.922251	-0.215390
O7	O	0.934656	0.629814	-0.040159
O8	O	0.559192	0.922240	0.127305
O9	O	1.277368	0.629825	-0.231713
O10	O	0.790953	0.905889	-0.005545
O11	O	0.801729	0.809650	0.101861
O12	O	1.027299	0.809657	-0.123695
O13	O	1.038075	0.713419	-0.016288
Zr14	Zr	0.897605	0.960609	0.174459
Zr15	Zr	0.897609	0.960609	-0.066593
Zr16	Zr	0.920639	0.754938	0.162943
Zr17	Zr	1.161670	0.754946	-0.078073
Zr18	Zr	0.656578	0.960601	0.174423
O19	O	1.093485	0.922258	0.127384
O20	O	1.093491	0.922258	-0.215361
O21	O	1.126237	0.629820	0.111010
O22	O	0.692005	1.085726	0.328085
O23	O	0.692010	1.085726	-0.014660
O24	O	0.724757	0.793289	0.311711
O25	O	0.883595	1.085733	-0.014632
O26	O	0.901898	0.922252	0.318960
O27	O	0.916341	0.793295	0.311739
O28	O	0.883592	1.085733	0.136509
O29	O	1.259059	0.793306	-0.222559
O30	O	0.559189	0.922240	0.318909
O31	O	0.540880	1.085721	0.328062
O32	O	0.540883	1.085721	0.136458
O33	O	1.277365	0.629825	-0.040108
O34	O	1.259055	0.793307	-0.030955
O35	O	0.790949	0.905889	0.220045
O36	O	0.780173	1.002128	0.112638
O37	O	1.016518	0.905897	-0.005511
O38	O	1.027295	0.809658	0.101895
C39	C	0.607636	0.857763	0.048130
C40	C	0.505314	0.857759	0.048115
C41	C	0.548398	0.786722	-0.039084
C42	C	0.452207	0.786737	-0.039027
C43	C	0.269849	0.928832	0.135439
C44	C	0.366039	0.928820	0.135376
C45	C	0.653681	0.704682	-0.139808
C46	C	0.557490	0.704697	-0.139751
C47	C	0.937936	0.600510	0.033771
C48	C	0.947715	0.513197	0.028882
C49	C	0.965577	0.353354	0.019954
C50	C	0.852676	0.362186	0.076393
C51	C	0.862615	0.273243	0.071426
C52	C	0.955641	0.442303	0.024920
C53	C	1.210612	0.857784	0.048220
C54	C	1.312934	0.857787	0.048235
C55	C	0.909129	0.857773	-0.253345
C56	C	0.909131	0.857773	-0.355678
C57	C	0.880311	1.115036	0.062579
C58	C	0.870533	1.202349	0.067468
C59	C	1.032499	0.807537	-0.465427
C60	C	1.032493	0.807540	-0.561576
C61	C	0.785739	0.908015	-0.438212
C62	C	0.785746	0.908018	-0.342065
C63	C	1.174961	0.749525	-0.536651
C64	C	1.174955	0.749528	-0.632800
C65	C	0.909119	0.857773	0.349694
C66	C	0.909117	0.857774	0.452027
C67	C	0.578824	1.115026	0.062535
C68	C	0.466723	1.202335	0.067408
C69	C	0.607631	0.857763	0.349650
C70	C	0.505307	0.857760	0.451967
C71	C	0.578819	1.115026	0.364054
C72	C	0.466716	1.202336	0.471261
C73	C	1.239429	0.600520	-0.267704
C74	C	1.351532	0.513211	-0.374911
C75	C	1.239424	0.600520	0.033815
C76	C	1.351525	0.513211	0.028942
C77	C	1.210617	0.857783	-0.253300
C78	C	1.312941	0.857787	-0.355618
C79	C	0.419706	1.193101	0.007996
C80	C	0.314390	1.275129	0.012552
C81	C	0.256085	1.366391	0.076528
C82	C	0.303111	1.375624	0.135941
C83	C	0.408433	1.293596	0.131378
C84	C	0.408445	1.293581	0.465541
C85	C	0.303125	1.375626	0.566265
C86	C	0.256072	1.366422	0.672706
C87	C	0.314353	1.275167	0.678422
C88	C	0.419677	1.193125	0.577700
C89	C	1.409814	0.421965	-0.369192
C90	C	1.515164	0.339921	-0.469915
C91	C	1.562223	0.349124	-0.576356
C92	C	1.503935	0.440380	-0.582072
C93	C	1.398594	0.522422	-0.481350
C94	C	1.398552	0.522446	0.088344
C95	C	1.503895	0.440417	0.083761
C96	C	1.562203	0.349155	0.019782
C97	C	1.515172	0.339923	-0.039627
C98	C	1.409837	0.421950	-0.035050
C99	C	0.451603	0.907995	0.561727
C100	C	0.355465	0.907985	0.657861
C101	C	0.366740	0.807501	0.534462
C102	C	0.462883	0.807507	0.438330
C103	C	0.445088	0.966012	0.632972
C104	C	0.348950	0.966001	0.729106
H105	H	0.330947	0.986673	0.206373
C106	C	0.582682	0.610057	-0.133809
N107	N	0.601652	0.538779	-0.129329
H108	H	1.235754	0.672715	-0.689288
H109	H	0.748555	0.436545	0.128443
C110	C	0.403536	0.914308	0.795022
N111	N	0.444647	0.875373	0.844672
H112	H	1.069690	0.279000	-0.032093
C113	C	0.555298	0.724034	-0.241972
N114	N	0.553652	0.738591	-0.318968
C115	C	1.226102	0.801273	-0.698668
N116	N	1.264597	0.840265	-0.748266
H117	H	1.542169	0.447953	0.132144
C118	C	1.358079	0.411818	-0.252116
N119	N	1.319125	0.404167	-0.163938
H120	H	1.351141	0.596716	-0.486020
H121	H	0.685287	0.948936	-0.252704
H122	H	0.276026	1.267687	0.765100
C123	C	0.460126	1.303771	0.196753
N124	N	0.499054	1.311441	0.245999
H125	H	0.156443	0.986686	0.206484
C126	C	0.650024	0.963275	-0.423251
N127	N	0.547800	1.004896	-0.411980
C128	C	1.240601	0.793124	-0.534220
N129	N	1.290037	0.825964	-0.532386
C130	C	0.239023	1.475997	0.559951
N131	N	0.190741	1.551595	0.555192
H132	H	1.647999	0.282313	-0.658361
C133	C	0.215715	1.069766	0.805415
N134	N	0.115365	1.147919	0.862889
H135	H	0.467109	1.118831	0.582373
H136	H	1.562662	0.265606	-0.091717
H137	H	1.562605	0.265625	-0.465238
C138	C	0.521965	0.752236	0.317593
N139	N	0.566464	0.710605	0.226651
H140	H	1.647972	0.282371	0.016065
C141	C	0.737686	0.714230	-0.250224
N142	N	0.800955	0.721424	-0.333386
C143	C	1.555704	0.450488	-0.699169
N144	N	1.594691	0.458098	-0.787370
C145	C	0.320059	0.752230	0.519474
N146	N	0.284898	0.710600	0.508183
C147	C	0.571557	0.922437	0.630574
N148	N	0.666811	0.889620	0.628770
H149	H	1.225472	0.675253	-0.532076
C150	C	0.385047	1.066350	0.626789
N151	N	0.339823	1.141925	0.622130
H152	H	0.720661	0.639436	-0.126666
H153	H	1.351085	0.596748	0.140449
H154	H	0.467177	1.118798	-0.044113
C155	C	0.262670	1.264952	-0.052799
N156	N	0.223714	1.257284	-0.102019
H157	H	1.371552	0.414418	-0.083420
H158	H	0.255624	1.449940	0.188028
C159	C	0.140220	1.456615	0.081545
N160	N	0.052947	1.524569	0.085324
H161	H	0.446740	1.301093	0.378881
H162	H	0.170309	1.433234	0.754711
