data_functionalizedCrystal
_audit_creation_method	'MofGen! by Chris Wilmer'
_symmetry_space_group_name_H-M	'P1'
_symmetry_Int_Tables_number	1
_symmetry_cell_setting	triclinic
loop_
_symmetry_equiv_pos_as_xyz
  x,y,z
_cell_length_a	21.395362
_cell_length_b	16.120531
_cell_length_c	21.395355
_cell_angle_alpha	92.877227
_cell_angle_beta	90.043940
_cell_angle_gamma	87.050851
loop_
_atom_site_label
_atom_site_type_symbol
_atom_site_fract_x
_atom_site_fract_y
_atom_site_fract_z
Zn1	Zn	0.945215	0.331659	0.367200
Zn2	Zn	1.195215	0.581659	0.617200
Zn3	Zn	1.445215	0.831659	0.867200
Zn4	Zn	1.695215	1.081659	1.117200
Zn5	Zn	0.939803	0.471058	0.267724
Zn6	Zn	1.189803	0.721058	0.517724
Zn7	Zn	1.439803	0.971058	0.767724
Zn8	Zn	1.689803	1.221058	1.017724
Zn9	Zn	0.840428	0.331698	0.262403
Zn10	Zn	1.090428	0.581698	0.512403
Zn11	Zn	1.340428	0.831698	0.762403
Zn12	Zn	1.590428	1.081698	1.012403
Zn13	Zn	0.835084	0.471075	0.372430
Zn14	Zn	1.085084	0.721075	0.622430
Zn15	Zn	1.335084	0.971075	0.872430
Zn16	Zn	1.585084	1.221075	1.122430
O17	O	0.890133	0.401372	0.317439
O18	O	1.140133	0.651372	0.567439
O19	O	1.390133	0.901372	0.817439
O20	O	1.640133	1.151372	1.067439
O21	O	1.032176	0.350127	0.354043
O22	O	1.282176	0.600127	0.604043
O23	O	1.532176	0.850127	0.854043
O24	O	1.782176	1.100127	1.104043
O25	O	0.926592	0.452580	0.179341
O26	O	1.176592	0.702580	0.429341
O27	O	1.426592	0.952580	0.679341
O28	O	1.676592	1.202580	0.929341
O29	O	0.858830	0.215024	0.271888
O30	O	1.108830	0.465024	0.521888
O31	O	1.358830	0.715024	0.771888
O32	O	1.608830	0.965024	1.021888
O33	O	1.028200	0.452543	0.280959
O34	O	1.278200	0.702543	0.530959
O35	O	1.528200	0.952543	0.780959
O36	O	1.778200	1.202543	1.030959
O37	O	0.935817	0.214995	0.348883
O38	O	1.185817	0.464995	0.598883
O39	O	1.435817	0.714995	0.848883
O40	O	1.685817	0.964995	1.098883
O41	O	0.853582	0.350193	0.175431
O42	O	1.103582	0.600193	0.425431
O43	O	1.353582	0.850193	0.675431
O44	O	1.603582	1.100193	0.925431
O45	O	0.752041	0.350210	0.276960
O46	O	1.002041	0.600210	0.526960
O47	O	1.252041	0.850210	0.776960
O48	O	1.502041	1.100210	1.026960
O49	O	0.849721	0.452572	0.459414
O50	O	1.099721	0.702572	0.709414
O51	O	1.349721	0.952572	0.959414
O52	O	1.599721	1.202572	1.209414
O53	O	0.748114	0.452609	0.357796
O54	O	0.998114	0.702609	0.607796
O55	O	1.248114	0.952609	0.857796
O56	O	1.498114	1.202609	1.107796
O57	O	0.930634	0.350144	0.455571
O58	O	1.180634	0.600144	0.705571
O59	O	1.430634	0.850144	0.955571
O60	O	1.680634	1.100144	1.205571
O61	O	0.921410	0.587729	0.286030
O62	O	1.171410	0.837729	0.536030
O63	O	1.421410	1.087729	0.786030
O64	O	1.671410	1.337729	1.036030
O65	O	0.844473	0.587741	0.362956
O66	O	1.094473	0.837741	0.612956
O67	O	1.344473	1.087741	0.862956
O68	O	1.594473	1.337741	1.112956
C69	C	0.727343	0.401416	0.317368
C70	C	0.977343	0.651416	0.567368
C71	C	1.227343	0.901416	0.817368
C72	C	1.477343	1.151416	1.067368
C73	C	0.657700	0.401455	0.317353
C74	C	0.907700	0.651455	0.567353
C75	C	1.157700	0.901455	0.817353
C76	C	1.407700	1.151455	1.067353
C77	C	0.622956	0.454845	0.359388
C78	C	0.872956	0.704845	0.609388
C79	C	1.122956	0.954845	0.859388
C80	C	1.372956	1.204845	1.109388
C81	C	0.557522	0.454825	0.359415
C82	C	0.807522	0.704825	0.609415
C83	C	1.057522	0.954825	0.859415
C84	C	1.307522	1.204825	1.109415
C85	C	0.526833	0.401423	0.317397
C86	C	0.776833	0.651423	0.567397
C87	C	1.026833	0.901423	0.817397
C88	C	1.276833	1.151423	1.067397
C89	C	0.561586	0.348023	0.275359
C90	C	0.811586	0.598023	0.525359
C91	C	1.061586	0.848023	0.775359
C92	C	1.311586	1.098023	1.025359
C93	C	0.627019	0.348039	0.275338
C94	C	0.877019	0.598039	0.525338
C95	C	1.127019	0.848039	0.775338
C96	C	1.377019	1.098039	1.025338
C97	C	0.423365	0.394707	0.260736
C98	C	0.673365	0.644707	0.510736
C99	C	0.923365	0.894707	0.760736
C100	C	1.173365	1.144707	1.010736
C101	C	0.357932	0.394696	0.260757
C102	C	0.607932	0.644696	0.510757
C103	C	0.857932	0.894696	0.760757
C104	C	1.107932	1.144696	1.010757
C105	C	0.325015	0.401369	0.317464
C106	C	0.575015	0.651369	0.567464
C107	C	0.825015	0.901369	0.817464
C108	C	1.075015	1.151369	1.067464
C109	C	0.357537	0.408069	0.374152
C110	C	0.607537	0.658069	0.624152
C111	C	0.857537	0.908069	0.874152
C112	C	1.107537	1.158069	1.124152
C113	C	0.422971	0.408085	0.374131
C114	C	0.672971	0.658085	0.624131
C115	C	0.922971	0.908085	0.874131
C116	C	1.172971	1.158085	1.124131
C117	C	0.455882	0.401399	0.317416
C118	C	0.705882	0.651399	0.567416
C119	C	0.955882	0.901399	0.817416
C120	C	1.205882	1.151399	1.067416
C121	C	0.219319	0.454740	0.359531
C122	C	0.469319	0.704740	0.609531
C123	C	0.719319	0.954740	0.859531
C124	C	0.969319	1.204740	1.109531
C125	C	0.153883	0.454713	0.359559
C126	C	0.403883	0.704713	0.609559
C127	C	0.653883	0.954713	0.859559
C128	C	0.903883	1.204713	1.109559
C129	C	0.157948	0.347915	0.275498
C130	C	0.407948	0.597915	0.525498
C131	C	0.657948	0.847915	0.775498
C132	C	0.907948	1.097915	1.025498
C133	C	0.223383	0.347937	0.275476
C134	C	0.473383	0.597937	0.525476
C135	C	0.723383	0.847937	0.775476
C136	C	0.973383	1.097937	1.025476
C137	C	0.254064	0.401354	0.317491
C138	C	0.504064	0.651354	0.567491
C139	C	0.754064	0.901354	0.817491
C140	C	1.004064	1.151354	1.067491
C141	C	0.881791	0.617986	0.325652
C142	C	1.131791	0.867986	0.575652
C143	C	1.381791	1.117986	0.825652
C144	C	1.631791	1.367986	1.075652
C145	C	0.878280	0.710654	0.329186
C146	C	1.128280	0.960654	0.579186
C147	C	1.378280	1.210654	0.829186
C148	C	1.628280	1.460654	1.079186
C149	C	0.871874	0.880320	0.335651
C150	C	1.121874	1.130320	0.585651
C151	C	1.371874	1.380320	0.835651
C152	C	1.621874	1.630320	1.085651
C153	C	0.908415	0.921584	0.299192
C154	C	1.158415	1.171584	0.549192
C155	C	1.408415	1.421584	0.799192
C156	C	1.658415	1.671584	1.049192
C157	C	0.904850	1.015992	0.302789
C158	C	1.154850	1.265992	0.552789
C159	C	1.404850	1.515992	0.802789
C160	C	1.654850	1.765992	1.052789
C161	C	0.875438	0.785903	0.332055
C162	C	1.125438	1.035903	0.582055
C163	C	1.375438	1.285903	0.832055
C164	C	1.625438	1.535903	1.082055
C165	C	1.053558	0.401329	0.317511
C166	C	1.303558	0.651329	0.567511
C167	C	1.553558	0.901329	0.817511
C168	C	1.803558	1.151329	1.067511
C169	C	1.123200	0.401310	0.317541
C170	C	1.373200	0.651310	0.567541
C171	C	1.623200	0.901310	0.817541
C172	C	1.873200	1.151310	1.067541
C173	C	0.890185	0.401355	0.480862
C174	C	1.140185	0.651355	0.730862
C175	C	1.390185	0.901355	0.980862
C176	C	1.640185	1.151355	1.230862
C177	C	0.890208	0.401348	0.550503
C178	C	1.140208	0.651348	0.800503
C179	C	1.390208	0.901348	1.050503
C180	C	1.640208	1.151348	1.300503
C181	C	0.898501	1.183913	0.309197
C182	C	1.148501	1.433913	0.559197
C183	C	1.398501	1.683913	0.809197
C184	C	1.648501	1.933913	1.059197
C185	C	0.902010	1.091245	0.305655
C186	C	1.152010	1.341245	0.555655
C187	C	1.402010	1.591245	0.805655
C188	C	1.652010	1.841245	1.055655
C189	C	0.890118	0.401329	0.154650
C190	C	1.140118	0.651329	0.404650
C191	C	1.390118	0.901329	0.654650
C192	C	1.640118	1.151329	0.904650
C193	C	0.890226	0.401101	0.085000
C194	C	1.140226	0.651101	0.335000
C195	C	1.390226	0.901101	0.585000
C196	C	1.640226	1.151101	0.835000
C197	C	0.932337	0.348011	0.581216
C198	C	1.182337	0.598011	0.831216
C199	C	1.432337	0.848011	1.081216
C200	C	1.682337	1.098011	1.331216
C201	C	0.932338	0.347976	0.646650
C202	C	1.182338	0.597976	0.896650
C203	C	1.432338	0.847976	1.146650
C204	C	1.682338	1.097976	1.396650
C205	C	0.890215	0.401291	0.681369
C206	C	1.140215	0.651291	0.931369
C207	C	1.390215	0.901291	1.181369
C208	C	1.640215	1.151291	1.431369
C209	C	0.848077	0.454632	0.650648
C210	C	1.098077	0.704632	0.900648
C211	C	1.348077	0.954632	1.150648
C212	C	1.598077	1.204632	1.400648
C213	C	0.848074	0.454660	0.585215
C214	C	1.098074	0.704660	0.835215
C215	C	1.348074	0.954660	1.085215
C216	C	1.598074	1.204660	1.335215
C217	C	0.882377	0.476362	0.787888
C218	C	1.132377	0.726362	1.037888
C219	C	1.382377	0.976362	1.287888
C220	C	1.632377	1.226362	1.537888
C221	C	0.882385	0.476335	0.853320
C222	C	1.132385	0.726335	1.103320
C223	C	1.382385	0.976335	1.353320
C224	C	1.632385	1.226335	1.603320
C225	C	0.890222	0.401203	0.883187
C226	C	1.140222	0.651203	1.133187
C227	C	1.390222	0.901203	1.383187
C228	C	1.640222	1.151203	1.633187
C229	C	0.898065	0.326096	0.847613
C230	C	1.148065	0.576096	1.097613
C231	C	1.398065	0.826096	1.347613
C232	C	1.648065	1.076096	1.597613
C233	C	0.898061	0.326124	0.782180
C234	C	1.148061	0.576124	1.032180
C235	C	1.398061	0.826124	1.282180
C236	C	1.648061	1.076124	1.532180
C237	C	0.890214	0.401266	0.752321
C238	C	1.140214	0.651266	1.002321
C239	C	1.390214	0.901266	1.252321
C240	C	1.640214	1.151266	1.502321
C241	C	0.932355	0.347823	0.984851
C242	C	1.182355	0.597823	1.234851
C243	C	1.432355	0.847823	1.484851
C244	C	1.682355	1.097823	1.734851
C245	C	0.932351	0.347786	1.050286
C246	C	1.182351	0.597786	1.300286
C247	C	1.432351	0.847786	1.550286
C248	C	1.682351	1.097786	1.800286
C249	C	0.848093	0.454449	1.054283
C250	C	1.098093	0.704449	1.304283
C251	C	1.348093	0.954449	1.554283
C252	C	1.598093	1.204449	1.804283
C253	C	0.848094	0.454479	0.988849
C254	C	1.098094	0.704479	1.238849
C255	C	1.348094	0.954479	1.488849
C256	C	1.598094	1.204479	1.738849
C257	C	0.890228	0.401167	0.954137
C258	C	1.140228	0.651167	1.204137
C259	C	1.390228	0.901167	1.454137
C260	C	1.640228	1.151167	1.704137
H261	H	0.450161	0.389270	0.214555
H262	H	0.700161	0.639270	0.464555
H263	H	0.950161	0.889270	0.714555
H264	H	1.200161	1.139270	0.964555
H265	H	0.966657	0.304348	1.075292
H266	H	1.216657	0.554348	1.325292
H267	H	1.466657	0.804348	1.575292
H268	H	1.716657	1.054348	1.825292
F269	F	0.827486	0.926816	0.379978
F270	F	1.077486	1.176816	0.629978
F271	F	1.327486	1.426816	0.879978
F272	F	1.577486	1.676816	1.129978
H273	H	0.966646	0.304600	0.552958
H274	H	1.216646	0.554600	0.802958
H275	H	1.466646	0.804600	1.052958
H276	H	1.716646	1.054600	1.302958
F277	F	0.977170	0.291191	0.679344
F278	F	1.227170	0.541191	0.929344
F279	F	1.477170	0.791191	1.179344
F280	F	1.727170	1.041191	1.429344
F281	F	0.906405	0.246192	0.744322
F282	F	1.156405	0.496192	0.994322
F283	F	1.406405	0.746192	1.244322
F284	F	1.656405	0.996192	1.494322
F285	F	0.803257	0.511186	1.091229
F286	F	1.053257	0.761186	1.341229
F287	F	1.303257	1.011186	1.591229
F288	F	1.553257	1.261186	1.841229
F289	F	0.803245	0.511371	0.687599
F290	F	1.053245	0.761371	0.937599
F291	F	1.303245	1.011371	1.187599
F292	F	1.553245	1.261371	1.437599
F293	F	0.906409	0.246129	0.879393
F294	F	1.156409	0.496129	1.129393
F295	F	1.406409	0.746129	1.379393
F296	F	1.656409	0.996129	1.629393
F297	F	0.977194	0.291081	0.947906
F298	F	1.227194	0.541081	1.197906
F299	F	1.477194	0.791081	1.447906
F300	F	1.727194	1.041081	1.697906
F301	F	0.803231	0.511431	0.552527
F302	F	1.053231	0.761431	0.802527
F303	F	1.303231	1.011431	1.052527
F304	F	1.553231	1.261431	1.302527
H305	H	0.813791	0.497917	0.963842
H306	H	1.063791	0.747917	1.213842
H307	H	1.313791	0.997917	1.463842
H308	H	1.563791	1.247917	1.713842
F309	F	0.952803	0.875088	0.254859
F310	F	1.202803	1.125088	0.504859
F311	F	1.452803	1.375088	0.754859
F312	F	1.702803	1.625088	1.004859
H313	H	0.536595	0.304541	0.241149
H314	H	0.786595	0.554541	0.491149
H315	H	1.036595	0.804541	0.741149
H316	H	1.286595	1.054541	0.991149
H317	H	0.876002	0.537492	0.882280
H318	H	1.126002	0.787492	1.132280
H319	H	1.376002	1.037492	1.382280
H320	H	1.626002	1.287492	1.632280
H321	H	0.875828	0.537528	0.763576
H322	H	1.125828	0.787528	1.013576
H323	H	1.375828	1.037528	1.263576
H324	H	1.625828	1.287528	1.513576
H325	H	0.125596	0.498188	0.393792
H326	H	0.375596	0.748188	0.643792
H327	H	0.625596	0.998188	0.893792
H328	H	0.875596	1.248188	1.143792
F329	F	0.125292	0.291076	0.230782
F330	F	0.375292	0.541076	0.480782
F331	F	0.625292	0.791076	0.730782
F332	F	0.875292	1.041076	0.980782
F333	F	0.655606	0.511694	0.404107
F334	F	0.905606	0.761694	0.654107
F335	F	1.155606	1.011694	0.904107
F336	F	1.405606	1.261694	1.154107
F337	F	0.663998	0.291210	0.230597
F338	F	0.913998	0.541210	0.480597
F339	F	1.163998	0.791210	0.730597
F340	F	1.413998	1.041210	0.980597
H341	H	0.449448	0.413538	0.420288
H342	H	0.699448	0.663538	0.670288
H343	H	0.949448	0.913538	0.920288
H344	H	1.199448	1.163538	1.170288
F345	F	0.520537	0.511652	0.404155
F346	F	0.770537	0.761652	0.654155
F347	F	1.020537	1.011652	0.904155
F348	F	1.270537	1.261652	1.154155
H349	H	0.330738	0.413500	0.420329
H350	H	0.580738	0.663500	0.670329
H351	H	0.830738	0.913500	0.920329
H352	H	1.080738	1.163500	1.170329
H353	H	0.244301	0.498230	0.393746
H354	H	0.494301	0.748230	0.643746
H355	H	0.744301	0.998230	0.893746
H356	H	0.994301	1.248230	1.143746
H357	H	0.251672	0.304465	0.241244
H358	H	0.501672	0.554465	0.491244
H359	H	0.751672	0.804465	0.741244
H360	H	1.001672	1.054465	0.991244
H361	H	0.331457	0.389246	0.214598
H362	H	0.581457	0.639246	0.464598
H363	H	0.831457	0.889246	0.714598
H364	H	1.081457	1.139246	0.964598
