data_functionalizedCrystal
_audit_creation_method	'MofGen! by Chris Wilmer'
_symmetry_space_group_name_H-M	'P1'
_symmetry_Int_Tables_number	1
_symmetry_cell_setting	triclinic
loop_
_symmetry_equiv_pos_as_xyz
  x,y,z
_cell_length_a	19.077105
_cell_length_b	12.759399
_cell_length_c	19.076919
_cell_angle_alpha	92.278021
_cell_angle_beta	89.923776
_cell_angle_gamma	92.287858
loop_
_atom_site_label
_atom_site_type_symbol
_atom_site_fract_x
_atom_site_fract_y
_atom_site_fract_z
Zn1	Zn	1.058322	0.508277	0.440455
Zn2	Zn	1.558322	1.008277	0.940455
Zn3	Zn	1.062979	0.677204	0.322960
Zn4	Zn	1.562979	1.177204	0.822960
Zn5	Zn	0.945538	0.494202	0.318247
Zn6	Zn	1.445538	0.994202	0.818247
Zn7	Zn	0.940801	0.676570	0.435713
Zn8	Zn	1.440801	1.176570	0.935713
O9	O	1.001910	0.589063	0.379344
O10	O	1.501910	1.089063	0.879344
O11	O	1.157272	0.536841	0.428826
O12	O	1.657272	1.036841	0.928826
O13	O	1.051332	0.647303	0.224004
O14	O	1.551332	1.147303	0.724004
O15	O	0.960533	0.349051	0.334470
O16	O	1.460533	0.849051	0.834470
O17	O	1.160694	0.660951	0.342503
O18	O	1.660694	1.160951	0.842503
O19	O	1.043395	0.359391	0.424256
O20	O	1.543395	0.859391	0.924256
O21	O	0.965049	0.512853	0.220541
O22	O	1.465049	1.012853	0.720541
O23	O	0.846577	0.512239	0.329872
O24	O	1.346577	1.012239	0.829872
O25	O	0.952458	0.659871	0.534674
O26	O	1.452458	1.159871	1.034674
O27	O	0.843097	0.646224	0.416174
O28	O	1.343097	1.146224	0.916174
O29	O	1.038801	0.536226	0.538158
O30	O	1.538801	1.036226	1.038158
O31	O	1.046738	0.824138	0.337905
O32	O	1.546738	1.324138	0.837905
O33	O	0.956974	0.823673	0.420744
O34	O	1.456974	1.323673	0.920744
C35	C	0.819341	0.577636	0.371997
C36	C	1.319341	1.077636	0.871997
C37	C	0.741236	0.572773	0.368871
C38	C	1.241236	1.072773	0.868871
C39	C	0.702751	0.640345	0.412265
C40	C	1.202751	1.140345	0.912265
C41	C	0.629363	0.635762	0.409331
C42	C	1.129363	1.135762	0.909331
C43	C	0.594462	0.563613	0.362999
C44	C	1.094462	1.063613	0.862999
C45	C	0.632952	0.496034	0.319604
C46	C	1.132952	0.996034	0.819604
C47	C	0.706338	0.500612	0.322542
C48	C	1.206338	1.000612	0.822542
C49	C	0.375172	0.542425	0.349405
C50	C	0.875172	1.042425	0.849405
C51	C	0.301781	0.537854	0.346469
C52	C	0.801781	1.037854	0.846469
C53	C	0.298198	0.677582	0.436197
C54	C	0.798198	1.177582	0.936197
C55	C	0.371585	0.682158	0.439128
C56	C	0.871585	1.182158	0.939128
C57	C	0.410069	0.614575	0.395735
C58	C	0.910069	1.114575	0.895735
N59	N	0.519448	0.558929	0.359998
N60	N	1.019448	1.058929	0.859998
N61	N	0.485081	0.619254	0.398741
N62	N	0.985081	1.119254	0.898741
C63	C	1.001866	0.862028	0.379338
C64	C	1.501866	1.362028	0.879338
C65	C	1.001910	0.978808	0.379361
C66	C	1.501910	1.478808	0.879361
C67	C	1.048697	1.033884	0.336281
C68	C	1.548697	1.533884	0.836281
C69	C	1.048738	1.143612	0.336308
C70	C	1.548738	1.643612	0.836308
C71	C	0.955199	1.143179	0.422498
C72	C	1.455199	1.643179	0.922498
C73	C	0.955162	1.033453	0.422474
C74	C	1.455162	1.533453	0.922474
C75	C	1.095446	0.979239	0.293168
C76	C	1.595446	1.479239	0.793168
C77	C	1.142236	1.034315	0.250083
C78	C	1.642236	1.534315	0.750083
C79	C	1.142277	1.144043	0.250111
C80	C	1.642277	1.644043	0.750111
C81	C	1.095528	1.198695	0.293223
C82	C	1.595528	1.698695	0.793223
C83	C	1.185192	0.600536	0.386719
C84	C	1.685192	1.100536	0.886719
C85	C	1.263296	0.605425	0.389862
C86	C	1.763296	1.105425	0.889862
C87	C	0.994582	0.599548	0.562625
C88	C	1.494582	1.099548	1.062625
C89	C	0.991459	0.604016	0.640728
C90	C	1.491459	1.104016	1.140728
C91	C	1.001970	1.315036	0.379376
C92	C	1.501970	1.815036	0.879376
C93	C	1.001988	1.198262	0.379413
C94	C	1.501988	1.698262	0.879413
C95	C	1.009250	0.578546	0.196778
C96	C	1.509250	1.078546	0.696778
C97	C	1.012509	0.573791	0.118680
C98	C	1.512509	1.073791	0.618680
C99	C	1.034943	0.541742	0.679236
C100	C	1.534943	1.041742	1.179236
C101	C	1.032000	0.545936	0.752622
C102	C	1.532000	1.045936	1.252622
C103	C	0.985576	0.612409	0.787499
C104	C	1.485576	1.112409	1.287499
C105	C	0.942087	0.674684	0.748986
C106	C	1.442087	1.174684	1.248986
C107	C	0.945027	0.670485	0.675601
C108	C	1.445027	1.170485	1.175601
C109	C	0.971960	0.631867	1.006782
C110	C	1.471960	1.131867	1.506782
C111	C	0.969025	0.636064	1.080172
C112	C	1.469025	1.136064	1.580172
C113	C	1.058938	0.507314	1.083803
C114	C	1.558938	1.007314	1.583803
C115	C	1.061876	0.503125	1.010417
C116	C	1.561876	1.003125	1.510417
C117	C	1.018385	0.565396	0.971910
C118	C	1.518385	1.065396	1.471910
N119	N	0.982568	0.616699	0.862512
N120	N	1.482568	1.116699	1.362512
N121	N	1.021389	0.561099	0.896899
N122	N	1.521389	1.061099	1.396899
H123	H	0.399997	0.740912	0.476854
H124	H	0.899997	1.240912	0.976854
H125	H	1.099682	0.448998	0.982026
H126	H	1.599682	0.948998	1.482026
H127	H	1.180381	1.188883	0.215034
H128	H	1.680381	1.688883	0.715034
C129	C	0.903772	1.203300	0.469911
C130	C	1.403772	1.703300	0.969911
N131	N	0.865033	1.248583	0.505620
N132	N	1.365033	1.748583	1.005620
C133	C	0.417495	0.468088	0.301667
C134	C	0.917495	0.968088	0.801667
N135	N	0.449375	0.412095	0.265708
N136	N	0.949375	0.912095	0.765708
C137	C	1.106767	0.438806	1.126167
C138	C	1.606767	0.938806	1.626167
N139	N	1.142790	0.387198	1.158075
N140	N	1.642790	0.887198	1.658075
H141	H	1.180302	0.989811	0.214987
H142	H	1.680302	1.489811	0.714987
C143	C	0.587034	0.710117	0.457054
C144	C	1.087034	1.210117	0.957054
N145	N	0.555152	0.766130	0.492996
N146	N	1.055152	1.266130	0.992996
C147	C	0.917950	0.709189	1.118535
C148	C	1.417950	1.209189	1.618535
N149	N	0.879483	0.764265	1.147430
N150	N	1.379483	1.264265	1.647430
H151	H	0.917064	0.988611	0.457555
H152	H	1.417064	1.488611	0.957555
C153	C	0.741136	0.719717	0.463233
C154	C	1.241136	1.219717	0.963233
N155	N	0.770045	0.779499	0.501626
N156	N	1.270045	1.279499	1.001626
H157	H	0.266856	0.732602	0.471525
H158	H	0.766856	1.232602	0.971525
C159	C	1.095415	0.858537	0.293144
C160	C	1.595415	1.358537	0.793144
N161	N	1.095393	0.767625	0.293130
N162	N	1.595393	1.267625	0.793130
C163	C	0.924115	0.700365	0.964433
C164	C	1.424115	1.200365	1.464433
N165	N	0.888075	0.751959	0.932534
N166	N	1.388075	1.251959	1.432534
C167	C	1.086013	0.468615	0.640879
C168	C	1.586013	0.968615	1.140879
N169	N	1.124478	0.413530	0.611990
N170	N	1.624478	0.913530	1.111990
C171	C	0.748671	0.426280	0.274805
C172	C	1.248671	0.926280	0.774805
N173	N	0.780555	0.370289	0.238848
N174	N	1.280555	0.870289	0.738848
H175	H	1.067411	0.495229	0.783973
H176	H	1.567411	0.995229	1.283973
C177	C	0.263391	0.458479	0.295500
C178	C	0.763391	0.958479	0.795500
N179	N	0.234475	0.398698	0.257111
N180	N	0.734475	0.898698	0.757111
H181	H	1.095570	1.288044	0.293247
H182	H	1.595570	1.788044	0.793247
H183	H	0.904285	0.728804	0.777388
H184	H	1.404285	1.228804	1.277388
H185	H	0.604529	0.437284	0.281883
H186	H	1.104529	0.937284	0.781883
H187	H	0.909610	0.721183	0.644248
H188	H	1.409610	1.221183	1.144248
