data_functionalizedCrystal
_audit_creation_method	'MofGen! by Chris Wilmer'
_symmetry_space_group_name_H-M	'P1'
_symmetry_Int_Tables_number	1
_symmetry_cell_setting	triclinic
loop_
_symmetry_equiv_pos_as_xyz
  x,y,z
_cell_length_a	17.077404
_cell_length_b	12.645330
_cell_length_c	17.077396
_cell_angle_alpha	90.026204
_cell_angle_beta	90.019501
_cell_angle_gamma	90.012871
loop_
_atom_site_label
_atom_site_type_symbol
_atom_site_fract_x
_atom_site_fract_y
_atom_site_fract_z
Zn1	Zn	1.200110	-0.422033	0.443855
Zn2	Zn	1.200041	-0.599318	0.312594
Zn3	Zn	1.068842	-0.422070	0.312603
Zn4	Zn	1.068834	-0.599256	0.443818
O5	O	1.134457	-0.510669	0.378218
O6	O	1.309948	-0.445561	0.426455
O7	O	1.182612	-0.575848	0.202749
O8	O	1.086288	-0.273718	0.330033
O9	O	1.309897	-0.575812	0.330018
O10	O	1.182730	-0.273691	0.426464
O11	O	1.086221	-0.445624	0.202755
O12	O	0.958994	-0.445563	0.329997
O13	O	1.086273	-0.575705	0.553670
O14	O	0.958988	-0.575741	0.426400
O15	O	1.182722	-0.445500	0.553697
O16	O	1.182603	-0.747657	0.329982
O17	O	1.086206	-0.747611	0.426392
C18	C	0.930509	-0.510650	0.378196
C19	C	0.843259	-0.510667	0.378205
C20	C	0.802286	-0.578553	0.428322
C21	C	0.720306	-0.578555	0.428334
C22	C	0.679300	-0.510677	0.378226
C23	C	0.720278	-0.442783	0.328107
C24	C	0.802257	-0.442777	0.328099
C25	C	0.549408	-0.442804	0.328126
C26	C	0.467424	-0.442812	0.328133
C27	C	0.467457	-0.578583	0.428361
C28	C	0.549436	-0.578576	0.428353
C29	C	0.590409	-0.510684	0.378233
C30	C	1.134418	-0.786099	0.378199
C31	C	1.134473	-0.903929	0.378217
C32	C	1.195019	-1.071478	0.317443
C33	C	1.195216	-0.948918	0.317592
C34	C	1.156905	-0.948313	0.460961
C35	C	1.157385	-1.070911	0.460639
C36	C	1.051470	-1.071256	0.357063
C37	C	1.051868	-0.948652	0.355208
C38	C	1.339201	-0.510689	0.378240
C39	C	1.426451	-0.510698	0.378249
C40	C	1.134504	-0.510591	0.582962
C41	C	1.134525	-0.510558	0.670212
C42	C	1.134518	-0.234164	0.378253
C43	C	1.134544	-0.116334	0.378269
C44	C	1.134455	-0.510671	0.174270
C45	C	1.134587	-0.510405	0.087020
C46	C	1.184747	-0.442755	0.711218
C47	C	1.184757	-0.442719	0.793198
C48	C	1.134547	-0.510493	0.834171
C49	C	1.084319	-0.578300	0.793160
C50	C	1.084306	-0.578329	0.711181
C51	C	1.084350	-0.578236	0.964030
C52	C	1.084364	-0.578208	1.046015
C53	C	1.184801	-0.442626	1.046047
C54	C	1.184788	-0.442656	0.964068
C55	C	1.134561	-0.510464	0.923062
H56	H	0.835668	-0.633831	0.469124
O57	O	1.030177	-0.651371	0.919801
H58	H	0.990241	-0.603928	0.882457
O59	O	1.030156	-0.651392	0.837349
H60	H	1.065279	-0.705327	0.874694
H61	H	1.043402	-0.633530	0.677795
H62	H	0.582766	-0.387510	0.287320
H63	H	0.686949	-0.633836	0.469144
O64	O	1.238927	-0.369592	0.837428
H65	H	1.300527	-0.387800	0.821707
O66	O	0.593669	-0.651782	0.482400
H67	H	0.551407	-0.698984	0.517259
H68	H	0.434039	-0.387527	0.287339
H69	H	1.043477	-0.633394	1.079373
H70	H	0.434093	-0.633860	0.469173
O71	O	1.238945	-0.369565	0.919870
H72	H	1.273869	-0.322403	0.962155
H73	H	0.835616	-0.387492	0.287293
O74	O	0.676043	-0.369598	0.274048
H75	H	0.638699	-0.315733	0.309242
O76	O	1.176643	-0.909160	0.236322
H77	H	1.167440	-0.977501	0.196558
O78	O	1.238976	-0.369488	1.090269
H79	H	1.225537	-0.286292	1.074534
O80	O	0.988954	-0.908104	0.409581
H81	H	1.015700	-0.855214	0.454056
H82	H	1.115267	-1.100579	0.507520
H83	H	1.181160	-1.101030	0.255910
H84	H	1.256218	-1.102208	0.331312
O85	O	1.276716	-0.909947	0.336171
H86	H	1.316140	-0.978669	0.345093
H87	H	1.218108	-1.099423	0.478601
H88	H	1.114198	-0.919168	0.507495
H89	H	1.031071	-1.102265	0.297778
O90	O	1.236435	-0.907552	0.485155
H91	H	1.260112	-0.855696	0.438386
O92	O	1.029450	-0.910238	0.274553
H93	H	1.076934	-0.859499	0.250947
O94	O	0.991813	-1.109902	0.415694
H95	H	1.008551	-1.082651	0.475183
O96	O	1.238902	-0.369655	0.667025
H97	H	1.273821	-0.322495	0.709316
