data_functionalizedCrystal
_audit_creation_method	'MofGen! by Chris Wilmer'
_symmetry_space_group_name_H-M	'P1'
_symmetry_Int_Tables_number	1
_symmetry_cell_setting	triclinic
loop_
_symmetry_equiv_pos_as_xyz
  x,y,z
_cell_length_a	16.625548
_cell_length_b	16.625545
_cell_length_c	16.959447
_cell_angle_alpha	90.028780
_cell_angle_beta	89.980925
_cell_angle_gamma	89.974895
loop_
_atom_site_label
_atom_site_type_symbol
_atom_site_fract_x
_atom_site_fract_y
_atom_site_fract_z
Zn1	Zn	1.232660	0.320973	-0.446934
Zn2	Zn	1.232563	0.455817	-0.314756
Zn3	Zn	1.097825	0.321005	-0.314768
Zn4	Zn	1.097788	0.455770	-0.446892
O5	O	1.165209	0.388391	-0.380837
O6	O	1.345479	0.338867	-0.429412
O7	O	1.214664	0.437967	-0.204146
O8	O	1.115767	0.208168	-0.332323
O9	O	1.345408	0.437936	-0.332301
O10	O	1.214830	0.208145	-0.429424
O11	O	1.115673	0.338921	-0.204156
O12	O	0.984988	0.338875	-0.332283
O13	O	1.115705	0.437855	-0.557508
O14	O	0.984961	0.437886	-0.429353
O15	O	1.214794	0.338821	-0.557539
O16	O	1.214629	0.568643	-0.332261
O17	O	1.115610	0.568608	-0.429341
C18	C	0.955718	0.388380	-0.380815
C19	C	0.866097	0.388394	-0.380824
C20	C	0.537921	0.388399	-0.380858
C21	C	0.629230	0.388396	-0.380846
C22	C	0.702006	0.388397	-0.380841
C23	C	0.793321	0.388393	-0.380830
C24	C	1.165127	0.597882	-0.380812
C25	C	1.165166	0.687503	-0.380828
C26	C	1.165297	1.015679	-0.380922
C27	C	1.165258	0.924370	-0.380898
C28	C	1.165231	0.851594	-0.380874
C29	C	1.165193	0.760280	-0.380851
C30	C	1.375518	0.388403	-0.380860
C31	C	1.465139	0.388409	-0.380870
C32	C	1.165256	0.388329	-0.587006
C33	C	1.165276	0.388303	-0.674862
C34	C	1.165306	1.178082	-0.380889
C35	C	1.165330	1.088461	-0.380935
C36	C	1.216826	0.439858	-0.716133
C37	C	1.113739	0.336727	-0.716145
C38	C	1.113753	0.336703	-0.798691
C39	C	1.165304	0.388259	-0.839962
C40	C	1.216840	0.439837	-0.798687
C41	C	1.062212	0.285131	-0.839972
C42	C	1.062223	0.285106	-0.922523
C43	C	1.113778	0.336658	-0.963796
C44	C	1.165317	0.388238	-0.922515
C45	C	1.216868	0.439793	-0.963786
C46	C	1.268412	0.491370	-0.922507
C47	C	1.268395	0.491389	-0.839959
C48	C	1.113794	0.336639	-1.046344
C49	C	1.216881	0.439773	-1.046340
C50	C	1.165209	0.388395	-0.175471
C51	C	1.165345	0.388194	-0.087615
H52	H	1.310381	0.533349	-0.956121
H53	H	1.071827	0.294647	-1.079950
H54	H	1.071765	0.294758	-0.682538
H55	H	1.310359	0.533381	-0.806342
O56	O	1.266985	0.489931	-1.086305
C57	C	1.369272	0.592187	-1.077581
C58	C	1.312559	0.535439	-1.032223
H59	H	1.406146	0.628983	-1.033875
H60	H	1.332282	0.634396	-1.116187
H61	H	1.411418	0.555145	-1.116269
H62	H	1.270402	0.572416	-0.993492
H63	H	1.349600	0.493228	-0.993667
O64	O	1.267006	0.489876	-0.676078
C65	C	1.404136	0.529065	-0.650882
C66	C	1.347402	0.472354	-0.696279
H67	H	1.469147	0.514930	-0.667211
H68	H	1.395348	0.520226	-0.584783
H69	H	1.389904	0.594070	-0.667088
H70	H	1.361599	0.407327	-0.680139
H71	H	1.356200	0.481263	-0.762367
H72	H	1.020237	0.243163	-0.806364
H73	H	1.020253	0.243109	-0.956126
