data_functionalizedCrystal
_audit_creation_method	'MofGen! by Chris Wilmer'
_symmetry_space_group_name_H-M	'P1'
_symmetry_Int_Tables_number	1
_symmetry_cell_setting	triclinic
loop_
_symmetry_equiv_pos_as_xyz
  x,y,z
_cell_length_a	21.395362
_cell_length_b	19.077068
_cell_length_c	21.395355
_cell_angle_alpha	92.279051
_cell_angle_beta	89.956060
_cell_angle_gamma	92.343691
loop_
_atom_site_label
_atom_site_type_symbol
_atom_site_fract_x
_atom_site_fract_y
_atom_site_fract_z
Zn1	Zn	0.947861	-0.279990	-0.364586
Zn2	Zn	1.197861	-0.029990	-0.114586
Zn3	Zn	1.447861	0.220010	0.135414
Zn4	Zn	1.697861	0.470010	0.385414
Zn5	Zn	0.943561	-0.397672	-0.264012
Zn6	Zn	1.193561	-0.147672	-0.014012
Zn7	Zn	1.443561	0.102328	0.235988
Zn8	Zn	1.693561	0.352328	0.485988
Zn9	Zn	0.843074	-0.280023	-0.259789
Zn10	Zn	1.093074	-0.030023	-0.009789
Zn11	Zn	1.343074	0.219977	0.240211
Zn12	Zn	1.593074	0.469977	0.490211
Zn13	Zn	0.838842	-0.397686	-0.368717
Zn14	Zn	1.088842	-0.147686	-0.118717
Zn15	Zn	1.338842	0.102314	0.131283
Zn16	Zn	1.588842	0.352314	0.381283
O17	O	0.893334	-0.338843	-0.314276
O18	O	1.143334	-0.088843	-0.064276
O19	O	1.393334	0.161157	0.185724
O20	O	1.643334	0.411157	0.435724
O21	O	1.034969	-0.295581	-0.351283
O22	O	1.284969	-0.045581	-0.101283
O23	O	1.534969	0.204419	0.148717
O24	O	1.784969	0.454419	0.398717
O25	O	0.930203	-0.382073	-0.175774
O26	O	1.180203	-0.132073	0.074226
O27	O	1.430203	0.117927	0.324226
O28	O	1.680203	0.367927	0.574226
O29	O	0.860546	-0.181525	-0.270194
O30	O	1.110546	0.068475	-0.020194
O31	O	1.360546	0.318475	0.229806
O32	O	1.610546	0.568475	0.479806
O33	O	1.031810	-0.382041	-0.277392
O34	O	1.281810	-0.132041	-0.027392
O35	O	1.531810	0.117959	0.222608
O36	O	1.781810	0.367959	0.472608
O37	O	0.937532	-0.181501	-0.347188
O38	O	1.187532	0.068499	-0.097188
O39	O	1.437532	0.318499	0.152812
O40	O	1.687532	0.568499	0.402812
O41	O	0.856376	-0.295637	-0.172671
O42	O	1.106376	-0.045637	0.077329
O43	O	1.356376	0.204363	0.327329
O44	O	1.606376	0.454363	0.577329
O45	O	0.754834	-0.295651	-0.274200
O46	O	1.004834	-0.045651	-0.024200
O47	O	1.254834	0.204349	0.225800
O48	O	1.504834	0.454349	0.475800
O49	O	0.853331	-0.382066	-0.455847
O50	O	1.103331	-0.132066	-0.205847
O51	O	1.353331	0.117934	0.044153
O52	O	1.603331	0.367934	0.294153
O53	O	0.751725	-0.382098	-0.354229
O54	O	1.001725	-0.132098	-0.104229
O55	O	1.251725	0.117902	0.145771
O56	O	1.501725	0.367902	0.395771
O57	O	0.933427	-0.295595	-0.452812
O58	O	1.183427	-0.045595	-0.202812
O59	O	1.433427	0.204405	0.047188
O60	O	1.683427	0.454405	0.297188
O61	O	0.926098	-0.496167	-0.281398
O62	O	1.176098	-0.246167	-0.031398
O63	O	1.426098	0.003833	0.218602
O64	O	1.676098	0.253833	0.468602
O65	O	0.849162	-0.496177	-0.358324
O66	O	1.099162	-0.246177	-0.108324
O67	O	1.349162	0.003823	0.141676
O68	O	1.599162	0.253823	0.391676
C69	C	0.730545	-0.338880	-0.314205
C70	C	0.980545	-0.088880	-0.064205
C71	C	1.230545	0.161120	0.185795
C72	C	1.480545	0.411120	0.435795
C73	C	0.660903	-0.338913	-0.314190
C74	C	0.910903	-0.088913	-0.064190
C75	C	1.160903	0.161087	0.185810
C76	C	1.410903	0.411087	0.435810
C77	C	0.626585	-0.383985	-0.355803
C78	C	0.876585	-0.133985	-0.105803
C79	C	1.126585	0.116015	0.144197
C80	C	1.376585	0.366015	0.394197
C81	C	0.561150	-0.383968	-0.355830
C82	C	0.811150	-0.133968	-0.105830
C83	C	1.061150	0.116032	0.144170
C84	C	1.311150	0.366032	0.394170
C85	C	0.530036	-0.338886	-0.314233
C86	C	0.780036	-0.088886	-0.064233
C87	C	1.030036	0.161114	0.185767
C88	C	1.280036	0.411114	0.435767
C89	C	0.564362	-0.293804	-0.272617
C90	C	0.814362	-0.043804	-0.022617
C91	C	1.064362	0.206196	0.227383
C92	C	1.314362	0.456196	0.477383
C93	C	0.629796	-0.293818	-0.272595
C94	C	0.879796	-0.043818	-0.022595
C95	C	1.129796	0.206182	0.227405
C96	C	1.379796	0.456182	0.477405
C97	C	0.426513	-0.333216	-0.257626
C98	C	0.676513	-0.083216	-0.007626
C99	C	0.926513	0.166784	0.242374
C100	C	1.176513	0.416784	0.492374
C101	C	0.361081	-0.333207	-0.257647
C102	C	0.611081	-0.083207	-0.007647
C103	C	0.861081	0.166793	0.242353
C104	C	1.111081	0.416793	0.492353
C105	C	0.328216	-0.338840	-0.314301
C106	C	0.578216	-0.088840	-0.064301
C107	C	0.828216	0.161160	0.185699
C108	C	1.078216	0.411160	0.435699
C109	C	0.360792	-0.344496	-0.370937
C110	C	0.610792	-0.094496	-0.120937
C111	C	0.860792	0.155504	0.129063
C112	C	1.110792	0.405504	0.379063
C113	C	0.426226	-0.344510	-0.370915
C114	C	0.676226	-0.094510	-0.120915
C115	C	0.926226	0.155490	0.129085
C116	C	1.176226	0.405490	0.379085
C117	C	0.459084	-0.338866	-0.314253
C118	C	0.709084	-0.088866	-0.064253
C119	C	0.959084	0.161134	0.185747
C120	C	1.209084	0.411134	0.435747
C121	C	0.222946	-0.383896	-0.355947
C122	C	0.472946	-0.133896	-0.105947
C123	C	0.722946	0.116104	0.144053
C124	C	0.972946	0.366104	0.394053
C125	C	0.157511	-0.383874	-0.355976
C126	C	0.407511	-0.133874	-0.105976
C127	C	0.657511	0.116126	0.144024
C128	C	0.907511	0.366126	0.394024
C129	C	0.160724	-0.293714	-0.272756
C130	C	0.410724	-0.043714	-0.022756
C131	C	0.660724	0.206286	0.227244
C132	C	0.910724	0.456286	0.477244
C133	C	0.226158	-0.293732	-0.272734
C134	C	0.476158	-0.043732	-0.022734
C135	C	0.726158	0.206268	0.227266
C136	C	0.976158	0.456268	0.477266
C137	C	0.257266	-0.338827	-0.314328
C138	C	0.507266	-0.088827	-0.064328
C139	C	0.757266	0.161173	0.185672
C140	C	1.007266	0.411173	0.435672
C141	C	0.886721	-0.521710	-0.320781
C142	C	1.136721	-0.271710	-0.070781
C143	C	1.386721	-0.021710	0.179219
C144	C	1.636721	0.228290	0.429219
C145	C	0.883949	-0.599942	-0.323585
C146	C	1.133949	-0.349942	-0.073585
C147	C	1.383949	-0.099942	0.176415
C148	C	1.633949	0.150058	0.426415
C149	C	0.922735	-0.636666	-0.284884
C150	C	1.172735	-0.386666	-0.034884
C151	C	1.422735	-0.136666	0.215116
C152	C	1.672735	0.113334	0.465116
C153	C	0.920132	-0.710173	-0.287525
C154	C	1.170132	-0.460173	-0.037525
C155	C	1.420132	-0.210173	0.212475
C156	C	1.670132	0.039827	0.462475
C157	C	0.878739	-0.746954	-0.328864
C158	C	1.128739	-0.496954	-0.078864
C159	C	1.378739	-0.246954	0.171136
C160	C	1.628739	0.003046	0.421136
C161	C	0.839952	-0.710224	-0.367570
C162	C	1.089952	-0.460224	-0.117570
C163	C	1.339952	-0.210224	0.132430
C164	C	1.589952	0.039776	0.382430
C165	C	0.842559	-0.636719	-0.364931
C166	C	1.092559	-0.386719	-0.114931
C167	C	1.342559	-0.136719	0.135069
C168	C	1.592559	0.113281	0.385069
C169	C	0.866647	-0.966795	-0.341049
C170	C	1.116647	-0.716795	-0.091049
C171	C	1.366647	-0.466795	0.158951
C172	C	1.616647	-0.216795	0.408951
C173	C	0.864041	-1.040305	-0.343683
C174	C	1.114041	-0.790305	-0.093683
C175	C	1.364041	-0.540305	0.156317
C176	C	1.614041	-0.290305	0.406317
C177	C	0.944222	-1.040249	-0.263639
C178	C	1.194222	-0.790249	-0.013639
C179	C	1.444222	-0.540249	0.236361
C180	C	1.694222	-0.290249	0.486361
C181	C	0.946823	-0.966742	-0.261002
C182	C	1.196823	-0.716742	-0.011002
C183	C	1.446823	-0.466742	0.238998
C184	C	1.696823	-0.216742	0.488998
C185	C	0.908038	-0.930019	-0.299709
C186	C	1.158038	-0.680019	-0.049709
C187	C	1.408038	-0.430019	0.200291
C188	C	1.658038	-0.180019	0.450291
N189	N	0.876076	-0.822090	-0.331564
N190	N	1.126076	-0.572090	-0.081564
N191	N	1.376076	-0.322090	0.168436
N192	N	1.626076	-0.072090	0.418436
N193	N	0.910705	-0.854884	-0.297013
N194	N	1.160705	-0.604884	-0.047013
N195	N	1.410705	-0.354884	0.202987
N196	N	1.660705	-0.104884	0.452987
C197	C	1.056759	-0.338806	-0.314348
C198	C	1.306759	-0.088806	-0.064348
C199	C	1.556759	0.161194	0.185652
C200	C	1.806759	0.411194	0.435652
C201	C	1.126401	-0.338790	-0.314379
C202	C	1.376401	-0.088790	-0.064379
C203	C	1.626401	0.161210	0.185621
C204	C	1.876401	0.411210	0.435621
C205	C	0.893387	-0.338828	-0.477699
C206	C	1.143387	-0.088828	-0.227699
C207	C	1.393387	0.161172	0.022301
C208	C	1.643387	0.411172	0.272301
C209	C	0.893409	-0.338822	-0.547340
C210	C	1.143409	-0.088822	-0.297340
C211	C	1.393409	0.161178	-0.047340
C212	C	1.643409	0.411178	0.202660
C213	C	0.899990	-0.155261	-0.307759
C214	C	1.149990	0.094739	-0.057759
C215	C	1.399990	0.344739	0.192241
C216	C	1.649990	0.594739	0.442241
C217	C	0.902827	-0.077030	-0.304982
C218	C	1.152827	0.172970	-0.054982
C219	C	1.402827	0.422970	0.195018
C220	C	1.652827	0.672970	0.445018
C221	C	0.935113	-0.293795	-0.578474
C222	C	1.185113	-0.043795	-0.328474
C223	C	1.435113	0.206205	-0.078474
C224	C	1.685113	0.456205	0.171526
C225	C	0.935114	-0.293765	-0.643908
C226	C	1.185114	-0.043765	-0.393908
C227	C	1.435114	0.206235	-0.143908
C228	C	1.685114	0.456235	0.106092
C229	C	0.893416	-0.338774	-0.678207
C230	C	1.143416	-0.088774	-0.428207
C231	C	1.393416	0.161226	-0.178207
C232	C	1.643416	0.411226	0.071793
C233	C	0.851704	-0.383805	-0.647065
C234	C	1.101704	-0.133805	-0.397065
C235	C	1.351704	0.116195	-0.147065
C236	C	1.601704	0.366195	0.102935
C237	C	0.851700	-0.383829	-0.581632
C238	C	1.101700	-0.133829	-0.331632
C239	C	1.351700	0.116171	-0.081632
C240	C	1.601700	0.366171	0.168368
C241	C	0.886177	-0.402150	-0.784134
C242	C	1.136177	-0.152150	-0.534134
C243	C	1.386177	0.097850	-0.284134
C244	C	1.636177	0.347850	-0.034134
C245	C	0.886184	-0.402127	-0.849566
C246	C	1.136184	-0.152127	-0.599566
C247	C	1.386184	0.097873	-0.349566
C248	C	1.636184	0.347873	-0.099566
C249	C	0.893422	-0.338700	-0.880025
C250	C	1.143422	-0.088700	-0.630025
C251	C	1.393422	0.161300	-0.380025
C252	C	1.643422	0.411300	-0.130025
C253	C	0.900666	-0.275294	-0.845043
C254	C	1.150666	-0.025294	-0.595043
C255	C	1.400666	0.224706	-0.345043
C256	C	1.650666	0.474706	-0.095043
C257	C	0.900663	-0.275318	-0.779610
C258	C	1.150663	-0.025318	-0.529610
C259	C	1.400663	0.224682	-0.279610
C260	C	1.650663	0.474682	-0.029610
C261	C	0.893414	-0.338753	-0.749158
C262	C	1.143414	-0.088753	-0.499158
C263	C	1.393414	0.161247	-0.249158
C264	C	1.643414	0.411247	0.000842
C265	C	0.935129	-0.293636	-0.982110
C266	C	1.185129	-0.043636	-0.732110
C267	C	1.435129	0.206364	-0.482110
C268	C	1.685129	0.456364	-0.232110
C269	C	0.935125	-0.293605	-1.047545
C270	C	1.185125	-0.043605	-0.797545
C271	C	1.435125	0.206395	-0.547545
C272	C	1.685125	0.456395	-0.297545
C273	C	0.851718	-0.383651	-1.050701
C274	C	1.101718	-0.133651	-0.800701
C275	C	1.351718	0.116349	-0.550701
C276	C	1.601718	0.366349	-0.300701
C277	C	0.851719	-0.383676	-0.985267
C278	C	1.101719	-0.133676	-0.735267
C279	C	1.351719	0.116324	-0.485267
C280	C	1.601719	0.366324	-0.235267
C281	C	0.893428	-0.338670	-0.950975
C282	C	1.143428	-0.088670	-0.700975
C283	C	1.393428	0.161330	-0.450975
C284	C	1.643428	0.411330	-0.200975
C285	C	0.893320	-0.338806	-0.151487
C286	C	1.143320	-0.088806	0.098513
C287	C	1.393320	0.161194	0.348513
C288	C	1.643320	0.411194	0.598513
C289	C	0.893426	-0.338614	-0.081839
C290	C	1.143426	-0.088614	0.168161
C291	C	1.393426	0.161386	0.418161
C292	C	1.643426	0.411386	0.668161
H293	H	0.135391	-0.257003	-0.238890
H294	H	0.385391	-0.007003	0.011110
H295	H	0.635391	0.242997	0.261110
H296	H	0.885391	0.492997	0.511110
N297	N	0.819397	-1.079976	-0.388276
N298	N	1.069397	-0.829976	-0.138276
N299	N	1.319397	-0.579976	0.111724
N300	N	1.569397	-0.329976	0.361724
H301	H	0.823629	-1.132114	-0.384069
H302	H	1.073629	-0.882114	-0.134069
H303	H	1.323629	-0.632114	0.115931
H304	H	1.573629	-0.382114	0.365931
H305	H	0.775107	-1.067187	-0.378011
H306	H	1.025107	-0.817187	-0.128011
H307	H	1.275107	-0.567187	0.121989
H308	H	1.525107	-0.317187	0.371989
H309	H	0.835065	-0.936900	-0.372565
H310	H	1.085065	-0.686900	-0.122565
H311	H	1.335065	-0.436900	0.127435
H312	H	1.585065	-0.186900	0.377435
N313	N	0.980104	-0.245024	-1.081120
N314	N	1.230104	0.004976	-0.831120
N315	N	1.480104	0.254976	-0.581120
N316	N	1.730104	0.504976	-0.331120
H317	H	1.024475	-0.255950	-1.070158
H318	H	1.274475	-0.005950	-0.820158
H319	H	1.524475	0.244050	-0.570158
H320	H	1.774475	0.494050	-0.320158
H321	H	0.973724	-0.251849	-1.127766
H322	H	1.223724	-0.001849	-0.877766
H323	H	1.473724	0.248151	-0.627766
H324	H	1.723724	0.498151	-0.377766
H325	H	0.906561	-0.223645	-0.869841
H326	H	1.156561	0.026355	-0.619841
H327	H	1.406561	0.276355	-0.369841
H328	H	1.656561	0.526355	-0.119841
N329	N	0.795308	-0.749891	-0.412160
N330	N	1.045308	-0.499891	-0.162160
N331	N	1.295308	-0.249891	0.087840
N332	N	1.545308	0.000109	0.337840
H333	H	0.799539	-0.802030	-0.407958
H334	H	1.049539	-0.552030	-0.157958
H335	H	1.299539	-0.302030	0.092042
H336	H	1.549539	-0.052030	0.342042
H337	H	0.751020	-0.737101	-0.401892
H338	H	1.001020	-0.487101	-0.151892
H339	H	1.251020	-0.237101	0.098108
H340	H	1.501020	0.012899	0.348108
N341	N	0.878376	-0.470567	-0.751288
N342	N	1.128376	-0.220567	-0.501288
N343	N	1.378376	0.029433	-0.251288
N344	N	1.628376	0.279433	-0.001288
H345	H	0.879472	-0.460962	-0.704528
H346	H	1.129472	-0.210962	-0.454528
H347	H	1.379472	0.039038	-0.204528
H348	H	1.629472	0.289038	0.045472
H349	H	0.836962	-0.494494	-0.763550
H350	H	1.086962	-0.244494	-0.513550
H351	H	1.336962	0.005506	-0.263550
H352	H	1.586962	0.255506	-0.013550
N353	N	0.967379	-0.596994	-0.240298
N354	N	1.217379	-0.346994	0.009702
N355	N	1.467379	-0.096994	0.259702
N356	N	1.717379	0.153006	0.509702
H357	H	0.957218	-0.609825	-0.195979
H358	H	1.207218	-0.359825	0.054021
H359	H	1.457218	-0.109825	0.304021
H360	H	1.707218	0.140175	0.554021
H361	H	1.011672	-0.609741	-0.250599
H362	H	1.261672	-0.359741	-0.000599
H363	H	1.511672	-0.109741	0.249401
H364	H	1.761672	0.140259	0.499401
N365	N	0.908467	-0.206931	-0.741886
N366	N	1.158467	0.043069	-0.491886
N367	N	1.408467	0.293069	-0.241886
N368	N	1.658467	0.543069	0.008114
H369	H	0.870535	-0.200352	-0.714475
H370	H	1.120535	0.049648	-0.464475
H371	H	1.370535	0.299648	-0.214475
H372	H	1.620535	0.549648	0.035525
H373	H	0.947061	-0.207920	-0.714836
H374	H	1.197061	0.042080	-0.464836
H375	H	1.447061	0.292080	-0.214836
H376	H	1.697061	0.542080	0.035164
N377	N	0.325357	-0.350576	-0.432048
N378	N	0.575357	-0.100576	-0.182048
N379	N	0.825357	0.149424	0.067952
N380	N	1.075357	0.399424	0.317952
H381	H	0.278962	-0.349706	-0.423471
H382	H	0.528962	-0.099706	-0.173471
H383	H	0.778962	0.150294	0.076529
H384	H	1.028962	0.400294	0.326529
H385	H	0.338317	-0.309924	-0.458669
H386	H	0.588317	-0.059924	-0.208669
H387	H	0.838317	0.190076	0.041331
H388	H	1.088317	0.440076	0.291331
N389	N	0.986050	-1.079856	-0.221890
N390	N	1.236050	-0.829856	0.028110
N391	N	1.486050	-0.579856	0.278110
N392	N	1.736050	-0.329856	0.528110
H393	H	0.978118	-1.132003	-0.229831
H394	H	1.228118	-0.882003	0.020169
H395	H	1.478118	-0.632003	0.270169
H396	H	1.728118	-0.382003	0.520169
H397	H	1.031251	-1.066948	-0.231232
H398	H	1.281251	-0.816948	0.018768
H399	H	1.531251	-0.566948	0.268768
H400	H	1.781251	-0.316948	0.518768
N401	N	0.263178	-0.245113	-0.227854
N402	N	0.513178	0.004887	0.022146
N403	N	0.763178	0.254887	0.272146
N404	N	1.013178	0.504887	0.522146
H405	H	0.233540	-0.216548	-0.201508
H406	H	0.483540	0.033452	0.048492
H407	H	0.733540	0.283452	0.298492
H408	H	0.983540	0.533452	0.548492
H409	H	0.289252	-0.273714	-0.199823
H410	H	0.539252	-0.023714	0.050177
H411	H	0.789252	0.226286	0.300177
H412	H	1.039252	0.476286	0.550177
H413	H	0.817761	-0.420292	-1.078627
H414	H	1.067761	-0.170292	-0.828627
H415	H	1.317761	0.079708	-0.578627
H416	H	1.567761	0.329708	-0.328627
H417	H	0.817763	-0.420347	-0.959918
H418	H	1.067763	-0.170347	-0.709918
H419	H	1.317763	0.079653	-0.459918
H420	H	1.567763	0.329653	-0.209918
H421	H	0.951715	-0.740071	-0.256010
H422	H	1.201715	-0.490071	-0.006010
H423	H	1.451715	-0.240071	0.243990
H424	H	1.701715	0.009929	0.493990
H425	H	0.248275	-0.420611	-0.389819
H426	H	0.498275	-0.170611	-0.139819
H427	H	0.748275	0.079389	0.110181
H428	H	0.998275	0.329389	0.360181
N429	N	0.120493	-0.432495	-0.400857
N430	N	0.370493	-0.182495	-0.150857
N431	N	0.620493	0.067505	0.099143
N432	N	0.870493	0.317505	0.349143
H433	H	0.094424	-0.403940	-0.428934
H434	H	0.344424	-0.153940	-0.178934
H435	H	0.594424	0.096060	0.071066
H436	H	0.844424	0.346060	0.321066
H437	H	0.150172	-0.461054	-0.427157
H438	H	0.400172	-0.211054	-0.177157
H439	H	0.650172	0.038946	0.072843
H440	H	0.900172	0.288946	0.322843
N441	N	0.878377	-0.470511	-0.887294
N442	N	1.128377	-0.220511	-0.637294
N443	N	1.378377	0.029489	-0.387294
N444	N	1.628377	0.279489	-0.137294
H445	H	0.873783	-0.510695	-0.858071
H446	H	1.123783	-0.260695	-0.608071
H447	H	1.373783	-0.010695	-0.358071
H448	H	1.623783	0.239305	-0.108071
H449	H	0.839810	-0.469494	-0.914380
H450	H	1.089810	-0.219494	-0.664380
H451	H	1.339810	0.030506	-0.414380
H452	H	1.589810	0.280506	-0.164380
H453	H	0.657737	-0.257112	-0.238708
H454	H	0.907737	-0.007112	0.011292
H455	H	1.157737	0.242888	0.261292
H456	H	1.407737	0.492888	0.511292
N457	N	0.530805	-0.245186	-0.227747
N458	N	0.780805	0.004814	0.022253
N459	N	1.030805	0.254814	0.272253
N460	N	1.280805	0.504814	0.522253
H461	H	0.562477	-0.216634	-0.201380
H462	H	0.812477	0.033366	0.048620
H463	H	1.062477	0.283366	0.298620
H464	H	1.312477	0.533366	0.548620
H465	H	0.504873	-0.212651	-0.252149
H466	H	0.754873	0.037349	-0.002149
H467	H	1.004873	0.287349	0.247851
H468	H	1.254873	0.537349	0.497851
N469	N	0.980110	-0.245095	-0.945118
N470	N	1.230110	0.004905	-0.695118
N471	N	1.480110	0.254905	-0.445118
N472	N	1.730110	0.504905	-0.195118
H473	H	1.006527	-0.216560	-0.974773
H474	H	1.256527	0.033440	-0.724773
H475	H	1.506527	0.283440	-0.474773
H476	H	1.756527	0.533440	-0.224773
H477	H	0.955786	-0.212540	-0.916784
H478	H	1.205786	0.037460	-0.666784
H479	H	1.455786	0.287460	-0.416784
H480	H	1.705786	0.537460	-0.166784
H481	H	0.651908	-0.420704	-0.389674
H482	H	0.901908	-0.170704	-0.139674
H483	H	1.151908	0.079296	0.110326
H484	H	1.401908	0.329296	0.360326
H485	H	0.334562	-0.328606	-0.211530
H486	H	0.584562	-0.078606	0.038470
H487	H	0.834562	0.171394	0.288470
H488	H	1.084562	0.421394	0.538470
N489	N	0.991477	-0.927072	-0.216424
N490	N	1.241477	-0.677072	0.033576
N491	N	1.491477	-0.427072	0.283576
N492	N	1.741477	-0.177072	0.533576
H493	H	1.015657	-0.961491	-0.192311
H494	H	1.265657	-0.711491	0.057689
H495	H	1.515657	-0.461491	0.307689
H496	H	1.765657	-0.211491	0.557689
H497	H	1.021538	-0.896530	-0.240879
H498	H	1.271538	-0.646530	0.009121
H499	H	1.521538	-0.396530	0.259121
H500	H	1.771538	-0.146530	0.509121
H501	H	0.817751	-0.420450	-0.674995
H502	H	1.067751	-0.170450	-0.424995
H503	H	1.317751	0.079550	-0.174995
H504	H	1.567751	0.329550	0.075005
N505	N	0.800728	-0.597105	-0.406675
N506	N	1.050728	-0.347105	-0.156675
N507	N	1.300728	-0.097105	0.093325
N508	N	1.550728	0.152895	0.343325
H509	H	0.774110	-0.631558	-0.433263
H510	H	1.024110	-0.381558	-0.183263
H511	H	1.274110	-0.131558	0.066737
H512	H	1.524110	0.118442	0.316737
H513	H	0.772825	-0.566656	-0.380043
H514	H	1.022825	-0.316656	-0.130043
H515	H	1.272825	-0.066656	0.119957
H516	H	1.522825	0.183344	0.369957
H517	H	0.817737	-0.420495	-0.556283
H518	H	1.067737	-0.170495	-0.306283
H519	H	1.317737	0.079505	-0.056283
H520	H	1.567737	0.329505	0.193717
N521	N	0.461957	-0.327137	-0.196516
N522	N	0.711957	-0.077137	0.053484
N523	N	0.961957	0.172863	0.303484
N524	N	1.211957	0.422863	0.553484
H525	H	0.431393	-0.323558	-0.160643
H526	H	0.681393	-0.073558	0.089357
H527	H	0.931393	0.176442	0.339357
H528	H	1.181393	0.426442	0.589357
H529	H	0.487530	-0.370017	-0.192153
H530	H	0.737530	-0.120017	0.057847
H531	H	0.987530	0.129983	0.307847
H532	H	1.237530	0.379983	0.557847
N533	N	0.980103	-0.245204	-0.677497
N534	N	1.230103	0.004796	-0.427497
N535	N	1.480103	0.254796	-0.177497
N536	N	1.730103	0.504796	0.072503
H537	H	0.973777	-0.252021	-0.724152
H538	H	1.223777	-0.002021	-0.474152
H539	H	1.473777	0.247979	-0.224152
H540	H	1.723777	0.497979	0.025848
H541	H	0.972181	-0.194941	-0.664260
H542	H	1.222181	0.055059	-0.414260
H543	H	1.472181	0.305059	-0.164260
H544	H	1.722181	0.555059	0.085740
H545	H	0.969075	-0.257146	-0.550557
H546	H	1.219075	-0.007146	-0.300557
H547	H	1.469075	0.242854	-0.050557
H548	H	1.719075	0.492854	0.199443
H549	H	0.533203	-0.420671	-0.389719
H550	H	0.783203	-0.170671	-0.139719
H551	H	1.033203	0.079329	0.110281
H552	H	1.283203	0.329329	0.360281
H553	H	0.452747	-0.349113	-0.417029
H554	H	0.702747	-0.099113	-0.167029
H555	H	0.952747	0.150887	0.082971
H556	H	1.202747	0.400887	0.332971
