data_functionalizedCrystal
_audit_creation_method	'MofGen! by Chris Wilmer'
_symmetry_space_group_name_H-M	'P1'
_symmetry_Int_Tables_number	1
_symmetry_cell_setting	triclinic
loop_
_symmetry_equiv_pos_as_xyz
  x,y,z
_cell_length_a	11.792241
_cell_length_b	11.792241
_cell_length_c	14.586319
_cell_angle_alpha	89.996059
_cell_angle_beta	90.000696
_cell_angle_gamma	84.193416
loop_
_atom_site_label
_atom_site_type_symbol
_atom_site_fract_x
_atom_site_fract_y
_atom_site_fract_z
O1	O	1.506907	0.155566	-0.076152
O2	O	1.840241	0.488900	0.257182
O3	O	2.173574	0.822233	0.590515
O4	O	1.176566	0.171599	-0.076173
O5	O	1.509900	0.504933	0.257160
O6	O	1.843233	0.838266	0.590494
O7	O	1.349753	-0.001588	-0.076155
O8	O	1.683087	0.331746	0.257178
O9	O	2.016420	0.665079	0.590511
O10	O	1.333720	0.328753	-0.076169
O11	O	1.667054	0.662087	0.257164
O12	O	2.000387	0.995420	0.590497
O13	O	1.349741	-0.001590	0.076325
O14	O	1.683074	0.331743	0.409659
O15	O	2.016408	0.665076	0.742992
O16	O	1.176554	0.171597	0.076308
O17	O	1.509887	0.504930	0.409641
O18	O	1.843221	0.838263	0.742974
O19	O	1.506895	0.155564	0.076329
O20	O	1.840228	0.488897	0.409662
O21	O	2.173562	0.822230	0.742996
Cu22	Cu	1.341724	0.163580	0.090241
Cu23	Cu	1.675057	0.496913	0.423574
Cu24	Cu	2.008390	0.830247	0.756908
Cu25	Cu	1.341738	0.163583	-0.090085
Cu26	Cu	1.675071	0.496916	0.243248
Cu27	Cu	2.008405	0.830250	0.576582
O28	O	1.333708	0.328751	0.076311
O29	O	1.667041	0.662084	0.409645
O30	O	2.000375	0.995417	0.742978
C31	C	1.134269	0.170591	0.000065
C32	C	1.467603	0.503924	0.333398
C33	C	1.800936	0.837258	0.666731
C34	C	1.008255	0.167576	0.000057
C35	C	1.341589	0.500910	0.333390
C36	C	1.674922	0.834243	0.666723
C37	C	0.777543	0.162034	0.000083
C38	C	1.110877	0.495367	0.333417
C39	C	1.444210	0.828700	0.666750
C40	C	0.905928	0.165113	0.000069
C41	C	1.239262	0.498447	0.333402
C42	C	1.572595	0.831780	0.666735
C43	C	1.348740	-0.043880	0.000085
C44	C	1.682073	0.289453	0.333418
C45	C	2.015407	0.622787	0.666751
C46	C	1.345726	-0.169894	0.000084
C47	C	1.679059	0.163440	0.333417
C48	C	2.012392	0.496773	0.666750
C49	C	1.340183	-0.400606	0.000068
C50	C	1.673516	-0.067272	0.333401
C51	C	2.006849	0.266061	0.666734
C52	C	1.343262	-0.272221	0.000076
C53	C	1.676596	0.061113	0.333410
C54	C	2.009929	0.394446	0.666743
C55	C	1.549192	0.156572	0.000089
C56	C	1.882525	0.489905	0.333423
C57	C	2.215859	0.823239	0.666756
C58	C	1.675206	0.159587	0.000091
C59	C	2.008539	0.492920	0.333425
C60	C	2.341873	0.826253	0.666758
C61	C	1.334721	0.371043	0.000069
C62	C	1.668055	0.704376	0.333403
C63	C	2.001388	1.037710	0.666736
C64	C	1.337736	0.497057	0.000064
C65	C	1.671069	0.830390	0.333398
C66	C	2.004402	1.163723	0.666731
N67	N	1.341722	0.163577	0.217073
N68	N	1.675055	0.496910	0.550406
N69	N	2.008388	0.830244	0.883740
N70	N	1.341749	0.163577	-0.216917
N71	N	1.675082	0.496910	0.116416
N72	N	2.008415	0.830244	0.449750
C73	C	1.418435	0.086916	0.452087
C74	C	1.751768	0.420249	0.785420
C75	C	2.085101	0.753583	1.118754
C76	C	1.418438	0.086913	0.548068
C77	C	1.751771	0.420247	0.881402
C78	C	2.085105	0.753580	1.214735
C79	C	1.265027	0.240242	0.548062
C80	C	1.598361	0.573575	0.881396
C81	C	1.931694	0.906908	1.214729
C82	C	1.265020	0.240238	0.452083
C83	C	1.598353	0.573572	0.785416
C84	C	1.931686	0.906905	1.118749
C85	C	1.341730	0.163577	0.404098
C86	C	1.675063	0.496910	0.737431
C87	C	2.008396	0.830243	1.070764
C88	C	1.341741	0.163578	0.596058
C89	C	1.675074	0.496911	0.929392
C90	C	2.008407	0.830244	1.262725
C91	C	1.341744	0.163575	0.700126
C92	C	1.675077	0.496908	1.033459
C93	C	2.008410	0.830242	1.366792
C94	C	1.341726	0.163577	0.300024
C95	C	1.675059	0.496911	0.633357
C96	C	2.008392	0.830244	0.966691
H97	H	1.480897	0.024488	0.587139
H98	H	1.814230	0.357821	0.920472
H99	H	2.147563	0.691155	1.253805
H100	H	1.202573	0.302660	0.587141
H101	H	1.535907	0.635993	0.920475
H102	H	1.869240	0.969326	1.253808
H103	H	1.202552	0.302665	0.413007
H104	H	1.535885	0.635998	0.746340
H105	H	1.869218	0.969332	1.079674
N106	N	1.501140	0.004204	0.400333
N107	N	1.834473	0.337538	0.733666
N108	N	2.167807	0.670871	1.067000
H109	H	1.489495	0.015828	0.332248
H110	H	1.822828	0.349161	0.665581
H111	H	2.156162	0.682495	0.998914
H112	H	1.581744	0.017836	0.417099
H113	H	1.915077	0.351169	0.750432
H114	H	2.248411	0.684503	1.083765
