data_functionalizedCrystal
_audit_creation_method	'MofGen! by Chris Wilmer'
_symmetry_space_group_name_H-M	'P1'
_symmetry_Int_Tables_number	1
_symmetry_cell_setting	triclinic
loop_
_symmetry_equiv_pos_as_xyz
  x,y,z
_cell_length_a	10.654550
_cell_length_b	15.072220
_cell_length_c	10.654550
_cell_angle_alpha	89.990770
_cell_angle_beta	95.515069
_cell_angle_gamma	90.000665
loop_
_atom_site_label
_atom_site_type_symbol
_atom_site_fract_x
_atom_site_fract_y
_atom_site_fract_z
O1	O	1.667839	0.073716	-0.176408
O2	O	1.302361	0.073732	-0.193214
O3	O	1.493503	0.073718	-0.002071
O4	O	1.476697	0.073730	-0.367550
O5	O	1.493490	-0.073847	-0.002048
O6	O	1.302348	-0.073833	-0.193190
O7	O	1.667826	-0.073849	-0.176384
Zn8	Zn	1.485085	-0.097270	-0.184784
Zn9	Zn	1.485102	0.097153	-0.184814
O10	O	1.476684	-0.073835	-0.367527
C11	C	1.255556	-0.000048	-0.191968
C12	C	1.116113	-0.000042	-0.188276
N13	N	1.485083	-0.229959	-0.184762
C14	C	1.036628	-0.000041	-0.300818
C15	C	0.905607	-0.000057	-0.297341
C16	C	0.933570	-0.000071	-0.068772
C17	C	1.064588	-0.000061	-0.072250
C18	C	1.485103	-0.589160	-0.184805
C19	C	1.587717	-0.551533	-0.082876
C20	C	1.587444	-0.448708	-0.082494
C21	C	1.485094	-0.410956	-0.184783
C22	C	1.353813	-0.448294	-0.155022
C23	C	1.354420	-0.551152	-0.154301
C24	C	1.512592	-0.551234	-0.316788
C25	C	1.515559	-0.448370	-0.315931
C26	C	1.485081	-0.310243	-0.184774
C27	C	1.485108	-0.689874	-0.184812
C28	C	1.714631	-0.000067	-0.177630
C29	C	1.854074	-0.000067	-0.181322
C30	C	1.492263	-0.000064	0.044738
C31	C	1.488571	-0.000062	0.184181
N32	N	1.485114	0.229842	-0.184826
C33	C	1.477925	-0.000051	-0.414336
C34	C	1.481616	-0.000047	-0.553779
C35	C	1.601112	-0.000067	0.263667
C36	C	1.597636	-0.000056	0.394688
C37	C	1.369066	-0.000039	0.366725
C38	C	1.372544	-0.000044	0.235706
H39	H	1.078574	-0.000032	-0.395294
H40	H	1.275566	-0.423842	-0.227237
H41	H	1.695588	-0.000080	0.221720
H42	H	1.689279	-0.000058	0.459401
H43	H	1.129309	-0.000065	0.019401
H44	H	1.280893	-0.000038	0.170985
H45	H	1.569762	-0.424113	0.015429
H46	H	1.684994	-0.423463	-0.100384
H47	H	1.275709	-0.576044	-0.225659
H48	H	1.570286	-0.577394	0.014490
H49	H	0.891602	-0.000092	0.025693
H50	H	0.840894	-0.000057	-0.388984
H51	H	1.685592	-0.576267	-0.100494
H52	H	1.330366	-0.575154	-0.058012
H53	H	1.274601	-0.000026	0.408693
H54	H	1.329199	-0.422545	-0.059822
H55	H	1.606337	-0.577172	-0.345110
H56	H	1.612140	-0.423967	-0.338488
H57	H	1.437777	-0.575572	-0.392655
H58	H	1.445750	-0.422670	-0.395422
