data_functionalizedCrystal
_audit_creation_method	'MofGen! by Chris Wilmer'
_symmetry_space_group_name_H-M	'P1'
_symmetry_Int_Tables_number	1
_symmetry_cell_setting	triclinic
loop_
_symmetry_equiv_pos_as_xyz
  x,y,z
_cell_length_a	14.519709
_cell_length_b	13.596369
_cell_length_c	14.519731
_cell_angle_alpha	90.011346
_cell_angle_beta	83.684500
_cell_angle_gamma	89.999709
loop_
_atom_site_label
_atom_site_type_symbol
_atom_site_fract_x
_atom_site_fract_y
_atom_site_fract_z
O1	O	-1.223878	-0.081675	-0.120892
O2	O	-0.973878	0.168325	0.129108
O3	O	-0.723878	0.418325	0.379108
O4	O	-0.473878	0.668325	0.629108
O5	O	-0.955402	-0.081707	-0.135128
O6	O	-0.705402	0.168293	0.114872
O7	O	-0.455402	0.418293	0.364872
O8	O	-0.205402	0.668293	0.614872
O9	O	-1.096748	-0.081670	0.006227
O10	O	-0.846748	0.168330	0.256227
O11	O	-0.596748	0.418330	0.506227
O12	O	-0.346748	0.668330	0.756227
O13	O	-1.082532	-0.081712	-0.262247
O14	O	-0.832532	0.168288	-0.012247
O15	O	-0.582532	0.418288	0.237753
O16	O	-0.332532	0.668288	0.487753
O17	O	-1.096734	0.081912	0.006235
O18	O	-0.846734	0.331912	0.256235
O19	O	-0.596734	0.581912	0.506235
O20	O	-0.346734	0.831912	0.756235
O21	O	-0.955388	0.081876	-0.135120
O22	O	-0.705388	0.331876	0.114880
O23	O	-0.455388	0.581876	0.364880
O24	O	-0.205388	0.831876	0.614880
O25	O	-1.223864	0.081908	-0.120884
O26	O	-0.973864	0.331908	0.129116
O27	O	-0.723864	0.581908	0.379116
O28	O	-0.473864	0.831908	0.629116
Zn29	Zn	-1.089623	0.107864	-0.128001
Zn30	Zn	-0.839623	0.357864	0.121999
Zn31	Zn	-0.589623	0.607864	0.371999
Zn32	Zn	-0.339623	0.857864	0.621999
Zn33	Zn	-1.089642	-0.107663	-0.128011
Zn34	Zn	-0.839642	0.142337	0.121989
Zn35	Zn	-0.589642	0.392337	0.371989
Zn36	Zn	-0.339642	0.642337	0.621989
O37	O	-1.082518	0.081871	-0.262239
O38	O	-0.832518	0.331871	-0.012239
O39	O	-0.582518	0.581871	0.237761
O40	O	-0.332518	0.831871	0.487761
C41	C	-0.921035	0.000081	-0.134461
C42	C	-0.671035	0.250081	0.115539
C43	C	-0.421035	0.500081	0.365539
C44	C	-0.171035	0.750081	0.615539
C45	C	-0.818654	0.000070	-0.132473
C46	C	-0.568654	0.250070	0.117527
C47	C	-0.318654	0.500070	0.367527
C48	C	-0.068654	0.750070	0.617527
C49	C	-1.096075	0.000124	0.040591
C50	C	-0.846075	0.250124	0.290591
C51	C	-0.596075	0.500124	0.540591
C52	C	-0.346075	0.750124	0.790591
C53	C	-1.094079	0.000133	0.142971
C54	C	-0.844079	0.250133	0.392971
C55	C	-0.594079	0.500133	0.642971
C56	C	-0.344079	0.750133	0.892971
N57	N	-1.089617	0.254956	-0.127994
N58	N	-0.839617	0.504956	0.122006
N59	N	-0.589617	0.754956	0.372006
N60	N	-0.339617	1.004956	0.622006
C61	C	-1.258230	0.000118	-0.121551
C62	C	-1.008230	0.250118	0.128449
C63	C	-0.758230	0.500118	0.378449
C64	C	-0.508230	0.750118	0.628449
C65	C	-1.360612	0.000122	-0.123539
C66	C	-1.110612	0.250122	0.126461
C67	C	-0.860612	0.500122	0.376461
C68	C	-0.610612	0.750122	0.626461
C69	C	-0.443757	0.000116	-0.125153
C70	C	-0.193757	0.250116	0.124847
C71	C	0.056243	0.500116	0.374847
C72	C	0.306243	0.750116	0.624847
C73	C	-0.548065	0.000102	-0.127186
C74	C	-0.298065	0.250102	0.122814
C75	C	-0.048065	0.500102	0.372814
C76	C	0.201935	0.750102	0.622814
C77	C	-0.631202	0.000092	-0.128813
C78	C	-0.381202	0.250092	0.121187
C79	C	-0.131202	0.500092	0.371187
C80	C	0.118798	0.750092	0.621187
C81	C	-0.735517	0.000080	-0.130846
C82	C	-0.485517	0.250080	0.119154
C83	C	-0.235517	0.500080	0.369154
C84	C	0.014483	0.750080	0.619154
N85	N	-1.089655	-0.254755	-0.128011
N86	N	-0.839655	-0.004755	0.121989
N87	N	-0.589655	0.245245	0.371989
N88	N	-0.339655	0.495245	0.621989
C89	C	-1.089641	0.656247	-0.128012
C90	C	-0.839641	0.906247	0.121988
C91	C	-0.589641	1.156247	0.371988
C92	C	-0.339641	1.406247	0.621988
C93	C	-1.089632	0.544595	-0.128010
C94	C	-0.839632	0.794595	0.121990
C95	C	-0.589632	1.044595	0.371990
C96	C	-0.339632	1.294595	0.621990
C97	C	-1.089630	0.455605	-0.128004
C98	C	-0.839630	0.705605	0.121996
C99	C	-0.589630	0.955605	0.371996
C100	C	-0.339630	1.205605	0.621996
C101	C	-1.089619	0.343946	-0.128000
C102	C	-0.839619	0.593946	0.122000
C103	C	-0.589619	0.843946	0.372000
C104	C	-0.339619	1.093946	0.622000
C105	C	-1.092457	0.000137	0.226115
C106	C	-0.842457	0.250137	0.476115
C107	C	-0.592457	0.500137	0.726115
C108	C	-0.342457	0.750137	0.976115
C109	C	-1.090430	0.000138	0.330424
C110	C	-0.840430	0.250138	0.580424
C111	C	-0.590430	0.500138	0.830424
C112	C	-0.340430	0.750138	1.080424
C113	C	-1.088822	0.000138	0.413563
C114	C	-0.838822	0.250138	0.663563
C115	C	-0.588822	0.500138	0.913563
C116	C	-0.338822	0.750138	1.163563
C117	C	-1.086795	0.000141	0.517878
C118	C	-0.836795	0.250141	0.767878
C119	C	-0.586795	0.500141	1.017878
C120	C	-0.336795	0.750141	1.267878
C121	C	-1.083191	0.000095	0.703397
C122	C	-0.833191	0.250095	0.953397
C123	C	-0.583191	0.500095	1.203397
C124	C	-0.333191	0.750095	1.453397
C125	C	-1.085187	0.000141	0.601017
C126	C	-0.835187	0.250141	0.851017
C127	C	-0.585187	0.500141	1.101017
C128	C	-0.335187	0.750141	1.351017
