data_functionalizedCrystal
_audit_creation_method	'MofGen! by Chris Wilmer'
_symmetry_space_group_name_H-M	'P1'
_symmetry_Int_Tables_number	1
_symmetry_cell_setting	triclinic
loop_
_symmetry_equiv_pos_as_xyz
  x,y,z
_cell_length_a	19.188930
_cell_length_b	16.109295
_cell_length_c	14.586319
_cell_angle_alpha	90.000576
_cell_angle_beta	89.991095
_cell_angle_gamma	96.698016
loop_
_atom_site_label
_atom_site_type_symbol
_atom_site_fract_x
_atom_site_fract_y
_atom_site_fract_z
O1	O	0.089725	-1.102836	-0.076188
O2	O	0.589725	-0.602836	0.423812
O3	O	0.100898	-0.860737	-0.076205
O4	O	0.600898	-0.360737	0.423795
O5	O	-0.006328	-0.988773	-0.076178
O6	O	0.493672	-0.488773	0.423822
O7	O	0.196951	-0.974800	-0.076215
O8	O	0.696951	-0.474800	0.423785
O9	O	-0.006329	-0.988764	0.076302
O10	O	0.493671	-0.488764	0.576302
O11	O	0.100896	-0.860728	0.076276
O12	O	0.600896	-0.360728	0.576276
O13	O	0.089724	-1.102828	0.076292
O14	O	0.589724	-0.602828	0.576292
Cu15	Cu	0.095310	-0.981777	0.090207
Cu16	Cu	0.595310	-0.481777	0.590207
Cu17	Cu	0.095312	-0.981787	-0.090120
Cu18	Cu	0.595312	-0.481787	0.409880
O19	O	0.196949	-0.974791	0.076266
O20	O	0.696949	-0.474791	0.576266
C21	C	0.100445	-0.829759	0.000033
C22	C	0.600445	-0.329759	0.500033
C23	C	0.099090	-0.737468	0.000028
C24	C	0.599090	-0.237468	0.500028
C25	C	-0.032341	-0.988316	0.000065
C26	C	0.467659	-0.488316	0.500065
C27	C	-0.109848	-0.986958	0.000072
C28	C	0.390152	-0.486958	0.500072
C29	C	0.159565	-0.514994	0.000026
C30	C	0.659565	-0.014994	0.500026
C31	C	0.158286	-0.428278	0.000032
C32	C	0.658286	0.071722	0.500032
C33	C	0.031069	-0.448574	0.000051
C34	C	0.531069	0.051426	0.500051
C35	C	0.032348	-0.535289	0.000052
C36	C	0.532348	-0.035289	0.500052
C37	C	0.096598	-0.568496	0.000035
C38	C	0.596598	-0.068496	0.500035
C39	C	0.094040	-0.395065	0.000040
C40	C	0.594040	0.104935	0.500040
C41	C	0.092654	-0.301044	0.000046
C42	C	0.592654	0.198956	0.500046
C43	C	0.097985	-0.662524	0.000030
C44	C	0.597985	-0.162524	0.500030
C45	C	-0.154598	-1.062085	0.000082
C46	C	0.345402	-0.562085	0.500082
C47	C	-0.227425	-1.060809	0.000067
C48	C	0.272575	-0.560809	0.500067
C49	C	-0.255499	-0.984401	0.000061
C50	C	0.244501	-0.484401	0.500061
C51	C	-0.210739	-0.909264	0.000046
C52	C	0.289261	-0.409264	0.500046
C53	C	-0.137914	-0.910542	0.000052
C54	C	0.362086	-0.410542	0.500052
N55	N	-0.363640	-0.925994	0.051949
N56	N	0.136360	-0.425994	0.551949
N57	N	-0.432821	-0.924784	0.051946
N58	N	0.067179	-0.424784	0.551946
C59	C	-0.474916	-0.980545	0.000042
C60	C	0.025084	-0.480545	0.500042
N61	N	-0.445218	-1.037574	-0.051846
N62	N	0.054782	-0.537574	0.448154
N63	N	-0.376030	-1.038786	-0.051839
N64	N	0.123970	-0.538786	0.448161
C65	C	-0.334464	-0.983007	0.000055
C66	C	0.165536	-0.483007	0.500055
C67	C	-0.598634	-1.054294	0.000035
C68	C	-0.098634	-0.554294	0.500035
C69	C	-0.671461	-1.053015	0.000014
C70	C	-0.171461	-0.553015	0.500014
C71	C	-0.654774	-0.901468	0.000003
C72	C	-0.154774	-0.401468	0.500003
C73	C	-0.581948	-0.902749	0.000014
C74	C	-0.081948	-0.402749	0.500014
C75	C	-0.553882	-0.979165	0.000034
C76	C	-0.053882	-0.479165	0.500034
C77	C	0.222962	-0.975248	0.000021
C78	C	0.722962	-0.475248	0.500021
C79	C	0.300470	-0.976606	0.000007
C80	C	0.800470	-0.476606	0.500007
N81	N	0.095308	-0.981776	0.217038
N82	N	0.595308	-0.481776	0.717038
C83	C	0.090181	-0.133805	0.000051
C84	C	0.590181	0.366195	0.500051
C85	C	0.091548	-0.226094	0.000047
C86	C	0.591548	0.273906	0.500047
N87	N	0.095308	-0.981795	-0.216951
N88	N	0.595308	-0.481795	0.283049
C89	C	0.047844	-1.038489	0.452057
C90	C	0.547844	-0.538489	0.952057
C91	C	0.047843	-1.038491	0.548038
C92	C	0.547843	-0.538491	1.048038
C93	C	0.142774	-0.925076	0.548024
C94	C	0.642774	-0.425076	1.048024
C95	C	0.142772	-0.925070	0.452044
C96	C	0.642772	-0.425070	0.952044
C97	C	0.095308	-0.981781	0.404063
C98	C	0.595308	-0.481781	0.904063
C99	C	0.095308	-0.981790	0.596024
C100	C	0.595308	-0.481790	1.096024
C101	C	0.095307	-0.981792	0.700091
C102	C	0.595307	-0.481792	1.200091
C103	C	0.095308	-0.981778	0.299989
C104	C	0.595308	-0.481778	0.799989
H105	H	0.211881	-0.542029	0.000019
H106	H	0.711881	-0.042029	0.500019
H107	H	-0.263867	-1.121989	0.000071
H108	H	0.236133	-0.621989	0.500071
H109	H	-0.101478	-0.849362	0.000044
H110	H	0.398522	-0.349362	0.500044
C111	C	-0.123726	-1.146137	0.000101
C112	C	0.376274	-0.646137	0.500101
H113	H	-0.073944	-1.136141	0.000111
H114	H	0.426056	-0.636141	0.500111
H115	H	-0.139081	-1.177069	-0.053067
H116	H	0.360919	-0.677069	0.446933
H117	H	-0.139097	-1.177049	0.053287
H118	H	0.360903	-0.677049	0.553287
C119	C	-0.720690	-1.135657	0.000014
C120	C	-0.220690	-0.635657	0.500014
H121	H	-0.768082	-1.123954	-0.000006
H122	H	-0.268082	-0.623954	0.499994
H123	H	-0.712196	-1.166999	0.053192
H124	H	-0.212196	-0.666999	0.553192
H125	H	-0.712169	-1.167001	-0.053162
H126	H	-0.212169	-0.667001	0.446838
H127	H	0.181422	-0.878889	0.412965
H128	H	0.681422	-0.378889	0.912965
C129	C	0.194966	-0.862679	0.600801
C130	C	0.694966	-0.362679	1.100801
H131	H	0.223222	-0.828893	0.558469
H132	H	0.723222	-0.328893	1.058469
H133	H	0.224046	-0.892457	0.638247
H134	H	0.724046	-0.392457	1.138247
H135	H	0.169818	-0.828173	0.638237
H136	H	0.669818	-0.328173	1.138237
H137	H	-0.545511	-0.841572	0.000011
H138	H	-0.045511	-0.341572	0.500011
C139	C	0.227550	-0.369429	0.000016
C140	C	0.727550	0.130571	0.500016
H141	H	0.265995	-0.401629	-0.000001
H142	H	0.765995	0.098371	0.499999
H143	H	0.229698	-0.335179	0.053189
H144	H	0.729698	0.164821	0.553189
H145	H	0.229694	-0.335182	-0.053165
H146	H	0.729694	0.164818	0.446835
H147	H	-0.021241	-0.421525	0.000071
H148	H	0.478759	0.078475	0.500071
H149	H	-0.018930	-0.578853	0.000062
H150	H	0.481070	-0.078853	0.500062
C151	C	-0.004366	-1.100867	0.600831
C152	C	0.495634	-0.600867	1.100831
H153	H	0.002426	-1.092745	0.664866
H154	H	0.502426	-0.592745	1.164866
H155	H	0.003228	-1.156324	0.585098
H156	H	0.503228	-0.656324	1.085098
H157	H	-0.050967	-1.092002	0.585110
H158	H	0.449033	-0.592002	1.085110
H159	H	0.009195	-1.084665	0.412993
H160	H	0.509195	-0.584665	0.912993
C161	C	-0.241614	-0.825215	0.000036
C162	C	0.258386	-0.325215	0.500036
H163	H	-0.204529	-0.780653	0.000023
H164	H	0.295471	-0.280653	0.500023
H165	H	-0.269685	-0.821559	0.053206
H166	H	0.230315	-0.321559	0.553206
H167	H	-0.269667	-0.821575	-0.053147
H168	H	0.230333	-0.321575	0.446853
C169	C	-0.567758	-1.138346	0.000047
C170	C	-0.067758	-0.638346	0.500047
H171	H	-0.604843	-1.182908	0.000037
H172	H	-0.104843	-0.682908	0.500037
H173	H	-0.539706	-1.141993	0.053224
H174	H	-0.039706	-0.641993	0.553224
H175	H	-0.539686	-1.141996	-0.053129
H176	H	-0.039686	-0.641996	0.446871
H177	H	-0.677631	-0.839255	-0.000007
H178	H	-0.177631	-0.339255	0.499993
