data_functionalizedCrystal
_audit_creation_method	'MofGen! by Chris Wilmer'
_symmetry_space_group_name_H-M	'P1'
_symmetry_Int_Tables_number	1
_symmetry_cell_setting	triclinic
loop_
_symmetry_equiv_pos_as_xyz
  x,y,z
_cell_length_a	21.395362
_cell_length_b	13.897448
_cell_length_c	21.395355
_cell_angle_alpha	90.013041
_cell_angle_beta	89.956060
_cell_angle_gamma	89.964551
loop_
_atom_site_label
_atom_site_type_symbol
_atom_site_fract_x
_atom_site_fract_y
_atom_site_fract_z
Zn1	Zn	0.957908	0.383718	-0.354609
Zn2	Zn	0.957831	0.544997	-0.249842
Zn3	Zn	0.853123	0.383763	-0.249811
Zn4	Zn	0.853112	0.545017	-0.354547
O5	O	0.905494	0.464374	-0.302202
O6	O	1.045576	0.405085	-0.340751
O7	O	0.943913	0.523620	-0.162160
O8	O	0.867060	0.248775	-0.263726
O9	O	1.045519	0.523576	-0.263779
O10	O	0.944045	0.248742	-0.340721
O11	O	0.866985	0.405161	-0.162137
O12	O	0.765444	0.405181	-0.263665
O13	O	0.867042	0.523610	-0.442233
O14	O	0.765436	0.523654	-0.340614
O15	O	0.944035	0.405104	-0.442279
O16	O	0.943903	0.679982	-0.263718
O17	O	0.866967	0.679996	-0.340644
C18	C	0.742706	0.464425	-0.302130
C19	C	0.673065	0.464470	-0.302113
C20	C	0.640364	0.526240	-0.342121
C21	C	0.574928	0.526217	-0.342149
C22	C	0.542196	0.464433	-0.302158
C23	C	0.574905	0.402650	-0.262148
C24	C	0.640339	0.402669	-0.262125
C25	C	0.438471	0.456662	-0.245752
C26	C	0.373038	0.456650	-0.245773
C27	C	0.340376	0.464370	-0.302227
C28	C	0.373155	0.472121	-0.358661
C29	C	0.438589	0.472140	-0.358639
C30	C	0.471244	0.464405	-0.302178
C31	C	0.236722	0.526118	-0.342268
C32	C	0.171286	0.526088	-0.342297
C33	C	0.171263	0.402526	-0.262291
C34	C	0.236699	0.402551	-0.262267
C35	C	0.269424	0.464352	-0.302255
C36	C	0.905442	0.714988	-0.302191
C37	C	0.905478	0.822202	-0.302208
C38	C	0.905540	1.018497	-0.302253
C39	C	0.905504	0.909265	-0.302230
C40	C	1.068917	0.464323	-0.302276
C41	C	1.138558	0.464302	-0.302307
C42	C	0.905557	1.212781	-0.302234
C43	C	0.905570	1.105567	-0.302267
C44	C	0.905546	0.464354	-0.465626
C45	C	0.905568	0.464346	-0.535267
C46	C	0.945656	0.402637	-0.568005
C47	C	0.945655	0.402596	-0.633440
C48	C	0.905573	0.464280	-0.666135
C49	C	0.865476	0.525993	-0.633389
C50	C	0.865474	0.526026	-0.567955
C51	C	0.900608	0.551135	-0.769804
C52	C	0.900614	0.551103	-0.835237
C53	C	0.905576	0.464178	-0.867956
C54	C	0.910545	0.377282	-0.835234
C55	C	0.910542	0.377315	-0.769799
C56	C	0.905570	0.464251	-0.737088
C57	C	0.945666	0.402419	-0.971647
C58	C	0.945661	0.402376	-1.037083
C59	C	0.865485	0.525782	-1.037031
C60	C	0.865487	0.525817	-0.971596
C61	C	0.905581	0.464137	-0.938907
C62	C	0.905478	0.464324	-0.139415
C63	C	0.905577	0.464060	-0.069774
H64	H	0.465059	0.450372	-0.199778
O65	O	0.268543	0.586243	-0.381026
C66	C	0.306330	0.648464	-0.345274
H67	H	0.286552	0.654306	-0.295928
H68	H	0.355935	0.618654	-0.343131
C69	C	0.331605	0.741631	-0.436384
C70	C	0.307310	0.748813	-0.375777
H71	H	0.332213	0.803530	-0.455201
H72	H	0.306149	0.699710	-0.460472
H73	H	0.372941	0.716785	-0.434589
H74	H	0.265973	0.773646	-0.377574
H75	H	0.332759	0.790740	-0.351691
H76	H	0.978305	0.352120	-1.063738
O77	O	0.672182	0.586363	-0.380880
C78	C	0.709976	0.648577	-0.345132
H79	H	0.690201	0.654425	-0.295784
H80	H	0.759579	0.618757	-0.342990
C81	C	0.735253	0.741736	-0.436244
C82	C	0.710963	0.748925	-0.375636
H83	H	0.735865	0.803634	-0.455062
H84	H	0.709793	0.699819	-0.460329
H85	H	0.776587	0.716882	-0.434451
H86	H	0.669627	0.773766	-0.377430
H87	H	0.736416	0.790848	-0.351552
H88	H	0.263324	0.352256	-0.229686
O89	O	0.826482	0.585947	-0.665049
C90	C	0.791109	0.640441	-0.622118
H91	H	0.788947	0.600954	-0.575471
H92	H	0.814033	0.713696	-0.615178
C93	C	0.727079	0.702851	-0.704903
C94	C	0.724419	0.654348	-0.647611
H95	H	0.685942	0.711434	-0.720629
H96	H	0.750912	0.666140	-0.733827
H97	H	0.746185	0.763891	-0.699112
H98	H	0.705321	0.593304	-0.653404
H99	H	0.700581	0.691049	-0.618689
H100	H	0.832826	0.576275	-0.541300
H101	H	0.978303	0.352411	-0.541394
O102	O	0.826612	0.585680	-1.068880
C103	C	0.835199	0.572404	-1.133655
H104	H	0.883558	0.540783	-1.142624
H105	H	0.798045	0.521050	-1.152196
C106	C	0.770048	0.708828	-1.156232
C107	C	0.829445	0.669998	-1.167249
H108	H	0.766496	0.769026	-1.176956
H109	H	0.764260	0.717770	-1.112592
H110	H	0.739093	0.666023	-1.171683
H111	H	0.860399	0.712796	-1.151791
H112	H	0.835238	0.661065	-1.210887
H113	H	0.978309	0.352190	-0.945031
H114	H	0.978299	0.352340	-0.660101
H115	H	0.896573	0.621860	-0.861875
O116	O	0.543251	0.586310	-0.381036
C117	C	0.586167	0.640836	-0.416341
H118	H	0.632781	0.644139	-0.390658
H119	H	0.593198	0.605621	-0.463962
C120	C	0.503328	0.739450	-0.456811
C121	C	0.560578	0.743513	-0.425266
H122	H	0.487543	0.802785	-0.462320
H123	H	0.474414	0.702713	-0.433028
H124	H	0.509195	0.710101	-0.496493
H125	H	0.554709	0.772851	-0.385583
H126	H	0.589491	0.780258	-0.449042
O127	O	0.470334	0.479625	-0.413513
C128	C	0.427481	0.486461	-0.463347
H129	H	0.380835	0.454005	-0.448568
H130	H	0.420498	0.565312	-0.476276
C131	C	0.510404	0.471116	-0.538436
C132	C	0.453115	0.431246	-0.520286
H133	H	0.526217	0.437061	-0.573559
H134	H	0.539275	0.466514	-0.504862
H135	H	0.504577	0.536825	-0.549205
H136	H	0.458944	0.365542	-0.509509
H137	H	0.424245	0.435835	-0.553859
O138	O	0.543139	0.342499	-0.223366
C139	C	0.559200	0.246397	-0.237149
H140	H	0.577246	0.241642	-0.287202
H141	H	0.597157	0.221114	-0.203572
C142	C	0.478932	0.187835	-0.168472
C143	C	0.501091	0.181994	-0.229950
H144	H	0.443089	0.148106	-0.164028
H145	H	0.468112	0.252580	-0.159184
H146	H	0.510569	0.166767	-0.140498
H147	H	0.469458	0.203072	-0.257921
H148	H	0.511904	0.117250	-0.239242
H149	H	0.914586	0.306560	-0.743160
H150	H	0.346563	0.478406	-0.404631
H151	H	0.896399	0.621902	-0.743171
O152	O	0.139615	0.586188	-0.381182
C153	C	0.182534	0.640719	-0.416478
H154	H	0.229147	0.644011	-0.390794
H155	H	0.189566	0.605517	-0.464103
C156	C	0.099701	0.739352	-0.456941
C157	C	0.156950	0.743401	-0.425392
H158	H	0.083919	0.802690	-0.462442
H159	H	0.070785	0.702611	-0.433163
H160	H	0.105569	0.710013	-0.496625
H161	H	0.151081	0.772729	-0.385706
H162	H	0.185865	0.780150	-0.449164
H163	H	0.346354	0.450344	-0.199821
O164	O	0.139379	0.342622	-0.223448
C165	C	0.074612	0.355842	-0.232050
H166	H	0.065663	0.430314	-0.252512
H167	H	0.056098	0.298678	-0.265465
C168	C	0.051953	0.255436	-0.143537
C169	C	0.040961	0.346907	-0.168664
H170	H	0.031194	0.249920	-0.104438
H171	H	0.095587	0.246526	-0.137742
H172	H	0.036524	0.207810	-0.171388
H173	H	0.056396	0.394530	-0.140816
H174	H	-0.002672	0.355825	-0.174452
O175	O	0.672080	0.342770	-0.223167
C176	C	0.655996	0.363687	-0.160704
H177	H	0.637960	0.440731	-0.157463
H178	H	0.618025	0.311920	-0.144398
C179	C	0.736233	0.257764	-0.122861
C180	C	0.714087	0.352394	-0.118879
H181	H	0.772065	0.250794	-0.097060
H182	H	0.747068	0.243668	-0.164944
H183	H	0.704586	0.214635	-0.109274
H184	H	0.745731	0.395520	-0.132474
H185	H	0.703258	0.366497	-0.076798
O186	O	0.915244	0.292839	-0.867031
C187	C	0.861910	0.280426	-0.904843
H188	H	0.821615	0.324732	-0.885095
H189	H	0.872698	0.305365	-0.954448
C190	C	0.893000	0.118912	-0.930067
C191	C	0.843507	0.173323	-0.905809
H192	H	0.881649	0.052846	-0.930666
H193	H	0.928933	0.127275	-0.904594
H194	H	0.901985	0.139705	-0.971402
H195	H	0.834528	0.152538	-0.864472
H196	H	0.807572	0.164954	-0.931275
O197	O	0.826528	0.585857	-0.939887
C198	C	0.791136	0.640275	-0.982773
H199	H	0.816801	0.643588	-1.029436
H200	H	0.743562	0.604960	-0.989696
C201	C	0.750552	0.738882	-0.899922
C202	C	0.782076	0.742957	-0.957233
H203	H	0.744960	0.802220	-0.884167
H204	H	0.774394	0.702218	-0.871029
H205	H	0.710910	0.709448	-0.905699
H206	H	0.821720	0.772379	-0.951454
H207	H	0.758240	0.779629	-0.986125
