data_functionalizedCrystal
_audit_creation_method	'MofGen! by Chris Wilmer'
_symmetry_space_group_name_H-M	'P1'
_symmetry_Int_Tables_number	1
_symmetry_cell_setting	triclinic
loop_
_symmetry_equiv_pos_as_xyz
  x,y,z
_cell_length_a	15.944545
_cell_length_b	15.944493
_cell_length_c	13.448316
_cell_angle_alpha	89.999270
_cell_angle_beta	89.996024
_cell_angle_gamma	83.485608
loop_
_atom_site_label
_atom_site_type_symbol
_atom_site_fract_x
_atom_site_fract_y
_atom_site_fract_z
O1	O	1.114507	0.108312	-0.082614
O2	O	0.869954	0.121674	-0.082629
O3	O	0.998934	-0.007285	-0.082629
O4	O	0.985527	0.237271	-0.082614
O5	O	0.998918	-0.007293	0.082754
O6	O	0.869938	0.121666	0.082755
O7	O	1.114491	0.108304	0.082769
Cu8	Cu	0.992213	0.114984	0.097863
Cu9	Cu	0.992232	0.114994	-0.097722
O10	O	0.985511	0.237263	0.082770
C11	C	0.838652	0.121116	0.000061
C12	C	0.745406	0.119456	0.000055
C13	C	0.474791	0.034560	0.000060
C14	C	0.525356	0.075486	0.081608
C15	C	0.409764	0.113535	0.000071
C16	C	0.525353	0.075515	-0.081448
C17	C	0.574677	0.116440	0.000062
C18	C	0.459101	0.154440	0.081687
C19	C	0.459094	0.154458	-0.081442
C20	C	0.509626	0.195442	0.000126
C21	C	0.314762	0.111859	0.000078
C22	C	0.669676	0.118122	0.000062
C23	C	0.998378	-0.038584	0.000058
C24	C	0.996735	-0.131833	0.000045
C25	C	1.072656	-0.367594	0.000069
C26	C	1.031723	-0.418158	-0.081476
C27	C	0.993691	-0.302554	0.000057
C28	C	1.031689	-0.418141	0.081579
C29	C	0.990757	-0.467463	0.000073
C30	C	0.952780	-0.351889	-0.081555
C31	C	0.952757	-0.351869	0.081574
C32	C	0.911766	-0.402400	0.000009
C33	C	0.995384	-0.207554	0.000047
C34	C	0.989058	-0.562460	0.000076
C35	C	1.145793	0.108862	0.000077
C36	C	1.239039	0.110522	0.000077
C37	C	0.986067	0.268562	0.000080
C38	C	0.987710	0.361811	0.000086
N39	N	0.992206	0.114977	0.235427
N40	N	0.992246	0.114994	-0.235287
C41	C	1.049336	0.057897	0.287467
C42	C	1.049341	0.057897	0.391571
C43	C	0.992220	0.114980	0.443632
C44	C	0.935083	0.172063	0.391585
C45	C	0.935075	0.172059	0.287483
C46	C	0.935107	0.172069	0.608565
C47	C	0.935116	0.172074	0.712673
C48	C	1.049373	0.057906	0.712652
C49	C	1.049365	0.057902	0.608551
C50	C	0.992229	0.114986	0.556511
H51	H	0.525104	0.263508	0.000178
O52	O	1.104957	0.002423	0.763044
C53	C	1.155363	-0.047969	0.694771
H54	H	1.156292	-0.013530	0.620561
H55	H	1.128112	-0.110393	0.683709
C56	C	1.244839	-0.107511	0.826525
C57	C	1.245986	-0.065210	0.735382
H58	H	1.300739	-0.118150	0.851577
H59	H	1.210878	-0.073564	0.872523
H60	H	1.222126	-0.159526	0.817295
H61	H	1.268689	-0.013192	0.744616
H62	H	1.279953	-0.099149	0.689386
O63	O	0.424743	0.194329	0.163955
C64	C	0.442836	0.278857	0.164169
H65	H	0.456228	0.299054	0.084960
H66	H	0.500511	0.284679	0.212701
C67	C	0.350155	0.311238	0.303129
C68	C	0.366596	0.336046	0.205842
H69	H	0.303129	0.346515	0.328839
H70	H	0.337967	0.254289	0.302988
H71	H	0.398223	0.316090	0.343560
H72	H	0.318533	0.331184	0.165410
H73	H	0.378774	0.392996	0.205978
H74	H	1.065078	-0.447101	-0.150413
O75	O	0.559724	0.035723	-0.163768
C76	C	0.495398	0.005546	-0.220999
H77	H	0.432361	0.043624	-0.202902
H78	H	0.491829	-0.063827	-0.202987
C79	C	0.592529	-0.031909	-0.354518
C80	C	0.515107	0.014863	-0.332297
H81	H	0.604687	-0.026166	-0.423173
H82	H	0.635868	-0.011582	-0.315960
H83	H	0.589545	-0.089716	-0.339501
H84	H	0.518096	0.072670	-0.347303
H85	H	0.471769	-0.005454	-0.370861
O86	O	0.879537	0.227543	0.763093
C87	C	0.829110	0.277931	0.694842
H88	H	0.828172	0.243494	0.620633
H89	H	0.856348	0.340360	0.683768
C90	C	0.739651	0.337454	0.826634
C91	C	0.738494	0.295155	0.735492
H92	H	0.683756	0.348083	0.851710
H93	H	0.773626	0.303510	0.872618
H94	H	0.762354	0.389474	0.817394
H95	H	0.715802	0.243132	0.744736
H96	H	0.704513	0.329091	0.689511
H97	H	1.140674	-0.351967	-0.000009
H98	H	0.919457	-0.323065	-0.150568
H99	H	0.430147	0.187785	-0.150382
H100	H	1.065046	-0.447077	0.150515
H101	H	0.843695	-0.417864	-0.000039
H102	H	0.888578	0.218550	0.566197
O103	O	0.913121	-0.317370	0.163918
C104	C	0.954967	-0.351309	0.249729
H105	H	1.022896	-0.375915	0.230196
H106	H	0.921125	-0.405368	0.279479
C107	C	0.871199	-0.251895	0.353653
C108	C	0.954633	-0.282110	0.329664
H109	H	0.870991	-0.209212	0.402964
H110	H	0.843004	-0.229032	0.295841
H111	H	0.843007	-0.296952	0.378440
H112	H	0.982820	-0.237056	0.304867
H113	H	0.982833	-0.304964	0.387474
O114	O	0.879478	0.227428	0.442112
C115	C	0.796334	0.213729	0.416675
H116	H	0.795938	0.146475	0.388062
H117	H	0.771645	0.260271	0.356253
C118	C	0.739884	0.309347	0.544309
C119	C	0.739397	0.226742	0.509173
H120	H	0.704761	0.317378	0.601363
H121	H	0.795899	0.318579	0.561444
H122	H	0.719312	0.348123	0.493948
H123	H	0.759978	0.187969	0.559529
H124	H	0.683384	0.217504	0.492048
O125	O	1.104857	0.002364	0.237054
C126	C	1.155295	-0.048002	0.305315
H127	H	1.120864	-0.048968	0.379528
H128	H	1.217685	-0.020688	0.316372
C129	C	1.214911	-0.137424	0.173542
C130	C	1.172619	-0.138617	0.264690
H131	H	1.225601	-0.193319	0.148482
H132	H	1.180933	-0.103490	0.127552
H133	H	1.266898	-0.114659	0.182769
H134	H	1.120628	-0.161372	0.255459
H135	H	1.206589	-0.172557	0.310677
O136	O	0.559986	0.035619	0.163746
C137	C	0.618784	-0.032674	0.134476
H138	H	0.641815	-0.021245	0.055909
H139	H	0.587377	-0.093430	0.136033
C140	C	0.666042	-0.054680	0.303027
C141	C	0.694334	-0.040639	0.206533
H142	H	0.712643	-0.059597	0.347477
H143	H	0.626426	-0.008672	0.322748
H144	H	0.639869	-0.105309	0.304311
H145	H	0.720496	0.009994	0.205248
H146	H	0.733956	-0.086639	0.186813
O147	O	0.879696	0.227543	0.236818
C148	C	0.924660	0.279406	0.176605
H149	H	0.990390	0.245992	0.160999
H150	H	0.930355	0.341494	0.216717
C151	C	0.796560	0.338362	0.096896
C152	C	0.877289	0.297319	0.077721
H153	H	0.767338	0.349416	0.035901
H154	H	0.766266	0.303424	0.137465
H155	H	0.801317	0.390098	0.130325
H156	H	0.872530	0.245580	0.044304
H157	H	0.907581	0.332249	0.037144
O158	O	0.456166	-0.046590	0.000320
C159	C	0.490094	-0.087940	0.086444
H160	H	0.499401	-0.039172	0.146241
H161	H	0.553478	-0.125136	0.067836
C162	C	0.417531	-0.208638	0.051436
C163	C	0.428955	-0.148740	0.124883
H164	H	0.379820	-0.246145	0.075146
H165	H	0.394676	-0.180782	-0.006589
H166	H	0.470356	-0.239625	0.035936
H167	H	0.376133	-0.117747	0.140372
H168	H	0.451800	-0.176593	0.182912
H169	H	1.095860	0.011418	0.433941
H170	H	1.095881	0.011425	0.566163
