data_functionalizedCrystal
_audit_creation_method	'MofGen! by Chris Wilmer'
_symmetry_space_group_name_H-M	'P1'
_symmetry_Int_Tables_number	1
_symmetry_cell_setting	triclinic
loop_
_symmetry_equiv_pos_as_xyz
  x,y,z
_cell_length_a	12.759395
_cell_length_b	13.897448
_cell_length_c	12.759387
_cell_angle_alpha	89.967543
_cell_angle_beta	89.982772
_cell_angle_gamma	90.019229
loop_
_atom_site_label
_atom_site_type_symbol
_atom_site_fract_x
_atom_site_fract_y
_atom_site_fract_z
Zn1	Zn	1.606213	-0.383927	-0.593991
Zn2	Zn	2.106213	0.116073	-0.093991
Zn3	Zn	1.606104	-0.545254	-0.418306
Zn4	Zn	2.106104	-0.045254	0.081694
Zn5	Zn	1.430521	-0.383979	-0.418328
Zn6	Zn	1.930521	0.116021	0.081672
Zn7	Zn	1.430494	-0.545186	-0.593945
Zn8	Zn	1.930494	-0.045186	-0.093945
O9	O	1.518333	-0.464586	-0.506142
O10	O	2.018333	0.035414	-0.006142
O11	O	1.753220	-0.405334	-0.570696
O12	O	2.253220	0.094666	-0.070696
O13	O	1.582779	-0.523910	-0.271287
O14	O	2.082779	-0.023910	0.228713
O15	O	1.453884	-0.248990	-0.441659
O16	O	1.953884	0.251010	0.058341
O17	O	1.753140	-0.523860	-0.441621
O18	O	2.253140	-0.023860	0.058379
O19	O	1.582964	-0.248952	-0.570718
O20	O	2.082964	0.251048	-0.070718
O21	O	1.453778	-0.405422	-0.271304
O22	O	1.953778	0.094578	0.228696
O23	O	1.283496	-0.405357	-0.441614
O24	O	1.783496	0.094643	0.058386
O25	O	1.453838	-0.523744	-0.740972
O26	O	1.953838	-0.023744	-0.240972
O27	O	1.283477	-0.523795	-0.570639
O28	O	1.783477	-0.023795	-0.070639
O29	O	1.582938	-0.405268	-0.741006
O30	O	2.082938	0.094732	-0.241006
O31	O	1.582753	-0.680226	-0.441576
O32	O	2.082753	-0.180226	0.058424
O33	O	1.453733	-0.680177	-0.570617
O34	O	1.953733	-0.180177	-0.070617
C35	C	1.245366	-0.464575	-0.506124
C36	C	1.745366	0.035425	-0.006124
C37	C	1.128589	-0.464593	-0.506142
C38	C	1.628589	0.035407	-0.006142
C39	C	1.128607	-0.588122	-0.640278
C40	C	1.628607	-0.088122	-0.140278
C41	C	1.073755	-0.649894	-0.707349
C42	C	1.573755	-0.149894	-0.207349
C43	C	0.964034	-0.649906	-0.707362
C44	C	1.464034	-0.149906	-0.207362
C45	C	0.909161	-0.588137	-0.640299
C46	C	1.409161	-0.088137	-0.140299
C47	C	0.964013	-0.526365	-0.573227
C48	C	1.464013	-0.026365	-0.073227
C49	C	1.073737	-0.526362	-0.573220
C50	C	1.573737	-0.026362	-0.073220
C51	C	0.963995	-0.402832	-0.439098
C52	C	1.463995	0.097168	0.060902
C53	C	1.073717	-0.402824	-0.439078
C54	C	1.573717	0.097176	0.060922
C55	C	0.909123	-0.341063	-0.372035
C56	C	1.409123	0.158937	0.127965
C57	C	0.963974	-0.279294	-0.304957
C58	C	1.463974	0.220706	0.195043
C59	C	1.073703	-0.279286	-0.304946
C60	C	1.573703	0.220714	0.195054
C61	C	1.128568	-0.341051	-0.372007
C62	C	1.628568	0.158949	0.127993
C63	C	1.518256	-0.715201	-0.506112
C64	C	2.018256	-0.215201	-0.006112
C65	C	1.518320	-0.822415	-0.506134
C66	C	2.018320	-0.322415	-0.006134
C67	C	1.518430	-1.018710	-0.506200
C68	C	2.018430	-0.518710	-0.006200
C69	C	1.518366	-0.909477	-0.506167
C70	C	2.018366	-0.409477	-0.006167
C71	C	1.792366	-0.464599	-0.506161
C72	C	2.292366	0.035401	-0.006161
C73	C	1.909143	-0.464604	-0.506169
C74	C	2.409143	0.035396	-0.006169
C75	C	1.518397	-0.464493	-0.780176
C76	C	2.018397	0.035507	-0.280176
C77	C	1.518424	-0.464453	-0.896953
C78	C	2.018424	0.035547	-0.396953
C79	C	1.518439	-0.212993	-0.506196
C80	C	2.018439	0.287007	-0.006196
C81	C	1.518484	-0.105779	-0.506219
C82	C	2.018484	0.394221	-0.006219
C83	C	1.652826	-0.587768	-1.116361
C84	C	2.152826	-0.087768	-0.616361
C85	C	1.719970	-0.649478	-1.061481
C86	C	2.219970	-0.149478	-0.561481
C87	C	1.719935	-0.649515	-0.951759
C88	C	2.219935	-0.149515	-0.451759
C89	C	1.652747	-0.587837	-0.896915
C90	C	2.152747	-0.087837	-0.396915
C91	C	1.585603	-0.526127	-0.951795
C92	C	2.085603	-0.026127	-0.451795
C93	C	1.585647	-0.526095	-1.061519
C94	C	2.085647	-0.026095	-0.561519
C95	C	1.451280	-0.402743	-0.951833
C96	C	1.951280	0.097257	-0.451833
C97	C	1.451318	-0.402700	-1.061554
C98	C	1.951318	0.097300	-0.561554
C99	C	1.384092	-0.341065	-0.896988
C100	C	1.884092	0.158935	-0.396988
C101	C	1.316951	-0.279348	-0.951868
C102	C	1.816951	0.220652	-0.451868
C103	C	1.316990	-0.279313	-1.061596
C104	C	1.816990	0.220687	-0.561596
C105	C	1.384174	-0.340989	-1.116434
C106	C	1.884174	0.159011	-0.616434
C107	C	1.518330	-0.464610	-0.233175
C108	C	2.018330	0.035390	0.266825
C109	C	1.518507	-0.464378	-0.116399
C110	C	2.018507	0.035622	0.383601
H111	H	0.919373	-0.700201	-0.761982
H112	H	1.419373	-0.200201	-0.261982
Br113	Br	0.760214	-0.341069	-0.372060
Br114	Br	1.260214	0.158931	0.127940
Br115	Br	1.277477	-0.341052	-0.371990
Br116	Br	1.777477	0.158948	0.128010
Br117	Br	0.889501	-0.195464	-0.213963
Br118	Br	1.389501	0.304536	0.286037
Br119	Br	1.652688	-0.587900	-0.748006
Br120	Br	2.152688	-0.087900	-0.248006
H121	H	1.774615	-0.699760	-0.907077
H122	H	2.274615	-0.199760	-0.407077
H123	H	1.118357	-0.228976	-0.250335
H124	H	1.618357	0.271024	0.249665
Br125	Br	1.384041	-0.341115	-0.748079
Br126	Br	1.884041	0.158885	-0.248079
Br127	Br	1.225781	-0.195648	-0.877433
Br128	Br	1.725781	0.304352	-0.377433
H129	H	0.819820	-0.588144	-0.640324
H130	H	1.319820	-0.088144	-0.140324
Br131	Br	1.652896	-0.587705	-1.265270
Br132	Br	2.152896	-0.087705	-0.765270
Br133	Br	1.811141	-0.733188	-1.135916
Br134	Br	2.311141	-0.233188	-0.635916
H135	H	1.262310	-0.229063	-1.106273
H136	H	1.762310	0.270937	-0.606273
H137	H	1.384216	-0.340963	-1.205775
H138	H	1.884216	0.159037	-0.705775
H139	H	1.118444	-0.700184	-0.761952
H140	H	1.618444	-0.200184	-0.261952
Br141	Br	1.277516	-0.588128	-0.640246
Br142	Br	1.777516	-0.088128	-0.140246
