data_functionalizedCrystal
_audit_creation_method	'MofGen! by Chris Wilmer'
_symmetry_space_group_name_H-M	'P1'
_symmetry_Int_Tables_number	1
_symmetry_cell_setting	triclinic
loop_
_symmetry_equiv_pos_as_xyz
  x,y,z
_cell_length_a	23.532407
_cell_length_b	23.532407
_cell_length_c	14.048226
_cell_angle_alpha	89.988910
_cell_angle_beta	89.996211
_cell_angle_gamma	82.848712
loop_
_atom_site_label
_atom_site_type_symbol
_atom_site_fract_x
_atom_site_fract_y
_atom_site_fract_z
O1	O	0.755261	0.069136	-0.079110
O2	O	1.255261	0.569136	0.420890
O3	O	0.589398	0.079140	-0.079127
O4	O	1.089398	0.579140	0.420873
O5	O	0.677331	-0.008794	-0.079100
O6	O	1.177331	0.491206	0.420900
O7	O	0.667328	0.157070	-0.079136
O8	O	1.167328	0.657070	0.420864
O9	O	0.677320	-0.008799	0.079221
O10	O	1.177320	0.491201	0.579221
O11	O	0.589387	0.079134	0.079195
O12	O	1.089387	0.579134	0.579195
O13	O	0.755250	0.069131	0.079211
O14	O	1.255250	0.569131	0.579211
Zn15	Zn	0.672317	0.074132	0.104340
Zn16	Zn	1.172317	0.574132	0.604340
Zn17	Zn	0.672331	0.074139	-0.104255
Zn18	Zn	1.172331	0.574139	0.395745
O19	O	0.667317	0.157065	0.079185
O20	O	1.167317	0.657065	0.579185
C21	C	0.568176	0.078882	0.000032
C22	C	1.068176	0.578882	0.500032
C23	C	0.504959	0.078116	0.000027
C24	C	1.004959	0.578116	0.500027
C25	C	0.238792	0.022921	0.000065
C26	C	0.738792	0.522921	0.500065
C27	C	0.298192	0.023632	0.000064
C28	C	0.798192	0.523632	0.500064
O29	O	0.334937	-0.020153	0.000107
O30	O	0.834937	0.479847	0.500107
N31	N	0.320818	0.075909	0.000046
N32	N	0.820818	0.575909	0.500046
C33	C	0.284041	0.127477	0.000039
C34	C	0.784041	0.627477	0.500039
O35	O	0.308740	0.172007	0.000024
O36	O	0.808740	0.672007	0.500024
C37	C	0.224642	0.126765	0.000046
C38	C	0.724642	0.626765	0.500046
C39	C	0.202019	0.074485	0.000054
C40	C	0.702019	0.574485	0.500054
C41	C	0.216168	-0.029354	0.000074
C42	C	0.716168	0.470646	0.500074
C43	C	0.156772	-0.030066	0.000072
C44	C	0.656772	0.469934	0.500072
C45	C	0.119999	0.021499	0.000062
C46	C	0.619999	0.521499	0.500062
C47	C	0.142623	0.073774	0.000053
C48	C	0.642623	0.573774	0.500053
C49	C	0.187865	0.178333	0.000045
C50	C	0.687865	0.678333	0.500045
C51	C	0.128463	0.177616	0.000053
C52	C	0.628463	0.677616	0.500053
C53	C	0.105840	0.125336	0.000061
C54	C	0.605840	0.625336	0.500061
C55	C	0.046454	0.124627	0.000041
C56	C	0.546454	0.624627	0.500041
N57	N	0.023828	0.072351	0.000059
N58	N	0.523828	0.572351	0.500059
C59	C	0.060600	0.020787	0.000069
C60	C	0.560600	0.520787	0.500069
C61	C	0.408783	0.128968	0.000025
C62	C	0.908783	0.628968	0.500025
C63	C	0.468181	0.129681	0.000011
C64	C	0.968181	0.629681	0.500011
C65	C	0.482328	0.025836	0.000038
C66	C	0.982328	0.525836	0.500038
C67	C	0.422929	0.025124	0.000046
C68	C	0.922929	0.525124	0.500046
C69	C	0.386157	0.076692	0.000043
C70	C	0.886157	0.576692	0.500043
C71	C	-0.064136	0.019297	0.000065
C72	C	0.435864	0.519297	0.500065
C73	C	-0.123538	0.018590	0.000060
C74	C	0.376462	0.518590	0.500060
C75	C	-0.137680	0.122435	0.000038
C76	C	0.362320	0.622435	0.500038
C77	C	-0.078284	0.123142	0.000038
C78	C	0.421716	0.623142	0.500038
C79	C	-0.041512	0.071568	0.000055
C80	C	0.458488	0.571568	0.500055
O81	O	0.009675	0.168390	0.000002
O82	O	0.509675	0.668390	0.500002
O83	O	0.035892	-0.023737	0.000096
O84	O	0.535892	0.476263	0.500096
C85	C	0.677071	-0.030012	0.000063
C86	C	1.177071	0.469988	0.500063
C87	C	0.676305	-0.093229	0.000070
C88	C	1.176305	0.406771	0.500070
C89	C	0.723538	-0.492332	0.000022
C90	C	1.223538	0.007668	0.500022
C91	C	0.722827	-0.551733	0.000015
C92	C	1.222827	-0.051733	0.500015
O93	O	0.766613	-0.588477	-0.000016
O94	O	1.266613	-0.088477	0.499984
N95	N	0.670551	-0.574359	0.000011
N96	N	1.170551	-0.074359	0.500011
C97	C	0.618982	-0.537581	0.000004
C98	C	1.118982	-0.037581	0.500004
O99	O	0.574452	-0.562281	-0.000002
O100	O	1.074452	-0.062281	0.499998
C101	C	0.619695	-0.478182	0.000004
C102	C	1.119695	0.021818	0.500004
C103	C	0.671974	-0.455559	0.000018
C104	C	1.171974	0.044441	0.500018
C105	C	0.775814	-0.469709	0.000035
C106	C	1.275814	0.030291	0.500035
C107	C	0.776525	-0.410313	0.000045
C108	C	1.276525	0.089687	0.500045
C109	C	0.724961	-0.373540	0.000041
C110	C	1.224961	0.126460	0.500041
C111	C	0.672685	-0.396163	0.000027
C112	C	1.172685	0.103837	0.500027
C113	C	0.568127	-0.441406	-0.000009
C114	C	1.068127	0.058594	0.499991
C115	C	0.568843	-0.382003	-0.000010
C116	C	1.068843	0.117997	0.499990
C117	C	0.621123	-0.359381	0.000004
C118	C	1.121123	0.140619	0.500004
C119	C	0.621832	-0.299994	0.000033
C120	C	1.121832	0.200006	0.500033
N121	N	0.674109	-0.277368	0.000037
N122	N	1.174109	0.222632	0.500037
C123	C	0.725673	-0.314141	0.000041
C124	C	1.225673	0.185859	0.500041
C125	C	0.617491	-0.662324	0.000001
C126	C	1.117491	-0.162324	0.500001
C127	C	0.616778	-0.721722	0.000007
C128	C	1.116778	-0.221722	0.500007
C129	C	0.720623	-0.735869	0.000017
C130	C	1.220623	-0.235869	0.500017
C131	C	0.721335	-0.676470	0.000017
C132	C	1.221335	-0.176470	0.500017
C133	C	0.669767	-0.639698	0.000006
C134	C	1.169767	-0.139698	0.500006
C135	C	0.727163	-0.189404	0.000061
C136	C	1.227163	0.310596	0.500061
C137	C	0.727869	-0.130002	0.000074
C138	C	1.227869	0.369998	0.500074
C139	C	0.624025	-0.115860	0.000059
C140	C	1.124025	0.384140	0.500059
C141	C	0.623318	-0.175257	0.000051
C142	C	1.123318	0.324743	0.500051
C143	C	0.674891	-0.212028	0.000049
C144	C	1.174891	0.287972	0.500049
O145	O	0.578069	-0.263215	0.000059
O146	O	1.078069	0.236785	0.500059
O147	O	0.770196	-0.289433	0.000034
O148	O	1.270196	0.210567	0.500034
C149	C	0.776472	0.069389	0.000050
C150	C	1.276472	0.569389	0.500050
C151	C	0.839689	0.070155	0.000050
C152	C	1.339689	0.570155	0.500050
C153	C	0.667577	0.178283	0.000020
C154	C	1.167577	0.678283	0.500020
C155	C	0.668343	0.241500	0.000006
C156	C	1.168343	0.741500	0.500006
N157	N	0.672312	0.074127	0.246701
N158	N	1.172312	0.574127	0.746701
N159	N	0.672341	0.074139	-0.246616
N160	N	1.172341	0.574139	0.253384
C161	C	0.711261	0.035206	0.296530
C162	C	1.211261	0.535206	0.796530
C163	C	0.711265	0.035206	0.396188
C164	C	1.211265	0.535206	0.896188
C165	C	0.672322	0.074130	0.446014
C166	C	1.172322	0.574130	0.946014
C167	C	0.633369	0.113052	0.396177
C168	C	1.133369	0.613052	0.896177
C169	C	0.633363	0.113050	0.296522
C170	C	1.133363	0.613050	0.796522
C171	C	0.633385	0.113056	0.603892
C172	C	1.133385	0.613056	1.103892
C173	C	0.633392	0.113060	0.703554
C174	C	1.133392	0.613060	1.203554
C175	C	0.711287	0.035213	0.703558
C176	C	1.211287	0.535213	1.203558
C177	C	0.711281	0.035210	0.603902
C178	C	1.211281	0.535210	1.103902
C179	C	0.672328	0.074134	0.554072
C180	C	1.172328	0.574134	1.054072
H181	H	0.098525	0.219610	0.000055
H182	H	0.598525	0.719610	0.500055
Cl183	Cl	0.584431	0.161994	0.766186
Cl184	Cl	1.084431	0.661994	1.266186
Cl185	Cl	0.584413	0.161989	0.541253
Cl186	Cl	1.084413	0.661989	1.041253
Cl187	Cl	0.528568	-0.038988	0.000051
Cl188	Cl	1.028568	0.461012	0.500051
Cl189	Cl	0.785447	-0.782109	0.000015
Cl190	Cl	1.285447	-0.282109	0.500015
H191	H	-0.167631	0.164417	0.000025
H192	H	0.332369	0.664417	0.500025
Cl193	Cl	0.394496	-0.040601	0.000061
Cl194	Cl	0.894496	0.459399	0.500061
Cl195	Cl	0.551053	-0.750154	0.000008
Cl196	Cl	1.051053	-0.250154	0.500008
H197	H	-0.059864	0.165712	0.000030
H198	H	0.440136	0.665712	0.500030
H199	H	0.575496	-0.632386	-0.000000
H200	H	1.075496	-0.132386	0.500000
H201	H	0.206274	0.220904	0.000034
H202	H	0.706274	0.720904	0.500034
H203	H	0.742994	0.003518	0.563334
H204	H	1.242994	0.503518	1.063334
H205	H	0.763906	-0.658055	0.000028
H206	H	1.263906	-0.158055	0.500028
Cl207	Cl	0.793597	-0.101567	0.000090
Cl208	Cl	1.293597	0.398433	0.500090
Cl209	Cl	0.760256	-0.013718	0.766204
Cl210	Cl	1.260256	0.486282	1.266204
H211	H	0.601646	0.144742	0.255951
H212	H	1.101646	0.644742	0.755951
Cl213	Cl	0.502400	-0.469830	-0.000033
Cl214	Cl	1.002400	0.030170	0.499967
H215	H	0.769159	-0.219337	0.000055
H216	H	1.269159	0.280663	0.500055
H217	H	0.526850	-0.352065	-0.000021
H218	H	1.026850	0.147935	0.499979
H219	H	0.582043	-0.085909	0.000059
H220	H	1.082043	0.414091	0.500059
H221	H	0.378846	0.170964	0.000016
H222	H	0.878846	0.670964	0.500016
Cl223	Cl	0.760223	-0.013727	0.233902
Cl224	Cl	1.260223	0.486273	0.733902
H225	H	0.601658	0.144743	0.436752
H226	H	1.101658	0.644743	0.936752
H227	H	0.819097	-0.391900	0.000052
H228	H	1.319097	0.108100	0.500052
Cl229	Cl	0.840647	-0.515928	0.000042
Cl230	Cl	1.340647	-0.015928	0.500042
H231	H	0.580747	-0.193677	0.000066
H232	H	1.080747	0.306323	0.500066
Cl233	Cl	0.262388	-0.094187	0.000088
Cl234	Cl	0.762388	0.405813	0.500088
H235	H	0.742979	0.003513	0.436759
H236	H	1.242979	0.503513	0.936759
H237	H	-0.034204	-0.022699	0.000079
H238	H	0.465796	0.477301	0.500079
Cl239	Cl	0.128342	-0.095792	0.000074
Cl240	Cl	0.628342	0.404208	0.500074
Cl241	Cl	-0.151974	-0.047138	0.000064
Cl242	Cl	0.348026	0.452862	0.500064
H243	H	0.486595	0.172252	-0.000009
H244	H	0.986595	0.672252	0.499991
