data_functionalizedCrystal
_audit_creation_method	'MofGen! by Chris Wilmer'
_symmetry_space_group_name_H-M	'P1'
_symmetry_Int_Tables_number	1
_symmetry_cell_setting	triclinic
loop_
_symmetry_equiv_pos_as_xyz
  x,y,z
_cell_length_a	9.065218
_cell_length_b	14.185569
_cell_length_c	15.712078
_cell_angle_alpha	107.180033
_cell_angle_beta	102.298517
_cell_angle_gamma	76.647086
loop_
_atom_site_label
_atom_site_type_symbol
_atom_site_fract_x
_atom_site_fract_y
_atom_site_fract_z
O1	O	2.003199	0.083419	0.146695
O2	O	1.579310	0.083420	0.157136
O3	O	1.734865	0.083415	0.025645
O4	O	1.847645	0.083425	0.278186
O5	O	1.780819	-0.083421	-0.013194
O6	O	1.625265	-0.083416	0.118296
O7	O	2.049154	-0.083417	0.107856
Cu8	Cu	1.841405	-0.098650	0.109530
Cu9	Cu	1.787059	0.098653	0.155462
O10	O	1.893599	-0.083412	0.239347
C11	C	1.546782	0.000002	0.136713
C12	C	1.381389	0.000003	0.133713
N13	N	1.879640	-0.237422	0.077224
C14	C	1.636478	-0.605064	0.282640
C15	C	1.665453	-0.710086	0.258174
C16	C	1.803261	-0.710052	0.141784
C17	C	1.774290	-0.605027	0.166237
C18	C	1.690899	-0.552541	0.236666
C19	C	1.828712	-0.552505	0.120263
C20	C	1.799751	-0.447490	0.144718
C21	C	1.716367	-0.394996	0.215146
C22	C	1.661938	-0.447526	0.261121
C23	C	1.912112	-0.604993	0.049838
C24	C	1.966534	-0.552471	0.003864
C25	C	1.937563	-0.447453	0.028314
C26	C	1.854180	-0.394960	0.098743
C27	C	1.991993	-0.394924	-0.017660
C28	C	1.963031	-0.289908	0.006794
C29	C	1.825218	-0.289945	0.123197
C30	C	2.081681	0.000003	0.128280
C31	C	2.247073	0.000009	0.131281
C32	C	1.739416	-0.000002	-0.026122
C33	C	1.684497	0.000000	-0.122506
N34	N	1.748832	0.237426	0.187762
C35	C	2.150765	0.000009	-0.485950
C36	C	2.099126	0.000009	-0.576516
C37	C	1.840380	0.000010	-0.557925
C38	C	1.891998	0.000005	-0.467357
C39	C	2.047192	0.000006	-0.431377
C40	C	1.788425	0.000002	-0.412784
C41	C	1.840038	0.000003	-0.322222
C42	C	1.995224	0.000006	-0.286234
C43	C	2.098805	0.000006	-0.340815
C44	C	1.633230	0.000009	-0.448764
C45	C	1.529657	0.000006	-0.394191
C46	C	1.581271	-0.000001	-0.303629
C47	C	1.736458	0.000003	-0.267641
C48	C	1.477691	-0.000001	-0.249048
C49	C	1.529304	-0.000000	-0.158486
C50	C	1.788071	0.000003	-0.177079
C51	C	1.889047	0.000008	0.291114
C52	C	1.943964	0.000012	0.387500
H53	H	1.692793	-0.309486	0.235059
H54	H	1.757299	-0.247208	0.180542
H55	H	1.568559	-0.562328	0.339985
H56	H	1.403296	0.000009	-0.423498
H57	H	1.914447	-0.000007	-0.147785
H58	H	2.037245	0.000007	-0.212492
H59	H	1.351329	0.000008	-0.278355
H60	H	2.183479	0.000017	-0.620947
O61	O	1.689696	-0.000038	-0.593035
C62	C	1.495483	0.000018	-0.724296
C63	C	1.666179	0.000053	-0.684657
H64	H	1.476409	0.000112	-0.798372
H65	H	1.461017	-0.069823	-0.718231
H66	H	1.422625	0.069818	-0.685600
H67	H	1.739154	-0.069700	-0.723323
H68	H	1.700521	0.069940	-0.690708
O69	O	2.073230	-0.445866	-0.085976
C70	C	2.312238	-0.477898	-0.142246
C71	C	2.220427	-0.420167	-0.064801
H72	H	2.431253	-0.457126	-0.125162
H73	H	2.323730	-0.561991	-0.151832
H74	H	2.249644	-0.457264	-0.207116
H75	H	2.282945	-0.440717	0.000113
H76	H	2.208925	-0.336089	-0.055294
H77	H	1.594019	-0.404790	0.318465
O78	O	1.612397	-0.760951	0.302898
C79	C	1.472702	-0.749901	0.420960
C80	C	1.532668	-0.692172	0.370376
H81	H	1.408256	-0.694318	0.475539
H82	H	1.391935	-0.799045	0.371472
H83	H	1.573634	-0.799090	0.453355
H84	H	1.431835	-0.642929	0.337978
H85	H	1.613481	-0.643091	0.419904
H86	H	2.225181	-0.000004	-0.311521
H87	H	2.007349	-0.247144	-0.030642
O88	O	1.428712	0.000170	-0.105390
C89	C	1.313087	0.086571	0.027807
C90	C	1.427029	0.086509	-0.032259
H91	H	1.311712	0.156357	0.086958
H92	H	1.193249	0.086631	-0.013405
H93	H	1.350030	0.016719	0.054368
H94	H	1.390227	0.156348	-0.058834
H95	H	1.546840	0.086396	0.008993
H96	H	1.871164	-0.752798	0.084441
H97	H	2.277141	-0.000001	-0.456656
H98	H	1.935696	-0.690504	0.029933
H99	H	2.034437	-0.595217	-0.053478
H100	H	1.591210	0.000014	-0.522505
