data_functionalizedCrystal
_audit_creation_method	'MofGen! by Chris Wilmer'
_symmetry_space_group_name_H-M	'P1'
_symmetry_Int_Tables_number	1
_symmetry_cell_setting	triclinic
loop_
_symmetry_equiv_pos_as_xyz
  x,y,z
_cell_length_a	19.805407
_cell_length_b	16.959453
_cell_length_c	19.805399
_cell_angle_alpha	90.026715
_cell_angle_beta	90.019573
_cell_angle_gamma	90.019988
loop_
_atom_site_label
_atom_site_type_symbol
_atom_site_fract_x
_atom_site_fract_y
_atom_site_fract_z
Zn1	Zn	1.034766	-0.314700	0.382724
Zn2	Zn	1.534766	0.185300	0.882724
Zn3	Zn	1.034693	-0.446882	0.269537
Zn4	Zn	1.534693	0.053118	0.769537
Zn5	Zn	0.921581	-0.314722	0.269548
Zn6	Zn	1.421581	0.185278	0.769548
Zn7	Zn	0.921557	-0.446840	0.382684
Zn8	Zn	1.421557	0.053160	0.882684
O9	O	0.978149	-0.380786	0.326123
O10	O	1.478149	0.119214	0.826123
O11	O	1.129473	-0.332243	0.367721
O12	O	1.629473	0.167757	0.867721
O13	O	1.019668	-0.429378	0.174822
O14	O	1.519668	0.070622	0.674822
O15	O	0.936635	-0.204108	0.284583
O16	O	1.436635	0.295892	0.784583
O17	O	1.129420	-0.429356	0.284564
O18	O	1.629420	0.070644	0.784564
O19	O	1.019792	-0.204092	0.367732
O20	O	1.519792	0.295908	0.867732
O21	O	0.936565	-0.332280	0.174830
O22	O	1.436565	0.167720	0.674830
O23	O	0.826861	-0.332239	0.284544
O24	O	1.326861	0.167761	0.784544
O25	O	0.936595	-0.429285	0.477406
O26	O	1.436595	0.070715	0.977406
O27	O	0.826843	-0.429306	0.367664
O28	O	1.326843	0.070694	0.867664
O29	O	1.019769	-0.332202	0.477435
O30	O	1.519769	0.167798	0.977435
O31	O	1.019645	-0.557488	0.284525
O32	O	1.519645	-0.057488	0.784525
O33	O	0.936524	-0.557457	0.367653
O34	O	1.436524	-0.057457	0.867653
C35	C	0.802293	-0.380771	0.326101
C36	C	1.302293	0.119229	0.826101
C37	C	0.727061	-0.380783	0.326108
C38	C	1.227061	0.119217	0.826108
C39	C	0.978093	-0.586152	0.326098
C40	C	1.478093	-0.086152	0.826098
C41	C	0.978130	-0.674009	0.326111
C42	C	1.478130	-0.174009	0.826111
C43	C	0.691726	-0.431402	0.369319
C44	C	1.191726	0.068598	0.869319
C45	C	0.621037	-0.431404	0.369328
C46	C	1.121037	0.068596	0.869328
C47	C	0.585686	-0.380790	0.326123
C48	C	1.085686	0.119210	0.826123
C49	C	0.621026	-0.330165	0.282911
C50	C	1.121026	0.169835	0.782911
C51	C	0.691713	-0.330160	0.282905
C52	C	1.191713	0.169840	0.782905
C53	C	0.335953	-0.330183	0.282933
C54	C	0.835953	0.169817	0.782933
C55	C	0.265261	-0.330193	0.282941
C56	C	0.765261	0.169807	0.782941
C57	C	0.265277	-0.431426	0.369356
C58	C	0.765277	0.068574	0.869356
C59	C	0.335964	-0.431421	0.369351
C60	C	0.835964	0.068579	0.869351
C61	C	0.371298	-0.380794	0.326141
C62	C	0.871298	0.119206	0.826141
C63	C	0.447947	-0.380792	0.326132
C64	C	0.947947	0.119208	0.826132
C65	C	0.509038	-0.380795	0.326128
C66	C	1.009038	0.119205	0.826128
C67	C	1.021504	-1.045418	0.369501
C68	C	1.521504	-0.545418	0.869501
C69	C	0.934983	-1.045551	0.282846
C70	C	1.434983	-0.545551	0.782846
C71	C	0.934958	-0.963005	0.282831
C72	C	1.434958	-0.463005	0.782831
C73	C	0.978206	-0.921662	0.326152
C74	C	1.478206	-0.421662	0.826152
C75	C	1.021479	-0.962864	0.369488
C76	C	1.521479	-0.462864	0.869488
C77	C	0.891681	-0.921797	0.239500
C78	C	1.391681	-0.421797	0.739500
C79	C	0.891653	-0.839246	0.239483
C80	C	1.391653	-0.339246	0.739483
C81	C	0.934905	-0.797901	0.282801
C82	C	1.434905	-0.297901	0.782801
C83	C	0.978181	-0.839108	0.326139
C84	C	1.478181	-0.339108	0.826139
C85	C	1.021429	-0.797765	0.369460
C86	C	1.521429	-0.297765	0.869460
C87	C	1.064708	-0.838971	0.412795
C88	C	1.564708	-0.338971	0.912795
C89	C	1.064731	-0.921519	0.412806
C90	C	1.564731	-0.421519	0.912806
C91	C	0.934882	-0.715352	0.282790
C92	C	1.434882	-0.215352	0.782790
C93	C	1.021404	-0.715211	0.369447
C94	C	1.521404	-0.215211	0.869447
C95	C	1.154692	-0.380802	0.326146
C96	C	1.654692	0.119198	0.826146
C97	C	1.229924	-0.380808	0.326155
C98	C	1.729924	0.119192	0.826155
C99	C	0.978187	-0.380736	0.502666
C100	C	1.478187	0.119264	1.002666
C101	C	0.978203	-0.380715	0.577898
C102	C	1.478203	0.119285	1.077898
C103	C	0.978224	-0.174618	0.326163
C104	C	1.478224	0.325382	0.826163
C105	C	0.978256	-0.086761	0.326180
C106	C	1.478256	0.413239	0.826180
C107	C	0.978150	-0.380779	0.150267
C108	C	1.478150	0.119221	0.650267
C109	C	0.978265	-0.380577	0.075036
C110	C	1.478265	0.119423	0.575036
C111	C	1.021513	-0.330161	0.613259
C112	C	1.521513	0.169839	1.113259
C113	C	1.021520	-0.330138	0.683947
C114	C	1.521520	0.169862	1.183947
C115	C	0.978220	-0.380674	0.719274
C116	C	1.478220	0.119326	1.219274
C117	C	0.934905	-0.431230	0.683908
C118	C	1.434905	0.068770	1.183908
C119	C	0.934896	-0.431248	0.613221
C120	C	1.434896	0.068752	1.113221
C121	C	0.934944	-0.431156	0.968982
C122	C	1.434944	0.068844	1.468982
C123	C	0.934958	-0.431135	1.039674
C124	C	1.434958	0.068865	1.539674
C125	C	1.021568	-0.330046	1.039708
C126	C	1.521568	0.169954	1.539708
C127	C	1.021558	-0.330065	0.969021
C128	C	1.521558	0.169935	1.469021
C129	C	0.978241	-0.380617	0.933661
C130	C	1.478241	0.119383	1.433661
C131	C	0.978234	-0.380641	0.857013
C132	C	1.478234	0.119359	1.357013
C133	C	0.978231	-0.380655	0.795921
C134	C	1.478231	0.119345	1.295921
H135	H	0.592270	-0.472623	0.404514
H136	H	1.092270	0.027377	0.904514
H137	H	1.056820	-0.288916	0.940261
H138	H	1.556820	0.211084	1.440261
H139	H	1.099918	-0.805299	0.448070
H140	H	1.599918	-0.305299	0.948070
H141	H	0.236499	-0.472646	0.404542
H142	H	0.736499	0.027354	0.904542
H143	H	0.236479	-0.288972	0.247758
H144	H	0.736479	0.211028	0.747758
C145	C	0.730585	-0.274481	0.235375
C146	C	1.230585	0.225519	0.735375
H147	H	0.777747	-0.281721	0.241564
H148	H	1.277747	0.218279	0.741564
H149	H	0.718981	-0.285976	0.189880
H150	H	1.218981	0.214024	0.689880
H151	H	0.719017	-0.221387	0.245369
H152	H	1.219017	0.278613	0.745369
H153	H	1.056836	-0.288881	1.068506
H154	H	1.556836	0.211119	1.568506
H155	H	1.099966	-0.955076	0.448088
H156	H	1.599966	-0.455076	0.948088
H157	H	0.592237	-0.288951	0.247735
H158	H	1.092237	0.211049	0.747735
H159	H	0.899695	-0.472289	1.068435
H160	H	1.399695	0.027711	1.568435
H161	H	1.056743	-1.078971	0.404781
H162	H	1.556743	-0.578971	0.904781
H163	H	0.720504	-0.472621	0.404499
H164	H	1.220504	0.027379	0.904499
C165	C	0.374812	-0.274509	0.235393
C166	C	0.874812	0.225491	0.735393
H167	H	0.343632	-0.244377	0.209656
H168	H	0.843632	0.255623	0.709656
H169	H	0.402410	-0.240101	0.261325
H170	H	0.902410	0.259899	0.761325
H171	H	0.402363	-0.304710	0.205852
H172	H	0.902363	0.195290	0.705852
H173	H	0.899621	-0.472406	0.584432
H174	H	1.399621	0.027594	1.084432
C175	C	1.068971	-0.669739	0.417107
C176	C	1.568971	-0.169739	0.917107
H177	H	1.094743	-0.706104	0.442920
H178	H	1.594743	-0.206104	0.942920
H179	H	1.098468	-0.637525	0.391245
H180	H	1.598468	-0.137525	0.891245
H181	H	1.043042	-0.637544	0.446572
H182	H	1.543042	-0.137544	0.946572
C183	C	0.887416	-1.091027	0.235196
C184	C	1.387416	-0.591027	0.735196
H185	H	0.893632	-1.146091	0.241407
H186	H	1.393632	-0.646091	0.741407
H187	H	0.841928	-1.077528	0.245050
H188	H	1.341928	-0.577528	0.745050
H189	H	0.897354	-1.077526	0.189724
H190	H	1.397354	-0.577526	0.689724
C191	C	0.844117	-0.967274	0.191847
C192	C	1.344117	-0.467274	0.691847
H193	H	0.850339	-1.022338	0.198055
H194	H	1.350339	-0.522338	0.698055
H195	H	0.798627	-0.953784	0.201703
H196	H	1.298627	-0.453784	0.701703
H197	H	0.854053	-0.953768	0.146376
H198	H	1.354053	-0.453768	0.646376
C199	C	0.374850	-0.487107	0.416864
C200	C	0.874850	0.012893	0.916864
H201	H	0.422010	-0.479862	0.410665
H202	H	0.922010	0.020138	0.910665
H203	H	0.363294	-0.475622	0.462363
H204	H	0.863294	0.024378	0.962363
H205	H	0.363244	-0.540200	0.406865
H206	H	0.863244	-0.040200	0.906865
H207	H	0.899642	-0.681806	0.247510
H208	H	1.399642	-0.181806	0.747510
C209	C	0.844056	-0.793927	0.191811
C210	C	1.344056	-0.293927	0.691811
H211	H	0.818307	-0.830373	0.166010
H212	H	1.318307	-0.330373	0.666010
H213	H	0.814539	-0.761723	0.217665
H214	H	1.314539	-0.261723	0.717665
H215	H	0.869964	-0.761732	0.162336
H216	H	1.369964	-0.261732	0.662336
C217	C	0.887284	-0.486745	0.930095
C218	C	1.387284	0.013255	1.430095
H219	H	0.861499	-0.516837	0.961261
H220	H	1.361499	-0.016837	1.461261
H221	H	0.857804	-0.456495	0.902531
H222	H	1.357804	0.043505	1.402531
H223	H	0.913144	-0.521206	0.902509
H224	H	1.413144	-0.021206	1.402509
H225	H	1.056775	-0.289012	0.584501
H226	H	1.556775	0.210988	1.084501
H227	H	1.056789	-0.288975	0.712734
H228	H	1.556789	0.211025	1.212734
C229	C	0.887277	-0.486818	0.722766
C230	C	1.387277	0.013182	1.222766
H231	H	0.893490	-0.479574	0.769929
H232	H	1.393490	0.020426	1.269929
H233	H	0.841802	-0.475251	0.711176
H234	H	1.341802	0.024749	1.211176
H235	H	0.897167	-0.539933	0.711170
H236	H	1.397167	-0.039933	1.211170
