data_functionalizedCrystal
_audit_creation_method	'MofGen! by Chris Wilmer'
_symmetry_space_group_name_H-M	'P1'
_symmetry_Int_Tables_number	1
_symmetry_cell_setting	triclinic
loop_
_symmetry_equiv_pos_as_xyz
  x,y,z
_cell_length_a	12.996460
_cell_length_b	10.654550
_cell_length_c	10.654550
_cell_angle_alpha	95.515069
_cell_angle_beta	89.993956
_cell_angle_gamma	89.997760
loop_
_atom_site_label
_atom_site_type_symbol
_atom_site_fract_x
_atom_site_fract_y
_atom_site_fract_z
O1	O	-0.085490	-1.667835	0.176402
O2	O	-0.085509	-1.302356	0.193208
O3	O	-0.085492	-1.493498	0.002066
O4	O	-0.085506	-1.476692	0.367545
O5	O	0.085642	-1.493495	0.002053
O6	O	0.085625	-1.302353	0.193196
O7	O	0.085644	-1.667831	0.176390
Cu8	Cu	0.101260	-1.485092	0.184792
Cu9	Cu	-0.101125	-1.485096	0.184807
O10	O	0.085628	-1.476689	0.367532
C11	C	0.000056	-1.255556	0.191968
C12	C	0.000049	-1.116113	0.188276
N13	N	-0.243472	-1.485099	0.184808
C14	C	0.000077	-1.714631	0.177630
C15	C	0.000078	-1.854074	0.181322
C16	C	-0.663286	-1.485093	0.184796
C17	C	-0.546481	-1.485090	0.184803
C18	C	-0.453383	-1.485095	0.184801
C19	C	-0.336570	-1.485094	0.184809
N20	N	0.243608	-1.485098	0.184780
C21	C	0.000074	-1.492263	-0.044738
C22	C	0.000072	-1.488571	-0.184181
C23	C	0.000048	-1.036628	0.300818
C24	C	0.000066	-0.905607	0.297341
C25	C	0.000082	-0.933570	0.068772
C26	C	0.000071	-1.064588	0.072250
C27	C	0.000078	-1.601112	-0.263667
C28	C	0.000065	-1.597636	-0.394688
C29	C	0.000046	-1.369066	-0.366725
C30	C	0.000051	-1.372544	-0.235706
C31	C	0.000059	-1.477925	0.414336
C32	C	0.000054	-1.481617	0.553779
H33	H	0.000067	-0.840894	0.388984
H34	H	0.000093	-1.695588	-0.221720
O35	O	-0.000045	-0.883661	-0.044006
C36	C	-0.088729	-0.867397	-0.240386
C37	C	-0.088696	-0.924022	-0.112719
H38	H	-0.160407	-0.899985	-0.295966
H39	H	-0.017159	-0.900095	-0.296153
H40	H	-0.088676	-0.760103	-0.223509
H41	H	-0.088785	-1.031318	-0.129482
H42	H	-0.160261	-0.891225	-0.056994
O43	O	-0.000150	-1.256334	-0.416722
C44	C	-0.088795	-1.059888	-0.432839
C45	C	-0.088716	-1.187527	-0.376161
H46	H	-0.160382	-1.004210	-0.400047
H47	H	-0.088861	-1.076659	-0.540141
H48	H	-0.017147	-1.004262	-0.400217
H49	H	-0.160352	-1.243218	-0.408685
H50	H	-0.088596	-1.170666	-0.268866
O51	O	-0.000064	-1.707044	-0.471770
C52	C	-0.088737	-1.901312	-0.535781
C53	C	-0.088705	-1.777464	-0.448395
H54	H	-0.160407	-1.958270	-0.516932
H55	H	-0.017159	-1.958432	-0.516915
H56	H	-0.088699	-1.878874	-0.638266
H57	H	-0.088780	-1.799788	-0.345879
H58	H	-0.160277	-1.720379	-0.467369
H59	H	0.000037	-1.078574	0.395294
H60	H	0.000075	-1.129309	-0.019401
H61	H	0.000044	-1.280893	-0.170985
