data_functionalizedCrystal
_audit_creation_method	'MofGen! by Chris Wilmer'
_symmetry_space_group_name_H-M	'P1'
_symmetry_Int_Tables_number	1
_symmetry_cell_setting	triclinic
loop_
_symmetry_equiv_pos_as_xyz
  x,y,z
_cell_length_a	16.109301
_cell_length_b	14.421503
_cell_length_c	16.109295
_cell_angle_alpha	90.007406
_cell_angle_beta	96.539666
_cell_angle_gamma	90.004909
loop_
_atom_site_label
_atom_site_type_symbol
_atom_site_fract_x
_atom_site_fract_y
_atom_site_fract_z
O1	O	1.103135	0.077047	-0.106856
O2	O	0.861073	0.077060	-0.120155
O3	O	0.988756	0.077054	0.007526
O4	O	0.975452	0.077053	-0.234537
O5	O	0.988735	-0.077169	0.007507
O6	O	0.861051	-0.077163	-0.120174
O7	O	1.103114	-0.077177	-0.106875
Cu8	Cu	0.982081	-0.091252	-0.113526
Cu9	Cu	0.982106	0.091135	-0.113504
O10	O	0.975430	-0.077171	-0.234556
C11	C	0.830087	-0.000049	-0.119626
C12	C	0.737792	-0.000044	-0.118011
N13	N	0.982069	-0.219533	-0.113542
C14	C	0.515518	-0.000055	-0.190019
C15	C	0.428798	-0.000061	-0.188495
C16	C	0.448675	-0.000056	-0.037006
C17	C	0.535394	-0.000057	-0.038531
C18	C	0.568813	-0.000052	-0.115040
C19	C	0.395374	-0.000057	-0.111991
C20	C	0.301348	-0.000063	-0.110338
C21	C	0.662845	-0.000047	-0.116693
C22	C	0.923018	-0.469184	-0.172555
C23	C	0.998139	-0.530991	-0.188671
C24	C	0.982089	-0.408694	-0.113522
C25	C	0.906988	-0.530981	-0.097425
C26	C	0.982102	-0.591416	-0.113505
C27	C	1.057248	-0.469141	-0.129676
C28	C	0.966048	-0.469125	-0.038396
C29	C	1.041223	-0.530905	-0.054481
C30	C	0.982081	-0.303433	-0.113534
C31	C	0.982119	-0.696675	-0.113492
C32	C	1.134099	-0.000065	-0.107404
C33	C	1.226394	-0.000065	-0.109019
C34	C	0.988207	-0.000055	0.038491
C35	C	0.986594	-0.000048	0.130787
N36	N	0.982124	0.219417	-0.113482
C37	C	1.058606	-0.000018	0.353060
C38	C	1.057084	-0.000003	0.439780
C39	C	0.905595	0.000001	0.419906
C40	C	0.907118	-0.000008	0.333187
C41	C	0.983626	-0.000022	0.299766
C42	C	0.980580	0.000002	0.473206
C43	C	0.978929	0.000019	0.567232
C44	C	0.985277	-0.000037	0.205734
C45	C	0.975984	-0.000037	0.734479
C46	C	0.977612	0.000028	0.642186
H47	H	0.385408	-0.000066	-0.249551
N48	N	1.136942	-0.435215	-0.146864
N49	N	1.164325	-0.455700	-0.214063
H50	H	1.220607	-0.431738	-0.226206
N51	N	0.827318	-0.565075	-0.080335
N52	N	0.814771	-0.650457	-0.076982
H53	H	0.758503	-0.674537	-0.064917
H54	H	0.542724	-0.000058	-0.252317
N55	N	0.948976	-0.435017	0.041270
N56	N	0.881529	-0.454794	0.068479
H57	H	0.869464	-0.430704	0.124744
H58	H	1.091238	-0.557835	-0.004548
N59	N	1.136747	-0.000013	0.318907
N60	N	1.138099	-0.000019	0.241479
H61	H	1.193288	-0.000012	0.217359
H62	H	1.118140	0.000002	0.483169
N63	N	0.414522	-0.000061	0.041135
N64	N	0.337095	-0.000060	0.042488
H65	H	0.312974	-0.000062	0.097676
H66	H	0.578789	-0.000057	0.022530
N67	N	0.827440	-0.000011	0.454033
N68	N	0.760499	-0.000021	0.406437
H69	H	0.705299	-0.000036	0.430536
N70	N	0.860416	-0.435194	-0.235236
N71	N	0.863762	-0.455051	-0.310313
H72	H	0.819552	-0.431047	-0.354583
N73	N	0.830515	-0.000002	0.278755
N74	N	0.762211	0.000006	0.308603
H75	H	0.708112	0.000015	0.270161
H76	H	1.011719	-0.558165	-0.252196
