data_functionalizedCrystal
_audit_creation_method	'MofGen! by Chris Wilmer'
_symmetry_space_group_name_H-M	'P1'
_symmetry_Int_Tables_number	1
_symmetry_cell_setting	triclinic
loop_
_symmetry_equiv_pos_as_xyz
  x,y,z
_cell_length_a	16.109301
_cell_length_b	14.519709
_cell_length_c	15.186229
_cell_angle_alpha	89.995307
_cell_angle_beta	89.999006
_cell_angle_gamma	83.570864
loop_
_atom_site_label
_atom_site_type_symbol
_atom_site_fract_x
_atom_site_fract_y
_atom_site_fract_z
O1	O	1.103336	0.118541	-0.073182
O2	O	0.861299	0.133293	-0.073195
O3	O	0.988735	-0.008335	-0.073180
O4	O	0.975900	0.260169	-0.073197
O5	O	0.988726	-0.008337	0.073277
O6	O	0.861291	0.133291	0.073263
O7	O	1.103327	0.118539	0.073275
Zn8	Zn	0.982308	0.125915	0.096522
Zn9	Zn	0.982319	0.125917	-0.096442
O10	O	0.975892	0.260167	0.073261
C11	C	0.830319	0.132694	0.000032
C12	C	0.738021	0.130903	0.000028
C13	C	0.429158	0.209085	0.000038
C14	C	0.515881	0.210777	0.000033
C15	C	0.535463	0.042740	0.000032
C16	C	0.448742	0.041049	0.000031
C17	C	0.395591	0.124224	0.000038
C18	C	0.569036	0.127607	0.000034
C19	C	0.663065	0.129441	0.000029
C20	C	0.301556	0.122391	0.000042
C21	C	0.988132	-0.042695	0.000049
C22	C	0.986340	-0.145072	0.000049
C23	C	0.979741	-0.519954	0.000026
C24	C	0.981574	-0.415650	0.000033
C25	C	0.983040	-0.332516	0.000038
C26	C	0.984873	-0.228206	0.000043
C27	C	1.134307	0.119138	0.000046
C28	C	1.226606	0.120929	0.000045
C29	C	0.976494	0.294526	0.000030
C30	C	0.978287	0.396904	0.000024
N31	N	0.982306	0.125912	0.228215
N32	N	0.982327	0.125912	-0.228134
C33	C	1.038754	0.063220	0.453944
C34	C	1.038756	0.063218	0.546134
C35	C	0.925873	0.188607	0.546130
C36	C	0.925867	0.188604	0.453942
C37	C	0.982312	0.125912	0.407851
C38	C	0.982321	0.125913	0.592229
C39	C	0.982323	0.125911	0.692185
C40	C	0.982309	0.125912	0.307889
H41	H	0.385884	0.276812	0.000044
Cl42	Cl	1.109712	-0.015599	0.604076
Cl43	Cl	1.109710	-0.015596	0.396006
Cl44	Cl	0.406540	-0.065642	0.000019
Cl45	Cl	0.558075	0.317464	0.000030
Cl46	Cl	0.602287	-0.061817	0.000031
Cl47	Cl	0.854920	0.267420	0.604076
H48	H	0.879902	0.239655	0.416411
