data_functionalizedCrystal
_audit_creation_method	'MofGen! by Chris Wilmer'
_symmetry_space_group_name_H-M	'P1'
_symmetry_Int_Tables_number	1
_symmetry_cell_setting	triclinic
loop_
_symmetry_equiv_pos_as_xyz
  x,y,z
_cell_length_a	10.723023
_cell_length_b	10.723024
_cell_length_c	9.730223
_cell_angle_alpha	89.999810
_cell_angle_beta	90.000239
_cell_angle_gamma	84.467709
loop_
_atom_site_label
_atom_site_type_symbol
_atom_site_fract_x
_atom_site_fract_y
_atom_site_fract_z
O1	O	1.657182	0.175017	-0.114272
O2	O	1.294029	0.191771	-0.114278
O3	O	1.483982	0.001818	-0.114270
O4	O	1.467229	0.364971	-0.114280
O5	O	1.483980	0.001823	0.114310
O6	O	1.294027	0.191776	0.114302
O7	O	1.657180	0.175022	0.114308
Zn8	Zn	1.475603	0.183400	0.150597
Zn9	Zn	1.475606	0.183394	-0.150567
O10	O	1.467227	0.364975	0.114300
C11	C	1.247529	0.190555	0.000012
C12	C	1.108974	0.186908	0.000010
C13	C	0.904008	0.181509	-0.118402
C14	C	1.047211	0.185279	-0.118402
C15	C	1.482762	-0.044679	0.000019
C16	C	1.479114	-0.183233	0.000014
C17	C	1.585402	-0.258216	0.000014
C18	C	1.581634	-0.401420	0.000008
C19	C	1.703680	0.176239	0.000016
C20	C	1.842235	0.179886	0.000009
C21	C	1.468447	0.411473	0.000009
C22	C	1.472095	0.550027	0.000004
N23	N	1.475610	0.183403	0.356134
N24	N	1.475609	0.183380	-0.356103
C25	C	1.559743	0.099321	0.428063
C26	C	1.559740	0.099306	0.571946
C27	C	1.391467	0.267467	0.571957
C28	C	1.391465	0.267475	0.428077
C29	C	1.656898	0.002238	0.428058
C30	C	1.656895	0.002223	0.571941
H31	H	1.055858	0.185518	0.101390
H32	H	0.850878	0.180101	-0.219776
H33	H	1.626590	-0.088414	0.616558
F34	F	0.911675	0.181708	0.132518
H35	H	1.747496	0.032618	0.383432
H36	H	1.385328	-0.225055	0.000003
H37	H	1.679188	-0.216394	0.000023
F38	F	1.301917	0.356936	0.648535
F39	F	1.700570	-0.485634	0.000018
F40	F	1.301907	0.356950	0.351525
F41	F	1.353154	-0.365766	0.000015
H42	H	1.752788	0.023589	0.610992
F43	F	1.629068	-0.123126	0.377008
H44	H	1.100334	0.186683	-0.219777
