data_functionalizedCrystal
_audit_creation_method	'MofGen! by Chris Wilmer'
_symmetry_space_group_name_H-M	'P1'
_symmetry_Int_Tables_number	1
_symmetry_cell_setting	triclinic
loop_
_symmetry_equiv_pos_as_xyz
  x,y,z
_cell_length_a	10.723023
_cell_length_b	15.944493
_cell_length_c	9.798715
_cell_angle_alpha	90.002726
_cell_angle_beta	89.996770
_cell_angle_gamma	83.971296
loop_
_atom_site_label
_atom_site_type_symbol
_atom_site_fract_x
_atom_site_fract_y
_atom_site_fract_z
O1	O	1.655663	0.117808	-0.113457
O2	O	1.292365	0.129086	-0.113461
O3	O	1.483972	0.001226	-0.113471
O4	O	1.464055	0.245668	-0.113448
O5	O	1.483958	0.001225	0.113511
O6	O	1.292350	0.129085	0.113521
O7	O	1.655649	0.117808	0.113525
Zn8	Zn	1.473997	0.123446	0.149561
Zn9	Zn	1.474016	0.123447	-0.149498
O10	O	1.464041	0.245668	0.113534
C11	C	1.245869	0.128265	0.000029
C12	C	1.107346	0.125810	0.000026
C13	C	1.045581	0.124715	0.117609
C14	C	0.902410	0.122178	0.117609
C15	C	1.483151	-0.030074	0.000015
C16	C	1.480711	-0.123337	-0.000003
C17	C	1.593495	-0.358451	0.000024
C18	C	1.532682	-0.409367	-0.111890
C19	C	1.476189	-0.294084	0.000014
C20	C	1.532641	-0.409344	0.111897
C21	C	1.471829	-0.459018	0.000036
C22	C	1.415407	-0.343771	-0.111993
C23	C	1.415382	-0.343744	0.111895
C24	C	1.354483	-0.394628	-0.000047
C25	C	1.478703	-0.199069	-0.000000
C26	C	1.469305	-0.554030	0.000040
C27	C	1.702145	0.118628	0.000031
C28	C	1.840668	0.121083	0.000025
C29	C	1.464862	0.276967	0.000046
C30	C	1.467303	0.370230	0.000054
N31	N	1.473994	0.123446	0.353661
N32	N	1.474030	0.123441	-0.353597
C33	C	1.554448	0.069524	0.421434
C34	C	1.554468	0.069521	0.578596
H35	H	1.098695	0.125652	0.218275
H36	H	1.623352	0.023360	0.636878
H37	H	0.849293	0.121241	0.218276
C38	C	1.599579	-0.448035	0.239713
H39	H	1.684438	-0.435886	0.239565
H40	H	1.596861	-0.507392	0.239245
H41	H	1.558746	-0.424679	0.319186
H42	H	1.405151	0.169611	0.588129
H43	H	0.893775	0.122030	-0.100647
C44	C	1.729991	-0.336549	-0.000114
H45	H	1.744622	-0.304961	0.079443
H46	H	1.744072	-0.304107	-0.078872
H47	H	1.785488	-0.387075	-0.000976
C48	C	1.035611	0.124543	-0.135974
H49	H	1.092929	0.125555	-0.209745
H50	H	0.975306	0.172541	-0.141037
H51	H	0.994361	0.074739	-0.141055
C52	C	1.380940	0.185799	0.432439
H53	H	1.330450	0.219622	0.369538
H54	H	1.426011	0.220916	0.488189
H55	H	1.328923	0.155317	0.488173
C56	C	1.599610	-0.448096	-0.239699
H57	H	1.684479	-0.435965	-0.239565
H58	H	1.558781	-0.424766	-0.319174
H59	H	1.596885	-0.507456	-0.239186
C60	C	1.217881	-0.416312	-0.000128
H61	H	1.176413	-0.393646	-0.079699
H62	H	1.175922	-0.392847	0.078617
H63	H	1.217041	-0.475830	0.000618
H64	H	1.623309	0.023358	0.363108
C65	C	1.348551	-0.305230	-0.239960
H66	H	1.350577	-0.245806	-0.239213
H67	H	1.263914	-0.317831	-0.240291
H68	H	1.389945	-0.328266	-0.319332
H69	H	1.365879	-0.315067	0.206513
