data_functionalizedCrystal
_audit_creation_method	'MofGen! by Chris Wilmer'
_symmetry_space_group_name_H-M	'P1'
_symmetry_Int_Tables_number	1
_symmetry_cell_setting	triclinic
loop_
_symmetry_equiv_pos_as_xyz
  x,y,z
_cell_length_a	19.805407
_cell_length_b	19.805405
_cell_length_c	19.805399
_cell_angle_alpha	89.970699
_cell_angle_beta	90.019573
_cell_angle_gamma	89.973590
loop_
_atom_site_label
_atom_site_type_symbol
_atom_site_fract_x
_atom_site_fract_y
_atom_site_fract_z
Zn1	Zn	1.034736	0.269479	0.382712
Zn2	Zn	1.368069	0.602812	0.716045
Zn3	Zn	1.701402	0.936146	1.049378
Zn4	Zn	1.034651	0.382667	0.269520
Zn5	Zn	1.367984	0.716001	0.602853
Zn6	Zn	1.701317	1.049334	0.936187
Zn7	Zn	0.921550	0.269498	0.269536
Zn8	Zn	1.254884	0.602831	0.602869
Zn9	Zn	1.588217	0.936164	0.936203
Zn10	Zn	0.921514	0.382631	0.382667
Zn11	Zn	1.254847	0.715965	0.716000
Zn12	Zn	1.588180	1.049298	1.049333
O13	O	0.978113	0.326069	0.326109
O14	O	1.311446	0.659402	0.659442
O15	O	1.644779	0.992735	0.992775
O16	O	1.129441	0.284501	0.367708
O17	O	1.462774	0.617834	0.701042
O18	O	1.796108	0.951167	1.034375
O19	O	1.019627	0.367678	0.174805
O20	O	1.352960	0.701011	0.508139
O21	O	1.686294	1.034345	0.841472
O22	O	0.936616	0.174778	0.284575
O23	O	1.269949	0.508112	0.617908
O24	O	1.603282	0.841445	0.951241
O25	O	1.129378	0.367660	0.284547
O26	O	1.462712	0.700993	0.617880
O27	O	1.796045	1.034326	0.951214
O28	O	1.019772	0.174765	0.367724
O29	O	1.353106	0.508098	0.701058
O30	O	1.686439	0.841431	1.034391
O31	O	0.936533	0.284533	0.174817
O32	O	1.269866	0.617866	0.508151
O33	O	1.603200	0.951199	0.841484
O34	O	0.826829	0.284498	0.284531
O35	O	1.160162	0.617831	0.617864
O36	O	1.493496	0.951164	0.951198
O37	O	0.936553	0.367598	0.477389
O38	O	1.269887	0.700932	0.810723
O39	O	1.603220	1.034265	1.144056
O40	O	0.826802	0.367617	0.367648
O41	O	1.160135	0.700950	0.700981
O42	O	1.493469	1.034283	1.034314
O43	O	1.019737	0.284466	0.477422
O44	O	1.353070	0.617799	0.810756
O45	O	1.686404	0.951133	1.144089
O46	O	1.019592	0.477379	0.284503
O47	O	1.352925	0.810712	0.617837
O48	O	1.686258	1.144046	0.951170
O49	O	0.936471	0.477353	0.367632
O50	O	1.269804	0.810686	0.700965
O51	O	1.603137	1.144019	1.034299
C52	C	0.802257	0.326056	0.326087
C53	C	1.135590	0.659389	0.659420
C54	C	1.468923	0.992722	0.992753
C55	C	0.727025	0.326067	0.326093
C56	C	1.060358	0.659400	0.659427
C57	C	1.393691	0.992733	0.992760
C58	C	0.691684	0.369412	0.369302
C59	C	1.025018	0.702745	0.702635
C60	C	1.358351	1.036078	1.035969
C61	C	0.620996	0.369413	0.369312
C62	C	0.954329	0.702746	0.702645
C63	C	1.287662	1.036080	1.035978
C64	C	0.585649	0.326072	0.326109
C65	C	0.918982	0.659405	0.659442
C66	C	1.252316	0.992738	0.992775
C67	C	0.620994	0.282722	0.282898
C68	C	0.954328	0.616055	0.616231
C69	C	1.287661	0.949389	0.949565
C70	C	0.691681	0.282718	0.282892
C71	C	1.025015	0.616051	0.616226
C72	C	1.358348	0.949384	0.949559
C73	C	0.335921	0.282737	0.282920
C74	C	0.669254	0.616070	0.616254
C75	C	1.002588	0.949404	0.949587
C76	C	0.265229	0.282746	0.282928
C77	C	0.598562	0.616079	0.616261
C78	C	0.931896	0.949412	0.949594
C79	C	0.265235	0.369432	0.369340
C80	C	0.598569	0.702765	0.702673
C81	C	0.931902	1.036099	1.036006
C82	C	0.335922	0.369428	0.369334
C83	C	0.669256	0.702761	0.702667
C84	C	1.002589	1.036094	1.036001
C85	C	0.371262	0.326076	0.326126
C86	C	0.704595	0.659409	0.659460
C87	C	1.037928	0.992742	0.992793
C88	C	0.447910	0.326074	0.326117
C89	C	0.781243	0.659407	0.659451
C90	C	1.114577	0.992741	0.992784
C91	C	0.509002	0.326076	0.326114
C92	C	0.842335	0.659410	0.659447
C93	C	1.175669	0.992743	0.992780
C94	C	0.978036	0.501925	0.326076
C95	C	1.311370	0.835258	0.659409
C96	C	1.644703	1.168591	0.992742
C97	C	0.978066	0.577157	0.326084
C98	C	1.311399	0.910490	0.659418
C99	C	1.644732	1.243823	0.992751
C100	C	0.978151	0.326026	0.502651
C101	C	1.311484	0.659359	0.835985
C102	C	1.644817	0.992693	1.169318
C103	C	0.978167	0.326008	0.577883
C104	C	1.311500	0.659341	0.911217
C105	C	1.644833	0.992675	1.244550
C106	C	1.154655	0.326082	0.326131
C107	C	1.487989	0.659416	0.659464
C108	C	1.821322	0.992749	0.992798
C109	C	1.229887	0.326088	0.326140
C110	C	1.563221	0.659421	0.659474
C111	C	1.896554	0.992755	0.992807
C112	C	0.978207	0.149526	0.326156
C113	C	1.311541	0.482859	0.659490
C114	C	1.644874	0.816193	0.992823
C115	C	0.978248	0.074294	0.326177
C116	C	1.311581	0.407627	0.659510
C117	C	1.644915	0.740961	0.992843
C118	C	1.021389	0.612492	0.282845
C119	C	1.354722	0.945826	0.616178
C120	C	1.688056	1.279159	0.949511
C121	C	1.021418	0.683181	0.282860
C122	C	1.354751	1.016514	0.616193
C123	C	1.688084	1.349847	0.949526
C124	C	0.978119	0.718532	0.326111
C125	C	1.311453	1.051866	0.659445
C126	C	1.644786	1.385199	0.992778
C127	C	0.934794	0.683192	0.369356
C128	C	1.268128	1.016525	0.702689
C129	C	1.601461	1.349859	1.036023
C130	C	0.934769	0.612505	0.369344
C131	C	1.268103	0.945838	0.702677
C132	C	1.601436	1.279171	1.036010
C133	C	0.934894	0.968265	0.369406
C134	C	1.268227	1.301598	0.702739
C135	C	1.601561	1.634932	1.036073
C136	C	0.934921	1.038957	0.369413
C137	C	1.268254	1.372291	0.702747
C138	C	1.601588	1.705624	1.036080
C139	C	1.021542	1.038941	0.282922
C140	C	1.354876	1.372274	0.616255
C141	C	1.688209	1.705608	0.949589
C142	C	1.021517	0.968254	0.282910
C143	C	1.354851	1.301587	0.616243
C144	C	1.688184	1.634921	0.949577
C145	C	0.978195	0.932920	0.326157
C146	C	1.311529	1.266253	0.659490
C147	C	1.644862	1.599586	0.992823
C148	C	0.978166	0.856271	0.326141
C149	C	1.311499	1.189605	0.659474
C150	C	1.644832	1.522938	0.992807
C151	C	0.978145	0.795179	0.326124
C152	C	1.311478	1.128513	0.659458
C153	C	1.644812	1.461846	0.992791
C154	C	0.978114	0.326062	0.150253
C155	C	1.311447	0.659396	0.483586
C156	C	1.644780	0.992729	0.816919
C157	C	0.978229	0.325890	0.075021
C158	C	1.311562	0.659223	0.408354
C159	C	1.644895	0.992557	0.741688
C160	C	1.021481	0.282719	0.613246
C161	C	1.354815	0.616052	0.946579
C162	C	1.688148	0.949385	1.279912
C163	C	1.021488	0.282699	0.683934
C164	C	1.354822	0.616032	1.017268
C165	C	1.688155	0.949366	1.350601
C166	C	0.978184	0.325973	0.719259
C167	C	1.311517	0.659306	1.052592
C168	C	1.644850	0.992639	1.385926
C169	C	0.934864	0.369264	0.683892
C170	C	1.268197	0.702597	1.017225
C171	C	1.601531	1.035930	1.350558
C172	C	0.934854	0.369279	0.613204
C173	C	1.268188	0.702613	0.946538
C174	C	1.601521	1.035946	1.279871
C175	C	0.934902	0.369201	0.968965
C176	C	1.268236	0.702534	1.302298
C177	C	1.601569	1.035867	1.635632
C178	C	0.934917	0.369183	1.039657
C179	C	1.268250	0.702516	1.372991
C180	C	1.601584	1.035850	1.706324
C181	C	1.021536	0.282620	1.039695
C182	C	1.354870	0.615954	1.373028
C183	C	1.688203	0.949287	1.706362
C184	C	1.021527	0.282636	0.969008
C185	C	1.354860	0.615969	1.302341
C186	C	1.688193	0.949303	1.635674
C187	C	0.978205	0.325924	0.933647
C188	C	1.311538	0.659258	1.266980
C189	C	1.644872	0.992591	1.600313
C190	C	0.978197	0.325944	0.856998
C191	C	1.311530	0.659277	1.190331
C192	C	1.644864	0.992611	1.523665
C193	C	0.978194	0.325957	0.795906
C194	C	1.311528	0.659290	1.129240
C195	C	1.644861	0.992623	1.462573
H196	H	0.364686	0.247442	0.247733
H197	H	0.698019	0.580775	0.581066
H198	H	1.031352	0.914109	0.914399
O199	O	0.888198	0.415850	1.077760
O200	O	1.221531	0.749184	1.411093
O201	O	1.554864	1.082517	1.744426
H202	H	0.899761	0.468979	1.064178
H203	H	1.233095	0.802312	1.397511
H204	H	1.566428	1.135646	1.730845
O205	O	0.888150	0.930158	0.416027
O206	O	1.221483	1.263491	0.749360
O207	O	1.554816	1.596825	1.082694
H208	H	0.858036	0.966618	0.446091
H209	H	1.191369	1.299951	0.779425
H210	H	1.524703	1.633285	1.112758
O211	O	0.888217	1.077090	0.416064
O212	O	1.221550	1.410424	0.749397
O213	O	1.554883	1.743757	1.082730
H214	H	0.918503	1.109256	0.450524
H215	H	1.251837	1.442589	0.783858
H216	H	1.585170	1.775923	1.117191
O217	O	0.888145	0.415853	0.930829
O218	O	1.221478	0.749187	1.264162
O219	O	1.554812	1.082520	1.597495
H220	H	0.858027	0.445931	0.967270
H221	H	1.191361	0.779264	1.300603
H222	H	1.524694	1.112598	1.633937
O223	O	1.068195	0.236049	0.575148
O224	O	1.401528	0.569382	0.908481
O225	O	1.734862	0.902716	1.241815
H226	H	1.037918	0.201621	0.542941
H227	H	1.371251	0.534954	0.876274
H228	H	1.704584	0.868287	1.209607
O229	O	1.068210	0.236013	0.722078
O230	O	1.401543	0.569346	1.055411
O231	O	1.734877	0.902680	1.388745
H232	H	1.098328	0.205932	0.685639
H233	H	1.431661	0.539266	1.018972
H234	H	1.764994	0.872599	1.352306
O235	O	0.888036	0.574396	0.415980
O236	O	1.221369	0.907729	0.749313
O237	O	1.554702	1.241063	1.082646
H238	H	0.918297	0.542148	0.450445
H239	H	1.251630	0.875481	0.783778
H240	H	1.584963	1.208815	1.117112
H241	H	1.056695	0.711948	0.247649
H242	H	1.390029	1.045281	0.580983
H243	H	1.723362	1.378614	0.914316
O244	O	0.227106	0.236002	0.236319
O245	O	0.560439	0.569336	0.569652
O246	O	0.893773	0.902669	0.902986
H247	H	0.172016	0.243300	0.243574
H248	H	0.505349	0.576633	0.576908
H249	H	0.838683	0.909967	0.910241
O250	O	0.582881	0.235971	0.236295
O251	O	0.916215	0.569305	0.569628
O252	O	1.249548	0.902638	0.902962
H253	H	0.596435	0.247511	0.183155
H254	H	0.929769	0.580844	0.516488
H255	H	1.263102	0.914177	0.849821
O256	O	1.068273	1.077056	0.236280
O257	O	1.401606	1.410389	0.569614
O258	O	1.734940	1.743722	0.902947
H259	H	1.098369	1.040597	0.206197
H260	H	1.431703	1.373930	0.539531
H261	H	1.765036	1.707263	0.872864
H262	H	0.720455	0.247418	0.247711
H263	H	1.053788	0.580751	0.581044
H264	H	1.387121	0.914085	0.914378
H265	H	0.899543	0.711981	0.404575
H266	H	1.232876	1.045314	0.737908
H267	H	1.566210	1.378648	1.071242
O268	O	0.888125	0.415963	0.575064
O269	O	1.221459	0.749296	0.908397
O270	O	1.554792	1.082629	1.241730
H271	H	0.899700	0.469086	0.588609
H272	H	1.233034	0.802419	0.921942
H273	H	1.566367	1.135753	1.255276
H274	H	0.364698	0.404723	0.404512
H275	H	0.698032	0.738056	0.737845
H276	H	1.031365	1.071390	1.071179
H277	H	1.056644	0.583713	0.247621
H278	H	1.389978	0.917047	0.580955
H279	H	1.723311	1.250380	0.914288
O280	O	1.068234	0.235964	0.930905
O281	O	1.401567	0.569297	1.264239
O282	O	1.734901	0.902630	1.597572
H283	H	1.098352	0.205854	0.967372
H284	H	1.431685	0.539187	1.300705
H285	H	1.765018	0.872520	1.634038
O286	O	0.582946	0.416291	0.415844
O287	O	0.916279	0.749624	0.749177
O288	O	1.249613	1.082958	1.082510
H289	H	0.596532	0.404853	0.469010
H290	H	0.929865	0.738186	0.802343
H291	H	1.263198	1.071520	1.135676
O292	O	1.068246	0.235908	1.077833
O293	O	1.401579	0.569241	1.411166
O294	O	1.734912	0.902575	1.744500
H295	H	1.060970	0.243154	1.132921
H296	H	1.394303	0.576487	1.466254
H297	H	1.727636	0.909820	1.799588
H298	H	0.899602	0.404495	0.712659
H299	H	1.232935	0.737829	1.045992
H300	H	1.566269	1.071162	1.379325
H301	H	0.236454	0.404729	0.404524
H302	H	0.569787	0.738062	0.737857
H303	H	0.903120	1.071395	1.071191
H304	H	0.720458	0.404707	0.404481
H305	H	1.053792	0.738041	0.737814
H306	H	1.387125	1.071374	1.071148
O307	O	1.068221	0.930122	0.236265
O308	O	1.401554	1.263456	0.569598
O309	O	1.734888	1.596789	0.902931
H310	H	1.098358	0.966570	0.206205
H311	H	1.431691	1.299903	0.539538
H312	H	1.765025	1.633237	0.872871
