data_functionalizedCrystal
_audit_creation_method	'MofGen! by Chris Wilmer'
_symmetry_space_group_name_H-M	'P1'
_symmetry_Int_Tables_number	1
_symmetry_cell_setting	triclinic
loop_
_symmetry_equiv_pos_as_xyz
  x,y,z
_cell_length_a	12.759401
_cell_length_b	18.050589
_cell_length_c	12.759393
_cell_angle_alpha	89.969379
_cell_angle_beta	89.981504
_cell_angle_gamma	90.028382
loop_
_atom_site_label
_atom_site_type_symbol
_atom_site_fract_x
_atom_site_fract_y
_atom_site_fract_z
Zn1	Zn	1.606157	-0.295612	-0.593988
Zn2	Zn	1.606010	-0.419823	-0.418311
Zn3	Zn	1.430459	-0.295651	-0.418328
Zn4	Zn	1.430406	-0.419766	-0.593953
O5	O	1.518258	-0.357713	-0.506145
O6	O	1.753158	-0.312097	-0.570692
O7	O	1.582683	-0.403391	-0.271292
O8	O	1.453849	-0.191722	-0.441651
O9	O	1.753050	-0.403354	-0.441623
O10	O	1.582934	-0.191693	-0.570708
O11	O	1.453706	-0.312163	-0.271304
O12	O	1.283431	-0.312108	-0.441617
O13	O	1.453759	-0.403256	-0.740979
O14	O	1.283392	-0.403294	-0.570648
O15	O	1.582882	-0.312041	-0.741005
O16	O	1.582632	-0.523740	-0.441589
O17	O	1.453616	-0.523698	-0.570632
C18	C	1.245290	-0.357699	-0.506131
C19	C	1.128514	-0.357711	-0.506149
C20	C	1.073659	-0.405268	-0.573225
C21	C	0.963935	-0.405277	-0.573236
C22	C	0.963930	-0.310171	-0.439088
C23	C	1.073652	-0.310159	-0.439083
C24	C	1.128521	-0.452820	-0.640292
C25	C	1.073666	-0.500382	-0.707372
C26	C	0.963942	-0.500391	-0.707383
C27	C	0.909072	-0.452839	-0.640314
C28	C	1.518131	-0.550665	-0.506127
C29	C	1.518173	-0.633211	-0.506155
C30	C	1.448083	-0.832666	-0.576304
C31	C	1.422469	-0.882114	-0.480436
C32	C	1.518276	-0.784341	-0.506169
C33	C	1.543942	-0.881974	-0.602048
C34	C	1.518374	-0.930326	-0.506191
C35	C	1.492611	-0.832703	-0.410250
C36	C	1.614129	-0.832558	-0.531927
C37	C	1.588551	-0.881985	-0.435992
C38	C	1.518217	-0.700243	-0.506158
C39	C	1.518433	-1.014423	-0.506191
C40	C	1.792291	-0.357727	-0.506160
C41	C	1.909068	-0.357733	-0.506166
C42	C	1.518331	-0.357638	-0.780178
C43	C	1.518363	-0.357606	-0.896955
C44	C	1.518414	-0.164007	-0.506185
C45	C	1.518480	-0.081462	-0.506203
C46	C	1.585606	-0.310106	-0.951832
C47	C	1.585631	-0.310079	-1.061557
C48	C	1.451166	-0.405059	-1.061516
C49	C	1.451136	-0.405081	-0.951794
C50	C	1.652833	-0.262631	-0.896993
C51	C	1.720083	-0.215128	-0.951871
C52	C	1.720108	-0.215101	-1.061595
C53	C	1.652883	-0.262577	-1.116442
C54	C	1.518245	-0.357734	-0.233178
C55	C	1.518417	-0.357557	-0.116401
H56	H	1.388636	-0.811010	-0.635531
C57	C	1.309765	-0.415431	-0.828402
C58	C	1.377223	-0.457303	-0.891479
H59	H	1.264127	-0.447673	-0.791176
H60	H	1.349785	-0.387168	-0.780035
H61	H	1.269619	-0.383064	-0.871224
H62	H	1.417374	-0.489666	-0.848656
H63	H	1.337198	-0.485579	-0.939851
C64	C	1.285583	-0.885559	-0.351348
C65	C	1.313102	-0.911504	-0.451025
H66	H	1.218061	-0.903698	-0.333201
H67	H	1.335410	-0.902443	-0.301481
H68	H	1.284600	-0.832937	-0.351769
H69	H	1.314093	-0.964125	-0.450602
H70	H	1.263262	-0.894624	-0.500905
H71	H	1.695124	-0.810777	-0.553739
H72	H	1.647952	-0.903503	-0.376622
C73	C	1.752844	-0.281484	-1.273622
C74	C	1.652907	-0.262553	-1.237053
H75	H	1.752858	-0.281476	-1.348081
H76	H	1.802487	-0.246408	-1.248823
H77	H	1.770955	-0.329415	-1.248775
H78	H	1.634800	-0.214620	-1.261894
H79	H	1.603249	-0.297631	-1.261863
C80	C	1.898009	-0.178967	-0.918117
C81	C	1.793969	-0.162940	-0.891589
H82	H	1.943621	-0.146743	-0.880906
H83	H	1.913332	-0.228864	-0.900116
H84	H	1.907634	-0.172152	-0.991319
H85	H	1.784343	-0.169761	-0.818387
H86	H	1.778641	-0.113031	-0.909582
C87	C	1.318249	-0.498944	-1.050460
C88	C	1.377282	-0.457247	-1.121801
H89	H	1.272634	-0.531161	-1.087679
H90	H	1.363988	-0.527362	-1.007659
H91	H	1.278077	-0.466586	-1.007673
H92	H	1.417460	-0.489605	-1.164583
H93	H	1.331537	-0.428828	-1.164620
H94	H	1.565611	-0.903618	-0.683124
H95	H	1.217863	-0.452820	-0.640288
C96	C	1.726005	-0.210956	-0.739835
C97	C	1.652803	-0.262657	-0.776384
H98	H	1.725981	-0.210971	-0.665377
H99	H	1.793788	-0.223804	-0.764655
H100	H	1.707880	-0.163026	-0.764675
H101	H	1.670933	-0.310588	-0.751550
H102	H	1.585006	-0.249812	-0.751553
H103	H	0.919282	-0.539112	-0.762010
C104	C	1.107509	-0.536700	-0.885183
C105	C	1.133975	-0.552644	-0.781096
H106	H	1.144746	-0.568962	-0.930698
H107	H	1.034321	-0.543515	-0.894782
H108	H	1.125528	-0.486811	-0.900663
H109	H	1.115948	-0.602531	-0.765613
H110	H	1.207179	-0.545835	-0.771492
H111	H	0.819728	-0.452844	-0.640338
C112	C	1.536328	-0.829090	-0.227303
C113	C	1.463228	-0.803612	-0.300770
H114	H	1.518187	-0.811124	-0.159720
H115	H	1.536206	-0.881708	-0.226643
H116	H	1.604165	-0.811704	-0.245716
H117	H	1.395392	-0.821002	-0.282361
H118	H	1.463340	-0.750982	-0.301426
C119	C	1.734815	-0.115166	-1.185003
C120	C	1.794019	-0.162879	-1.121913
H121	H	1.780449	-0.082924	-1.222232
H122	H	1.694801	-0.143436	-1.233368
H123	H	1.689055	-0.086772	-1.142190
H124	H	1.839773	-0.191278	-1.164728
H125	H	1.834051	-0.134606	-1.073543
C126	C	0.974941	-0.216162	-0.306488
C127	C	0.903621	-0.257909	-0.365363
H128	H	0.937708	-0.183895	-0.260976
H129	H	1.017705	-0.248479	-0.266222
H130	H	1.017768	-0.187788	-0.352340
H131	H	0.860799	-0.286287	-0.319511
H132	H	0.860839	-0.225587	-0.405632
C133	C	1.197012	-0.299719	-0.297792
C134	C	1.133965	-0.257890	-0.365352
H135	H	1.234252	-0.267447	-0.252281
H136	H	1.154176	-0.332036	-0.257526
H137	H	1.245377	-0.328033	-0.337753
H138	H	1.085594	-0.229580	-0.325391
H139	H	1.176804	-0.225559	-0.405622
