data_functionalizedCrystal
_audit_creation_method	'MofGen! by Chris Wilmer'
_symmetry_space_group_name_H-M	'P1'
_symmetry_Int_Tables_number	1
_symmetry_cell_setting	triclinic
loop_
_symmetry_equiv_pos_as_xyz
  x,y,z
_cell_length_a	13.339070
_cell_length_b	19.188930
_cell_length_c	11.804365
_cell_angle_alpha	101.784974
_cell_angle_beta	74.875130
_cell_angle_gamma	99.387037
loop_
_atom_site_label
_atom_site_type_symbol
_atom_site_fract_x
_atom_site_fract_y
_atom_site_fract_z
O1	O	1.361237	0.339586	-0.099122
O2	O	1.066910	0.293684	-0.099108
O3	O	1.222562	0.216645	-0.099092
O4	O	1.205585	0.416625	-0.099138
O5	O	1.181585	0.236898	0.098959
O6	O	1.025933	0.313937	0.098944
O7	O	1.320260	0.359839	0.098929
Cu8	Cu	1.169355	0.338737	0.117020
Cu9	Cu	1.217815	0.314786	-0.117199
O10	O	1.164608	0.436878	0.098914
C11	C	1.008766	0.296057	-0.000080
C12	C	0.896565	0.272945	-0.000074
C13	C	0.530990	0.452652	-0.000134
C14	C	0.636408	0.474369	-0.000143
C15	C	0.701453	0.424015	-0.000126
C16	C	0.661068	0.351940	-0.000099
C17	C	0.555641	0.330220	-0.000098
C18	C	0.726104	0.301582	-0.000090
C19	C	0.685720	0.229508	-0.000064
C20	C	0.580303	0.207791	-0.000062
C21	C	0.515258	0.258146	-0.000080
C22	C	0.831531	0.323302	-0.000091
C23	C	0.856183	0.200870	-0.000056
C24	C	0.750764	0.179154	-0.000046
C25	C	1.201523	0.200653	-0.000063
C26	C	1.199870	0.122826	-0.000053
C27	C	1.291203	0.095789	-0.000051
C28	C	1.289655	0.022659	-0.000070
C29	C	1.196765	-0.023428	-0.000067
C30	C	1.105421	0.003617	-0.000075
C31	C	1.106973	0.076744	-0.000068
N32	N	1.111815	-0.138445	0.067337
N33	N	1.110346	-0.207912	0.067333
C34	C	1.192082	-0.243757	-0.000091
N35	N	1.275355	-0.207508	-0.067495
N36	N	1.276826	-0.138034	-0.067486
C37	C	1.195071	-0.102723	-0.000075
C38	C	1.281744	-0.350090	-0.000112
C39	C	1.280194	-0.423222	-0.000138
C40	C	1.095954	-0.442262	-0.000131
C41	C	1.097509	-0.369132	-0.000116
C42	C	1.190405	-0.323050	-0.000101
C43	C	1.378404	0.357466	-0.000101
C44	C	1.490607	0.380578	-0.000115
C45	C	1.185648	0.452870	-0.000118
C46	C	1.187303	0.530696	-0.000136
N47	N	1.135278	0.355585	0.281757
N48	N	1.251900	0.297935	-0.281936
C49	C	1.333731	0.257465	0.655726
C50	C	1.359509	0.244717	0.531067
C51	C	1.303453	0.272433	0.468734
C52	C	1.221616	0.312899	0.531071
C53	C	1.195840	0.325653	0.655743
C54	C	1.165562	0.340620	0.468750
C55	C	1.083725	0.381087	0.531088
C56	C	1.057953	0.393838	0.655747
C57	C	1.114009	0.366123	0.718080
C58	C	1.191338	0.327866	0.344079
C59	C	1.053447	0.396054	0.344095
C60	C	1.027669	0.408802	0.468754
H61	H	0.717870	0.120468	-0.000034
O62	O	1.369003	-0.449365	-0.000085
C63	C	1.451328	-0.393010	-0.000098
H64	H	1.417668	-0.339845	0.037405
H65	H	1.503402	-0.401609	0.057403
H66	H	1.499484	-0.392007	-0.095110
O67	O	0.467738	0.501476	-0.000313
C68	C	0.427273	0.482090	-0.102904
H69	H	0.429270	0.422191	-0.137084
H70	H	0.343146	0.495078	-0.079847
H71	H	0.476679	0.513324	-0.174738
H72	H	1.023134	-0.347118	-0.000110
H73	H	1.379370	0.234907	0.706486
H74	H	0.429417	0.240467	-0.000072
O75	O	0.803839	0.445038	0.000030
C76	C	0.824585	0.429226	0.102632
H77	H	0.763953	0.384466	0.136842
H78	H	0.905947	0.411303	0.079576
H79	H	0.820633	0.479124	0.174441
O80	O	1.328593	0.259953	0.347641
C81	C	1.412860	0.218307	0.305986
H82	H	1.415829	0.187528	0.377836
H83	H	1.401743	0.178830	0.222602
H84	H	1.489146	0.254888	0.283834
O85	O	0.948109	0.448023	0.529448
C86	C	0.871005	0.405928	0.601563
H87	H	0.907650	0.361065	0.620232
H88	H	0.836764	0.440905	0.689229
H89	H	0.806254	0.381776	0.553544
H90	H	1.364033	0.000640	-0.000074
O91	O	0.541228	0.137742	-0.000204
C92	C	0.595700	0.095321	-0.102780
H93	H	0.675813	0.124999	-0.136982
H94	H	0.605812	0.042423	-0.079694
H95	H	0.549522	0.084236	-0.174608
H96	H	1.020322	-0.479786	-0.000134
H97	H	0.909143	0.159867	-0.000046
H98	H	0.669283	0.533051	-0.000174
H99	H	1.257970	0.294919	0.293334
O100	O	0.999152	0.423024	0.283429
C101	C	1.067997	0.469203	0.211314
H102	H	1.151073	0.454859	0.192624
H103	H	1.043885	0.463083	0.123658
H104	H	1.064703	0.527007	0.259342
H105	H	1.029789	-0.033912	-0.000075
O106	O	1.438997	0.205367	0.470701
C107	C	1.482962	0.183653	0.552445
H108	H	1.423153	0.183911	0.641321
H109	H	1.506080	0.127253	0.516436
H110	H	1.555204	0.222235	0.565678
O111	O	1.381512	0.140499	-0.000258
C112	C	1.458403	0.117929	-0.102816
H113	H	1.418912	0.084934	-0.174511
H114	H	1.508339	0.166820	-0.137243
H115	H	1.510134	0.083784	-0.079628
H116	H	1.032596	0.098756	-0.000069
O117	O	1.088800	0.378547	0.839178
C118	C	1.004572	0.420226	0.880837
H119	H	0.959163	0.413362	0.809007
H120	H	0.950588	0.401953	0.964248
H121	H	1.035853	0.479063	0.902944
H122	H	0.991324	0.426795	0.706502
O123	O	1.371950	-0.305267	-0.000271
C124	C	1.399589	-0.272886	-0.102852
H125	H	1.326915	-0.273691	-0.137039
H126	H	1.434891	-0.215076	-0.079777
H127	H	1.459310	-0.303704	-0.174686
H128	H	0.864400	0.381986	-0.000108
