data_functionalizedCrystal
_audit_creation_method	'MofGen! by Chris Wilmer'
_symmetry_space_group_name_H-M	'P1'
_symmetry_Int_Tables_number	1
_symmetry_cell_setting	triclinic
loop_
_symmetry_equiv_pos_as_xyz
  x,y,z
_cell_length_a	14.519731
_cell_length_b	14.519731
_cell_length_c	16.776229
_cell_angle_alpha	89.992369
_cell_angle_beta	89.992771
_cell_angle_gamma	83.688853
loop_
_atom_site_label
_atom_site_type_symbol
_atom_site_fract_x
_atom_site_fract_y
_atom_site_fract_z
O1	O	1.223868	0.120986	-0.066292
O2	O	1.557201	0.454319	0.267042
O3	O	1.890535	0.787652	0.600375
O4	O	0.955395	0.135202	-0.066293
O5	O	1.288728	0.468535	0.267040
O6	O	1.622061	0.801868	0.600373
O7	O	1.096739	-0.006143	-0.066285
O8	O	1.430073	0.327190	0.267048
O9	O	1.763406	0.660524	0.600382
O10	O	1.082523	0.262330	-0.066300
O11	O	1.415857	0.595664	0.267034
O12	O	1.749190	0.928997	0.600367
O13	O	1.096720	-0.006152	0.066291
O14	O	1.430054	0.327182	0.399625
O15	O	1.763387	0.660515	0.732958
O16	O	0.955376	0.135193	0.066283
O17	O	1.288709	0.468526	0.399617
O18	O	1.622043	0.801860	0.732950
O19	O	1.223849	0.120977	0.066285
O20	O	1.557182	0.454310	0.399618
O21	O	1.890516	0.787644	0.732951
Zn22	Zn	1.089610	0.128084	0.087333
Zn23	Zn	1.422943	0.461417	0.420667
Zn24	Zn	1.756276	0.794750	0.754000
Zn25	Zn	1.089634	0.128095	-0.087342
Zn26	Zn	1.422968	0.461428	0.245992
Zn27	Zn	1.756301	0.794762	0.579325
O28	O	1.082505	0.262322	0.066277
O29	O	1.415838	0.595655	0.399610
O30	O	1.749171	0.928988	0.732943
C31	C	0.921026	0.134531	-0.000005
C32	C	1.254359	0.467864	0.333328
C33	C	1.587693	0.801198	0.666662
C34	C	0.818645	0.132535	-0.000005
C35	C	1.151979	0.465868	0.333328
C36	C	1.485312	0.799202	0.666661
C37	C	0.735501	0.130913	-0.000008
C38	C	1.068835	0.464247	0.333325
C39	C	1.402168	0.797580	0.666658
C40	C	0.631192	0.128887	-0.000009
C41	C	0.964526	0.462220	0.333325
C42	C	1.297859	0.795553	0.666658
C43	C	0.548053	0.127278	-0.000009
C44	C	0.881386	0.460612	0.333325
C45	C	1.214720	0.793945	0.666658
C46	C	0.443738	0.125252	-0.000010
C47	C	0.777071	0.458585	0.333323
C48	C	1.110404	0.791919	0.666656
C49	C	1.096064	-0.040507	0.000003
C50	C	1.429397	0.292827	0.333337
C51	C	1.762730	0.626160	0.666670
C52	C	1.094068	-0.142887	0.000004
C53	C	1.427401	0.190446	0.333337
C54	C	1.760734	0.523780	0.666670
C55	C	1.092446	-0.226031	0.000002
C56	C	1.425779	0.107302	0.333335
C57	C	1.759113	0.440635	0.666669
C58	C	1.090419	-0.330340	-0.000004
C59	C	1.423753	0.002993	0.333329
C60	C	1.757086	0.336326	0.666662
C61	C	1.088811	-0.413479	-0.000009
C62	C	1.422144	-0.080146	0.333324
C63	C	1.755478	0.253187	0.666657
C64	C	1.086785	-0.517795	-0.000014
C65	C	1.420118	-0.184462	0.333319
C66	C	1.753451	0.148872	0.666653
C67	C	1.258218	0.121648	-0.000005
C68	C	1.591551	0.454981	0.333328
C69	C	1.924885	0.788314	0.666662
C70	C	1.360598	0.123644	-0.000010
C71	C	1.693932	0.456977	0.333323
C72	C	2.027265	0.790310	0.666657
C73	C	1.083180	0.296685	-0.000013
C74	C	1.416513	0.630019	0.333320
C75	C	1.749847	0.963352	0.666653
C76	C	1.085176	0.399066	-0.000019
C77	C	1.418509	0.732399	0.333314
C78	C	1.751843	1.065732	0.666648
N79	N	1.089599	0.128075	0.206545
N80	N	1.422933	0.461408	0.539878
N81	N	1.756266	0.794742	0.873211
N82	N	1.089652	0.128096	-0.206553
N83	N	1.422985	0.461430	0.126780
N84	N	1.756318	0.794763	0.460114
C85	C	1.152206	0.065514	0.248265
C86	C	1.485539	0.398847	0.581599
C87	C	1.818873	0.732180	0.914932
C88	C	1.152211	0.065513	0.331717
C89	C	1.485544	0.398846	0.665051
C90	C	1.818878	0.732179	0.998384
C91	C	1.089613	0.128079	0.373448
C92	C	1.422947	0.461412	0.706781
C93	C	1.756280	0.794745	1.040114
C94	C	1.027000	0.190643	0.331721
C95	C	1.360333	0.523977	0.665054
C96	C	1.693667	0.857310	0.998388
C97	C	1.026991	0.190639	0.248270
C98	C	1.360325	0.523972	0.581604
C99	C	1.693658	0.857306	0.914937
C100	C	1.027033	0.190662	0.668268
C101	C	1.360367	0.523995	1.001602
C102	C	1.693700	0.857328	1.334935
C103	C	1.027049	0.190663	0.751725
C104	C	1.360382	0.523996	1.085058
C105	C	1.693716	0.857330	1.418391
C106	C	1.152253	0.065535	0.751715
C107	C	1.485587	0.398869	1.085049
C108	C	1.818920	0.732202	1.418382
C109	C	1.152244	0.065531	0.668265
C110	C	1.485578	0.398864	1.001598
C111	C	1.818911	0.732198	1.334931
C112	C	1.089628	0.128092	0.626545
C113	C	1.422962	0.461425	0.959879
C114	C	1.756295	0.794759	1.293212
C115	C	1.089622	0.128091	0.536057
C116	C	1.422956	0.461424	0.869390
C117	C	1.756289	0.794757	1.202724
C118	C	1.089623	0.128085	0.463934
C119	C	1.422956	0.461418	0.797268
C120	C	1.756290	0.794752	1.130601
H121	H	1.203184	0.014569	0.214294
H122	H	1.536517	0.347902	0.547627
H123	H	1.869851	0.681236	0.880961
H124	H	0.976010	0.241582	0.214302
H125	H	1.309343	0.574915	0.547636
H126	H	1.642676	0.908248	0.880969
H127	H	1.203189	0.014570	0.365686
H128	H	1.536523	0.347903	0.699019
H129	H	1.869856	0.681237	1.032353
C130	C	1.311811	0.011742	0.777387
C131	C	1.645144	0.345076	1.110720
C132	C	1.978477	0.678409	1.444053
C133	C	1.221075	-0.003246	0.797574
C134	C	1.554408	0.330087	1.130907
C135	C	1.887742	0.663421	1.464241
H136	H	1.354296	-0.030716	0.805700
H137	H	1.687629	0.302617	1.139034
H138	H	2.020963	0.635951	1.472367
H139	H	1.320757	0.002790	0.721721
H140	H	1.654090	0.336123	1.055054
H141	H	1.987423	0.669456	1.388388
H142	H	1.321919	0.073317	0.791062
H143	H	1.655252	0.406650	1.124395
H144	H	1.988586	0.739983	1.457728
H145	H	1.210965	-0.064818	0.783894
H146	H	1.544298	0.268515	1.117227
H147	H	1.877631	0.601848	1.450560
H148	H	1.212125	0.005699	0.853252
H149	H	1.545459	0.339033	1.186586
H150	H	1.878792	0.672366	1.519919
H151	H	1.203220	0.014587	0.634291
H152	H	1.536554	0.347920	0.967624
H153	H	1.869887	0.681254	1.300957
C154	C	0.903260	0.314339	0.743356
C155	C	1.236593	0.647672	1.076690
C156	C	1.569926	0.981005	1.410023
C157	C	0.958228	0.259432	0.797596
C158	C	1.291561	0.592765	1.130930
C159	C	1.624894	0.926099	1.464263
H160	H	0.860772	0.356786	0.771678
H161	H	1.194105	0.690120	1.105011
H162	H	1.527439	1.023453	1.438344
H163	H	0.941689	0.347607	0.710796
H164	H	1.275022	0.680941	1.044130
H165	H	1.608355	1.014274	1.377463
H166	H	0.870028	0.275857	0.710819
H167	H	1.203361	0.609191	1.044152
H168	H	1.536694	0.942524	1.377485
H169	H	0.991465	0.297913	0.830131
H170	H	1.324798	0.631246	1.163464
H171	H	1.658132	0.964580	1.496797
H172	H	0.919794	0.226161	0.830170
H173	H	1.253127	0.559495	1.163504
H174	H	1.586460	0.892828	1.496837
H175	H	0.976051	0.241602	0.634307
H176	H	1.309384	0.574936	0.967640
H177	H	1.642718	0.908269	1.300974
H178	H	0.976027	0.241583	0.365702
H179	H	1.309361	0.574916	0.699036
H180	H	1.642694	0.908249	1.032369
