data_functionalizedCrystal
_audit_creation_method	'MofGen! by Chris Wilmer'
_symmetry_space_group_name_H-M	'P1'
_symmetry_Int_Tables_number	1
_symmetry_cell_setting	triclinic
loop_
_symmetry_equiv_pos_as_xyz
  x,y,z
_cell_length_a	21.295419
_cell_length_b	21.295417
_cell_length_c	11.169409
_cell_angle_alpha	90.040352
_cell_angle_beta	90.023164
_cell_angle_gamma	90.044503
loop_
_atom_site_label
_atom_site_type_symbol
_atom_site_fract_x
_atom_site_fract_y
_atom_site_fract_z
Zn1	Zn	0.962351	-0.250310	0.678583
Zn2	Zn	0.962257	-0.355598	0.477872
Zn3	Zn	0.857076	-0.250374	0.477906
Zn4	Zn	0.857045	-0.355572	0.678505
O5	O	0.909682	-0.302963	0.578216
O6	O	1.050428	-0.264260	0.651977
O7	O	0.948279	-0.341677	0.309927
O8	O	0.871094	-0.162276	0.504573
O9	O	1.050359	-0.341615	0.504515
O10	O	0.948438	-0.162229	0.652010
O11	O	0.871003	-0.264369	0.309951
O12	O	0.768983	-0.264344	0.504497
O13	O	0.871040	-0.341571	0.846465
O14	O	0.768959	-0.341633	0.651877
O15	O	0.948407	-0.264235	0.846523
O16	O	0.948248	-0.443684	0.504440
O17	O	0.870949	-0.443665	0.651844
C18	C	0.746131	-0.302993	0.578183
C19	C	0.676162	-0.303022	0.578197
C20	C	0.643354	-0.262809	0.655099
C21	C	0.577612	-0.262792	0.655103
C22	C	0.544680	-0.302999	0.578219
C23	C	0.577496	-0.343215	0.501302
C24	C	0.643237	-0.343226	0.501291
N25	N	0.441405	-0.358078	0.568841
N26	N	0.378954	-0.358065	0.568858
C27	C	0.346605	-0.302966	0.578245
N28	N	0.379067	-0.247879	0.587638
N29	N	0.441524	-0.247892	0.587627
C30	C	0.473395	-0.302991	0.578222
C31	C	0.242511	-0.262732	0.655156
C32	C	0.176768	-0.262714	0.655153
C33	C	0.176654	-0.343142	0.501357
C34	C	0.242396	-0.343155	0.501355
C35	C	0.275321	-0.302950	0.578261
C36	C	0.909602	-0.466515	0.578156
C37	C	0.909625	-0.536483	0.578170
C38	C	0.949875	-0.569268	0.654995
C39	C	0.949898	-0.635011	0.655025
C40	C	0.909676	-0.667965	0.578208
C41	C	0.869418	-0.635173	0.501377
C42	C	0.869393	-0.569431	0.501358
N43	N	0.904918	-0.771238	0.473172
N44	N	0.904946	-0.833689	0.473193
C45	C	0.909750	-0.866040	0.578262
N46	N	0.914537	-0.833580	0.683311
N47	N	0.914512	-0.771123	0.683288
C48	C	0.909699	-0.739251	0.578220
C49	C	0.950026	-0.970111	0.655126
C50	C	0.950044	-1.035854	0.655157
C51	C	0.869568	-1.036015	0.501499
C52	C	0.869547	-0.970273	0.501478
C53	C	0.909779	-0.937324	0.578290
C54	C	1.073872	-0.302933	0.578251
C55	C	1.143841	-0.302921	0.578266
C56	C	0.909730	-0.302893	0.891259
C57	C	0.909751	-0.302864	1.024659
C58	C	0.909780	-0.138773	0.578304
C59	C	0.909821	-0.068805	0.578341
C60	C	0.909670	-0.302987	0.266392
C61	C	0.909772	-0.302840	0.132992
H62	H	0.550894	-0.230043	0.717724
H63	H	0.836668	-0.662009	0.438835
H64	H	0.149841	-0.375880	0.438756
H65	H	0.550679	-0.375951	0.438701
H66	H	0.669950	-0.375973	0.438666
H67	H	0.670157	-0.230071	0.717721
H68	H	0.269320	-0.229991	0.717770
H69	H	0.982669	-0.661709	0.717599
H70	H	0.150056	-0.229964	0.717773
H71	H	0.836815	-1.062846	0.438961
H72	H	0.836615	-0.542737	0.438797
H73	H	0.269109	-0.375903	0.438738
H74	H	0.982784	-0.943283	0.717674
H75	H	0.982820	-1.062547	0.717723
H76	H	0.982634	-0.542443	0.717543
H77	H	0.836774	-0.943577	0.438915
