data_functionalizedCrystal
_audit_creation_method	'MofGen! by Chris Wilmer'
_symmetry_space_group_name_H-M	'P1'
_symmetry_Int_Tables_number	1
_symmetry_cell_setting	triclinic
loop_
_symmetry_equiv_pos_as_xyz
  x,y,z
_cell_length_a	12.759401
_cell_length_b	17.637651
_cell_length_c	12.759393
_cell_angle_alpha	78.749835
_cell_angle_beta	89.980535
_cell_angle_gamma	101.218871
loop_
_atom_site_label
_atom_site_type_symbol
_atom_site_fract_x
_atom_site_fract_y
_atom_site_fract_z
Zn1	Zn	1.521688	-0.314729	-0.509333
Zn2	Zn	1.486050	-0.446968	-0.298076
Zn3	Zn	1.345979	-0.314770	-0.333659
Zn4	Zn	1.310462	-0.446906	-0.473731
O5	O	1.416045	-0.380843	-0.403700
O6	O	1.663979	-0.332280	-0.481317
O7	O	1.467418	-0.429474	-0.155763
O8	O	1.399065	-0.204123	-0.386754
O9	O	1.637796	-0.429435	-0.326107
O10	O	1.528158	-0.204093	-0.515821
O11	O	1.364509	-0.332349	-0.181906
O12	O	1.194249	-0.332289	-0.352232
O13	O	1.338533	-0.429330	-0.625486
O14	O	1.168155	-0.429369	-0.455142
O15	O	1.493719	-0.332220	-0.651643
O16	O	1.432979	-0.557601	-0.291585
O17	O	1.303976	-0.557556	-0.420638
C18	C	1.143082	-0.380827	-0.403685
C19	C	1.026302	-0.380839	-0.403699
C20	C	0.848099	-0.431366	-0.322826
C21	C	0.957828	-0.431350	-0.322812
C22	C	0.985044	-0.330334	-0.484599
C23	C	0.875319	-0.330347	-0.484607
C24	C	0.779629	-0.481887	-0.241940
C25	C	0.820879	-0.532390	-0.161038
C26	C	0.930607	-0.532375	-0.161025
C27	C	0.999085	-0.481855	-0.241912
C28	C	1.360785	-0.586267	-0.348410
C29	C	1.337241	-0.674148	-0.324792
C30	C	1.595590	-0.962806	-0.583453
C31	C	1.573433	-1.045383	-0.561242
C32	C	1.439099	-1.045522	-0.426715
C33	C	1.461248	-0.962942	-0.448911
C34	C	1.539494	-0.921591	-0.527282
C35	C	1.405152	-0.921727	-0.392739
C36	C	1.427295	-0.839155	-0.414938
C37	C	1.505535	-0.797798	-0.493308
C38	C	1.561638	-0.839019	-0.549480
C39	C	1.326901	-0.963080	-0.314374
C40	C	1.270804	-0.921865	-0.258203
C41	C	1.292953	-0.839292	-0.280395
C42	C	1.371193	-0.797935	-0.358765
C43	C	1.236851	-0.798071	-0.224223
C44	C	1.258995	-0.715499	-0.246421
C45	C	1.393337	-0.715363	-0.380964
C46	C	1.690073	-0.380860	-0.403715
C47	C	1.806848	-0.380867	-0.403721
C48	C	1.416140	-0.380763	-0.677755
C49	C	1.416180	-0.380729	-0.794540
C50	C	1.471549	-0.174618	-0.459228
C51	C	1.495201	-0.086737	-0.482891
C52	C	1.496996	-0.330160	-0.863025
C53	C	1.497029	-0.330131	-0.972757
C54	C	1.335425	-0.431249	-0.945508
C55	C	1.335389	-0.431273	-0.835779
C56	C	1.577788	-0.279616	-0.821787
C57	C	1.658611	-0.229043	-0.890273
C58	C	1.658643	-0.229015	-1.000005
C59	C	1.577853	-0.279559	-1.041250
C60	C	1.416026	-0.380866	-0.130726
C61	C	1.416249	-0.380677	-0.014001
H62	H	0.964191	-0.573492	-0.095145
C63	C	1.119784	-0.481838	-0.241896
H64	H	1.134546	-0.519152	-0.182135
H65	H	1.158320	-0.430798	-0.237576
H66	H	1.140942	-0.495573	-0.305969
C67	C	1.246526	-0.486929	-0.760434
H68	H	1.198432	-0.517044	-0.800703
H69	H	1.208860	-0.456716	-0.725746
H70	H	1.277474	-0.521383	-0.708373
C71	C	1.577752	-0.279643	-0.701087
H72	H	1.637437	-0.242295	-0.686334
H73	H	1.582171	-0.330673	-0.662521
H74	H	1.513627	-0.265961	-0.679947
C75	C	1.747471	-0.173447	-0.844906
H76	H	1.735884	-0.180711	-0.769745
H77	H	1.746404	-0.120318	-0.877195
H78	H	1.814952	-0.185027	-0.859779
C79	C	0.745564	-0.587956	-0.072065
H80	H	0.785852	-0.618023	-0.023878
H81	H	0.693510	-0.622447	-0.102901
H82	H	0.710881	-0.557672	-0.034506
H83	H	1.375388	-1.079201	-0.362908
C84	C	1.060364	-0.274776	-0.573574
H85	H	1.131619	-0.282008	-0.561988
H86	H	1.056665	-0.221640	-0.572623
H87	H	1.039282	-0.286420	-0.641010
H88	H	0.690280	-0.481907	-0.241943
H89	H	1.724447	-0.187830	-1.055765
H90	H	1.457061	-0.681693	-0.444774
H91	H	1.269648	-0.472399	-0.979099
H92	H	1.659314	-0.929136	-0.647263
H93	H	0.841733	-0.289223	-0.550476
H94	H	1.577876	-0.279523	-1.130605
H95	H	1.523564	-0.730563	-0.511380
H96	H	1.213314	-0.681942	-0.200681
H97	H	1.619105	-1.078938	-0.607005
C98	C	1.647713	-0.793523	-0.635680
H99	H	1.652868	-0.738444	-0.640847
H100	H	1.628688	-0.807023	-0.702630
H101	H	1.714694	-0.807027	-0.616723
C102	C	1.302537	-1.053908	-0.289952
H103	H	1.247894	-1.072632	-0.235244
H104	H	1.365339	-1.072567	-0.266825
H105	H	1.279327	-1.072559	-0.352726
H106	H	1.207094	-0.955545	-0.194395
H107	H	1.173136	-0.831752	-0.160420
