data_functionalizedCrystal
_audit_creation_method	'MofGen! by Chris Wilmer'
_symmetry_space_group_name_H-M	'P1'
_symmetry_Int_Tables_number	1
_symmetry_cell_setting	triclinic
loop_
_symmetry_equiv_pos_as_xyz
  x,y,z
_cell_length_a	16.992696
_cell_length_b	16.992694
_cell_length_c	15.455301
_cell_angle_alpha	87.178730
_cell_angle_beta	87.165327
_cell_angle_gamma	90.668339
loop_
_atom_site_label
_atom_site_type_symbol
_atom_site_fract_x
_atom_site_fract_y
_atom_site_fract_z
O1	O	-0.170181	-1.054116	0.072049
O2	O	0.329819	-0.554116	0.572049
O3	O	-0.168351	-0.825717	0.072074
O4	O	0.331649	-0.325717	0.572074
O5	O	-0.055065	-0.938999	0.072037
O6	O	0.444935	-0.438999	0.572037
O7	O	-0.283467	-0.940833	0.072085
O8	O	0.216533	-0.440833	0.572085
O9	O	-0.048524	-0.932451	-0.072226
O10	O	0.451476	-0.432451	0.427774
O11	O	-0.161810	-0.819169	-0.072189
O12	O	0.338190	-0.319169	0.427811
O13	O	-0.163640	-1.047568	-0.072214
O14	O	0.336360	-0.547568	0.427786
Cu15	Cu	-0.162128	-0.932771	-0.085374
Cu16	Cu	0.337872	-0.432771	0.414626
Cu17	Cu	-0.169863	-0.940514	0.085234
Cu18	Cu	0.330137	-0.440514	0.585234
O19	O	-0.276927	-0.934285	-0.072178
O20	O	0.223073	-0.434285	0.427822
C21	C	-0.022434	-0.933369	-0.000098
C22	C	0.477566	-0.433369	0.499902
C23	C	0.065051	-0.926340	-0.000110
C24	C	0.565051	-0.426340	0.499890
C25	C	-0.162725	-0.793083	-0.000055
C26	C	0.337275	-0.293083	0.499945
C27	C	-0.155697	-0.705599	-0.000046
C28	C	0.344303	-0.205599	0.499954
C29	C	0.111043	-0.994157	-0.000126
C30	C	0.611043	-0.494157	0.499874
C31	C	0.193243	-0.987548	-0.000129
C32	C	0.693243	-0.487548	0.499871
C33	C	0.229451	-0.913120	-0.000123
C34	C	0.729451	-0.413120	0.499877
C35	C	0.183454	-0.845298	-0.000105
C36	C	0.683454	-0.345298	0.499895
C37	C	0.101254	-0.851909	-0.000096
C38	C	0.601254	-0.351909	0.499904
C39	C	0.474767	-0.885724	-0.000145
C40	C	0.974767	-0.385724	0.499855
C41	C	0.556973	-0.879119	-0.000157
C42	C	1.056973	-0.379119	0.499843
C43	C	0.566757	-1.021370	-0.000180
C44	C	1.066757	-0.521370	0.499820
C45	C	0.484555	-1.027973	-0.000175
C46	C	0.984555	-0.527973	0.499825
C47	C	0.438564	-0.960151	-0.000153
C48	C	0.938564	-0.460151	0.499847
N49	N	0.313474	-0.906363	-0.000130
N50	N	0.813474	-0.406363	0.499870
N51	N	0.354543	-0.966910	-0.000140
N52	N	0.854543	-0.466910	0.499860
C53	C	-0.169266	-1.080202	-0.000084
C54	C	0.330734	-0.580202	0.499916
C55	C	-0.176295	-1.167686	-0.000087
C56	C	0.323705	-0.667686	0.499913
C57	C	0.690445	-0.939913	-0.000078
C58	C	1.190445	-0.439913	0.499922
C59	C	0.602964	-0.946936	-0.000173
C60	C	1.102964	-0.446936	0.499827
N61	N	-0.156688	-0.927330	-0.205371
N62	N	0.343312	-0.427330	0.294629
C63	C	-0.223515	-0.659609	-0.000033
C64	C	0.276485	-0.159609	0.499967
C65	C	-0.216906	-0.577407	-0.000046
C66	C	0.283094	-0.077407	0.499954
C67	C	-0.142477	-0.541198	-0.000067
C68	C	0.357523	-0.041198	0.499933
C69	C	-0.074653	-0.587194	-0.000083
C70	C	0.425347	-0.087194	0.499917
C71	C	-0.081263	-0.669393	-0.000076
C72	C	0.418737	-0.169393	0.499924
C73	C	-0.115081	-0.295882	-0.000096
C74	C	0.384919	0.204118	0.499904
C75	C	-0.108476	-0.213677	-0.000100
C76	C	0.391524	0.286323	0.499900
C77	C	-0.250729	-0.203895	-0.000065
C78	C	0.249271	0.296105	0.499935
C79	C	-0.257333	-0.286097	-0.000053
C80	C	0.242667	0.213903	0.499947
C81	C	-0.189509	-0.332086	-0.000073
C82	C	0.310491	0.167914	0.499927
N83	N	-0.135719	-0.457175	-0.000078
N84	N	0.364281	0.042825	0.499922
N85	N	-0.196267	-0.416107	-0.000069
N86	N	0.303733	0.083893	0.499931
C87	C	-0.205396	-0.976006	-0.250756
C88	C	0.294604	-0.476006	0.249244
C89	C	-0.201277	-0.971902	-0.341565
C90	C	0.298723	-0.471902	0.158435
C91	C	-0.148454	-0.919116	-0.386986
C92	C	0.351546	-0.419116	0.113014
C93	C	-0.099741	-0.870438	-0.341594
C94	C	0.400259	-0.370438	0.158406
C95	C	-0.103856	-0.874547	-0.250787
C96	C	0.396144	-0.374547	0.249213
C97	C	-0.130700	-0.901391	-0.658571
C98	C	0.369300	-0.401391	-0.158571
C99	C	-0.126590	-0.897284	-0.749384
C100	C	0.373410	-0.397284	-0.249384
C101	C	-0.228125	-0.998750	-0.749349
C102	C	0.271875	-0.498750	-0.249349
C103	C	-0.232239	-1.002851	-0.658540
C104	C	0.267761	-0.502851	-0.158540
C105	C	-0.183523	-0.954175	-0.613156
C106	C	0.316477	-0.454175	-0.113156
N107	N	-0.144245	-0.914918	-0.479807
N108	N	0.355755	-0.414918	0.020193
N109	N	-0.187729	-0.958378	-0.520336
N110	N	0.312271	-0.458378	-0.020336
N111	N	-0.175297	-0.945961	0.205230
N112	N	0.324703	-0.445961	0.705230
H113	H	0.081569	-1.054764	-0.000136
H114	H	0.581569	-0.554764	0.499864
Cl115	Cl	0.251058	-1.072808	-0.000151
Cl116	Cl	0.751058	-0.572808	0.499849
Cl117	Cl	-0.350905	-0.331612	-0.000021
Cl118	Cl	0.149095	0.168388	0.499979
Cl119	Cl	-0.289362	-1.059939	-0.806408
Cl120	Cl	0.210638	-0.559939	-0.306408
H121	H	-0.248414	-1.018985	-0.213781
H122	H	0.251586	-0.518985	0.286219
Cl123	Cl	0.602490	-0.785546	-0.000155
Cl124	Cl	1.102490	-0.285546	0.499845
Cl125	Cl	-0.029816	-0.353686	-0.000121
Cl126	Cl	0.470184	0.146314	0.499879
Cl127	Cl	-0.335988	-0.146077	-0.000042
Cl128	Cl	0.164012	0.353923	0.499958
Cl129	Cl	-0.033334	-0.804080	-0.398695
Cl130	Cl	0.466666	-0.304080	0.101305
Cl131	Cl	0.228972	-0.751732	-0.000087
Cl132	Cl	0.728972	-0.251732	0.499913
Cl133	Cl	-0.069485	-0.840169	-0.601528
Cl134	Cl	0.430515	-0.340169	-0.101528
Cl135	Cl	-0.060178	-0.830921	-0.806484
Cl136	Cl	0.439822	-0.330921	-0.306484
Cl137	Cl	-0.042614	-0.813358	-0.193731
Cl138	Cl	0.457386	-0.313358	0.306269
Cl139	Cl	0.018915	-0.541673	-0.000114
Cl140	Cl	0.518915	-0.041673	0.499886
Cl141	Cl	-0.298679	-1.069181	-0.601446
Cl142	Cl	0.201321	-0.569181	-0.101446
H143	H	0.063808	-0.796684	-0.000083
H144	H	0.563808	-0.296684	0.499917
Cl145	Cl	-0.014901	-0.168157	-0.000146
Cl146	Cl	0.485099	0.331843	0.499854
H147	H	-0.284123	-0.689084	-0.000015
H148	H	0.215877	-0.189084	0.499985
H149	H	0.604211	-1.076586	-0.000196
H150	H	1.104211	-0.576586	0.499804
Cl151	Cl	0.439042	-1.121544	-0.000154
Cl152	Cl	0.939042	-0.621544	0.499846
Cl153	Cl	0.416960	-0.800461	-0.000115
Cl154	Cl	0.916960	-0.300461	0.499885
H155	H	-0.026038	-0.706838	-0.000086
H156	H	0.473962	-0.206838	0.499914
H157	H	-0.272131	-0.539965	-0.000034
H158	H	0.227869	-0.039965	0.499966
Cl159	Cl	-0.262514	-1.033097	-0.398618
Cl160	Cl	0.237486	-0.533097	0.101382
