data_functionalizedCrystal
_audit_creation_method	'MofGen! by Chris Wilmer'
_symmetry_space_group_name_H-M	'P1'
_symmetry_Int_Tables_number	1
_symmetry_cell_setting	triclinic
loop_
_symmetry_equiv_pos_as_xyz
  x,y,z
_cell_length_a	12.759400
_cell_length_b	19.077241
_cell_length_c	19.076919
_cell_angle_alpha	90.113904
_cell_angle_beta	92.274856
_cell_angle_gamma	87.693290
loop_
_atom_site_label
_atom_site_type_symbol
_atom_site_fract_x
_atom_site_fract_y
_atom_site_fract_z
Zn1	Zn	-0.381402	-1.058333	-0.440580
Zn2	Zn	-0.549770	-1.062992	-0.323080
Zn3	Zn	-0.380848	-0.945549	-0.318357
Zn4	Zn	-0.563783	-0.940813	-0.435816
O5	O	-0.468951	-1.001922	-0.379458
O6	O	-0.398103	-1.157284	-0.428963
O7	O	-0.521266	-1.051345	-0.224122
O8	O	-0.233900	-0.960542	-0.334588
O9	O	-0.521803	-1.160707	-0.342636
O10	O	-0.234306	-1.043404	-0.424384
O11	O	-0.397160	-0.965060	-0.220653
O12	O	-0.410748	-0.846588	-0.329968
O13	O	-0.545686	-0.952471	-0.534779
O14	O	-0.545150	-0.843109	-0.416264
O15	O	-0.411691	-1.038812	-0.538279
O16	O	-0.698651	-1.046753	-0.338017
O17	O	-0.708946	-0.956989	-0.420844
C18	C	-0.479410	-0.819352	-0.372087
C19	C	-0.483911	-0.741246	-0.368951
C20	C	-0.421733	-0.702768	-0.412492
C21	C	-0.425956	-0.629380	-0.409538
C22	C	-0.492364	-0.594472	-0.363047
C23	C	-0.554545	-0.632955	-0.319502
C24	C	-0.550315	-0.706342	-0.322452
C25	C	-0.511904	-0.375181	-0.349394
C26	C	-0.516131	-0.301789	-0.346449
C27	C	-0.387540	-0.298219	-0.436484
C28	C	-0.383321	-0.371607	-0.439433
C29	C	-0.445498	-0.410084	-0.395885
N30	N	-0.496686	-0.519458	-0.360029
N31	N	-0.441170	-0.485097	-0.398901
C32	C	-0.741920	-1.001881	-0.379442
C33	C	-0.858695	-1.001927	-0.379461
C34	C	-0.908161	-1.048715	-0.336385
C35	C	-1.017884	-1.048757	-0.336408
C36	C	-1.028665	-0.955217	-0.422586
C37	C	-0.918944	-0.955179	-0.422565
C38	C	-0.847912	-1.095463	-0.293280
C39	C	-0.897378	-1.142254	-0.250200
C40	C	-1.007101	-1.142297	-0.250223
C41	C	-1.067358	-1.095548	-0.293327
C42	C	-0.194916	-1.001982	-0.379491
C43	C	-0.078139	-1.002007	-0.379504
C44	C	-0.480314	-0.994594	-0.562738
C45	C	-0.485156	-0.991471	-0.640840
C46	C	-0.458445	-0.185206	-0.386852
C47	C	-0.453953	-0.263311	-0.389989
C48	C	-0.417670	-1.034955	-0.679357
C49	C	-0.422216	-1.032012	-0.752742
C50	C	-0.494254	-0.985588	-0.787610
C51	C	-0.561743	-0.942100	-0.749089
C52	C	-0.557191	-0.945039	-0.675704
C53	C	-0.515345	-0.971972	-1.006890
C54	C	-0.519894	-0.969037	-1.080280
C55	C	-0.380365	-1.058949	-1.083928
C56	C	-0.375823	-1.061888	-1.010543
C57	C	-0.443309	-1.018397	-0.972027
N58	N	-0.498905	-0.982581	-0.862622
N59	N	-0.438652	-1.021401	-0.897017
C60	C	-0.457554	-1.009262	-0.196893
C61	C	-0.452408	-1.012521	-0.118796
H62	H	-0.562533	-0.406500	-0.313935
O63	O	-0.580758	-0.267840	-0.301381
C64	C	-0.726711	-0.185317	-0.288431
C65	C	-0.653617	-0.223731	-0.339543
H66	H	-0.785621	-0.149635	-0.319264
H67	H	-0.770505	-0.225389	-0.257820
H68	H	-0.678063	-0.152452	-0.250359
H69	H	-0.702186	-0.256596	-0.377659
H70	H	-0.609819	-0.183624	-0.370104
O71	O	-0.838804	-1.187567	-0.208254
C72	C	-0.708504	-1.200840	-0.113778
C73	C	-0.774791	-1.149444	-0.161224
H74	H	-0.656718	-1.170038	-0.075752
H75	H	-0.762659	-1.234280	-0.082943
H76	H	-0.657008	-1.236260	-0.147555
H77	H	-0.826295	-1.113980	-0.127500
H78	H	-0.720577	-1.116053	-0.192063
H79	H	-1.156701	-1.095591	-0.293348
H80	H	-0.317165	-1.099693	-0.982158
H81	H	-0.608611	-0.604527	-0.281645
H82	H	-0.570311	-0.936569	-0.975540
H83	H	-1.077734	-0.917156	-0.457678
H84	H	-0.878668	-0.917080	-0.457643
O85	O	-1.054986	-1.187774	-0.208315
C86	C	-1.032707	-1.280575	-0.122865
C87	C	-0.978346	-1.229099	-0.170284
H88	H	-0.970768	-1.314010	-0.092116
H89	H	-1.083677	-1.249866	-0.084762
H90	H	-1.083934	-1.315992	-0.156656
H91	H	-0.927066	-1.193670	-0.136550
H92	H	-0.927440	-1.259852	-0.208391
O93	O	-0.365521	-0.592109	-0.451905
C94	C	-0.237485	-0.596314	-0.541490
C95	C	-0.305896	-0.638608	-0.493561
H96	H	-0.189244	-0.633891	-0.575170
H97	H	-0.290010	-0.560506	-0.576842
H98	H	-0.182500	-0.563226	-0.507899
H99	H	-0.360890	-0.671736	-0.527097
H100	H	-0.253308	-0.674371	-0.458205
O101	O	-0.610824	-0.743614	-0.280133
C102	C	-0.738772	-0.739416	-0.190491
C103	C	-0.670322	-0.697120	-0.238394
H104	H	-0.786878	-0.701844	-0.156723
H105	H	-0.793867	-0.772470	-0.224036
H106	H	-0.686180	-0.775255	-0.155217
H107	H	-0.722832	-0.661242	-0.273677
H108	H	-0.615219	-0.664112	-0.204807
H109	H	-0.359012	-1.072760	-0.650973
H110	H	-0.325421	-1.094356	-1.115295
H111	H	-0.758570	-1.095432	-0.293254
O112	O	-0.356620	-1.074326	-0.790051
C113	C	-0.217713	-1.163792	-0.785924
C114	C	-0.291960	-1.115921	-0.743588
H115	H	-0.165401	-1.197424	-0.748377
H116	H	-0.265924	-1.199193	-0.821745
H117	H	-0.166797	-1.130158	-0.819001
H118	H	-0.342891	-1.149501	-0.710471
H119	H	-0.243686	-1.080517	-0.707812
H120	H	-0.578559	-0.931231	-1.108667
H121	H	-0.620395	-0.904298	-0.777484
O122	O	-0.622903	-0.902882	-0.638318
C123	C	-0.802181	-0.869620	-0.614485
C124	C	-0.727881	-0.917416	-0.656859
H125	H	-0.887072	-0.881344	-0.629470
H126	H	-0.786640	-0.879703	-0.556039
H127	H	-0.787828	-0.812387	-0.626609
H128	H	-0.742192	-0.974666	-0.644794
H129	H	-0.743439	-0.907273	-0.715293
O130	O	-0.357377	-0.736704	-0.457730
C131	C	-0.344562	-0.815815	-0.555921
C132	C	-0.417570	-0.777415	-0.504746
H133	H	-0.393195	-0.848750	-0.593937
H134	H	-0.300865	-0.775735	-0.586585
H135	H	-0.285556	-0.851429	-0.525088
H136	H	-0.476635	-0.741803	-0.535524
H137	H	-0.461190	-0.817533	-0.474081
H138	H	-0.336918	-0.266883	-0.471938
O139	O	-0.318710	-0.405406	-0.484607
C140	C	-0.191642	-0.394117	-0.573618
C141	C	-0.264750	-0.355752	-0.522480
H142	H	-0.148012	-0.353988	-0.604262
H143	H	-0.132592	-0.429737	-0.542828
H144	H	-0.240265	-0.427034	-0.611657
H145	H	-0.216214	-0.322797	-0.484429
H146	H	-0.323803	-0.320174	-0.553315
