data_functionalizedCrystal
_audit_creation_method	'MofGen! by Chris Wilmer'
_symmetry_space_group_name_H-M	'P1'
_symmetry_Int_Tables_number	1
_symmetry_cell_setting	triclinic
loop_
_symmetry_equiv_pos_as_xyz
  x,y,z
_cell_length_a	18.215407
_cell_length_b	19.076808
_cell_length_c	18.215399
_cell_angle_alpha	87.671678
_cell_angle_beta	89.982632
_cell_angle_gamma	92.320961
loop_
_atom_site_label
_atom_site_type_symbol
_atom_site_fract_x
_atom_site_fract_y
_atom_site_fract_z
Zn1	Zn	1.113296	-0.280271	-0.404282
Zn2	Zn	1.108258	-0.397979	-0.276266
Zn3	Zn	0.990227	-0.280288	-0.281234
Zn4	Zn	0.985250	-0.397934	-0.399298
O5	O	1.049258	-0.339118	-0.340270
O6	O	1.215611	-0.295898	-0.387307
O7	O	1.092576	-0.382393	-0.173940
O8	O	1.010744	-0.181790	-0.301721
O9	O	1.211910	-0.382377	-0.293255
O10	O	1.101161	-0.181777	-0.392124
O11	O	1.005859	-0.295926	-0.177590
O12	O	0.886583	-0.295882	-0.296889
O13	O	1.002261	-0.382300	-0.502945
O14	O	0.882927	-0.382316	-0.383630
O15	O	1.096335	-0.295854	-0.506606
O16	O	1.087750	-0.496470	-0.288422
O17	O	0.997376	-0.496436	-0.378813
C18	C	0.858052	-0.339097	-0.340258
C19	C	0.776253	-0.339104	-0.340270
C20	C	0.589981	-0.294167	-0.389314
C21	C	0.513122	-0.294173	-0.389316
C22	C	0.509285	-0.384089	-0.291239
C23	C	0.586143	-0.384079	-0.291234
C24	C	0.626489	-0.339119	-0.340275
C25	C	0.472772	-0.339135	-0.340283
C26	C	0.389438	-0.339142	-0.340285
C27	C	0.709828	-0.339111	-0.340272
C28	C	1.041496	-0.521992	-0.332554
C29	C	1.038243	-0.600226	-0.329277
C30	C	1.083755	-0.636914	-0.374844
C31	C	1.080695	-0.710423	-0.371767
C32	C	1.032127	-0.747243	-0.323118
C33	C	0.986610	-0.710551	-0.277550
C34	C	0.989666	-0.637043	-0.280631
C35	C	1.017938	-0.967096	-0.308854
C36	C	1.014887	-1.040609	-0.305774
C37	C	1.108972	-1.040476	-0.399992
C38	C	1.112027	-0.966967	-0.403067
C39	C	1.066507	-0.930280	-0.357501
N40	N	1.029000	-0.822382	-0.319970
N41	N	1.069631	-0.855143	-0.360653
C42	C	1.241210	-0.339141	-0.340283
C43	C	1.323008	-0.339150	-0.340288
C44	C	1.049305	-0.339070	-0.532225
C45	C	1.049325	-0.339049	-0.614025
C46	C	1.057070	-0.155531	-0.348033
C47	C	1.060399	-0.077296	-0.351341
C48	C	1.098328	-0.293994	-0.804129
C49	C	1.098338	-0.293974	-0.880988
C50	C	1.000378	-0.383995	-0.877164
C51	C	1.000365	-0.384011	-0.800306
C52	C	1.049344	-0.339012	-0.763790
C53	C	1.049367	-0.338975	-0.917508
C54	C	1.049377	-0.338953	-1.000843
C55	C	1.049334	-0.339033	-0.680450
C56	C	1.049256	-0.339116	-0.149064
C57	C	1.049387	-0.338938	-0.067273
H58	H	0.483402	-0.257568	-0.429247
H59	H	0.622829	-0.257556	-0.429244
Br60	Br	0.454525	-0.445104	-0.224687
H61	H	0.615868	-0.420685	-0.251297
Br62	Br	1.177945	-0.917001	-0.469091
H63	H	0.947061	-0.740536	-0.237942
Br64	Br	1.142452	-0.760211	-0.433623
Br65	Br	1.149679	-0.586950	-0.440864
H66	H	1.146030	-1.070354	-0.437090
Br67	Br	0.948973	-1.090579	-0.239742
Br68	Br	0.933877	-0.445105	-0.745556
H69	H	1.138208	-0.257351	-0.774400
H70	H	0.980876	-0.937231	-0.271751
Br71	Br	1.164823	-0.232881	-0.935731
Br72	Br	0.933912	-0.445065	-0.926726
H73	H	0.952605	-0.607172	-0.243527
