data_functionalizedCrystal
_audit_creation_method	'MofGen! by Chris Wilmer'
_symmetry_space_group_name_H-M	'P1'
_symmetry_Int_Tables_number	1
_symmetry_cell_setting	triclinic
loop_
_symmetry_equiv_pos_as_xyz
  x,y,z
_cell_length_a	10.723024
_cell_length_b	14.044220
_cell_length_c	9.798715
_cell_angle_alpha	89.995876
_cell_angle_beta	89.996609
_cell_angle_gamma	88.828373
loop_
_atom_site_label
_atom_site_type_symbol
_atom_site_fract_x
_atom_site_fract_y
_atom_site_fract_z
O1	O	1.670498	0.133040	-0.113486
O2	O	1.308619	0.145774	-0.113491
O3	O	1.484127	0.001387	-0.113476
O4	O	1.494990	0.277427	-0.113502
O5	O	1.484112	0.001387	0.113507
O6	O	1.308605	0.145774	0.113491
O7	O	1.670483	0.133039	0.113496
Zn8	Zn	1.489542	0.139407	0.149532
Zn9	Zn	1.489561	0.139407	-0.149527
O10	O	1.494976	0.277427	0.113480
C11	C	1.262020	0.144847	-0.000001
C12	C	1.123188	0.142075	-0.000002
C13	C	1.479364	-0.033958	0.000016
C14	C	1.465180	-0.139276	0.000018
C15	C	1.056288	0.222866	-0.000011
C16	C	0.912798	0.220002	-0.000013
C17	C	1.439248	-0.332106	-0.000002
C18	C	1.539849	-0.389085	-0.000005
C19	C	1.525420	-0.496383	-0.000016
C20	C	1.453675	-0.224799	0.000009
C21	C	1.717083	0.133966	0.000002
C22	C	1.855914	0.136739	-0.000005
C23	C	1.499738	0.312772	-0.000015
C24	C	1.513923	0.418090	-0.000025
N25	N	1.489538	0.139406	0.353631
N26	N	1.489573	0.139401	-0.353627
C27	C	1.563202	0.078514	0.421415
C28	C	1.563222	0.078511	0.578578
H29	H	1.105243	0.294155	-0.000010
O30	O	1.414154	0.201560	0.577001
C31	C	1.203421	0.256016	0.532987
C32	C	1.288689	0.185583	0.611672
H33	H	1.101964	0.243110	0.560968
H34	H	1.228302	0.332086	0.561019
H35	H	1.216878	0.244952	0.418632
H36	H	1.275277	0.196560	0.726045
H37	H	1.263788	0.109538	0.583527
O38	O	1.655558	-0.351201	-0.000227
C39	C	1.851965	-0.338787	-0.117739
C40	C	1.720959	-0.381740	-0.117683
H41	H	1.904889	-0.363477	-0.212677
H42	H	1.843224	-0.257750	-0.117815
H43	H	1.904799	-0.363389	-0.022698
H44	H	1.668052	-0.357212	-0.212707
H45	H	1.729789	-0.462772	-0.117536
H46	H	1.342291	-0.363906	-0.000007
O47	O	1.638291	0.016208	0.351884
C48	C	1.692565	-0.148281	0.307865
C49	C	1.607421	-0.077835	0.386683
H50	H	1.667655	-0.224329	0.335993
H51	H	1.679116	-0.137253	0.193499
H52	H	1.794030	-0.135402	0.335826
H53	H	1.505924	-0.090671	0.358837
H54	H	1.620978	-0.088878	0.501029
O55	O	0.844330	0.302583	0.000158
C56	C	0.795106	0.449268	0.117775
C57	C	0.872746	0.355789	0.117736
H58	H	0.818034	0.492302	0.212840
H59	H	0.818114	0.492435	0.022844
H60	H	0.691614	0.432233	0.117706
H61	H	0.976261	0.372738	0.117853
H62	H	0.849633	0.312649	0.212659
O63	O	1.414377	0.201728	0.423042
C64	C	1.360236	0.366236	0.467095
C65	C	1.445422	0.295760	0.388385
H66	H	1.385322	0.442276	0.439126
H67	H	1.258750	0.353494	0.439074
H68	H	1.373629	0.355103	0.581446
H69	H	1.432139	0.306851	0.274016
H70	H	1.546877	0.308519	0.416520
O71	O	0.924642	0.054282	-0.000180
C72	C	1.078136	-0.042849	-0.117807
C73	C	1.000387	0.050578	-0.117763
H74	H	1.139375	-0.045883	-0.212878
H75	H	1.139555	-0.045898	-0.022881
H76	H	1.012957	-0.105969	-0.117735
H77	H	1.065473	0.113750	-0.117883
H78	H	0.938955	0.053544	-0.212681
O79	O	1.064855	0.057000	0.000245
C80	C	1.033743	-0.091341	0.117803
C81	C	1.099856	0.004985	0.117710
H82	H	1.062036	-0.133431	0.212749
H83	H	0.928410	-0.078554	0.117888
H84	H	1.061905	-0.133380	0.022770
H85	H	1.071796	0.047073	0.212727
H86	H	1.205175	-0.007870	0.117554
O87	O	1.638644	0.016407	0.648045
C88	C	1.849365	-0.038136	0.691922
C89	C	1.764095	0.032270	0.613189
H90	H	1.950807	-0.025349	0.663748
H91	H	1.836086	-0.027061	0.806301
H92	H	1.824310	-0.114176	0.663931
H93	H	1.789096	0.108337	0.641065
H94	H	1.777387	0.021111	0.498829
