data_functionalizedCrystal
_audit_creation_method	'MofGen! by Chris Wilmer'
_symmetry_space_group_name_H-M	'P1'
_symmetry_Int_Tables_number	1
_symmetry_cell_setting	triclinic
loop_
_symmetry_equiv_pos_as_xyz
  x,y,z
_cell_length_a	8.559649
_cell_length_b	9.198806
_cell_length_c	10.723023
_cell_angle_alpha	90.001851
_cell_angle_beta	77.123106
_cell_angle_gamma	90.003535
loop_
_atom_site_label
_atom_site_type_symbol
_atom_site_fract_x
_atom_site_fract_y
_atom_site_fract_z
O1	O	2.119664	0.120869	-0.042290
O2	O	1.655165	0.120876	0.022085
O3	O	1.898129	0.120867	-0.192777
O4	O	1.876699	0.120877	0.172572
O5	O	1.898110	-0.120918	-0.192776
O6	O	1.655146	-0.120909	0.022087
O7	O	2.119644	-0.120916	-0.042289
Cu8	Cu	1.887393	-0.142990	-0.010101
Cu9	Cu	1.887416	0.142949	-0.010103
O10	O	1.876680	-0.120908	0.172574
C11	C	1.595679	-0.000016	0.026964
C12	C	1.418458	-0.000013	0.041486
N13	N	1.887389	-0.344104	-0.010102
C14	C	1.989402	-0.416304	-0.100668
C15	C	1.989427	-0.583716	-0.100675
C16	C	2.179130	-0.000021	-0.047168
C17	C	2.356351	-0.000014	-0.061689
C18	C	1.896561	-0.000023	-0.239116
C19	C	1.891895	-0.000018	-0.377192
N20	N	1.887433	0.344063	-0.010113
C21	C	1.885004	0.125239	-0.581447
C22	C	1.889826	0.125236	-0.438738
C23	C	1.878249	-0.000014	0.218913
C24	C	1.882914	-0.000010	0.356989
H25	H	1.438759	-0.000010	-0.161132
F26	F	1.882697	0.265405	-0.650647
H27	H	1.336042	-0.000003	0.140935
H28	H	1.890088	-0.107254	-0.430126
F29	F	1.773275	-0.574794	0.091247
H30	H	2.076717	-0.354181	-0.178205
F31	F	2.103596	-0.664868	-0.202020
F32	F	1.773244	-0.425300	0.091237
H33	H	1.891610	0.232467	-0.385792
H34	H	1.884703	-0.107243	-0.590069
