data_functionalizedCrystal
_audit_creation_method	'MofGen! by Chris Wilmer'
_symmetry_space_group_name_H-M	'P1'
_symmetry_Int_Tables_number	1
_symmetry_cell_setting	triclinic
loop_
_symmetry_equiv_pos_as_xyz
  x,y,z
_cell_length_a	12.594517
_cell_length_b	18.050583
_cell_length_c	12.594516
_cell_angle_alpha	89.964948
_cell_angle_beta	90.013323
_cell_angle_gamma	89.983678
loop_
_atom_site_label
_atom_site_type_symbol
_atom_site_fract_x
_atom_site_fract_y
_atom_site_fract_z
Zn1	Zn	1.627233	-0.419925	-0.423671
Zn2	Zn	1.627147	-0.295738	-0.601695
Zn3	Zn	1.449253	-0.295748	-0.423730
Zn4	Zn	1.449227	-0.419885	-0.601608
O5	O	1.538215	-0.357824	-0.512676
O6	O	1.776167	-0.403463	-0.447299
O7	O	1.603524	-0.191814	-0.578148
O8	O	1.472909	-0.312242	-0.274777
O9	O	1.776104	-0.312223	-0.578092
O10	O	1.603670	-0.403474	-0.274733
O11	O	1.472825	-0.191822	-0.447398
O12	O	1.300303	-0.312203	-0.447314
O13	O	1.472865	-0.523815	-0.577943
O14	O	1.300285	-0.403406	-0.578000
O15	O	1.603645	-0.523844	-0.447214
O16	O	1.603499	-0.312185	-0.750629
O17	O	1.472782	-0.403396	-0.750565
C18	C	1.261674	-0.357802	-0.512655
C19	C	1.143369	-0.357810	-0.512671
C20	C	1.074095	-0.308300	-0.441494
C21	C	1.003290	-0.290030	-0.538585
C22	C	1.003374	-0.376093	-0.415628
C23	C	1.074122	-0.339505	-0.609813
C24	C	1.074212	-0.425600	-0.486791
C25	C	1.003440	-0.407356	-0.583949
C26	C	1.538262	-0.551530	-0.512562
C27	C	1.538282	-0.634076	-0.512514
C28	C	1.609472	-0.833542	-0.441389
C29	C	1.512388	-0.882936	-0.415339
C30	C	1.538325	-0.785206	-0.512496
C31	C	1.635447	-0.882894	-0.538479
C32	C	1.538374	-0.931191	-0.512476
C33	C	1.441190	-0.833513	-0.486395
C34	C	1.564314	-0.833466	-0.609580
C35	C	1.467164	-0.882838	-0.583567
C36	C	1.538297	-0.701108	-0.512504
C37	C	1.538391	-1.015288	-0.512468
C38	C	1.815836	-0.357846	-0.512698
C39	C	1.934141	-0.357856	-0.512708
C40	C	1.538157	-0.357801	-0.789217
C41	C	1.538230	-0.357816	-0.907522
C42	C	1.538229	-0.164872	-0.512712
C43	C	1.538416	-0.082327	-0.512461
C44	C	1.609458	-0.308293	-1.047535
C45	C	1.512330	-0.290041	-0.976852
C46	C	1.635346	-0.376034	-0.976634
C47	C	1.441161	-0.339594	-1.047625
C48	C	1.564242	-0.425618	-1.047413
C49	C	1.467048	-0.407392	-0.976762
C50	C	1.538302	-0.357863	-0.235055
C51	C	1.538339	-0.357880	-0.116750
H52	H	0.972242	-0.391512	-0.333556
F53	F	1.114960	-0.500486	-0.458113
F54	F	1.688032	-0.253478	-1.088155
H55	H	1.490367	-0.232729	-0.945854
H56	H	1.359053	-0.324147	-1.078675
H57	H	0.972612	-0.449245	-0.644226
F58	F	1.388289	-0.462170	-0.936401
F59	F	1.592988	-0.500508	-1.087965
F60	F	1.687988	-0.805247	-0.362746
H61	H	1.490422	-0.904666	-0.333228
F62	F	1.742633	-0.396139	-0.935874
H63	H	1.105118	-0.266379	-0.381361
H64	H	1.359052	-0.811913	-0.464315
F65	F	0.962572	-0.215125	-0.567227
H66	H	1.406949	-0.904346	-0.643691
F67	F	1.742775	-0.911245	-0.567218
H68	H	1.105069	-0.323997	-0.691921
F69	F	1.593065	-0.805041	-0.716875
