data_functionalizedCrystal
_audit_creation_method	'MofGen! by Chris Wilmer'
_symmetry_space_group_name_H-M	'P1'
_symmetry_Int_Tables_number	1
_symmetry_cell_setting	triclinic
loop_
_symmetry_equiv_pos_as_xyz
  x,y,z
_cell_length_a	19.077236
_cell_length_b	13.897447
_cell_length_c	13.897441
_cell_angle_alpha	89.970673
_cell_angle_beta	87.676664
_cell_angle_gamma	92.312415
loop_
_atom_site_label
_atom_site_type_symbol
_atom_site_fract_x
_atom_site_fract_y
_atom_site_fract_z
Zn1	Zn	1.076050	-0.324858	-0.604767
Zn2	Zn	1.075969	-0.486184	-0.443467
Zn3	Zn	0.958345	-0.331368	-0.436990
Zn4	Zn	0.958327	-0.492581	-0.598228
O5	O	1.017173	-0.408747	-0.520863
O6	O	1.174532	-0.340856	-0.588817
O7	O	1.060339	-0.465694	-0.307625
O8	O	0.974000	-0.195520	-0.459271
O9	O	1.174472	-0.459382	-0.470311
O10	O	1.060477	-0.190737	-0.582536
O11	O	0.973921	-0.351951	-0.302866
O12	O	0.859849	-0.358154	-0.452931
O13	O	0.973970	-0.470285	-0.734079
O14	O	0.859837	-0.476597	-0.571392
O15	O	1.060460	-0.347059	-0.738882
O16	O	1.060322	-0.622016	-0.463971
O17	O	0.973892	-0.626716	-0.577673
C18	C	0.834305	-0.418777	-0.510750
C19	C	0.756073	-0.423091	-0.506447
C20	C	0.719351	-0.363506	-0.566219
C21	C	0.645844	-0.367555	-0.562167
C22	C	0.609060	-0.431194	-0.498347
C23	C	0.645787	-0.490782	-0.438569
C24	C	0.719293	-0.486728	-0.442616
C25	C	0.389219	-0.449922	-0.479611
C26	C	0.315708	-0.453974	-0.475570
C27	C	0.315770	-0.330745	-0.599168
C28	C	0.389277	-0.326700	-0.603214
C29	C	0.425998	-0.386284	-0.543432
N30	N	0.533924	-0.435337	-0.494206
N31	N	0.501132	-0.382137	-0.547568
C32	C	1.017115	-0.659365	-0.520837
C33	C	1.017155	-0.766577	-0.520862
C34	C	1.017189	-0.853645	-0.520886
C35	C	1.017239	-0.962874	-0.520914
C36	C	1.200754	-0.398679	-0.531016
C37	C	1.278986	-0.394389	-0.535342
C38	C	1.017222	-0.408659	-0.772459
C39	C	1.017244	-0.408622	-0.879674
C40	C	1.017249	-0.157150	-0.520911
C41	C	1.017282	-0.049934	-0.520931
C42	C	1.017263	-0.408556	-1.075970
C43	C	1.017250	-0.408595	-0.966737
C44	C	1.017163	-0.408763	-0.270248
C45	C	1.017278	-0.408522	-0.163041
H46	H	0.419108	-0.498441	-0.430933
C47	C	0.759690	-0.552270	-0.376870
H48	H	0.808735	-0.540734	-0.388413
H49	H	0.747641	-0.617763	-0.390206
H50	H	0.747623	-0.538730	-0.311417
C51	C	0.759811	-0.293505	-0.636422
H52	H	0.808848	-0.299629	-0.630281
H53	H	0.747769	-0.229342	-0.621757
H54	H	0.747781	-0.308372	-0.700548
C55	C	0.429738	-0.256703	-0.673418
H56	H	0.478774	-0.262831	-0.667276
H57	H	0.417700	-0.192536	-0.658761
H58	H	0.417708	-0.271576	-0.737542
C59	C	0.275380	-0.265203	-0.664921
H60	H	0.307815	-0.226727	-0.703513
H61	H	0.246697	-0.224712	-0.626520
H62	H	0.246716	-0.303741	-0.705312
H63	H	0.285760	-0.505802	-0.423600
C64	C	0.605330	-0.560786	-0.368367
H65	H	0.637730	-0.595687	-0.333343
H66	H	0.576663	-0.604441	-0.403615
H67	H	0.576647	-0.525414	-0.324820
C68	C	0.605453	-0.302013	-0.627919
H69	H	0.637888	-0.263539	-0.666515
H70	H	0.576774	-0.261518	-0.589517
H71	H	0.576787	-0.340550	-0.668306
