data_functionalizedCrystal
_audit_creation_method	'MofGen! by Chris Wilmer'
_symmetry_space_group_name_H-M	'P1'
_symmetry_Int_Tables_number	1
_symmetry_cell_setting	triclinic
loop_
_symmetry_equiv_pos_as_xyz
  x,y,z
_cell_length_a	13.033748
_cell_length_b	16.625545
_cell_length_c	13.032268
_cell_angle_alpha	97.146495
_cell_angle_beta	103.297929
_cell_angle_gamma	97.220200
loop_
_atom_site_label
_atom_site_type_symbol
_atom_site_fract_x
_atom_site_fract_y
_atom_site_fract_z
Zn1	Zn	1.547407	-0.207787	-0.394587
Zn2	Zn	2.047407	0.292213	0.105413
Zn3	Zn	1.569840	-0.323035	-0.217000
Zn4	Zn	2.069840	0.176965	0.283000
Zn5	Zn	1.392359	-0.207844	-0.239528
Zn6	Zn	1.892359	0.292156	0.260472
Zn7	Zn	1.369750	-0.362218	-0.417065
Zn8	Zn	1.869750	0.137782	0.082935
O9	O	1.469839	-0.275221	-0.317045
O10	O	1.969839	0.224779	0.182955
O11	O	1.699009	-0.206653	-0.352194
O12	O	2.199009	0.293347	0.147806
O13	O	1.565147	-0.291381	-0.071368
O14	O	2.065147	0.208619	0.428632
O15	O	1.413001	-0.094999	-0.260117
O16	O	1.913001	0.405001	0.239883
O17	O	1.715490	-0.291325	-0.221722
O18	O	2.215490	0.208675	0.278278
O19	O	1.526913	-0.094957	-0.374039
O20	O	2.026913	0.405043	0.125961
O21	O	1.434753	-0.206751	-0.087919
O22	O	1.934753	0.293249	0.412081
O23	O	1.240734	-0.244744	-0.281914
O24	O	1.740734	0.255256	0.218086
O25	O	1.374467	-0.358106	-0.562704
O26	O	1.874467	0.141894	-0.062704
O27	O	1.224123	-0.358162	-0.412350
O28	O	1.724123	0.141838	0.087650
O29	O	1.504990	-0.244646	-0.546189
O30	O	2.004990	0.255354	-0.046189
O31	O	1.543224	-0.441071	-0.243519
O32	O	2.043224	0.058929	0.256481
O33	O	1.396219	-0.469858	-0.390506
O34	O	1.896219	0.030142	0.109494
C35	C	1.193892	-0.305712	-0.352016
C36	C	1.693892	0.194288	0.147984
C37	C	1.075837	-0.318778	-0.367002
C38	C	1.575837	0.181222	0.132998
C39	C	1.031382	-0.268425	-0.309250
C40	C	1.531382	0.231575	0.190750
C41	C	0.909367	-0.281928	-0.324737
C42	C	1.409367	0.218072	0.175263
C43	C	1.469728	-0.484721	-0.317026
C44	C	1.969728	0.015279	0.182974
C45	C	1.469773	-0.574339	-0.317041
C46	C	1.969773	-0.074339	0.182959
C47	C	1.469812	-0.647119	-0.317057
C48	C	1.969812	-0.147119	0.182943
C49	C	1.469870	-0.738423	-0.317073
C50	C	1.969870	-0.238423	0.182927
C51	C	1.469924	-0.811195	-0.317079
C52	C	1.969924	-0.311195	0.182921
C53	C	1.469982	-0.902505	-0.317093
C54	C	1.969982	-0.402505	0.182907
C55	C	1.746864	-0.244612	-0.281938
C56	C	2.246864	0.255388	0.218062
C57	C	1.864916	-0.231568	-0.266977
C58	C	2.364916	0.268432	0.233023
C59	C	1.434704	-0.305740	-0.594060
C60	C	1.934704	0.194260	-0.094060
C61	C	1.419732	-0.318746	-0.712107
C62	C	1.919732	0.181254	-0.212107
C63	C	1.469977	-0.064902	-0.317083
C64	C	1.969977	0.435098	0.182917
C65	C	1.470035	0.024723	-0.317100
C66	C	1.970035	0.524723	0.182900
C67	C	1.477637	-0.268406	-0.756565
C68	C	1.977637	0.231594	-0.256565
C69	C	1.462163	-0.281847	-0.878573
C70	C	1.962163	0.218153	-0.378573
C71	C	1.504899	-0.244756	-0.041100
C72	C	2.004899	0.255244	0.458900
C73	C	1.520077	-0.231500	0.076973
C74	C	2.020077	0.268500	0.576973
H75	H	0.857098	-0.335040	-0.385648
H76	H	1.357098	0.164960	0.114352
H77	H	1.083655	-0.215322	-0.248337
H78	H	1.583655	0.284678	0.251663
H79	H	1.401122	-0.334894	-0.930834
H80	H	1.901122	0.165106	-0.430834
O81	O	1.013422	-0.382037	-0.439789
O82	O	1.513422	0.117963	0.060211
C83	C	0.940561	-0.350827	-0.516555
C84	C	1.440561	0.149173	-0.016555
H85	H	0.973232	-0.284385	-0.519036
H86	H	1.473232	0.215615	-0.019036
H87	H	0.928837	-0.389231	-0.598394
H88	H	1.428837	0.110769	-0.098394
H89	H	0.860697	-0.353628	-0.494313
H90	H	1.360697	0.146372	0.005687
H91	H	1.358694	-0.371789	-0.764372
H92	H	1.858694	0.128211	-0.264372
O93	O	0.927383	-0.168300	-0.194238
O94	O	1.427383	0.331700	0.305762
C95	C	1.000207	-0.199508	-0.117434
C96	C	1.500207	0.300492	0.382566
H97	H	1.011969	-0.262955	-0.152670
H98	H	1.511969	0.237045	0.347330
H99	H	1.080056	-0.156510	-0.093436
H100	H	1.580056	0.343490	0.406564
H101	H	0.967485	-0.204295	-0.044093
H102	H	1.467485	0.295705	0.455907
O103	O	1.550318	-0.205085	-0.694124
O104	O	2.050318	0.294915	-0.194124
C105	C	1.497962	-0.152655	-0.637657
C106	C	1.997962	0.347345	-0.137657
H107	H	1.419530	-0.188179	-0.631349
H108	H	1.919530	0.311821	-0.131349
H109	H	1.551058	-0.128537	-0.554135
H110	H	2.051058	0.371463	-0.054135
H111	H	1.480964	-0.098855	-0.681823
H112	H	1.980964	0.401145	-0.181823
H113	H	1.581106	-0.178445	-0.870769
H114	H	2.081106	0.321555	-0.370769
