data_functionalizedCrystal
_audit_creation_method	'MofGen! by Chris Wilmer'
_symmetry_space_group_name_H-M	'P1'
_symmetry_Int_Tables_number	1
_symmetry_cell_setting	triclinic
loop_
_symmetry_equiv_pos_as_xyz
  x,y,z
_cell_length_a	17.699083
_cell_length_b	11.026607
_cell_length_c	16.176319
_cell_angle_alpha	89.996049
_cell_angle_beta	89.998611
_cell_angle_gamma	95.934516
loop_
_atom_site_label
_atom_site_type_symbol
_atom_site_fract_x
_atom_site_fract_y
_atom_site_fract_z
O1	O	1.025155	0.153399	-0.068626
O2	O	0.807518	0.173357	-0.068652
O3	O	0.898299	-0.013222	-0.068638
O4	O	0.934374	0.339978	-0.068640
O5	O	0.898282	-0.013234	0.068855
O6	O	0.807501	0.173345	0.068841
O7	O	1.025137	0.153387	0.068867
Cu8	Cu	0.916317	0.163365	0.081408
Cu9	Cu	0.916338	0.163379	-0.081193
O10	O	0.934357	0.339966	0.068853
C11	C	0.779214	0.172636	0.000091
C12	C	0.694902	0.170490	0.000080
C13	C	0.661328	0.280008	0.000080
C14	C	0.582106	0.277985	0.000091
C15	C	0.536460	0.166443	0.000096
C16	C	0.570039	0.056917	0.000099
C17	C	0.649259	0.058941	0.000094
C18	C	0.250554	0.048751	0.000119
C19	C	0.171329	0.046735	0.000121
C20	C	0.183402	0.267794	0.000116
C21	C	0.262621	0.269819	0.000111
C22	C	0.296194	0.160293	0.000118
C23	C	0.382094	0.162488	0.000108
C24	C	0.450561	0.164247	0.000100
C25	C	0.891635	-0.058419	0.000106
C26	C	0.871796	-0.193075	0.000101
C27	C	0.926576	-0.267042	0.000107
C28	C	0.906072	-0.406216	0.000101
C29	C	1.053441	0.154108	0.000122
C30	C	1.137754	0.156254	0.000127
C31	C	0.941021	0.385163	0.000107
C32	C	0.960860	0.519819	0.000106
N33	N	0.916308	0.163354	0.195773
N34	N	0.916352	0.163380	-0.195559
C35	C	0.956526	0.080771	0.239044
C36	C	0.956530	0.080770	0.325591
C37	C	0.916320	0.163358	0.368866
C38	C	0.876097	0.245946	0.325590
C39	C	0.876089	0.245940	0.239044
C40	C	0.876126	0.245969	0.674618
C41	C	0.876138	0.245970	0.761169
C42	C	0.956566	0.080798	0.761165
C43	C	0.956559	0.080792	0.674619
C44	C	0.916333	0.163375	0.631350
C45	C	0.916328	0.163374	0.537506
C46	C	0.916328	0.163366	0.462709
H47	H	0.554775	0.367165	0.000090
H48	H	0.809717	-0.232783	0.000088
O49	O	0.999919	-0.008295	0.627941
H50	H	1.061009	0.007025	0.644540
H51	H	0.988654	-0.227333	0.000119
H52	H	0.843990	-0.445918	0.000088
H53	H	0.843339	0.313186	0.203814
H54	H	0.989318	0.013551	0.796403
H55	H	0.989274	0.013523	0.203815
H56	H	0.299783	0.360648	0.000103
H57	H	0.843374	0.313212	0.639395
O58	O	0.832781	0.335070	0.807850
H59	H	0.804809	0.392495	0.763224
O60	O	0.286758	-0.069377	0.000119
H61	H	0.322556	-0.073753	0.056162
O62	O	0.832731	0.335028	0.372265
H63	H	0.855251	0.429568	0.355636
H64	H	0.989277	0.013523	0.360821
H65	H	1.022943	-0.440480	0.000052
O66	O	0.122092	-0.073576	0.000141
H67	H	0.158745	-0.149397	0.000156
H68	H	0.698488	0.370838	0.000075
H69	H	0.532868	-0.033903	0.000115
H70	H	0.676594	-0.030240	0.000094
O71	O	0.147194	0.385934	0.000126
H72	H	0.084439	0.365795	0.000143
