data_functionalizedCrystal
_audit_creation_method	'MofGen! by Chris Wilmer'
_symmetry_space_group_name_H-M	'P1'
_symmetry_Int_Tables_number	1
_symmetry_cell_setting	triclinic
loop_
_symmetry_equiv_pos_as_xyz
  x,y,z
_cell_length_a	34.490303
_cell_length_b	34.489386
_cell_length_c	34.485816
_cell_angle_alpha	60.004462
_cell_angle_beta	60.008900
_cell_angle_gamma	59.994399
loop_
_atom_site_label
_atom_site_type_symbol
_atom_site_fract_x
_atom_site_fract_y
_atom_site_fract_z
O1	O	0.053846	-0.566517	0.473678
O2	O	0.020329	-0.441078	0.381663
O3	O	0.099768	-0.520436	0.381578
O4	O	-0.025592	-0.487159	0.473762
O5	O	0.126127	-0.494082	0.407849
O6	O	0.046689	-0.414724	0.407933
O7	O	0.080206	-0.540163	0.499949
Zn8	Zn	0.067632	-0.473259	0.458112
Zn9	Zn	0.032903	-0.507982	0.423499
O10	O	0.000767	-0.460805	0.500033
N11	N	0.091336	-0.449565	0.481736
N12	N	0.009203	-0.531680	0.399875
C13	C	0.142510	-0.268211	0.532817
C14	C	0.142641	-0.398441	0.662987
C15	C	0.142524	-0.398421	0.532817
C16	C	0.272762	-0.398394	0.532723
C17	C	0.156853	-0.311177	0.547124
C18	C	0.156928	-0.384109	0.620020
C19	C	0.229794	-0.384081	0.547073
C20	C	0.156863	-0.384097	0.547124
C21	C	0.124253	-0.213522	0.514606
C22	C	0.124277	-0.416652	0.514606
C23	C	0.175110	-0.365866	0.565335
C24	C	0.352285	-0.384669	0.490824
C25	C	0.401998	-0.401229	0.474223
C26	C	0.402027	-0.481671	0.504898
C27	C	0.352316	-0.465109	0.521500
C28	C	0.136220	-0.188652	0.465734
C29	C	0.119621	-0.138936	0.449181
C30	C	0.079092	-0.138961	0.530374
C31	C	0.095691	-0.188678	0.546927
C32	C	0.075398	-0.404656	0.526651
C33	C	0.058814	-0.421229	0.510091
C34	C	0.139984	-0.461794	0.469452
C35	C	0.156570	-0.445221	0.486007
C36	C	0.075593	-0.404694	0.742565
C37	C	0.059066	-0.421281	0.792280
C38	C	0.140274	-0.461856	0.792215
C39	C	0.156800	-0.445269	0.742499
C40	C	0.124458	-0.416687	0.717675
C41	C	0.327446	-0.416608	0.514460
C42	C	-0.023585	-0.564792	0.161919
C43	C	-0.023910	-0.769260	0.366530
C44	C	-0.023880	-0.564780	0.366623
C45	C	-0.228325	-0.564561	0.366222
C46	C	-0.129610	-0.597564	0.333467
C47	C	-0.056729	-0.597644	0.333613
C48	C	-0.074925	-0.615849	0.315324
C49	C	-0.088689	-0.695351	0.357144
C50	C	-0.072155	-0.745068	0.373736
C51	C	0.008283	-0.745150	0.343188
C52	C	-0.008252	-0.695435	0.326596
C53	C	-0.154529	-0.609541	0.382326
C54	C	-0.204241	-0.592916	0.398818
C55	C	-0.204114	-0.552341	0.317588
C56	C	-0.154401	-0.568966	0.301096
C57	C	-0.068707	-0.548770	0.321590
C58	C	-0.052166	-0.532225	0.338221
C59	C	-0.011669	-0.613425	0.378886
C60	C	-0.028210	-0.629972	0.362261
C61	C	-0.068581	-0.548777	0.235758
C62	C	-0.051939	-0.532234	0.186043
C63	C	-0.011379	-0.613438	0.186090
C64	C	-0.028020	-0.629981	0.235806
C65	C	-0.056622	-0.597649	0.260639
C66	C	-0.056739	-0.670537	0.333576
C67	C	-0.005614	-0.545951	0.107238
C68	C	-0.006360	-0.823943	0.385033
C69	C	-0.005995	-0.545937	0.384582
C70	C	-0.283006	-0.545971	0.383725
N71	N	0.426163	-0.449489	0.481488
O72	O	0.588601	-0.457377	0.364497
O73	O	0.588789	-0.549696	0.489801
O74	O	0.588709	-0.549485	0.410335
O75	O	0.588681	-0.457588	0.443963
O76	O	0.509731	-0.523223	0.436741
O77	O	0.509811	-0.523434	0.516207
O78	O	0.509624	-0.431115	0.390903
Zn79	Zn	0.497178	-0.473105	0.457747
Zn80	Zn	0.601234	-0.507706	0.422956
O81	O	0.509704	-0.431326	0.470368
N82	N	0.672250	-0.531322	0.399211
N83	N	0.091303	-0.114798	0.481730
O84	O	-0.025603	0.047729	0.473733
O85	O	0.099703	0.047764	0.381394
O86	O	0.020199	0.047731	0.381655
O87	O	0.053901	0.047761	0.473472
O88	O	0.046564	-0.031252	0.407974
O89	O	0.126068	-0.031219	0.407713
O90	O	0.000762	-0.031254	0.500052
Zn91	Zn	0.067601	-0.043777	0.458061
Zn92	Zn	0.032864	0.060287	0.423385
O93	O	0.080266	-0.031222	0.499791
N94	N	0.009156	0.131307	0.399717
N95	N	0.091635	-0.449614	0.816396
O96	O	0.083664	-0.566502	0.978913
O97	O	-0.008637	-0.441152	0.978954
O98	O	-0.008421	-0.520640	0.978930
O99	O	0.083448	-0.487013	0.978936
O100	O	0.017877	-0.494296	0.899950
O101	O	0.017661	-0.414807	0.899974
O102	O	0.109961	-0.540157	0.899933
Zn103	Zn	0.067986	-0.473299	0.887414
Zn104	Zn	0.033338	-0.508010	0.991473
O105	O	0.109746	-0.460669	0.899956
N106	N	0.009689	-0.531700	1.062491
C107	C	0.030367	-0.412095	0.382120
C108	C	0.128741	-0.510370	0.382016
C109	C	0.070168	-0.569147	0.499490
C110	C	-0.028207	-0.470871	0.499595
C111	C	0.549323	-0.549278	0.518791
C112	C	0.549225	-0.549017	0.420381
C113	C	0.549087	-0.431532	0.361914
C114	C	0.549188	-0.431794	0.460322
C115	C	0.128638	0.008374	0.381806
C116	C	0.030215	0.008236	0.382161
C117	C	-0.028206	0.008233	0.499608
C118	C	0.070250	0.008272	0.499285
C119	C	-0.008199	-0.412187	0.939469
C120	C	-0.007927	-0.510619	0.939425
C121	C	0.109523	-0.569121	0.939417
C122	C	0.109257	-0.470684	0.939444
H123	H	0.019274	-0.411508	0.812539
C124	C	0.080001	0.008281	0.538257
N125	N	0.087346	0.008286	0.567611
H126	H	0.164551	0.008603	0.352745
C127	C	0.020692	-0.363415	0.343076
N128	N	0.013405	-0.326749	0.313667
C129	C	0.148644	-0.617784	0.939486
N130	N	0.178099	-0.654448	0.939569
H131	H	0.022995	0.008233	0.353314
C132	C	-0.046901	-0.520322	0.939376
N133	N	-0.076257	-0.527630	0.939339
C134	C	-0.047347	-0.363552	0.939484
N135	N	-0.076834	-0.326920	0.939495
H136	H	0.549182	-0.402927	0.467517
H137	H	0.164745	-0.517463	0.353068
C138	C	-0.076831	0.008248	0.538761
N139	N	-0.113458	0.008269	0.568248
H140	H	0.077330	-0.605181	0.528391
C141	C	-0.076848	-0.461293	0.538702
N142	N	-0.113485	-0.454078	0.568158
C143	C	0.549393	-0.588433	0.567409
N144	N	0.549447	-0.617925	0.604028
H145	H	0.138119	-0.463487	0.939440
C146	C	0.549240	-0.588019	0.410661
N147	N	0.549252	-0.617395	0.403340
C148	C	0.082526	-0.216031	0.600688
N149	N	0.072610	-0.236634	0.641183
C150	C	0.040011	-0.373226	0.715263
N151	N	0.013211	-0.349517	0.694699
C152	C	0.175853	-0.493290	0.819520
N153	N	0.202652	-0.516969	0.840085
C154	C	0.548940	-0.392352	0.313321
N155	N	0.548806	-0.362833	0.276729
H156	H	0.196592	-0.455039	0.722237
C157	C	0.061621	-0.772540	0.335512
N158	N	0.101795	-0.793169	0.329729
C159	C	0.005045	-0.408034	0.523339
N160	N	-0.035453	-0.398095	0.533317
C161	C	0.039872	-0.373222	0.558102
N162	N	0.013113	-0.349544	0.581790
H163	H	0.422223	-0.375220	0.454977
C164	C	0.210339	-0.458420	0.472760
N165	N	0.250838	-0.468363	0.462784
C166	C	0.324996	-0.500248	0.547502
N167	N	0.304420	-0.526717	0.567086
C168	C	0.175512	-0.493225	0.437994
N169	N	0.202271	-0.516896	0.414299
C170	C	0.324930	-0.331315	0.483081
N171	N	0.304328	-0.291128	0.477248
C172	C	0.429383	-0.535023	0.512643
N173	N	0.449988	-0.575210	0.518478
H174	H	0.129365	-0.118686	0.409385
C175	C	0.167638	-0.215977	0.430177
N176	N	0.191302	-0.236559	0.403396
H177	H	0.055841	-0.118733	0.556693
H178	H	-0.091873	-0.522445	0.255974
C179	C	0.020078	-0.649008	0.158780
N180	N	0.043773	-0.675801	0.138211
C181	C	-0.014861	-0.683745	0.263172
N182	N	-0.004951	-0.724240	0.283783
C183	C	-0.100080	-0.513206	0.290079
N184	N	-0.123711	-0.486419	0.266344
C185	C	-0.065339	-0.478460	0.324995
N186	N	-0.075261	-0.437965	0.315032
C187	C	0.019721	-0.648990	0.410379
N188	N	0.043369	-0.675779	0.434097
C189	C	-0.065105	-0.478469	0.158681
N190	N	-0.075023	-0.437974	0.138071
H191	H	-0.018458	-0.669769	0.372051
H192	H	0.017768	-0.675232	0.307405
H193	H	-0.098172	-0.765271	0.392919
H194	H	-0.134345	-0.632833	0.408685
C195	C	-0.231654	-0.606092	0.452568
N196	N	-0.252299	-0.616018	0.493053
C197	C	-0.142026	-0.667968	0.364823
N198	N	-0.182200	-0.647342	0.370606
H199	H	-0.134111	-0.559208	0.261309
C200	C	-0.231385	-0.520887	0.281979
N201	N	-0.251925	-0.497194	0.255158
