data_functionalizedCrystal
_audit_creation_method	'MofGen! by Chris Wilmer'
_symmetry_space_group_name_H-M	'P1'
_symmetry_Int_Tables_number	1
_symmetry_cell_setting	triclinic
loop_
_symmetry_equiv_pos_as_xyz
  x,y,z
_cell_length_a	6.817900
_cell_length_b	17.253917
_cell_length_c	11.102193
_cell_angle_alpha	97.514798
_cell_angle_beta	108.604059
_cell_angle_gamma	102.659311
loop_
_atom_site_label
_atom_site_type_symbol
_atom_site_fract_x
_atom_site_fract_y
_atom_site_fract_z
V1	V	-4.088148	-0.111300	-0.408321
O2	O	-4.071669	0.005342	-0.388135
O3	O	-4.041960	-0.220684	-0.417466
O4	O	-4.065281	-0.109591	-0.580957
O5	O	-4.048187	-0.106520	-0.223512
V6	V	-4.568180	-0.097348	-0.384766
O7	O	-4.357062	-0.141905	-0.459990
O8	O	-4.749463	-0.066743	-0.333097
O9	O	-4.391161	0.012036	-0.375621
O10	O	-4.702056	-0.213990	-0.404951
O11	O	-4.725538	-0.102128	-0.569574
O12	O	-4.367841	-0.099057	-0.212130
C13	C	-3.886673	-0.247349	-0.414105
C14	C	-3.930366	-0.336771	-0.422733
C15	C	-3.893139	-0.367293	-0.309156
C16	C	-3.934214	-0.451315	-0.317267
C17	C	-4.012502	-0.504815	-0.438956
C18	C	-4.049737	-0.474288	-0.552542
C19	C	-4.008676	-0.390268	-0.544430
C20	C	-4.141511	-0.757334	-0.475832
C21	C	-4.182564	-0.841360	-0.483936
C22	C	-4.067041	-0.818381	-0.248660
C23	C	-4.025973	-0.734360	-0.240558
C24	C	-4.063222	-0.703841	-0.354144
N25	N	-4.054482	-0.590700	-0.447250
N26	N	-4.021256	-0.617958	-0.345850
C27	C	-3.916419	-0.105638	-0.622652
C28	C	-3.979021	-0.104964	-0.763862
C29	C	-4.068418	-0.252297	-0.816157
C30	C	-4.142519	-0.325643	-0.908643
C31	C	-4.201339	-0.325006	-1.041319
C32	C	-4.186061	-0.251013	-1.081511
C33	C	-4.111960	-0.177667	-0.989026
C34	C	-4.053138	-0.178312	-0.856348
C35	C	-4.022579	-0.030336	-0.936731
C36	C	-3.963743	-0.030972	-0.804053
C37	C	-4.007301	0.043656	-0.976923
C38	C	-3.933184	0.117005	-0.884436
C39	C	-3.874360	0.116364	-0.751752
C40	C	-3.889643	0.042375	-0.711568
C41	C	-4.209790	0.038697	-0.378979
C42	C	-4.145336	0.128118	-0.370359
C43	C	-4.180043	-0.103013	-0.170428
C44	C	-4.096679	-0.103683	-0.029217
H45	H	-4.113497	-0.517855	-0.651624
C46	C	-4.268583	-0.900210	-0.617798
C47	C	-4.309479	-0.866642	-0.742737
C48	C	-4.395434	-0.925490	-0.876589
C49	C	-4.440494	-1.017907	-0.885502
C50	C	-4.399599	-1.051480	-0.760559
C51	C	-4.313643	-0.992632	-0.626707
H52	H	-4.276122	-0.798225	-0.736143
H53	H	-4.425707	-0.900636	-0.969080
H54	H	-4.504124	-1.061470	-0.984588
H55	H	-4.432955	-1.119897	-0.767153
H56	H	-4.283370	-1.017486	-0.534216
H57	H	-3.814035	0.176092	-0.676455
C58	C	-4.159315	-0.407031	-0.864427
C59	C	-4.305655	-0.431564	-0.786981
C60	C	-4.322456	-0.512951	-0.742770
C61	C	-4.192919	-0.569805	-0.776005
C62	C	-4.046568	-0.545273	-0.853456
C63	C	-4.029767	-0.463886	-0.897667
H64	H	-4.401556	-0.389477	-0.762375
H65	H	-4.430795	-0.531111	-0.685436
H66	H	-4.205356	-0.630052	-0.743278
H67	H	-3.950667	-0.587360	-0.878062
H68	H	-3.921428	-0.445726	-0.955001
H69	H	-4.055214	0.044170	-1.084958
C70	C	-4.182470	-0.723774	-0.600777
C71	C	-4.061282	-0.740907	-0.692470
C72	C	-4.102241	-0.707345	-0.817423
C73	C	-4.264388	-0.656651	-0.850684
C74	C	-4.385587	-0.639516	-0.758989
C75	C	-4.344628	-0.673077	-0.634036
H76	H	-3.941241	-0.778436	-0.667850
H77	H	-4.012521	-0.720030	-0.885302
H78	H	-4.294709	-0.631807	-0.943182
H79	H	-4.505628	-0.601987	-0.783609
H80	H	-4.434348	-0.660393	-0.566157
H81	H	-3.829375	-0.323738	-0.210063
C82	C	-3.824941	0.041669	-0.565624
C83	C	-3.942511	0.077997	-0.484852
C84	C	-3.877817	0.077288	-0.338909
C85	C	-3.695553	0.040252	-0.273737
C86	C	-3.577970	0.003921	-0.354509
C87	C	-3.642665	0.004630	-0.500452
H88	H	-4.077445	0.105416	-0.533096
H89	H	-3.964860	0.104182	-0.279117
H90	H	-3.647662	0.039727	-0.165700
H91	H	-3.443037	-0.023498	-0.306265
H92	H	-3.555621	-0.022264	-0.560245
H93	H	-4.261680	-0.384731	-1.116623
C94	C	-3.916385	0.198387	-0.928650
C95	C	-3.696936	0.262905	-0.882274
C96	C	-3.680135	0.344289	-0.926494
C97	C	-3.882784	0.361156	-1.017089
C98	C	-4.102250	0.296636	-1.063471
C99	C	-4.119050	0.215252	-1.019251
H100	H	-3.546909	0.250421	-0.815205
H101	H	-3.517671	0.392051	-0.892159
H102	H	-3.870347	0.421401	-1.049823
H103	H	-4.252277	0.309120	-1.130540
H104	H	-4.281514	0.167491	-1.053586
H105	H	-3.903902	-0.476161	-0.224781
C106	C	-4.250783	-0.250313	-1.227457
C107	C	-4.133237	-0.286648	-1.308239
C108	C	-4.197961	-0.285947	-1.454186
C109	C	-4.380230	-0.248910	-1.519351
C110	C	-4.497786	-0.212572	-1.438569
C111	C	-4.433063	-0.213274	-1.292622
H112	H	-3.998301	-0.314067	-1.260000
H113	H	-4.110937	-0.312846	-1.513986
H114	H	-4.428142	-0.248391	-1.627390
H115	H	-4.632722	-0.185153	-1.486808
H116	H	-4.520087	-0.186374	-1.232822
H117	H	-4.036723	-0.843240	-0.156185
H118	H	-3.962239	-0.690805	-0.141467
H119	H	-4.039014	-0.365420	-0.636917
H120	H	-4.020497	-0.252823	-0.708126
