data_functionalizedCrystal
_audit_creation_method	'MofGen! by Chris Wilmer'
_symmetry_space_group_name_H-M	'P1'
_symmetry_Int_Tables_number	1
_symmetry_cell_setting	triclinic
loop_
_symmetry_equiv_pos_as_xyz
  x,y,z
_cell_length_a	18.050589
_cell_length_b	18.215407
_cell_length_c	18.215407
_cell_angle_alpha	89.989764
_cell_angle_beta	90.007870
_cell_angle_gamma	89.971331
loop_
_atom_site_label
_atom_site_type_symbol
_atom_site_fract_x
_atom_site_fract_y
_atom_site_fract_z
Zn1	Zn	-0.295774	-1.124985	0.416138
Zn2	Zn	0.037560	-0.791652	0.749471
Zn3	Zn	0.370893	-0.458318	1.082805
Zn4	Zn	-0.419934	-1.124907	0.293081
Zn5	Zn	-0.086601	-0.791574	0.626414
Zn6	Zn	0.246732	-0.458240	0.959748
Zn7	Zn	-0.295764	-1.001938	0.293085
Zn8	Zn	0.037570	-0.668605	0.626419
Zn9	Zn	0.370903	-0.335272	0.959752
Zn10	Zn	-0.419927	-1.001876	0.416106
Zn11	Zn	-0.086594	-0.668543	0.749439
Zn12	Zn	0.246739	-0.335210	1.082772
O13	O	-0.357850	-1.063427	0.354602
O14	O	-0.024516	-0.730093	0.687936
O15	O	0.308817	-0.396760	1.021269
O16	O	-0.312251	-1.227959	0.399826
O17	O	0.021082	-0.894626	0.733159
O18	O	0.354416	-0.561292	1.066492
O19	O	-0.403462	-1.108588	0.190097
O20	O	-0.070129	-0.775255	0.523431
O21	O	0.263205	-0.441921	0.856764
O22	O	-0.191840	-1.018319	0.309424
O23	O	0.141493	-0.684986	0.642757
O24	O	0.474826	-0.351653	0.976090
O25	O	-0.403471	-1.227902	0.309416
O26	O	-0.070138	-0.894568	0.642750
O27	O	0.263195	-0.561235	0.976083
O28	O	-0.191848	-1.108721	0.399830
O29	O	0.141486	-0.775388	0.733163
O30	O	0.474819	-0.442055	1.066497
O31	O	-0.312234	-1.018244	0.190100
O32	O	0.021099	-0.684910	0.523434
O33	O	0.354433	-0.351577	0.856767
O34	O	-0.312227	-0.898946	0.309393
O35	O	0.021106	-0.565613	0.642726
O36	O	0.354440	-0.232279	0.976059
O37	O	-0.403459	-1.018214	0.519094
O38	O	-0.070126	-0.684881	0.852428
O39	O	0.263208	-0.351547	1.185761
O40	O	-0.403450	-0.898900	0.399775
O41	O	-0.070116	-0.565567	0.733109
O42	O	0.263217	-0.232234	1.066442
O43	O	-0.312244	-1.108661	0.519118
O44	O	0.021089	-0.775328	0.852451
O45	O	0.354423	-0.441995	1.185785
O46	O	-0.523858	-1.108528	0.309385
O47	O	-0.190525	-0.775195	0.642719
O48	O	0.142809	-0.441861	0.976052
O49	O	-0.523853	-1.018138	0.399771
O50	O	-0.190519	-0.684805	0.733104
O51	O	0.142814	-0.351471	1.066438
C52	C	-0.550802	-1.063338	0.354590
C53	C	-0.217469	-0.730005	0.687924
C54	C	0.115865	-0.396671	1.021257
C55	C	-0.633348	-1.063367	0.354610
C56	C	-0.300014	-0.730034	0.687943
C57	C	0.033319	-0.396701	1.021276
C58	C	-0.357837	-0.872220	0.354581
C59	C	-0.024504	-0.538887	0.687915
C60	C	0.308830	-0.205554	1.021248
C61	C	-0.357849	-0.790422	0.354590
C62	C	-0.024516	-0.457088	0.687923
C63	C	0.308817	-0.123755	1.021256
C64	C	-0.357852	-1.063439	0.546555
C65	C	-0.024518	-0.730106	0.879889
C66	C	0.308815	-0.396773	1.213222
C67	C	-0.357853	-1.063445	0.628354
C68	C	-0.024519	-0.730111	0.961688
C69	C	0.308814	-0.396778	1.295021
C70	C	-0.832822	-1.014261	0.403744
C71	C	-0.499489	-0.680928	0.737078
C72	C	-0.166156	-0.347595	1.070411
C73	C	-0.882244	-0.996333	0.336590
C74	C	-0.548911	-0.663000	0.669923
C75	C	-0.215578	-0.329666	1.003257
C76	C	-0.784478	-1.063440	0.354619
C77	C	-0.451145	-0.730106	0.687953
C78	C	-0.117811	-0.396773	1.021286
C79	C	-0.882138	-1.081404	0.421781
C80	C	-0.548804	-0.748071	0.755114
C81	C	-0.215471	-0.414737	1.088448
C82	C	-0.930463	-1.063508	0.354634
C83	C	-0.597130	-0.730175	0.687968
C84	C	-0.263796	-0.396841	1.021301
C85	C	-0.832813	-1.045476	0.287430
C86	C	-0.499479	-0.712142	0.620763
C87	C	-0.166146	-0.378809	0.954096
C88	C	-0.832702	-1.130578	0.372666
C89	C	-0.499369	-0.797245	0.705999
C90	C	-0.166035	-0.463911	1.039332
C91	C	-0.882101	-1.112675	0.305465
C92	C	-0.548768	-0.779342	0.638799
C93	C	-0.215435	-0.446009	0.972132
C94	C	-0.700380	-1.063398	0.354611
C95	C	-0.367046	-0.730065	0.687945
C96	C	-0.033713	-0.396732	1.021278
C97	C	-1.014560	-1.063549	0.354635
C98	C	-0.681226	-0.730216	0.687968
C99	C	-0.347893	-0.396883	1.021301
C100	C	-0.164144	-1.063536	0.354631
C101	C	0.169189	-0.730203	0.687964
C102	C	0.502523	-0.396869	1.021298
C103	C	-0.081598	-1.063583	0.354643
C104	C	0.251735	-0.730249	0.687976
C105	C	0.585068	-0.396916	1.021310
C106	C	-0.357863	-1.255380	0.354624
C107	C	-0.024530	-0.922046	0.687957
C108	C	0.308804	-0.588713	1.021291
C109	C	-0.357869	-1.337179	0.354633
C110	C	-0.024535	-1.003845	0.687967
C111	C	0.308798	-0.670512	1.021300
C112	C	-0.405424	-0.602223	0.401593
C113	C	-0.072090	-0.268890	0.734926
C114	C	0.261243	0.064443	1.068260
C115	C	-0.405426	-0.525364	0.401602
C116	C	-0.072093	-0.192031	0.734935
C117	C	0.261241	0.141302	1.068269
C118	C	-0.310289	-0.525382	0.307628
C119	C	0.023044	-0.192049	0.640961
C120	C	0.356377	0.141284	0.974295
C121	C	-0.310284	-0.602240	0.307623
C122	C	0.023050	-0.268906	0.640956
C123	C	0.356383	0.064427	0.974290
C124	C	-0.357855	-0.640658	0.354604
C125	C	-0.024522	-0.307325	0.687938
C126	C	0.308812	0.026009	1.021271
C127	C	-0.357863	-0.486942	0.354619
C128	C	-0.024530	-0.153609	0.687952
C129	C	0.308804	0.179725	1.021285
C130	C	-0.357865	-0.403608	0.354628
C131	C	-0.024532	-0.070275	0.687962
C132	C	0.308801	0.263058	1.021295
C133	C	-0.357852	-0.723997	0.354596
C134	C	-0.024519	-0.390664	0.687929
C135	C	0.308814	-0.057330	1.021263
C136	C	-0.310365	-1.110526	0.816562
C137	C	0.022969	-0.777193	1.149895
C138	C	0.356302	-0.443859	1.483228
C139	C	-0.310364	-1.110522	0.893420
C140	C	0.022969	-0.777189	1.226754
C141	C	0.356302	-0.443855	1.560087
C142	C	-0.405351	-1.016340	0.893385
C143	C	-0.072018	-0.683006	1.226718
C144	C	0.261315	-0.349673	1.560051
C145	C	-0.405347	-1.016340	0.816527
C146	C	-0.072014	-0.683007	1.149861
C147	C	0.261319	-0.349674	1.483194
C148	C	-0.357855	-1.063438	0.778118
C149	C	-0.024522	-0.730105	1.111451
C150	C	0.308812	-0.396771	1.444784
C151	C	-0.357859	-1.063433	0.931834
C152	C	-0.024525	-0.730100	1.265167
C153	C	0.308808	-0.396766	1.598500
C154	C	-0.357859	-1.063428	1.015167
C155	C	-0.024525	-0.730095	1.348501
C156	C	0.308808	-0.396761	1.681834
C157	C	-0.357854	-1.063442	0.694779
C158	C	-0.024521	-0.730109	1.028112
C159	C	0.308813	-0.396775	1.361445
C160	C	-0.357864	-1.063414	1.163396
C161	C	-0.024530	-0.730081	1.496730
C162	C	0.308803	-0.396748	1.830063
C163	C	-0.357861	-1.063426	1.081597
C164	C	-0.024528	-0.730093	1.414931
C165	C	0.308805	-0.396759	1.748264
H166	H	-0.811183	-0.972612	0.445229
H167	H	-0.477850	-0.639279	0.778562
H168	H	-0.144517	-0.305945	1.111896
H169	H	-0.271543	-0.633534	0.269359
H170	H	0.061790	-0.300201	0.602693
H171	H	0.395123	0.033133	0.936026
H172	H	-0.271692	-1.148865	0.924718
H173	H	0.061642	-0.815531	1.258051
H174	H	0.394975	-0.482198	1.591385
H175	H	-0.271691	-1.148874	0.785291
H176	H	0.061642	-0.815541	1.118624
H177	H	0.394975	-0.482207	1.451958
O178	O	-0.803854	-1.205726	0.392908
O179	O	-0.470520	-0.872393	0.726242
O180	O	-0.137187	-0.539059	1.059575
H181	H	-0.770029	-1.227708	0.347015
H182	H	-0.436695	-0.894375	0.680348
H183	H	-0.103362	-0.561041	1.013681
O184	O	-0.456575	-0.965544	0.934811
O185	O	-0.123242	-0.632210	1.268144
O186	O	0.210091	-0.298877	1.601477
H187	H	-0.448605	-0.973457	0.994714
H188	H	-0.115271	-0.640123	1.328047
H189	H	0.218062	-0.306790	1.661380
O190	O	-0.258998	-0.483931	0.256952
O191	O	0.074335	-0.150597	0.590285
O192	O	0.407668	0.182736	0.923619
H193	H	-0.200726	-0.498694	0.269666
H194	H	0.132607	-0.165361	0.602999
H195	H	0.465941	0.167972	0.936332
O196	O	-0.456550	-0.965529	0.775054
O197	O	-0.123217	-0.632196	1.108387
O198	O	0.210117	-0.298862	1.441721
H199	H	-0.489575	-0.932779	0.814673
H200	H	-0.156241	-0.599445	1.148006
H201	H	0.177092	-0.266112	1.481340
O202	O	-0.910835	-1.101502	0.497007
O203	O	-0.577502	-0.768168	0.830340
O204	O	-0.244169	-0.434835	1.163673
H205	H	-0.891098	-1.060562	0.537667
H206	H	-0.557765	-0.727229	0.871000
H207	H	-0.224432	-0.393896	1.204334
H208	H	-0.904022	-0.939588	0.321340
H209	H	-0.570689	-0.606255	0.654673
H210	H	-0.237355	-0.272921	0.988007
H211	H	-0.444157	-0.633501	0.439850
H212	H	-0.110824	-0.300168	0.773183
H213	H	0.222509	0.033165	1.106517
H214	H	-0.811236	-1.030243	0.230622
H215	H	-0.477903	-0.696910	0.563955
H216	H	-0.144569	-0.363576	0.897289
O217	O	-0.456814	-0.483907	0.452200
O218	O	-0.123480	-0.150573	0.785533
O219	O	0.209853	0.182760	1.118867
H220	H	-0.489922	-0.523536	0.484833
H221	H	-0.156589	-0.190203	0.818166
H222	H	0.176744	0.143130	1.151500
H223	H	-0.903603	-1.154293	0.263880
H224	H	-0.570270	-0.820959	0.597214
H225	H	-0.236937	-0.487626	0.930547
