data_functionalizedCrystal
_audit_creation_method	'MofGen! by Chris Wilmer'
_symmetry_space_group_name_H-M	'P1'
_symmetry_Int_Tables_number	1
_symmetry_cell_setting	triclinic
loop_
_symmetry_equiv_pos_as_xyz
  x,y,z
_cell_length_a	17.077404
_cell_length_b	13.031981
_cell_length_c	17.077396
_cell_angle_alpha	82.787914
_cell_angle_beta	89.981638
_cell_angle_gamma	97.189720
loop_
_atom_site_label
_atom_site_type_symbol
_atom_site_fract_x
_atom_site_fract_y
_atom_site_fract_z
Zn1	Zn	1.160409	-0.416167	-0.404091
Zn2	Zn	1.660409	0.083833	0.095909
Zn3	Zn	1.143664	-0.590961	-0.256139
Zn4	Zn	1.643664	-0.090961	0.243861
Zn5	Zn	1.029138	-0.416196	-0.272839
Zn6	Zn	1.529138	0.083804	0.227161
Zn7	Zn	1.012463	-0.590892	-0.387372
Zn8	Zn	1.512463	-0.090892	0.112628
O9	O	1.086418	-0.503554	-0.330111
O10	O	1.586418	-0.003554	0.169889
O11	O	1.268033	-0.439370	-0.384473
O12	O	1.768033	0.060630	0.115527
O13	O	1.128442	-0.567820	-0.148504
O14	O	1.628442	-0.067820	0.351496
O15	O	1.060537	-0.269929	-0.304236
O16	O	1.560537	0.230071	0.195764
O17	O	1.255730	-0.567791	-0.275774
O18	O	1.755730	-0.067791	0.224226
O19	O	1.156981	-0.269907	-0.400666
O20	O	1.656981	0.230093	0.099334
O21	O	1.044300	-0.439421	-0.160773
O22	O	1.544300	0.060579	0.339227
O23	O	0.917080	-0.439354	-0.288024
O24	O	1.417080	0.060646	0.211976
O25	O	1.032118	-0.567673	-0.499441
O26	O	1.532118	-0.067673	0.000559
O27	O	0.904830	-0.567702	-0.372171
O28	O	1.404830	-0.067702	0.127829
O29	O	1.140813	-0.439303	-0.511725
O30	O	1.640813	0.060697	-0.011725
O31	O	1.112274	-0.737215	-0.259562
O32	O	1.612274	-0.237215	0.240438
O33	O	1.015881	-0.737165	-0.355978
O34	O	1.515881	-0.237165	0.144022
C35	C	0.882473	-0.503525	-0.330096
C36	C	1.382473	-0.003525	0.169904
C37	C	0.795222	-0.503537	-0.330106
C38	C	1.295222	-0.003537	0.169894
C39	C	0.760627	-0.436787	-0.386771
C40	C	1.260627	0.063213	0.113229
C41	C	0.678646	-0.436794	-0.386774
C42	C	1.178646	0.063206	0.113226
C43	C	0.631261	-0.503557	-0.330114
C44	C	1.131261	-0.003557	0.169886
C45	C	0.665861	-0.570309	-0.273443
C46	C	1.165861	-0.070309	0.226557
C47	C	0.747842	-0.570297	-0.273438
C48	C	1.247842	-0.070297	0.226562
C49	C	0.494989	-0.570333	-0.273461
C50	C	0.994989	-0.070333	0.226539
C51	C	0.413003	-0.570348	-0.273467
C52	C	0.913003	-0.070348	0.226533
C53	C	0.425794	-0.436830	-0.386797
C54	C	0.925794	0.063170	0.113203
C55	C	0.507774	-0.436818	-0.386791
C56	C	1.007774	0.063182	0.113209
C57	C	0.542369	-0.503572	-0.330121
C58	C	1.042369	-0.003572	0.169879
C59	C	1.060472	-0.775114	-0.304161
C60	C	1.560472	-0.275114	0.195839
C61	C	1.049444	-0.891289	-0.293085
C62	C	1.549444	-0.391289	0.206915
C63	C	1.092216	-0.942989	-0.335907
C64	C	1.592216	-0.442989	0.164093
C65	C	1.080819	-1.063062	-0.324461
C66	C	1.580819	-0.563062	0.175539
C67	C	1.291160	-0.503585	-0.330126
C68	C	1.791160	-0.003585	0.169874
C69	C	1.378408	-0.503598	-0.330132
C70	C	1.878408	-0.003598	0.169868
C71	C	1.086473	-0.503477	-0.534862
C72	C	1.586473	-0.003477	-0.034862
C73	C	1.086497	-0.503444	-0.622115
C74	C	1.586497	-0.003444	-0.122115
C75	C	1.112487	-0.230934	-0.356179
C76	C	1.612487	0.269066	0.143821
C77	C	1.123596	-0.114759	-0.367288
C78	C	1.623596	0.385241	0.132712
C79	C	1.143096	-0.436596	-0.669503
C80	C	1.643096	0.063404	-0.169503
C81	C	1.143109	-0.436562	-0.751487
C82	C	1.643109	0.063438	-0.251487
C83	C	1.086525	-0.503381	-0.786081
C84	C	1.586525	-0.003381	-0.286081
C85	C	1.029919	-0.570232	-0.738687
C86	C	1.529919	-0.070232	-0.238687
C87	C	1.029904	-0.570261	-0.656705
C88	C	1.529904	-0.070261	-0.156705
C89	C	1.029957	-0.570169	-0.909563
C90	C	1.529957	-0.070169	-0.409563
C91	C	1.029973	-0.570142	-0.991550
C92	C	1.529973	-0.070142	-0.491550
C93	C	1.143162	-0.436470	-1.004345
C94	C	1.643162	0.063530	-0.504345
C95	C	1.143147	-0.436499	-0.922363
C96	C	1.643147	0.063501	-0.422363
C97	C	1.086542	-0.503351	-0.874975
C98	C	1.586542	-0.003351	-0.374975
C99	C	1.086416	-0.503556	-0.126163
C100	C	1.586416	-0.003556	0.373837
C101	C	1.086573	-0.503294	-0.038938
C102	C	1.586573	-0.003294	0.461062
H103	H	0.546353	-0.382460	-0.432932
H104	H	1.046353	0.117540	0.067068
O105	O	0.614758	-0.642314	-0.212325
O106	O	1.114758	-0.142314	0.287675
H107	H	0.572345	-0.695566	-0.242305
H108	H	1.072345	-0.195566	0.257695
H109	H	1.189176	-0.382188	-0.641343
H110	H	1.689176	0.117812	-0.141343
H111	H	1.189200	-0.382130	-0.790067
H112	H	1.689200	0.117870	-0.290067
O113	O	0.388490	-0.364819	-0.447918
O114	O	0.888490	0.135181	0.052082
H115	H	0.323524	-0.376031	-0.438398
H116	H	0.823524	0.123969	0.061602
O117	O	1.204178	-0.364432	-0.885051
O118	O	1.704178	0.135568	-0.385051
H119	H	1.239635	-0.411239	-0.843238
H120	H	1.739635	0.088761	-0.343238
O121	O	1.183299	-1.055665	-0.427066
O122	O	1.683299	-0.555665	0.072934
H123	H	1.167845	-1.076507	-0.486693
H124	H	1.667845	-0.576507	0.013307
O125	O	0.989768	-0.950392	-0.233289
O126	O	1.489768	-0.450392	0.266711
H127	H	0.990188	-1.035427	-0.233675
H128	H	1.490188	-0.535427	0.266325
O129	O	1.204211	-0.364352	-1.055451
O130	O	1.704211	0.135648	-0.555451
H131	H	1.194711	-0.375543	-1.118271
H132	H	1.694711	0.124457	-0.618271
O133	O	1.151904	-0.883886	-0.395692
O134	O	1.651904	-0.383886	0.104308
H135	H	1.151494	-0.798851	-0.395295
H136	H	1.651494	-0.298851	0.104705
H137	H	0.983807	-0.624685	-0.618123
H138	H	1.483807	-0.124685	-0.118123
H139	H	0.983896	-0.624550	-1.019714
H140	H	1.483896	-0.124550	-0.519714
O141	O	1.021129	-1.122161	-0.264670
O142	O	1.521129	-0.622161	0.235330
H143	H	1.036592	-1.101300	-0.205050
H144	H	1.536592	-0.601300	0.294950
H145	H	0.983845	-0.624633	-0.766860
H146	H	1.483845	-0.124633	-0.266860
O147	O	0.811736	-0.364772	-0.447878
O148	O	1.311736	0.135228	0.052122
H149	H	0.773904	-0.318349	-0.487275
H150	H	1.273904	0.181651	0.012725
O151	O	0.641330	-0.364799	-0.447890
O152	O	1.141330	0.135201	0.052110
H153	H	0.688052	-0.318382	-0.487293
H154	H	1.188052	0.181618	0.012707
O155	O	0.361891	-0.642339	-0.212349
O156	O	0.861891	-0.142339	0.287651
H157	H	0.369797	-0.724397	-0.217851
H158	H	0.869797	-0.224397	0.282149
O159	O	0.532307	-0.642333	-0.212341
O160	O	1.032307	-0.142333	0.287659
H161	H	0.485585	-0.688769	-0.172948
H162	H	0.985585	-0.188769	0.327052
O163	O	0.785161	-0.642292	-0.212322
O164	O	1.285161	-0.142292	0.287678
H165	H	0.738439	-0.688725	-0.172927
H166	H	1.238439	-0.188725	0.327073
H167	H	0.983852	-0.624591	-0.870983
H168	H	1.483852	-0.124591	-0.370983
