data_functionalizedCrystal
_audit_creation_method	'MofGen! by Chris Wilmer'
_symmetry_space_group_name_H-M	'P1'
_symmetry_Int_Tables_number	1
_symmetry_cell_setting	triclinic
loop_
_symmetry_equiv_pos_as_xyz
  x,y,z
_cell_length_a	11.169416
_cell_length_b	11.169417
_cell_length_c	11.169409
_cell_angle_alpha	90.022388
_cell_angle_beta	89.969184
_cell_angle_gamma	89.991438
loop_
_atom_site_label
_atom_site_type_symbol
_atom_site_fract_x
_atom_site_fract_y
_atom_site_fract_z
Zn1	Zn	-0.477768	-1.834971	-0.678613
Zn2	Zn	-0.678508	-1.834858	-0.477935
Zn3	Zn	-0.477831	-1.634254	-0.477941
Zn4	Zn	-0.678401	-1.634264	-0.678574
O5	O	-0.578127	-1.734587	-0.578266
O6	O	-0.504414	-2.002906	-0.652007
O7	O	-0.651959	-1.808196	-0.309986
O8	O	-0.309873	-1.660923	-0.504580
O9	O	-0.651897	-2.002823	-0.504570
O10	O	-0.309826	-1.808389	-0.652013
O11	O	-0.504523	-1.660813	-0.309991
O12	O	-0.504419	-1.466306	-0.504542
O13	O	-0.651715	-1.660940	-0.846529
O14	O	-0.651777	-1.466313	-0.651945
O15	O	-0.504311	-1.808399	-0.846558
O16	O	-0.846443	-1.808206	-0.504531
O17	O	-0.846365	-1.660830	-0.651940
C18	C	-0.889952	-1.734539	-0.578257
C19	C	-1.023352	-1.734629	-0.578293
C20	C	-0.578094	-1.422762	-0.578241
C21	C	-0.578109	-1.289362	-0.578258
C22	C	-0.577994	-1.734683	-0.891309
C23	C	-0.577937	-1.734724	-1.024709
C24	C	-0.265085	-1.734667	-0.578301
C25	C	-0.131685	-1.734702	-0.578316
C26	C	-0.578149	-1.047629	-0.578284
C27	C	-0.578129	-1.181029	-0.578271
C28	C	-0.578173	-1.734560	-0.266441
C29	C	-0.577891	-1.734752	-0.133042
