data_functionalizedCrystal
_audit_creation_method	'MofGen! by Chris Wilmer'
_symmetry_space_group_name_H-M	'P1'
_symmetry_Int_Tables_number	1
_symmetry_cell_setting	triclinic
loop_
_symmetry_equiv_pos_as_xyz
  x,y,z
_cell_length_a	23.196402
_cell_length_b	14.560438
_cell_length_c	14.560438
_cell_angle_alpha	90.000927
_cell_angle_beta	60.000192
_cell_angle_gamma	60.004966
loop_
_atom_site_label
_atom_site_type_symbol
_atom_site_fract_x
_atom_site_fract_y
_atom_site_fract_z
Zr1	Zr	0.630988	0.884851	-0.120497
O2	O	0.751249	0.738220	-0.267137
O3	O	0.510727	0.929787	-0.075549
O4	O	0.630990	0.929802	-0.267146
O5	O	0.630984	0.738209	0.075601
O6	O	0.630992	1.080940	-0.267148
O7	O	0.630986	0.738206	-0.075540
O8	O	0.415863	1.080914	0.075584
O9	O	0.846113	0.738235	-0.267132
O10	O	0.560193	1.061761	-0.056375
O11	O	0.560191	0.948971	0.056421
O12	O	0.701785	0.948988	-0.169160
O13	O	0.701783	0.836198	-0.056364
Zr14	Zr	0.630988	1.125905	0.120552
Zr15	Zr	0.630990	1.125898	-0.120500
Zr16	Zr	0.630985	0.884857	0.120555
Zr17	Zr	0.782285	0.884875	-0.120488
Zr18	Zr	0.479691	1.125880	0.120543
O19	O	0.751249	1.080968	0.075604
O20	O	0.751253	1.080959	-0.267141
O21	O	0.751245	0.738229	0.075608
O22	O	0.510727	1.272535	0.267192
O23	O	0.510731	1.272526	-0.075553
O24	O	0.510723	0.929796	0.267196
O25	O	0.630992	1.272546	-0.075545
O26	O	0.630986	1.080953	0.267202
O27	O	0.630984	0.929815	0.267203
O28	O	0.630990	1.272549	0.075595
O29	O	0.846115	0.929836	-0.267134
O30	O	0.415861	1.080919	0.267189
O31	O	0.415863	1.272520	0.267187
O32	O	0.415865	1.272515	0.075583
O33	O	0.846111	0.738240	-0.075527
O34	O	0.846113	0.929841	-0.075529
O35	O	0.560191	1.061767	0.169215
O36	O	0.560193	1.174557	0.056419
O37	O	0.701785	1.061784	-0.056366
O38	O	0.701783	0.948994	0.056430
C39	C	0.441738	1.005347	0.000016
C40	C	0.377508	1.005337	0.000013
C41	C	0.295080	1.088603	0.083269
C42	C	0.234719	1.088611	0.083279
C43	C	0.256793	1.005360	0.000016
C44	C	0.339235	0.922080	-0.083248
C45	C	0.399593	0.922068	-0.083249
C46	C	0.201206	0.979433	-0.101612
C47	C	0.140847	0.979452	-0.101611
C48	C	0.070631	1.005391	0.000020
C49	C	0.060771	1.031334	0.101657
C50	C	0.121129	1.031322	0.101656
C51	C	0.191350	1.005364	0.000009
C52	C	-0.077251	1.088670	0.083295
C53	C	-0.137610	1.088670	0.083306
C54	C	-0.033092	0.922143	-0.083230
C55	C	0.027265	0.922139	-0.083232
C56	C	0.005180	1.005408	0.000030
C57	C	0.630984	0.703863	0.000031
C58	C	0.630983	0.601532	0.000032
C59	C	0.557080	0.516158	0.058899
C60	C	0.557075	0.612314	0.058901
C61	C	0.704902	0.494586	-0.058852
C62	C	0.704906	0.398432	-0.058858
C63	C	0.820238	1.005408	0.000039
C64	C	0.884467	1.005418	0.000043
C65	C	0.630991	1.005370	-0.301492
C66	C	0.630992	1.005367	-0.403825
C67	C	0.630991	1.306892	0.000025
C68	C	0.630992	1.409223	0.000024
C69	C	0.704900	0.946502	-0.510774
C70	C	0.704896	0.946515	-0.606923
C71	C	0.557070	1.064260	-0.489160
C72	C	0.557074	1.064253	-0.393013
C73	C	0.630985	1.005385	0.301547
C74	C	0.630984	1.005388	0.403880
C75	C	0.441741	1.306861	0.000013
C76	C	0.377513	1.409182	0.000009
C77	C	0.441735	1.005355	0.301536
C78	C	0.377504	1.005347	0.403865
C79	C	0.441738	1.306869	0.301533
C80	C	0.377509	1.409192	0.403861
C81	C	0.820237	0.703886	-0.301478
C82	C	0.884467	0.601563	-0.403806
C83	C	0.820234	0.703894	0.000042
C84	C	0.884463	0.601573	0.000047
C85	C	0.820241	1.005400	-0.301481
C86	C	0.884472	1.005408	-0.403810
C87	C	0.347351	1.398355	-0.058881
C88	C	0.287009	1.494487	-0.058908
C89	C	0.256828	1.601445	-0.000038
C90	C	0.286996	1.612270	0.058853
C91	C	0.347340	1.516139	0.058873
C92	C	0.347341	1.064221	0.510807
C93	C	0.286998	1.064210	0.606965
C94	C	0.256815	1.005330	0.596179
C95	C	0.286984	0.946448	0.489226
C96	C	0.347330	0.946454	0.393070
C97	C	0.347347	1.516130	0.393037
C98	C	0.287005	1.612283	0.489176
C99	C	0.256821	1.601496	0.596138
C100	C	0.286989	1.494547	0.606959
C101	C	0.347334	1.398397	0.510822
C102	C	0.914636	0.494625	-0.392982
C103	C	0.974997	0.398472	-0.489121
C104	C	1.005183	0.409259	-0.596082
C105	C	0.975012	0.516208	-0.606904
C106	C	0.914656	0.612358	-0.510766
C107	C	0.914631	0.612400	0.058926
C108	C	0.974989	0.516268	0.058927
C109	C	1.005173	0.409310	0.000054
C110	C	0.975002	0.398485	-0.058833
C111	C	0.914649	0.494616	-0.058839
C112	C	0.914635	1.064300	-0.392987
C113	C	0.974979	1.064329	-0.489127
C114	C	1.005162	1.005459	-0.596088
C115	C	0.974992	0.946566	-0.606908
C116	C	0.914646	0.946544	-0.510770
H117	H	0.167594	1.156417	0.151079
Cl118	Cl	0.876731	0.746790	-0.524393
Cl119	Cl	0.153247	0.946838	-0.229381
H120	H	0.207691	1.679712	-0.000063
Cl121	Cl	0.464150	1.138274	-0.475579
H122	H	0.003602	1.052447	0.184415
Cl123	Cl	0.180949	1.005336	0.717074
Cl124	Cl	0.249034	1.481005	0.741434
H125	H	0.207685	1.679797	0.674410
Cl126	Cl	1.012911	0.264037	-0.475490
H127	H	0.371914	1.524934	0.305952
Cl128	Cl	0.249029	0.872435	0.475685
Cl129	Cl	1.081030	1.005494	-0.716939
Cl130	Cl	0.249092	1.480853	-0.132943
H131	H	0.262413	1.699368	0.106782
Cl132	Cl	0.876699	0.481035	-0.258527
H133	H	0.094384	0.854340	-0.151034
H134	H	0.496895	0.524951	0.106843
Cl135	Cl	1.012967	0.529750	-0.741379
Cl136	Cl	1.012953	0.872551	-0.741383
Cl137	Cl	0.876703	0.746850	0.132941
H138	H	0.262449	1.699356	0.480345
H139	H	0.371891	1.524971	0.106834
H140	H	1.054329	0.330958	-0.674355
Cl141	Cl	0.385238	0.872440	0.258632
Cl142	Cl	0.385270	1.138254	0.524396
H143	H	0.371884	1.311327	0.519650
H144	H	0.765089	0.898554	-0.519583
H145	H	0.999545	0.525104	0.106883
H146	H	0.262441	1.112162	0.694042
Cl147	Cl	1.012899	1.138364	-0.475499
H148	H	1.054316	0.331043	0.000068
Cl149	Cl	1.012952	0.264014	-0.132834
Cl150	Cl	0.876741	0.872489	-0.524395
Cl151	Cl	0.876703	1.138318	-0.258534
Cl152	Cl	0.267313	1.193275	0.187949
Cl153	Cl	0.108736	1.063932	0.229421
H154	H	0.890088	0.485784	-0.106783
Cl155	Cl	0.797814	0.872512	-0.741372
H156	H	0.371924	1.311273	-0.106833
Cl157	Cl	-0.105010	1.193346	0.187967
H158	H	-0.204731	1.156475	0.151110
Cl159	Cl	0.464152	0.746747	0.132917
H160	H	-0.015119	0.854358	-0.151024
H161	H	0.258382	0.958299	-0.184379
Cl162	Cl	0.366985	0.817417	-0.187917
H163	H	0.466714	0.854257	-0.151046
H164	H	0.765079	0.485814	-0.106789
H165	H	0.765098	0.311354	-0.106808
H166	H	0.496886	1.112193	-0.305925
