data_functionalizedCrystal
_audit_creation_method	'MofGen! by Chris Wilmer'
_symmetry_space_group_name_H-M	'P1'
_symmetry_Int_Tables_number	1
_symmetry_cell_setting	triclinic
loop_
_symmetry_equiv_pos_as_xyz
  x,y,z
_cell_length_a	19.805407
_cell_length_b	18.050590
_cell_length_c	19.805399
_cell_angle_alpha	89.972574
_cell_angle_beta	89.982197
_cell_angle_gamma	90.015869
loop_
_atom_site_label
_atom_site_type_symbol
_atom_site_fract_x
_atom_site_fract_y
_atom_site_fract_z
Zn1	Zn	1.034773	-0.295730	-0.382688
Zn2	Zn	1.534773	0.204270	0.117312
Zn3	Zn	1.034703	-0.419922	-0.269500
Zn4	Zn	1.534703	0.080078	0.230500
Zn5	Zn	0.921587	-0.295744	-0.269516
Zn6	Zn	1.421587	0.204256	0.230484
Zn7	Zn	0.921566	-0.419877	-0.382651
Zn8	Zn	1.421566	0.080123	0.117349
O9	O	0.978157	-0.357818	-0.326089
O10	O	1.478157	0.142182	0.173911
O11	O	1.129480	-0.312217	-0.367683
O12	O	1.629480	0.187783	0.132317
O13	O	1.019678	-0.403475	-0.174786
O14	O	1.519678	0.096525	0.325214
O15	O	0.936639	-0.191818	-0.284551
O16	O	1.436639	0.308182	0.215449
O17	O	1.129429	-0.403460	-0.284524
O18	O	1.629429	0.096540	0.215476
O19	O	1.019796	-0.191807	-0.367698
O20	O	1.519796	0.308193	0.132302
O21	O	0.936572	-0.312242	-0.174798
O22	O	1.436572	0.187758	0.325202
O23	O	0.826868	-0.312198	-0.284515
O24	O	1.326868	0.187802	0.215485
O25	O	0.936604	-0.403383	-0.477372
O26	O	1.436604	0.096617	0.022628
O27	O	0.826853	-0.403397	-0.367634
O28	O	1.326853	0.096603	0.132366
O29	O	1.019776	-0.312173	-0.477400
O30	O	1.519776	0.187827	0.022600
O31	O	1.019657	-0.523841	-0.284488
O32	O	1.519657	-0.023841	0.215512
O33	O	0.936536	-0.523807	-0.367619
O34	O	1.436536	-0.023807	0.132381
C35	C	0.802301	-0.357795	-0.326073
C36	C	1.302301	0.142205	0.173927
C37	C	0.727069	-0.357803	-0.326082
C38	C	1.227069	0.142197	0.173918
C39	C	0.978105	-0.550770	-0.326062
C40	C	1.478105	-0.050770	0.173938
C41	C	0.978145	-0.633316	-0.326073
C42	C	1.478145	-0.133316	0.173927
C43	C	0.691752	-0.310377	-0.369448
C44	C	1.191752	0.189623	0.130552
C45	C	0.621064	-0.310380	-0.369451
C46	C	1.121064	0.189620	0.130549
C47	C	0.585694	-0.357815	-0.326090
C48	C	1.085694	0.142185	0.173910
C49	C	0.621016	-0.405244	-0.282718
C50	C	1.121016	0.094756	0.217282
C51	C	0.691703	-0.405235	-0.282713
C52	C	1.191703	0.094765	0.217287
C53	C	0.335942	-0.405277	-0.282739
C54	C	0.835942	0.094723	0.217261
C55	C	0.265250	-0.405283	-0.282749
C56	C	0.765250	0.094717	0.217251
C57	C	0.265304	-0.310422	-0.369477
C58	C	0.765304	0.189578	0.130523
C59	C	0.335991	-0.310414	-0.369472
C60	C	0.835991	0.189586	0.130528
C61	C	0.371306	-0.357839	-0.326098
C62	C	0.871306	0.142161	0.173902
C63	C	0.447955	-0.357833	-0.326095
C64	C	0.947955	0.142167	0.173905
C65	C	0.509047	-0.357825	-0.326096
C66	C	1.009047	0.142175	0.173904
C67	C	1.023440	-0.832758	-0.280930
C68	C	1.523440	-0.332758	0.219070
C69	C	1.039973	-0.882093	-0.342704
C70	C	1.539973	-0.382093	0.157296
C71	C	0.978183	-0.784446	-0.326100
C72	C	1.478183	-0.284446	0.173900
C73	C	0.961720	-0.882194	-0.264353
C74	C	1.461720	-0.382194	0.235647
C75	C	0.978222	-0.930432	-0.326121
C76	C	1.478222	-0.430432	0.173879
C77	C	0.994748	-0.832694	-0.387907
C78	C	1.494748	-0.332694	0.112093
C79	C	0.916466	-0.832791	-0.309515
C80	C	1.416466	-0.332791	0.190485
C81	C	0.932975	-0.882103	-0.371332
C82	C	1.432975	-0.382103	0.128668
C83	C	0.978163	-0.700348	-0.326087
C84	C	1.478163	-0.200348	0.173913
C85	C	0.978242	-1.014528	-0.326141
C86	C	1.478242	-0.514528	0.173859
C87	C	1.154700	-0.357842	-0.326106
C88	C	1.654700	0.142158	0.173894
C89	C	1.229932	-0.357852	-0.326113
C90	C	1.729932	0.142148	0.173887
C91	C	0.978195	-0.357771	-0.502632
C92	C	1.478195	0.142229	-0.002632
C93	C	0.978211	-0.357752	-0.577864
C94	C	1.478211	0.142248	-0.077864
C95	C	0.978228	-0.164113	-0.326131
C96	C	1.478228	0.335887	0.173869
C97	C	0.978258	-0.081567	-0.326149
C98	C	1.478258	0.418433	0.173851
C99	C	1.021520	-0.310256	-0.613223
C100	C	1.521520	0.189744	-0.113223
C101	C	1.021527	-0.310235	-0.683912
C102	C	1.521527	0.189765	-0.183912
C103	C	0.978228	-0.357713	-0.719239
C104	C	1.478228	0.142287	-0.219239
C105	C	0.934915	-0.405210	-0.683875
C106	C	1.434915	0.094790	-0.183875
C107	C	0.934905	-0.405228	-0.613188
C108	C	1.434905	0.094772	-0.113188
C109	C	0.934953	-0.405141	-0.968948
C110	C	1.434953	0.094859	-0.468948
C111	C	0.934968	-0.405122	-1.039640
C112	C	1.434968	0.094878	-0.539640
C113	C	1.021575	-0.310148	-1.039673
C114	C	1.521575	0.189852	-0.539673
C115	C	1.021565	-0.310165	-0.968985
C116	C	1.521565	0.189835	-0.468985
C117	C	0.978250	-0.357660	-0.933627
C118	C	1.478250	0.142340	-0.433627
C119	C	0.978242	-0.357682	-0.856979
C120	C	1.478242	0.142318	-0.356979
C121	C	0.978239	-0.357695	-0.795887
C122	C	1.478239	0.142305	-0.295887
C123	C	0.978158	-0.357811	-0.150233
C124	C	1.478158	0.142189	0.349767
C125	C	0.978273	-0.357622	-0.075001
C126	C	1.478273	0.142378	0.424999
H127	H	0.720546	-0.271752	-0.404760
H128	H	1.220546	0.228248	0.095240
H129	H	0.899658	-0.443865	-0.712644
H130	H	1.399658	0.056135	-0.212644
H131	H	1.061725	-0.811091	-0.242770
H132	H	1.561725	-0.311091	0.257230
H133	H	0.864271	-0.811116	-0.295455
H134	H	1.364271	-0.311116	0.204545
O135	O	1.063567	-0.263993	-0.718181
O136	O	1.563567	0.236007	-0.218181
C137	C	1.048790	-0.189979	-0.700926
C138	C	1.548790	0.310021	-0.200926
H139	H	1.022760	-0.188456	-0.649600
H140	H	1.522760	0.311544	-0.149600
H141	H	1.014009	-0.164942	-0.740709
H142	H	1.514009	0.335058	-0.240709
C143	C	1.146761	-0.146877	-0.760710
C144	C	1.646761	0.353123	-0.260710
C145	C	1.114797	-0.145006	-0.697668
C146	C	1.614797	0.354994	-0.197668
H147	H	1.187477	-0.119135	-0.758704
H148	H	1.687477	0.380865	-0.258704
H149	H	1.156716	-0.196742	-0.772338
H150	H	1.656716	0.303258	-0.272338
H151	H	1.117771	-0.126015	-0.793856
H152	H	1.617771	0.373985	-0.293856
H153	H	1.143784	-0.165877	-0.664526
H154	H	1.643784	0.334123	-0.164526
H155	H	1.104848	-0.095144	-0.686035
H156	H	1.604848	0.404856	-0.186035
H157	H	1.056843	-0.271473	-1.068470
H158	H	1.556843	0.228527	-0.568470
H159	H	0.899705	-0.443786	-1.068402
H160	H	1.399705	0.056214	-0.568402
H161	H	0.592312	-0.271762	-0.404766
H162	H	1.092312	0.228238	0.095234
O163	O	1.102216	-0.907956	-0.359579
O164	O	1.602216	-0.407956	0.140421
C165	C	1.097514	-0.950874	-0.418854
C166	C	1.597514	-0.450874	0.081146
H167	H	1.050497	-0.934035	-0.448283
H168	H	1.550497	-0.434035	0.051717
H169	H	1.094038	-1.012020	-0.404834
H170	H	1.594038	-0.512020	0.095166
C171	C	1.218335	-0.958587	-0.426644
C172	C	1.718335	-0.458587	0.073356
C173	C	1.160590	-0.937900	-0.462792
C174	C	1.660590	-0.437900	0.037208
H175	H	1.257244	-0.950587	-0.453746
H176	H	1.757244	-0.450587	0.046254
H177	H	1.221503	-0.929675	-0.386708
H178	H	1.721503	-0.429675	0.113292
H179	H	1.215429	-1.009541	-0.414963
H180	H	1.715429	-0.509541	0.085037
H181	H	1.163494	-0.886945	-0.474465
H182	H	1.663494	-0.386945	0.025535
H183	H	1.157424	-0.966803	-0.502731
H184	H	1.657424	-0.466803	-0.002731
O185	O	0.887260	-0.907831	-0.416869
O186	O	1.387260	-0.407831	0.083131
C187	C	0.838249	-0.950882	-0.383258
C188	C	1.338249	-0.450882	0.116742
H189	H	0.836242	-0.934220	-0.327781
H190	H	1.336242	-0.434220	0.172219
H191	H	0.852110	-1.012008	-0.387391
H192	H	1.352110	-0.512008	0.112609
C193	C	0.771162	-0.958309	-0.484039
C194	C	1.271162	-0.458309	0.015961
C195	C	0.768694	-0.937840	-0.415902
C196	C	1.268694	-0.437840	0.084098
H197	H	0.728258	-0.950268	-0.504176
H198	H	1.228258	-0.450268	-0.004176
H199	H	0.804183	-0.929307	-0.506684
H200	H	1.304183	-0.429307	-0.006684
H201	H	0.782716	-1.009246	-0.487474
H202	H	1.282716	-0.509246	0.012526
H203	H	0.757148	-0.886903	-0.412469
H204	H	1.257148	-0.386903	0.087531
H205	H	0.735669	-0.966834	-0.393257
H206	H	1.235669	-0.466834	0.106743
O207	O	0.945162	-0.908043	-0.201998
O208	O	1.445162	-0.408043	0.298002
C209	C	0.993002	-0.882916	-0.154532
C210	C	1.493002	-0.382916	0.345468
H211	H	1.018758	-0.830885	-0.174603
H212	H	1.518758	-0.330885	0.325397
H213	H	1.032439	-0.927885	-0.145723
H214	H	1.532439	-0.427885	0.354277
C215	C	0.925560	-0.928913	-0.062821
C216	C	1.425560	-0.428913	0.437179
C217	C	0.957190	-0.865004	-0.087469
C218	C	1.457190	-0.365004	0.412531
H219	H	0.903472	-0.917867	-0.021452
H220	H	1.403472	-0.417867	0.478548
H221	H	0.893330	-0.945845	-0.094799
H222	H	1.393330	-0.445845	0.405201
H223	H	0.958430	-0.966382	-0.055485
H224	H	1.458430	-0.466382	0.444515
H225	H	0.924320	-0.827540	-0.094812
H226	H	1.424320	-0.327540	0.405188
H227	H	0.989414	-0.848065	-0.055491
H228	H	1.489414	-0.348065	0.444509
O229	O	1.063486	-0.264096	-0.578836
O230	O	1.563486	0.235904	-0.078836
C231	C	1.024960	-0.216122	-0.537967
C232	C	1.524960	0.283878	-0.037967
H233	H	0.973657	-0.242314	-0.527360
H234	H	1.473657	0.257686	-0.027360
H235	H	1.017543	-0.161081	-0.565224
H236	H	1.517543	0.338919	-0.065224
C237	C	1.125208	-0.170521	-0.483861
C238	C	1.625208	0.329479	0.016139
C239	C	1.062199	-0.202692	-0.470828
C240	C	1.562199	0.297308	0.029172
H241	H	1.148179	-0.162233	-0.442447
H242	H	1.648179	0.337767	0.057553
H243	H	1.151165	-0.202839	-0.511396
H244	H	1.651165	0.297161	-0.011396
H245	H	1.119018	-0.124657	-0.506576
H246	H	1.619018	0.375343	-0.006576
H247	H	1.068389	-0.248559	-0.448120
H248	H	1.568389	0.251441	0.051880
H249	H	1.036244	-0.170381	-0.443286
H250	H	1.536244	0.329619	0.056714
O251	O	0.370244	-0.264265	-0.411614
O252	O	0.870244	0.235735	0.088386
C253	C	0.323914	-0.222417	-0.449903
C254	C	0.823914	0.277583	0.050097
H255	H	0.273514	-0.219812	-0.422189
H256	H	0.773514	0.280188	0.077811
H257	H	0.316413	-0.249686	-0.501266
H258	H	0.816413	0.250314	-0.001266
C259	C	0.413420	-0.146587	-0.493820
C260	C	0.913420	0.353413	0.006180
C261	C	0.351520	-0.143382	-0.459779
C262	C	0.851520	0.356618	0.040221
H263	H	0.430449	-0.097836	-0.499916
H264	H	0.930449	0.402164	0.000084
H265	H	0.444634	-0.174782	-0.468026
H266	H	0.944634	0.325218	0.031974
H267	H	0.407161	-0.169314	-0.536619
H268	H	0.907161	0.330686	-0.036619
H269	H	0.357781	-0.120664	-0.416978
H270	H	0.857781	0.379336	0.083022
H271	H	0.320307	-0.115181	-0.485566
H272	H	0.820307	0.384819	0.014434
O273	O	1.063647	-0.263974	-0.934774
O274	O	1.563647	0.236026	-0.434774
C275	C	1.101886	-0.222060	-0.981142
C276	C	1.601886	0.277940	-0.481142
H277	H	1.074172	-0.219473	-1.031527
H278	H	1.574172	0.280527	-0.531527
H279	H	1.153284	-0.249259	-0.988661
H280	H	1.653284	0.250741	-0.488661
C281	C	1.145702	-0.146205	-0.891690
C282	C	1.645702	0.353795	-0.391690
C283	C	1.111661	-0.143022	-0.953572
C284	C	1.611661	0.356978	-0.453572
H285	H	1.151735	-0.097452	-0.874683
H286	H	1.651735	0.402548	-0.374683
H287	H	1.119942	-0.174445	-0.860450
H288	H	1.619942	0.325555	-0.360450
H289	H	1.188530	-0.168874	-0.897963
H290	H	1.688530	0.331126	-0.397963
H291	H	1.068831	-0.120362	-0.947296
H292	H	1.568831	0.379638	-0.447296
H293	H	1.137414	-0.114776	-0.984810
H294	H	1.637414	0.385224	-0.484810
H295	H	0.899692	-0.443825	-0.940168
H296	H	1.399692	0.056175	-0.440168
H297	H	1.008637	-0.811043	-0.440179
H298	H	1.508637	-0.311043	0.059821
O299	O	0.230995	-0.451384	-0.240559
O300	O	0.730995	0.048616	0.259441
C301	C	0.277322	-0.493254	-0.202285
C302	C	0.777322	0.006746	0.297715
H303	H	0.327715	-0.462828	-0.199985
H304	H	0.827715	0.037172	0.300015
H305	H	0.284841	-0.549694	-0.226974
H306	H	0.784841	-0.049694	0.273026
C307	C	0.187804	-0.541219	-0.133060
C308	C	0.687804	-0.041219	0.366940
C309	C	0.249696	-0.503846	-0.130230
C310	C	0.749696	-0.003846	0.369770
H311	H	0.170763	-0.547756	-0.088613
H312	H	0.670763	-0.047756	0.411387
H313	H	0.156592	-0.513013	-0.158847
H314	H	0.656592	-0.013013	0.341153
H315	H	0.194079	-0.588249	-0.153636
H316	H	0.694079	-0.088249	0.346364
H317	H	0.243419	-0.456814	-0.109662
H318	H	0.743419	0.043186	0.390338
H319	H	0.280907	-0.532044	-0.104438
H320	H	0.780907	-0.032044	0.395562
O321	O	0.726116	-0.451238	-0.240610
O322	O	1.226116	0.048762	0.259390
C323	C	0.796091	-0.441072	-0.249913
C324	C	1.296091	0.058928	0.250087
H325	H	0.805762	-0.383790	-0.272175
H326	H	1.305762	0.116210	0.227825
H327	H	0.816158	-0.485172	-0.285883
H328	H	1.316158	0.014828	0.214117
C329	C	0.820475	-0.518126	-0.154074
C330	C	1.320475	-0.018126	0.345926
C331	C	0.832354	-0.447769	-0.181410
C332	C	1.332354	0.052231	0.318590
H333	H	0.842846	-0.522261	-0.111819
H334	H	1.342846	-0.022261	0.388181
H335	H	0.773333	-0.524978	-0.147807
H336	H	1.273333	-0.024978	0.352193
H337	H	0.837199	-0.554869	-0.184055
H338	H	1.337199	-0.054869	0.315945
H339	H	0.815624	-0.411029	-0.151433
H340	H	1.315624	0.088971	0.348567
H341	H	0.879495	-0.440912	-0.187670
H342	H	1.379495	0.059088	0.312330
O343	O	0.370314	-0.451388	-0.240706
O344	O	0.870314	0.048612	0.259294
C345	C	0.411196	-0.499419	-0.279159
C346	C	0.911196	0.000581	0.220841
H347	H	0.421818	-0.473297	-0.330492
H348	H	0.921818	0.026703	0.169508
H349	H	0.383944	-0.554465	-0.286514
H350	H	0.883944	-0.054465	0.213486
C351	C	0.465274	-0.544898	-0.178837
C352	C	0.965274	-0.044898	0.321163
C353	C	0.478325	-0.512812	-0.241883
C354	C	0.978325	-0.012812	0.258117
H355	H	0.506681	-0.553163	-0.155842
H356	H	1.006681	-0.053163	0.344158
H357	H	0.437729	-0.512541	-0.152930
H358	H	0.937729	-0.012541	0.347070
H359	H	0.442562	-0.590766	-0.184975
H360	H	0.942562	-0.090766	0.315025
H361	H	0.501029	-0.466941	-0.235744
H362	H	1.001029	0.033059	0.264256
H363	H	0.505876	-0.545162	-0.267788
H364	H	1.005876	-0.045162	0.232212
O365	O	0.892822	-0.451444	-0.578942
O366	O	1.392822	0.048556	-0.078942
C367	C	0.854599	-0.493339	-0.625278
C368	C	1.354599	0.006661	-0.125278
H369	H	0.882326	-0.495893	-0.675673
H370	H	1.382326	0.004107	-0.175673
H371	H	0.803200	-0.466143	-0.632789
H372	H	1.303200	0.033857	-0.132789
C373	C	0.810771	-0.569251	-0.535779
C374	C	1.310771	-0.069251	-0.035779
C375	C	0.844828	-0.572393	-0.597673
C376	C	1.344828	-0.072393	-0.097673
H377	H	0.804741	-0.618015	-0.518750
H378	H	1.304741	-0.118015	-0.018750
H379	H	0.836520	-0.541024	-0.504560
H380	H	1.336520	-0.041024	-0.004560
H381	H	0.767942	-0.546585	-0.542046
H382	H	1.267942	-0.046585	-0.042046
H383	H	0.887659	-0.595050	-0.591404
H384	H	1.387659	-0.095050	-0.091404
H385	H	0.819086	-0.600625	-0.628890
H386	H	1.319086	-0.100625	-0.128890
H387	H	0.236541	-0.271803	-0.404792
H388	H	0.736541	0.228197	0.095208
H389	H	0.592211	-0.443862	-0.247410
H390	H	1.092211	0.056138	0.252590
