data_functionalizedCrystal
_audit_creation_method	'MofGen! by Chris Wilmer'
_symmetry_space_group_name_H-M	'P1'
_symmetry_Int_Tables_number	1
_symmetry_cell_setting	triclinic
loop_
_symmetry_equiv_pos_as_xyz
  x,y,z
_cell_length_a	18.215407
_cell_length_b	18.215405
_cell_length_c	12.759393
_cell_angle_alpha	89.966397
_cell_angle_beta	89.980320
_cell_angle_gamma	90.017245
loop_
_atom_site_label
_atom_site_type_symbol
_atom_site_fract_x
_atom_site_fract_y
_atom_site_fract_z
Zn1	Zn	1.125096	-0.293056	-0.593996
Zn2	Zn	1.625096	0.206944	-0.093996
Zn3	Zn	1.125006	-0.416140	-0.418307
Zn4	Zn	1.625006	0.083860	0.081693
Zn5	Zn	1.002025	-0.293080	-0.418332
Zn6	Zn	1.502025	0.206920	0.081668
Zn7	Zn	1.002000	-0.416073	-0.593945
Zn8	Zn	1.502000	0.083927	-0.093945
O9	O	1.063532	-0.354587	-0.506145
O10	O	1.563532	0.145413	-0.006145
O11	O	1.228069	-0.309401	-0.570702
O12	O	1.728069	0.190599	-0.070702
O13	O	1.108664	-0.399854	-0.271289
O14	O	1.608664	0.100146	0.228711
O15	O	1.018399	-0.190092	-0.441666
O16	O	1.518399	0.309908	0.058334
O17	O	1.228002	-0.399830	-0.441624
O18	O	1.728002	0.100170	0.058376
O19	O	1.108820	-0.190075	-0.570726
O20	O	1.608820	0.309925	-0.070726
O21	O	1.018311	-0.309442	-0.271307
O22	O	1.518311	0.190558	0.228693
O23	O	0.899037	-0.309377	-0.441616
O24	O	1.399037	0.190623	0.058384
O25	O	1.018356	-0.399716	-0.740973
O26	O	1.518356	0.100284	-0.240973
O27	O	0.899019	-0.399740	-0.570638
O28	O	1.399019	0.100260	-0.070638
O29	O	1.108795	-0.309336	-0.741011
O30	O	1.608795	0.190664	-0.241011
O31	O	1.108640	-0.519115	-0.441574
O32	O	1.608640	-0.019115	0.058426
O33	O	1.018268	-0.519066	-0.570614
O34	O	1.518268	-0.019066	-0.070614
C35	C	0.872325	-0.354555	-0.506124
C36	C	1.372325	0.145445	-0.006124
C37	C	0.790527	-0.354559	-0.506141
C38	C	1.290527	0.145441	-0.006141
C39	C	0.525498	-0.307591	-0.573463
C40	C	1.025498	0.192409	-0.073463
C41	C	0.602357	-0.307579	-0.573460
C42	C	1.102357	0.192421	-0.073460
C43	C	0.602306	-0.401607	-0.438850
C44	C	1.102306	0.098393	0.061150
C45	C	0.525449	-0.401622	-0.438859
C46	C	1.025449	0.098378	0.061141
C47	C	0.487047	-0.354610	-0.506164
C48	C	0.987047	0.145390	-0.006164
C49	C	0.640763	-0.354583	-0.506152
C50	C	1.140763	0.145417	-0.006152
C51	C	0.724097	-0.354570	-0.506147
C52	C	1.224097	0.145430	-0.006147
C53	C	0.403708	-0.354623	-0.506170
C54	C	0.903708	0.145377	-0.006170
C55	C	1.063461	-0.545793	-0.506109
C56	C	1.563461	-0.045793	-0.006109
C57	C	1.063498	-0.627592	-0.506128
C58	C	1.563498	-0.127592	-0.006128
C59	C	1.110602	-0.815716	-0.573421
C60	C	1.610602	-0.315716	-0.073421
C61	C	1.110629	-0.892575	-0.573441
C62	C	1.610629	-0.392575	-0.073441
C63	C	1.016552	-0.892706	-0.438934
C64	C	1.516552	-0.392706	0.061066
C65	C	1.016522	-0.815849	-0.438920
C66	C	1.516522	-0.315849	0.061080
C67	C	1.063551	-0.777356	-0.506162
C68	C	1.563551	-0.277356	-0.006162
C69	C	1.063608	-0.931072	-0.506196
C70	C	1.563608	-0.431072	-0.006196
C71	C	1.063637	-1.014405	-0.506217
C72	C	1.563637	-0.514405	-0.006217
C73	C	1.063522	-0.694017	-0.506143
C74	C	1.563522	-0.194017	-0.006143
C75	C	1.255485	-0.354620	-0.506166
C76	C	1.755485	0.145380	-0.006166
C77	C	1.337283	-0.354634	-0.506175
C78	C	1.837283	0.145366	-0.006175
C79	C	1.063583	-0.354516	-0.780178
C80	C	1.563583	0.145484	-0.280178
C81	C	1.063605	-0.354486	-0.896955
C82	C	1.563605	0.145514	-0.396955
C83	C	1.063623	-0.162634	-0.506204
C84	C	1.563623	0.337366	-0.006204
C85	C	1.063661	-0.080835	-0.506230
C86	C	1.563661	0.419165	-0.006230
C87	C	1.110719	-0.307385	-1.061564
C88	C	1.610719	0.192615	-0.561564
C89	C	1.110701	-0.307416	-0.951839
C90	C	1.610701	0.192584	-0.451839
C91	C	1.016528	-0.401534	-0.951801
C92	C	1.516528	0.098466	-0.451801
C93	C	1.016550	-0.401506	-1.061523
C94	C	1.516550	0.098494	-0.561523
C95	C	1.165087	-0.253044	-1.061585
C96	C	1.665087	0.246956	-0.561585
C97	C	1.165069	-0.253075	-0.951861
C98	C	1.665069	0.246925	-0.451861
C99	C	1.063523	-0.354605	-0.233178
C100	C	1.563523	0.145395	0.266822
C101	C	1.063644	-0.354428	-0.116401
C102	C	1.563644	0.145572	0.383599
H103	H	0.633583	-0.439881	-0.384051
H104	H	1.133583	0.060119	0.115949
H105	H	1.148941	-0.923804	-0.628212
H106	H	1.648941	-0.423804	-0.128212
H107	H	1.222083	-0.268309	-1.091361
H108	H	1.722083	0.231691	-0.591361
Cl109	Cl	1.133533	-0.169468	-1.114162
Cl110	Cl	1.633533	0.330532	-0.614162
H111	H	0.494141	-0.439914	-0.384056
H112	H	0.994141	0.060086	0.115944
Cl113	Cl	1.248638	-0.284619	-0.899310
Cl114	Cl	1.748638	0.215381	-0.399310
Cl115	Cl	1.169722	-0.767327	-0.657957
Cl116	Cl	1.669722	-0.267327	-0.157957
H117	H	0.978263	-0.924057	-0.384186
H118	H	1.478263	-0.424057	0.115814
H119	H	0.978204	-0.784614	-0.384150
H120	H	1.478204	-0.284614	0.115850
H121	H	0.978224	-0.439820	-1.106168
H122	H	1.478224	0.060180	-0.606168
Cl123	Cl	0.477224	-0.248493	-0.658078
Cl124	Cl	0.977224	0.251507	-0.158078
H125	H	0.633660	-0.269292	-0.628262
H126	H	1.133660	0.230708	-0.128262
Cl127	Cl	1.141530	-0.165087	-0.905902
Cl128	Cl	1.641530	0.334913	-0.405902
Cl129	Cl	0.957326	-0.460714	-0.882803
Cl130	Cl	1.457326	0.039286	-0.382803
