data_functionalizedCrystal
_audit_creation_method	'MofGen! by Chris Wilmer'
_symmetry_space_group_name_H-M	'P1'
_symmetry_Int_Tables_number	1
_symmetry_cell_setting	triclinic
loop_
_symmetry_equiv_pos_as_xyz
  x,y,z
_cell_length_a	16.959455
_cell_length_b	16.959453
_cell_length_c	15.298431
_cell_angle_alpha	80.286783
_cell_angle_beta	99.657506
_cell_angle_gamma	90.019416
loop_
_atom_site_label
_atom_site_type_symbol
_atom_site_fract_x
_atom_site_fract_y
_atom_site_fract_z
Zn1	Zn	1.131107	-0.237316	-0.510078
Zn2	Zn	1.153885	-0.392390	-0.359216
Zn3	Zn	1.021788	-0.260225	-0.359235
Zn4	Zn	0.998907	-0.369463	-0.510030
O5	O	1.076422	-0.314848	-0.434640
O6	O	1.244737	-0.257895	-0.490078
O7	O	1.155471	-0.394040	-0.232974
O8	O	1.036332	-0.146571	-0.379273
O9	O	1.261473	-0.371826	-0.379240
O10	O	1.116648	-0.129740	-0.490097
O11	O	1.058420	-0.296939	-0.232988
O12	O	0.908144	-0.274708	-0.379226
O13	O	0.997335	-0.332751	-0.636281
O14	O	0.891334	-0.354964	-0.490014
O15	O	1.094462	-0.235664	-0.636316
O16	O	1.133284	-0.499963	-0.379193
O17	O	1.019423	-0.483119	-0.489996
C18	C	0.871059	-0.314835	-0.434618
C19	C	0.783201	-0.314844	-0.434629
C20	C	1.076361	-0.520220	-0.434607
C21	C	1.076403	-0.608074	-0.434623
C22	C	0.750650	-0.374104	-0.376839
C23	C	0.733196	-0.255590	-0.492427
C24	C	0.650649	-0.255595	-0.492438
C25	C	0.618098	-0.314854	-0.434647
C26	C	0.668096	-0.374109	-0.376846
C27	C	0.600646	-0.196336	-0.550231
C28	C	0.518093	-0.196338	-0.550244
C29	C	0.485541	-0.255602	-0.492457
C30	C	0.535544	-0.314859	-0.434654
C31	C	0.502994	-0.374119	-0.376864
C32	C	0.552994	-0.433380	-0.319065
C33	C	0.635544	-0.433372	-0.319060
C34	C	0.402992	-0.255610	-0.492463
C35	C	0.420439	-0.374124	-0.376871
C36	C	1.118291	-0.970708	-0.492455
C37	C	1.034754	-0.988365	-0.376959
C38	C	1.034727	-0.905822	-0.376938
C39	C	1.076483	-0.855718	-0.434678
C40	C	1.118264	-0.888157	-0.492438
C41	C	0.992940	-0.873376	-0.319186
C42	C	0.992912	-0.790829	-0.319163
C43	C	1.034672	-0.740724	-0.376899
C44	C	1.076456	-0.773168	-0.434661
C45	C	1.118211	-0.723063	-0.492400
C46	C	1.160000	-0.755506	-0.550158
C47	C	1.160024	-0.838052	-0.550173
C48	C	1.034648	-0.658178	-0.376883
C49	C	1.118184	-0.640513	-0.492383
C50	C	1.282587	-0.314863	-0.434663
C51	C	1.370442	-0.314869	-0.434672
C52	C	1.040805	-0.279095	-0.669948
C53	C	1.025628	-0.263859	-0.770222
C54	C	1.076502	-0.108672	-0.434693
C55	C	1.076536	-0.020812	-0.434715
C56	C	0.967966	-0.206143	-0.817331
C57	C	0.953696	-0.191829	-0.911544
C58	C	0.997090	-0.235225	-0.958656
C59	C	1.054756	-0.292938	-0.911546
C60	C	1.069024	-0.307258	-0.817325
C61	C	1.098147	-0.336340	-0.958649
C62	C	1.155814	-0.394053	-0.911540
C63	C	1.170079	-0.408370	-0.817327
C64	C	1.126685	-0.364974	-0.770215
C65	C	1.083880	-0.322020	-1.052871
C66	C	1.184937	-0.423135	-1.052864
C67	C	1.199208	-0.437449	-0.958652
C68	C	1.111945	-0.350406	-0.200248
C69	C	1.127276	-0.365419	-0.099974
H70	H	0.526482	-0.481627	-0.272009
C71	C	1.163800	-1.005894	-0.555062
C72	C	1.244978	-0.988752	-0.535491
C73	C	1.286923	-1.021158	-0.593144
H74	H	1.143103	-0.983167	-0.615691
H75	H	1.157895	-1.062240	-0.546805
H76	H	1.250877	-0.932416	-0.543756
H77	H	1.265698	-1.011479	-0.474873
H78	H	1.281019	-1.077504	-0.584886
H79	H	1.266219	-0.998428	-0.653769
H80	H	1.342008	-1.009538	-0.579867
C81	C	0.947696	-0.927911	-0.256530
C82	C	0.956689	-1.007148	-0.268885
C83	C	0.915033	-1.057414	-0.211167
H84	H	0.892558	-0.912531	-0.269612
H85	H	0.968490	-0.923649	-0.195906
H86	H	0.935892	-1.011407	-0.329494
H87	H	1.011818	-1.022553	-0.255796
H88	H	0.935827	-1.053152	-0.150543
H89	H	0.859897	-1.042026	-0.224254
H90	H	0.921135	-1.111182	-0.219536
C91	C	0.348834	-0.191232	-0.555308
C92	C	0.395007	-0.139344	-0.605928
C93	C	0.345143	-0.080034	-0.663845
H94	H	0.321827	-0.161900	-0.520969
H95	H	0.310701	-0.215534	-0.594611
H96	H	0.433126	-0.115044	-0.566630
H97	H	0.422013	-0.168652	-0.640286
H98	H	0.307010	-0.104336	-0.703148
H99	H	0.318139	-0.050708	-0.629499
H100	H	0.376463	-0.044825	-0.698203
H101	H	0.477389	-0.148085	-0.597308
H102	H	1.152190	-0.599722	-0.539398
H103	H	1.246160	-0.484440	-0.920282
C104	C	0.947536	-0.755768	-0.256352
C105	C	0.910992	-0.817318	-0.205775
C106	C	0.869198	-0.785051	-0.147892
H107	H	0.907789	-0.718349	-0.290713
H108	H	0.983730	-0.729556	-0.217019
H109	H	0.874801	-0.843517	-0.245102
H110	H	0.950721	-0.854742	-0.171396
H111	H	0.905391	-0.758839	-0.108560
H112	H	0.829454	-0.747632	-0.182261
H113	H	0.844404	-0.826808	-0.113564
C114	C	1.232748	-0.471037	-0.766341
C115	C	1.267714	-0.505962	-0.827760
C116	C	1.325455	-0.563684	-0.780826
H117	H	1.208154	-0.511132	-0.729569
H118	H	1.272803	-0.446399	-0.729621
H119	H	1.227665	-0.530600	-0.864464
H120	H	1.292323	-0.465886	-0.864534
H121	H	1.365510	-0.539046	-0.744106
H122	H	1.300855	-0.603774	-0.744056
H123	H	1.349192	-0.587382	-0.822491
C124	C	0.920880	-0.158890	-0.766300
C125	C	0.934632	-0.077196	-0.789247
C126	C	0.891254	-0.033640	-0.742265
H127	H	0.937585	-0.175581	-0.703427
H128	H	0.865415	-0.168061	-0.781751
H129	H	0.990085	-0.068030	-0.773790
H130	H	0.917924	-0.060482	-0.852111
H131	H	0.835789	-0.042811	-0.757716
H132	H	0.907963	-0.050337	-0.679395
H133	H	0.900573	0.021794	-0.757834
C134	C	1.232009	-0.470137	-1.104167
C135	C	1.207192	-0.445225	-1.196760
C136	C	1.250541	-0.488493	-1.244054
H137	H	1.222796	-0.525611	-1.088828
H138	H	1.287467	-0.460900	-1.088787
H139	H	1.151747	-0.454470	-1.212134
H140	H	1.216407	-0.389758	-1.212126
H141	H	1.305999	-0.479255	-1.228674
H142	H	1.241324	-0.543964	-1.228707
H143	H	1.233714	-0.471591	-1.306883
H144	H	1.193993	-0.714701	-0.597174
C145	C	0.768385	-0.191166	-0.555207
C146	C	0.706931	-0.139266	-0.605815
C147	C	0.739320	-0.079903	-0.663655
H148	H	0.794637	-0.215394	-0.594527
H149	H	0.805785	-0.161863	-0.520785
H150	H	0.669545	-0.168565	-0.640234
H151	H	0.680674	-0.115019	-0.566518
H152	H	0.776720	-0.050600	-0.629233
H153	H	0.765572	-0.104138	-0.702970
H154	H	0.697630	-0.044678	-0.697994
C155	C	0.989161	-0.622886	-0.314336
C156	C	0.930715	-0.567772	-0.365361
C157	C	0.888788	-0.535254	-0.307771
H158	H	1.025269	-0.596585	-0.275032
H159	H	0.964243	-0.664519	-0.279969
H160	H	0.955631	-0.526146	-0.399713
H161	H	0.894589	-0.594054	-0.404663
H162	H	0.863871	-0.576887	-0.273404
H163	H	0.924902	-0.508957	-0.268470
H164	H	0.849123	-0.497861	-0.342383
H165	H	0.676261	-0.481618	-0.272001
H166	H	0.985468	-0.223566	-1.035368
H167	H	1.036928	-0.275028	-1.091219
H168	H	0.906741	-0.144841	-0.949894
H169	H	1.194045	-0.864475	-0.597197
H170	H	1.000755	-1.029164	-0.329954
H171	H	0.393943	-0.422383	-0.329814
C172	C	1.142319	-0.380609	-0.667923
C173	C	1.202115	-0.440431	-0.636746
C174	C	1.216542	-0.454847	-0.542520
H175	H	1.094597	-0.397555	-0.646486
H176	H	1.159282	-0.332858	-0.646590
H177	H	1.185149	-0.488172	-0.658070
H178	H	1.249849	-0.423501	-0.658158
H179	H	1.233505	-0.407097	-0.521187
H180	H	1.168816	-0.471791	-0.521092
H181	H	1.257119	-0.495432	-0.521354
H182	H	0.791364	-0.422355	-0.329783
H183	H	0.627155	-0.148088	-0.597277
