data_functionalizedCrystal
_audit_creation_method	'MofGen! by Chris Wilmer'
_symmetry_space_group_name_H-M	'P1'
_symmetry_Int_Tables_number	1
_symmetry_cell_setting	triclinic
loop_
_symmetry_equiv_pos_as_xyz
  x,y,z
_cell_length_a	14.908795
_cell_length_b	25.639239
_cell_length_c	14.908308
_cell_angle_alpha	86.738311
_cell_angle_beta	90.211334
_cell_angle_gamma	93.329434
loop_
_atom_site_label
_atom_site_type_symbol
_atom_site_fract_x
_atom_site_fract_y
_atom_site_fract_z
Zn1	Zn	1.345210	-0.182880	0.587806
Zn2	Zn	1.353745	-0.265006	0.437434
Zn3	Zn	1.203524	-0.182313	0.428777
Zn4	Zn	1.194765	-0.275017	0.579054
O5	O	1.274311	-0.226304	0.508268
O6	O	1.472172	-0.189821	0.575144
O7	O	1.341055	-0.249610	0.310463
O8	O	1.222413	-0.109221	0.449912
O9	O	1.478443	-0.250159	0.464667
O10	O	1.326509	-0.109638	0.566750
O11	O	1.230689	-0.188856	0.304103
O12	O	1.076533	-0.198563	0.441426
O13	O	1.207485	-0.267222	0.706038
O14	O	1.070097	-0.266672	0.551834
O15	O	1.318016	-0.199529	0.712467
O16	O	1.332562	-0.339501	0.456181
O17	O	1.215760	-0.346856	0.560228
C18	C	1.040689	-0.233643	0.494741
C19	C	0.940743	-0.236796	0.488976
C20	C	0.803144	-0.272596	0.423242
C21	C	0.897053	-0.269635	0.428658
C22	C	0.890517	-0.206914	0.543879
C23	C	0.796609	-0.209874	0.538463
C24	C	0.752926	-0.242717	0.478143
C25	C	0.659016	-0.245680	0.472731
C26	C	0.652483	-0.182956	0.587947
C27	C	0.746391	-0.179995	0.593363
C28	C	1.274160	-0.362150	0.508215
C29	C	1.274176	-0.420264	0.508228
C30	C	1.213483	-0.675296	0.562426
C31	C	1.213450	-0.620692	0.562414
O32	O	1.161700	-0.595723	0.608457
N33	N	1.274286	-0.589536	0.508281
C34	C	1.335165	-0.612985	0.454164
O35	O	1.386909	-0.581470	0.408120
C36	C	1.335202	-0.667588	0.454182
C37	C	1.274355	-0.698742	0.508312
C38	C	1.152642	-0.706450	0.616552
C39	C	1.152674	-0.761050	0.616563
C40	C	1.213546	-0.784496	0.562448
C41	C	1.274387	-0.753342	0.508323
C42	C	1.396084	-0.691037	0.400071
C43	C	1.396116	-0.745644	0.400094
C44	C	1.335269	-0.776798	0.454223
C45	C	1.335292	-0.831388	0.454219
N46	N	1.274455	-0.862544	0.508351
C47	C	1.213583	-0.839098	0.562466
C48	C	1.335086	-0.498316	0.454132
C49	C	1.335046	-0.443715	0.454109
C50	C	1.213331	-0.451425	0.562360
C51	C	1.213367	-0.506028	0.562378
C52	C	1.274249	-0.529473	0.508265
C53	C	1.213654	-0.953762	0.562484
C54	C	1.213688	-1.008366	0.562488
C55	C	1.335406	-1.000651	0.454240
C56	C	1.335368	-0.946051	0.454233
C57	C	1.274489	-0.922608	0.508362
O58	O	1.387017	-0.856393	0.408202
O59	O	1.161856	-0.870620	0.608512
C60	C	1.508846	-0.218937	0.521848
C61	C	1.608791	-0.215797	0.527634
C62	C	1.260821	-0.234555	0.742789
C63	C	1.255073	-0.238071	0.842728
C64	C	1.274486	-0.089928	0.508341
C65	C	1.274561	-0.031812	0.508373
C66	C	1.287800	-0.218046	0.274662
C67	C	1.293723	-0.214377	0.174733
C68	C	1.359364	-0.174178	1.037221
C69	C	1.353966	-0.177479	1.131123
C70	C	1.238873	-0.247974	1.124435
C71	C	1.244272	-0.244672	1.030533
C72	C	1.304520	-0.207773	0.986930
C73	C	1.309923	-0.204474	0.893026
C74	C	1.194826	-0.274966	0.886340
C75	C	1.189428	-0.278268	0.980242
H76	H	0.623450	-0.272424	0.423619
C77	C	1.457089	-1.057763	0.448852
C78	C	1.402295	-1.026437	0.394747
H79	H	1.498383	-1.073683	0.412121
H80	H	1.420852	-1.084120	0.481095
H81	H	1.489203	-1.036727	0.490024
H82	H	1.370175	-1.047474	0.353580
H83	H	1.438537	-1.000076	0.362489
C84	C	0.894075	-0.331934	0.314233
C85	C	0.952253	-0.302483	0.368316
H86	H	0.928156	-0.352215	0.276983
H87	H	0.859441	-0.309070	0.277798
H88	H	0.855182	-0.354497	0.351242
H89	H	0.991142	-0.279916	0.331306
H90	H	0.986902	-0.325349	0.404753
C91	C	0.621130	-0.096919	0.630371
C92	C	0.597281	-0.150110	0.648300
H93	H	0.587053	-0.076645	0.667636
H94	H	0.609199	-0.087577	0.569103
H95	H	0.683312	-0.090461	0.642229
H96	H	0.535100	-0.156568	0.636436
H97	H	0.609204	-0.159455	0.709582
C98	C	0.698195	-0.345799	0.404448
C99	C	0.755121	-0.308698	0.356947
H100	H	0.668553	-0.368089	0.363519
H101	H	0.654851	-0.328424	0.436359
H102	H	0.732579	-0.366051	0.445673
H103	H	0.720736	-0.288443	0.315727
H104	H	0.798470	-0.326074	0.325022
C105	C	0.989216	-0.200685	0.670928
C106	C	0.938549	-0.170815	0.610175
H107	H	1.018865	-0.178398	0.711858
H108	H	1.032554	-0.218053	0.638999
H109	H	0.950585	-0.225855	0.703139
H110	H	0.977181	-0.145647	0.577959
H111	H	0.895205	-0.153438	0.642107
C112	C	1.100019	-0.784575	0.766246
C113	C	1.085798	-0.795289	0.676076
H114	H	1.058735	-0.805714	0.802990
H115	H	1.091292	-0.748703	0.773965
H116	H	1.159673	-0.792053	0.782939
H117	H	1.026146	-0.787808	0.659381
H118	H	1.094518	-0.831170	0.668353
C119	C	1.084916	-0.279239	1.144517
C120	C	1.172643	-0.288527	1.172368
H121	H	1.044028	-0.304274	1.174112
H122	H	1.080293	-0.282085	1.081403
H123	H	1.070928	-0.245061	1.159162
H124	H	1.186633	-0.322704	1.157717
H125	H	1.177270	-0.285687	1.235497
H126	H	0.781971	-0.153254	0.642472
H127	H	1.140373	-0.308308	1.015757
C128	C	1.093377	-1.010495	0.669495
C129	C	1.146806	-1.042610	0.621996
H130	H	1.052093	-1.031635	0.706236
H131	H	1.061257	-0.988931	0.628298
H132	H	1.130547	-0.989145	0.706177
H133	H	1.109636	-1.063958	0.585309
H134	H	1.178928	-1.064183	0.663198
H135	H	1.150170	-0.302323	0.845383
H136	H	1.164081	-0.934681	0.606562
C137	C	1.133030	-0.649683	0.736756
C138	C	1.085720	-0.680685	0.676041
H139	H	1.091707	-0.633784	0.773484
H140	H	1.169242	-0.623310	0.704523
H141	H	1.170214	-0.670935	0.773450
H142	H	1.048540	-0.659433	0.639343
H143	H	1.049493	-0.707062	0.708277
C144	C	1.093060	-0.508152	0.669378
C145	C	1.146492	-0.540270	0.621887
H146	H	1.051778	-0.529291	0.706123
H147	H	1.060939	-0.486592	0.628176
H148	H	1.130228	-0.486798	0.706055
H149	H	1.109324	-0.561622	0.585205
H150	H	1.178616	-0.561839	0.663095
C151	C	1.159255	-0.371141	0.610408
C152	C	1.146425	-0.425646	0.621855
H153	H	1.117956	-0.355227	0.647141
H154	H	1.149607	-0.360507	0.549231
H155	H	1.218901	-0.360727	0.627106
H156	H	1.086780	-0.436062	0.605151
H157	H	1.156066	-0.436285	0.683046
C158	C	1.468850	-0.170124	1.243731
C159	C	1.414250	-0.140551	1.186408
H160	H	1.506062	-0.147323	1.277865
H161	H	1.505326	-0.190528	1.209079
H162	H	1.432189	-0.192570	1.283135
H163	H	1.450911	-0.118108	1.147000
H164	H	1.377771	-0.120138	1.221064
H165	H	1.384583	-0.418352	0.410022
C166	C	1.354733	-0.555120	0.333979
C167	C	1.402025	-0.524101	0.394683
H168	H	1.396067	-0.571043	0.297298
H169	H	1.317579	-0.533879	0.297247
H170	H	1.318491	-0.581480	0.366228
H171	H	1.438262	-0.497739	0.362433
H172	H	1.439194	-0.545343	0.431419
C173	C	1.516417	-0.688924	0.293103
C174	C	1.462980	-0.656802	0.340580
H175	H	1.557723	-0.667788	0.256381
H176	H	1.479262	-0.710268	0.256413
H177	H	1.548519	-0.710493	0.334321
H178	H	1.430873	-0.635235	0.299362
H179	H	1.500140	-0.635448	0.377273
C180	C	1.517852	-0.802723	0.394731
C181	C	1.463051	-0.771409	0.340614
H182	H	1.559179	-0.818624	0.358011
H183	H	1.481625	-0.829095	0.426951
H184	H	1.549929	-0.781684	0.435924
H185	H	1.430969	-0.792449	0.299426
H186	H	1.499283	-0.745033	0.308380
C187	C	1.455673	-0.943917	0.347224
C188	C	1.402241	-0.911803	0.394724
H189	H	1.496963	-0.922775	0.310493
H190	H	1.418512	-0.965262	0.310541
H191	H	1.487792	-0.965486	0.388428
H192	H	1.370117	-0.890237	0.353520
H193	H	1.439407	-0.890448	0.431410
H194	H	1.358981	-0.174430	0.857526
H195	H	1.408425	-0.144136	1.001719
