data_functionalizedCrystal
_audit_creation_method	'MofGen! by Chris Wilmer'
_symmetry_space_group_name_H-M	'P1'
_symmetry_Int_Tables_number	1
_symmetry_cell_setting	triclinic
loop_
_symmetry_equiv_pos_as_xyz
  x,y,z
_cell_length_a	19.288864
_cell_length_b	23.532407
_cell_length_c	17.766277
_cell_angle_alpha	89.988964
_cell_angle_beta	89.976791
_cell_angle_gamma	82.992461
loop_
_atom_site_label
_atom_site_type_symbol
_atom_site_fract_x
_atom_site_fract_y
_atom_site_fract_z
O1	O	0.921134	0.071045	-0.062843
O2	O	0.718844	0.080629	-0.062793
O3	O	0.826089	-0.007082	-0.062806
O4	O	0.813889	0.158756	-0.062830
O5	O	0.826070	-0.007086	0.062383
O6	O	0.718825	0.080625	0.062396
O7	O	0.921115	0.071041	0.062345
Cu8	Cu	0.819968	0.075832	0.073801
Cu9	Cu	0.819991	0.075838	-0.074249
O10	O	0.813870	0.158752	0.062358
C11	C	0.692959	0.080319	-0.000192
C12	C	0.615858	0.079393	-0.000172
C13	C	0.571003	0.130858	-0.000191
C14	C	0.498559	0.129988	-0.000200
C15	C	0.470973	0.077651	-0.000203
C16	C	0.515838	0.026179	-0.000180
C17	C	0.588280	0.027050	-0.000164
C18	C	0.362844	0.036509	-0.044082
C19	C	0.290402	0.035640	-0.044102
C20	C	0.247535	0.074961	-0.000249
C21	C	0.277118	0.115162	0.043616
C22	C	0.349560	0.116033	0.043631
C23	C	0.392422	0.076700	-0.000220
C24	C	0.124127	0.125487	-0.000276
C25	C	0.051682	0.124615	-0.000279
C26	C	0.068962	0.020805	-0.000267
C27	C	0.141406	0.021678	-0.000256
C28	C	0.168984	0.074021	-0.000264
C29	C	0.825769	-0.028301	-0.000209
C30	C	0.824835	-0.091520	-0.000203
C31	C	0.882442	-0.490503	-0.000259
C32	C	0.881574	-0.549905	-0.000264
O33	O	0.934976	-0.586539	-0.000306
N34	N	0.817817	-0.572664	-0.000248
C35	C	0.754923	-0.536017	-0.000234
O36	O	0.700613	-0.560829	-0.000221
C37	C	0.755792	-0.476616	-0.000234
C38	C	0.819553	-0.453861	-0.000242
C39	C	0.946198	-0.467748	-0.000269
C40	C	0.947065	-0.408350	-0.000262
C41	C	0.884177	-0.371707	-0.000245
C42	C	0.820420	-0.394463	-0.000236
C43	C	0.692899	-0.439970	-0.000225
C44	C	0.693773	-0.380565	-0.000225
C45	C	0.757534	-0.357810	-0.000234
C46	C	0.758399	-0.298422	-0.000212
N47	N	0.822156	-0.275664	-0.000229
C48	C	0.885045	-0.312307	-0.000245
C49	C	0.753104	-0.660763	-0.000235
C50	C	0.752235	-0.720163	-0.000230
C51	C	0.878886	-0.734047	-0.000262
C52	C	0.879755	-0.674647	-0.000262
C53	C	0.816861	-0.638005	-0.000252
C54	C	0.886862	-0.187566	-0.000230
C55	C	0.887724	-0.128162	-0.000220
C56	C	0.761073	-0.114283	-0.000192
C57	C	0.760211	-0.173681	-0.000198
C58	C	0.823111	-0.210322	-0.000219
O59	O	0.705025	-0.261754	-0.000174
O60	O	0.939346	-0.287486	-0.000268
C61	C	0.947000	0.071351	-0.000257
C62	C	1.024101	0.072277	-0.000282
C63	C	0.814190	0.179971	-0.000240
C64	C	0.815124	0.243190	-0.000251
N65	N	0.819958	0.075828	0.177932
N66	N	0.820007	0.075837	-0.178379
C67	C	0.867461	0.037009	0.217313
C68	C	0.867465	0.037006	0.296115
C69	C	0.819973	0.075833	0.335532
C70	C	0.772460	0.114655	0.296142
C71	C	0.772453	0.114653	0.217341
C72	C	0.810514	0.127724	0.460364
C73	C	0.810526	0.127727	0.539163
C74	C	0.819991	0.075840	0.578579
C75	C	0.829459	0.023947	0.539186
C76	C	0.829452	0.023945	0.460385
C77	C	0.819975	0.075839	0.420978
C78	C	0.867501	0.037014	0.703406
C79	C	0.867501	0.037011	0.782209
C80	C	0.772499	0.114665	0.782234
C81	C	0.772496	0.114663	0.703433
C82	C	0.820001	0.075839	0.664023
H83	H	0.146582	0.168107	-0.000271
F84	F	0.626831	-0.341571	-0.000216
F85	F	0.381042	0.158814	0.090316
F86	F	0.721892	0.155972	0.175427
H87	H	0.593452	0.173479	-0.000199
F88	F	0.408460	-0.005346	-0.090759
F89	F	0.918028	-0.004313	0.338034
F90	F	0.918059	-0.004311	0.824123
F91	F	0.450812	0.184766	-0.000218
H92	H	0.046503	-0.021810	-0.000317
H93	H	0.242216	0.147181	0.079326
H94	H	0.931675	-0.656124	-0.000270
H95	H	0.906141	0.005394	0.185228
H96	H	0.177928	-0.020230	-0.000244
F97	F	0.839522	-0.031281	0.418464
H98	H	0.930094	-0.763893	-0.000279
F99	F	0.918057	-0.004309	0.661462
H100	H	0.708291	-0.192209	-0.000170
H101	H	0.015161	0.166526	-0.000291
F102	F	0.839538	-0.031279	0.581128
H103	H	0.997412	-0.497577	-0.000285
H104	H	0.266322	0.002909	-0.079822
F105	F	0.694146	-0.075275	-0.000174
H106	H	0.701886	-0.630931	-0.000220
H107	H	0.802794	0.169979	0.428278
F108	F	0.486478	-0.029522	-0.000180
H109	H	0.733790	0.146268	0.328239
F110	F	0.721949	0.155983	0.824182
F111	F	0.636020	-0.027728	-0.000143
H112	H	0.939648	-0.109639	-0.000225
F113	F	0.721940	0.155983	0.661517
H114	H	0.938081	-0.217393	-0.000250
H115	H	0.998986	-0.389829	-0.000272
F116	F	0.684372	-0.744373	-0.000207
F117	F	0.625034	-0.464174	-0.000219
H118	H	0.802821	0.169981	0.571230
