data_functionalizedCrystal
_audit_creation_method	'MofGen! by Chris Wilmer'
_symmetry_space_group_name_H-M	'P1'
_symmetry_Int_Tables_number	1
_symmetry_cell_setting	triclinic
loop_
_symmetry_equiv_pos_as_xyz
  x,y,z
_cell_length_a	15.995292
_cell_length_b	23.532357
_cell_length_c	15.072220
_cell_angle_alpha	89.993295
_cell_angle_beta	89.986330
_cell_angle_gamma	83.148454
loop_
_atom_site_label
_atom_site_type_symbol
_atom_site_fract_x
_atom_site_fract_y
_atom_site_fract_z
O1	O	1.110398	0.073248	-0.073817
O2	O	0.866538	0.082348	-0.073815
O3	O	0.995843	-0.005109	-0.073798
O4	O	0.981092	0.160704	-0.073835
O5	O	0.995811	-0.005104	0.073767
O6	O	0.866506	0.082353	0.073750
O7	O	1.110366	0.073253	0.073748
Zn8	Zn	0.988431	0.077803	0.097178
Zn9	Zn	0.988473	0.077797	-0.097246
O10	O	0.981060	0.160709	0.073731
C11	C	0.835329	0.081980	-0.000032
C12	C	0.742386	0.080869	-0.000031
C13	C	0.404682	0.076788	-0.000040
C14	C	0.427453	0.139911	-0.000383
C15	C	0.524118	0.141111	-0.000047
C16	C	0.572221	0.078813	-0.000036
C17	C	0.543372	0.047257	0.084235
C18	C	0.446588	0.046497	0.084302
C19	C	0.446780	0.045202	-0.083507
C20	C	0.543252	0.047542	-0.084617
C21	C	0.666907	0.079954	-0.000031
C22	C	0.309997	0.075644	-0.000039
C23	C	0.995458	-0.026324	-0.000013
C24	C	0.994349	-0.089547	-0.000005
C25	C	0.987402	-0.481587	-0.080490
C26	C	0.986348	-0.540990	-0.080495
O27	O	0.985789	-0.571711	-0.148904
N28	N	0.985807	-0.570700	-0.000059
C29	C	0.986313	-0.541004	0.080388
O30	O	0.985756	-0.571729	0.148806
C31	C	0.987362	-0.481601	0.080392
C32	C	0.987910	-0.451894	-0.000049
C33	C	0.987950	-0.451880	-0.160926
C34	C	0.989006	-0.392481	-0.160920
C35	C	0.989514	-0.362788	-0.080479
C36	C	0.988966	-0.392495	-0.000044
C37	C	0.987861	-0.451905	0.160839
C38	C	0.988909	-0.392498	0.160836
C39	C	0.989458	-0.362791	0.080394
C40	C	0.990531	-0.303404	0.080402
N41	N	0.991071	-0.273693	-0.000035
C42	C	0.990563	-0.303386	-0.080475
C43	C	0.984110	-0.665753	0.080374
C44	C	0.983067	-0.725156	0.080370
C45	C	0.983100	-0.725138	-0.080514
C46	C	0.984149	-0.665735	-0.080509
C47	C	0.984650	-0.636043	-0.000063
C48	C	0.992781	-0.178643	-0.080458
C49	C	0.993841	-0.119239	-0.080445
C50	C	0.993803	-0.119262	0.080438
C51	C	0.992748	-0.178661	0.080426
C52	C	0.992234	-0.208350	-0.000029
O53	O	0.991087	-0.272645	0.148776
O54	O	0.991109	-0.272652	-0.148881
C55	C	1.141574	0.073621	-0.000037
C56	C	1.234518	0.074731	-0.000045
C57	C	0.981445	0.181925	-0.000057
C58	C	0.982555	0.245147	-0.000071
N59	N	0.988408	0.077807	0.229867
N60	N	0.988502	0.077788	-0.229934
C61	C	0.988471	0.077795	0.589068
C62	C	0.919053	0.124434	0.551452
C63	C	0.919209	0.124604	0.448626
C64	C	0.988439	0.077801	0.410864
C65	C	1.075695	0.090768	0.448151
C66	C	1.075305	0.091099	0.551009
C67	C	0.971414	0.018051	0.551182
C68	C	0.969406	0.018449	0.448318
C69	C	0.988427	0.077804	0.310151
C70	C	0.988489	0.077794	0.689782
H71	H	0.418297	0.064931	-0.147378
O72	O	0.992223	-0.210655	-0.167237
H73	H	1.048816	-0.242811	-0.171096
O74	O	0.388742	0.171961	0.079217
H75	H	0.319261	0.172722	0.076858
O76	O	0.984726	-0.633693	-0.167270
H77	H	0.984190	-0.664325	-0.223201
O78	O	0.933209	0.182832	0.585657
H79	H	0.877176	0.201331	0.623913
O80	O	0.586105	-0.013467	0.088403
H81	H	0.564642	-0.034806	0.148522
H82	H	0.561638	0.070518	-0.146960
H83	H	0.989450	-0.368298	-0.226424
H84	H	0.399261	0.164240	-0.060818
O85	O	0.428790	-0.016346	-0.084255
H86	H	0.394046	-0.024683	-0.145724
H87	H	0.989305	-0.368325	0.226346
O88	O	0.410781	0.075450	0.167727
H89	H	0.425752	0.120298	0.169195
O90	O	0.832837	0.114381	0.584268
H91	H	0.818729	0.071547	0.562197
H92	H	0.982684	-0.749324	-0.146013
H93	H	0.905222	0.008609	0.423950
H94	H	0.854334	0.116881	0.423418
H95	H	0.909196	0.005579	0.577176
H96	H	0.542295	0.165978	0.060454
O97	O	0.933572	0.183329	0.415996
H98	H	0.940441	0.211715	0.473683
O99	O	0.587428	-0.012695	-0.091351
H100	H	0.630911	-0.021325	-0.034260
H101	H	0.432434	0.000215	0.088138
O102	O	1.096205	0.147825	0.414011
H103	H	1.158041	0.156514	0.440831
O104	O	1.095318	0.148811	0.582774
H105	H	1.105178	0.176222	0.524670
H106	H	1.128548	0.058468	0.575890
O107	O	1.145735	0.046972	0.415753
H108	H	1.119033	0.015425	0.372625
O109	O	1.038466	-0.027929	0.583408
H110	H	1.083728	-0.008362	0.626200
H111	H	1.016721	-0.017882	0.422617
H112	H	0.542946	0.165821	-0.060458
O113	O	0.992168	-0.210714	0.167180
H114	H	0.935283	-0.194230	0.205753
O115	O	0.569662	0.076288	0.167303
H116	H	0.603266	0.113185	0.148782
H117	H	0.987533	-0.476049	-0.226434
H118	H	0.994289	-0.095055	-0.145954
O119	O	0.982483	-0.757195	0.167132
H120	H	0.983008	-0.726562	0.223063
H121	H	0.984520	-0.641582	0.145887
H122	H	0.994221	-0.095076	0.145931
O123	O	0.987261	-0.483937	0.247601
H124	H	0.987778	-0.453300	0.303528
