data_functionalizedCrystal
_audit_creation_method	'MofGen! by Chris Wilmer'
_symmetry_space_group_name_H-M	'P1'
_symmetry_Int_Tables_number	1
_symmetry_cell_setting	triclinic
loop_
_symmetry_equiv_pos_as_xyz
  x,y,z
_cell_length_a	18.050591
_cell_length_b	13.897448
_cell_length_c	13.897441
_cell_angle_alpha	89.969401
_cell_angle_beta	89.969026
_cell_angle_gamma	90.010775
loop_
_atom_site_label
_atom_site_type_symbol
_atom_site_fract_x
_atom_site_fract_y
_atom_site_fract_z
Zn1	Zn	-1.135398	0.384162	0.545645
Zn2	Zn	-1.135316	0.545484	0.384346
Zn3	Zn	-1.011202	0.384185	0.384334
Zn4	Zn	-1.011188	0.545397	0.545570
O5	O	-1.073276	0.464807	0.464974
O6	O	-1.239312	0.405588	0.524284
O7	O	-1.118824	0.524133	0.249363
O8	O	-1.027717	0.249200	0.405759
O9	O	-1.239252	0.524111	0.405779
O10	O	-1.118963	0.249183	0.524273
O11	O	-1.027638	0.405627	0.249354
O12	O	-0.907276	0.405543	0.405686
O13	O	-1.027693	0.523963	0.680561
O14	O	-0.907265	0.523986	0.524145
O15	O	-1.118950	0.405505	0.680616
O16	O	-1.118811	0.680454	0.405706
O17	O	-1.027614	0.680390	0.524157
C18	C	-0.880324	0.464758	0.464907
C19	C	-0.797778	0.464761	0.464901
C20	C	-0.598312	0.400264	0.400618
C21	C	-0.548902	0.488243	0.376879
C22	C	-0.646648	0.464780	0.464934
C23	C	-0.548976	0.376822	0.488660
C24	C	-0.500663	0.464791	0.464964
C25	C	-0.598326	0.552805	0.441150
C26	C	-0.598403	0.441325	0.552972
C27	C	-0.549016	0.529364	0.529267
C28	C	-0.730746	0.464772	0.464914
C29	C	-0.416566	0.464808	0.464984
C30	C	-1.073222	0.715421	0.464946
C31	C	-1.073267	0.822635	0.464966
C32	C	-1.073329	0.464722	0.716567
C33	C	-1.073351	0.464685	0.823781
C34	C	-0.266982	0.464840	0.465024
C35	C	-0.349528	0.464811	0.465000
C36	C	-1.073351	0.213214	0.465023
C37	C	-1.073383	0.106000	0.465044
C38	C	-1.073345	1.018930	0.465027
C39	C	-1.073299	0.909698	0.464996
C40	C	-1.073266	0.464822	0.214359
C41	C	-1.073388	0.464587	0.107146
C42	C	-1.073371	0.464620	1.020076
C43	C	-1.073358	0.464659	0.910844
H44	H	-0.527160	0.508093	0.302440
H45	H	-0.619913	0.627217	0.421012
H46	H	-0.527508	0.583991	0.583670
H47	H	-0.620163	0.421448	0.627388
C48	C	-0.520027	0.277603	0.515212
C49	C	-0.476271	0.242117	0.439967
C50	C	-0.449602	0.150713	0.464377
H51	H	-0.491057	0.281907	0.572089
H52	H	-0.560592	0.235358	0.525921
H53	H	-0.435712	0.284351	0.429271
H54	H	-0.505224	0.237789	0.383083
H55	H	-0.490167	0.108468	0.475086
H56	H	-0.420636	0.155027	0.521255
H57	H	-0.419916	0.126621	0.413325
C58	C	-0.627138	0.327724	0.327874
C59	C	-0.602066	0.352743	0.235844
C60	C	-0.628613	0.285953	0.168807
H61	H	-0.609530	0.265358	0.343978
H62	H	-0.679767	0.327827	0.328713
H63	H	-0.549448	0.352630	0.235007
H64	H	-0.619671	0.415098	0.219710
H65	H	-0.681243	0.286056	0.169646
H66	H	-0.611004	0.223591	0.184919
H67	H	-0.611612	0.302924	0.106356
