data_functionalizedCrystal
_audit_creation_method	'MofGen! by Chris Wilmer'
_symmetry_space_group_name_H-M	'P1'
_symmetry_Int_Tables_number	1
_symmetry_cell_setting	triclinic
loop_
_symmetry_equiv_pos_as_xyz
  x,y,z
_cell_length_a	15.455438
_cell_length_b	17.699083
_cell_length_c	17.699083
_cell_angle_alpha	96.716985
_cell_angle_beta	92.669600
_cell_angle_gamma	92.665725
loop_
_atom_site_label
_atom_site_type_symbol
_atom_site_fract_x
_atom_site_fract_y
_atom_site_fract_z
O1	O	0.072010	-1.000766	0.099021
O2	O	0.572010	-0.500766	0.599021
O3	O	0.072039	-0.780386	0.111475
O4	O	0.572039	-0.280386	0.611475
O5	O	0.072016	-0.896803	-0.004942
O6	O	0.572016	-0.396803	0.495058
O7	O	0.072033	-0.884349	0.215437
O8	O	0.572033	-0.384349	0.715437
O9	O	-0.072244	-0.903424	-0.011576
O10	O	0.427756	-0.403424	0.488424
O11	O	-0.072222	-0.787007	0.104841
O12	O	0.427778	-0.287007	0.604841
O13	O	-0.072250	-1.007387	0.092387
O14	O	0.427750	-0.507387	0.592387
Cu15	Cu	-0.085408	-0.897802	0.098008
Cu16	Cu	0.414592	-0.397802	0.598008
Cu17	Cu	0.085197	-0.889971	0.105854
Cu18	Cu	0.585197	-0.389971	0.605854
O19	O	-0.072227	-0.890970	0.208803
O20	O	0.427773	-0.390970	0.708803
C21	C	-0.000088	-0.755499	0.107712
C22	C	0.499912	-0.255499	0.607712
C23	C	-0.000077	-0.671481	0.106374
C24	C	0.499923	-0.171481	0.606374
N25	N	-0.205402	-0.903314	0.092489
N26	N	0.294598	-0.403314	0.592489
C27	C	-0.000114	-0.899667	-0.036456
C28	C	0.499886	-0.399667	0.463544
C29	C	-0.000114	-0.898328	-0.120474
C30	C	0.499886	-0.398328	0.379526
C31	C	-0.250808	-0.853848	0.141928
C32	C	0.249192	-0.353848	0.641928
C33	C	-0.341615	-0.858038	0.137752
C34	C	0.158385	-0.358038	0.637752
C35	C	-0.387014	-0.911693	0.084132
C36	C	0.112986	-0.411693	0.584132
C37	C	-0.341602	-0.961165	0.034691
C38	C	0.158398	-0.461165	0.534691
C39	C	-0.250797	-0.956977	0.038872
C40	C	0.249203	-0.456977	0.538872
C41	C	-0.658592	-0.929749	0.066106
C42	C	-0.158592	-0.429749	0.566106
C43	C	-0.749403	-0.933931	0.061927
C44	C	-0.249403	-0.433931	0.561927
C45	C	-0.749410	-0.830805	0.164990
C46	C	-0.249410	-0.330805	0.664990
C47	C	-0.658603	-0.826619	0.169163
C48	C	-0.158603	-0.326619	0.669163
C49	C	-0.613198	-0.876094	0.119724
C50	C	-0.113198	-0.376094	0.619724
N51	N	-0.479834	-0.915976	0.079860
N52	N	0.020166	-0.415976	0.579860
N53	N	-0.520381	-0.871814	0.124000
N54	N	-0.020381	-0.371814	0.624000
N55	N	0.205191	-0.884465	0.111366
N56	N	0.705191	-0.384465	0.611366
C57	C	-0.000122	-1.032273	0.096150
C58	C	0.499878	-0.532273	0.596150
C59	C	-0.000127	-1.116292	0.097488
C60	C	0.499873	-0.616292	0.597488
C61	C	-0.000072	-0.622860	0.174707
C62	C	0.499928	-0.122860	0.674707
C63	C	-0.000083	-0.543917	0.173444
C64	C	0.499917	-0.043917	0.673444
C65	C	-0.000093	-0.513597	0.103847
C66	C	0.499907	-0.013597	0.603847
C67	C	-0.000101	-0.562224	0.035508
C68	C	0.499899	-0.062224	0.535508
C69	C	-0.000096	-0.641166	0.036772
C70	C	0.499904	-0.141166	0.536772
C71	C	-0.000123	-0.243862	0.030412
C72	C	0.499877	0.256138	0.530412
C73	C	-0.000125	-0.164914	0.029154
C74	C	0.499875	0.335086	0.529154
C75	C	-0.000110	-0.146613	0.167085
C76	C	0.499890	0.353387	0.667085
C77	C	-0.000105	-0.225555	0.168348
C78	C	0.499895	0.274445	0.668348
C79	C	-0.000117	-0.274176	0.100009
C80	C	0.499883	0.225824	0.600009
C81	C	-0.000107	-0.359774	0.101379
C82	C	0.499893	0.140226	0.601379
C83	C	-0.000098	-0.427999	0.102477
C84	C	0.499902	0.072001	0.602477
C85	C	-0.000124	-0.966662	-0.169095
C86	C	0.499876	-0.466662	0.330905
C87	C	-0.000117	-0.965400	-0.248038
C88	C	0.499883	-0.465400	0.251962
C89	C	-0.000105	-0.895803	-0.278359
C90	C	0.499895	-0.395803	0.221641
C91	C	-0.000092	-0.827463	-0.229731
C92	C	0.499908	-0.327463	0.270269
C93	C	-0.000094	-0.828726	-0.150789
C94	C	0.499906	-0.328726	0.349211
C95	C	-0.000084	-0.822368	-0.548093
C96	C	0.499916	-0.322368	-0.048093
C97	C	-0.000085	-0.821110	-0.627041
C98	C	0.499915	-0.321110	-0.127041
C99	C	-0.000107	-0.959041	-0.645343
C100	C	0.499893	-0.459041	-0.145343
C101	C	-0.000109	-0.960304	-0.566401
C102	C	0.499891	-0.460304	-0.066401
C103	C	-0.000092	-0.891965	-0.517780
C104	C	0.499908	-0.391965	-0.017780
C105	C	-0.000098	-0.893335	-0.432181
C106	C	0.499902	-0.393335	0.067819
C107	C	-0.000104	-0.894432	-0.363956
C108	C	0.499896	-0.394432	0.136044
C109	C	-0.000095	-0.888106	0.240317
C110	C	0.499905	-0.388106	0.740317
C111	C	-0.000089	-0.889444	0.324336
C112	C	0.499911	-0.389444	0.824336
H113	H	-0.213850	-0.810153	0.185588
H114	H	0.286150	-0.310153	0.685588
H115	H	-0.621631	-0.970032	0.025850
H116	H	-0.121631	-0.470032	0.525850
Br117	Br	-0.000049	-0.664000	0.269166
Br118	Br	0.499951	-0.164000	0.769166
Br119	Br	-0.596988	-0.753800	0.241929
Br120	Br	-0.096988	-0.253800	0.741929
H121	H	-0.000122	-0.537532	-0.021159
H122	H	0.499878	-0.037532	0.478841
Br123	Br	-0.000110	-0.707154	-0.055971
Br124	Br	0.499890	-0.207154	0.444029
H125	H	-0.000127	-1.021044	-0.287623
H126	H	0.499873	-0.521044	0.212377
H127	H	-0.000117	-1.014685	-0.684940
H128	H	0.499883	-0.514685	-0.184940
Br129	Br	-0.811033	-0.763666	0.232083
Br130	Br	-0.311033	-0.263666	0.732083
Br131	Br	-0.000095	-0.080624	0.259832
Br132	Br	0.499905	0.419376	0.759832
H133	H	-0.000077	-0.770796	-0.254423
H134	H	0.499923	-0.270796	0.245577
H135	H	-0.000078	-0.504332	0.229089
H136	H	0.499922	-0.004332	0.729089
Br137	Br	-0.811011	-1.006752	-0.010852
Br138	Br	-0.311011	-0.506752	0.489148
Br139	Br	-0.000083	-0.266699	0.262805
Br140	Br	0.499917	0.233301	0.762805
Br141	Br	-0.403212	-1.033989	-0.038075
Br142	Br	0.096788	-0.533989	0.461925
Br143	Br	-0.000137	-0.123766	-0.065305
Br144	Br	0.499863	0.376234	0.434695
Br145	Br	-0.000124	-1.054760	-0.525256
Br146	Br	0.499876	-0.554760	-0.025256
H147	H	-0.000139	-1.023336	-0.144416
H148	H	0.499861	-0.523336	0.355584
H149	H	-0.378584	-0.817759	0.178009
H150	H	0.121416	-0.317759	0.678009
H151	H	-0.000133	-0.283440	-0.025234
H152	H	0.499867	0.216560	0.474766
Br153	Br	-0.000071	-0.726650	-0.668190
Br154	Br	0.499929	-0.226650	-0.168190
H155	H	-0.000085	-0.773082	-0.111202
H156	H	0.499915	-0.273082	0.388798
Br157	Br	-0.189175	-1.024119	-0.028222
Br158	Br	0.310825	-0.524119	0.471778
Br159	Br	-0.000055	-0.729621	-0.482117
Br160	Br	0.499945	-0.229621	0.017883
