data_functionalizedCrystal
_audit_creation_method	'MofGen! by Chris Wilmer'
_symmetry_space_group_name_H-M	'P1'
_symmetry_Int_Tables_number	1
_symmetry_cell_setting	triclinic
loop_
_symmetry_equiv_pos_as_xyz
  x,y,z
_cell_length_a	19.121459
_cell_length_b	19.121274
_cell_length_c	15.296720
_cell_angle_alpha	102.475208
_cell_angle_beta	82.354682
_cell_angle_gamma	94.747614
loop_
_atom_site_label
_atom_site_type_symbol
_atom_site_fract_x
_atom_site_fract_y
_atom_site_fract_z
Zn1	Zn	-0.381918	-1.031642	0.432641
Zn2	Zn	0.118082	-0.531642	0.932641
Zn3	Zn	-0.479229	-1.056947	0.275077
Zn4	Zn	0.020771	-0.556947	0.775077
Zn5	Zn	-0.358303	-0.932619	0.288524
Zn6	Zn	0.141697	-0.432619	0.788524
Zn7	Zn	-0.494517	-0.918970	0.432601
Zn8	Zn	0.005483	-0.418970	0.932601
O9	O	-0.428492	-0.985044	0.357211
O10	O	0.071508	-0.485044	0.857211
O11	O	-0.398311	-1.134184	0.406129
O12	O	0.101689	-0.634184	0.906129
O13	O	-0.446907	-1.056757	0.150623
O14	O	0.053093	-0.556757	0.650623
O15	O	-0.263705	-0.940876	0.313285
O16	O	0.236295	-0.440876	0.813285
O17	O	-0.469805	-1.152776	0.290368
O18	O	0.030195	-0.652776	0.790368
O19	O	-0.281055	-1.013628	0.419168
O20	O	0.218945	-0.513628	0.919168
O21	O	-0.358063	-0.965413	0.160502
O22	O	0.141937	-0.465413	0.660502
O23	O	-0.372887	-0.831623	0.313247
O24	O	0.127113	-0.331623	0.813247
O25	O	-0.495861	-0.917614	0.558845
O26	O	0.004139	-0.417614	1.058845
O27	O	-0.472963	-0.821595	0.419100
O28	O	0.027037	-0.321595	0.919100
O29	O	-0.413136	-1.000393	0.558874
O30	O	0.086864	-0.500393	1.058874
O31	O	-0.578988	-1.043523	0.290329
O32	O	-0.078988	-0.543523	0.790329
O33	O	-0.590220	-0.942151	0.406061
O34	O	-0.090220	-0.442151	0.906061
C35	C	-0.422022	-0.800891	0.367629
C36	C	0.077978	-0.300891	0.867629
C37	C	-0.419273	-0.722107	0.372106
C38	C	0.080727	-0.222107	0.872106
C39	C	-0.455122	-0.694779	0.313857
C40	C	0.044878	-0.194779	0.813857
C41	C	-0.452541	-0.620752	0.318075
C42	C	0.047459	-0.120752	0.818075
C43	C	-0.414108	-0.574055	0.380539
C44	C	0.085892	-0.074055	0.880539
C45	C	-0.378259	-0.601388	0.438795
C46	C	0.121741	-0.101388	0.938795
C47	C	-0.380844	-0.675413	0.434580
C48	C	0.119156	-0.175413	0.934580
C49	C	-0.404448	-0.350061	0.396289
C50	C	0.095552	0.149939	0.896289
C51	C	-0.401864	-0.276031	0.400498
C52	C	0.098136	0.223969	0.900498
C53	C	-0.476148	-0.295401	0.279779
C54	C	0.023852	0.204599	0.779779
C55	C	-0.478726	-0.369427	0.275566
C56	C	0.021274	0.130573	0.775566
C57	C	-0.442880	-0.396753	0.333825
C58	C	0.057120	0.103247	0.833825
C59	C	-0.411467	-0.498387	0.384851
C60	C	0.088533	0.001613	0.884851
C61	C	-0.445525	-0.472419	0.329517
C62	C	0.054475	0.027581	0.829517
C63	C	-0.609947	-0.994119	0.346750
C64	C	-0.109947	-0.494119	0.846750
C65	C	-0.687581	-0.998062	0.342302
C66	C	-0.187581	-0.498062	0.842302
C67	C	-1.126365	-1.023028	0.314097
C68	C	-0.626365	-0.523028	0.814097
C69	C	-1.053420	-1.019317	0.318279
C70	C	-0.553420	-0.519317	0.818279
C71	C	-1.022816	-0.964657	0.380583
C72	C	-0.522816	-0.464657	0.880583
C73	C	-1.065161	-0.913700	0.438703
C74	C	-0.565161	-0.413700	0.938703
C75	C	-1.138104	-0.917409	0.434516
C76	C	-0.638104	-0.417409	0.934516
C77	C	-0.802869	-0.950814	0.396234
C78	C	-0.302869	-0.450814	0.896234
C79	C	-0.729920	-0.947110	0.400419
C80	C	-0.229920	-0.447110	0.900419
C81	C	-0.718184	-1.052727	0.279993
C82	C	-0.218184	-0.552727	0.779993
C83	C	-0.791130	-1.056433	0.275815
C84	C	-0.291130	-0.556433	0.775815
C85	C	-0.833467	-1.005474	0.333931
C86	C	-0.333467	-0.505474	0.833931
C87	C	-0.948255	-0.960863	0.384862
C88	C	-0.448255	-0.460863	0.884862
C89	C	-0.908026	-1.009266	0.329648
C90	C	-0.408026	-0.509266	0.829648
C91	C	-0.246331	-0.975952	0.367731
C92	C	0.253669	-0.475952	0.867731
C93	C	-0.168704	-0.972077	0.372214
C94	C	0.331296	-0.472077	0.872214
C95	C	-0.458838	-0.954658	0.592507
C96	C	0.041162	-0.454658	1.092507
C97	C	-0.471770	-0.941710	0.692775
C98	C	0.028230	-0.441710	1.192775
C99	C	-0.434976	-0.169918	0.346741
C100	C	0.065024	0.330082	0.846741
C101	C	-0.437712	-0.248703	0.342249
C102	C	0.062288	0.251297	0.842249
C103	C	-0.398214	-1.015350	0.122831
C104	C	0.101786	-0.515350	0.622831
C105	C	-0.385091	-1.028427	0.022566
C106	C	0.114909	-0.528427	0.522566
C107	C	-0.335944	-1.077611	0.975478
C108	C	0.164056	-0.577611	1.475478
C109	C	-0.323796	-1.089782	0.881270
C110	C	0.176204	-0.589782	1.381270
C111	C	-0.360788	-1.052765	0.834141
C112	C	0.139212	-0.552765	1.334141
C113	C	-0.409931	-1.003575	0.881231
C114	C	0.090069	-0.503575	1.381231
C115	C	-0.422085	-0.991408	0.975447
C116	C	0.077915	-0.491408	1.475447
C117	C	-0.446929	-0.966561	0.834111
C118	C	0.053071	-0.466561	1.334111
C119	C	-0.496072	-0.917372	0.881200
C120	C	0.003928	-0.417372	1.381200
C121	C	-0.508224	-0.905206	0.975408
C122	C	-0.008224	-0.405206	1.475408
C123	C	-0.471232	-0.942223	1.022536
C124	C	0.028768	-0.442223	1.522536
C125	C	-0.434775	-0.978729	0.739894
C126	C	0.065225	-0.478729	1.239894
C127	C	-0.520916	-0.892525	0.739864
C128	C	-0.020916	-0.392525	1.239864
C129	C	-0.533065	-0.880355	0.834072
C130	C	-0.033065	-0.380355	1.334072
H131	H	-0.351652	-0.697662	0.482012
H132	H	0.148348	-0.197662	0.982012
F133	F	-0.486430	-0.522118	0.263043
F134	F	0.013570	-0.022118	0.763043
F135	F	-0.347856	-1.065718	0.733877
F136	F	0.152144	-0.565718	1.233877
F137	F	-0.360953	-0.226334	0.466980
F138	F	0.139047	0.273666	0.966980
H139	H	-0.481732	-0.598505	0.270643
H140	H	0.018268	-0.098505	0.770643
H141	H	-1.040239	-0.869191	0.489430
H142	H	-0.540239	-0.369191	0.989430
F143	F	-0.585366	-0.828006	0.884199
F144	F	-0.085366	-0.328006	1.384199
H145	H	-0.394761	-1.018779	0.701564
H146	H	0.105239	-0.518779	1.201564
H147	H	-0.283785	-1.129834	0.842936
H148	H	0.216215	-0.629834	1.342936
H149	H	-0.375261	-0.372300	0.443729
H150	H	0.124739	0.127700	0.943729
H151	H	-0.932946	-1.053768	0.278917
H152	H	-0.432946	-0.553768	0.778917
H153	H	-0.305835	-1.107749	1.013857
H154	H	0.194165	-0.607749	1.513857
F155	F	-0.337361	-0.551687	0.505280
F156	F	0.162639	-0.051687	1.005280
F157	F	-0.519612	-0.419123	0.209063
F158	F	-0.019612	0.080877	0.709063
H159	H	-0.505333	-0.273143	0.232350
H160	H	-0.005333	0.226857	0.732350
F161	F	-0.370566	-0.448683	0.451330
F162	F	0.129434	0.051317	0.951330
F163	F	-1.158929	-1.081209	0.247787
F164	F	-0.658929	-0.581209	0.747787
H165	H	-0.816041	-1.100942	0.225078
H166	H	-0.316041	-0.600942	0.725078
F167	F	-1.008363	-1.073552	0.256429
F168	F	-0.508363	-0.573552	0.756429
F169	F	-0.673120	-1.106956	0.218144
F170	F	-0.173120	-0.606956	0.718144
H171	H	-0.705007	-0.902596	0.451158
H172	H	-0.205007	-0.402596	0.951158
F173	F	-0.847920	-0.896586	0.458099
F174	F	-0.347920	-0.396586	0.958099
H175	H	-1.172577	-0.875922	0.481846
H176	H	-0.672577	-0.375922	0.981846
H177	H	-0.923332	-0.916358	0.435593
H178	H	-0.423332	-0.416358	0.935593
H179	H	-0.551039	-0.862384	0.701493
H180	H	-0.051039	-0.362384	1.201493
H181	H	-0.481121	-0.932317	1.099248
H182	H	0.018879	-0.432317	1.599248
H183	H	-0.486415	-0.732796	0.262988
H184	H	0.013585	-0.232796	0.762988
F185	F	-0.560537	-0.852865	1.025520
F186	F	-0.060537	-0.352865	1.525520
