data_functionalizedCrystal
_audit_creation_method	'MofGen! by Chris Wilmer'
_symmetry_space_group_name_H-M	'P1'
_symmetry_Int_Tables_number	1
_symmetry_cell_setting	triclinic
loop_
_symmetry_equiv_pos_as_xyz
  x,y,z
_cell_length_a	19.805407
_cell_length_b	14.908520
_cell_length_c	19.805399
_cell_angle_alpha	86.729391
_cell_angle_beta	90.019573
_cell_angle_gamma	93.320773
loop_
_atom_site_label
_atom_site_type_symbol
_atom_site_fract_x
_atom_site_fract_y
_atom_site_fract_z
Zn1	Zn	1.019204	-0.359181	0.398269
Zn2	Zn	1.519204	0.140819	0.898269
Zn3	Zn	1.012594	-0.510047	0.291612
Zn4	Zn	1.512594	-0.010047	0.791612
Zn5	Zn	0.906017	-0.359206	0.285095
Zn6	Zn	1.406017	0.140794	0.785095
Zn7	Zn	0.899460	-0.509999	0.404757
Zn8	Zn	1.399460	-0.009999	0.904757
O9	O	0.959319	-0.434608	0.344934
O10	O	1.459319	0.065392	0.844934
O11	O	1.113043	-0.379203	0.384134
O12	O	1.613043	0.120797	0.884134
O13	O	0.998435	-0.490068	0.196033
O14	O	1.498435	0.009932	0.696033
O15	O	0.926542	-0.232958	0.294665
O16	O	1.426542	0.267042	0.794665
O17	O	1.108187	-0.490044	0.305773
O18	O	1.608187	0.009956	0.805773
O19	O	1.009699	-0.232939	0.377814
O20	O	1.509699	0.267061	0.877814
O21	O	0.920133	-0.379246	0.191244
O22	O	1.420133	0.120754	0.691244
O23	O	0.810431	-0.379199	0.300956
O24	O	1.310431	0.120801	0.800956
O25	O	0.915366	-0.489962	0.498612
O26	O	1.415366	0.010038	0.998612
O27	O	0.805614	-0.489986	0.388871
O28	O	1.305614	0.010014	0.888871
O29	O	1.003341	-0.379157	0.493845
O30	O	1.503341	0.120843	0.993845
O31	O	0.992077	-0.636286	0.312064
O32	O	1.492077	-0.136286	0.812064
O33	O	0.908957	-0.636250	0.395191
O34	O	1.408957	-0.136250	0.895191
C35	C	0.783463	-0.434591	0.344911
C36	C	1.283463	0.065409	0.844911
C37	C	0.708231	-0.434605	0.344918
C38	C	1.208231	0.065395	0.844918
C39	C	0.670392	-0.492379	0.390629
C40	C	1.170392	0.007621	0.890629
C41	C	0.599704	-0.492380	0.390639
C42	C	1.099704	0.007620	0.890639
C43	C	0.566855	-0.434612	0.344934
C44	C	1.066855	0.065388	0.844934
C45	C	0.604699	-0.376832	0.299220
C46	C	1.104699	0.123168	0.799220
C47	C	0.675386	-0.376827	0.299214
C48	C	1.175386	0.123173	0.799214
C49	C	0.319625	-0.376852	0.299244
C50	C	0.819625	0.123148	0.799244
C51	C	0.248932	-0.376864	0.299252
C52	C	0.748932	0.123136	0.799252
C53	C	0.243942	-0.492406	0.390668
C54	C	0.743942	0.007594	0.890668
C55	C	0.314629	-0.492400	0.390662
C56	C	0.814629	0.007600	0.890662
C57	C	0.352467	-0.434618	0.344952
C58	C	0.852467	0.065382	0.844952
C59	C	0.429116	-0.434615	0.344943
C60	C	0.929116	0.065385	0.844943
C61	C	0.490208	-0.434618	0.344939
C62	C	0.990208	0.065382	0.844939
C63	C	0.949107	-0.669002	0.355053
C64	C	1.449107	-0.169002	0.855053
C65	C	0.944800	-0.769277	0.359405
C66	C	1.444800	-0.269277	0.859405
C67	C	1.023348	-0.957679	0.281093
C68	C	1.523348	-0.457679	0.781093
C69	C	1.019304	-1.051896	0.285180
C70	C	1.519304	-0.551896	0.785180
C71	C	0.932671	-1.051929	0.371669
C72	C	1.432671	-0.551929	0.871669
C73	C	0.936715	-0.957712	0.367582
C74	C	1.436715	-0.457712	0.867582
C75	C	0.982055	-0.910590	0.322292
C76	C	1.482055	-0.410590	0.822292
C77	C	0.986095	-0.816372	0.318202
C78	C	1.486095	-0.316372	0.818202
C79	C	0.899466	-0.816407	0.404694
C80	C	1.399466	-0.316407	0.904694
C81	C	0.895421	-0.910624	0.408781
C82	C	1.395421	-0.410624	0.908781
C83	C	1.135861	-0.434626	0.344957
C84	C	1.635861	0.065374	0.844957
C85	C	1.211092	-0.434634	0.344967
C86	C	1.711092	0.065366	0.844967
C87	C	0.959359	-0.434551	0.521474
C88	C	1.459359	0.065449	1.021474
C89	C	0.959376	-0.434527	0.596705
C90	C	1.459376	0.065473	1.096705
C91	C	0.969589	-0.199299	0.334789
C92	C	1.469589	0.300701	0.834789
C93	C	0.973966	-0.099024	0.330466
C94	C	1.473966	0.400976	0.830466
C95	C	0.959320	-0.434600	0.169077
C96	C	1.459320	0.065400	0.669077
C97	C	0.959445	-0.434370	0.093836
C98	C	1.459445	0.065630	0.593836
C99	C	1.005186	-0.376828	0.629568
C100	C	1.505186	0.123172	1.129568
C101	C	1.005194	-0.376802	0.700255
C102	C	1.505194	0.123198	1.200255
C103	C	0.959395	-0.434480	0.738078
C104	C	1.459395	0.065520	1.238078
C105	C	0.913581	-0.492182	0.705210
C106	C	1.413581	0.007818	1.205210
C107	C	0.913570	-0.492203	0.634524
C108	C	1.413570	0.007797	1.134524
C109	C	0.913622	-0.492098	0.990280
C110	C	1.413622	0.007902	1.490280
C111	C	0.913638	-0.492074	1.060971
C112	C	1.413638	0.007926	1.560971
C113	C	1.005247	-0.376697	1.056011
C114	C	1.505247	0.123303	1.556011
C115	C	1.005236	-0.376718	0.985325
C116	C	1.505236	0.123282	1.485325
C117	C	0.959419	-0.434416	0.952463
C118	C	1.459419	0.065584	1.452463
C119	C	0.959410	-0.434442	0.875816
C120	C	1.459410	0.065558	1.375816
C121	C	0.959407	-0.434459	0.814725
C122	C	1.459407	0.065541	1.314725
H123	H	0.568898	-0.539426	0.427861
H124	H	1.068898	-0.039426	0.927861
O125	O	0.864229	-0.554276	1.101768
O126	O	1.364229	-0.054276	1.601768
H127	H	0.872731	-0.625089	1.091254
H128	H	1.372731	-0.125089	1.591254
O129	O	1.063837	-1.102689	0.240741
O130	O	1.563837	-0.602689	0.740741
H131	H	1.096038	-1.054090	0.208560
H132	H	1.596038	-0.554090	0.708560
O133	O	0.360431	-0.314561	0.249924
O134	O	0.860431	0.185439	0.749924
H135	H	0.325711	-0.274410	0.218134
H136	H	0.825711	0.225590	0.718134
H137	H	0.865840	-0.778057	0.438239
H138	H	1.365840	-0.278057	0.938239
H139	H	0.341371	-0.539444	0.427878
H140	H	0.841371	-0.039444	0.927878
H141	H	0.577948	-0.329793	0.262009
H142	H	1.077948	0.170207	0.762009
O143	O	0.203133	-0.554722	0.439981
O144	O	0.703133	-0.054722	0.939981
H145	H	0.148461	-0.545017	0.432316
H146	H	0.648461	-0.045017	0.932316
H147	H	0.876325	-0.539092	0.963533
H148	H	1.376325	-0.039092	1.463533
H149	H	0.895762	-1.090312	0.408547
H150	H	1.395762	-0.590312	0.908547
H151	H	0.222189	-0.329817	0.262033
H152	H	0.722189	0.170183	0.762033
O153	O	1.034998	-0.765541	0.269361
O154	O	1.534998	-0.265541	0.769361
H155	H	1.063039	-0.814118	0.241406
H156	H	1.563039	-0.314118	0.741406
H157	H	0.876260	-0.539178	0.607768
H158	H	1.376260	-0.039178	1.107768
H159	H	0.706194	-0.329777	0.261995
H160	H	1.206194	0.170223	0.761995
H161	H	1.060261	-0.919312	0.244211
H162	H	1.560261	-0.419312	0.744211
O163	O	0.846511	-0.961448	0.457619
O164	O	1.346511	-0.461448	0.957619
H165	H	0.850630	-1.034875	0.453535
H166	H	1.350630	-0.534875	0.953535
H167	H	1.042483	-0.329862	0.598777
H168	H	1.542483	0.170138	1.098777
O169	O	1.054607	-0.314575	0.735704
O170	O	1.554607	0.185425	1.235704
H171	H	1.086458	-0.274482	0.697528
H172	H	1.586458	0.225518	1.197528
H173	H	1.042533	-0.329753	0.954533
H174	H	1.542533	0.170247	1.454533
H175	H	1.042551	-0.329713	1.082776
H176	H	1.542551	0.170287	1.582776
O177	O	0.864176	-0.554386	0.746002
O178	O	1.364176	-0.054386	1.246002
H179	H	0.892468	-0.600287	0.780188
H180	H	1.392468	-0.100287	1.280188
O181	O	0.705821	-0.554683	0.439929
O182	O	1.205821	-0.054683	0.939929
H183	H	0.667631	-0.594848	0.471721
H184	H	1.167631	-0.094848	0.971721
