data_functionalizedCrystal
_audit_creation_method	'MofGen! by Chris Wilmer'
_symmetry_space_group_name_H-M	'P1'
_symmetry_Int_Tables_number	1
_symmetry_cell_setting	triclinic
loop_
_symmetry_equiv_pos_as_xyz
  x,y,z
_cell_length_a	10.654550
_cell_length_b	11.026607
_cell_length_c	9.130313
_cell_angle_alpha	90.000037
_cell_angle_beta	89.996220
_cell_angle_gamma	96.535460
loop_
_atom_site_label
_atom_site_type_symbol
_atom_site_fract_x
_atom_site_fract_y
_atom_site_fract_z
O1	O	1.704901	0.170762	-0.121918
O2	O	1.342954	0.187032	-0.121895
O3	O	1.493930	0.001991	-0.121899
O4	O	1.553926	0.355802	-0.121914
O5	O	1.493929	0.001996	0.121700
O6	O	1.342953	0.187037	0.121704
O7	O	1.704900	0.170767	0.121681
Cu8	Cu	1.523927	0.178902	0.143935
Cu9	Cu	1.523928	0.178896	-0.144149
O10	O	1.553924	0.355807	0.121685
C11	C	1.295897	0.185839	-0.000092
C12	C	1.155677	0.182265	-0.000083
C13	C	1.099841	0.291214	-0.000109
C14	C	0.968090	0.287849	-0.000134
C15	C	0.948022	0.066576	-0.000114
C16	C	1.079771	0.069943	-0.000078
C17	C	1.111426	0.418964	-0.000127
C18	C	0.979675	0.415599	-0.000152
C19	C	1.482861	-0.043310	-0.000101
C20	C	1.449867	-0.178302	-0.000104
C21	C	1.540970	-0.251341	-0.000112
C22	C	1.506871	-0.390862	-0.000115
C23	C	1.751958	0.171959	-0.000125
C24	C	1.892177	0.175533	-0.000144
C25	C	1.564993	0.401109	-0.000116
C26	C	1.597988	0.536100	-0.000123
N27	N	1.523934	0.178906	0.346558
N28	N	1.523928	0.178883	-0.346771
C29	C	1.590814	0.096998	0.423208
C30	C	1.590808	0.096983	0.576544
C31	C	1.457040	0.260795	0.576568
C32	C	1.457040	0.260803	0.423234
C33	C	1.668049	0.002426	0.423195
C34	C	1.668043	0.002411	0.576532
H35	H	1.151603	0.468929	0.101823
O36	O	1.618045	-0.109008	0.373616
C37	C	1.436668	-0.260960	0.369051
C38	C	1.493134	-0.134737	0.425265
H39	H	1.335679	-0.281812	0.410813
H40	H	1.436561	-0.261011	0.244188
H41	H	1.496010	-0.333546	0.410622
H42	H	1.433840	-0.062080	0.383802
H43	H	1.493265	-0.134789	0.550127
H44	H	1.701236	-0.423147	-0.000240
H45	H	1.403623	-0.431617	-0.000118
H46	H	1.644212	-0.210581	-0.000109
O47	O	1.784590	0.037720	0.366678
C48	C	2.003549	0.104209	0.417552
C49	C	1.871643	0.064229	0.481754
H50	H	2.073962	0.125677	0.510559
H51	H	2.034590	0.027499	0.347320
H52	H	1.999722	0.189140	0.347229
H53	H	1.875367	-0.020675	0.552143
H54	H	1.840653	0.141012	0.551902
H55	H	1.346625	-0.219062	-0.000107
O56	O	0.942181	0.472840	-0.121828
C57	C	0.818903	0.454950	-0.343628
C58	C	0.861239	0.389988	-0.205881
H59	H	0.753476	0.387985	-0.411639
H60	H	0.766631	0.535136	-0.309753
H61	H	0.905347	0.489810	-0.411523
H62	H	0.774864	0.355051	-0.137925
H63	H	0.913555	0.309859	-0.239858
O64	O	1.164309	0.467572	-0.125653
C65	C	1.128703	0.555293	-0.361663
C66	C	1.068650	0.500302	-0.219563
H67	H	1.051389	0.581747	-0.437641
H68	H	1.196560	0.639795	-0.334366
H69	H	1.182627	0.484959	-0.418224
H70	H	1.014662	0.570546	-0.162932
H71	H	1.000863	0.415776	-0.246955
H72	H	1.402568	0.327488	0.360827
O73	O	1.608967	-0.102946	0.633468
C74	C	1.627757	-0.279111	0.784620
C75	C	1.694799	-0.159819	0.720250
H76	H	1.697130	-0.325140	0.854772
H77	H	1.544673	-0.257725	0.855008
H78	H	1.591848	-0.342828	0.691634
H79	H	1.730788	-0.096045	0.813143
H80	H	1.777824	-0.181296	0.649824
O81	O	0.935390	0.461747	0.125368
C82	C	0.987121	0.551745	0.361351
C83	C	1.037448	0.499548	0.219264
H84	H	1.069607	0.582298	0.437317
H85	H	0.934311	0.633158	0.334032
H86	H	0.920162	0.478332	0.417935
H87	H	1.104456	0.572873	0.162610
H88	H	1.090184	0.418107	0.246677
H89	H	1.402575	0.327472	0.639014
H90	H	0.886203	-0.024874	-0.000132
O91	O	1.133806	-0.036004	-0.000100
C92	C	1.099992	-0.255831	0.000040
C93	C	1.038634	-0.135934	0.000026
H94	H	1.023074	-0.336656	0.000173
H95	H	1.161157	-0.259889	-0.101909
H96	H	1.161185	-0.259702	0.101983
H97	H	0.977380	-0.131983	-0.101848
H98	H	0.977544	-0.131926	0.102042
H99	H	1.769076	0.023243	0.618141
