data_functionalizedCrystal
_audit_creation_method	'MofGen! by Chris Wilmer'
_symmetry_space_group_name_H-M	'P1'
_symmetry_Int_Tables_number	1
_symmetry_cell_setting	triclinic
loop_
_symmetry_equiv_pos_as_xyz
  x,y,z
_cell_length_a	19.188900
_cell_length_b	23.532407
_cell_length_c	17.666332
_cell_angle_alpha	89.988854
_cell_angle_beta	90.017738
_cell_angle_gamma	97.009417
loop_
_atom_site_label
_atom_site_type_symbol
_atom_site_fract_x
_atom_site_fract_y
_atom_site_fract_z
O1	O	-0.925936	0.071020	-0.063103
O2	O	-0.675936	0.321020	0.186897
O3	O	-0.425936	0.571020	0.436897
O4	O	-0.175936	0.821020	0.686897
O5	O	-0.722591	0.080610	-0.063073
O6	O	-0.472591	0.330610	0.186927
O7	O	-0.222591	0.580610	0.436927
O8	O	0.027409	0.830610	0.686927
O9	O	-0.830396	-0.007104	-0.063075
O10	O	-0.580396	0.242896	0.186925
O11	O	-0.330396	0.492896	0.436925
O12	O	-0.080396	0.742896	0.686925
O13	O	-0.818132	0.158734	-0.063101
O14	O	-0.568132	0.408734	0.186899
O15	O	-0.318132	0.658734	0.436899
O16	O	-0.068132	0.908734	0.686899
O17	O	-0.830377	-0.007109	0.062822
O18	O	-0.580377	0.242891	0.312822
O19	O	-0.330377	0.492891	0.562822
O20	O	-0.080377	0.742891	0.812822
O21	O	-0.722573	0.080605	0.062824
O22	O	-0.472573	0.330605	0.312824
O23	O	-0.222573	0.580605	0.562824
O24	O	0.027427	0.830605	0.812824
O25	O	-0.925918	0.071016	0.062794
O26	O	-0.675918	0.321016	0.312794
O27	O	-0.425918	0.571016	0.562794
O28	O	-0.175918	0.821016	0.812794
Cu29	Cu	-0.824243	0.075810	0.074304
Cu30	Cu	-0.574243	0.325810	0.324304
Cu31	Cu	-0.324243	0.575810	0.574304
Cu32	Cu	-0.074243	0.825810	0.824304
Cu33	Cu	-0.824266	0.075816	-0.074583
Cu34	Cu	-0.574266	0.325816	0.175417
Cu35	Cu	-0.324266	0.575816	0.425417
Cu36	Cu	-0.074266	0.825816	0.675417
O37	O	-0.818113	0.158730	0.062796
O38	O	-0.568113	0.408730	0.312796
O39	O	-0.318113	0.658730	0.562796
O40	O	-0.068113	0.908730	0.812796
C41	C	-0.696572	0.080300	-0.000121
C42	C	-0.446572	0.330300	0.249879
C43	C	-0.196572	0.580300	0.499879
C44	C	0.053428	0.830300	0.749879
C45	C	-0.619069	0.079376	-0.000109
C46	C	-0.369069	0.329376	0.249891
C47	C	-0.119069	0.579376	0.499891
C48	C	0.130931	0.829376	0.749891
C49	C	-0.582689	0.078935	-0.068736
C50	C	-0.332689	0.328935	0.181264
C51	C	-0.082689	0.578935	0.431264
C52	C	0.167311	0.828935	0.681264
C53	C	-0.509868	0.078061	-0.068744
C54	C	-0.259868	0.328061	0.181256
C55	C	-0.009868	0.578061	0.431256
C56	C	0.240132	0.828061	0.681256
C57	C	-0.473432	0.077616	-0.000120
C58	C	-0.223432	0.327616	0.249880
C59	C	0.026568	0.577616	0.499880
C60	C	0.276568	0.827616	0.749880
C61	C	-0.509820	0.078061	0.068516
C62	C	-0.259820	0.328061	0.318516
C63	C	-0.009820	0.578061	0.568516
C64	C	0.240180	0.828061	0.818516
C65	C	-0.582639	0.078941	0.068522
C66	C	-0.332639	0.328941	0.318522
C67	C	-0.082639	0.578941	0.568522
C68	C	0.167361	0.828941	0.818522
N69	N	-0.364511	0.043824	0.050957
N70	N	-0.114511	0.293824	0.300957
N71	N	0.135489	0.543824	0.550957
N72	N	0.385489	0.793824	0.800957
N73	N	-0.295337	0.042986	0.050947
N74	N	-0.045337	0.292986	0.300947
N75	N	0.204663	0.542986	0.550947
N76	N	0.454663	0.792986	0.800947
C77	C	-0.254033	0.074967	-0.000133
C78	C	-0.004033	0.324967	0.249867
C79	C	0.245967	0.574967	0.499867
C80	C	0.495967	0.824967	0.749867
N81	N	-0.284518	0.107808	-0.051214
N82	N	-0.034518	0.357808	0.198786
N83	N	0.215482	0.607808	0.448786
N84	N	0.465482	0.857808	0.698786
N85	N	-0.353699	0.108643	-0.051206
N86	N	-0.103699	0.358643	0.198794
N87	N	0.146301	0.608643	0.448794
N88	N	0.396301	0.858643	0.698794
C89	C	-0.394472	0.076663	-0.000118
C90	C	-0.144472	0.326663	0.249882
C91	C	0.105528	0.576663	0.499882
C92	C	0.355528	0.826663	0.749882
C93	C	-0.138692	0.073578	-0.068773
C94	C	0.111308	0.323578	0.181227
C95	C	0.361308	0.573578	0.431227
C96	C	0.611308	0.823578	0.681227
C97	C	-0.065869	0.072708	-0.068778
C98	C	0.184131	0.322708	0.181222
C99	C	0.434131	0.572708	0.431222
C100	C	0.684131	0.822708	0.681222
C101	C	-0.065823	0.072702	0.068485
C102	C	0.184177	0.322702	0.318485
C103	C	0.434177	0.572702	0.568485
C104	C	0.684177	0.822702	0.818485
C105	C	-0.138644	0.073578	0.068487
C106	C	0.111356	0.323578	0.318487
C107	C	0.361356	0.573578	0.568487
C108	C	0.611356	0.823578	0.818487
C109	C	-0.175074	0.074014	-0.000144
C110	C	0.074926	0.324014	0.249856
C111	C	0.324926	0.574014	0.499856
C112	C	0.574926	0.824014	0.749856
C113	C	-0.830074	-0.028323	-0.000125
C114	C	-0.580074	0.221677	0.249875
C115	C	-0.330074	0.471677	0.499875
C116	C	-0.080074	0.721677	0.749875
C117	C	-0.829135	-0.091542	-0.000119
C118	C	-0.579135	0.158458	0.249881
C119	C	-0.329135	0.408458	0.499881
C120	C	-0.079135	0.658458	0.749881
C121	C	-0.887042	-0.490527	-0.000169
C122	C	-0.637042	-0.240527	0.249831
C123	C	-0.387042	0.009473	0.499831
C124	C	-0.137042	0.259473	0.749831
C125	C	-0.886170	-0.549929	-0.000174
C126	C	-0.636170	-0.299929	0.249826
C127	C	-0.386170	-0.049929	0.499826
C128	C	-0.136170	0.200071	0.749826
O129	O	-0.939851	-0.586565	-0.000210
O130	O	-0.689851	-0.336565	0.249790
O131	O	-0.439851	-0.086565	0.499790
O132	O	-0.189851	0.163435	0.749790
N133	N	-0.822080	-0.572686	-0.000164
N134	N	-0.572080	-0.322686	0.249836
N135	N	-0.322080	-0.072686	0.499836
N136	N	-0.072080	0.177314	0.749836
C137	C	-0.758859	-0.536037	-0.000156
C138	C	-0.508859	-0.286037	0.249844
C139	C	-0.258859	-0.036037	0.499844
C140	C	-0.008859	0.213963	0.749844
O141	O	-0.704266	-0.560848	-0.000149
O142	O	-0.454266	-0.310848	0.249851
O143	O	-0.204266	-0.060848	0.499851
O144	O	0.045734	0.189152	0.749851
C145	C	-0.759732	-0.476636	-0.000156
C146	C	-0.509732	-0.226636	0.249844
C147	C	-0.259732	0.023364	0.499844
C148	C	-0.009732	0.273364	0.749844
C149	C	-0.823826	-0.453883	-0.000159
C150	C	-0.573826	-0.203883	0.249841
C151	C	-0.323826	0.046117	0.499841
C152	C	-0.073826	0.296117	0.749841
C153	C	-0.951131	-0.467774	-0.000172
C154	C	-0.701131	-0.217774	0.249828
C155	C	-0.451131	0.032226	0.499828
C156	C	-0.201131	0.282226	0.749828
C157	C	-0.952003	-0.408376	-0.000165
C158	C	-0.702003	-0.158376	0.249835
C159	C	-0.452003	0.091624	0.499835
C160	C	-0.202003	0.341624	0.749835
C161	C	-0.888786	-0.371731	-0.000155
C162	C	-0.638786	-0.121731	0.249845
C163	C	-0.388786	0.128269	0.499845
C164	C	-0.138786	0.378269	0.749845
C165	C	-0.824698	-0.394485	-0.000151
C166	C	-0.574698	-0.144485	0.249849
C167	C	-0.324698	0.105515	0.499849
C168	C	-0.074698	0.355515	0.749849
C169	C	-0.696511	-0.439988	-0.000154
C170	C	-0.446511	-0.189988	0.249846
C171	C	-0.196511	0.060012	0.499846
C172	C	0.053489	0.310012	0.749846
C173	C	-0.697390	-0.380584	-0.000154
C174	C	-0.447390	-0.130584	0.249846
C175	C	-0.197390	0.119416	0.499846
C176	C	0.052610	0.369416	0.749846
C177	C	-0.761483	-0.357831	-0.000156
C178	C	-0.511483	-0.107831	0.249844
C179	C	-0.261483	0.142169	0.499844
C180	C	-0.011483	0.392169	0.749844
C181	C	-0.762353	-0.298443	-0.000134
C182	C	-0.512353	-0.048443	0.249866
C183	C	-0.262353	0.201557	0.499866
C184	C	-0.012353	0.451557	0.749866
N185	N	-0.826443	-0.275686	-0.000144
N186	N	-0.576443	-0.025686	0.249856
N187	N	-0.326443	0.224314	0.499856
N188	N	-0.076443	0.474314	0.749856
C189	C	-0.889659	-0.312331	-0.000154
C190	C	-0.639659	-0.062331	0.249846
C191	C	-0.389659	0.187669	0.499846
C192	C	-0.139659	0.437669	0.749846
C193	C	-0.757031	-0.660783	-0.000158
C194	C	-0.507031	-0.410783	0.249842
C195	C	-0.257031	-0.160783	0.499842
C196	C	-0.007031	0.089217	0.749842
C197	C	-0.756157	-0.720183	-0.000153
C198	C	-0.506157	-0.470183	0.249847
C199	C	-0.256157	-0.220183	0.499847
C200	C	-0.006157	0.029817	0.749847
C201	C	-0.883468	-0.734071	-0.000172
C202	C	-0.633468	-0.484071	0.249828
C203	C	-0.383468	-0.234071	0.499828
C204	C	-0.133468	0.015929	0.749828
C205	C	-0.884341	-0.674670	-0.000172
C206	C	-0.634341	-0.424670	0.249828
C207	C	-0.384341	-0.174670	0.499828
C208	C	-0.134341	0.075330	0.749828
C209	C	-0.821120	-0.638027	-0.000168
C210	C	-0.571120	-0.388027	0.249832
C211	C	-0.321120	-0.138027	0.499832
C212	C	-0.071120	0.111973	0.749832
C213	C	-0.891485	-0.187590	-0.000139
C214	C	-0.641485	0.062410	0.249861
C215	C	-0.391485	0.312410	0.499861
C216	C	-0.141485	0.562410	0.749861
C217	C	-0.892352	-0.128186	-0.000129
C218	C	-0.642352	0.121814	0.249871
C219	C	-0.392352	0.371814	0.499871
C220	C	-0.142352	0.621814	0.749871
C221	C	-0.765041	-0.114303	-0.000114
C222	C	-0.515041	0.135697	0.249886
C223	C	-0.265041	0.385697	0.499886
C224	C	-0.015041	0.635697	0.749886
C225	C	-0.764174	-0.173702	-0.000120
C226	C	-0.514174	0.076298	0.249880
C227	C	-0.264174	0.326298	0.499880
C228	C	-0.014174	0.576298	0.749880
C229	C	-0.827402	-0.210344	-0.000135
C230	C	-0.577402	0.039656	0.249865
C231	C	-0.327402	0.289656	0.499865
C232	C	-0.077402	0.539656	0.749865
O233	O	-0.708701	-0.261773	-0.000102
O234	O	-0.458701	-0.011773	0.249898
O235	O	-0.208701	0.238227	0.499898
O236	O	0.041299	0.488227	0.749898
O237	O	-0.944243	-0.287512	-0.000171
O238	O	-0.694243	-0.037512	0.249829
O239	O	-0.444243	0.212488	0.499829
O240	O	-0.194243	0.462488	0.749829
C241	C	0.048063	0.071330	-0.000154
C242	C	0.298063	0.321330	0.249846
C243	C	0.548063	0.571330	0.499846
C244	C	0.798063	0.821330	0.749846
C245	C	-0.029438	0.072264	-0.000153
C246	C	0.220562	0.322264	0.249847
C247	C	0.470562	0.572264	0.499847
C248	C	0.720562	0.822264	0.749847
C249	C	-0.818435	0.179949	-0.000156
C250	C	-0.568435	0.429949	0.249844
C251	C	-0.318435	0.679949	0.499844
C252	C	-0.068435	0.929949	0.749844
C253	C	-0.819374	0.243168	-0.000167
C254	C	-0.569374	0.493168	0.249833
C255	C	-0.319374	0.743168	0.499833
C256	C	-0.069374	0.993168	0.749833
N257	N	-0.824233	0.075806	0.179024
N258	N	-0.574233	0.325806	0.429024
N259	N	-0.324233	0.575806	0.679024
N260	N	-0.074233	0.825806	0.929024
N261	N	-0.824282	0.075815	-0.179303
N262	N	-0.574282	0.325815	0.070697
N263	N	-0.324282	0.575815	0.320697
N264	N	-0.074282	0.825815	0.570697
C265	C	-0.871984	0.036985	0.218633
C266	C	-0.621984	0.286985	0.468633
C267	C	-0.371984	0.536985	0.718633
C268	C	-0.121984	0.786985	0.968633
C269	C	-0.871988	0.036982	0.297880
C270	C	-0.621988	0.286982	0.547880
C271	C	-0.371988	0.536982	0.797880
C272	C	-0.121988	0.786982	1.047880
C273	C	-0.824248	0.075810	0.337516
C274	C	-0.574248	0.325810	0.587516
C275	C	-0.324248	0.575810	0.837516
C276	C	-0.074248	0.825810	1.087516
C277	C	-0.776488	0.114634	0.297897
C278	C	-0.526488	0.364634	0.547897
C279	C	-0.276488	0.614634	0.797897
C280	C	-0.026488	0.864634	1.047897
C281	C	-0.776480	0.114632	0.218651
C282	C	-0.526480	0.364632	0.468651
C283	C	-0.276480	0.614632	0.718651
C284	C	-0.026480	0.864632	0.968651
N285	N	-0.815010	0.126226	0.461927
N286	N	-0.565010	0.376226	0.711927
N287	N	-0.315010	0.626226	0.961927
N288	N	-0.065010	0.876226	1.211927
N289	N	-0.815022	0.126226	0.537208
N290	N	-0.565022	0.376226	0.787208
N291	N	-0.315022	0.626226	1.037208
N292	N	-0.065022	0.876226	1.287208
C293	C	-0.824266	0.075818	0.576280
C294	C	-0.574266	0.325818	0.826280
C295	C	-0.324266	0.575818	1.076280
C296	C	-0.074266	0.825818	1.326280
N297	N	-0.833513	0.025408	0.537227
N298	N	-0.583513	0.275408	0.787227
N299	N	-0.333513	0.525408	1.037227
N300	N	-0.083513	0.775408	1.287227
N301	N	-0.833505	0.025408	0.461940
N302	N	-0.583505	0.275408	0.711940
N303	N	-0.333505	0.525408	0.961940
N304	N	-0.083505	0.775408	1.211940
C305	C	-0.824250	0.075817	0.423445
C306	C	-0.574250	0.325817	0.673445
C307	C	-0.324250	0.575817	0.923445
C308	C	-0.074250	0.825817	1.173445
C309	C	-0.872024	0.036991	0.701818
C310	C	-0.622024	0.286991	0.951818
C311	C	-0.372024	0.536991	1.201818
C312	C	-0.122024	0.786991	1.451818
C313	C	-0.872023	0.036988	0.781067
C314	C	-0.622023	0.286988	1.031067
C315	C	-0.372023	0.536988	1.281067
C316	C	-0.122023	0.786988	1.531067
C317	C	-0.776526	0.114644	0.781083
C318	C	-0.526526	0.364644	1.031083
C319	C	-0.276526	0.614644	1.281083
C320	C	-0.026526	0.864644	1.531083
C321	C	-0.776524	0.114643	0.701835
C322	C	-0.526524	0.364643	0.951835
C323	C	-0.276524	0.614643	1.201835
C324	C	-0.026524	0.864643	1.451835
C325	C	-0.824276	0.075817	0.662208
C326	C	-0.574276	0.325817	0.912208
C327	C	-0.324276	0.575817	1.162208
C328	C	-0.074276	0.825817	1.412208
H329	H	-0.944547	-0.109664	-0.000129
H330	H	-0.694547	0.140336	0.249871
H331	H	-0.444547	0.390336	0.499871
H332	H	-0.194547	0.640336	0.749871
H333	H	-0.480241	0.077703	-0.124630
H334	H	-0.230241	0.327703	0.125370
H335	H	0.019759	0.577703	0.375370
H336	H	0.269759	0.827703	0.625370
Cl337	Cl	-0.716446	0.163440	0.168854
Cl338	Cl	-0.466446	0.413440	0.418854
Cl339	Cl	-0.216446	0.663440	0.668854
Cl340	Cl	0.033554	0.913440	0.918854
H341	H	-0.737643	0.146257	0.669583
H342	H	-0.487643	0.396257	0.919583
H343	H	-0.237643	0.646257	1.169583
H344	H	0.012357	0.896257	1.419583
H345	H	-0.910865	0.005369	0.186370
H346	H	-0.660865	0.255369	0.436370
H347	H	-0.410865	0.505369	0.686370
H348	H	-0.160865	0.755369	0.936370
Cl349	Cl	-0.932024	-0.011825	0.347683
Cl350	Cl	-0.682024	0.238175	0.597683
Cl351	Cl	-0.432024	0.488175	0.847683
Cl352	Cl	-0.182024	0.738175	1.097683
Cl353	Cl	-0.020024	0.072149	0.154756
Cl354	Cl	0.229976	0.322149	0.404756
Cl355	Cl	0.479976	0.572149	0.654756
Cl356	Cl	0.729976	0.822149	0.904756
H357	H	-0.612259	0.079300	0.124408
H358	H	-0.362259	0.329300	0.374408
H359	H	-0.112259	0.579300	0.624408
H360	H	0.137741	0.829300	0.874408
H361	H	-0.612346	0.079290	-0.124621
H362	H	-0.362346	0.329290	0.125379
H363	H	-0.112346	0.579290	0.375379
H364	H	0.137654	0.829290	0.625379
H365	H	-0.910905	0.005375	0.669552
H366	H	-0.660905	0.255375	0.919552
H367	H	-0.410905	0.505375	1.169552
H368	H	-0.160905	0.755375	1.419552
H369	H	-0.703965	-0.738703	-0.000138
H370	H	-0.453965	-0.488703	0.249862
H371	H	-0.203965	-0.238703	0.499862
H372	H	0.046035	0.011297	0.749862
H373	H	-0.168266	0.073934	0.124371
H374	H	0.081734	0.323934	0.374371
H375	H	0.331734	0.573934	0.624371
H376	H	0.581734	0.823934	0.874371
H377	H	-0.942972	-0.217418	-0.000154
H378	H	-0.692972	0.032582	0.249846
H379	H	-0.442972	0.282582	0.499846
H380	H	-0.192972	0.532582	0.749846
H381	H	-0.036249	0.072352	-0.124664
H382	H	0.213751	0.322352	0.125336
H383	H	0.463751	0.572352	0.375336
H384	H	0.713751	0.822352	0.625336
Cl385	Cl	-1.032582	-0.379781	-0.000189
Cl386	Cl	-0.782582	-0.129781	0.249811
Cl387	Cl	-0.532582	0.120219	0.499811
Cl388	Cl	-0.282582	0.370219	0.749811
H389	H	-0.713572	-0.084457	-0.000103
H390	H	-0.463572	0.165543	0.249897
H391	H	-0.213572	0.415543	0.499897
H392	H	0.036428	0.665543	0.749897
H393	H	-0.480149	0.077700	0.124390
H394	H	-0.230149	0.327700	0.374390
H395	H	0.019851	0.577700	0.624390
H396	H	0.269851	0.827700	0.874390
Cl397	Cl	-0.932054	-0.011823	0.830864
Cl398	Cl	-0.682054	0.238177	1.080864
Cl399	Cl	-0.432054	0.488177	1.330864
Cl400	Cl	-0.182054	0.738177	1.580864
Cl401	Cl	-0.617906	-0.334521	-0.000150
Cl402	Cl	-0.367906	-0.084521	0.249850
Cl403	Cl	-0.117906	0.165479	0.499850
Cl404	Cl	0.132094	0.415479	0.749850
H405	H	-0.168354	0.073939	-0.124656
H406	H	0.081646	0.323939	0.125344
H407	H	0.331646	0.573939	0.375344
H408	H	0.581646	0.823939	0.625344
H409	H	-0.737616	0.146247	0.330173
H410	H	-0.487616	0.396247	0.580173
H411	H	-0.237616	0.646247	0.830173
H412	H	0.012384	0.896247	1.080173
H413	H	-0.737653	0.146256	0.813353
H414	H	-0.487653	0.396256	1.063353
H415	H	-0.237653	0.646256	1.313353
H416	H	0.012347	0.896256	1.563353
H417	H	-0.711984	-0.192228	-0.000097
H418	H	-0.461984	0.057772	0.249903
H419	H	-0.211984	0.307772	0.499903
H420	H	0.038016	0.557772	0.749903
Cl421	Cl	-0.964919	-0.646073	-0.000176
Cl422	Cl	-0.714919	-0.396073	0.249824
Cl423	Cl	-0.464919	-0.146073	0.499824
Cl424	Cl	-0.214919	0.103927	0.749824
Cl425	Cl	-1.030615	-0.513831	-0.000183
Cl426	Cl	-0.780615	-0.263831	0.249817
Cl427	Cl	-0.530615	-0.013831	0.499817
Cl428	Cl	-0.280615	0.236169	0.749817
Cl429	Cl	-0.962941	-0.780149	-0.000190
Cl430	Cl	-0.712941	-0.530149	0.249810
Cl431	Cl	-0.462941	-0.280149	0.499810
Cl432	Cl	-0.212941	-0.030149	0.749810
Cl433	Cl	-0.615931	-0.468577	-0.000156
Cl434	Cl	-0.365931	-0.218577	0.249844
Cl435	Cl	-0.115931	0.031423	0.499844
Cl436	Cl	0.134069	0.281423	0.749844
Cl437	Cl	-0.677544	-0.614722	-0.000145
Cl438	Cl	-0.427544	-0.364722	0.249855
Cl439	Cl	-0.177544	-0.114722	0.499855
Cl440	Cl	0.072456	0.135278	0.749855
