data_functionalizedCrystal
_audit_creation_method	'MofGen! by Chris Wilmer'
_symmetry_space_group_name_H-M	'P1'
_symmetry_Int_Tables_number	1
_symmetry_cell_setting	triclinic
loop_
_symmetry_equiv_pos_as_xyz
  x,y,z
_cell_length_a	10.540539
_cell_length_b	15.944551
_cell_length_c	9.016244
_cell_angle_alpha	89.996810
_cell_angle_beta	89.994699
_cell_angle_gamma	84.012115
loop_
_atom_site_label
_atom_site_type_symbol
_atom_site_fract_x
_atom_site_fract_y
_atom_site_fract_z
O1	O	1.684281	0.118370	-0.123274
O2	O	1.314716	0.129523	-0.123293
O3	O	1.509591	0.001731	-0.123269
O4	O	1.489407	0.246161	-0.123297
O5	O	1.509562	0.001734	0.123411
O6	O	1.314688	0.129525	0.123388
O7	O	1.684253	0.118372	0.123407
Cu8	Cu	1.499468	0.123949	0.145921
Cu9	Cu	1.499502	0.123946	-0.145807
O10	O	1.489378	0.246164	0.123384
C11	C	1.267411	0.128688	0.000046
C12	C	1.126497	0.126185	0.000039
C13	C	1.508739	-0.029566	0.000071
C14	C	1.506227	-0.122827	0.000072
C15	C	0.944375	0.030298	0.000626
C16	C	1.090959	0.032835	0.000054
C17	C	1.064229	0.171108	-0.140828
C18	C	0.917728	0.167922	-0.140930
C19	C	0.917181	0.169824	0.139592
C20	C	1.064151	0.170684	0.141438
C21	C	1.379430	-0.338440	0.000045
C22	C	1.438296	-0.399105	0.121677
C23	C	1.501682	-0.293580	0.000060
C24	C	1.438353	-0.399091	-0.121531
C25	C	1.497283	-0.458519	0.000043
C26	C	1.560582	-0.353017	0.121792
C27	C	1.560622	-0.352996	-0.121525
C28	C	1.619577	-0.413643	0.000136
C29	C	1.504213	-0.198563	0.000072
C30	C	1.494762	-0.553535	0.000042
C31	C	1.731559	0.119207	0.000065
C32	C	1.872473	0.121710	0.000062
C33	C	1.490231	0.277461	0.000040
C34	C	1.492743	0.370722	0.000029
N35	N	1.499453	0.123951	0.351108
N36	N	1.499526	0.123937	-0.350993
C37	C	1.394894	0.192082	0.586128
C38	C	1.395120	0.192337	0.414237
C39	C	1.631905	0.143889	0.413450
C40	C	1.631333	0.144372	0.585395
C41	C	1.472882	0.035659	0.585659
C42	C	1.469829	0.036231	0.413705
H43	H	1.134043	-0.002512	0.101034
N44	N	1.116017	0.129503	0.272193
N45	N	1.078748	0.155403	0.397255
H46	H	1.115369	0.126311	0.489601
H47	H	0.914680	-0.006426	-0.099827
H48	H	1.612297	-0.332559	-0.224355
H49	H	1.386641	-0.419477	-0.224368
N50	N	1.568587	-0.027982	0.636650
N51	N	1.637518	-0.070492	0.545331
H52	H	1.705113	-0.115434	0.581349
N53	N	0.856368	0.252132	-0.148972
N54	N	0.782723	0.280013	-0.047664
H55	H	0.739388	0.339484	-0.053355
H56	H	1.372396	0.021118	0.372960
H57	H	1.655936	0.207567	0.370366
N58	N	1.252128	-0.297422	0.000194
N59	N	1.178129	-0.309719	0.104466
H60	H	1.088223	-0.280749	0.104577
N61	N	1.093387	0.256062	0.152089
N62	N	1.160943	0.285637	0.055201
H63	H	1.181591	0.345939	0.062712
H64	H	1.541079	-0.016915	0.370738
N65	N	1.746990	-0.454474	0.000235
N66	N	1.820789	-0.442319	0.104761
H67	H	1.910776	-0.471156	0.104837
N68	N	0.909203	-0.015931	0.127434
N69	N	0.830724	0.017948	0.218871
H70	H	0.805906	-0.014692	0.308461
H71	H	1.133201	-0.002764	-0.101092
N72	N	0.856784	0.254409	0.140821
N73	N	0.879658	0.303483	0.243230
H74	H	0.836998	0.363219	0.244092
N75	N	1.271613	0.177311	0.361326
N76	N	1.250647	0.174937	0.225019
H77	H	1.163413	0.164330	0.187654
N78	N	0.882931	0.126269	-0.273022
N79	N	0.966804	0.099749	-0.364492
H80	H	0.942236	0.070329	-0.457786
H81	H	1.296130	0.180269	0.627518
H82	H	1.386576	-0.419520	0.224501
N83	N	1.415950	0.273775	0.640315
N84	N	1.507681	0.282028	0.725041
H85	H	1.522557	0.339723	0.763314
N86	N	1.091078	0.257112	-0.147415
N87	N	1.055398	0.306759	-0.044772
H88	H	1.074360	0.367501	-0.049420
N89	N	1.625382	-0.327545	0.250924
N90	N	1.637725	-0.251322	0.271797
H91	H	1.683486	-0.233329	0.362997
H92	H	1.412128	0.257831	0.373084
H93	H	1.654810	0.208777	0.625478
H94	H	1.378403	0.016683	0.629105
H95	H	1.711623	0.096739	0.626986
H96	H	1.711617	0.095612	0.372555
H97	H	1.107254	0.139899	-0.245656
H98	H	0.886034	0.139615	0.246368
