data_functionalizedCrystal
_audit_creation_method	'MofGen! by Chris Wilmer'
_symmetry_space_group_name_H-M	'P1'
_symmetry_Int_Tables_number	1
_symmetry_cell_setting	triclinic
loop_
_symmetry_equiv_pos_as_xyz
  x,y,z
_cell_length_a	11.169417
_cell_length_b	29.839131
_cell_length_c	11.169409
_cell_angle_alpha	89.959881
_cell_angle_beta	89.980176
_cell_angle_gamma	90.042299
loop_
_atom_site_label
_atom_site_type_symbol
_atom_site_fract_x
_atom_site_fract_y
_atom_site_fract_z
Zn1	Zn	1.834703	-0.178806	-0.678478
Zn2	Zn	1.834484	-0.253948	-0.477767
Zn3	Zn	1.633989	-0.178834	-0.477812
Zn4	Zn	1.633888	-0.253911	-0.678412
O5	O	1.734266	-0.216375	-0.578117
O6	O	2.002624	-0.188778	-0.651862
O7	O	1.807838	-0.244011	-0.309823
O8	O	1.660748	-0.115963	-0.504477
O9	O	2.002462	-0.243984	-0.504401
O10	O	1.808212	-0.115943	-0.651905
O11	O	1.660536	-0.188825	-0.309856
O12	O	1.466026	-0.188789	-0.504413
O13	O	1.660576	-0.243922	-0.846371
O14	O	1.465951	-0.243948	-0.651794
O15	O	1.808114	-0.188742	-0.846419
O16	O	1.807740	-0.316810	-0.504337
O17	O	1.660363	-0.316783	-0.651750
C18	C	1.422441	-0.216368	-0.578102
C19	C	1.289041	-0.216376	-0.578124
C20	C	1.734049	-0.333097	-0.578058
C21	C	1.734066	-0.383032	-0.578073
C22	C	1.811145	-0.692677	-0.501472
C23	C	1.811293	-0.880350	-0.501518
O24	O	1.876656	-0.904616	-0.436344
N25	N	1.734515	-0.903817	-0.578208
C26	C	1.657700	-0.880363	-0.654897
O27	O	1.592407	-0.904630	-0.720136
C28	C	1.657559	-0.692691	-0.654856
C29	C	1.734333	-0.669226	-0.578152
C30	C	1.887914	-0.669212	-0.424776
C31	C	1.887871	-0.622296	-0.424760
C32	C	1.811060	-0.598846	-0.501441
C33	C	1.734291	-0.622311	-0.578137
C34	C	1.580751	-0.669238	-0.731550
C35	C	1.580724	-0.622317	-0.731535
C36	C	1.657499	-0.598852	-0.654831
C37	C	1.657437	-0.551945	-0.654802
N38	N	1.734215	-0.528477	-0.578112
C39	C	1.811026	-0.551928	-0.501432
C40	C	1.657778	-0.978894	-0.654912
C41	C	1.657811	-1.025811	-0.654921
C42	C	1.811406	-1.025795	-0.501543
C43	C	1.811366	-0.978876	-0.501529
C44	C	1.734556	-0.955426	-0.578222
C45	C	1.810931	-0.453402	-0.501404
C46	C	1.810878	-0.406482	-0.501392
C47	C	1.657288	-0.406503	-0.654773
C48	C	1.657336	-0.453419	-0.654782
C49	C	1.734167	-0.476867	-0.578093
O50	O	1.592118	-0.527650	-0.719952
O51	O	1.876328	-0.527653	-0.436221
C52	C	1.811187	-0.739592	-0.501487
C53	C	1.734418	-0.763057	-0.578183
C54	C	1.657606	-0.739606	-0.654864
C55	C	1.734451	-0.809975	-0.578192
C56	C	1.811263	-0.833425	-0.501512
C57	C	1.888041	-0.809958	-0.424822
C58	C	1.887999	-0.763043	-0.424807
C59	C	1.580828	-0.763074	-0.731553
C60	C	1.580876	-0.809989	-0.731562
C61	C	1.657688	-0.833440	-0.654881
C62	C	2.047308	-0.216382	-0.578134
C63	C	2.180708	-0.216385	-0.578140
C64	C	1.734358	-0.216325	-0.891160
C65	C	1.734397	-0.216304	-1.024560
C66	C	1.734516	-0.099196	-0.578203
C67	C	1.734623	-0.049262	-0.578240
C68	C	1.734243	-0.216392	-0.266293
C69	C	1.734436	-0.216287	-0.132893
H70	H	1.873496	-0.472488	-0.438960
H71	H	1.594745	-0.387402	-0.717202
H72	H	1.595227	-0.959804	-0.717366
H73	H	1.518227	-0.688335	-0.794004
H74	H	1.594823	-0.472525	-0.717243
C75	C	1.972537	-0.835759	-0.340473
C76	C	2.108966	-0.829256	-0.350387
C77	C	2.193462	-0.855059	-0.266049
C78	C	2.141530	-0.887367	-0.171797
C79	C	2.005095	-0.893872	-0.161880
C80	C	1.920598	-0.868068	-0.246218
H81	H	2.147415	-0.805338	-0.420161
H82	H	2.294461	-0.850243	-0.273391
H83	H	2.204079	-0.906468	-0.109365
H84	H	1.966645	-0.917789	-0.092105
H85	H	1.819599	-0.872884	-0.238876
C86	C	1.972460	-0.737236	-0.340437
C87	C	1.962746	-0.743738	-0.203994
C88	C	2.047215	-0.717935	-0.119621
C89	C	2.141398	-0.685630	-0.171691
C90	C	2.151116	-0.679127	-0.308140
C91	C	2.066647	-0.704929	-0.392513
H92	H	1.893023	-0.767654	-0.165443
H93	H	2.040020	-0.722750	-0.018611
H94	H	2.203927	-0.666530	-0.109232
H95	H	2.220840	-0.655211	-0.346692
H96	H	2.073842	-0.700115	-0.493523
H97	H	1.873397	-0.387379	-0.438927
H98	H	1.518346	-0.829090	-0.794022
C99	C	1.573347	-1.051619	-0.739286
C100	C	1.436911	-1.045218	-0.729376
C101	C	1.352450	-1.071024	-0.813751
C102	C	1.404424	-1.103230	-0.908035
C103	C	1.540868	-1.109633	-0.917949
C104	C	1.625329	-1.083827	-0.833574
H105	H	1.398430	-1.021376	-0.659578
H106	H	1.251445	-1.066284	-0.806412
H107	H	1.341901	-1.122333	-0.970494
H108	H	1.579349	-1.133475	-0.987747
H109	H	1.726334	-1.088567	-0.840913
H110	H	1.518280	-0.743984	-0.793998
C111	C	1.496225	-0.596522	-0.815895
C112	C	1.359798	-0.603032	-0.805986
C113	C	1.275297	-0.577239	-0.890342
C114	C	1.327223	-0.544935	-0.984606
C115	C	1.463657	-0.538424	-0.994519
C116	C	1.548158	-0.564217	-0.910164
H117	H	1.321353	-0.626947	-0.736203
H118	H	1.174300	-0.582059	-0.883003
H119	H	1.264670	-0.525841	-1.047051
H120	H	1.502102	-0.514509	-1.064303
H121	H	1.649155	-0.559397	-0.917502
H122	H	1.950391	-0.603194	-0.362305
C123	C	1.895908	-1.051595	-0.417199
C124	C	1.843986	-1.083901	-0.322938
C125	C	1.928491	-1.109703	-0.238606
C126	C	2.064919	-1.103200	-0.248535
C127	C	2.116848	-1.070893	-0.342799
C128	C	2.032343	-1.045090	-0.427131
H129	H	1.742988	-1.088717	-0.315584
H130	H	1.890049	-1.133620	-0.168825
H131	H	2.127475	-1.122300	-0.186107
H132	H	2.217846	-1.066077	-0.350153
H133	H	2.070785	-1.021174	-0.496912
H134	H	1.873882	-0.959774	-0.439071
H135	H	1.950470	-0.688300	-0.362333
