data_functionalizedCrystal
_audit_creation_method	'MofGen! by Chris Wilmer'
_symmetry_space_group_name_H-M	'P1'
_symmetry_Int_Tables_number	1
_symmetry_cell_setting	triclinic
loop_
_symmetry_equiv_pos_as_xyz
  x,y,z
_cell_length_a	18.215407
_cell_length_b	19.077114
_cell_length_c	18.215399
_cell_angle_alpha	92.270210
_cell_angle_beta	90.019833
_cell_angle_gamma	87.671157
loop_
_atom_site_label
_atom_site_type_symbol
_atom_site_fract_x
_atom_site_fract_y
_atom_site_fract_z
Zn1	Zn	1.113281	0.280200	0.427879
Zn2	Zn	1.108237	0.397902	0.309754
Zn3	Zn	0.990213	0.280223	0.304827
Zn4	Zn	0.985228	0.397863	0.432777
O5	O	1.049240	0.339047	0.368810
O6	O	1.215596	0.295821	0.412222
O7	O	1.092555	0.382318	0.206117
O8	O	1.010735	0.181729	0.317039
O9	O	1.211890	0.382295	0.325436
O10	O	1.101153	0.181712	0.407444
O11	O	1.005844	0.295860	0.202498
O12	O	0.886567	0.295822	0.321788
O13	O	1.002240	0.382229	0.535111
O14	O	0.882905	0.382251	0.415793
O15	O	1.096320	0.295783	0.531512
O16	O	1.087722	0.496388	0.330185
O17	O	0.997348	0.496359	0.420570
C18	C	0.858034	0.339035	0.368788
C19	C	0.776234	0.339047	0.368797
C20	C	1.041467	0.521911	0.376460
C21	C	1.038209	0.600141	0.379757
C22	C	0.586150	0.384121	0.417689
C23	C	0.509291	0.384124	0.417698
C24	C	0.513081	0.293986	0.319947
C25	C	0.589938	0.293980	0.319942
C26	C	0.626471	0.339052	0.368812
C27	C	0.472754	0.339060	0.368826
C28	C	0.389421	0.339062	0.368836
C29	C	0.709810	0.339050	0.368803
C30	C	1.083768	0.636886	0.334287
C31	C	1.080708	0.710391	0.337393
C32	C	1.032085	0.747151	0.385965
C33	C	0.986525	0.710401	0.431441
C34	C	0.989589	0.636897	0.428338
C35	C	1.017875	0.966985	0.400290
C36	C	1.014813	1.040495	0.403387
C37	C	1.108998	1.040479	0.309340
C38	C	1.112054	0.966974	0.306239
C39	C	1.066497	0.930231	0.351717
N40	N	1.028955	0.822285	0.389139
N41	N	1.069631	0.855098	0.348546
C42	C	1.241192	0.339060	0.368832
C43	C	1.322991	0.339065	0.368841
C44	C	1.049287	0.338999	0.560761
C45	C	1.049306	0.338978	0.642559
C46	C	1.057057	1.155469	0.361155
C47	C	1.060372	1.077239	0.357917
C48	C	1.049237	0.339045	0.177603
C49	C	1.049368	0.338867	0.095797
C50	C	1.098313	0.293923	0.828878
C51	C	1.098322	0.293903	0.905736
C52	C	1.000357	0.383924	0.909472
C53	C	1.000344	0.383940	0.832616
C54	C	1.049326	0.338941	0.792321
C55	C	1.049349	0.338904	0.946035
C56	C	1.049359	0.338882	1.029368
C57	C	1.049315	0.338962	0.708982
H58	H	0.476465	0.420822	0.457500
H59	H	0.622769	0.257275	0.280140
H60	H	0.975227	1.070422	0.442954
H61	H	1.117806	0.740305	0.300365
H62	H	1.138195	0.257280	0.796072
H63	H	0.960479	0.420562	0.942290
H64	H	0.960449	0.420598	0.802850
H65	H	1.123358	0.606961	0.294731
O66	O	0.945440	0.601168	0.472584
C67	C	0.989091	0.558575	0.518342
H68	H	1.046127	0.580680	0.523872
H69	H	0.993963	0.502881	0.493239
C70	C	0.883091	0.530268	0.587975
C71	C	0.953143	0.557423	0.594772
H72	H	0.860916	0.529555	0.635119
H73	H	0.853682	0.558962	0.557145
H74	H	0.887161	0.483859	0.567053
H75	H	0.949071	0.603834	0.615685
H76	H	0.982551	0.528736	0.625607
O77	O	0.621524	0.427920	0.465235
C78	C	0.569450	0.467710	0.508365
H79	H	0.515889	0.438887	0.509756
H80	H	0.558996	0.521134	0.483564
C81	C	0.664826	0.513341	0.585392
C82	C	0.599043	0.477938	0.587105
H83	H	0.683081	0.519654	0.633962
H84	H	0.699910	0.486536	0.556333
H85	H	0.656106	0.557858	0.564722
H86	H	0.607766	0.433420	0.607767
H87	H	0.563961	0.504736	0.616170
H88	H	0.483326	0.257291	0.280158
O89	O	1.159358	0.931376	0.259042
C90	C	1.198904	0.979571	0.219563
H91	H	1.199248	1.031946	0.251916
H92	H	1.171663	0.987443	0.163974
C93	C	1.278012	0.886501	0.168087
C94	C	1.278440	0.950828	0.207827
H95	H	1.327073	0.868771	0.160844
H96	H	1.251368	0.854031	0.194682
H97	H	1.255308	0.893070	0.121768
H98	H	1.301135	0.944256	0.254148
H99	H	1.305090	0.983297	0.181239
H100	H	1.146089	1.070403	0.272315
O101	O	0.973538	0.931408	0.444483
C102	C	0.929974	0.979618	0.488024
H103	H	0.925269	1.032037	0.460090
H104	H	0.956559	0.987375	0.544274
C105	C	0.858609	0.886612	0.531646
C106	C	0.852826	0.950992	0.497333
H107	H	0.811021	0.868953	0.537391
H108	H	0.887960	0.854131	0.502313
H109	H	0.880766	0.893084	0.578517
H110	H	0.830678	0.944517	0.450459
H111	H	0.823469	0.983471	0.526658
H112	H	1.138211	0.257244	0.935498
O113	O	0.939373	0.746077	0.478729
C114	C	0.956155	0.728043	0.551330
H115	H	1.015790	0.707788	0.554245
H116	H	0.918466	0.685395	0.568733
C117	C	0.871599	0.818191	0.599611
C118	C	0.944845	0.793319	0.603192
H119	H	0.864619	0.858455	0.631603
H120	H	0.860290	0.830340	0.550699
H121	H	0.840200	0.782645	0.614111
H122	H	0.976242	0.828861	0.588683
H123	H	0.956159	0.781178	0.652104
