data_functionalizedCrystal
_audit_creation_method	'MofGen! by Chris Wilmer'
_symmetry_space_group_name_H-M	'P1'
_symmetry_Int_Tables_number	1
_symmetry_cell_setting	triclinic
loop_
_symmetry_equiv_pos_as_xyz
  x,y,z
_cell_length_a	17.699083
_cell_length_b	9.065218
_cell_length_c	7.540329
_cell_angle_alpha	89.996962
_cell_angle_beta	89.995522
_cell_angle_gamma	84.149450
loop_
_atom_site_label
_atom_site_type_symbol
_atom_site_fract_x
_atom_site_fract_y
_atom_site_fract_z
O1	O	0.110973	1.957110	-0.147491
O2	O	0.120075	1.527555	-0.147494
O3	O	0.005430	1.754468	-0.147477
O4	O	0.225619	1.730196	-0.147508
O5	O	0.005428	1.754455	0.147488
O6	O	0.120074	1.527542	0.147471
O7	O	0.110971	1.957096	0.147474
Cu8	Cu	0.115522	1.742318	0.174405
Cu9	Cu	0.115524	1.742334	-0.174425
O10	O	0.225617	1.730183	0.147457
C11	C	0.119200	1.472588	-0.000012
C12	C	0.116584	1.308822	-0.000012
C13	C	-0.022775	1.753592	0.000006
C14	C	-0.106813	1.750983	0.000007
C15	C	-0.154396	1.884176	0.000010
C16	C	-0.233358	1.881716	-0.000006
C17	C	-0.264737	1.746060	-0.000012
C18	C	-0.217149	1.612857	-0.000021
C19	C	-0.138188	1.615319	-0.000018
C20	C	-0.535589	1.602925	-0.000035
C21	C	-0.614556	1.600474	-0.000033
C22	C	-0.630760	1.869322	-0.000023
C23	C	-0.551799	1.871784	-0.000020
C24	C	-0.504217	1.738581	-0.000038
C25	C	-0.418597	1.741251	-0.000025
C26	C	-0.350355	1.743390	-0.000013
C27	C	0.253822	1.731059	-0.000030
C28	C	0.337860	1.733669	-0.000042
C29	C	0.111847	2.012064	-0.000012
C30	C	0.114463	2.175829	-0.000023
N31	N	0.115521	1.742317	0.419754
N32	N	0.115520	1.742346	-0.419774
H33	H	-0.128854	1.994642	0.000026
O34	O	-0.521443	2.003689	-0.000094
C35	C	-0.545851	2.270100	0.000007
C36	C	-0.580327	2.120821	0.000057
H37	H	-0.593442	2.364841	0.000167
H38	H	-0.509312	2.278076	-0.123465
H39	H	-0.509267	2.277888	0.123420
H40	H	-0.616946	2.112933	-0.123272
H41	H	-0.616823	2.112909	0.123610
O42	O	-0.279470	2.011236	0.000088
C43	C	-0.287210	2.278167	0.000022
C44	C	-0.234901	2.131589	-0.000044
H45	H	-0.251197	2.375510	-0.000123
H46	H	-0.324573	2.283823	0.123491
H47	H	-0.324594	2.283672	-0.123394
H48	H	-0.197470	2.125985	0.123288
H49	H	-0.197589	2.125993	-0.123595
H50	H	-0.669510	1.977782	-0.000018
O51	O	-0.645127	1.468782	-0.000292
C52	C	-0.724836	1.309968	-0.153183
C53	C	-0.690279	1.459163	-0.153091
H54	H	-0.761336	1.302129	-0.276726
H55	H	-0.761451	1.302057	-0.029825
H56	H	-0.677253	1.215212	-0.153116
H57	H	-0.737812	1.554005	-0.153221
H58	H	-0.653644	1.466944	-0.276438
H59	H	-0.242703	1.502404	-0.000037
H60	H	-0.099446	1.506859	-0.000021
H61	H	-0.496857	1.494463	-0.000050
