data_functionalizedCrystal
_audit_creation_method	'MofGen! by Chris Wilmer'
_symmetry_space_group_name_H-M	'P1'
_symmetry_Int_Tables_number	1
_symmetry_cell_setting	triclinic
loop_
_symmetry_equiv_pos_as_xyz
  x,y,z
_cell_length_a	10.489741
_cell_length_b	17.699083
_cell_length_c	16.176319
_cell_angle_alpha	90.004769
_cell_angle_beta	90.007322
_cell_angle_gamma	96.088906
loop_
_atom_site_label
_atom_site_type_symbol
_atom_site_fract_x
_atom_site_fract_y
_atom_site_fract_z
O1	O	0.161299	-1.005127	0.068630
O2	O	0.661299	-0.505127	0.568630
O3	O	0.182284	-0.784886	0.068657
O4	O	0.682284	-0.284886	0.568657
O5	O	-0.013900	-0.900018	0.068638
O6	O	0.486100	-0.400018	0.568638
O7	O	0.357482	-0.889995	0.068649
O8	O	0.857482	-0.389995	0.568649
O9	O	-0.013918	-0.900016	-0.068855
O10	O	0.486082	-0.400016	0.431145
O11	O	0.182266	-0.784884	-0.068836
O12	O	0.682266	-0.284884	0.431164
O13	O	0.161281	-1.005125	-0.068863
O14	O	0.661281	-0.505125	0.431137
Cu15	Cu	0.171771	-0.895004	-0.081404
Cu16	Cu	0.671771	-0.395004	0.418596
Cu17	Cu	0.171793	-0.895007	0.081198
Cu18	Cu	0.671793	-0.395007	0.581198
O19	O	0.357464	-0.889993	-0.068844
O20	O	0.857464	-0.389993	0.431156
C21	C	0.181523	-0.756683	-0.000086
C22	C	0.681523	-0.256683	0.499914
C23	C	0.179267	-0.672650	-0.000076
C24	C	0.679267	-0.172650	0.499924
C25	C	-0.061427	-0.899260	-0.000108
C26	C	0.438573	-0.399260	0.499892
C27	C	-0.203014	-0.896995	-0.000106
C28	C	0.296986	-0.396995	0.499894
N29	N	0.171798	-0.895009	0.195563
N30	N	0.671798	-0.395009	0.695563
C31	C	-0.269793	-0.823740	-0.000091
C32	C	0.230207	-0.323740	0.499909
C33	C	-0.362567	-0.858344	-0.067887
C34	C	0.137433	-0.358344	0.432113
C35	C	-0.362524	-0.858363	0.067671
C36	C	0.137476	-0.358363	0.567671
C37	C	-0.293923	-0.931629	-0.067958
C38	C	0.206077	-0.431629	0.432042
C39	C	-0.293871	-0.931638	0.067661
C40	C	0.206129	-0.431638	0.567661
C41	C	-0.386619	-0.966296	-0.000151
C42	C	0.113381	-0.466296	0.499849
C43	C	0.404991	-0.890751	-0.000096
C44	C	0.904991	-0.390751	0.499904
C45	C	0.546578	-0.893016	-0.000093
C46	C	1.046578	-0.393016	0.499907
C47	C	0.162042	-1.033328	-0.000118
C48	C	0.662042	-0.533328	0.499882
C49	C	0.164297	-1.117361	-0.000123
C50	C	0.664297	-0.617361	0.499877
C51	C	0.294422	-0.624782	-0.000073
C52	C	0.794422	-0.124782	0.499927
C53	C	0.292295	-0.545825	-0.000083
C54	C	0.792295	-0.045825	0.499917
C55	C	0.175011	-0.514737	-0.000091
C56	C	0.675011	-0.014737	0.499909
C57	C	0.059847	-0.562611	-0.000097
C58	C	0.559847	-0.062611	0.499903
C59	C	0.061975	-0.641567	-0.000092
C60	C	0.561975	-0.141567	0.499908
C61	C	0.051260	-0.244192	-0.000118
C62	C	0.551260	0.255808	0.499882
C63	C	0.049140	-0.165230	-0.000120
C64	C	0.549140	0.334770	0.499880
C65	C	0.281580	-0.148450	-0.000109
C66	C	0.781580	0.351550	0.499891
C67	C	0.283709	-0.227406	-0.000104
C68	C	0.783709	0.272594	0.499896
C69	C	0.168545	-0.275273	-0.000114
C70	C	0.668545	0.224727	0.499886
C71	C	0.170853	-0.360887	-0.000104
C72	C	0.670853	0.139113	0.499896
C73	C	0.172702	-0.429124	-0.000096
C74	C	0.672702	0.070876	0.499904
N75	N	0.171756	-0.895008	-0.195769
N76	N	0.671756	-0.395008	0.304231
C77	C	0.085099	-0.946086	0.238819
C78	C	0.585099	-0.446086	0.738819
C79	C	0.085096	-0.946089	0.325366
C80	C	0.585096	-0.446089	0.825366
C81	C	0.171788	-0.895011	0.368656
C82	C	0.671788	-0.395011	0.868656
C83	C	0.258496	-0.843931	0.325394
C84	C	0.758496	-0.343931	0.825394
C85	C	0.258504	-0.843932	0.238848
C86	C	0.758504	-0.343932	0.738848
C87	C	0.258467	-0.843925	0.674422
C88	C	0.758467	-0.343925	1.174422
C89	C	0.258450	-0.843926	0.760974
C90	C	0.758450	-0.343926	1.260974
C91	C	0.085059	-0.946082	0.760940
C92	C	0.585059	-0.446082	1.260940
C93	C	0.085067	-0.946083	0.674394
C94	C	0.585067	-0.446083	1.174394
C95	C	0.171780	-0.895007	0.631140
C96	C	0.671780	-0.395007	1.131140
C97	C	0.171783	-0.895005	0.537296
C98	C	0.671783	-0.395005	1.037296
C99	C	0.171779	-0.895008	0.462498
C100	C	0.671779	-0.395008	0.962498
H101	H	-0.393010	-0.827347	-0.125195
H102	H	0.106990	-0.327347	0.374805
O103	O	-0.253542	-0.972707	0.143558
O104	O	0.246458	-0.472707	0.643558
H105	H	-0.148108	-0.974515	0.142545
H106	H	0.351892	-0.474515	0.642545
H107	H	0.329105	-0.802341	0.203630
H108	H	0.829105	-0.302341	0.703630
H109	H	0.379213	-0.252713	-0.000094
H110	H	0.879213	0.247287	0.499906
O111	O	0.416503	-0.494198	-0.000082
O112	O	0.916503	0.005802	0.499918
H113	H	0.421096	-0.457810	0.055950
H114	H	0.921096	0.042190	0.555950
O115	O	-0.062226	-0.693202	-0.000098
O116	O	0.437774	-0.193202	0.499902
H117	H	-0.118360	-0.682074	0.055941
H118	H	0.381640	-0.182074	0.555941
O119	O	-0.072948	-0.295813	-0.000120
O120	O	0.427052	0.204187	0.499880
H121	H	-0.077552	-0.332187	-0.056164
H122	H	0.422448	0.167813	0.443836
H123	H	-0.035648	-0.537293	-0.000115
H124	H	0.464352	-0.037293	0.499885
O125	O	-0.253873	-0.972647	-0.143970
O126	O	0.246127	-0.472647	0.356030
H127	H	-0.148326	-0.973979	-0.143396
H128	H	0.351674	-0.473979	0.356604
H129	H	-0.046372	-0.139922	-0.000128
H130	H	0.453628	0.360078	0.499872
O131	O	0.352044	-0.788873	0.627773
O132	O	0.852044	-0.288873	1.127773
H133	H	0.412335	-0.753364	0.672418
H134	H	0.912335	-0.253364	1.172418
O135	O	-0.008395	-1.001184	0.192128
O136	O	0.491605	-0.501184	0.692128
H137	H	-0.068670	-1.036708	0.236751
H138	H	0.431330	-0.536708	0.736751
O139	O	-0.008471	-1.001178	0.807588
O140	O	0.491529	-0.501178	1.307588
H141	H	-0.107924	-0.991094	0.790962
H142	H	0.392076	-0.491094	1.290962
H143	H	0.014500	-0.987680	0.360584
H144	H	0.514500	-0.487680	0.860584
H145	H	0.014471	-0.987673	0.639150
H146	H	0.514471	-0.487673	1.139150
O147	O	0.351967	-0.788839	0.807670
O148	O	0.851967	-0.288839	1.307670
H149	H	0.412276	-0.753328	0.763054
H150	H	0.912276	-0.253328	1.263054
H151	H	0.329088	-0.802344	0.360645
H152	H	0.829088	-0.302344	0.860645
H153	H	-0.437163	-1.026580	-0.000196
H154	H	0.062837	-0.526580	0.499804
O155	O	-0.202514	-0.743966	-0.000167
O156	O	0.297486	-0.243966	0.499833
H157	H	-0.274921	-0.702565	-0.000786
H158	H	0.225079	-0.202565	0.499214
O159	O	-0.402790	-0.817300	0.143596
O160	O	0.097210	-0.317300	0.643596
H161	H	-0.355524	-0.758143	0.143454
H162	H	0.144476	-0.258143	0.643454
H163	H	0.375352	-0.109467	-0.000105
H164	H	0.875352	0.390533	0.499895
O165	O	0.420922	-0.658313	-0.000072
O166	O	0.920922	-0.158313	0.499928
H167	H	0.500639	-0.611759	-0.000083
H168	H	1.000639	-0.111759	0.499917
