data_functionalizedCrystal
_audit_creation_method	'MofGen! by Chris Wilmer'
_symmetry_space_group_name_H-M	'P1'
_symmetry_Int_Tables_number	1
_symmetry_cell_setting	triclinic
loop_
_symmetry_equiv_pos_as_xyz
  x,y,z
_cell_length_a	14.044191
_cell_length_b	23.532407
_cell_length_c	12.503572
_cell_angle_alpha	93.492657
_cell_angle_beta	86.162165
_cell_angle_gamma	88.020262
loop_
_atom_site_label
_atom_site_type_symbol
_atom_site_fract_x
_atom_site_fract_y
_atom_site_fract_z
O1	O	1.261910	0.134238	-0.089306
O2	O	0.985988	0.129281	-0.089318
O3	O	1.132267	0.049280	-0.089281
O4	O	1.115630	0.214239	-0.089342
O5	O	1.121266	0.055308	0.089358
O6	O	0.974986	0.135309	0.089321
O7	O	1.250908	0.140266	0.089333
Cu8	Cu	1.111943	0.138338	0.105638
Cu9	Cu	1.124953	0.131209	-0.105623
O10	O	1.104629	0.220267	0.089297
C11	C	0.945193	0.130127	0.000001
C12	C	0.840028	0.123659	-0.000003
C13	C	0.589421	0.157704	-0.000005
C14	C	0.647481	0.111845	0.000011
C15	C	0.754624	0.118420	0.000003
C16	C	0.482268	0.151130	0.000003
C17	C	1.126342	0.031055	0.000044
C18	C	1.125067	-0.032230	0.000060
C19	C	1.033251	-0.303378	-0.000011
C20	C	1.034434	-0.243914	-0.000003
O21	O	0.961596	-0.211120	-0.000040
N22	N	1.121398	-0.216572	0.000013
C23	C	1.207184	-0.248699	0.000010
O24	O	1.281262	-0.219982	0.000024
C25	C	1.206001	-0.308163	-0.000006
C26	C	1.119031	-0.335501	-0.000011
C27	C	0.946288	-0.330717	-0.000018
C28	C	0.945106	-0.390177	-0.000024
C29	C	1.030886	-0.422299	-0.000024
C30	C	1.117848	-0.394961	-0.000017
C31	C	1.291787	-0.340288	-0.000016
C32	C	1.290596	-0.399756	-0.000033
C33	C	1.203626	-0.427094	-0.000039
C34	C	1.202446	-0.486544	-0.000023
N35	N	1.115482	-0.513885	-0.000040
C36	C	1.029702	-0.481763	-0.000040
C37	C	1.209663	-0.123821	0.000042
C38	C	1.210847	-0.064358	0.000066
C39	C	1.038097	-0.059577	0.000050
C40	C	1.036913	-0.119041	0.000034
C41	C	1.122700	-0.151162	0.000026
C42	C	1.027225	-0.606635	-0.000052
C43	C	1.026049	-0.666101	-0.000054
C44	C	1.198800	-0.670876	-0.000044
C45	C	1.199975	-0.611416	-0.000037
C46	C	1.114180	-0.579296	-0.000044
O47	O	1.275246	-0.519375	0.000009
O48	O	0.955637	-0.510488	-0.000067
C49	C	1.291703	0.139420	0.000013
C50	C	1.396869	0.145887	0.000009
C51	C	1.110554	0.238492	-0.000031
C52	C	1.111829	0.301777	-0.000054
N53	N	1.102799	0.143351	0.254228
N54	N	1.134104	0.126192	-0.254213
C55	C	1.089348	0.150731	0.473340
C56	C	1.147552	0.118814	0.526682
C57	C	1.140068	0.122920	0.648603
C58	C	1.096831	0.146625	0.351408
H59	H	0.955225	-0.688356	-0.000053
C60	C	1.221261	0.078189	0.465297
C61	C	1.214019	0.082068	0.354820
C62	C	1.281818	0.044601	0.298234
H63	H	1.209964	0.040313	0.483677
H64	H	1.283469	0.088028	0.483461
H65	H	1.151825	0.072225	0.336662
H66	H	1.225325	0.119935	0.336407
H67	H	1.344026	0.054440	0.316399
H68	H	1.270515	0.006728	0.316624
H69	H	1.276919	0.047232	0.223270
C70	C	0.942395	-0.148616	-0.000038
C71	C	0.867535	-0.107751	-0.000059
C72	C	0.780449	-0.134971	-0.000143
H73	H	0.934365	-0.169623	0.062231
H74	H	0.942128	-0.173789	-0.062368
H75	H	0.867801	-0.082588	0.062265
H76	H	0.875533	-0.086741	-0.062323
H77	H	0.780181	-0.160144	-0.062473
H78	H	0.772429	-0.155978	0.062127
H79	H	0.729646	-0.107249	-0.000168
C80	C	1.015366	0.191192	0.534672
C81	C	0.953673	0.160108	0.599276
C82	C	0.885521	0.197363	0.655816
H83	H	0.979729	0.210697	0.485300
H84	H	1.046626	0.218038	0.578592
H85	H	0.922416	0.133272	0.555360
H86	H	0.989283	0.140604	0.648668
H87	H	0.916781	0.224209	0.699736
H88	H	0.849891	0.216866	0.606436
H89	H	0.843660	0.176279	0.699664
C90	C	0.606294	0.052954	-0.000035
C91	C	0.506673	0.058052	-0.000066
C92	C	0.468696	0.003816	-0.000129
H93	H	0.623337	0.034906	0.062244
H94	H	0.631058	0.030755	-0.062355
H95	H	0.481918	0.080242	0.062248
H96	H	0.489604	0.076090	-0.062340
H97	H	0.493460	-0.018383	-0.062449
H98	H	0.485746	-0.014228	0.062151
H99	H	0.401101	0.007267	-0.000160
C100	C	0.630617	0.216587	-0.000092
C101	C	0.730241	0.211481	-0.000124
C102	C	0.768236	0.265710	-0.000223
H103	H	0.605915	0.238836	0.062176
H104	H	0.613525	0.234583	-0.062423
H105	H	0.747325	0.193493	0.062200
H106	H	0.754969	0.189242	-0.062388
H107	H	0.751144	0.283706	-0.062555
H108	H	0.743527	0.287955	0.062045
H109	H	0.835835	0.262253	-0.000255
C110	C	0.933971	-0.571866	-0.000001
C111	C	0.857568	-0.608544	0.000021
C112	C	0.771649	-0.576535	0.000089
H113	H	0.934532	-0.550656	-0.062275
H114	H	0.926948	-0.546488	0.062324
H115	H	0.864589	-0.633913	-0.062297
H116	H	0.856976	-0.629755	0.062291
H117	H	0.764626	-0.551157	0.062414
H118	H	0.772220	-0.555327	-0.062186
H119	H	0.719799	-0.601416	0.000114
H120	H	0.874286	-0.412431	-0.000038
H121	H	0.876432	-0.304569	-0.000021
H122	H	0.968250	-0.033412	0.000051
C123	C	1.305172	-0.034573	0.000136
C124	C	1.287861	0.024380	0.000169
C125	C	1.374732	0.051834	0.000240
H126	H	1.344373	-0.047330	-0.062141
H127	H	1.336636	-0.043176	0.062458
H128	H	1.256412	0.032980	-0.062147
H129	H	1.248675	0.037154	0.062441
H130	H	1.406196	0.043231	0.062562
H131	H	1.413926	0.039073	-0.062038
H132	H	1.362998	0.091837	0.000273
H133	H	1.279525	-0.149971	0.000042
C134	C	1.386259	-0.310658	-0.000239
C135	C	1.443715	-0.329651	-0.092165
C136	C	1.530750	-0.302364	-0.092415
H137	H	1.417840	-0.319279	0.061979
H138	H	1.374740	-0.270639	-0.000290
H139	H	1.455236	-0.369661	-0.092103
H140	H	1.412164	-0.321029	-0.154398
H141	H	1.519232	-0.262345	-0.092467
H142	H	1.562322	-0.310988	-0.030193
H143	H	1.569741	-0.315243	-0.154790
C144	C	1.383724	-0.434667	-0.000261
C145	C	1.393764	-0.472022	-0.092185
C146	C	1.479545	-0.504184	-0.092435
H147	H	1.383118	-0.455921	0.061959
H148	H	1.435714	-0.409886	-0.000314
H149	H	1.341787	-0.496800	-0.092122
H150	H	1.394387	-0.450783	-0.154419
H151	H	1.531535	-0.479403	-0.092488
H152	H	1.478931	-0.525435	-0.030212
H153	H	1.486373	-0.529530	-0.154809
H154	H	1.270792	-0.589155	-0.000017
C155	C	1.291912	-0.705797	-0.000270
C156	C	1.301934	-0.743150	-0.092198
C157	C	1.387703	-0.775324	-0.092458
H158	H	1.291301	-0.727054	0.061947
H159	H	1.343913	-0.681024	-0.000324
H160	H	1.249947	-0.767920	-0.092134
H161	H	1.302563	-0.721908	-0.154429
H162	H	1.439704	-0.750551	-0.092512
H163	H	1.387084	-0.796577	-0.030238
H164	H	1.394518	-0.800668	-0.154834
