data_functionalizedCrystal
_audit_creation_method	'MofGen! by Chris Wilmer'
_symmetry_space_group_name_H-M	'P1'
_symmetry_Int_Tables_number	1
_symmetry_cell_setting	triclinic
loop_
_symmetry_equiv_pos_as_xyz
  x,y,z
_cell_length_a	19.121459
_cell_length_b	19.805407
_cell_length_c	19.121256
_cell_angle_alpha	87.549788
_cell_angle_beta	90.113108
_cell_angle_gamma	92.416784
loop_
_atom_site_label
_atom_site_type_symbol
_atom_site_fract_x
_atom_site_fract_y
_atom_site_fract_z
Zn1	Zn	-0.296141	-1.062643	0.384547
Zn2	Zn	0.037192	-0.729310	0.717881
Zn3	Zn	0.370526	-0.395976	1.051214
Zn4	Zn	-0.408348	-1.062173	0.262317
Zn5	Zn	-0.075014	-0.728839	0.595651
Zn6	Zn	0.258319	-0.395506	0.928984
Zn7	Zn	-0.291129	-0.944457	0.267320
Zn8	Zn	0.042204	-0.611123	0.600654
Zn9	Zn	0.375537	-0.277790	0.933987
Zn10	Zn	-0.413336	-0.954035	0.379510
Zn11	Zn	-0.080002	-0.620701	0.712843
Zn12	Zn	0.253331	-0.287368	1.046176
O13	O	-0.352238	-1.005827	0.323424
O14	O	-0.018905	-0.672493	0.656757
O15	O	0.314428	-0.339160	0.990090
O16	O	-0.311035	-1.157298	0.368348
O17	O	0.022298	-0.823965	0.701681
O18	O	0.355631	-0.490631	1.035015
O19	O	-0.388613	-1.042352	0.164876
O20	O	-0.055280	-0.709019	0.498209
O21	O	0.278053	-0.375686	0.831542
O22	O	-0.193692	-0.956323	0.287073
O23	O	0.139642	-0.622989	0.620406
O24	O	0.472975	-0.289656	0.953739
O25	O	-0.393473	-1.156953	0.278546
O26	O	-0.060140	-0.823619	0.611879
O27	O	0.273194	-0.490286	0.945213
O28	O	-0.197374	-1.043154	0.373199
O29	O	0.135960	-0.709820	0.706532
O30	O	0.469293	-0.376487	1.039866
O31	O	-0.302494	-0.955867	0.168551
O32	O	0.030840	-0.622533	0.501885
O33	O	0.364173	-0.289200	0.835218
O34	O	-0.307330	-0.851010	0.282188
O35	O	0.026003	-0.517676	0.615521
O36	O	0.359336	-0.184343	0.948854
O37	O	-0.401975	-0.972647	0.478283
O38	O	-0.068641	-0.639314	0.811617
O39	O	0.264692	-0.305980	1.144950
O40	O	-0.397115	-0.858046	0.364613
O41	O	-0.063782	-0.524713	0.697946
O42	O	0.269552	-0.191380	1.031280
O43	O	-0.315872	-1.052441	0.481984
O44	O	0.017461	-0.719108	0.815318
O45	O	0.350794	-0.385774	1.148651
O46	O	-0.507112	-1.051640	0.273661
O47	O	-0.173778	-0.718306	0.606995
O48	O	0.159555	-0.384973	0.940328
O49	O	-0.510777	-0.972191	0.359762
O50	O	-0.177443	-0.638858	0.693095
O51	O	0.155890	-0.305524	1.026429
C52	C	-0.352221	-0.829969	0.323397
C53	C	-0.018887	-0.496636	0.656730
C54	C	0.314446	-0.163302	0.990064
C55	C	-0.352231	-0.754737	0.323401
C56	C	-0.018897	-0.421404	0.656735
C57	C	0.314436	-0.088071	0.990068
C58	C	-0.399045	-0.723075	0.366244
C59	C	-0.065712	-0.389741	0.699577
C60	C	0.267622	-0.056408	1.032911
C61	C	-0.399045	-0.652387	0.366252
C62	C	-0.065712	-0.319053	0.699585
C63	C	0.267621	0.014280	1.032919
C64	C	-0.352234	-0.613363	0.323413
C65	C	-0.018901	-0.280029	0.656747
C66	C	0.314433	0.053304	0.990080
C67	C	-0.305415	-0.645030	0.280569
C68	C	0.027919	-0.311697	0.613902
C69	C	0.361252	0.021637	0.947236
C70	C	-0.305411	-0.715717	0.280565
C71	C	0.027922	-0.382384	0.613899
C72	C	0.361255	-0.049050	0.947232
C73	C	-0.305425	-0.359958	0.280584
C74	C	0.027908	-0.026624	0.613917
C75	C	0.361241	0.306709	0.947251
C76	C	-0.305434	-0.289266	0.280590
C77	C	0.027900	0.044067	0.613923
C78	C	0.361233	0.377400	0.947256
C79	C	-0.399059	-0.296627	0.366271
C80	C	-0.065726	0.036706	0.699604
C81	C	0.267607	0.370039	1.032937
C82	C	-0.399056	-0.367314	0.366267
C83	C	-0.065723	-0.033981	0.699600
C84	C	0.267610	0.299352	1.032934
C85	C	-0.352235	-0.398976	0.323426
C86	C	-0.018901	-0.065642	0.656759
C87	C	0.314432	0.267691	0.990092
C88	C	-0.352234	-0.475624	0.323419
C89	C	-0.018901	-0.142290	0.656752
C90	C	0.314433	0.191043	0.990085
C91	C	-0.352237	-0.536716	0.323416
C92	C	-0.018904	-0.203382	0.656750
C93	C	0.314429	0.129951	0.990083
C94	C	-0.534382	-1.012923	0.315637
C95	C	-0.201048	-0.679589	0.648971
C96	C	0.132285	-0.346256	0.982304
C97	C	-0.612304	-1.016021	0.312330
C98	C	-0.278971	-0.682688	0.645663
C99	C	0.054362	-0.349354	0.978997
C100	C	-1.052922	-1.035636	0.291358
C101	C	-0.719589	-0.702302	0.624691
C102	C	-0.386255	-0.368969	0.958025
C103	C	-0.979705	-1.032718	0.294467
C104	C	-0.646372	-0.699385	0.627801
C105	C	-0.313039	-0.366052	0.961134
C106	C	-0.945032	-0.989863	0.340816
C107	C	-0.611698	-0.656530	0.674149
C108	C	-0.278365	-0.323197	1.007482
C109	C	-0.983578	-0.949918	0.384053
C110	C	-0.650245	-0.616584	0.717386
C111	C	-0.316911	-0.283251	1.050719
C112	C	-1.056793	-0.952832	0.380939
C113	C	-0.723460	-0.619499	0.714273
C114	C	-0.390126	-0.286165	1.047606
C115	C	-0.724066	-0.978990	0.352453
C116	C	-0.390733	-0.645656	0.685787
C117	C	-0.057399	-0.312323	1.019120
C118	C	-0.650846	-0.976080	0.355565
C119	C	-0.317512	-0.642747	0.688898
C120	C	0.015821	-0.309413	1.022232
C121	C	-0.646978	-1.058880	0.265978
C122	C	-0.313645	-0.725547	0.599312
C123	C	0.019689	-0.392214	0.932645
C124	C	-0.720195	-1.061794	0.262872
C125	C	-0.386861	-0.728460	0.596206
C126	C	-0.053528	-0.395127	0.929539
C127	C	-0.758735	-1.021846	0.306106
C128	C	-0.425401	-0.688512	0.639440
C129	C	-0.092068	-0.355179	0.972773
C130	C	-0.870193	-0.986882	0.343997
C131	C	-0.536859	-0.653548	0.677330
C132	C	-0.203526	-0.320215	1.010663
C133	C	-0.833572	-1.024824	0.302922
C134	C	-0.500239	-0.691491	0.636255
C135	C	-0.166906	-0.358157	0.969588
C136	C	-0.169385	-0.998722	0.331256
C137	C	0.163949	-0.665389	0.664589
C138	C	0.497282	-0.332056	0.997922
C139	C	-0.091463	-0.995695	0.334593
C140	C	0.241870	-0.662361	0.667927
C141	C	0.575204	-0.329028	1.001260
C142	C	-0.360039	-1.013665	0.506283
C143	C	-0.026705	-0.680331	0.839616
C144	C	0.306628	-0.346998	1.172949
C145	C	-0.363363	-1.017005	0.584206
C146	C	-0.030030	-0.683671	0.917540
C147	C	0.303304	-0.350338	1.250873
C148	C	-0.352252	-0.182371	0.323444
C149	C	-0.018919	0.150963	0.656778
C150	C	0.314415	0.484296	0.990111
C151	C	-0.352245	-0.257602	0.323436
C152	C	-0.018912	0.075731	0.656770
C153	C	0.314421	0.409064	0.990103
C154	C	-0.320087	-0.973548	0.622728
C155	C	0.013246	-0.640214	0.956061
C156	C	0.346579	-0.306881	1.289395
C157	C	-0.323217	-0.976684	0.695945
C158	C	0.010117	-0.643350	1.029279
C159	C	0.343450	-0.310017	1.362612
C160	C	-0.369618	-1.023281	0.730640
C161	C	-0.036285	-0.689947	1.063973
C162	C	0.297049	-0.356614	1.397306
C163	C	-0.412898	-1.066740	0.692113
C164	C	-0.079565	-0.733406	1.025446
C165	C	0.253769	-0.400073	1.358779
C166	C	-0.409772	-1.063600	0.618896
C167	C	-0.076439	-0.730267	0.952230
C168	C	0.256895	-0.396933	1.285563
C169	C	-0.381303	-1.035010	0.951609
C170	C	-0.047970	-0.701677	1.284942
C171	C	0.285364	-0.368344	1.618276
C172	C	-0.384424	-1.038148	1.024830
C173	C	-0.051091	-0.704815	1.358164
C174	C	0.282242	-0.371482	1.691497
C175	C	-0.294743	-0.948091	1.028658
C176	C	0.038590	-0.614758	1.361991
C177	C	0.371923	-0.281424	1.695325
C178	C	-0.291618	-0.944958	0.955441
C179	C	0.041715	-0.611625	1.288774
C180	C	0.375048	-0.278291	1.622107
C181	C	-0.334901	-0.988415	0.916920
C182	C	-0.001568	-0.655081	1.250253
C183	C	0.331766	-0.321748	1.583586
C184	C	-0.372816	-1.026489	0.805479
C185	C	-0.039483	-0.693155	1.138813
C186	C	0.293851	-0.359822	1.472146
C187	C	-0.331706	-0.985203	0.842081
C188	C	0.001627	-0.651869	1.175414
C189	C	0.334960	-0.318536	1.508748
C190	C	-0.344481	-0.998019	1.141275
C191	C	-0.011148	-0.664686	1.474609
C192	C	0.322185	-0.331352	1.807942
C193	C	-0.341149	-0.994691	1.063352
C194	C	-0.007816	-0.661358	1.396685
C195	C	0.325518	-0.328024	1.730019
H196	H	-0.437167	-0.626610	0.401138
H197	H	-0.103834	-0.293277	0.734471
H198	H	0.229500	0.040057	1.067804
H199	H	-1.081148	-1.070537	0.253620
H200	H	-0.747815	-0.737204	0.586953
H201	H	-0.414481	-0.403870	0.920287
Br202	Br	-0.241900	-0.236305	0.222447
Br203	Br	0.091433	0.097029	0.555780
Br204	Br	0.424767	0.430362	0.889114
H205	H	-0.267306	-0.385728	0.245695
H206	H	0.066028	-0.052394	0.579028
H207	H	0.399361	0.280939	0.912361
Br208	Br	-0.927402	-1.086934	0.235795
Br209	Br	-0.594069	-0.753600	0.569128
Br210	Br	-0.260735	-0.420267	0.902462
Br211	Br	-0.462592	-0.420272	0.424403
Br212	Br	-0.129259	-0.086939	0.757736
Br213	Br	0.204075	0.246394	1.091069
H214	H	-0.267297	-0.613251	0.245692
H215	H	0.066036	-0.279918	0.579026
H216	H	0.399370	0.053416	0.912359
Br217	Br	-0.475879	-1.129974	0.739196
Br218	Br	-0.142546	-0.796640	1.072530
Br219	Br	0.190788	-0.463307	1.405863
H220	H	-1.088173	-0.920311	0.416150
H221	H	-0.754839	-0.586978	0.749483
H222	H	-0.421506	-0.253645	1.082816
H223	H	-0.437181	-0.270840	0.401157
H224	H	-0.103848	0.062493	0.734490
H225	H	0.229485	0.395826	1.067823
H226	H	-0.267287	-0.741496	0.245682
H227	H	0.066047	-0.408162	0.579016
H228	H	0.399380	-0.074829	0.912349
Br229	Br	-0.823130	-0.928729	0.406903
Br230	Br	-0.489796	-0.595395	0.740236
Br231	Br	-0.156463	-0.262062	1.073569
Br232	Br	-0.767247	-1.119962	0.199973
Br233	Br	-0.433914	-0.786628	0.533307
Br234	Br	-0.100581	-0.453295	0.866640
H235	H	-0.259506	-0.912710	1.060029
H236	H	0.073828	-0.579377	1.393363
H237	H	0.407161	-0.246044	1.726696
Br238	Br	-0.228639	-0.881720	0.908360
Br239	Br	0.104694	-0.548387	1.241694
Br240	Br	0.438027	-0.215053	1.575027
Br241	Br	-0.257106	-0.910310	0.575650
Br242	Br	0.076228	-0.576977	0.908984
Br243	Br	0.409561	-0.243644	1.242317
Br244	Br	-0.594671	-1.113092	0.207306
Br245	Br	-0.261337	-0.779758	0.540639
Br246	Br	0.071996	-0.446425	0.873972
Br247	Br	-0.462583	-0.776029	0.424380
Br248	Br	-0.129250	-0.442696	0.757713
Br249	Br	0.204083	-0.109363	1.091047
H250	H	-0.287980	-0.941294	0.727307
H251	H	0.045354	-0.607960	1.060640
H252	H	0.378687	-0.274627	1.393973
Br253	Br	-0.468511	-1.122575	0.566616
Br254	Br	-0.135177	-0.789242	0.899949
Br255	Br	0.198156	-0.455908	1.233282
H256	H	-0.622618	-0.941180	0.393310
H257	H	-0.289285	-0.607847	0.726644
H258	H	0.044049	-0.274514	1.059977
Br259	Br	-0.447393	-1.101399	1.071916
Br260	Br	-0.114060	-0.768066	1.405249
Br261	Br	0.219273	-0.434733	1.738582
Br262	Br	-0.936522	-0.891755	0.446954
Br263	Br	-0.603188	-0.558421	0.780287
Br264	Br	-0.269855	-0.225088	1.113620
H265	H	-0.755436	-0.946456	0.387653
H266	H	-0.422103	-0.613123	0.720986
H267	H	-0.088770	-0.279789	1.054319
Br268	Br	-0.440040	-1.093992	0.899340
Br269	Br	-0.106707	-0.760658	1.232673
Br270	Br	0.226627	-0.427325	1.566007
H271	H	-0.861807	-1.059714	0.265183
H272	H	-0.528473	-0.726381	0.598516
H273	H	-0.195140	-0.393047	0.931849
Br274	Br	-0.268734	-0.921967	0.794995
Br275	Br	0.064599	-0.588633	1.128328
Br276	Br	0.397933	-0.255300	1.461662
H277	H	-0.410597	-1.064428	0.833736
H278	H	-0.077264	-0.731094	1.167069
H279	H	0.256070	-0.397761	1.500402
