data_functionalizedCrystal
_audit_creation_method	'MofGen! by Chris Wilmer'
_symmetry_space_group_name_H-M	'P1'
_symmetry_Int_Tables_number	1
_symmetry_cell_setting	triclinic
loop_
_symmetry_equiv_pos_as_xyz
  x,y,z
_cell_length_a	14.519709
_cell_length_b	8.559649
_cell_length_c	12.996460
_cell_angle_alpha	90.005498
_cell_angle_beta	89.992910
_cell_angle_gamma	103.270595
loop_
_atom_site_label
_atom_site_type_symbol
_atom_site_fract_x
_atom_site_fract_y
_atom_site_fract_z
O1	O	-0.031278	-2.120041	-0.085549
O2	O	0.302055	-1.786707	0.247784
O3	O	0.635388	-1.453374	0.581118
O4	O	0.016340	-1.654973	-0.085556
O5	O	0.349673	-1.321640	0.247778
O6	O	0.683006	-0.988306	0.581111
O7	O	-0.142593	-1.899837	-0.085543
O8	O	0.190741	-1.566504	0.247791
O9	O	0.524074	-1.233171	0.581124
O10	O	0.127654	-1.875176	-0.085562
O11	O	0.460988	-1.541843	0.247772
O12	O	0.794321	-1.208510	0.581105
O13	O	-0.142599	-1.899812	0.085591
O14	O	0.190735	-1.566479	0.418924
O15	O	0.524068	-1.233145	0.752258
O16	O	0.016334	-1.654947	0.085578
O17	O	0.349667	-1.321614	0.418912
O18	O	0.683000	-0.988281	0.752245
O19	O	-0.031284	-2.120015	0.085585
O20	O	0.302049	-1.786682	0.418918
O21	O	0.635382	-1.453349	0.752252
Cu22	Cu	-0.007476	-1.887479	0.101207
Cu23	Cu	0.325858	-1.554146	0.434541
Cu24	Cu	0.659191	-1.220812	0.767874
Cu25	Cu	-0.007469	-1.887509	-0.101178
Cu26	Cu	0.325865	-1.554176	0.232155
Cu27	Cu	0.659198	-1.220843	0.565489
O28	O	0.127648	-1.875151	0.085572
O29	O	0.460982	-1.541817	0.418905
O30	O	0.794315	-1.208484	0.752239
C31	C	0.019945	-1.595441	0.000010
C32	C	0.353279	-1.262107	0.333344
C33	C	0.686612	-0.928774	0.666677
C34	C	0.030687	-1.418091	0.000008
C35	C	0.364020	-1.084758	0.333342
C36	C	0.697354	-0.751425	0.666675
C37	C	-0.176873	-1.898675	0.000024
C38	C	0.156460	-1.565342	0.333358
C39	C	0.489794	-1.232009	0.666691
C40	C	-0.279007	-1.895231	0.000025
C41	C	0.054326	-1.561898	0.333358
C42	C	0.387660	-1.228565	0.666691
C43	C	-0.034890	-2.179548	0.000017
C44	C	0.298443	-1.846214	0.333350
C45	C	0.631777	-1.512881	0.666683
C46	C	-0.045631	-2.356897	0.000012
C47	C	0.287702	-2.023564	0.333345
C48	C	0.621035	-1.690230	0.666679
C49	C	-0.652993	-1.882552	-0.000002
C50	C	-0.319659	-1.549219	0.333331
C51	C	0.013674	-1.215886	0.666665
C52	C	-0.548938	-1.886073	0.000006
C53	C	-0.215604	-1.552740	0.333339
C54	C	0.117729	-1.219406	0.666672
C55	C	-0.466003	-1.888891	0.000012
C56	C	-0.132670	-1.555558	0.333346
C57	C	0.200663	-1.222225	0.666679
C58	C	-0.361941	-1.892413	0.000018
C59	C	-0.028608	-1.559080	0.333352
C60	C	0.304725	-1.225746	0.666685
C61	C	0.161929	-1.876313	0.000003
C62	C	0.495262	-1.542980	0.333336
C63	C	0.828595	-1.209646	0.666669
C64	C	0.264063	-1.879757	-0.000004
C65	C	0.597396	-1.546424	0.333329
C66	C	0.930729	-1.213090	0.666662
N67	N	-0.007482	-1.887469	0.243555
N68	N	0.325851	-1.554136	0.576888
N69	N	0.659184	-1.220803	0.910221
N70	N	-0.007470	-1.887531	-0.243525
N71	N	0.325863	-1.554198	0.089808
N72	N	0.659196	-1.220865	0.423141
C73	C	-0.007468	-1.887507	0.663369
C74	C	0.325866	-1.554174	0.996702
C75	C	0.659199	-1.220840	1.330036
C76	C	-0.007468	-1.887492	0.546564
C77	C	0.325865	-1.554158	0.879897
C78	C	0.659198	-1.220825	1.213230
C79	C	-0.007474	-1.887489	0.453465
C80	C	0.325859	-1.554156	0.786799
C81	C	0.659192	-1.220822	1.120132
C82	C	-0.007476	-1.887472	0.336653
C83	C	0.325857	-1.554139	0.669986
C84	C	0.659191	-1.220806	1.003320
H85	H	-0.119188	-1.440184	0.000012
H86	H	0.214145	-1.106850	0.333345
H87	H	0.547478	-0.773517	0.666679
H88	H	0.104249	-1.334796	-0.000002
H89	H	0.437582	-1.001462	0.333331
H90	H	0.770915	-0.668129	0.666664
