data_functionalizedCrystal
_audit_creation_method	'MofGen! by Chris Wilmer'
_symmetry_space_group_name_H-M	'P1'
_symmetry_Int_Tables_number	1
_symmetry_cell_setting	triclinic
loop_
_symmetry_equiv_pos_as_xyz
  x,y,z
_cell_length_a	14.395555
_cell_length_b	17.917603
_cell_length_c	17.917559
_cell_angle_alpha	60.139256
_cell_angle_beta	90.004745
_cell_angle_gamma	63.034021
loop_
_atom_site_label
_atom_site_type_symbol
_atom_site_fract_x
_atom_site_fract_y
_atom_site_fract_z
Zr1	Zr	0.947916	0.806823	-0.129018
O2	O	0.814623	0.951857	-0.249559
O3	O	0.982407	0.654595	-0.087366
O4	O	0.999237	0.796443	-0.242772
O5	O	0.791762	0.820706	0.023088
O6	O	1.152111	0.796438	-0.242766
O7	O	0.797792	0.810009	-0.094152
O8	O	1.122004	0.542698	0.035228
O9	O	0.821869	1.074445	-0.254905
O10	O	1.118901	0.719869	-0.075276
O11	O	1.000313	0.727856	0.012214
O12	O	1.020129	0.894863	-0.170756
O13	O	0.901541	0.902850	-0.083266
Zr14	Zr	1.182114	0.823875	0.057977
Zr15	Zr	1.191731	0.806815	-0.129008
Zr16	Zr	0.938299	0.823883	0.057966
Zr17	Zr	0.959472	1.002338	-0.137546
Zr18	Zr	1.170557	0.628361	0.066504
O19	O	1.147623	0.976103	0.016324
O20	O	1.161297	0.951846	-0.249544
O21	O	0.800948	0.976114	0.016309
O22	O	1.315407	0.678841	0.178517
O23	O	1.329081	0.654584	-0.087351
O24	O	0.968733	0.678853	0.178502
O25	O	1.338267	0.809992	-0.094130
O26	O	1.130792	0.834256	0.171730
O27	O	0.977919	0.834261	0.171724
O28	O	1.332237	0.820689	0.023111
O29	O	1.015670	1.074439	-0.254897
O30	O	1.114360	0.556259	0.183855
O31	O	1.308161	0.556253	0.183864
O32	O	1.315805	0.542692	0.035236
O33	O	0.814225	1.088006	-0.106278
O34	O	1.008025	1.088000	-0.106269
O35	O	1.109901	0.735835	0.099714
O36	O	1.228489	0.727849	0.012224
O37	O	1.129717	0.902842	-0.083256
O38	O	1.011129	0.910829	0.004234
C39	C	1.050559	0.570790	-0.024854
C40	C	1.045653	0.487789	-0.021234
C41	C	1.036689	0.335823	-0.014623
C42	C	1.093338	0.294871	-0.056417
C43	C	1.088350	0.210312	-0.052738
C44	C	1.041675	0.420390	-0.018300
C45	C	0.760039	0.815359	-0.035534
C46	C	0.656533	0.815362	-0.035538
C47	C	0.542089	0.910777	-0.087591
C48	C	0.510083	0.857749	-0.119985
C49	C	0.504115	0.868386	-0.003150
C50	C	0.625893	0.762330	-0.067981
C51	C	0.619920	0.772984	0.048899
C52	C	0.587983	0.719885	0.016529
C53	C	1.369991	0.815339	-0.035508
C54	C	1.473497	0.815336	-0.035504
C55	C	1.077044	0.794009	-0.269410
C56	C	1.081127	0.786767	-0.348790
C57	C	1.079471	1.059908	-0.046188
C58	C	1.084377	1.142909	-0.049808
C59	C	1.041424	0.857149	-0.576892
C60	C	1.088603	0.773554	-0.494147
C61	C	1.084442	0.780908	-0.413264
C62	C	1.045584	0.849797	-0.657784
C63	C	1.052985	0.836689	0.198368
C64	C	1.048903	0.843931	0.277748
C65	C	1.355535	0.570780	-0.024841
C66	C	1.454135	0.487776	-0.021217
C67	C	1.038530	0.592130	0.209035
C68	C	1.029541	0.516371	0.292035
C69	C	1.343506	0.592120	0.209048
C70	C	1.438023	0.516358	0.292052
C71	C	0.786524	1.038578	-0.280090
C72	C	0.692007	1.114340	-0.363094
C73	C	0.774495	1.059918	-0.046201
C74	C	0.675895	1.142922	-0.049825
C75	C	1.091500	1.038568	-0.280077
C76	C	1.100489	1.114327	-0.363077
C77	C	1.443235	0.444630	-0.065196
C78	C	1.535873	0.366648	-0.061809
C79	C	1.639408	0.331808	-0.014435
C80	C	1.650306	0.374961	0.029545
C81	C	1.557670	0.452947	0.026152
C82	C	1.082523	0.484960	0.376695
C83	C	1.074073	0.413789	0.454689
C84	C	1.012647	0.374024	0.448021
C85	C	0.959658	0.405442	0.363353
C86	C	0.968102	0.476618	0.285360
C87	C	1.544321	0.476611	0.285363
C88	C	1.633140	0.405434	0.363347
C89	C	1.615659	0.374002	0.448019
C90	C	1.509350	0.413757	0.454707
C91	C	1.420533	0.484937	0.376723
C92	C	0.585709	1.154097	-0.356405
C93	C	0.496891	1.225298	-0.434390
C94	C	0.514373	1.256734	-0.519063
C95	C	0.620682	1.216974	-0.525750
C96	C	0.709498	1.145780	-0.447766
C97	C	0.686795	1.186075	-0.005854
C98	C	0.594160	1.264077	-0.009263
C99	C	0.490625	1.298920	-0.056639
C100	C	0.479727	1.255763	-0.100616
C101	C	0.572361	1.177768	-0.097212
C102	C	1.161924	1.154069	-0.356381
C103	C	1.170391	1.225243	-0.434360
C104	C	1.117416	1.256678	-0.519036
C105	C	1.055979	1.216928	-0.525730
C106	C	1.047519	1.145751	-0.447751
H107	H	0.984449	0.307379	0.023917
Cl108	Cl	0.513721	1.035332	-0.155644
Cl109	Cl	1.247623	1.275206	-0.425924
H110	H	1.333983	0.517291	0.382183
Cl111	Cl	0.882443	0.355440	0.354986
Cl112	Cl	1.155791	0.654528	-0.478557
H113	H	0.997910	0.934235	-0.586986
Cl114	Cl	1.140699	0.374303	0.561118
Cl115	Cl	1.566327	0.516117	0.178927
H116	H	1.719694	0.373072	0.357886
Cl117	Cl	1.313088	0.488416	-0.124762
H118	H	0.603055	1.299203	0.026553
H119	H	0.924961	0.502183	0.216430
H120	H	1.526978	0.331521	-0.097623
H121	H	0.395416	1.284144	-0.139189
Cl122	Cl	1.487391	0.374229	0.561159
Cl123	Cl	1.173999	0.338786	-0.115926
H124	H	1.012850	1.242534	-0.594683
Cl125	Cl	1.755855	0.233764	-0.010176
Cl126	Cl	0.436823	0.913050	-0.230209
H127	H	1.687989	0.316042	0.511511
Cl128	Cl	0.563704	1.114592	-0.249969
H129	H	0.678268	0.717521	-0.095440
Cl130	Cl	0.970268	1.095807	-0.456185
H131	H	0.442044	1.314705	-0.582555
H132	H	1.734617	0.346583	0.068115
H133	H	0.410338	1.257659	-0.428928
Cl134	Cl	0.374179	1.396972	-0.060908
H135	H	1.566560	0.488067	0.061971
H136	H	1.205064	1.128487	-0.287441
H137	H	0.634903	1.242579	-0.594700
H138	H	0.796048	1.113410	-0.453223
Cl139	Cl	1.159754	0.534933	0.385100
H140	H	1.005780	0.316069	0.511535
Cl141	Cl	0.816943	1.142295	0.053706
Cl142	Cl	0.558638	1.123521	-0.152490
Cl143	Cl	0.616581	0.595245	0.084448
H144	H	0.667368	0.737200	0.120276
Cl145	Cl	0.423037	0.937629	0.039119
Cl146	Cl	1.128059	1.346164	-0.617059
