data_functionalizedCrystal
_audit_creation_method	'MofGen! by Chris Wilmer'
_symmetry_space_group_name_H-M	'P1'
_symmetry_Int_Tables_number	1
_symmetry_cell_setting	triclinic
loop_
_symmetry_equiv_pos_as_xyz
  x,y,z
_cell_length_a	11.792254
_cell_length_b	15.538191
_cell_length_c	14.750779
_cell_angle_alpha	82.430615
_cell_angle_beta	102.730636
_cell_angle_gamma	65.735346
loop_
_atom_site_label
_atom_site_type_symbol
_atom_site_fract_x
_atom_site_fract_y
_atom_site_fract_z
O1	O	1.419860	0.149162	-0.079814
O2	O	1.083957	0.162428	-0.079815
O3	O	1.317293	0.019003	-0.079819
O4	O	1.186524	0.292587	-0.079810
O5	O	1.383252	-0.021537	0.079831
O6	O	1.149916	0.121888	0.079834
O7	O	1.485819	0.108622	0.079836
Zn8	Zn	1.328340	0.108819	0.105183
Zn9	Zn	1.241436	0.162232	-0.105162
O10	O	1.252483	0.252047	0.079839
C11	C	1.074996	0.141323	0.000010
C12	C	0.950032	0.138822	0.000009
C13	C	1.363953	-0.036291	0.000003
C14	C	1.404705	-0.140653	-0.000007
C15	C	0.999823	-0.430531	0.000013
C16	C	1.038148	-0.528600	0.000015
C17	C	1.253712	-0.549934	0.000015
C18	C	1.215403	-0.451864	0.000008
C19	C	1.088457	-0.392170	0.000008
C20	C	1.304037	-0.413502	0.000004
C21	C	1.265733	-0.315442	0.000002
C22	C	1.138795	-0.255742	0.000004
C23	C	1.050153	-0.294109	0.000006
C24	C	1.430985	-0.473200	0.000011
C25	C	1.519619	-0.434838	0.000006
C26	C	1.481313	-0.336774	-0.000003
C27	C	1.354374	-0.277075	0.000000
C28	C	1.569954	-0.298407	-0.000004
C29	C	1.531650	-0.200347	-0.000006
C30	C	1.316070	-0.179014	-0.000002
C31	C	0.848546	0.136790	0.000005
C32	C	0.721225	0.134249	0.000004
C33	C	1.494779	0.129728	0.000009
C34	C	1.619741	0.132231	0.000004
C35	C	1.205822	0.307342	0.000016
C36	C	1.165068	0.411705	0.000019
N37	N	1.387659	0.072365	0.248738
N38	N	1.182129	0.198678	-0.248717
C39	C	1.016478	0.300446	0.600562
C40	C	1.058051	0.274908	0.701060
C41	C	1.264682	0.147953	0.701019
C42	C	1.223125	0.173477	0.600519
C43	C	1.099022	0.249725	0.550298
C44	C	1.305669	0.122756	0.550255
C45	C	1.264117	0.148282	0.449764
C46	C	1.140021	0.224529	0.399536
C47	C	1.057470	0.275251	0.449806
C48	C	1.429774	0.046513	0.600478
C49	C	1.512318	-0.004208	0.550214
C50	C	1.470763	0.021313	0.449721
C51	C	1.346667	0.097560	0.399493
C52	C	1.553313	-0.029409	0.399450
C53	C	1.511761	-0.003883	0.298958
C54	C	1.305115	0.123086	0.299001
H55	H	1.212696	-0.130405	-0.000009
H56	H	1.578978	-0.045185	0.258033
H57	H	1.622980	-0.483455	0.000010
H58	H	1.603826	-0.169113	-0.000009
N59	N	1.680083	-0.107274	0.450770
N60	N	1.717175	-0.130045	0.540494
H61	H	1.806710	-0.185036	0.576740
H62	H	0.896449	-0.381923	0.000005
H63	H	1.204053	0.185168	0.258109
N64	N	1.097575	0.250644	0.296885
N65	N	1.160092	0.278100	0.252028
H66	H	1.130113	0.296554	0.179531
H67	H	1.463603	0.025736	0.682305
N68	N	0.930701	0.353145	0.398511
N69	N	0.901091	0.437189	0.409740
H70	H	0.811565	0.492201	0.373512
H71	H	0.915416	0.362529	0.559670
H72	H	1.673317	-0.347027	0.000005
H73	H	1.365730	0.085873	0.741921
H74	H	1.462164	-0.553044	0.000004
N75	N	1.099667	-0.155580	0.000023
N76	N	1.158491	-0.133659	0.067322
H77	H	1.130856	-0.062918	0.067337
H78	H	1.613366	-0.066288	0.591116
N79	N	0.920465	-0.233131	-0.000020
N80	N	0.841325	-0.267387	-0.000033
H81	H	0.749735	-0.224321	-0.000055
H82	H	0.965967	-0.559832	0.000033
H83	H	1.357073	-0.598551	0.000019
H84	H	0.990823	0.316219	0.741980
