data_functionalizedCrystal
_audit_creation_method	'MofGen! by Chris Wilmer'
_symmetry_space_group_name_H-M	'P1'
_symmetry_Int_Tables_number	1
_symmetry_cell_setting	triclinic
loop_
_symmetry_equiv_pos_as_xyz
  x,y,z
_cell_length_a	26.210047
_cell_length_b	17.038272
_cell_length_c	17.038272
_cell_angle_alpha	91.111556
_cell_angle_beta	89.981131
_cell_angle_gamma	89.985725
loop_
_atom_site_label
_atom_site_type_symbol
_atom_site_fract_x
_atom_site_fract_y
_atom_site_fract_z
O1	O	0.042366	-1.048772	-0.170553
O2	O	0.542366	-0.548772	0.329447
O3	O	0.042381	-0.820961	-0.167845
O4	O	0.542381	-0.320961	0.332155
O5	O	0.042369	-0.933513	-0.055293
O6	O	0.542369	-0.433513	0.444707
O7	O	0.042377	-0.936221	-0.283105
O8	O	0.542377	-0.436221	0.216895
O9	O	-0.042489	-0.933466	-0.055256
O10	O	0.457511	-0.433466	0.444744
O11	O	-0.042477	-0.820914	-0.167808
O12	O	0.457523	-0.320914	0.332192
O13	O	-0.042492	-1.048726	-0.170516
O14	O	0.457508	-0.548726	0.329484
Cu15	Cu	-0.050233	-0.934816	-0.169159
Cu16	Cu	0.449767	-0.434816	0.330841
Cu17	Cu	0.050121	-0.934871	-0.169202
Cu18	Cu	0.550121	-0.434871	0.330798
O19	O	-0.042481	-0.936174	-0.283068
O20	O	0.457519	-0.436174	0.216932
C21	C	-0.000047	-0.791645	-0.165364
C22	C	0.499953	-0.291645	0.334636
C23	C	-0.000041	-0.704361	-0.158016
C24	C	0.499959	-0.204361	0.341984
C25	C	-0.000060	-0.931027	-0.025982
C26	C	0.499940	-0.431027	0.474018
C27	C	-0.000059	-0.923679	0.061301
C28	C	0.499941	-0.423679	0.561301
N29	N	-0.120817	-0.934783	-0.169128
N30	N	0.379183	-0.434783	0.330872
C31	C	-0.526793	-0.884059	-0.118339
C32	C	-0.026793	-0.384059	0.381661
C33	C	-0.313134	-0.884023	-0.118317
C34	C	0.186866	-0.384023	0.381683
O35	O	-0.285523	-0.840843	-0.075067
O36	O	0.214477	-0.340843	0.424933
N37	N	-0.286401	-0.934813	-0.169141
N38	N	0.213599	-0.434813	0.330859
C39	C	-0.313085	-0.985620	-0.219971
C40	C	0.186915	-0.485620	0.280029
O41	O	-0.285444	-1.028825	-0.263194
O42	O	0.214556	-0.528825	0.236806
C43	C	-0.526743	-0.985659	-0.219989
C44	C	-0.026743	-0.485659	0.280011
C45	C	-0.553474	-0.934860	-0.169167
C46	C	-0.053474	-0.434860	0.330833
C47	C	-0.553524	-0.833265	-0.067520
C48	C	-0.053524	-0.333265	0.432480
C49	C	-0.606935	-0.833271	-0.067530
C50	C	-0.106935	-0.333271	0.432470
C51	C	-0.633616	-0.884072	-0.118357
C52	C	-0.133616	-0.384072	0.381643
C53	C	-0.606885	-0.934867	-0.169176
C54	C	-0.106885	-0.434867	0.330824
C55	C	-0.553426	-1.036469	-0.270814
C56	C	-0.053426	-0.536469	0.229186
C57	C	-0.606844	-1.036476	-0.270812
C58	C	-0.106844	-0.536476	0.229188
C59	C	-0.633575	-0.985677	-0.219990
C60	C	-0.133575	-0.485677	0.280010
C61	C	-0.686977	-0.985674	-0.220012
C62	C	-0.186977	-0.485674	0.279988
N63	N	-0.713711	-0.934884	-0.169188
N64	N	-0.213711	-0.434884	0.330812
C65	C	-0.687030	-0.884083	-0.118360
C66	C	-0.187030	-0.384083	0.381640
C67	C	-0.200912	-0.985594	-0.219959
C68	C	0.299088	-0.485594	0.280041
C69	C	-0.147498	-0.985584	-0.219956
C70	C	0.352502	-0.485584	0.280044
C71	C	-0.147551	-0.883988	-0.118300
C72	C	0.352449	-0.383988	0.381700
C73	C	-0.200966	-0.883995	-0.118308
C74	C	0.299034	-0.383995	0.381692
C75	C	-0.227645	-0.934804	-0.169135
C76	C	0.272355	-0.434804	0.330865
C77	C	-0.799198	-0.884100	-0.118384
C78	C	-0.299198	-0.384100	0.381616
C79	C	-0.852614	-0.884109	-0.118400
C80	C	-0.352614	-0.384109	0.381600
C81	C	-0.852557	-0.985707	-0.220052
C82	C	-0.352557	-0.485707	0.279948
C83	C	-0.799145	-0.985696	-0.220039
C84	C	-0.299145	-0.485696	0.279961
C85	C	-0.772467	-0.934890	-0.169199
C86	C	-0.272467	-0.434890	0.330801
O87	O	-0.714622	-1.028838	-0.263233
O88	O	-0.214622	-0.528838	0.236767
O89	O	-0.714680	-0.840897	-0.075132
O90	O	-0.214680	-0.340897	0.424868
C91	C	-0.473382	-0.884053	-0.118330
C92	C	0.026618	-0.384053	0.381670
C93	C	-0.446651	-0.934847	-0.169148
C94	C	0.053349	-0.434847	0.330852
C95	C	-0.473331	-0.985648	-0.219976
C96	C	0.026669	-0.485648	0.280024
C97	C	-0.393237	-0.934836	-0.169145
C98	C	0.106763	-0.434836	0.330855
C99	C	-0.366556	-0.884036	-0.118318
C100	C	0.133444	-0.384036	0.381682
C101	C	-0.393289	-0.833245	-0.067493
C102	C	0.106711	-0.333245	0.432507
C103	C	-0.446701	-0.833252	-0.067502
C104	C	0.053299	-0.333252	0.432498
C105	C	-0.446598	-1.036438	-0.270800
C106	C	0.053402	-0.536438	0.229200
C107	C	-0.393186	-1.036427	-0.270788
C108	C	0.106814	-0.536427	0.229212
C109	C	-0.366506	-0.985626	-0.219960
C110	C	0.133494	-0.485626	0.280040
N111	N	0.120705	-0.934910	-0.169227
N112	N	0.620705	-0.434910	0.330773
C113	C	-0.000064	-1.078042	-0.172997
C114	C	0.499936	-0.578042	0.327003
C115	C	-0.000066	-1.165325	-0.180345
C116	C	0.499934	-0.665325	0.319655
C117	C	-0.000039	-0.658752	-0.225479
C118	C	0.499961	-0.158752	0.274521
C119	C	-0.000046	-0.576740	-0.218570
C120	C	0.499954	-0.076740	0.281430
C121	C	-0.000052	-0.540339	-0.144197
C122	C	0.499948	-0.040339	0.355803
C123	C	-0.000055	-0.585954	-0.076728
C124	C	0.499945	-0.085954	0.423272
C125	C	-0.000052	-0.667965	-0.083638
C126	C	0.499948	-0.167965	0.416362
C127	C	-0.000066	-0.292951	-0.119786
C128	C	0.499934	0.207049	0.380214
C129	C	-0.000068	-0.210935	-0.112882
C130	C	0.499932	0.289065	0.387118
C131	C	-0.000060	-0.201726	-0.254725
C132	C	0.499940	0.298274	0.245275
C133	C	-0.000054	-0.283739	-0.261628
C134	C	0.499946	0.216261	0.238372
C135	C	-0.000060	-0.329347	-0.194159
C136	C	0.499940	0.170653	0.305841
C137	C	-0.000058	-0.456510	-0.137133
C138	C	0.499942	0.043490	0.362867
C139	C	-0.000058	-0.413174	-0.201224
C140	C	0.499942	0.086826	0.298776
C141	C	-0.000051	-0.938660	-0.312379
C142	C	0.499949	-0.438660	0.187621
C143	C	-0.000048	-0.946008	-0.399663
C144	C	0.499952	-0.446008	0.100337
C145	C	-0.000064	-0.991142	0.106911
C146	C	0.499936	-0.491142	0.606911
C147	C	-0.000059	-0.984233	0.188923
C148	C	0.499941	-0.484233	0.688923
C149	C	-0.000052	-0.909860	0.225324
C150	C	0.499948	-0.409860	0.725324
C151	C	-0.000046	-0.842391	0.179708
C152	C	0.499954	-0.342391	0.679708
C153	C	-0.000047	-0.849301	0.097698
C154	C	0.499953	-0.349301	0.597698
C155	C	-0.000043	-0.885449	0.472712
C156	C	0.499957	-0.385449	0.972712
C157	C	-0.000043	-0.878545	0.554728
C158	C	0.499957	-0.378545	1.054728
C159	C	-0.000056	-1.020387	0.563937
C160	C	0.499944	-0.520387	1.063937
C161	C	-0.000060	-1.027291	0.481924
C162	C	0.499940	-0.527291	0.981924
C163	C	-0.000051	-0.959822	0.436316
C164	C	0.499949	-0.459822	0.936316
C165	C	-0.000048	-0.902796	0.309153
C166	C	0.499952	-0.402796	0.809153
C167	C	-0.000051	-0.966886	0.352489
C168	C	0.499949	-0.466886	0.852489
H169	H	-0.874376	-0.842739	-0.077014
H170	H	-0.374376	-0.342739	0.422986
F171	F	-0.475143	-0.779184	-0.013410
F172	F	0.024857	-0.279184	0.486590
F173	F	-0.000065	-1.092187	0.612482
F174	F	0.499935	-0.592187	1.112482
H175	H	-0.628695	-0.791908	-0.026142
H176	H	-0.128695	-0.291908	0.473858
H177	H	-0.371427	-1.077792	-0.312181
H178	H	0.128573	-0.577792	0.187819
H179	H	-0.371557	-0.791878	-0.026111
H180	H	0.128443	-0.291878	0.473889
H181	H	-0.000046	-0.817978	0.584363
H182	H	0.499954	-0.317978	1.084363
F183	F	-0.000065	-0.547211	0.002426
F184	F	0.499935	-0.047211	0.502426
H185	H	-0.000036	-0.830511	0.435587
H186	H	0.499964	-0.330511	0.935587
H187	H	-0.000044	-0.539608	-0.273507
H188	H	0.499956	-0.039608	0.226493
F189	F	-0.000076	-1.070301	0.068178
F190	F	0.499924	-0.570301	0.568178
H191	H	-0.000064	-1.039170	0.226054
H192	H	0.499936	-0.539170	0.726054
F193	F	-0.770813	-0.830029	-0.064271
F194	F	-0.270813	-0.330029	0.435729
H195	H	-0.874290	-1.027066	-0.261436
H196	H	-0.374290	-0.527066	0.238564
H197	H	-0.000053	-0.705099	-0.028702
H198	H	0.499947	-0.205099	0.471298
F199	F	-0.000055	-1.046037	0.313746
F200	F	0.499945	-0.546037	0.813746
H201	H	-0.531806	-0.791896	-0.026126
H202	H	-0.031806	-0.291896	0.473874
F203	F	-0.000039	-0.823644	0.347901
F204	F	0.499961	-0.323644	0.847901
H205	H	-0.000043	-0.794365	0.060564
H206	H	0.499957	-0.294365	0.560564
F207	F	-0.229410	-0.829930	-0.064216
F208	F	0.270590	-0.329930	0.435784
F209	F	-0.119146	-0.829922	-0.064205
F210	F	0.380854	-0.329922	0.435795
F211	F	-0.000054	-1.106449	0.443190
F212	F	0.499946	-0.606449	0.943190
F213	F	-0.474986	-1.090510	-0.324902
F214	F	0.025014	-0.590510	0.175098
F215	F	-0.000033	-0.763237	0.218451
F216	F	0.499967	-0.263237	0.718451
F217	F	-0.000045	-0.322473	-0.340786
F218	F	0.499955	0.177527	0.159214
F219	F	-0.000055	-0.153181	-0.326524
F220	F	0.499945	0.346819	0.173476
F221	F	-0.770695	-1.039767	-0.274123
F222	F	-0.270695	-0.539767	0.225877
H223	H	-0.000056	-0.442816	-0.261778
H224	H	0.499944	0.057184	0.238222
F225	F	-0.000073	-0.341480	-0.047979
F226	F	0.499927	0.158520	0.452021
F227	F	-0.635235	-1.090557	-0.324909
F228	F	-0.135235	-0.590557	0.175091
H229	H	-0.222630	-1.026971	-0.261351
H230	H	0.277370	-0.526971	0.238649
F231	F	-0.524989	-1.090524	-0.324920
F232	F	-0.024989	-0.590524	0.175080
F233	F	-0.000030	-0.697485	-0.304638
F234	F	0.499970	-0.197485	0.195362
F235	F	-0.119055	-1.039637	-0.274061
F236	F	0.380945	-0.539637	0.225939
H237	H	-0.000077	-0.426863	-0.076578
H238	H	0.499923	0.073137	0.423422
F239	F	-0.000083	-0.172196	-0.033720
F240	F	0.499917	0.327804	0.466280
