data_functionalizedCrystal
_audit_creation_method	'MofGen! by Chris Wilmer'
_symmetry_space_group_name_H-M	'P1'
_symmetry_Int_Tables_number	1
_symmetry_cell_setting	triclinic
loop_
_symmetry_equiv_pos_as_xyz
  x,y,z
_cell_length_a	6.817900
_cell_length_b	15.300992
_cell_length_c	17.110486
_cell_angle_alpha	96.160201
_cell_angle_beta	99.060439
_cell_angle_gamma	104.175078
loop_
_atom_site_label
_atom_site_type_symbol
_atom_site_fract_x
_atom_site_fract_y
_atom_site_fract_z
V1	V	-3.980315	-0.124489	-0.246958
O2	O	-3.965202	0.006259	-0.242012
O3	O	-3.935526	-0.247107	-0.245505
O4	O	-3.910117	-0.122453	-0.354557
O5	O	-3.990787	-0.119258	-0.132204
V6	V	-4.466299	-0.108865	-0.233204
O7	O	-4.236173	-0.158763	-0.277129
O8	O	-4.660638	-0.074591	-0.203033
O9	O	-4.287882	0.013753	-0.234657
O10	O	-4.598809	-0.239613	-0.238150
O11	O	-4.573224	-0.114096	-0.347957
O12	O	-4.313291	-0.110901	-0.125605
C13	C	-3.782110	-0.277003	-0.241670
C14	C	-3.826631	-0.377243	-0.241199
C15	C	-3.821592	-0.411538	-0.168489
C16	C	-3.863443	-0.505726	-0.168049
C17	C	-3.910320	-0.565617	-0.240320
C18	C	-3.915365	-0.531317	-0.313036
C19	C	-3.873528	-0.437131	-0.313475
C20	C	-4.002559	-0.727629	-0.312115
C21	C	-4.044396	-0.821821	-0.311676
C22	C	-3.992475	-0.796224	-0.166689
C23	C	-3.950638	-0.702038	-0.167128
C24	C	-3.955682	-0.667744	-0.239844
C25	C	-3.749698	-0.117993	-0.380776
C26	C	-3.773610	-0.117139	-0.468740
C27	C	-3.966264	-0.121239	-0.514106
C28	C	-3.988721	-0.120436	-0.596758
C29	C	-3.818524	-0.115541	-0.634043
C30	C	-3.625854	-0.111439	-0.588671
C31	C	-3.603396	-0.112235	-0.506020
C32	C	-3.877251	-0.112907	-0.883393
C33	C	-3.899725	-0.112114	-0.966051
C34	C	-4.262590	-0.121110	-0.974131
C35	C	-4.240119	-0.121911	-0.891479
C36	C	-4.047449	-0.117804	-0.846114
C37	C	-3.841475	-0.114723	-0.718527
C38	C	-4.024497	-0.118615	-0.761631
C39	C	-4.104640	0.043644	-0.238490
C40	C	-4.039356	0.143884	-0.238966
C41	C	-4.137053	-0.115364	-0.099382
C42	C	-4.092379	-0.116213	-0.011416
H43	H	-4.104864	-0.125231	-0.483756
Br44	Br	-3.394867	-0.104793	-0.639271
H45	H	-4.419455	-0.124452	-1.011077
Br46	Br	-4.471115	-0.128562	-0.840884
H47	H	-3.783407	-0.362780	-0.109637
H48	H	-3.988361	-0.824150	-0.107481
Br49	Br	-4.255468	-0.125255	-0.711028
Br50	Br	-3.856632	-0.552266	-0.069367
H51	H	-3.761118	-0.108124	-0.996405
H52	H	-4.006703	-0.699712	-0.371329
H53	H	-3.720387	-0.109594	-0.846471
H54	H	-3.446509	-0.108874	-0.469081
Br55	Br	-3.610509	-0.108092	-0.769137
Br56	Br	-3.979004	-0.612597	-0.411120
Br57	Br	-3.886994	-0.620757	-0.069045
Br58	Br	-4.108228	-0.903108	-0.409763
H59	H	-3.877654	-0.409211	-0.372683
H60	H	-4.145594	-0.123769	-0.633691
