data_functionalizedCrystal
_audit_creation_method	'MofGen! by Chris Wilmer'
_symmetry_space_group_name_H-M	'P1'
_symmetry_Int_Tables_number	1
_symmetry_cell_setting	triclinic
loop_
_symmetry_equiv_pos_as_xyz
  x,y,z
_cell_length_a	12.759401
_cell_length_b	12.759394
_cell_length_c	12.759401
_cell_angle_alpha	90.006940
_cell_angle_beta	90.006940
_cell_angle_gamma	90.015381
loop_
_atom_site_label
_atom_site_type_symbol
_atom_site_fract_x
_atom_site_fract_y
_atom_site_fract_z
Zn1	Zn	1.606127	-0.418407	0.594027
Zn2	Zn	1.606064	-0.594053	0.418350
Zn3	Zn	1.430469	-0.418394	0.418362
Zn4	Zn	1.430421	-0.594049	0.593987
O5	O	1.518270	-0.506226	0.506181
O6	O	1.753140	-0.441714	0.570734
O7	O	1.582765	-0.570748	0.271331
O8	O	1.453817	-0.271374	0.441686
O9	O	1.753093	-0.570761	0.441665
O10	O	1.582873	-0.271384	0.570746
O11	O	1.453756	-0.441692	0.271339
O12	O	1.283442	-0.441687	0.441648
O13	O	1.453735	-0.570754	0.741013
O14	O	1.283406	-0.570741	0.570678
O15	O	1.582826	-0.441710	0.741042
O16	O	1.582718	-0.741074	0.441627
O17	O	1.453673	-0.741071	0.570667
C18	C	1.245303	-0.506213	0.506161
C19	C	1.128526	-0.506233	0.506177
C20	C	1.073673	-0.573533	0.573257
C21	C	0.963949	-0.573537	0.573278
C22	C	0.963941	-0.438938	0.439129
C23	C	1.073663	-0.438929	0.439114
C24	C	1.518212	-0.779193	0.506164
C25	C	1.518283	-0.895970	0.506192
C26	C	1.652568	-0.895822	0.640683
C27	C	1.719743	-0.950609	0.707936
C28	C	1.719806	-1.060331	0.707959
C29	C	1.652683	-1.115268	0.640723
C30	C	1.585508	-1.060481	0.573470
C31	C	1.585455	-0.950757	0.573452
C32	C	1.451219	-1.060629	0.438986
C33	C	1.451160	-0.950907	0.438956
C34	C	1.384097	-1.115566	0.371750
C35	C	1.316925	-1.060779	0.304489
C36	C	1.316866	-0.951051	0.304469
C37	C	1.383985	-0.896121	0.371703
C38	C	1.792303	-0.506240	0.506203
C39	C	1.909080	-0.506245	0.506212
C40	C	1.518282	-0.506233	0.780215
C41	C	1.518287	-0.506236	0.896991
C42	C	1.518357	-0.232193	0.506222
C43	C	1.518395	-0.115416	0.506239
C44	C	1.585496	-0.439054	0.951870
C45	C	1.585487	-0.439052	1.061594
C46	C	1.451057	-0.573423	1.061551
C47	C	1.451061	-0.573419	0.951829
C48	C	1.518258	-0.506242	1.233214
C49	C	1.518273	-0.506238	1.116437
H50	H	0.919293	-0.628338	0.627903
O51	O	1.385861	-0.638653	1.114985
C52	C	1.326231	-0.698168	1.283998
C53	C	1.400135	-0.624257	1.223619
H54	H	1.337730	-0.686540	1.371839
H55	H	1.344653	-0.782909	1.262491
H56	H	1.241534	-0.679722	1.262351
H57	H	1.484857	-0.642609	1.245233
H58	H	1.381623	-0.539539	1.245130
O59	O	1.385738	-0.638785	0.898675
C60	C	1.252358	-0.772021	0.910202
C61	C	1.326297	-0.698073	0.970529
H62	H	1.204264	-0.819959	0.968269
H63	H	1.300527	-0.827026	0.858859
H64	H	1.197488	-0.723759	0.858803
H65	H	1.381181	-0.746250	1.021984
H66	H	1.278062	-0.643065	1.021805
H67	H	1.383948	-0.806779	0.371688
H68	H	1.118340	-0.628334	0.627867
H69	H	1.774495	-1.104938	0.762734
O70	O	1.650823	-0.373689	0.898762
C71	C	1.784196	-0.240450	0.910391
C72	C	1.710251	-0.314409	0.970662
H73	H	1.832279	-0.192518	0.968495
H74	H	1.736031	-0.185439	0.859052
H75	H	1.839075	-0.288702	0.858995
H76	H	1.655358	-0.266242	1.022115
H77	H	1.758482	-0.369422	1.021935
O78	O	1.784828	-0.897286	0.773398
C79	C	1.835722	-0.863662	0.952143
C80	C	1.761939	-0.924093	0.878126
H81	H	1.817257	-0.885329	1.036830
H82	H	1.824135	-0.775818	0.940667
H83	H	1.920457	-0.885157	0.933714
H84	H	1.677175	-0.902686	0.896509
H85	H	1.773616	-1.011922	0.889616
O86	O	0.910482	-0.373663	0.374019
C87	C	0.741446	-0.313971	0.314638
C88	C	0.801853	-0.387967	0.388411
H89	H	0.653610	-0.325494	0.326265
H90	H	0.762914	-0.332279	0.229863
H91	H	0.763105	-0.229296	0.333226
H92	H	0.780227	-0.472666	0.369919
H93	H	0.780380	-0.369568	0.473165
H94	H	1.640214	-0.384344	1.106272
H95	H	1.118325	-0.384119	0.384489
H96	H	1.652534	-0.806481	0.640661
H97	H	1.262274	-1.105518	0.249757
H98	H	1.262160	-0.906449	0.249707
H99	H	1.652731	-1.204609	0.640757
H100	H	1.384148	-1.204907	0.371777
