data_functionalizedCrystal
_audit_creation_method	'MofGen! by Chris Wilmer'
_symmetry_space_group_name_H-M	'P1'
_symmetry_Int_Tables_number	1
_symmetry_cell_setting	triclinic
loop_
_symmetry_equiv_pos_as_xyz
  x,y,z
_cell_length_a	15.944551
_cell_length_b	14.519709
_cell_length_c	13.596369
_cell_angle_alpha	89.999709
_cell_angle_beta	89.993059
_cell_angle_gamma	96.410558
loop_
_atom_site_label
_atom_site_type_symbol
_atom_site_fract_x
_atom_site_fract_y
_atom_site_fract_z
O1	O	0.110109	-1.223676	-0.081665
O2	O	0.123076	-0.955176	-0.081696
O3	O	-0.005672	-1.096758	-0.081671
O4	O	0.238856	-1.082094	-0.081690
O5	O	-0.005679	-1.096744	0.081912
O6	O	0.123069	-0.955162	0.081887
O7	O	0.110102	-1.223662	0.081917
Zn8	Zn	0.116584	-1.089410	0.107875
Zn9	Zn	0.116593	-1.089428	-0.107653
O10	O	0.238850	-1.082080	0.081893
C11	C	0.122468	-0.920810	0.000092
C12	C	0.120657	-0.818432	0.000081
C13	C	-0.036970	-1.096142	0.000121
C14	C	-0.130219	-1.094317	0.000121
C15	C	0.110710	-1.258028	0.000128
C16	C	0.112521	-1.360406	0.000132
C17	C	-0.345209	-1.002196	0.000097
C18	C	-0.406168	-1.044967	0.080758
C19	C	-0.300950	-1.091015	0.000113
C20	C	-0.406144	-1.045002	-0.080522
C21	C	-0.465867	-1.087820	0.000101
C22	C	-0.360680	-1.133811	0.080841
C23	C	-0.360650	-1.133833	-0.080512
C24	C	-0.421591	-1.176669	0.000169
C25	C	-0.205945	-1.092854	0.000121
C26	C	-0.560871	-1.085988	0.000100
C27	C	0.270148	-1.082696	0.000099
C28	C	0.363397	-1.084521	0.000092
N29	N	0.116578	-1.089404	0.254966
C30	C	0.113990	-0.443548	0.000126
C31	C	0.115842	-0.547853	0.000113
C32	C	0.117323	-0.630987	0.000102
C33	C	0.119175	-0.735298	0.000091
N34	N	0.116593	-1.089442	-0.254745
C35	C	0.116594	-1.089427	0.656257
C36	C	0.116592	-1.089418	0.544606
C37	C	0.116587	-1.089416	0.455615
C38	C	0.116584	-1.089406	0.343957
H39	H	-0.312009	-0.928471	0.000169
C40	C	-0.404917	-1.213986	0.229697
C41	C	-0.333633	-1.184476	0.173003
H42	H	-0.388217	-1.245266	0.286590
H43	H	-0.431986	-1.161795	0.248963
H44	H	-0.442887	-1.254924	0.191991
H45	H	-0.295666	-1.143532	0.210707
H46	H	-0.306551	-1.236674	0.153738
H47	H	-0.454643	-1.250458	0.000223
H48	H	-0.340463	-1.171374	-0.148699
C49	C	-0.362042	-0.963967	-0.228923
C50	C	-0.433331	-0.994285	-0.172582
H51	H	-0.378826	-0.932658	-0.285756
H52	H	-0.324448	-0.922877	-0.190940
H53	H	-0.334513	-1.015808	-0.248296
H54	H	-0.460857	-0.942443	-0.153203
H55	H	-0.470939	-1.035377	-0.210572
C56	C	-0.394465	-0.902902	0.172647
C57	C	-0.433399	-0.994249	0.172802
H58	H	-0.411279	-0.871588	0.229467
H59	H	-0.334927	-0.903205	0.173010
H60	H	-0.410797	-0.871960	0.115366
H61	H	-0.417062	-1.025193	0.230081
H62	H	-0.492950	-0.993950	0.172449
