data_functionalizedCrystal
_audit_creation_method	'MofGen! by Chris Wilmer'
_symmetry_space_group_name_H-M	'P1'
_symmetry_Int_Tables_number	1
_symmetry_cell_setting	triclinic
loop_
_symmetry_equiv_pos_as_xyz
  x,y,z
_cell_length_a	18.050590
_cell_length_b	18.050589
_cell_length_c	18.050583
_cell_angle_alpha	89.968090
_cell_angle_beta	89.999666
_cell_angle_gamma	90.017386
loop_
_atom_site_label
_atom_site_type_symbol
_atom_site_fract_x
_atom_site_fract_y
_atom_site_fract_z
Zn1	Zn	1.135301	-0.295821	-0.419624
Zn2	Zn	1.635301	0.204179	0.080376
Zn3	Zn	1.135209	-0.420034	-0.295444
Zn4	Zn	1.635209	0.079966	0.204556
Zn5	Zn	1.011117	-0.295839	-0.295482
Zn6	Zn	1.511117	0.204161	0.204518
Zn7	Zn	1.011068	-0.419950	-0.419626
Zn8	Zn	1.511068	0.080050	0.080374
O9	O	1.073174	-0.357911	-0.357544
O10	O	1.573174	0.142089	0.142456
O11	O	1.239213	-0.312326	-0.403134
O12	O	1.739213	0.187674	0.096866
O13	O	1.118730	-0.403602	-0.191524
O14	O	1.618730	0.096398	0.308476
O15	O	1.027650	-0.191912	-0.311965
O16	O	1.527650	0.308088	0.188035
O17	O	1.239146	-0.403585	-0.311899
O18	O	1.739146	0.096415	0.188101
O19	O	1.118886	-0.191899	-0.403172
O20	O	1.618886	0.308101	0.096828
O21	O	1.027561	-0.312356	-0.191553
O22	O	1.527561	0.187644	0.308447
O23	O	0.907186	-0.312275	-0.311967
O24	O	1.407186	0.187725	0.188033
O25	O	1.027565	-0.403442	-0.523551
O26	O	1.527565	0.096558	-0.023551
O27	O	0.907150	-0.403459	-0.403175
O28	O	1.407150	0.096541	0.096825
O29	O	1.118838	-0.312245	-0.523549
O30	O	1.618838	0.187755	-0.023549
O31	O	1.118682	-0.523948	-0.311901
O32	O	1.618682	-0.023948	0.188099
O33	O	1.027476	-0.523886	-0.403138
O34	O	1.527476	-0.023886	0.096862
C35	C	0.880221	-0.357860	-0.357576
C36	C	1.380221	0.142140	0.142424
C37	C	0.797676	-0.357857	-0.357607
C38	C	1.297676	0.142143	0.142393
C39	C	0.598227	-0.407584	-0.407088
C40	C	1.098227	0.092416	0.092912
C41	C	0.548834	-0.339865	-0.425358
C42	C	1.048834	0.160135	0.074642
C43	C	0.646545	-0.357898	-0.357571
C44	C	1.146545	0.142102	0.142429
C45	C	0.548856	-0.425656	-0.339300
C46	C	1.048856	0.074344	0.160700
C47	C	0.500560	-0.357944	-0.357537
C48	C	1.000560	0.142056	0.142463
C49	C	0.598240	-0.290143	-0.375876
C50	C	1.098240	0.209857	0.124124
C51	C	0.598267	-0.375979	-0.289787
C52	C	1.098267	0.124021	0.210213
C53	C	0.548896	-0.308213	-0.308031
C54	C	1.048896	0.191787	0.191969
C55	C	0.730644	-0.357872	-0.357592
C56	C	1.230644	0.142128	0.142408
C57	C	0.416464	-0.357962	-0.357516
C58	C	0.916464	0.142038	0.142484
C59	C	1.073084	-0.550863	-0.357532
C60	C	1.573084	-0.050863	0.142468
C61	C	1.073114	-0.633409	-0.357551
C62	C	1.573114	-0.133409	0.142449
C63	C	1.023565	-0.832853	-0.407148
C64	C	1.523565	-0.332853	0.092852
C65	C	1.005465	-0.882300	-0.339386
C66	C	1.505465	-0.382300	0.160614
C67	C	1.073186	-0.784539	-0.357561
C68	C	1.573186	-0.284539	0.142439
C69	C	1.091322	-0.882174	-0.425331
C70	C	1.591322	-0.382174	0.074669
C71	C	1.073256	-0.930524	-0.357576
C72	C	1.573256	-0.430524	0.142424
C73	C	1.055052	-0.832899	-0.289763
C74	C	1.555052	-0.332899	0.210237
C75	C	1.140940	-0.832769	-0.375754
C76	C	1.640940	-0.332769	0.124246
C77	C	1.122867	-0.882193	-0.307945
C78	C	1.622867	-0.382193	0.192055
C79	C	1.073145	-0.700441	-0.357553
C80	C	1.573145	-0.200441	0.142447
C81	C	1.073297	-1.014621	-0.357576
C82	C	1.573297	-0.514621	0.142424
C83	C	1.266879	-0.357963	-0.357512
C84	C	1.766879	0.142037	0.142488
C85	C	1.349425	-0.357984	-0.357499
C86	C	1.849425	0.142016	0.142501
C87	C	1.073206	-0.357832	-0.551250
C88	C	1.573206	0.142168	-0.051250
C89	C	1.073220	-0.357798	-0.633796
C90	C	1.573220	0.142202	-0.133796
C91	C	1.073284	-0.164205	-0.357573
C92	C	1.573284	0.335795	0.142427
C93	C	1.073331	-0.081660	-0.357585
C94	C	1.573331	0.418340	0.142415
C95	C	1.122905	-0.308181	-0.833246
C96	C	1.622905	0.191819	-0.333246
C97	C	1.055171	-0.289992	-0.882658
C98	C	1.555171	0.210008	-0.382658
C99	C	1.073250	-0.357785	-0.784926
C100	C	1.573250	0.142215	-0.284926
C101	C	1.141011	-0.375927	-0.882596
C102	C	1.641011	0.124073	-0.382596
C103	C	1.073285	-0.357772	-0.930911
C104	C	1.573285	0.142228	-0.430911
C105	C	1.005481	-0.339561	-0.833251
C106	C	1.505481	0.160439	-0.333251
C107	C	1.091366	-0.425528	-0.833185
C108	C	1.591366	0.074472	-0.333185
C109	C	1.023586	-0.407365	-0.882574
C110	C	1.523586	0.092635	-0.382574
C111	C	1.073231	-0.357791	-0.700828
C112	C	1.573231	0.142209	-0.200828
C113	C	1.073296	-0.357766	-1.015008
C114	C	1.573296	0.142234	-0.515008
C115	C	1.073184	-0.357936	-0.164592
C116	C	1.573184	0.142064	0.335408
C117	C	1.073314	-0.357761	-0.082047
C118	C	1.573314	0.142239	0.417953
H119	H	0.981539	-0.811188	-0.449023
H120	H	1.481539	-0.311188	0.050977
H121	H	0.619841	-0.232843	-0.391380
H122	H	1.119841	0.267157	0.108620
H123	H	0.981562	-0.449308	-0.904097
H124	H	1.481562	0.050692	-0.404097
H125	H	0.527121	-0.324587	-0.482668
H126	H	1.027121	0.175413	0.017332
H127	H	0.527372	-0.266166	-0.266142
H128	H	1.027372	0.233834	0.233858
O129	O	1.109786	-0.493837	-0.807269
O130	O	1.609786	0.006163	-0.307269
C131	C	1.181276	-0.512767	-0.832381
C132	C	1.681276	-0.012767	-0.332381
H133	H	1.213350	-0.460148	-0.846271
H134	H	1.713350	0.039852	-0.346271
H135	H	1.211708	-0.544670	-0.787151
H136	H	1.711708	-0.044670	-0.287151
H137	H	1.176581	-0.548790	-0.884027
H138	H	1.676581	-0.048790	-0.384027
H139	H	0.619996	-0.391278	-0.232494
H140	H	1.119996	0.108722	0.267506
H141	H	1.164860	-0.903721	-0.265968
H142	H	1.664860	-0.403721	0.234032
O143	O	1.209205	-0.806666	-0.394083
O144	O	1.709205	-0.306666	0.105917
C145	C	1.208363	-0.728567	-0.393166
C146	C	1.708363	-0.228567	0.106834
H147	H	1.161421	-0.708492	-0.356009
H148	H	1.661421	-0.208492	0.143991
H149	H	1.263463	-0.707173	-0.370912
H150	H	1.763463	-0.207173	0.129088
H151	H	1.199526	-0.706881	-0.451834
H152	H	1.699526	-0.206881	0.048166
O153	O	0.522935	-0.494010	-0.321004
O154	O	1.022935	0.005990	0.178996
C155	C	0.478851	-0.521578	-0.379287
C156	C	0.978851	-0.021578	0.120713
H157	H	0.494924	-0.492882	-0.433220
H158	H	0.994924	0.007118	0.066780
H159	H	0.488010	-0.583801	-0.384977
H160	H	0.988010	-0.083801	0.115023
H161	H	0.417973	-0.510344	-0.366793
H162	H	0.917973	-0.010344	0.133207
O163	O	1.036787	-0.221693	-0.908638
O164	O	1.536787	0.278307	-0.408638
C165	C	0.971770	-0.226807	-0.951624
C166	C	1.471770	0.273193	-0.451624
H167	H	0.939373	-0.278342	-0.934737
H168	H	1.439373	0.221658	-0.434737
H169	H	0.936172	-0.175523	-0.942147
H170	H	1.436172	0.324477	-0.442147
H171	H	0.987189	-0.230691	-1.012745
H172	H	1.487189	0.269309	-0.512745
H173	H	1.198301	-0.391276	-0.904274
H174	H	1.698301	0.108724	-0.404274
H175	H	0.948201	-0.904073	-0.324012
H176	H	1.448201	-0.404073	0.175988
H177	H	0.619889	-0.449529	-0.449011
H178	H	1.119889	0.050471	0.050989
O179	O	1.036682	-0.807066	-0.221429
O180	O	1.536682	-0.307066	0.278571
C181	C	1.036855	-0.728959	-0.222250
C182	C	1.536855	-0.228959	0.277750
H183	H	1.028548	-0.708482	-0.281423
H184	H	1.528548	-0.208482	0.218577
H185	H	0.990021	-0.707452	-0.185764
H186	H	1.490021	-0.207452	0.314236
H187	H	1.092133	-0.707785	-0.200225
H188	H	1.592133	-0.207785	0.299775
H189	H	1.106634	-0.903819	-0.482637
H190	H	1.606634	-0.403819	0.017363
H191	H	1.164827	-0.266206	-0.811584
H192	H	1.664827	0.233794	-0.311584
H193	H	0.948174	-0.324144	-0.811666
H194	H	1.448174	0.175856	-0.311666
