data_functionalizedCrystal
_audit_creation_method	'MofGen! by Chris Wilmer'
_symmetry_space_group_name_H-M	'P1'
_symmetry_Int_Tables_number	1
_symmetry_cell_setting	triclinic
loop_
_symmetry_equiv_pos_as_xyz
  x,y,z
_cell_length_a	12.811457
_cell_length_b	17.038278
_cell_length_c	11.892095
_cell_angle_alpha	94.163889
_cell_angle_beta	91.498327
_cell_angle_gamma	87.561795
loop_
_atom_site_label
_atom_site_type_symbol
_atom_site_fract_x
_atom_site_fract_y
_atom_site_fract_z
O1	O	1.398771	0.107946	0.049373
O2	O	1.096281	0.117760	0.018359
O3	O	1.245727	-0.000977	0.033711
O4	O	1.249324	0.226683	0.034022
O5	O	1.233265	0.008908	0.220438
O6	O	1.083819	0.127644	0.205086
O7	O	1.386309	0.117831	0.236101
Zn8	Zn	1.233085	0.124307	0.250241
Zn9	Zn	1.249504	0.111283	0.004219
O10	O	1.236862	0.236567	0.220749
C11	C	1.051154	0.121849	0.107735
C12	C	0.935258	0.119299	0.095854
C13	C	0.703890	0.125269	0.277120
C14	C	0.594995	0.122872	0.265962
C15	C	0.608572	0.112104	0.062381
C16	C	0.717467	0.114500	0.073539
C17	C	0.765122	0.121084	0.180912
C18	C	0.874018	0.123486	0.192069
C19	C	0.887594	0.112712	-0.011511
C20	C	0.778699	0.110316	-0.022669
C21	C	1.236226	-0.025192	0.126744
C22	C	1.226469	-0.112071	0.125758
C23	C	1.166542	-0.603021	0.119511
C24	C	1.175716	-0.521388	0.120462
C25	C	1.274469	-0.489076	0.130603
C26	C	1.364054	-0.538401	0.139781
C27	C	1.354880	-0.620032	0.138821
C28	C	1.306881	-0.243027	0.133977
C29	C	1.316048	-0.161389	0.134939
C30	C	1.127709	-0.144383	0.115618
C31	C	1.118543	-0.226016	0.114666
C32	C	1.208129	-0.275334	0.123838
C33	C	1.283848	-0.405634	0.131579
C34	C	1.198749	-0.358775	0.122854
C35	C	1.431435	0.113741	0.146722
C36	C	1.547332	0.116291	0.158596
C37	C	1.246363	0.260782	0.127713
C38	C	1.256121	0.347660	0.128691
N39	N	1.221887	0.133195	0.418144
N40	N	1.260710	0.102390	-0.163684
C41	C	1.338628	0.040500	0.666784
C42	C	1.330808	0.046718	0.784323
C43	C	1.198424	0.151845	0.770762
C44	C	1.206244	0.145627	0.653223
C45	C	1.276349	0.089953	0.601239
C46	C	1.284173	0.083739	0.483698
C47	C	1.151784	0.188862	0.470140
C48	C	1.143965	0.195080	0.587678
H49	H	0.912816	0.128851	0.279498
H50	H	1.086884	0.240406	0.630017
H51	H	0.545143	0.126284	0.344305
Br52	Br	0.543887	0.103084	-0.083327
H53	H	1.395717	-0.004826	0.624458
H54	H	1.444461	-0.512085	0.148040
H55	H	0.742690	0.130640	0.364548
Br56	Br	1.103272	0.227387	0.841322
Br57	Br	0.714018	0.101350	-0.168382
Br58	Br	1.476457	-0.686967	0.151269
Br59	Br	1.064732	-0.402630	0.109080
H60	H	0.937461	0.109309	-0.089851
H61	H	1.364251	-0.379314	0.139873
Br62	Br	1.415328	-0.020403	0.873275
Br63	Br	1.032513	-0.646865	0.105761
H64	H	1.101076	0.229132	0.416759
H65	H	1.341258	0.038409	0.441374
Br66	Br	0.984516	-0.269863	0.100904
H67	H	1.102771	-0.481236	0.112983
H68	H	1.054773	-0.104219	0.108150
Br69	Br	1.428462	-0.309949	0.146434
Br70	Br	1.450076	-0.117535	0.148740
