data_functionalizedCrystal
_audit_creation_method	'MofGen! by Chris Wilmer'
_symmetry_space_group_name_H-M	'P1'
_symmetry_Int_Tables_number	1
_symmetry_cell_setting	triclinic
loop_
_symmetry_equiv_pos_as_xyz
  x,y,z
_cell_length_a	27.732064
_cell_length_b	27.731996
_cell_length_c	9.798715
_cell_angle_alpha	89.990899
_cell_angle_beta	90.003961
_cell_angle_gamma	82.635407
loop_
_atom_site_label
_atom_site_type_symbol
_atom_site_fract_x
_atom_site_fract_y
_atom_site_fract_z
O1	O	0.640911	0.057556	-0.113265
O2	O	0.500117	0.066293	-0.113324
O3	O	0.574900	-0.008474	-0.113263
O4	O	0.566128	0.132323	-0.113326
O5	O	0.574894	-0.008474	0.113719
O6	O	0.500111	0.066293	0.113659
O7	O	0.640905	0.057555	0.113717
Zn8	Zn	0.570507	0.061924	0.149726
Zn9	Zn	0.570515	0.061924	-0.149333
O10	O	0.566122	0.132322	0.113657
C11	C	0.482107	0.066108	0.000160
C12	C	0.428453	0.065552	0.000139
C13	C	0.574717	-0.026482	0.000233
C14	C	0.574174	-0.080138	0.000246
C15	C	0.051389	0.017584	0.000238
C16	C	0.253049	0.019630	0.000202
O17	O	0.284309	-0.017592	0.000270
N18	N	0.272168	0.063966	0.000176
C19	C	0.240869	0.107793	0.000168
O20	O	0.261758	0.145549	0.000160
C21	C	0.039210	0.105746	0.000215
C22	C	0.020094	0.061407	0.000227
C23	C	0.032272	-0.026751	0.000252
C24	C	-0.018140	-0.027262	0.000254
C25	C	-0.049435	0.016562	0.000242
C26	C	-0.030318	0.060896	0.000228
C27	C	0.007912	0.149572	0.000217
C28	C	-0.042506	0.149057	0.000232
C29	C	-0.061622	0.104718	0.000244
C30	C	-0.112026	0.104209	0.000218
N31	N	-0.131145	0.059873	0.000244
C32	C	-0.099849	0.016050	0.000256
C33	C	0.346743	0.108864	0.000142
C34	C	0.397158	0.109376	0.000128
C35	C	0.409334	0.021213	0.000164
C36	C	0.358919	0.020702	0.000168
C37	C	0.327624	0.064529	0.000167
C38	C	-0.205719	0.014980	0.000258
C39	C	-0.256136	0.014473	0.000254
C40	C	-0.268308	0.102635	0.000225
C41	C	-0.217895	0.103142	0.000222
C42	C	-0.186601	0.059311	0.000243
O43	O	-0.143313	0.141411	0.000166
O44	O	-0.120748	-0.021702	0.000295
C45	C	0.101801	0.018095	0.000237
C46	C	0.120918	0.062430	0.000223
C47	C	0.089623	0.106253	0.000211
C48	C	0.171332	0.062941	0.000209
C49	C	0.202628	0.019118	0.000221
C50	C	0.183508	-0.025218	0.000247
C51	C	0.133096	-0.025729	0.000249
C52	C	0.108742	0.150589	0.000186
C53	C	0.159154	0.151096	0.000182
C54	C	0.190450	0.107273	0.000194
C55	C	0.570762	-0.412854	-0.123550
C56	C	0.568701	-0.614513	-0.123575
O57	O	0.568416	-0.640583	-0.228801
N58	N	0.568442	-0.639730	0.000152
C59	C	0.568695	-0.614529	0.123894
O60	O	0.568423	-0.640604	0.229130
C61	C	0.570753	-0.412871	0.123917
C62	C	0.571017	-0.387657	0.000183
C63	C	0.571026	-0.387640	-0.247274
C64	C	0.571543	-0.337229	-0.247267
C65	C	0.571798	-0.312032	-0.123535
C66	C	0.571535	-0.337246	0.000190
C67	C	0.571002	-0.387671	0.247658
C68	C	0.571516	-0.337253	0.247653
C69	C	0.571779	-0.312039	0.123918
C70	C	0.572307	-0.261637	0.123930
N71	N	0.572566	-0.236420	0.000203
C72	C	0.572311	-0.261617	-0.123529
C73	C	0.567616	-0.720402	0.123873
C74	C	0.567103	-0.770817	0.123867
C75	C	0.567108	-0.770797	-0.123602
C76	C	0.567625	-0.720382	-0.123595
C77	C	0.567875	-0.695185	0.000146
C78	C	0.573399	-0.155750	-0.123504
C79	C	0.573919	-0.105335	-0.123486
C80	C	0.573912	-0.105359	0.123982
C81	C	0.573394	-0.155770	0.123965
C82	C	0.573137	-0.180964	0.000210
O83	O	0.572587	-0.235535	0.229101
O84	O	0.572573	-0.235532	-0.228750
C85	C	0.570244	-0.463265	-0.123557
C86	C	0.569981	-0.488479	0.000168
C87	C	0.570235	-0.463282	0.123900
C88	C	0.569467	-0.538894	0.000162
C89	C	0.569213	-0.564091	-0.123570
C90	C	0.569472	-0.538874	-0.247297
C91	C	0.569990	-0.488463	-0.247289
C92	C	0.569977	-0.488499	0.247626
C93	C	0.569459	-0.538911	0.247609
C94	C	0.569205	-0.564108	0.123877
C95	C	0.658915	0.057740	0.000230
C96	C	0.712569	0.058296	0.000242
C97	C	0.566305	0.150330	0.000158
C98	C	0.566848	0.203986	0.000135
N99	N	0.570506	0.061924	0.353826
N100	N	0.570520	0.061921	-0.353432
C101	C	0.601907	0.030395	0.421628
C102	C	0.601915	0.030393	0.578791
H103	H	-0.271697	-0.021635	0.000260
H104	H	-0.293798	0.138315	0.000209
H105	H	-0.033699	-0.063367	0.000269
H106	H	0.571712	-0.316739	0.348420
H107	H	0.543626	0.088914	0.412128
F108	F	0.573125	-0.182557	-0.255217
H109	H	-0.180245	-0.020712	0.000275
H110	H	0.566901	-0.791321	-0.224349
F111	F	0.569204	-0.565700	-0.378982
F112	F	0.637058	-0.004888	0.654999
H113	H	0.174713	0.187204	0.000163
F114	F	0.065573	-0.073398	0.000268
F115	F	0.112758	-0.072920	0.000256
H116	H	0.570184	-0.467989	0.348386
F117	F	0.569181	-0.565740	0.379314
H118	H	0.543636	0.088917	0.588269
H119	H	-0.067984	0.184746	0.000238
H120	H	0.343358	-0.015402	0.000179
H121	H	0.434824	-0.014470	0.000168
F122	F	0.417497	0.156567	0.000089
H123	H	0.321266	0.144555	0.000139
H124	H	0.023467	0.185677	0.000201
F125	F	0.216824	-0.071858	0.000254
F126	F	0.570720	-0.414494	0.379356
F127	F	0.636955	-0.004971	0.345428
H128	H	0.083265	0.186276	0.000178
F129	F	-0.197550	0.150332	0.000191
F130	F	0.570754	-0.414449	-0.378979
F131	F	0.574202	-0.078503	-0.255187
F132	F	0.571821	-0.310400	-0.378964
H133	H	0.567839	-0.699856	-0.224351
F134	F	0.566830	-0.797647	0.255563
F135	F	0.573122	-0.182607	0.255656
H136	H	0.574121	-0.084835	0.224722
H137	H	0.567822	-0.699892	0.224643
F138	F	0.570270	-0.461634	-0.378986
