data_functionalizedCrystal
_audit_creation_method	'MofGen! by Chris Wilmer'
_symmetry_space_group_name_H-M	'P1'
_symmetry_Int_Tables_number	1
_symmetry_cell_setting	triclinic
loop_
_symmetry_equiv_pos_as_xyz
  x,y,z
_cell_length_a	6.817900
_cell_length_b	17.078472
_cell_length_c	11.102193
_cell_angle_alpha	95.114488
_cell_angle_beta	108.604059
_cell_angle_gamma	99.306020
loop_
_atom_site_label
_atom_site_type_symbol
_atom_site_fract_x
_atom_site_fract_y
_atom_site_fract_z
V1	V	-4.064552	-0.109773	-0.396130
O2	O	-4.072802	0.005269	-0.388720
O3	O	-3.995176	-0.217656	-0.393294
O4	O	-4.042048	-0.108087	-0.568953
O5	O	-4.025605	-0.105058	-0.211845
V6	V	-4.547543	-0.096012	-0.374103
O7	O	-4.326979	-0.139958	-0.444447
O8	O	-4.735314	-0.065827	-0.325786
O9	O	-4.393713	0.011870	-0.376939
O10	O	-4.656690	-0.211054	-0.381513
O11	O	-4.703887	-0.100727	-0.558388
O12	O	-4.346841	-0.097698	-0.201280
C13	C	-3.834236	-0.243955	-0.387013
C14	C	-3.858972	-0.332151	-0.385846
C15	C	-4.052871	-0.377626	-0.391633
C16	C	-4.076105	-0.460496	-0.390544
C17	C	-3.905433	-0.497887	-0.383660
C18	C	-3.711520	-0.452406	-0.377877
C19	C	-3.688293	-0.369539	-0.378975
C20	C	-3.955357	-0.745291	-0.379706
C21	C	-3.978598	-0.828164	-0.378605
C22	C	-4.343183	-0.836248	-0.391275
C23	C	-4.319935	-0.753378	-0.392364
C24	C	-4.126029	-0.707905	-0.386588
N25	N	-3.929175	-0.582593	-0.382543
N26	N	-4.102293	-0.623202	-0.387714
C27	C	-3.894025	-0.104188	-0.611082
C28	C	-3.956769	-0.103524	-0.752365
C29	C	-4.014932	-0.248835	-0.788523
C30	C	-4.073484	-0.321175	-0.872975
C31	C	-4.132439	-0.320546	-1.005721
C32	C	-4.132847	-0.247569	-1.054017
C33	C	-4.074295	-0.175229	-0.969566
C34	C	-4.015336	-0.175866	-0.836818
C35	C	-4.016148	-0.029920	-0.933408
C36	C	-3.957177	-0.030547	-0.800661
C37	C	-4.016556	0.043057	-0.981705
C38	C	-3.957989	0.115399	-0.897252
C39	C	-3.899029	0.114767	-0.764498
C40	C	-3.898626	0.041793	-0.716209
C41	C	-4.217994	0.038166	-0.383217
C42	C	-4.172497	0.126360	-0.384392
C43	C	-4.158205	-0.101600	-0.159145
C44	C	-4.074699	-0.102260	-0.017860
H45	H	-4.458923	-0.722941	-0.397979
C46	C	-4.257143	0.079769	-1.168119
C47	C	-4.081376	0.043747	-1.127622
H48	H	-4.297163	0.080191	-1.258204
H49	H	-4.222320	0.133290	-1.124743
H50	H	-4.371161	0.050246	-1.148891
H51	H	-3.967352	0.073273	-1.146842
H52	H	-4.116190	-0.009783	-1.171013
H53	H	-4.073151	-0.380592	-0.833638
H54	H	-3.958341	0.174811	-0.936587
H55	H	-4.233996	-0.497519	-0.395258
C56	C	-3.782849	0.178329	-0.544953
C57	C	-3.834683	0.194287	-0.671671
H58	H	-3.743141	0.227423	-0.487652
H59	H	-3.668493	0.150921	-0.526492
H60	H	-3.901778	0.145830	-0.534774
H61	H	-3.715748	0.226781	-0.681852
H62	H	-3.949049	0.221707	-0.690138
H63	H	-3.850608	0.041272	-0.608121
C64	C	-3.622811	-0.836102	-0.257727
C65	C	-3.790984	-0.869269	-0.371039
H66	H	-3.506993	-0.861477	-0.253059
H67	H	-3.666133	-0.844093	-0.185714
H68	H	-3.581235	-0.780243	-0.257574
H69	H	-3.832571	-0.925128	-0.371187
H70	H	-3.747658	-0.861285	-0.443071
C71	C	-3.665556	-0.636735	-0.263827
C72	C	-3.742204	-0.695314	-0.373330
H73	H	-3.533960	-0.605878	-0.259892
H74	H	-3.646834	-0.661986	-0.189231
H75	H	-3.763884	-0.602607	-0.268107
H76	H	-3.643883	-0.729447	-0.369046
H77	H	-3.760915	-0.670063	-0.447944
H78	H	-3.530404	-0.332514	-0.374268
C79	C	-4.186092	-0.278445	-0.290464
C80	C	-4.240480	-0.336528	-0.399195
H81	H	-4.301926	-0.253078	-0.295134
H82	H	-4.067307	-0.239504	-0.287183
H83	H	-4.152191	-0.303365	-0.215334
H84	H	-4.274366	-0.311606	-0.474325
H85	H	-4.359302	-0.375474	-0.402489
H86	H	-4.501055	-0.873281	-0.395978
H87	H	-3.966899	-0.249354	-0.680434
H88	H	-3.572561	-0.482858	-0.372279
H89	H	-4.180119	-0.379452	-1.074484
H90	H	-4.180880	-0.247064	-1.162109
