data_functionalizedCrystal
_audit_creation_method	'MofGen! by Chris Wilmer'
_symmetry_space_group_name_H-M	'P1'
_symmetry_Int_Tables_number	1
_symmetry_cell_setting	triclinic
loop_
_symmetry_equiv_pos_as_xyz
  x,y,z
_cell_length_a	10.654541
_cell_length_b	17.699083
_cell_length_c	16.176319
_cell_angle_alpha	90.007696
_cell_angle_beta	89.993951
_cell_angle_gamma	96.116529
loop_
_atom_site_label
_atom_site_type_symbol
_atom_site_fract_x
_atom_site_fract_y
_atom_site_fract_z
O1	O	1.665988	-0.106296	-0.068723
O2	O	2.165988	0.393704	0.431277
O3	O	1.300332	-0.116426	-0.068730
O4	O	1.800332	0.383574	0.431270
O5	O	1.493491	-0.001237	-0.068719
O6	O	1.993491	0.498763	0.431281
O7	O	1.472829	-0.221484	-0.068734
O8	O	1.972829	0.278516	0.431266
O9	O	1.493464	-0.001230	0.068774
O10	O	1.993464	0.498770	0.568774
O11	O	1.300305	-0.116418	0.068763
O12	O	1.800305	0.383582	0.568763
O13	O	1.665962	-0.106288	0.068770
O14	O	2.165962	0.393712	0.568770
Cu15	Cu	1.483131	-0.111352	0.081321
Cu16	Cu	1.983131	0.388648	0.581321
Cu17	Cu	1.483162	-0.111361	-0.081281
Cu18	Cu	1.983162	0.388639	0.418719
O19	O	1.472803	-0.221477	0.068759
O20	O	1.972803	0.278523	0.568759
C21	C	1.253534	-0.115678	0.000015
C22	C	1.753534	0.384322	0.500015
C23	C	1.114129	-0.113454	0.000013
C24	C	1.614129	0.386546	0.500013
N25	N	1.483118	-0.111346	0.195686
N26	N	1.983118	0.388654	0.695686
C27	C	1.492737	0.026968	0.000027
C28	C	1.992737	0.526968	0.500027
C29	C	1.490516	0.111001	0.000028
C30	C	1.990516	0.611001	0.500028
C31	C	1.083747	-0.251193	-0.000007
C32	C	1.583747	0.248807	0.499993
C33	C	1.003066	-0.319015	-0.000020
C34	C	1.503066	0.180985	0.499980
C35	C	0.872084	-0.316920	-0.000021
C36	C	1.372084	0.183080	0.499979
C37	C	0.821783	-0.246997	-0.000006
C38	C	1.321783	0.253003	0.499994
C39	C	0.902464	-0.179175	0.000007
C40	C	1.402464	0.320825	0.500007
C41	C	1.033447	-0.181277	0.000005
C42	C	1.533447	0.318723	0.500005
C43	C	0.932846	-0.041438	0.000033
C44	C	1.432846	0.458562	0.500033
C45	C	1.063828	-0.043531	0.000028
C46	C	1.563828	0.456469	0.500028
C47	C	0.882545	0.028485	0.000048
C48	C	1.382545	0.528485	0.500048
C49	C	0.963227	0.096308	0.000055
C50	C	1.463227	0.596308	0.500055
C51	C	1.094215	0.094211	0.000055
C52	C	1.594215	0.594211	0.500055
C53	C	1.144509	0.024291	0.000041
C54	C	1.644509	0.524291	0.500041
C55	C	1.712760	-0.107035	0.000023
C56	C	2.212760	0.392965	0.500023
C57	C	1.852165	-0.109260	0.000020
C58	C	2.352165	0.390740	0.500020
C59	C	1.473556	-0.249682	0.000010
C60	C	1.973556	0.250318	0.500010
C61	C	1.475777	-0.333714	0.000005
C62	C	1.975777	0.166286	0.500005
C63	C	1.603896	0.158901	0.000031
C64	C	2.103896	0.658901	0.500031
C65	C	1.601802	0.237858	0.000024
C66	C	2.101802	0.737858	0.500024
C67	C	1.486326	0.268912	0.000019
C68	C	1.986326	0.768912	0.500019
C69	C	1.372937	0.221005	0.000013
C70	C	1.872937	0.721005	0.500013
C71	C	1.375033	0.142050	0.000014
C72	C	1.875033	0.642050	0.500014
C73	C	1.364483	0.539422	0.000006
C74	C	1.864483	1.039422	0.500006
C75	C	1.362396	0.618383	0.000007
C76	C	1.862396	1.118383	0.500007
C77	C	1.591252	0.635230	0.000016
C78	C	2.091252	1.135230	0.500016
C79	C	1.593348	0.556275	0.000017
C80	C	2.093348	1.056275	0.500017
C81	C	1.479960	0.508375	0.000007
C82	C	1.979960	1.008375	0.500007
C83	C	1.482232	0.422761	0.000013
C84	C	1.982232	0.922761	0.500013
C85	C	1.484052	0.354524	0.000018
C86	C	1.984052	0.854524	0.500018
N87	N	1.483185	-0.111362	-0.195646
N88	N	1.983185	0.388638	0.304354
C89	C	1.568675	-0.060362	0.238955
C90	C	2.068675	0.439638	0.738955
C91	C	1.568681	-0.060361	0.325502
C92	C	2.068681	0.439639	0.825502
C93	C	1.483136	-0.111348	0.368778
C94	C	1.983136	0.388652	0.868778
C95	C	1.397570	-0.162335	0.325503
C96	C	1.897570	0.337665	0.825503
C97	C	1.397559	-0.162332	0.238958
C98	C	1.897559	0.337668	0.738958
C99	C	1.397613	-0.162350	0.674532
C100	C	1.897613	0.337650	1.174532
C101	C	1.397634	-0.162351	0.761083
C102	C	1.897634	0.337649	1.261083
C103	C	1.568735	-0.060379	0.761076
C104	C	2.068735	0.439621	1.261076
C105	C	1.568724	-0.060375	0.674530
C106	C	2.068724	0.439625	1.174530
C107	C	1.483155	-0.111359	0.631263
C108	C	1.983155	0.388641	1.131263
C109	C	1.483147	-0.111358	0.537419
C110	C	1.983147	0.388642	1.037419
C111	C	1.483148	-0.111353	0.462621
C112	C	1.983148	0.388647	0.962621
H113	H	1.190398	-0.252906	-0.000025
H114	H	1.690398	0.247094	0.499975
F115	F	1.243805	0.488453	-0.000007
F116	F	1.743805	0.988453	0.499993
F117	F	1.283910	0.022053	0.000036
F118	F	1.783910	0.522053	0.500036
H119	H	1.638347	-0.018845	0.360731
H120	H	2.138347	0.481155	0.860731
H121	H	1.327889	-0.203847	0.203729
H122	H	1.827889	0.296153	0.703729
H123	H	0.806392	-0.372147	-0.000026
H124	H	1.306392	0.127853	0.499974
F125	F	0.682380	-0.244771	0.000006
F126	F	1.182380	0.255229	0.500006
H127	H	1.044036	-0.375945	-0.000030
H128	H	1.544036	0.124055	0.499970
H129	H	1.278915	0.246296	0.000004
H130	H	1.778915	0.746296	0.500004
F131	F	1.659731	-0.006096	0.192905
F132	F	2.159731	0.493904	0.692905
H133	H	1.694128	0.276856	0.000028
H134	H	2.194128	0.776856	0.500028
H135	H	0.775892	0.030186	0.000052
H136	H	1.275892	0.530186	0.500052
H137	H	1.697930	0.133623	0.000040
H138	H	2.197930	0.633623	0.500040
F139	F	0.909684	0.170717	0.000077
F140	F	1.409684	0.670717	0.500077
F141	F	1.180074	0.166398	0.000075
F142	F	1.680074	0.666398	0.500075
H143	H	1.327912	-0.203848	0.360744
H144	H	1.827912	0.296152	0.860744
F145	F	1.711931	0.686215	0.000024
F146	F	2.211931	1.186215	0.500024
H147	H	1.687380	0.530995	0.000025
H148	H	2.187380	1.030995	0.500025
F149	F	1.239485	0.651431	0.000001
F150	F	1.739485	1.151431	0.500001
H151	H	1.282707	0.103050	0.000011
H152	H	1.782707	0.603050	0.500011
H153	H	1.638387	-0.018859	0.639297
H154	H	2.138387	0.481141	1.139297
F155	F	1.659803	-0.006114	0.807131
F156	F	2.159803	0.493886	1.307131
H157	H	1.327968	-0.203872	0.796317
H158	H	1.827968	0.296128	1.296317
F159	F	1.306549	-0.216611	0.628490
F160	F	1.806549	0.283389	1.128490
