data_functionalizedCrystal
_audit_creation_method	'MofGen! by Chris Wilmer'
_symmetry_space_group_name_H-M	'P1'
_symmetry_Int_Tables_number	1
_symmetry_cell_setting	triclinic
loop_
_symmetry_equiv_pos_as_xyz
  x,y,z
_cell_length_a	14.908782
_cell_length_b	16.625545
_cell_length_c	16.625539
_cell_angle_alpha	89.973757
_cell_angle_beta	93.285106
_cell_angle_gamma	86.732496
loop_
_atom_site_label
_atom_site_type_symbol
_atom_site_fract_x
_atom_site_fract_y
_atom_site_fract_z
Zn1	Zn	1.379088	-0.392086	-0.384643
Zn2	Zn	1.879088	0.107914	0.115357
Zn3	Zn	1.378981	-0.526919	-0.249817
Zn4	Zn	1.878981	-0.026919	0.250183
Zn5	Zn	1.228239	-0.384336	-0.257619
Zn6	Zn	1.728239	0.115664	0.242381
Zn7	Zn	1.228189	-0.519103	-0.392399
Zn8	Zn	1.728189	-0.019103	0.107601
O9	O	1.303624	-0.455611	-0.321120
O10	O	1.803624	0.044389	0.178880
O11	O	1.505313	-0.416486	-0.360247
O12	O	2.005313	0.083514	0.139753
O13	O	1.358961	-0.508032	-0.138020
O14	O	1.858961	-0.008032	0.361980
O15	O	1.248315	-0.272535	-0.274489
O16	O	1.748315	0.227465	0.225511
O17	O	1.505234	-0.515547	-0.261190
O18	O	2.005234	-0.015547	0.238810
O19	O	1.359144	-0.278229	-0.367813
O20	O	1.859144	0.221771	0.132187
O21	O	1.248212	-0.403277	-0.143753
O22	O	1.748212	0.096723	0.356247
O23	O	1.101994	-0.395699	-0.282009
O24	O	1.601994	0.104301	0.217991
O25	O	1.248229	-0.502227	-0.504201
O26	O	1.748229	-0.002227	-0.004201
O27	O	1.101957	-0.494712	-0.381031
O28	O	1.601957	0.005288	0.118969
O29	O	1.359095	-0.408908	-0.498503
O30	O	1.859095	0.091092	0.001497
O31	O	1.358912	-0.638711	-0.268711
O32	O	1.858912	-0.138711	0.231289
O33	O	1.248126	-0.632969	-0.373465
O34	O	1.748126	-0.132969	0.126535
C35	C	1.069243	-0.443517	-0.333209
C36	C	1.569243	0.056483	0.166791
C37	C	0.968974	-0.438362	-0.338400
C38	C	1.468974	0.061638	0.161600
C39	C	0.780474	-0.531688	-0.244850
C40	C	1.280474	-0.031688	0.255150
C41	C	0.686262	-0.526847	-0.249725
C42	C	1.186262	-0.026847	0.250275
C43	C	0.686336	-0.423846	-0.353029
C44	C	1.186336	0.076154	0.146971
C45	C	0.780548	-0.428686	-0.348154
C46	C	1.280548	0.071314	0.151846
C47	C	0.827614	-0.482608	-0.294062
C48	C	1.327614	0.017392	0.205938
C49	C	0.921827	-0.487444	-0.289183
C50	C	1.421827	0.012556	0.210817
C51	C	0.921900	-0.384447	-0.392491
C52	C	1.421900	0.115553	0.107509
C53	C	0.827688	-0.379606	-0.397366
C54	C	1.327688	0.120394	0.102634
C55	C	1.303526	-0.665097	-0.321099
C56	C	1.803526	-0.165097	0.178901
C57	C	1.303567	-0.754720	-0.321113
C58	C	1.803567	-0.254720	0.178887
C59	C	1.303602	-0.827504	-0.321128
C60	C	1.803602	-0.327504	0.178872
C61	C	1.303654	-0.918815	-0.321143
C62	C	1.803654	-0.418815	0.178857
C63	C	1.303701	-0.991594	-0.321150
C64	C	1.803701	-0.491594	0.178850
C65	C	1.303753	-1.082911	-0.321164
C66	C	1.803753	-0.582911	0.178836
C67	C	1.538921	-0.467753	-0.308983
C68	C	2.038921	0.032247	0.191017
C69	C	1.639190	-0.472927	-0.303812
C70	C	2.139190	0.027073	0.196188
C71	C	1.303669	-0.455560	-0.531426
C72	C	1.803669	0.044440	-0.031426
C73	C	1.303687	-0.455538	-0.621047
C74	C	1.803687	0.044462	-0.121047
C75	C	1.303747	-0.245308	-0.321156
C76	C	1.803747	0.254692	0.178844
C77	C	1.303800	-0.155690	-0.321172
C78	C	1.803800	0.344310	0.178828
C79	C	1.303702	-0.455521	-0.693828
C80	C	1.803702	0.044479	-0.193828
C81	C	1.303723	-0.455492	-0.785136
C82	C	1.803723	0.044508	-0.285136
C83	C	1.303744	-0.455465	-0.857911
C84	C	1.803744	0.044535	-0.357911
C85	C	1.303767	-0.455437	-0.949224
C86	C	1.803767	0.044563	-0.449224
C87	C	1.303632	-0.455606	-0.111628
C88	C	1.803632	0.044394	0.388372
C89	C	1.303788	-0.455410	-0.022000
C90	C	1.803788	0.044590	0.478000
H91	H	0.647884	-0.566814	-0.209653
H92	H	1.147884	-0.066814	0.290347
H93	H	0.648000	-0.379952	-0.397074
H94	H	1.148000	0.120048	0.102926
H95	H	0.789355	-0.335707	-0.441408
H96	H	1.289355	0.164293	0.058592
H97	H	0.960147	-0.531348	-0.245137
H98	H	1.460147	-0.031348	0.254863
H99	H	0.818795	-0.575588	-0.200801
H100	H	1.318795	-0.075588	0.299199
H101	H	0.960292	-0.344479	-0.432559
H102	H	1.460292	0.155521	0.067441
