data_functionalizedCrystal
_audit_creation_method	'MofGen! by Chris Wilmer'
_symmetry_space_group_name_H-M	'P1'
_symmetry_Int_Tables_number	1
_symmetry_cell_setting	triclinic
loop_
_symmetry_equiv_pos_as_xyz
  x,y,z
_cell_length_a	14.853566
_cell_length_b	14.853567
_cell_length_c	16.776229
_cell_angle_alpha	89.997147
_cell_angle_beta	89.995710
_cell_angle_gamma	83.634672
loop_
_atom_site_label
_atom_site_type_symbol
_atom_site_fract_x
_atom_site_fract_y
_atom_site_fract_z
O1	O	1.196369	0.117701	-0.066229
O2	O	0.933909	0.131723	-0.066241
O3	O	1.072150	-0.006518	-0.066237
O4	O	1.058128	0.255942	-0.066233
O5	O	1.072131	-0.006526	0.066340
O6	O	0.933891	0.131715	0.066336
O7	O	1.196350	0.117692	0.066348
Zn8	Zn	1.065118	0.124702	0.087391
Zn9	Zn	1.065142	0.124714	-0.087284
O10	O	1.058110	0.255933	0.066344
C11	C	0.900311	0.131084	0.000046
C12	C	0.800227	0.129181	0.000041
C13	C	1.071505	-0.040111	0.000049
C14	C	1.069601	-0.140194	0.000042
C15	C	0.377052	0.121135	-0.072213
C16	C	0.377054	0.121126	0.072327
C17	C	0.471088	0.122913	0.072325
C18	C	0.518108	0.123813	0.000052
C19	C	0.471095	0.122925	-0.072218
C20	C	0.518107	0.123810	0.144593
C21	C	0.612147	0.125599	0.144594
C22	C	0.659170	0.126492	0.072320
C23	C	0.612151	0.125603	0.000048
C24	C	0.659171	0.126503	-0.072225
C25	C	0.612155	0.125607	-0.144498
C26	C	0.518118	0.123818	-0.144491
C27	C	0.753207	0.128281	0.072313
C28	C	0.753214	0.128293	-0.072229
C29	C	0.979435	-0.552728	0.000053
C30	C	1.143668	-0.574009	0.000061
C31	C	1.145458	-0.479976	0.000056
C32	C	1.064236	-0.422313	0.000051
C33	C	0.981223	-0.458685	0.000051
C34	C	1.228470	-0.443597	0.000064
C35	C	1.230263	-0.349558	0.000061
C36	C	1.149040	-0.291894	0.000050
C37	C	1.066023	-0.328271	0.000049
C38	C	0.984801	-0.270608	0.000044
C39	C	0.901784	-0.306984	0.000037
C40	C	0.899999	-0.401021	0.000040
C41	C	1.150824	-0.197856	0.000047
C42	C	0.986588	-0.176566	0.000042
C43	C	1.229948	0.118332	0.000060
C44	C	1.330032	0.120235	0.000059
C45	C	1.058754	0.289526	0.000056
C46	C	1.060658	0.389610	0.000058
N47	N	1.065108	0.124694	0.206602
N48	N	1.065159	0.124715	-0.206495
C49	C	1.126339	0.063506	0.248321
C50	C	1.126344	0.063505	0.331773
C51	C	1.065121	0.124698	0.373505
C52	C	1.003883	0.185888	0.331780
C53	C	1.003874	0.185884	0.248330
C54	C	1.003916	0.185906	0.668328
C55	C	1.003931	0.185908	0.751784
C56	C	1.126385	0.063527	0.751771
C57	C	1.126377	0.063523	0.668321
C58	C	1.065136	0.124710	0.626603
C59	C	1.065130	0.124709	0.536115
C60	C	1.065131	0.124704	0.463992
H61	H	0.791492	0.129022	-0.131083
H62	H	0.479829	0.123088	-0.203332
N63	N	0.937830	0.251885	0.203336
H64	H	0.972320	0.291865	0.168701
H65	H	0.897885	0.217291	0.168770
H66	H	1.297861	-0.319950	0.000065
H67	H	0.650450	0.126346	-0.203342
N68	N	1.192440	-0.002472	0.796766
H69	H	1.183157	0.006810	0.855964
H70	H	1.181953	-0.066449	0.782184
H71	H	1.176198	0.013680	0.214349
N72	N	1.316063	-0.505796	0.000080
H73	H	1.318988	-0.545285	-0.049066
H74	H	1.368877	-0.468429	0.000118
N75	N	0.937884	0.251905	0.796793
H76	H	0.897942	0.217371	0.831427
H77	H	0.972444	0.291877	0.831361
N78	N	0.467398	0.122850	0.222541
H79	H	0.400540	0.122824	0.211584
H80	H	0.490221	0.066689	0.253624
H81	H	0.650420	0.126326	0.203443
N82	N	0.326354	0.120176	-0.150165
H83	H	0.349964	0.064647	-0.181760
H84	H	0.259658	0.118938	-0.139138
N85	N	0.803917	0.129257	0.150254
H86	H	0.759860	0.128421	0.196038
H87	H	0.850172	0.074155	0.153405
N88	N	0.326344	0.120166	0.150275
H89	H	0.259488	0.120132	0.139318
H90	H	0.349174	0.064008	0.181361
N91	N	1.240351	-0.158621	0.000063
H92	H	1.291533	-0.209419	0.000071
H93	H	1.244683	-0.120069	-0.049086
H94	H	1.176203	0.013681	0.365741
N95	N	1.192413	-0.002473	0.623310
H96	H	1.231204	-0.041237	0.662402
H97	H	1.157848	-0.042393	0.588695
N98	N	0.889896	-0.591947	0.000046
H99	H	0.885497	-0.630486	-0.049100
H100	H	0.885537	-0.630446	0.049225
H101	H	1.209796	-0.620963	0.000071
N102	N	0.898988	-0.114367	0.000037
H103	H	0.862782	-0.126073	-0.049112
H104	H	0.862839	-0.126109	0.049213
N105	N	0.814181	-0.244788	0.000052
H106	H	0.827917	-0.179698	0.000060
H107	H	0.778005	-0.256560	-0.049094
H108	H	0.954053	0.235729	0.634368
H109	H	0.832411	-0.430646	0.000035
H110	H	0.954030	0.235709	0.365763
