data_functionalizedCrystal
_audit_creation_method	'MofGen! by Chris Wilmer'
_symmetry_space_group_name_H-M	'P1'
_symmetry_Int_Tables_number	1
_symmetry_cell_setting	triclinic
loop_
_symmetry_equiv_pos_as_xyz
  x,y,z
_cell_length_a	8.965430
_cell_length_b	11.792241
_cell_length_c	11.792241
_cell_angle_alpha	84.193416
_cell_angle_beta	90.000275
_cell_angle_gamma	90.000368
loop_
_atom_site_label
_atom_site_type_symbol
_atom_site_fract_x
_atom_site_fract_y
_atom_site_fract_z
O1	O	0.123895	-1.506909	-0.155559
O2	O	0.123930	-1.176567	-0.171592
O3	O	0.123901	-1.349754	0.001595
O4	O	0.123924	-1.333722	-0.328746
O5	O	-0.124178	-1.349740	0.001583
O6	O	-0.124149	-1.176553	-0.171604
O7	O	-0.124184	-1.506894	-0.155571
Cu8	Cu	-0.146818	-1.341722	-0.163588
Cu9	Cu	0.146564	-1.341739	-0.163575
O10	O	-0.124155	-1.333707	-0.328758
C11	C	-0.000105	-1.134269	-0.170591
C12	C	-0.000092	-1.008255	-0.167576
C13	C	-0.000138	-1.348740	0.043880
C14	C	-0.000136	-1.345726	0.169894
N15	N	-0.353167	-1.341718	-0.163597
C16	C	-0.450460	-1.261600	-0.243664
C17	C	-0.549883	-1.364301	-0.266319
C18	C	-0.549872	-1.239061	-0.140952
C19	C	-0.450401	-1.444471	-0.186304
C20	C	-0.450381	-1.319163	-0.060892
C21	C	-0.549759	-1.421938	-0.083504
N22	N	0.352913	-1.341752	-0.163557
C23	C	-0.000145	-1.549192	-0.156572
C24	C	-0.000149	-1.675206	-0.159587
C25	C	-0.000135	-0.777543	-0.162034
C26	C	-0.000112	-0.905928	-0.165113
C27	C	-0.000113	-1.334721	-0.371043
C28	C	-0.000105	-1.337736	-0.497057
C29	C	-0.000110	-1.340183	0.400606
C30	C	-0.000124	-1.343262	0.272221
H31	H	-0.406860	-1.193909	-0.311436
O32	O	-0.398006	-1.296204	0.042576
C33	C	-0.309339	-1.196999	0.029296
H34	H	-0.265801	-1.183459	-0.061898
H35	H	-0.379296	-1.120354	0.048060
C36	C	-0.230269	-1.227091	0.224636
C37	C	-0.176784	-1.210465	0.112633
H38	H	-0.148506	-1.235393	0.276045
H39	H	-0.290010	-1.293925	0.233586
H40	H	-0.288566	-1.163216	0.240257
H41	H	-0.118504	-1.274345	0.097009
H42	H	-0.117030	-1.143642	0.103683
H43	H	-0.593086	-1.489780	-0.015773
O44	O	-0.601867	-1.387249	-0.369909
C45	C	-0.549049	-1.494727	-0.394387
H46	H	-0.443579	-1.517030	-0.342903
H47	H	-0.638048	-1.562065	-0.370836
C48	C	-0.643142	-1.463650	-0.585718
C49	C	-0.513595	-1.491038	-0.522492
H50	H	-0.621279	-1.461378	-0.664740
H51	H	-0.678732	-1.391242	-0.569227
H52	H	-0.717296	-1.519769	-0.566080
H53	H	-0.439451	-1.434913	-0.542121
H54	H	-0.477992	-1.563438	-0.538990
H55	H	-0.406891	-1.531321	-0.205544
O56	O	-0.601816	-1.135383	-0.118247
C57	C	-0.551249	-1.051167	-0.202913
H58	H	-0.446559	-1.082751	-0.244696
H59	H	-0.641845	-1.032857	-0.270115
C60	C	-0.643633	-0.902455	-0.096858
C61	C	-0.515044	-0.941242	-0.148170
H62	H	-0.621306	-0.834646	-0.063093
H63	H	-0.677706	-0.959192	-0.039819
H64	H	-0.719117	-0.887205	-0.152869
H65	H	-0.439569	-0.956505	-0.092158
H66	H	-0.480957	-0.884505	-0.205199
