data_functionalizedCrystal
_audit_creation_method	'MofGen! by Chris Wilmer'
_symmetry_space_group_name_H-M	'P1'
_symmetry_Int_Tables_number	1
_symmetry_cell_setting	triclinic
loop_
_symmetry_equiv_pos_as_xyz
  x,y,z
_cell_length_a	21.395362
_cell_length_b	12.827893
_cell_length_c	21.395356
_cell_angle_alpha	89.983579
_cell_angle_beta	90.029577
_cell_angle_gamma	89.974482
loop_
_atom_site_label
_atom_site_type_symbol
_atom_site_fract_x
_atom_site_fract_y
_atom_site_fract_z
Zn1	Zn	-0.249484	-1.597532	0.354254
Zn2	Zn	0.083849	-1.264199	0.687587
Zn3	Zn	0.417182	-0.930866	1.020921
Zn4	Zn	-0.354262	-1.597404	0.249474
Zn5	Zn	-0.020929	-1.264071	0.582807
Zn6	Zn	0.312405	-0.930738	0.916141
Zn7	Zn	-0.249499	-1.422788	0.249491
Zn8	Zn	0.083835	-1.089455	0.582824
Zn9	Zn	0.417168	-0.756122	0.916158
Zn10	Zn	-0.354224	-1.422722	0.354214
Zn11	Zn	-0.020891	-1.089389	0.687548
Zn12	Zn	0.312442	-0.756056	1.020881
O13	O	-0.301867	-1.510112	0.301858
O14	O	0.031466	-1.176778	0.635192
O15	O	0.364799	-0.843445	0.968525
O16	O	-0.263393	-1.743751	0.340364
O17	O	0.069940	-1.410418	0.673698
O18	O	0.403274	-1.077085	1.007031
O19	O	-0.340386	-1.574215	0.161798
O20	O	-0.007053	-1.240882	0.495132
O21	O	0.326280	-0.907548	0.828465
O22	O	-0.161819	-1.446050	0.263412
O23	O	0.171515	-1.112717	0.596745
O24	O	0.504848	-0.779383	0.930078
O25	O	-0.340373	-1.743657	0.263383
O26	O	-0.007039	-1.410324	0.596716
O27	O	0.326294	-1.076991	0.930050
O28	O	-0.161808	-1.574434	0.340381
O29	O	0.171525	-1.241100	0.673714
O30	O	0.504858	-0.907767	1.007047
O31	O	-0.263417	-1.445926	0.161811
O32	O	0.069916	-1.112592	0.495144
O33	O	0.403249	-0.779259	0.828477
O34	O	-0.263381	-1.276544	0.263373
O35	O	0.069952	-0.943210	0.596707
O36	O	0.403286	-0.609877	0.930040
O37	O	-0.340309	-1.445937	0.441898
O38	O	-0.006976	-1.112604	0.775231
O39	O	0.326358	-0.779271	1.108564
O40	O	-0.340323	-1.276495	0.340313
O41	O	-0.006989	-0.943162	0.673646
O42	O	0.326344	-0.609828	1.006980
O43	O	-0.263357	-1.574370	0.441927
O44	O	0.069977	-1.241036	0.775260
O45	O	0.403310	-0.907703	1.108593
O46	O	-0.441935	-1.574151	0.263344
O47	O	-0.108602	-1.240818	0.596678
O48	O	0.224732	-0.907484	0.930011
O49	O	-0.441907	-1.445813	0.340297
O50	O	-0.108574	-1.112479	0.673630
O51	O	0.224759	-0.779146	1.006963
C52	C	-0.301850	-1.238602	0.301841
C53	C	0.031484	-0.905269	0.635174
C54	C	0.364817	-0.571935	0.968508
C55	C	-0.301857	-1.122449	0.301848
C56	C	0.031476	-0.789115	0.635182
C57	C	0.364809	-0.455782	0.968515
C58	C	-0.464655	-1.509989	0.301828
C59	C	-0.131322	-1.176656	0.635161
C60	C	0.202012	-0.843322	0.968495
C61	C	-0.534296	-1.510032	0.301836
C62	C	-0.200963	-1.176699	0.635169
C63	C	0.132370	-0.843366	0.968503
C64	C	-0.263741	-0.950616	0.263851
C65	C	0.069592	-0.617283	0.597185
C66	C	0.402925	-0.283950	0.930518
C67	C	-0.263733	-1.070667	0.263843
C68	C	0.069601	-0.737333	0.597176
C69	C	0.402934	-0.404000	0.930509
C70	C	-1.036086	-1.577189	0.261891
C71	C	-0.702752	-1.243856	0.595224
C72	C	-0.369419	-0.910522	0.928558
C73	C	-0.970650	-1.577149	0.261876
C74	C	-0.637317	-1.243816	0.595210
C75	C	-0.303984	-0.910483	0.928543
C76	C	-0.937934	-1.510260	0.301903
C77	C	-0.604601	-1.176927	0.635237
C78	C	-0.271268	-0.843593	0.968570
C79	C	-0.970659	-1.443386	0.341936
C80	C	-0.637326	-1.110053	0.675270
C81	C	-0.303993	-0.776719	1.008603
C82	C	-1.036094	-1.443420	0.341945
C83	C	-0.702760	-1.110087	0.675279
C84	C	-0.369427	-0.776754	1.008612
C85	C	-0.834234	-1.501894	0.358334
C86	C	-0.500901	-1.168561	0.691667
C87	C	-0.167567	-0.835227	1.025000
C88	C	-0.768801	-1.501867	0.358326
C89	C	-0.435468	-1.168534	0.691659
C90	C	-0.102134	-0.835201	1.024992
C91	C	-0.736114	-1.510149	0.301875
C92	C	-0.402780	-1.176816	0.635208
C93	C	-0.069447	-0.843482	0.968542
C94	C	-0.768867	-1.518479	0.245430
C95	C	-0.435534	-1.185146	0.578764
C96	C	-0.102201	-0.851812	0.912097
C97	C	-0.834302	-1.518513	0.245440
C98	C	-0.500968	-1.185180	0.578773
C99	C	-0.167635	-0.851846	0.912106
C100	C	-0.866982	-1.510215	0.301898
C101	C	-0.533649	-1.176882	0.635231
C102	C	-0.200315	-0.843548	0.968564
C103	C	-0.632444	-1.576970	0.261825
C104	C	-0.299111	-1.243637	0.595159
C105	C	0.034222	-0.910304	0.928492
C106	C	-0.567008	-1.576924	0.261810
C107	C	-0.233674	-1.243590	0.595143
C108	C	0.099659	-0.910257	0.928476
C109	C	-0.567018	-1.443166	0.341875
C110	C	-0.233685	-1.109832	0.675208
C111	C	0.099649	-0.776499	1.008542
C112	C	-0.632453	-1.443207	0.341885
C113	C	-0.299120	-1.109874	0.675219
C114	C	0.034213	-0.776540	1.008552
C115	C	-0.665162	-1.510115	0.301861
C116	C	-0.331829	-1.176782	0.635195
C117	C	0.001504	-0.843448	0.968528
C118	C	-0.138444	-1.510264	0.301903
C119	C	0.194889	-1.176930	0.635236
C120	C	0.528223	-0.843597	0.968569
C121	C	-0.068803	-1.510328	0.301921
C122	C	0.264531	-1.176995	0.635255
C123	C	0.597864	-0.843661	0.968588
C124	C	-0.301827	-1.510160	0.465282
C125	C	0.031506	-1.176827	0.798615
C126	C	0.364840	-0.843494	1.131948
C127	C	-0.301810	-1.510181	0.534923
C128	C	0.031523	-1.176848	0.868256
C129	C	0.364857	-0.843514	1.201590
C130	C	-0.301880	-0.782682	0.301871
C131	C	0.031453	-0.449349	0.635205
C132	C	0.364786	-0.116015	0.968538
C133	C	-0.301873	-0.898835	0.301864
C134	C	0.031461	-0.565502	0.635197
C135	C	0.364794	-0.232168	0.968530
C136	C	-0.301862	-1.510124	0.139071
C137	C	0.031471	-1.176790	0.472404
C138	C	0.364804	-0.843457	0.805738
C139	C	-0.301703	-1.510306	0.069430
C140	C	0.031630	-1.176972	0.402763
C141	C	0.364964	-0.843639	0.736097
C142	C	-0.261641	-1.577154	1.036736
C143	C	0.071692	-1.243821	1.370069
C144	C	0.405025	-0.910487	1.703402
C145	C	-0.261656	-1.577146	0.971300
C146	C	0.071677	-1.243812	1.304634
C147	C	0.405010	-0.910479	1.637967
C148	C	-0.301727	-1.510270	0.938562
C149	C	0.031607	-1.176937	1.271895
C150	C	0.364940	-0.843604	1.605228
C151	C	-0.341796	-1.443418	0.971264
C152	C	-0.008463	-1.110084	1.304597
C153	C	0.324871	-0.776751	1.637930
C154	C	-0.341784	-1.443435	1.036698
C155	C	-0.008451	-1.110102	1.370031
C156	C	0.324882	-0.776768	1.703365
C157	C	-0.306686	-1.416088	0.834885
C158	C	0.026647	-1.082754	1.168219
C159	C	0.359980	-0.749421	1.501552
C160	C	-0.306694	-1.416068	0.769452
C161	C	0.026639	-1.082735	1.102786
C162	C	0.359973	-0.749402	1.436119
C163	C	-0.301767	-1.510217	0.736741
C164	C	0.031567	-1.176884	1.070074
C165	C	0.364900	-0.843550	1.403407
C166	C	-0.296819	-1.604388	0.769470
C167	C	0.036515	-1.271055	1.102803
C168	C	0.369848	-0.937721	1.436137
C169	C	-0.296807	-1.604405	0.834904
C170	C	0.036526	-1.271072	1.168237
C171	C	0.369860	-0.937739	1.501571
C172	C	-0.301744	-1.510244	0.867609
C173	C	0.031589	-1.176911	1.200942
C174	C	0.364923	-0.843578	1.534276
C175	C	-0.261719	-1.577062	0.633094
C176	C	0.071614	-1.243729	0.966427
C177	C	0.404948	-0.910395	1.299760
C178	C	-0.261739	-1.577056	0.567657
C179	C	0.071595	-1.243722	0.900990
C180	C	0.404928	-0.910389	1.234324
C181	C	-0.341875	-1.443318	0.567622
C182	C	-0.008542	-1.109985	0.900955
C183	C	0.324792	-0.776651	1.234289
C184	C	-0.341859	-1.443334	0.633057
C185	C	-0.008525	-1.110001	0.966391
C186	C	0.324808	-0.776667	1.299724
C187	C	-0.301778	-1.510204	0.665789
C188	C	0.031556	-1.176871	0.999123
C189	C	0.364889	-0.843538	1.332456
H190	H	-0.231089	-1.115197	0.231297
H191	H	0.102244	-0.781864	0.564630
H192	H	0.435578	-0.448531	0.897963
H193	H	-0.944007	-1.631597	0.229278
H194	H	-0.610674	-1.298264	0.562611
H195	H	-0.277341	-0.964931	0.895944
H196	H	-0.231100	-0.906071	0.231316
H197	H	0.102234	-0.572738	0.564649
H198	H	0.435567	-0.239405	0.897983
H199	H	-0.860842	-1.495339	0.404316
H200	H	-0.527509	-1.162006	0.737649
H201	H	-0.194176	-0.828673	1.070982
O202	O	-0.291475	-1.705965	0.870209
O203	O	0.041859	-1.372631	1.203542
O204	O	0.375192	-1.039298	1.536875
H205	H	-0.331322	-1.757234	0.857647
H206	H	0.002011	-1.423900	1.190980
H207	H	0.335344	-1.090567	1.524314
H208	H	-0.540381	-1.388699	0.374463
H209	H	-0.207048	-1.055365	0.707796
H210	H	0.126286	-0.722032	1.041130
H211	H	-0.334507	-1.077925	0.334392
H212	H	-0.001173	-0.744592	0.667726
H213	H	0.332160	-0.411258	1.001059
H214	H	-0.659078	-1.631449	0.229235
H215	H	-0.325744	-1.298116	0.562568
H216	H	0.007589	-0.964783	0.895901
O217	O	-1.071387	-1.371300	0.385121
O218	O	-0.738053	-1.037967	0.718454
O219	O	-0.404720	-0.704633	1.051788
H220	H	-1.101160	-1.418050	0.417027
H221	H	-0.767826	-1.084716	0.750360
H222	H	-0.434493	-0.751383	1.083694
H223	H	-0.374408	-1.388997	1.063317
H224	H	-0.041075	-1.055664	1.396651
H225	H	0.292258	-0.722331	1.729984
H226	H	-0.334509	-0.943380	0.334404
H227	H	-0.001176	-0.610047	0.667738
H228	H	0.332157	-0.276713	1.001071
H229	H	-0.229007	-1.631610	1.063382
H230	H	0.104327	-1.298276	1.396715
H231	H	0.437660	-0.964943	1.730049
H232	H	-1.062714	-1.631667	0.229298
H233	H	-0.729380	-1.298334	0.562632
H234	H	-0.396047	-0.965001	0.895965
H235	H	-0.374503	-1.388871	0.540967
H236	H	-0.041170	-1.055538	0.874300
H237	H	0.292163	-0.722204	1.207634
H238	H	-0.860967	-1.525293	0.199481
H239	H	-0.527634	-1.191960	0.532814
H240	H	-0.194300	-0.858626	0.866147
O241	O	-0.733624	-1.527403	0.184536
O242	O	-0.400291	-1.194070	0.517870
O243	O	-0.066957	-0.860736	0.851203
H244	H	-0.682621	-1.525965	0.194009
H245	H	-0.349288	-1.192631	0.527342
H246	H	-0.015954	-0.859298	0.860676
H247	H	-0.944019	-1.388922	0.374526
H248	H	-0.610685	-1.055589	0.707859
H249	H	-0.277352	-0.722255	1.041192
O250	O	-0.218441	-1.649241	0.936024
O251	O	0.114892	-1.315907	1.269358
O252	O	0.448225	-0.982574	1.602691
H253	H	-0.190566	-1.695737	0.969778
H254	H	0.142767	-1.362404	1.303112
H255	H	0.476101	-1.029070	1.636445
H256	H	-0.292804	-1.681053	0.742837
H257	H	0.040529	-1.347719	1.076171
H258	H	0.373862	-1.014386	1.409504
H259	H	-0.540369	-1.631366	0.229209
H260	H	-0.207036	-1.298033	0.562542
H261	H	0.126298	-0.964700	0.895875
H262	H	-0.229082	-1.631511	0.659746
H263	H	0.104251	-1.298178	0.993079
H264	H	0.437585	-0.964845	1.326412
H265	H	-0.229117	-1.631499	0.541038
H266	H	0.104216	-1.298165	0.874372
H267	H	0.437549	-0.964832	1.207705
H268	H	-0.659092	-1.388765	0.374484
H269	H	-0.325758	-1.055431	0.707817
H270	H	0.007575	-0.722098	1.041151
O271	O	-0.733475	-1.492829	0.419198
O272	O	-0.400141	-1.159496	0.752531
O273	O	-0.066808	-0.826162	1.085864
H274	H	-0.767196	-1.487034	0.458451
H275	H	-0.433862	-1.153701	0.791784
H276	H	-0.100529	-0.820368	1.125117
O277	O	-0.385058	-1.371217	0.668327
O278	O	-0.051725	-1.037883	1.001661
O279	O	0.281608	-0.704550	1.334994
H280	H	-0.412920	-1.324703	0.634571
H281	H	-0.079587	-0.991370	0.967904
H282	H	0.253746	-0.658036	1.301238
H283	H	-0.310722	-1.339389	0.742809
H284	H	0.022611	-1.006056	1.076143
H285	H	0.355944	-0.672722	1.409476
O286	O	-0.311997	-1.314535	0.870167
O287	O	0.021337	-0.981202	1.203500
O288	O	0.354670	-0.647868	1.536833
H289	H	-0.315427	-1.249051	0.836417
H290	H	0.017906	-0.915718	1.169750
H291	H	0.351239	-0.582384	1.503084
O292	O	-0.385013	-1.371279	0.935959
O293	O	-0.051679	-1.037946	1.269292
O294	O	0.281654	-0.704613	1.602625
H295	H	-0.378285	-1.382488	0.884965
H296	H	-0.044952	-1.049154	1.218298
H297	H	0.288381	-0.715821	1.551631
