data_functionalizedCrystal
_audit_creation_method	'MofGen! by Chris Wilmer'
_symmetry_space_group_name_H-M	'P1'
_symmetry_Int_Tables_number	1
_symmetry_cell_setting	triclinic
loop_
_symmetry_equiv_pos_as_xyz
  x,y,z
_cell_length_a	10.908878
_cell_length_b	11.026607
_cell_length_c	7.681215
_cell_angle_alpha	95.022375
_cell_angle_beta	97.463575
_cell_angle_gamma	84.335404
loop_
_atom_site_label
_atom_site_type_symbol
_atom_site_fract_x
_atom_site_fract_y
_atom_site_fract_z
O1	O	1.675074	-0.171383	0.146406
O2	O	1.322140	-0.080843	0.146414
O3	O	1.469356	-0.296863	0.146404
O4	O	1.527859	0.044637	0.146416
O5	O	1.444103	-0.312253	-0.146466
O6	O	1.296887	-0.096232	-0.146456
O7	O	1.649821	-0.186773	-0.146464
Zn8	Zn	1.469344	-0.143946	-0.192960
Zn9	Zn	1.502617	-0.123670	0.192909
O10	O	1.502605	0.029248	-0.146454
C11	C	1.263628	-0.080076	-0.000020
C12	C	1.126901	-0.054877	-0.000017
C13	C	1.056638	-0.146822	-0.000019
C14	C	0.915323	-0.120780	-0.000016
C15	C	1.445937	-0.347591	-0.000029
C16	C	1.413765	-0.475812	-0.000021
C17	C	1.502600	-0.567545	-0.000021
C18	C	1.469350	-0.700069	-0.000014
C19	C	1.708333	-0.187539	-0.000026
C20	C	1.845062	-0.212738	-0.000018
C21	C	1.526025	0.079975	-0.000018
C22	C	1.558198	0.208197	-0.000013
N23	N	1.446646	-0.157787	-0.456305
N24	N	1.525323	-0.109840	0.456255
H25	H	1.101104	-0.244818	-0.000014
H26	H	1.366370	-0.206731	-0.531543
C27	C	1.277759	-0.502250	-0.000021
N28	N	1.175317	-0.522161	-0.000026
H29	H	1.605610	-0.060901	-0.468498
H30	H	1.603269	-0.547970	-0.000034
H31	H	0.870864	-0.022776	-0.000004
C32	C	1.333338	-0.726500	-0.000013
N33	N	1.230896	-0.746411	-0.000018
C34	C	1.066837	0.077515	-0.000013
N35	N	1.021598	0.177236	-0.000013
H36	H	1.658887	-0.772230	0.000117
C37	C	0.905118	-0.345138	-0.000022
N38	N	0.950353	-0.444860	-0.000027
