data_functionalizedCrystal
_audit_creation_method	'MofGen! by Chris Wilmer'
_symmetry_space_group_name_H-M	'P1'
_symmetry_Int_Tables_number	1
_symmetry_cell_setting	triclinic
loop_
_symmetry_equiv_pos_as_xyz
  x,y,z
_cell_length_a	14.519709
_cell_length_b	17.038272
_cell_length_c	13.596369
_cell_angle_alpha	89.993837
_cell_angle_beta	90.000291
_cell_angle_gamma	87.395851
loop_
_atom_site_label
_atom_site_type_symbol
_atom_site_fract_x
_atom_site_fract_y
_atom_site_fract_z
O1	O	1.231711	0.102502	-0.081664
O2	O	1.565044	0.435836	0.251670
O3	O	1.898378	0.769169	0.585003
O4	O	0.964158	0.114573	-0.081694
O5	O	1.297491	0.447907	0.251640
O6	O	1.630824	0.781240	0.584973
O7	O	1.096344	-0.005280	-0.081671
O8	O	1.429678	0.328053	0.251662
O9	O	1.763011	0.661387	0.584996
O10	O	1.099525	0.222356	-0.081686
O11	O	1.432858	0.555689	0.251647
O12	O	1.766191	0.889022	0.584980
O13	O	1.096330	-0.005286	0.081912
O14	O	1.429663	0.328047	0.415245
O15	O	1.762996	0.661380	0.748579
O16	O	0.964143	0.114567	0.081889
O17	O	1.297476	0.447900	0.415223
O18	O	1.630810	0.781234	0.748556
O19	O	1.231696	0.102496	0.081919
O20	O	1.565030	0.435829	0.415253
O21	O	1.898363	0.769163	0.748586
Zn22	Zn	1.097918	0.108530	0.107877
Zn23	Zn	1.431251	0.441864	0.441210
Zn24	Zn	1.764584	0.775197	0.774543
Zn25	Zn	1.097937	0.108539	-0.107651
Zn26	Zn	1.431270	0.441872	0.225682
Zn27	Zn	1.764603	0.775206	0.559016
O28	O	1.099510	0.222349	0.081897
O29	O	1.432843	0.555683	0.415230
O30	O	1.766177	0.889016	0.748563
C31	C	0.929748	0.114008	0.000094
C32	C	1.263081	0.447341	0.333427
C33	C	1.596414	0.780674	0.666761
C34	C	0.827237	0.112322	0.000083
C35	C	1.160571	0.445655	0.333416
C36	C	1.493904	0.778988	0.666749
C37	C	0.451867	0.106116	0.000128
C38	C	0.785200	0.439449	0.333461
C39	C	1.118533	0.772782	0.666794
C40	C	0.556307	0.107839	0.000115
C41	C	0.889640	0.441172	0.333448
C42	C	1.222973	0.774506	0.666782
C43	C	0.639549	0.109219	0.000104
C44	C	0.972882	0.442552	0.333438
C45	C	1.306215	0.775885	0.666771
C46	C	0.743995	0.110942	0.000093
C47	C	1.077329	0.444276	0.333427
C48	C	1.410662	0.777609	0.666760
C49	C	1.093444	-0.034416	0.000120
C50	C	1.426778	0.298917	0.333453
C51	C	1.760111	0.632250	0.666787
C52	C	1.084814	-0.121223	0.000119
C53	C	1.418148	0.212110	0.333452
C54	C	1.751481	0.545444	0.666785
C55	C	1.164047	-0.171209	0.000129
C56	C	1.497381	0.162124	0.333462
C57	C	1.830714	0.495458	0.666795
C58	C	1.155933	-0.252773	0.000118
C59	C	1.489266	0.080561	0.333452
C60	C	1.822600	0.413894	0.666785
C61	C	1.068585	-0.284349	0.000105
C62	C	1.401919	0.048984	0.333439
C63	C	1.735252	0.382318	0.666772
C64	C	0.989347	-0.234357	0.000092
C65	C	1.322680	0.098977	0.333426
C66	C	1.656013	0.432310	0.666759
C67	C	0.997462	-0.152795	0.000096
C68	C	1.330795	0.180539	0.333429
C69	C	1.664128	0.513872	0.666762
C70	C	1.039916	-0.530153	0.000089
C71	C	1.373250	-0.196820	0.333422
C72	C	1.706583	0.136513	0.666755
C73	C	1.031807	-0.611722	0.000088
C74	C	1.365140	-0.278388	0.333422
C75	C	1.698474	0.054945	0.666755
C76	C	1.198394	-0.630132	0.000112
C77	C	1.531728	-0.296799	0.333446
C78	C	1.865061	0.036535	0.666779
C79	C	1.206502	-0.548568	0.000122
C80	C	1.539835	-0.215234	0.333455
C81	C	1.873168	0.118099	0.666788
C82	C	1.127263	-0.498583	0.000104
C83	C	1.460596	-0.165249	0.333437
C84	C	1.793930	0.168084	0.666770
C85	C	1.060289	-0.367720	0.000098
C86	C	1.393623	-0.034387	0.333431
C87	C	1.726956	0.298947	0.666765
C88	C	1.135560	-0.415213	0.000104
C89	C	1.468893	-0.081880	0.333437
C90	C	1.802227	0.251453	0.666771
C91	C	1.266107	0.103062	0.000129
C92	C	1.599440	0.436395	0.333463
C93	C	1.932773	0.769728	0.666796
C94	C	1.368617	0.104748	0.000134
C95	C	1.701950	0.438081	0.333468
C96	C	2.035284	0.771414	0.666801
C97	C	1.102410	0.251486	0.000103
C98	C	1.435743	0.584819	0.333437
C99	C	1.769076	0.918152	0.666770
C100	C	1.111040	0.338292	0.000098
C101	C	1.444373	0.671626	0.333432
C102	C	1.777706	1.004959	0.666765
N103	N	1.097911	0.108524	0.254968
N104	N	1.431244	0.441858	0.588302
N105	N	1.764578	0.775191	0.921635
N106	N	1.097950	0.108539	-0.254743
N107	N	1.431283	0.441872	0.078591
N108	N	1.764617	0.775206	0.411924
C109	C	1.097936	0.108540	0.656259
C110	C	1.431269	0.441873	0.989593
C111	C	1.764602	0.775206	1.322926
C112	C	1.097926	0.108538	0.544608
C113	C	1.431260	0.441871	0.877941
C114	C	1.764593	0.775205	1.211275
C115	C	1.097924	0.108533	0.455617
C116	C	1.431257	0.441866	0.788951
C117	C	1.764590	0.775199	1.122284
C118	C	1.097913	0.108530	0.343959
C119	C	1.431247	0.441863	0.677292
C120	C	1.764580	0.775196	1.010626
H121	H	1.235175	-0.145506	0.000145
H122	H	1.568508	0.187827	0.333479
H123	H	1.901842	0.521160	0.666812
C124	C	1.284498	-0.684310	-0.000033
C125	C	1.617831	-0.350977	0.333300
C126	C	1.951165	-0.017643	0.666633
C127	C	1.336738	-0.669999	-0.084176
C128	C	1.670071	-0.336666	0.249158
C129	C	2.003404	-0.003333	0.582491
C130	C	1.416072	-0.719886	-0.084342
C131	C	1.749405	-0.386552	0.248992
C132	C	2.082739	-0.053219	0.582325
H133	H	1.267287	-0.737434	-0.000089
H134	H	1.600621	-0.404101	0.333244
H135	H	1.933954	-0.070768	0.666578
H136	H	1.320099	-0.674721	0.056986
H137	H	1.653433	-0.341388	0.390319
H138	H	1.986766	-0.008054	0.723652
H139	H	1.301143	-0.679594	-0.141180
H140	H	1.634476	-0.346261	0.192154
H141	H	1.967810	-0.012928	0.525487
H142	H	1.353972	-0.616885	-0.084138
H143	H	1.687305	-0.283552	0.249196
H144	H	2.020639	0.049782	0.582529
H145	H	1.451673	-0.710297	-0.027323
H146	H	1.785007	-0.376963	0.306011
H147	H	2.118340	-0.043630	0.639344
H148	H	1.398852	-0.773007	-0.084395
H149	H	1.732186	-0.439674	0.248939
H150	H	2.065519	-0.106340	0.582272
H151	H	1.451530	-0.710178	-0.141426
H152	H	1.784864	-0.376845	0.191907
H153	H	2.118197	-0.043511	0.525241
H154	H	0.989170	-0.393438	0.000089
H155	H	1.322503	-0.060105	0.333423
H156	H	1.655837	0.273228	0.666756
H157	H	1.206678	-0.389500	0.000093
H158	H	1.540011	-0.056167	0.333426
H159	H	1.873345	0.277166	0.666760
H160	H	0.918226	-0.260072	0.000075
H161	H	1.251559	0.073261	0.333409
H162	H	1.584893	0.406594	0.666742
H163	H	1.220453	-0.293468	0.000129
H164	H	1.553786	0.039865	0.333462
H165	H	1.887120	0.373198	0.666795
H166	H	0.932942	-0.112096	0.000087
H167	H	1.266275	0.221237	0.333421
H168	H	1.599608	0.554570	0.666754
H169	H	0.975394	-0.489465	0.000074
H170	H	1.308727	-0.156131	0.333407
H171	H	1.642061	0.177202	0.666741
C172	C	1.301256	-0.514136	0.000175
C173	C	1.634590	-0.180802	0.333508
C174	C	1.967923	0.152531	0.666841
C175	C	1.291404	-0.432008	0.000199
C176	C	1.624737	-0.098675	0.333533
C177	C	1.958070	0.234658	0.666866
C178	C	1.378672	-0.400263	0.000263
C179	C	1.712005	-0.066930	0.333596
C180	C	2.045338	0.266404	0.666930
H181	H	1.334230	-0.531194	-0.056853
H182	H	1.667564	-0.197860	0.276481
H183	H	2.000897	0.135473	0.609814
H184	H	1.334160	-0.531246	0.057245
H185	H	1.667493	-0.197912	0.390578
H186	H	2.000826	0.135421	0.723911
H187	H	1.258515	-0.414905	-0.056865
H188	H	1.591848	-0.081572	0.276469
H189	H	1.925181	0.251761	0.609802
H190	H	1.258446	-0.414929	0.057223
H191	H	1.591779	-0.081595	0.390556
H192	H	1.925112	0.251738	0.723889
H193	H	1.411575	-0.417373	0.057333
H194	H	1.744908	-0.084040	0.390666
H195	H	2.078242	0.249294	0.724000
H196	H	1.411639	-0.417327	-0.056765
H197	H	1.744972	-0.083993	0.276568
H198	H	2.078306	0.249340	0.609901
H199	H	1.371999	-0.344537	0.000289
H200	H	1.705332	-0.011204	0.333622
H201	H	2.038665	0.322130	0.666956
C202	C	0.936884	-0.645855	0.000012
C203	C	1.270218	-0.312521	0.333345
C204	C	1.603551	0.020812	0.666678
C205	C	0.869226	-0.584624	-0.000034
C206	C	1.202559	-0.251290	0.333299
C207	C	1.535893	0.082043	0.666633
C208	C	0.781779	-0.616038	-0.000119
C209	C	1.115112	-0.282704	0.333215
C210	C	1.448446	0.050629	0.666548
H211	H	0.930114	-0.677283	0.057039
H212	H	1.263447	-0.343950	0.390372
H213	H	1.596781	-0.010616	0.723706
H214	H	0.930226	-0.677263	-0.057058
H215	H	1.263559	-0.343930	0.276275
H216	H	1.596892	-0.010596	0.609608
H217	H	0.875882	-0.553229	0.057030
H218	H	1.209215	-0.219895	0.390364
H219	H	1.542548	0.113438	0.723697
H220	H	0.875966	-0.553190	-0.057057
H221	H	1.209300	-0.219857	0.276276
H222	H	1.542633	0.113476	0.609610
H223	H	0.775120	-0.647446	-0.057189
H224	H	1.108454	-0.314112	0.276145
H225	H	1.441787	0.019221	0.609478
H226	H	0.775018	-0.647466	0.056910
H227	H	1.108352	-0.314132	0.390243
H228	H	1.441685	0.019201	0.723576
H229	H	0.735863	-0.574498	-0.000159
H230	H	1.069196	-0.241164	0.333175
H231	H	1.402529	0.092169	0.666508
