data_functionalizedCrystal
_audit_creation_method	'MofGen! by Chris Wilmer'
_symmetry_space_group_name_H-M	'P1'
_symmetry_Int_Tables_number	1
_symmetry_cell_setting	triclinic
loop_
_symmetry_equiv_pos_as_xyz
  x,y,z
_cell_length_a	18.215407
_cell_length_b	12.827892
_cell_length_c	18.215399
_cell_angle_alpha	89.976162
_cell_angle_beta	89.980167
_cell_angle_gamma	90.015840
loop_
_atom_site_label
_atom_site_type_symbol
_atom_site_fract_x
_atom_site_fract_y
_atom_site_fract_z
Zn1	Zn	1.125121	-0.416031	-0.416137
Zn2	Zn	1.125049	-0.590790	-0.293079
Zn3	Zn	1.002053	-0.416065	-0.293084
Zn4	Zn	1.002039	-0.590732	-0.416104
O5	O	1.063566	-0.503405	-0.354601
O6	O	1.228095	-0.439223	-0.399825
O7	O	1.108710	-0.567651	-0.190096
O8	O	1.018414	-0.269825	-0.309423
O9	O	1.228043	-0.567618	-0.309415
O10	O	1.108831	-0.269800	-0.399829
O11	O	1.018345	-0.439282	-0.190099
O12	O	0.899067	-0.439225	-0.309392
O13	O	1.018390	-0.567519	-0.519093
O14	O	0.899057	-0.567552	-0.399774
O15	O	1.108818	-0.439167	-0.519117
O16	O	1.108696	-0.737019	-0.309383
O17	O	1.018321	-0.736976	-0.399769
C18	C	0.872359	-0.503387	-0.354580
C19	C	0.790560	-0.503405	-0.354589
C20	C	0.602380	-0.570329	-0.401592
C21	C	0.525522	-0.570333	-0.401601
C22	C	0.525503	-0.436499	-0.307627
C23	C	0.602360	-0.436491	-0.307622
C24	C	0.640797	-0.503413	-0.354603
C25	C	0.487081	-0.503424	-0.354617
C26	C	0.403747	-0.503427	-0.354627
C27	C	0.724136	-0.503408	-0.354595
C28	C	1.063520	-0.774915	-0.354588
C29	C	1.063567	-0.891068	-0.354607
C30	C	1.108341	-0.942839	-0.309931
C31	C	1.108391	-1.062889	-0.309950
C32	C	1.255518	-0.503424	-0.354623
C33	C	1.337317	-0.503432	-0.354632
C34	C	1.063610	-0.503333	-0.546554
C35	C	1.063629	-0.503302	-0.628353
C36	C	1.063632	-0.230835	-0.354630
C37	C	1.063660	-0.114682	-0.354643
C38	C	1.110732	-0.436407	-0.816561
C39	C	1.110741	-0.436376	-0.893420
C40	C	1.016579	-0.570036	-0.893383
C41	C	1.016567	-0.570060	-0.816526
C42	C	1.063648	-0.503247	-0.778117
C43	C	1.063668	-0.503192	-0.931833
C44	C	1.063678	-0.503160	-1.015167
C45	C	1.063638	-0.503278	-0.694778
C46	C	1.063563	-0.503401	-0.163395
C47	C	1.063687	-0.503138	-0.081597
H48	H	0.633639	-0.381993	-0.269358
H49	H	1.146639	-0.898288	-0.271671
C50	C	1.150216	-1.230277	-0.268367
C51	C	1.160170	-1.122984	-0.258340
H52	H	1.182195	-1.267376	-0.236514
H53	H	1.100787	-1.248197	-0.257536
H54	H	1.160928	-1.248025	-0.317849
H55	H	1.149452	-1.105235	-0.208859
H56	H	1.209610	-1.105056	-0.269166
H57	H	1.025323	-1.070167	-0.392891
H58	H	1.149080	-0.381946	-0.924717
H59	H	0.978249	-0.624435	-0.924666
H60	H	1.025275	-0.935621	-0.392873
C61	C	1.120968	-0.295868	-0.730150
C62	C	1.162473	-0.362956	-0.774340
H63	H	1.152912	-0.250523	-0.704084
H64	H	1.088922	-0.255893	-0.760133
H65	H	1.092931	-0.335692	-0.696254
H66	H	1.190507	-0.323131	-0.808240
H67	H	1.194533	-0.402935	-0.744354
C68	C	0.594677	-0.702606	-0.494489
C69	C	0.644631	-0.643876	-0.453241
H70	H	0.620761	-0.748004	-0.526380
H71	H	0.564684	-0.742527	-0.462381
H72	H	0.564715	-0.657113	-0.522689
H73	H	0.674589	-0.689369	-0.425036
H74	H	0.674637	-0.603952	-0.485352
C75	C	0.407716	-0.629764	-0.443341
C76	C	0.483293	-0.643890	-0.453251
H77	H	0.381648	-0.675172	-0.475234
H78	H	0.395099	-0.644972	-0.393884
H79	H	0.395144	-0.559567	-0.454198
H80	H	0.495866	-0.714085	-0.442389
H81	H	0.495916	-0.628689	-0.502720
C82	C	0.407676	-0.377085	-0.265908
C83	C	0.483250	-0.362946	-0.255984
H84	H	0.381594	-0.331679	-0.234021
H85	H	0.395108	-0.361881	-0.315368
H86	H	0.395074	-0.447283	-0.255052
H87	H	0.495854	-0.292750	-0.266845
H88	H	0.495824	-0.378143	-0.206513
C89	C	0.923497	-0.702191	-0.824204
C90	C	0.964811	-0.643542	-0.774262
H91	H	0.891550	-0.747555	-0.798111
H92	H	0.895360	-0.656653	-0.854180
H93	H	0.955564	-0.742154	-0.854184
H94	H	0.932744	-0.603573	-0.744286
H95	H	0.992950	-0.689086	-0.744274
