data_functionalizedCrystal
_audit_creation_method	'MofGen! by Chris Wilmer'
_symmetry_space_group_name_H-M	'P1'
_symmetry_Int_Tables_number	1
_symmetry_cell_setting	triclinic
loop_
_symmetry_equiv_pos_as_xyz
  x,y,z
_cell_length_a	19.805407
_cell_length_b	29.839126
_cell_length_c	19.805405
_cell_angle_alpha	90.023889
_cell_angle_beta	89.973590
_cell_angle_gamma	89.979144
loop_
_atom_site_label
_atom_site_type_symbol
_atom_site_fract_x
_atom_site_fract_y
_atom_site_fract_z
Zn1	Zn	1.034744	-0.254021	0.269515
Zn2	Zn	1.034657	-0.178891	0.382693
Zn3	Zn	0.921556	-0.178902	0.269523
Zn4	Zn	0.921522	-0.253991	0.382667
O5	O	0.978120	-0.216451	0.326100
O6	O	1.129449	-0.244063	0.284536
O7	O	1.019631	-0.116025	0.367694
O8	O	0.936622	-0.188883	0.174805
O9	O	1.129385	-0.188865	0.367687
O10	O	1.019781	-0.244073	0.174799
O11	O	0.936537	-0.116033	0.284549
O12	O	0.826835	-0.188854	0.284525
O13	O	0.936564	-0.316862	0.367644
O14	O	0.826810	-0.244022	0.367651
O15	O	1.019748	-0.316884	0.284511
O16	O	1.019598	-0.188836	0.477406
O17	O	0.936479	-0.244012	0.477387
C18	C	0.802264	-0.216437	0.326087
C19	C	0.727032	-0.216441	0.326097
C20	C	0.978162	-0.333629	0.326074
C21	C	0.978180	-0.383564	0.326063
C22	C	0.691692	-0.245120	0.369447
C23	C	0.621004	-0.245127	0.369448
C24	C	0.585656	-0.216451	0.326103
C25	C	0.621001	-0.187770	0.282749
C26	C	0.691688	-0.187767	0.282745
C27	C	0.335927	-0.187785	0.282764
C28	C	0.265235	-0.187790	0.282772
C29	C	0.265244	-0.245145	0.369467
C30	C	0.335931	-0.245141	0.369463
C31	C	0.371269	-0.216463	0.326107
C32	C	0.447917	-0.216457	0.326105
C33	C	0.509009	-0.216454	0.326107
C34	C	0.934926	-0.693214	0.282701
C35	C	0.934945	-0.880888	0.282654
O36	O	0.898135	-0.905158	0.245854
N37	N	0.978212	-0.904349	0.325936
C38	C	1.021473	-0.880890	0.369235
O39	O	1.058270	-0.905151	0.406052
C40	C	1.021450	-0.693217	0.369285
C41	C	0.978186	-0.669758	0.325996
C42	C	0.891664	-0.669755	0.239416
C43	C	0.891663	-0.622840	0.239426
C44	C	0.934922	-0.599383	0.282720
C45	C	0.978184	-0.622843	0.326005
C46	C	1.064708	-0.669759	0.412587
C47	C	1.064697	-0.622838	0.412597
C48	C	1.021433	-0.599378	0.369308
C49	C	1.021442	-0.552471	0.369310
N50	N	0.978176	-0.529009	0.326028
C51	C	0.934916	-0.552466	0.282733
C52	C	1.021483	-0.979420	0.369205
C53	C	1.021490	-1.026338	0.369192
C54	C	0.934961	-1.026333	0.282611
C55	C	0.934958	-0.979414	0.282622
C56	C	0.978217	-0.955959	0.325923
C57	C	0.934916	-0.453940	0.282756
C58	C	0.934920	-0.407020	0.282768
C59	C	1.021446	-0.407030	0.369350
C60	C	1.021445	-0.453945	0.369337
C61	C	0.978174	-0.477399	0.326037
O62	O	1.058227	-0.528171	0.406096
O63	O	0.898114	-0.528196	0.245932
C64	C	0.934928	-0.740130	0.282692
C65	C	0.978189	-0.763589	0.325977
C66	C	1.021449	-0.740133	0.369271
C67	C	0.978196	-0.810507	0.325963
C68	C	0.934936	-0.833963	0.282669
C69	C	0.891670	-0.810502	0.239387
C70	C	0.891668	-0.763586	0.239397
C71	C	1.064716	-0.763595	0.412553
C72	C	1.064714	-0.810510	0.412539
C73	C	1.021455	-0.833966	0.369244
C74	C	1.154663	-0.216466	0.326113
C75	C	1.229895	-0.216472	0.326119
C76	C	0.978044	-0.216429	0.501956
C77	C	0.978073	-0.216435	0.577188
C78	C	0.978117	-0.099729	0.326077
C79	C	0.978230	-0.049794	0.325897
C80	C	0.978215	-0.216483	0.149557
C81	C	0.978255	-0.216496	0.074325
C82	C	1.021395	-0.187735	0.612519
C83	C	1.021424	-0.187745	0.683207
C84	C	0.978127	-0.216453	0.718563
C85	C	0.934803	-0.245156	0.683227
C86	C	0.934778	-0.245148	0.612540
C87	C	0.934902	-0.245189	0.968300
C88	C	0.934929	-0.245194	1.038992
C89	C	1.021549	-0.187786	1.038968
C90	C	1.021524	-0.187778	0.968281
C91	C	0.978203	-0.216483	0.932950
C92	C	0.978173	-0.216472	0.856302
C93	C	0.978152	-0.216462	0.795210
H94	H	0.720467	-0.268470	0.404746
H95	H	1.056701	-0.164374	0.711971
H96	H	0.899627	-0.268561	0.939540
H97	H	0.899501	-0.268519	0.583774
H98	H	0.236463	-0.268498	0.404767
C99	C	0.887320	-0.479732	0.235121
N100	N	0.851475	-0.499159	0.199238
C101	C	0.887371	-1.052143	0.234991
N102	N	0.851524	-1.071586	0.199129
C103	C	0.844076	-0.695550	0.191779
N104	N	0.808234	-0.714975	0.155891
C105	C	0.887173	-0.276733	0.722121
N106	N	0.851294	-0.300516	0.751415
H107	H	0.856449	-0.829608	0.204132
H108	H	1.056682	-0.473047	0.404579
H109	H	1.056669	-0.387923	0.404598
H110	H	1.056778	-0.164400	0.939496
C111	C	0.374790	-0.156235	0.235075
N112	N	0.404064	-0.132469	0.199154
H113	H	0.236457	-0.164439	0.247471
H114	H	0.592215	-0.164424	0.247453
C115	C	1.112312	-0.836310	0.460164
N116	N	1.148157	-0.855741	0.496040
H117	H	1.099941	-0.744501	0.447812
H118	H	0.592234	-0.268480	0.404748
H119	H	0.364707	-0.268491	0.404761
H120	H	0.720460	-0.164415	0.247442
C121	C	1.069025	-0.156153	0.573634
N122	N	1.104903	-0.132365	0.544348
C123	C	1.112299	-0.695553	0.460214
N124	N	1.148145	-0.714981	0.496092
C125	C	1.069090	-1.052138	0.416808
N126	N	1.104940	-1.071569	0.452677
C127	C	0.887322	-0.381218	0.235146
N128	N	0.851470	-0.361785	0.199280
C129	C	0.887300	-0.276779	1.077882
N130	N	0.851428	-0.300567	1.107174
C131	C	0.844061	-0.597041	0.191810
N132	N	0.808203	-0.577612	0.155946
C133	C	0.887360	-0.953613	0.235005
N134	N	0.851505	-0.934182	0.199140
C135	C	1.069098	-0.953625	0.416820
N136	N	1.104972	-0.934199	0.452674
C137	C	1.069207	-0.156213	1.077837
N138	N	1.105100	-0.132431	1.107113
C139	C	1.112291	-0.597040	0.460230
N140	N	1.148141	-0.577610	0.496103
H141	H	0.856437	-0.744490	0.204146
