data_functionalizedCrystal
_audit_creation_method	'MofGen! by Chris Wilmer'
_symmetry_space_group_name_H-M	'P1'
_symmetry_Int_Tables_number	1
_symmetry_cell_setting	triclinic
loop_
_symmetry_equiv_pos_as_xyz
  x,y,z
_cell_length_a	10.540539
_cell_length_b	17.699104
_cell_length_c	9.016244
_cell_angle_alpha	89.994508
_cell_angle_beta	90.003718
_cell_angle_gamma	83.908504
loop_
_atom_site_label
_atom_site_type_symbol
_atom_site_fract_x
_atom_site_fract_y
_atom_site_fract_z
O1	O	0.160632	1.005111	-0.123363
O2	O	0.181488	0.784871	-0.123359
O3	O	-0.013738	0.900016	-0.123359
O4	O	0.355858	0.889966	-0.123363
O5	O	-0.013720	0.900004	0.123321
O6	O	0.181506	0.784859	0.123322
O7	O	0.160649	1.005099	0.123317
Cu8	Cu	0.171079	0.894978	0.145843
Cu9	Cu	0.171058	0.894992	-0.145885
O10	O	0.355875	0.889954	0.123318
C11	C	0.180745	0.756663	-0.000018
C12	C	0.178489	0.672631	-0.000017
C13	C	0.280363	0.148423	-0.000033
C14	C	0.282475	0.227380	-0.000037
C15	C	0.167870	0.275252	-0.000036
C16	C	0.051145	0.244164	-0.000045
C17	C	0.049035	0.165208	-0.000052
C18	C	0.059653	0.562585	-0.000022
C19	C	0.061773	0.641546	-0.000011
C20	C	0.293093	0.624757	-0.000007
C21	C	0.290983	0.545801	-0.000014
C22	C	0.174259	0.514720	-0.000031
C23	C	0.171971	0.429105	-0.000029
C24	C	0.170157	0.360866	-0.000027
C25	C	-0.061019	0.899256	-0.000022
C26	C	-0.201926	0.897001	-0.000030
C27	C	-0.383783	0.810603	-0.000582
C28	C	-0.237207	0.812889	-0.000026
C29	C	-0.264309	0.937473	0.140836
C30	C	-0.410801	0.934603	0.140955
C31	C	-0.411370	0.936327	-0.139567
C32	C	-0.264403	0.937102	-0.141430
C33	C	0.403156	0.890714	-0.000023
C34	C	0.544063	0.892969	-0.000025
C35	C	0.161392	1.033307	-0.000027
C36	C	0.163648	1.117339	-0.000038
N37	N	0.171093	0.894974	0.351030
C38	C	0.275512	0.833351	0.414000
C39	C	0.275223	0.833139	0.585891
C40	C	0.038504	0.877350	0.586506
C41	C	0.039137	0.876897	0.414562
C42	C	0.198029	0.974423	0.414365
C43	C	0.201019	0.973917	0.586321
N44	N	0.171058	0.894991	0.648929
H45	H	0.388135	0.650073	0.000000
H46	H	0.129910	1.021961	0.629230
N47	N	-0.061850	0.693176	-0.000023
H48	H	-0.066125	0.726318	-0.091462
H49	H	-0.066057	0.726251	0.091488
H50	H	0.257971	0.774196	0.627055
H51	H	-0.413382	0.777507	0.099871
H52	H	-0.035390	0.537288	-0.000032
H53	H	-0.241296	0.998426	-0.149937
N54	N	0.006348	0.801462	0.643560
H55	H	-0.079109	0.790619	0.602772
H56	H	0.002535	0.802720	0.755469
N57	N	-0.066963	0.934030	0.359423
H58	H	-0.128293	0.907273	0.297378
H59	H	-0.029701	0.973686	0.297208
H60	H	0.015443	0.818943	0.374485
N61	N	-0.066939	0.935204	0.640575
H62	H	-0.029707	0.973496	0.706214
H63	H	-0.130983	0.908658	0.698869
N64	N	-0.475790	1.014730	0.149459
H65	H	-0.530189	1.020552	0.241798
H66	H	-0.531413	1.025519	0.059105
N67	N	-0.447427	0.894968	0.280435
H68	H	-0.402480	0.841665	0.282815
H69	H	-0.542772	0.892764	0.281829
H70	H	0.374374	0.843744	0.372668
H71	H	-0.243076	0.999243	0.146073
H72	H	-0.042168	0.283148	-0.000053
N73	N	-0.420875	0.766586	-0.134378
H74	H	-0.398210	0.793672	-0.227763
H75	H	-0.515763	0.762701	-0.132294
H76	H	0.258517	0.774734	0.370822
H77	H	0.292648	0.991268	0.371011
H78	H	0.384306	0.506827	-0.000007
N79	N	-0.475371	1.016805	-0.140836
H80	H	-0.570987	1.016021	-0.144686
H81	H	-0.446268	1.044331	-0.230727
N82	N	0.330189	0.991641	0.640345
H83	H	0.369145	0.948730	0.705109
H84	H	0.320163	1.040349	0.699542
N85	N	0.405724	0.847130	0.641816
H86	H	0.463958	0.853491	0.554771
H87	H	0.442019	0.802483	0.703916
H88	H	0.121888	1.020286	0.373629
H89	H	-0.046007	0.139901	-0.000059
N90	N	-0.180013	0.770705	-0.133781
H91	H	-0.217293	0.795572	-0.227157
H92	H	-0.199981	0.716176	-0.129984
H93	H	0.373688	0.109450	-0.000023
H94	H	0.377516	0.252684	-0.000047
H95	H	-0.194861	0.780810	0.101121
H96	H	-0.221191	0.909350	0.245665
N97	N	-0.452520	0.900281	-0.280999
H98	H	-0.500477	0.855475	-0.256043
H99	H	-0.374768	0.882473	-0.342126
H100	H	-0.223014	0.907489	-0.245638
