data_functionalizedCrystal
_audit_creation_method	'MofGen! by Chris Wilmer'
_symmetry_space_group_name_H-M	'P1'
_symmetry_Int_Tables_number	1
_symmetry_cell_setting	triclinic
loop_
_symmetry_equiv_pos_as_xyz
  x,y,z
_cell_length_a	14.853567
_cell_length_b	17.699083
_cell_length_c	16.776229
_cell_angle_alpha	90.006428
_cell_angle_beta	89.997147
_cell_angle_gamma	96.541194
loop_
_atom_site_label
_atom_site_type_symbol
_atom_site_fract_x
_atom_site_fract_y
_atom_site_fract_z
O1	O	0.114005	-1.004375	-0.066268
O2	O	0.614005	-0.504375	0.433732
O3	O	0.128838	-0.784035	-0.066272
O4	O	0.628838	-0.284035	0.433728
O5	O	-0.009830	-0.900090	-0.066272
O6	O	0.490170	-0.400090	0.433728
O7	O	0.252673	-0.888319	-0.066268
O8	O	0.752673	-0.388319	0.433732
O9	O	-0.009839	-0.900075	0.066304
O10	O	0.490161	-0.400075	0.566304
O11	O	0.128830	-0.784019	0.066305
O12	O	0.628830	-0.284019	0.566305
O13	O	0.113996	-1.004359	0.066308
O14	O	0.613996	-0.504359	0.566308
Zn15	Zn	0.121412	-0.894187	0.087356
Zn16	Zn	0.621412	-0.394187	0.587356
Zn17	Zn	0.121423	-0.894207	-0.087319
Zn18	Zn	0.621423	-0.394207	0.412681
O19	O	0.252664	-0.888304	0.066309
O20	O	0.752664	-0.388304	0.566309
C21	C	0.128302	-0.755829	0.000016
C22	C	0.628302	-0.255829	0.500016
C23	C	0.126708	-0.671806	0.000014
C24	C	0.626708	-0.171806	0.500014
C25	C	0.125953	-0.632329	0.072282
C26	C	0.625953	-0.132329	0.572282
C27	C	0.124440	-0.553382	0.072283
C28	C	0.624440	-0.053382	0.572283
C29	C	0.123690	-0.513915	0.000015
C30	C	0.623690	-0.013915	0.500015
C31	C	0.124443	-0.553398	-0.072259
C32	C	0.624443	-0.053398	0.427741
C33	C	0.125949	-0.632344	-0.072259
C34	C	0.625949	-0.132344	0.427741
C35	C	0.118369	-0.235020	-0.072262
C36	C	0.618369	0.264980	0.427738
C37	C	0.116866	-0.156068	-0.072256
C38	C	0.616866	0.343932	0.427744
C39	C	0.116860	-0.156059	0.072280
C40	C	0.616860	0.343941	0.572280
C41	C	0.118366	-0.235004	0.072280
C42	C	0.618366	0.264996	0.572280
C43	C	0.119115	-0.274481	0.000007
C44	C	0.619115	0.225519	0.500007
C45	C	0.120753	-0.360084	0.000007
C46	C	0.620753	0.139916	0.500007
C47	C	0.122059	-0.428313	0.000014
C48	C	0.622059	0.071687	0.500014
C49	C	-0.043421	-0.899549	0.000014
C50	C	0.456579	-0.399549	0.500014
C51	C	-0.143499	-0.897951	0.000007
C52	C	0.356501	-0.397951	0.500007
C53	C	-0.555754	-0.822255	0.000021
C54	C	-0.055754	-0.322255	0.500021
C55	C	-0.577543	-0.960132	0.000023
C56	C	-0.077543	-0.460132	0.500023
C57	C	-0.483515	-0.961635	0.000018
C58	C	0.016485	-0.461635	0.500018
C59	C	-0.425601	-0.893447	0.000016
C60	C	0.074399	-0.393447	0.500016
C61	C	-0.461716	-0.823756	0.000018
C62	C	0.038284	-0.323756	0.500018
C63	C	-0.447392	-1.031324	0.000024
C64	C	0.052608	-0.531324	0.500024
C65	C	-0.353359	-1.032830	0.000020
C66	C	0.146641	-0.532830	0.500020
C67	C	-0.295444	-0.964641	0.000012
C68	C	0.204556	-0.464641	0.500012
C69	C	-0.331564	-0.894947	0.000014
C70	C	0.168436	-0.394947	0.500014
C71	C	-0.273651	-0.826759	0.000011
C72	C	0.226349	-0.326759	0.500011
C73	C	-0.309770	-0.757065	0.000007
C74	C	0.190230	-0.257065	0.500007
C75	C	-0.403801	-0.755567	0.000010
C76	C	0.096199	-0.255567	0.500010
C77	C	-0.201412	-0.966139	0.000009
C78	C	0.298588	-0.466139	0.500009
C79	C	-0.179614	-0.828260	0.000009
C80	C	0.320386	-0.328260	0.500009
C81	C	0.286255	-0.888845	0.000021
C82	C	0.786255	-0.388845	0.500021
C83	C	0.386333	-0.890443	0.000023
C84	C	0.886333	-0.390443	0.500023
C85	C	0.114526	-0.032566	0.000018
C86	C	0.614526	0.467434	0.500018
C87	C	0.116104	-0.116590	0.000013
C88	C	0.616104	0.383410	0.500013
N89	N	0.121403	-0.894179	0.206567
N90	N	0.621403	-0.394179	0.706567
N91	N	0.121424	-0.894222	-0.206530
N92	N	0.621424	-0.394222	0.293470
C93	C	0.060026	-0.945584	0.248284
C94	C	0.560026	-0.445584	0.748284
C95	C	0.060025	-0.945588	0.331736
C96	C	0.560025	-0.445588	0.831736
C97	C	0.121407	-0.894190	0.373470
C98	C	0.621407	-0.394190	0.873470
C99	C	0.182787	-0.842779	0.331747
C100	C	0.682787	-0.342779	0.831747
C101	C	0.182783	-0.842772	0.248297
C102	C	0.682783	-0.342772	0.748297
C103	C	0.182805	-0.842807	0.668295
C104	C	0.682805	-0.342807	1.168295
C105	C	0.182806	-0.842819	0.751751
C106	C	0.682806	-0.342819	1.251751
C107	C	0.060047	-0.945622	0.751734
C108	C	0.560047	-0.445622	1.251734
C109	C	0.060043	-0.945615	0.668283
C110	C	0.560043	-0.445615	1.168283
C111	C	0.121420	-0.894202	0.626568
C112	C	0.621420	-0.394202	1.126568
C113	C	0.121419	-0.894197	0.536080
C114	C	0.621419	-0.394197	1.036080
C115	C	0.121413	-0.894198	0.463957
C116	C	0.621413	-0.394198	0.963957
H117	H	0.123810	-0.521245	0.131131
H118	H	0.623810	-0.021245	0.631131
H119	H	-0.585166	-0.765512	0.000014
H120	H	-0.085166	-0.265512	0.500014
H121	H	0.010047	-0.987445	0.365702
H122	H	0.510047	-0.487445	0.865702
H123	H	0.118976	-0.267153	-0.131111
H124	H	0.618976	0.232847	0.368889
N125	N	0.248989	-0.787332	0.203301
N126	N	0.748989	-0.287332	0.703301
H127	H	0.239671	-0.795124	0.144103
H128	H	0.739671	-0.295124	0.644103
H129	H	0.238653	-0.733634	0.217902
H130	H	0.738653	-0.233634	0.717902
N131	N	0.126771	-0.674894	0.150230
N132	N	0.626771	-0.174894	0.650230
H133	H	0.126061	-0.637903	0.196011
H134	H	0.626061	-0.137903	0.696011
H135	H	0.071531	-0.713730	0.153379
H136	H	0.571531	-0.213730	0.653379
H137	H	0.010068	-0.987484	0.785708
H138	H	0.510068	-0.487484	1.285708
H139	H	0.232762	-0.800926	0.365732
H140	H	0.732762	-0.300926	0.865732
H141	H	-0.323960	-1.089579	0.000023
H142	H	0.176040	-0.589579	0.500023
H143	H	0.118981	-0.267135	0.131129
H144	H	0.618981	0.232865	0.631129
H145	H	0.116247	-0.123907	0.131129
H146	H	0.616247	0.376093	0.631129
N147	N	0.249016	-0.787368	0.623310
N148	N	0.749016	-0.287368	1.123310
H149	H	0.239703	-0.795157	0.564112
H150	H	0.739703	-0.295157	1.064112
H151	H	0.238688	-0.733669	0.637912
H152	H	0.738688	-0.233669	1.137912
N153	N	-0.640000	-1.033674	0.000038
N154	N	-0.140000	-0.533674	0.500038
H155	H	-0.705050	-1.022148	0.000044
H156	H	-0.205050	-0.522148	0.500044
H157	H	-0.628329	-1.064050	-0.049109
H158	H	-0.128329	-0.564050	0.450891
H159	H	0.232792	-0.800962	0.785729
H160	H	0.732792	-0.300962	1.285729
N161	N	-0.162454	-1.041299	0.000023
N162	N	0.337546	-0.541299	0.500023
H163	H	-0.183580	-1.071190	-0.049118
H164	H	0.316420	-0.571190	0.450882
H165	H	-0.094104	-1.031838	0.000051
H166	H	0.405896	-0.531838	0.500051
N167	N	0.116054	-0.113497	-0.150206
N168	N	0.616054	0.386503	0.349794
H169	H	0.116754	-0.150484	-0.195992
H170	H	0.616754	0.349516	0.304008
H171	H	0.059564	-0.086821	-0.153346
H172	H	0.559564	0.413179	0.346654
N173	N	0.123623	-0.510835	-0.150208
N174	N	0.623623	-0.010835	0.349792
H175	H	0.122556	-0.454832	-0.139243
H176	H	0.622556	0.045168	0.360757
H177	H	0.179752	-0.518557	-0.181769
H178	H	0.679752	-0.018557	0.318231
N179	N	0.126771	-0.674929	-0.150203
N180	N	0.626771	-0.174929	0.349797
H181	H	0.071529	-0.713762	-0.153423
H182	H	0.571529	-0.213762	0.346577
H183	H	0.126102	-0.637899	-0.195942
H184	H	0.626102	-0.137899	0.304058
H185	H	-0.132466	-0.772732	0.000004
H186	H	0.367534	-0.272732	0.500004
N187	N	-0.247292	-0.683527	0.000020
N188	N	0.252708	-0.183527	0.500020
H189	H	-0.207783	-0.681084	-0.049121
H190	H	0.292217	-0.181084	0.450879
H191	H	-0.284491	-0.639185	0.000051
H192	H	0.215509	-0.139185	0.500051
N193	N	-0.006173	-1.001025	0.203274
N194	N	0.493827	-0.501025	0.703274
H195	H	-0.045056	-1.033589	0.242368
H196	H	0.454944	-0.533589	0.742368
H197	H	-0.045989	-0.972009	0.168659
H198	H	0.454011	-0.472009	0.668659
H199	H	0.010064	-0.987471	0.634306
H200	H	0.510064	-0.487471	1.134306
N201	N	-0.442757	-0.680402	0.000009
N202	N	0.057243	-0.180402	0.500009
H203	H	-0.511113	-0.689800	0.000016
H204	H	-0.011113	-0.189800	0.500016
H205	H	-0.421560	-0.650556	0.049157
H206	H	0.078440	-0.150556	0.549157
H207	H	-0.494552	-1.086839	0.000033
H208	H	0.005448	-0.586839	0.500033
