data_functionalizedCrystal
_audit_creation_method	'MofGen! by Chris Wilmer'
_symmetry_space_group_name_H-M	'P1'
_symmetry_Int_Tables_number	1
_symmetry_cell_setting	triclinic
loop_
_symmetry_equiv_pos_as_xyz
  x,y,z
_cell_length_a	17.699083
_cell_length_b	15.995350
_cell_length_c	16.176319
_cell_angle_alpha	89.995430
_cell_angle_beta	89.998611
_cell_angle_gamma	83.387695
loop_
_atom_site_label
_atom_site_type_symbol
_atom_site_fract_x
_atom_site_fract_y
_atom_site_fract_z
O1	O	1.004255	0.105885	-0.068627
O2	O	1.504255	0.605885	0.431373
O3	O	0.783899	0.119661	-0.068653
O4	O	1.283899	0.619661	0.431347
O5	O	0.900101	-0.009127	-0.068638
O6	O	1.400101	0.490873	0.431362
O7	O	0.888054	0.234673	-0.068641
O8	O	1.388054	0.734673	0.431359
O9	O	0.900085	-0.009135	0.068855
O10	O	1.400085	0.490865	0.568855
O11	O	0.783883	0.119653	0.068840
O12	O	1.283883	0.619653	0.568840
O13	O	1.004239	0.105877	0.068867
O14	O	1.504239	0.605877	0.568867
Cu15	Cu	0.894060	0.112764	0.081408
Cu16	Cu	1.394060	0.612764	0.581408
Cu17	Cu	0.894079	0.112774	-0.081194
Cu18	Cu	1.394079	0.612774	0.418806
O19	O	0.888038	0.234665	0.068852
O20	O	1.388038	0.734665	0.568852
C21	C	0.755694	0.119163	0.000090
C22	C	1.255694	0.619163	0.500090
C23	C	0.671673	0.117683	0.000080
C24	C	1.171673	0.617683	0.500080
C25	C	0.623178	0.193278	0.000079
C26	C	1.123178	0.693278	0.500079
C27	C	0.544232	0.191882	0.000090
C28	C	1.044232	0.691882	0.500090
C29	C	0.513783	0.114889	0.000095
C30	C	1.013783	0.614889	0.500095
C31	C	0.562285	0.039287	0.000098
C32	C	1.062285	0.539287	0.500098
C33	C	0.641229	0.040685	0.000094
C34	C	1.141229	0.540685	0.500094
C35	C	0.243912	0.033651	0.000119
C36	C	0.743912	0.533651	0.500119
C37	C	0.164962	0.032259	0.000121
C38	C	0.664962	0.532259	0.500121
C39	C	0.146916	0.184848	0.000115
C40	C	0.646916	0.684848	0.500115
C41	C	0.225860	0.186245	0.000110
C42	C	0.725860	0.686245	0.500110
C43	C	0.274354	0.110644	0.000118
C44	C	0.774354	0.610644	0.500118
C45	C	0.359956	0.112159	0.000108
C46	C	0.859956	0.612159	0.500108
C47	C	0.428183	0.113373	0.000099
C48	C	0.928183	0.613373	0.500099
C49	C	0.899595	-0.040324	0.000107
C50	C	1.399595	0.459676	0.500107
C51	C	0.898101	-0.133272	0.000102
C52	C	1.398101	0.366728	0.500102
C53	C	0.892739	-0.471008	0.000104
C54	C	1.392739	0.028992	0.500104
C55	C	0.809983	-0.423406	-0.000214
C56	C	1.309983	0.076594	0.499786
C57	C	0.811476	-0.326719	0.000096
C58	C	1.311476	0.173281	0.500096
C59	C	0.895399	-0.303453	0.000102
C60	C	1.395399	0.196547	0.500102
C61	C	0.936208	-0.344618	0.078621
C62	C	1.436208	0.155382	0.578621
C63	C	0.934129	-0.441250	0.078687
C64	C	1.434129	0.058750	0.578687
C65	C	0.935857	-0.441602	-0.077669
C66	C	1.435857	0.058398	0.422331
C67	C	0.935838	-0.344657	-0.078706
C68	C	1.435838	0.155343	0.421294
C69	C	0.896907	-0.208759	0.000104
C70	C	1.396907	0.291241	0.500104
C71	C	0.891234	-0.565703	0.000108
C72	C	1.391234	-0.065703	0.500108
C73	C	1.032445	0.106375	0.000122
C74	C	1.532445	0.606375	0.500122
C75	C	1.116465	0.107856	0.000126
C76	C	1.616465	0.607856	0.500126
C77	C	0.888544	0.265863	0.000105
C78	C	1.388544	0.765863	0.500105
C79	C	0.890037	0.358810	0.000104
C80	C	1.390037	0.858810	0.500104
N81	N	0.894052	0.112757	0.195773
N82	N	1.394052	0.612757	0.695773
N83	N	0.894092	0.112775	-0.195559
N84	N	1.394092	0.612775	0.304441
C85	C	0.945521	0.055753	0.239043
C86	C	1.445521	0.555753	0.739043
C87	C	0.945525	0.055752	0.325591
C88	C	1.445525	0.555752	0.825591
C89	C	0.894063	0.112760	0.368865
C90	C	1.394063	0.612760	0.868865
C91	C	0.842588	0.169767	0.325589
C92	C	1.342588	0.669767	0.825589
C93	C	0.842581	0.169763	0.239043
C94	C	1.342581	0.669763	0.739043
C95	C	0.842614	0.169782	0.674617
C96	C	1.342614	0.669782	1.174617
C97	C	0.842626	0.169783	0.761168
C98	C	1.342626	0.669783	1.261168
C99	C	0.945558	0.055772	0.761164
C100	C	1.445558	0.555772	1.261164
C101	C	0.945551	0.055768	0.674619
C102	C	1.445551	0.555768	1.174619
C103	C	0.894074	0.112771	0.631350
C104	C	1.394074	0.612771	1.131350
C105	C	0.894069	0.112770	0.537505
C106	C	1.394069	0.612770	1.037505
C107	C	0.894070	0.112765	0.462708
C108	C	1.394070	0.612765	0.962708
H109	H	0.250646	0.248941	0.000102
H110	H	0.750646	0.748941	0.500102
N111	N	0.133871	-0.046399	0.000125
N112	N	0.633871	0.453601	0.500125
N113	N	0.177177	-0.113894	0.000131
N114	N	0.677177	0.386106	0.500131
H115	H	0.155219	-0.169444	0.000132
H116	H	0.655219	0.330556	0.500132
H117	H	0.777046	-0.442936	0.055772
H118	H	1.277046	0.057064	0.555772
N119	N	0.790036	0.228025	0.630443
N120	N	1.290036	0.728025	1.130443
N121	N	0.791072	0.305417	0.640107
N122	N	1.291072	0.805417	1.140107
H123	H	0.753936	0.346556	0.608909
H124	H	1.253936	0.846556	1.108909
N125	N	0.998078	-0.002482	0.369812
N126	N	1.498078	0.497518	0.869812
N127	N	1.045050	0.023993	0.418124
N128	N	1.545050	0.523993	0.918124
H129	H	1.082155	-0.017144	0.449364
H130	H	1.582155	0.482856	0.949364
N131	N	0.770945	-0.291690	0.070819
N132	N	1.270945	0.208310	0.570819
N133	N	0.741471	-0.338662	0.120106
N134	N	1.241471	0.161338	0.620106
H135	H	0.712846	-0.313924	0.170059
H136	H	1.212846	0.186076	0.670059
N137	N	0.293430	-0.043579	0.000123
N138	N	0.793430	0.456421	0.500123
N139	N	0.266231	-0.112314	0.000123
N140	N	0.766231	0.387686	0.500123
H141	H	0.301206	-0.166862	0.000124
H142	H	0.801206	0.333138	0.500124
N143	N	0.690780	-0.036526	0.000100
N144	N	1.190780	0.463474	0.500100
N145	N	0.736846	-0.052767	0.058058
N146	N	1.236846	0.447233	0.558058
H147	H	0.771844	-0.107298	0.058067
H148	H	1.271844	0.392702	0.558067
H149	H	0.537487	-0.023402	0.000115
H150	H	1.037487	0.476598	0.500115
N151	N	1.013549	-0.327037	0.082289
N152	N	1.513549	0.172963	0.582289
N153	N	1.028378	-0.252580	0.085752
N154	N	1.528378	0.247420	0.585752
H155	H	1.083000	-0.240159	0.088340
H156	H	1.583000	0.259841	0.588340
H157	H	0.996873	-0.473487	-0.078191
H158	H	1.496873	0.026513	0.421809
N159	N	0.896780	-0.464130	0.152313
N160	N	1.396780	0.035870	0.652313
N161	N	0.872426	-0.408758	0.203291
N162	N	1.372426	0.091242	0.703291
H163	H	0.846047	-0.424912	0.255291
H164	H	1.346047	0.075088	0.755291
H165	H	0.987431	0.009334	0.203815
H166	H	1.487431	0.509334	0.703815
N167	N	0.790019	0.227987	0.369803
N168	N	1.290019	0.727987	0.869803
N169	N	0.790031	0.227984	0.447075
N170	N	1.290031	0.727984	0.947075
H171	H	0.752904	0.269105	0.478301
H172	H	1.252904	0.769105	0.978301
H173	H	0.987459	0.009350	0.639387
H174	H	1.487459	0.509350	1.139387
N175	N	1.010350	-0.481853	0.083173
N176	N	1.510350	0.018147	0.583173
N177	N	1.064909	-0.438796	0.086251
N178	N	1.564909	0.061204	0.586251
H179	H	1.118740	-0.467468	0.089426
H180	H	1.618740	0.032532	0.589426
H181	H	0.800716	0.216208	0.796401
H182	H	1.300716	0.716208	1.296401
H183	H	0.800668	0.216180	0.203813
H184	H	1.300668	0.716180	0.703813
N185	N	0.097367	0.262068	0.000110
N186	N	0.597367	0.762068	0.500110
N187	N	0.026883	0.260815	0.000116
N188	N	0.526883	0.760815	0.500116
H189	H	-0.008110	0.315350	0.000109
H190	H	0.491890	0.815350	0.500109
H191	H	0.647962	0.255975	0.000074
H192	H	1.147962	0.755975	0.500074
H193	H	0.504750	0.253440	0.000088
H194	H	1.004750	0.753440	0.500088
H195	H	0.987471	0.009354	0.796403
H196	H	1.487471	0.509354	1.296403
H197	H	0.997038	-0.329419	-0.083442
H198	H	1.497038	0.170581	0.416558
N199	N	0.771229	-0.290984	-0.070515
N200	N	1.271229	0.209016	0.429485
N201	N	0.741837	-0.337446	-0.120368
N202	N	1.241837	0.162554	0.379632
H203	H	0.713406	-0.312212	-0.170237
H204	H	1.213406	0.187788	0.329763
N205	N	0.768504	-0.446562	-0.070859
N206	N	1.268504	0.053438	0.429141
N207	N	0.799446	-0.498423	-0.121797
N208	N	1.299446	0.001577	0.378203
H209	H	0.770152	-0.514780	-0.171695
H210	H	1.270152	-0.014780	0.328305
N211	N	0.900648	-0.308960	0.151928
N212	N	1.400648	0.191040	0.651928
N213	N	0.938320	-0.271906	0.202735
N214	N	1.438320	0.228094	0.702735
H215	H	0.913202	-0.246723	0.254507
H216	H	1.413202	0.253277	0.754507
H217	H	0.908807	-0.462083	-0.137181
H218	H	1.408807	0.037917	0.362819
H219	H	0.906001	-0.317344	-0.136792
H220	H	1.406001	0.182656	0.363208
