data_functionalizedCrystal
_audit_creation_method	'MofGen! by Chris Wilmer'
_symmetry_space_group_name_H-M	'P1'
_symmetry_Int_Tables_number	1
_symmetry_cell_setting	triclinic
loop_
_symmetry_equiv_pos_as_xyz
  x,y,z
_cell_length_a	12.759401
_cell_length_b	21.295417
_cell_length_c	21.295411
_cell_angle_alpha	90.021644
_cell_angle_beta	90.022735
_cell_angle_gamma	90.032032
loop_
_atom_site_label
_atom_site_type_symbol
_atom_site_fract_x
_atom_site_fract_y
_atom_site_fract_z
Zn1	Zn	1.606170	-0.250655	0.355881
Zn2	Zn	1.606007	-0.355907	0.250606
Zn3	Zn	1.430463	-0.250659	0.250629
Zn4	Zn	1.430412	-0.355893	0.355841
O5	O	1.518263	-0.303279	0.303239
O6	O	1.753169	-0.264622	0.341923
O7	O	1.582674	-0.341953	0.162520
O8	O	1.453860	-0.162569	0.264617
O9	O	1.753049	-0.341950	0.264578
O10	O	1.582951	-0.162566	0.341945
O11	O	1.453702	-0.264627	0.162537
O12	O	1.283435	-0.264614	0.264579
O13	O	1.453773	-0.341926	0.443936
O14	O	1.283397	-0.341929	0.341878
O15	O	1.582902	-0.264608	0.443965
O16	O	1.582624	-0.443995	0.264540
O17	O	1.453615	-0.443985	0.341855
C18	C	1.245295	-0.303271	0.303227
C19	C	1.128519	-0.303283	0.303236
C20	C	1.073665	-0.343602	0.343423
C21	C	0.963941	-0.343605	0.343435
C22	C	0.963934	-0.262966	0.263070
C23	C	1.073656	-0.262961	0.263061
C24	C	0.814038	-0.366213	0.417644
C25	C	0.759180	-0.406543	0.457825
C26	C	0.794750	-0.467978	0.467372
C27	C	0.885176	-0.489097	0.436730
C28	C	0.940028	-0.448771	0.396544
C29	C	0.904460	-0.387327	0.387009
C30	C	1.223561	-0.240359	0.188851
C31	C	1.278415	-0.200036	0.148662
C32	C	1.242847	-0.138599	0.139108
C33	C	1.152418	-0.117483	0.169740
C34	C	1.097564	-0.157806	0.209929
C35	C	1.133139	-0.219242	0.219483
C36	C	1.518125	-0.466830	0.303204
C37	C	1.518162	-0.536798	0.303211
C38	C	1.585397	-0.569649	0.262994
C39	C	1.585446	-0.635392	0.263008
C40	C	1.518242	-0.668281	0.303232
C41	C	1.451002	-0.635422	0.343457
C42	C	1.450963	-0.569681	0.343446
N43	N	1.426335	-0.771549	0.308027
N44	N	1.426376	-0.834000	0.308034
C45	C	1.518360	-0.866356	0.303268
N46	N	1.610303	-0.833900	0.298484
N47	N	1.610261	-0.771443	0.298474
C48	C	1.518278	-0.739566	0.303249
C49	C	1.585653	-0.970492	0.263065
C50	C	1.585704	-1.036236	0.263083
C51	C	1.451251	-1.036265	0.343529
C52	C	1.451210	-0.970522	0.343514
C53	C	1.518409	-0.937640	0.303278
C54	C	1.792296	-0.303287	0.303252
C55	C	1.909073	-0.303290	0.303258
C56	C	1.518350	-0.303265	0.467430
C57	C	1.518387	-0.303260	0.537398
C58	C	1.518430	-0.139088	0.303288
C59	C	1.518501	-0.069120	0.303309
C60	C	1.518236	-0.303246	0.139688
C61	C	1.518403	-0.303075	0.069720
C62	C	1.585621	-0.262998	0.570281
C63	C	1.585620	-0.262971	0.636023
C64	C	1.518395	-0.303216	0.668880
C65	C	1.451148	-0.343480	0.635990
C66	C	1.451144	-0.343502	0.570248
N67	N	1.510289	-0.358284	0.772096
N68	N	1.510299	-0.358262	0.834547
C69	C	1.518402	-0.303152	0.866955
N70	N	1.526514	-0.248065	0.834552
N71	N	1.526510	-0.248088	0.772095
C72	C	1.518392	-0.303197	0.740166
C73	C	1.585638	-0.262858	0.971124
C74	C	1.585629	-0.262830	1.036867
C75	C	1.451163	-0.343345	1.036833
C76	C	1.451166	-0.343368	0.971090
C77	C	1.518409	-0.303125	0.938240
H78	H	1.118330	-0.376433	0.376138
H79	H	0.750078	-0.500814	0.500089
C80	C	1.309835	-0.352133	0.897129
C81	C	1.377268	-0.387629	0.934940
H82	H	1.264206	-0.379460	0.874814
H83	H	1.349875	-0.328174	0.868157
H84	H	1.269679	-0.324700	0.922774
H85	H	1.417429	-0.415060	0.909294
H86	H	1.337224	-0.411599	0.963915
H87	H	1.396389	-0.376287	0.543476
C88	C	1.718541	-0.183265	0.977759
C89	C	1.659537	-0.218618	0.935009
H90	H	1.764157	-0.155950	0.955463
H91	H	1.758703	-0.210682	1.003407
H92	H	1.672777	-0.159179	1.003391
H93	H	1.705301	-0.242708	0.909379
H94	H	1.619373	-0.191197	0.909350
H95	H	1.287514	-0.105771	0.106377
C96	C	1.718320	-0.628767	0.183475
C97	C	1.659348	-0.671512	0.218794
H98	H	1.763937	-0.651066	0.156177
H99	H	1.758479	-0.603092	0.210915
H100	H	1.672536	-0.603160	0.159373
H101	H	1.705132	-0.697116	0.242899
H102	H	1.619186	-0.697198	0.191350
C103	C	1.014359	-0.523527	0.324866
C104	C	1.039414	-0.471975	0.362855
H105	H	1.075720	-0.537854	0.304071
H106	H	0.963593	-0.511359	0.294598
H107	H	0.986788	-0.556337	0.350168
H108	H	1.066978	-0.439164	0.337553
H109	H	1.090198	-0.484141	0.393126
H110	H	1.396416	-0.376107	1.063584
C111	C	1.185028	-0.350420	0.180508
C112	C	1.262659	-0.307895	0.199351
H113	H	1.209166	-0.392112	0.186992
H114	H	1.169942	-0.344383	0.137250
H115	H	1.123333	-0.343609	0.204511
H116	H	1.324353	-0.314703	0.175344
H117	H	1.277760	-0.313934	0.242617
C118	C	1.391206	-0.468918	0.379148
C119	C	1.377050	-0.533566	0.387654
H120	H	1.345578	-0.446623	0.406443
H121	H	1.375853	-0.458182	0.336848
H122	H	1.461786	-0.458106	0.388396
H123	H	1.306472	-0.544379	0.378402
H124	H	1.392395	-0.544306	0.429964
H125	H	0.914123	-0.539126	0.444501
C126	C	1.718559	-0.977064	0.183550
C127	C	1.659523	-0.934343	0.218843
H128	H	1.764166	-0.954747	0.156252
H129	H	1.672822	-1.002746	0.159454
H130	H	1.758741	-1.002667	0.211010
H131	H	1.619335	-0.908743	0.191383
H132	H	1.705266	-0.908650	0.242941
H133	H	0.785075	-0.316186	0.409881
H134	H	1.640378	-0.230041	1.063639
C135	C	0.684859	-0.331777	0.529504
C136	C	0.659795	-0.383327	0.491513
H137	H	0.623502	-0.317450	0.550303
H138	H	0.712432	-0.298972	0.504208
H139	H	0.735629	-0.343952	0.559775
H140	H	0.609029	-0.371150	0.461240
H141	H	0.632206	-0.416138	0.516812
H142	H	1.396457	-0.943773	0.376260
H143	H	1.640461	-1.062982	0.230335
C144	C	1.318233	-0.423063	0.629353
C145	C	1.377252	-0.387719	0.672103
H146	H	1.272605	-0.450371	0.651649
H147	H	1.363979	-0.447151	0.603721
H148	H	1.278074	-0.395636	0.603705
H149	H	1.417417	-0.415147	0.697749
H150	H	1.331500	-0.363630	0.697746
C151	C	1.600329	-0.178276	0.709969
C152	C	1.659534	-0.218716	0.672179
H153	H	1.645963	-0.150955	0.732285
H154	H	1.560294	-0.202240	0.738939
H155	H	1.554588	-0.154200	0.684309
H156	H	1.705270	-0.242796	0.697839
H157	H	1.699586	-0.194750	0.643205
H158	H	1.352047	-0.217234	0.123720
C159	C	1.600025	-0.495764	0.178307
C160	C	1.659270	-0.533509	0.218770
H161	H	1.645635	-0.473456	0.151004
H162	H	1.559989	-0.466788	0.202256
H163	H	1.554285	-0.521455	0.154212
H164	H	1.705005	-0.507817	0.242868
H165	H	1.699325	-0.562488	0.194818
H166	H	0.919252	-0.230139	0.230359
C167	C	0.978527	-0.072152	0.226737
C168	C	0.998167	-0.134594	0.243606
H169	H	0.917169	-0.057823	0.247532
H170	H	0.968666	-0.069554	0.182604
H171	H	1.036424	-0.046732	0.238647
H172	H	0.940272	-0.160016	0.231693
H173	H	1.008021	-0.137197	0.287750
H174	H	1.396537	-1.063042	0.376284
H175	H	1.396286	-0.662204	0.376209
H176	H	1.640375	-0.230229	0.543538
H177	H	1.123445	-0.067460	0.161951
