data_functionalizedCrystal
_audit_creation_method	'MofGen! by Chris Wilmer'
_symmetry_space_group_name_H-M	'P1'
_symmetry_Int_Tables_number	1
_symmetry_cell_setting	triclinic
loop_
_symmetry_equiv_pos_as_xyz
  x,y,z
_cell_length_a	18.050591
_cell_length_b	29.839131
_cell_length_c	18.050582
_cell_angle_alpha	89.974523
_cell_angle_beta	89.979078
_cell_angle_gamma	90.037426
loop_
_atom_site_label
_atom_site_type_symbol
_atom_site_fract_x
_atom_site_fract_y
_atom_site_fract_z
Zn1	Zn	1.135224	-0.178930	-0.420016
Zn2	Zn	1.135106	-0.254052	-0.295820
Zn3	Zn	1.011044	-0.178932	-0.295827
Zn4	Zn	1.010963	-0.254028	-0.419956
O5	O	1.073084	-0.216485	-0.357905
O6	O	1.239133	-0.188904	-0.403564
O7	O	1.118634	-0.244098	-0.191896
O8	O	1.027600	-0.116064	-0.312330
O9	O	1.239047	-0.244096	-0.312317
O10	O	1.118835	-0.116063	-0.403571
O11	O	1.027485	-0.188907	-0.191902
O12	O	0.907108	-0.188884	-0.312271
O13	O	1.027462	-0.244056	-0.523888
O14	O	0.907049	-0.244057	-0.403467
O15	O	1.118756	-0.188881	-0.523933
O16	O	1.118555	-0.316916	-0.312258
O17	O	1.027348	-0.316898	-0.403460
C18	C	0.880132	-0.216469	-0.357864
C19	C	0.797586	-0.216472	-0.357864
C20	C	0.598146	-0.186434	-0.308386
C21	C	0.548711	-0.227410	-0.290106
C22	C	0.646456	-0.216486	-0.357897
C23	C	0.548810	-0.175525	-0.376175
C24	C	0.500471	-0.216495	-0.357928
C25	C	0.598108	-0.257483	-0.339583
C26	C	0.598211	-0.205570	-0.425683
C27	C	0.548798	-0.246574	-0.407429
C28	C	0.730554	-0.216480	-0.357878
C29	C	0.416374	-0.216506	-0.357948
C30	C	1.072950	-0.333208	-0.357868
C31	C	1.072961	-0.383142	-0.357877
C32	C	1.120663	-0.692782	-0.310485
C33	C	1.120754	-0.880455	-0.310514
O34	O	1.161206	-0.904717	-0.270192
N35	N	1.073238	-0.903927	-0.357961
C36	C	1.025700	-0.880478	-0.405407
O37	O	0.985292	-0.904749	-0.445769
C38	C	1.025612	-0.692806	-0.405381
C39	C	1.073126	-0.669337	-0.357926
C40	C	1.168173	-0.669312	-0.263035
C41	C	1.168147	-0.622397	-0.263025
C42	C	1.120610	-0.598951	-0.310466
C43	C	1.073100	-0.622421	-0.357917
C44	C	0.978078	-0.669358	-0.452831
C45	C	0.978062	-0.622437	-0.452822
C46	C	1.025575	-0.598967	-0.405367
C47	C	1.025537	-0.552060	-0.405348
N48	N	1.073053	-0.528588	-0.357902
C49	C	1.120589	-0.552033	-0.310461
C50	C	1.025748	-0.979009	-0.405416
C51	C	1.025769	-1.025927	-0.405422
C52	C	1.120824	-1.025900	-0.310530
C53	C	1.120799	-0.978982	-0.310521
C54	C	1.073264	-0.955537	-0.357970
C55	C	1.120530	-0.453508	-0.310444
C56	C	1.120497	-0.406588	-0.310436
C57	C	1.025445	-0.406619	-0.405331
C58	C	1.025474	-0.453534	-0.405336
C59	C	1.073023	-0.476977	-0.357890
O60	O	0.985113	-0.527769	-0.445655
O61	O	1.161002	-0.527755	-0.270116
C62	C	1.120689	-0.739698	-0.310495
C63	C	1.073178	-0.763167	-0.357946
C64	C	1.025642	-0.739722	-0.405387
C65	C	1.073199	-0.810085	-0.357951
C66	C	1.120736	-0.833531	-0.310510
C67	C	1.168252	-0.810059	-0.263064
C68	C	1.168225	-0.763143	-0.263054
C69	C	0.978126	-0.763194	-0.452833
C70	C	0.978155	-0.810109	-0.452838
C71	C	1.025692	-0.833555	-0.405397
C72	C	1.266790	-0.216502	-0.357947
C73	C	1.349336	-0.216510	-0.357964
C74	C	1.073113	-0.216465	-0.551611
C75	C	1.073126	-0.216457	-0.634156
C76	C	1.073239	-0.099307	-0.357958
C77	C	1.073305	-0.049373	-0.357981
C78	C	1.023518	-0.246420	-0.833583
C79	C	1.091269	-0.257404	-0.882980
C80	C	1.073162	-0.216423	-0.785287
C81	C	1.005449	-0.205426	-0.882971
C82	C	1.073192	-0.216390	-0.931272
C83	C	1.140949	-0.227429	-0.833597
C84	C	1.055083	-0.175431	-0.833584
C85	C	1.122881	-0.186400	-0.882959
C86	C	1.073145	-0.216442	-0.701189
C87	C	1.073218	-0.216371	-1.015369
C88	C	1.073098	-0.216473	-0.164953
C89	C	1.073230	-0.216355	-0.082407
H90	H	1.159189	-0.387480	-0.271790
H91	H	1.198243	-0.236756	-0.812000
H92	H	0.526970	-0.236650	-0.232794
C93	C	0.926494	-0.597040	-0.504460
C94	C	0.942617	-0.608429	-0.577954
C95	C	0.895123	-0.585046	-0.625541
H96	H	0.933235	-0.565729	-0.497763
H97	H	0.876593	-0.604772	-0.493590
H98	H	0.992505	-0.600694	-0.588820
H99	H	0.935871	-0.639736	-0.584675
H100	H	0.845222	-0.592778	-0.614672
H101	H	0.901868	-0.553736	-0.618838
H102	H	0.906051	-0.592774	-0.675412
C103	C	0.627277	-0.193325	-0.502101
C104	C	0.669885	-0.228747	-0.529826
C105	C	0.696668	-0.217479	-0.600222
H106	H	0.657048	-0.167146	-0.498716
H107	H	0.586765	-0.187842	-0.534437
H108	H	0.710391	-0.234225	-0.497498
H109	H	0.640129	-0.254930	-0.533229
H110	H	0.656156	-0.211996	-0.632559
H111	H	0.726437	-0.191299	-0.596831
H112	H	0.725575	-0.241512	-0.619046
H113	H	1.206838	-0.603291	-0.224386
C114	C	1.172470	-0.953583	-0.258973
C115	C	1.214112	-0.984164	-0.217442
C116	C	1.261728	-0.960787	-0.169954
H117	H	1.144160	-0.935304	-0.226517
H118	H	1.204845	-0.935265	-0.287394
H119	H	1.181741	-1.002475	-0.189023
H120	H	1.242437	-1.002444	-0.249879
H121	H	1.294103	-0.942468	-0.198375
H122	H	1.233412	-0.942508	-0.137503
H123	H	1.289992	-0.981532	-0.141775
H124	H	0.948172	-0.196138	-0.904660
C125	C	0.520120	-0.280573	-0.463179
C126	C	0.545219	-0.323376	-0.443715
C127	C	0.518806	-0.354709	-0.495044
H128	H	0.537801	-0.273124	-0.511204
H129	H	0.467490	-0.280248	-0.463164
H130	H	0.597838	-0.323700	-0.443738
H131	H	0.527539	-0.330839	-0.395699
H132	H	0.466176	-0.354383	-0.495030
H133	H	0.536489	-0.347255	-0.543067
H134	H	0.535825	-0.383754	-0.481842
H135	H	0.939417	-0.744108	-0.491466
H136	H	1.206916	-0.744038	-0.224412
H137	H	1.106579	-0.292056	-0.904678
H138	H	1.164925	-0.161018	-0.904501
H139	H	1.039754	-0.140789	-0.811869
H140	H	0.619673	-0.292138	-0.324073
H141	H	1.159250	-0.472590	-0.271810
C142	C	0.627003	-0.152643	-0.252382
C143	C	0.601931	-0.164288	-0.181526
C144	C	0.628506	-0.133175	-0.129916
H145	H	0.609414	-0.123598	-0.264785
H146	H	0.679632	-0.152689	-0.253025
H147	H	0.549313	-0.164237	-0.180885
H148	H	0.619519	-0.193328	-0.169100
H149	H	0.681136	-0.133222	-0.130559
H150	H	0.610915	-0.104132	-0.142326
H151	H	0.611505	-0.141075	-0.081834
H152	H	0.527115	-0.140885	-0.391596
C153	C	1.219815	-0.694682	-0.211438
C154	C	1.261398	-0.664076	-0.169876
C155	C	1.308970	-0.687426	-0.122322
H156	H	1.252235	-0.712960	-0.239790
H157	H	1.191452	-0.712999	-0.179010
H158	H	1.289759	-0.645767	-0.202300
H159	H	1.228998	-0.645797	-0.141509
H160	H	1.280607	-0.705743	-0.089894
H161	H	1.341385	-0.705704	-0.150680
H162	H	1.337185	-0.666664	-0.094112
H163	H	0.987037	-0.959923	-0.444056
H164	H	1.159531	-1.044998	-0.271902
H165	H	0.987071	-1.045032	-0.444057
C166	C	0.926616	-0.694887	-0.504406
C167	C	0.968651	-0.721788	-0.552043
C168	C	0.921269	-0.745314	-0.599564
H169	H	0.898295	-0.674248	-0.532728
H170	H	0.894288	-0.713245	-0.476001
H171	H	1.000966	-0.703431	-0.580446
H172	H	0.996971	-0.742435	-0.523742
H173	H	0.888940	-0.763673	-0.571159
H174	H	0.892950	-0.724672	-0.627881
H175	H	0.949782	-0.763572	-0.631887
H176	H	0.986787	-0.472644	-0.443980
H177	H	0.986739	-0.387522	-0.443954
C178	C	0.926686	-0.835644	-0.504410
C179	C	0.968723	-0.862544	-0.552048
C180	C	0.921342	-0.886075	-0.599563
H181	H	0.898359	-0.815009	-0.532732
H182	H	0.894363	-0.854004	-0.476001
H183	H	1.001033	-0.844186	-0.580454
H184	H	0.997048	-0.883188	-0.523746
H185	H	0.889019	-0.904435	-0.571154
H186	H	0.893017	-0.865436	-0.627880
H187	H	0.949856	-0.904332	-0.631886
C188	C	0.967581	-0.280325	-0.804813
C189	C	0.933268	-0.301673	-0.864746
C190	C	0.881745	-0.332913	-0.838271
H191	H	0.931240	-0.265389	-0.775864
H192	H	0.992253	-0.301977	-0.775155
H193	H	0.908596	-0.280024	-0.894392
H194	H	0.969589	-0.316618	-0.893700
H195	H	0.906417	-0.354565	-0.808613
H196	H	0.845410	-0.317973	-0.809323
H197	H	0.858463	-0.347404	-0.878931
H198	H	1.206956	-0.829156	-0.224433
