data_functionalizedCrystal
_audit_creation_method	'MofGen! by Chris Wilmer'
_symmetry_space_group_name_H-M	'P1'
_symmetry_Int_Tables_number	1
_symmetry_cell_setting	triclinic
loop_
_symmetry_equiv_pos_as_xyz
  x,y,z
_cell_length_a	21.295417
_cell_length_b	18.215407
_cell_length_c	18.215399
_cell_angle_alpha	89.983176
_cell_angle_beta	89.965438
_cell_angle_gamma	90.030955
loop_
_atom_site_label
_atom_site_type_symbol
_atom_site_fract_x
_atom_site_fract_y
_atom_site_fract_z
Zn1	Zn	-0.250593	1.125021	-0.416094
Zn2	Zn	-0.355869	1.124924	-0.293019
Zn3	Zn	-0.250618	1.001960	-0.293042
Zn4	Zn	-0.355829	1.001908	-0.416044
O5	O	-0.303227	1.063453	-0.354550
O6	O	-0.264564	1.227993	-0.399780
O7	O	-0.341934	1.108594	-0.190038
O8	O	-0.162525	1.018347	-0.309396
O9	O	-0.341910	1.227921	-0.309357
O10	O	-0.162507	1.108760	-0.399802
O11	O	-0.264607	1.018253	-0.190054
O12	O	-0.264569	0.898969	-0.309347
O13	O	-0.341843	1.018258	-0.519035
O14	O	-0.341867	0.898930	-0.399716
O15	O	-0.264526	1.108709	-0.519072
O16	O	-0.443953	1.108543	-0.309308
O17	O	-0.443924	1.018163	-0.399694
C18	C	-0.303217	0.872247	-0.354529
C19	C	-0.303227	0.790448	-0.354537
C20	C	-0.466779	1.063357	-0.354509
C21	C	-0.536747	1.063383	-0.354516
C22	C	-0.343540	0.602253	-0.401533
C23	C	-0.343542	0.525395	-0.401542
C24	C	-0.262927	0.525405	-0.307582
C25	C	-0.262922	0.602263	-0.307577
C26	C	-0.303232	0.640685	-0.354552
C27	C	-0.303239	0.486969	-0.354566
C28	C	-0.303240	0.403635	-0.354575
C29	C	-0.303229	0.724024	-0.354543
C30	C	-0.569608	1.110485	-0.307500
C31	C	-0.635350	1.110520	-0.307517
C32	C	-0.668230	1.063439	-0.354542
C33	C	-0.635361	1.016333	-0.401566
C34	C	-0.569620	1.016305	-0.401554
N35	N	-0.771496	0.999060	-0.360145
N36	N	-0.833947	0.999088	-0.360153
C37	C	-0.866304	1.063521	-0.354584
N38	N	-0.833851	1.127926	-0.348993
N39	N	-0.771394	1.127896	-0.348981
C40	C	-0.739515	1.063464	-0.354561
C41	C	-0.970451	1.110665	-0.307584
C42	C	-1.036194	1.110701	-0.307605
C43	C	-1.036203	1.016507	-0.401651
C44	C	-0.970461	1.016478	-0.401633
C45	C	-0.937589	1.063556	-0.354595
C46	C	-0.139037	1.063570	-0.354607
C47	C	-0.069069	1.063620	-0.354631
C48	C	-0.303177	1.063488	-0.546503
C49	C	-0.303156	1.063503	-0.628302
C50	C	-0.303239	1.255406	-0.354571
C51	C	-0.303243	1.337205	-0.354581
C52	C	-0.262864	1.016502	-0.816505
C53	C	-0.262852	1.016515	-0.893364
C54	C	-0.343372	1.110592	-0.893336
C55	C	-0.343387	1.110575	-0.816479
C56	C	-0.303130	1.063531	-0.778065
C57	C	-0.303102	1.063561	-0.931781
C58	C	-0.303088	1.063575	-1.015115
C59	C	-0.303144	1.063516	-0.694726
C60	C	-0.303232	1.063461	-0.163344
C61	C	-0.303076	1.063589	-0.081545
H62	H	-0.376361	0.633534	-0.439785
C63	C	-0.423230	0.533109	-0.494408
C64	C	-0.387852	0.483151	-0.453183
H65	H	-0.450589	0.507028	-0.526287
H66	H	-0.395833	0.563111	-0.522614
H67	H	-0.447272	0.563062	-0.462281
H68	H	-0.363807	0.453202	-0.485311
H69	H	-0.415253	0.453137	-0.424975
H70	H	-0.230108	0.494113	-0.269336
C71	C	-0.254089	0.917537	-0.979777
C72	C	-0.218592	0.964815	-0.935614
H73	H	-0.226764	0.885614	-1.005855
H74	H	-0.278051	0.945555	-1.013656
H75	H	-0.281520	0.889371	-0.949768
H76	H	-0.191164	0.992985	-0.965623
H77	H	-0.194619	0.936793	-0.901731
H78	H	-0.230095	0.633554	-0.269319
H79	H	-0.542845	1.148821	-0.269202
H80	H	-0.662111	1.148879	-0.269231
H81	H	-0.662135	0.978001	-0.439855
C82	C	-0.379098	1.152394	-1.011141
C83	C	-0.387617	1.162306	-0.935563
H84	H	-0.406411	1.184326	-1.037208
H85	H	-0.388309	1.102950	-1.023726
H86	H	-0.336799	1.163197	-1.023747
H87	H	-0.429915	1.151498	-0.922956
H88	H	-0.378411	1.211761	-0.922973
H89	H	-0.542864	0.977948	-0.439840
H90	H	-0.943685	1.149001	-0.269285
C91	C	-1.029578	1.203789	-0.214632
C92	C	-1.072318	1.162479	-0.255920
H93	H	-1.051881	1.235751	-0.182720
H94	H	-1.003893	1.231910	-0.246712
H95	H	-1.003980	1.171719	-0.186451
H96	H	-1.097913	1.194549	-0.284105
H97	H	-1.098013	1.134357	-0.223835
C98	C	-0.178201	1.006309	-0.730113
C99	C	-0.218618	0.964787	-0.774282
H100	H	-0.150883	0.974378	-0.704053
H101	H	-0.202182	1.034307	-0.696220
H102	H	-0.154118	1.038392	-0.760117
H103	H	-0.242704	0.932706	-0.744278
H104	H	-0.194635	0.936775	-0.808180
H105	H	-0.376179	1.148873	-0.785180
H106	H	-1.062973	0.978176	-0.439942
C107	C	-0.977076	0.923369	-0.494582
C108	C	-0.934336	0.964691	-0.453305
H109	H	-0.954772	0.891394	-0.526480
H110	H	-1.002670	0.955425	-0.522769
H111	H	-1.002763	0.895255	-0.462488
H112	H	-0.908652	0.992810	-0.485399
H113	H	-0.908730	0.932631	-0.425116
