data_functionalizedCrystal
_audit_creation_method	'MofGen! by Chris Wilmer'
_symmetry_space_group_name_H-M	'P1'
_symmetry_Int_Tables_number	1
_symmetry_cell_setting	triclinic
loop_
_symmetry_equiv_pos_as_xyz
  x,y,z
_cell_length_a	10.654550
_cell_length_b	11.792241
_cell_length_c	9.130313
_cell_angle_alpha	89.995332
_cell_angle_beta	89.999724
_cell_angle_gamma	84.339173
loop_
_atom_site_label
_atom_site_type_symbol
_atom_site_fract_x
_atom_site_fract_y
_atom_site_fract_z
O1	O	1.667388	0.159420	-0.121691
O2	O	1.301867	0.174608	-0.121718
O3	O	1.493498	0.001864	-0.121693
O4	O	1.475758	0.332164	-0.121715
O5	O	1.493485	0.001859	0.121906
O6	O	1.301854	0.174603	0.121881
O7	O	1.667375	0.159415	0.121908
Cu8	Cu	1.484613	0.167009	0.144137
Cu9	Cu	1.484629	0.167015	-0.143947
O10	O	1.475744	0.332159	0.121884
C11	C	1.255066	0.173491	0.000078
C12	C	1.115632	0.170154	0.000068
C13	C	1.492377	-0.040432	0.000106
C14	C	1.489042	-0.166453	0.000104
C15	C	1.035859	0.271863	0.000066
C16	C	0.904847	0.268721	0.000092
C17	C	0.933394	0.062152	0.000116
C18	C	1.064403	0.065295	0.000101
C19	C	1.482908	-0.397180	0.000079
C20	C	1.486316	-0.268787	0.000093
C21	C	1.714177	0.160533	0.000109
C22	C	1.853611	0.163869	0.000109
C23	C	1.476865	0.374455	0.000082
C24	C	1.480201	0.500477	0.000074
N25	N	1.484612	0.167004	0.346760
N26	N	1.484641	0.167011	-0.346569
C27	C	1.569495	0.090545	0.423422
C28	C	1.569507	0.090545	0.576759
C29	C	1.399749	0.243473	0.576757
C30	C	1.399732	0.243466	0.423423
H31	H	0.839900	0.351543	0.000092
H32	H	1.330604	0.305728	0.361000
C33	C	1.182796	0.308283	0.624007
C34	C	1.306457	0.327518	0.661037
H35	H	1.125204	0.360167	0.676045
H36	H	1.170643	0.319229	0.521728
H37	H	1.168673	0.232411	0.649158
H38	H	1.320583	0.403388	0.635876
H39	H	1.318616	0.316582	0.763339
H40	H	1.077564	0.357246	0.000050
H41	H	0.891668	-0.023220	0.000152
C42	C	1.737312	-0.060604	0.561349
C43	C	1.662818	0.006504	0.661027
H44	H	1.794925	-0.112485	0.613375
H45	H	1.684760	-0.101875	0.501561
H46	H	1.782790	-0.012962	0.501527
H47	H	1.617333	-0.041138	0.720842
H48	H	1.715377	0.047778	0.720840
H49	H	1.638607	0.028283	0.361007
C50	C	1.079474	-0.139214	0.000110
C51	C	1.152102	-0.046512	0.000097
H52	H	1.133617	-0.208234	0.000103
H53	H	1.027791	-0.136147	0.085058
H54	H	1.027772	-0.136137	-0.084839
H55	H	1.203797	-0.049584	0.085053
H56	H	1.203806	-0.049581	-0.084859
