data_functionalizedCrystal
_audit_creation_method	'MofGen! by Chris Wilmer'
_symmetry_space_group_name_H-M	'P1'
_symmetry_Int_Tables_number	1
_symmetry_cell_setting	triclinic
loop_
_symmetry_equiv_pos_as_xyz
  x,y,z
_cell_length_a	15.297476
_cell_length_b	18.050589
_cell_length_c	15.298259
_cell_angle_alpha	80.289521
_cell_angle_beta	88.370467
_cell_angle_gamma	80.331867
loop_
_atom_site_label
_atom_site_type_symbol
_atom_site_fract_x
_atom_site_fract_y
_atom_site_fract_z
Zn1	Zn	1.253455	-0.370917	-0.726695
Zn2	Zn	1.753455	0.129083	-0.226695
Zn3	Zn	1.278676	-0.519592	-0.580202
Zn4	Zn	1.778676	-0.019592	-0.080202
Zn5	Zn	1.132307	-0.378141	-0.554918
Zn6	Zn	1.632307	0.121859	-0.054918
Zn7	Zn	1.106926	-0.477778	-0.701339
Zn8	Zn	1.606926	0.022222	-0.201339
O9	O	1.192841	-0.436607	-0.640788
O10	O	1.692841	0.063393	-0.140788
O11	O	1.379379	-0.405115	-0.728455
O12	O	1.879379	0.094885	-0.228455
O13	O	1.280437	-0.521351	-0.454262
O14	O	1.780437	-0.021351	0.045738
O15	O	1.148444	-0.273264	-0.577735
O16	O	1.648444	0.226736	-0.077735
O17	O	1.397909	-0.514346	-0.620827
O18	O	1.897909	-0.014346	-0.120827
O19	O	1.237451	-0.267956	-0.703939
O20	O	1.737451	0.232044	-0.203939
O21	O	1.172900	-0.417428	-0.435686
O22	O	1.672900	0.082572	0.064314
O23	O	1.006361	-0.376883	-0.553148
O24	O	1.506361	0.123117	-0.053148
O25	O	1.105186	-0.443080	-0.827288
O26	O	1.605186	0.056920	-0.327288
O27	O	0.987714	-0.450085	-0.660723
O28	O	1.487714	0.049915	-0.160723
O29	O	1.212840	-0.364570	-0.845917
O30	O	1.712840	0.135430	-0.345917
O31	O	1.255827	-0.617965	-0.596241
O32	O	1.755827	-0.117965	-0.096241
O33	O	1.129642	-0.587244	-0.685240
O34	O	1.629642	-0.087244	-0.185240
C35	C	0.965254	-0.409731	-0.601441
C36	C	1.465254	0.090269	-0.101441
C37	C	0.867888	-0.398248	-0.584629
C38	C	1.367888	0.101752	-0.084629
C39	C	0.831816	-0.354644	-0.520807
C40	C	1.331816	0.145356	-0.020807
C41	C	0.740336	-0.343853	-0.505009
C42	C	1.240336	0.156147	-0.005009
C43	C	0.684918	-0.376660	-0.553036
C44	C	1.184918	0.123340	-0.053036
C45	C	0.720988	-0.420261	-0.616864
C46	C	1.220988	0.079739	-0.116864
C47	C	0.812478	-0.431057	-0.632659
C48	C	1.312478	0.068943	-0.132659
C49	C	0.665579	-0.453074	-0.664888
C50	C	1.165579	0.046926	-0.164888
C51	C	0.701649	-0.496674	-0.728716
C52	C	1.201649	0.003326	-0.228716
C53	C	0.793130	-0.507468	-0.744508
C54	C	1.293130	-0.007468	-0.244508
C55	C	0.848549	-0.474661	-0.696480
C56	C	1.348549	0.025339	-0.196480
C57	C	0.574089	-0.442277	-0.649093
C58	C	1.074089	0.057723	-0.149093
C59	C	0.554750	-0.518690	-0.760945
C60	C	1.054750	-0.018690	-0.260945
C61	C	0.646230	-0.529481	-0.776743
C62	C	1.146230	-0.029481	-0.276743
C63	C	1.192738	-0.629549	-0.640756
C64	C	1.692738	-0.129549	-0.140756
C65	C	1.192769	-0.712095	-0.640785
C66	C	1.692769	-0.212095	-0.140785
C67	C	1.124211	-0.894877	-0.689172
C68	C	1.624211	-0.394877	-0.189172
C69	C	1.116685	-0.955164	-0.605550
C70	C	1.616685	-0.455164	-0.105550
C71	C	1.192853	-0.863234	-0.640811
C72	C	1.692853	-0.363234	-0.140811
C73	C	1.200419	-0.950033	-0.724450
C74	C	1.700419	-0.450033	-0.224450
C75	C	1.192931	-1.009226	-0.640843
C76	C	1.692931	-0.509226	-0.140843
C77	C	1.185293	-0.922435	-0.557139
C78	C	1.685293	-0.422435	-0.057139
C79	C	1.269055	-0.917295	-0.676100
C80	C	1.769055	-0.417295	-0.176100
C81	C	1.261569	-0.977572	-0.592428
C82	C	1.761569	-0.477572	-0.092428
C83	C	1.192805	-0.779131	-0.640793
C84	C	1.692805	-0.279131	-0.140793
C85	C	1.192980	-1.093328	-0.640852
C86	C	1.692980	-0.593328	-0.140852
C87	C	1.421316	-0.463589	-0.680290
C88	C	1.921316	0.036411	-0.180290
C89	C	1.518679	-0.475087	-0.697123
C90	C	2.018679	0.024913	-0.197123
C91	C	1.153368	-0.398355	-0.869277
C92	C	1.653368	0.101645	-0.369277
C93	C	1.136547	-0.382054	-0.966645
C94	C	1.636547	0.117946	-0.466645
C95	C	1.192965	-0.242911	-0.640845
C96	C	1.692965	0.257089	-0.140845
C97	C	1.193018	-0.160370	-0.640869
C98	C	1.693018	0.339630	-0.140869
C99	C	1.313091	-0.552542	-1.279788
C100	C	1.813091	-0.052542	-0.779788
C101	C	1.328891	-0.567862	-1.188305
C102	C	1.828891	-0.067862	-0.688305
C103	C	1.280806	-0.521411	-1.132886
C104	C	1.780806	-0.021411	-0.632886
C105	C	1.216919	-0.459639	-1.168958
C106	C	1.716919	0.040361	-0.668958
C107	C	1.201113	-0.444321	-1.260449
C108	C	1.701113	0.055679	-0.760449
C109	C	1.168829	-0.413190	-1.113546
C110	C	1.668829	0.086810	-0.613546
C111	C	1.104942	-0.351417	-1.149619
C112	C	1.604942	0.148583	-0.649619
C113	C	1.089139	-0.336103	-1.241101
C114	C	1.589139	0.163897	-0.741101
C115	C	1.137223	-0.382553	-1.296520
C116	C	1.637223	0.117447	-0.796520
C117	C	1.184635	-0.428507	-1.022055
C118	C	1.684635	0.071493	-0.522055
C119	C	1.072657	-0.320286	-1.002716
C120	C	1.572657	0.179714	-0.502716
C121	C	1.056858	-0.304967	-1.094199
C122	C	1.556858	0.195033	-0.594199
C123	C	1.232210	-0.474663	-0.413198
C124	C	1.732210	0.025337	0.086802
C125	C	1.249201	-0.490774	-0.315860
C126	C	1.749201	0.009226	0.184140
H127	H	0.610431	-0.367872	-0.540170
H128	H	1.110431	0.132128	-0.040170
H129	H	1.319661	-1.013209	-0.551487
H130	H	1.819661	-0.513209	-0.051487
H131	H	1.293673	-0.533889	-1.058397
H132	H	1.793673	-0.033889	-0.558397
H133	H	1.236657	-0.478800	-0.992696
H134	H	1.736657	0.021200	-0.492696
H135	H	1.380899	-0.618163	-1.158940
H136	H	1.880899	-0.118163	-0.658940
C137	C	1.029681	-0.977902	-0.565243
C138	C	1.529681	-0.477902	-0.065243
H139	H	0.980938	-0.949165	-0.599660
H140	H	1.480938	-0.449165	-0.099660
H141	H	1.023860	-0.967891	-0.506171
H142	H	1.523860	-0.467891	-0.006171
H143	H	1.030563	-1.030680	-0.565052
H144	H	1.530563	-0.530680	-0.065052
H145	H	1.352228	-0.590360	-1.324917
H146	H	1.852228	-0.090360	-0.824917
C147	C	0.949175	-0.486517	-0.713874
C148	C	1.449175	0.013483	-0.213874
H149	H	0.962722	-0.517177	-0.758771
H150	H	1.462722	-0.017177	-0.258771
H151	H	0.979640	-0.511185	-0.660896
H152	H	1.479640	-0.011185	-0.160896
H153	H	0.967241	-0.438494	-0.732708
H154	H	1.467241	0.061506	-0.232708
H155	H	1.178847	-0.910040	-0.486387
H156	H	1.678847	-0.410040	0.013613
C157	C	1.356049	-0.894560	-0.716420
C158	C	1.856049	-0.394560	-0.216420
H159	H	1.361311	-0.903690	-0.775863
H160	H	1.861311	-0.403690	-0.275863
H161	H	1.404863	-0.923970	-0.682666
H162	H	1.904863	-0.423970	-0.182666
H163	H	1.355639	-0.841991	-0.715621
H164	H	1.855639	-0.341991	-0.215621
H165	H	1.124365	-0.370082	-1.371015
H166	H	1.624365	0.129918	-0.871015
H167	H	1.004840	-0.254671	-1.123582
H168	H	1.504840	0.245329	-0.623582
C169	C	1.209031	-0.966891	-0.819984
C170	C	1.709031	-0.466891	-0.319984
H171	H	1.160188	-0.938146	-0.854248
H172	H	1.660188	-0.438146	-0.354248
H173	H	1.209544	-1.019686	-0.819276
H174	H	1.709544	-0.519686	-0.319276
H175	H	1.262668	-0.953222	-0.845372
H176	H	1.762668	-0.453222	-0.345372
H177	H	0.876947	-0.327942	-0.481705
H178	H	1.376947	0.172058	0.018295
H179	H	1.033502	-0.282463	-0.957593
H180	H	1.533502	0.217537	-0.457593
C181	C	0.534416	-0.394314	-0.578897
C182	C	1.034416	0.105686	-0.078897
H183	H	0.471995	-0.392584	-0.576363
H184	H	0.971995	0.107416	-0.076363
H185	H	0.547208	-0.344044	-0.594415
H186	H	1.047208	0.155956	-0.094415
H187	H	0.559561	-0.416732	-0.522598
H188	H	1.059561	0.083268	-0.022598
C189	C	0.700664	-0.295893	-0.434810
C190	C	1.200664	0.204107	0.065190
H191	H	0.746768	-0.277894	-0.408475
H192	H	1.246768	0.222106	0.091525
H193	H	0.671555	-0.326435	-0.390418
H194	H	1.171555	0.173565	0.109582
H195	H	0.659200	-0.253747	-0.462236
H196	H	1.159200	0.246253	0.037764
C197	C	0.832806	-0.555430	-0.814712
C198	C	1.332806	-0.055430	-0.314712
H199	H	0.786701	-0.573417	-0.841060
H200	H	1.286701	-0.073417	-0.341060
H201	H	0.874272	-0.597572	-0.787296
H202	H	1.374272	-0.097572	-0.287296
H203	H	0.861912	-0.524879	-0.859106
H204	H	1.361912	-0.024879	-0.359106
C205	C	0.493799	-0.554777	-0.813781
C206	C	0.993799	-0.054777	-0.313781
H207	H	0.434147	-0.542096	-0.795240
H208	H	0.934147	-0.042096	-0.295240
H209	H	0.510993	-0.608587	-0.803444
H210	H	1.010993	-0.108587	-0.303444
H211	H	0.498640	-0.535896	-0.875256
H212	H	0.998640	-0.035896	-0.375256
C213	C	0.685911	-0.577442	-0.846946
C214	C	1.185911	-0.077442	-0.346946
H215	H	0.639808	-0.595433	-0.873295
H216	H	1.139808	-0.095433	-0.373295
H217	H	0.727378	-0.619583	-0.819528
H218	H	1.227378	-0.119583	-0.319528
H219	H	0.715015	-0.546891	-0.891339
H220	H	1.215015	-0.046891	-0.391339
C221	C	1.045716	-0.846563	-0.744307
C222	C	1.545716	-0.346563	-0.244307
H223	H	0.991653	-0.859412	-0.719103
H224	H	1.491653	-0.359412	-0.219103
H225	H	1.050531	-0.856417	-0.803470
H226	H	1.550531	-0.356417	-0.303470
H227	H	1.046532	-0.794048	-0.744344
H228	H	1.546532	-0.294048	-0.244344
C229	C	1.018863	-0.268158	-1.280778
C230	C	1.518863	0.231842	-0.780778
H231	H	0.992494	-0.242682	-1.234674
H232	H	1.492494	0.257318	-0.734674
H233	H	0.974511	-0.286079	-1.309862
H234	H	1.474511	0.213921	-0.809862
H235	H	1.046236	-0.233784	-1.322268
H236	H	1.546236	0.266216	-0.822268
