data_functionalizedCrystal
_audit_creation_method	'MofGen! by Chris Wilmer'
_symmetry_space_group_name_H-M	'P1'
_symmetry_Int_Tables_number	1
_symmetry_cell_setting	triclinic
loop_
_symmetry_equiv_pos_as_xyz
  x,y,z
_cell_length_a	17.640112
_cell_length_b	17.638891
_cell_length_c	17.640968
_cell_angle_alpha	92.190062
_cell_angle_beta	87.860920
_cell_angle_gamma	87.850096
loop_
_atom_site_label
_atom_site_type_symbol
_atom_site_fract_x
_atom_site_fract_y
_atom_site_fract_z
Zn1	Zn	1.252705	-0.021053	0.198344
Zn2	Zn	1.262312	-0.172222	0.094801
Zn3	Zn	1.111191	-0.068715	0.104381
Zn4	Zn	1.158795	-0.162577	0.245888
O5	O	1.196251	-0.106142	0.160853
O6	O	1.356525	-0.025195	0.160703
O7	O	1.226363	-0.182475	-0.006482
O8	O	1.106020	0.040154	0.100957
O9	O	1.363583	-0.136259	0.084630
O10	O	1.209990	0.075171	0.169992
O11	O	1.115335	-0.106429	0.000555
O12	O	1.014960	-0.097077	0.147058
O13	O	1.187155	-0.119820	0.342135
O14	O	1.049935	-0.166037	0.251023
O15	O	1.256150	-0.015843	0.307205
O16	O	1.272523	-0.273490	0.130731
O17	O	1.196470	-0.266403	0.241734
C18	C	1.005858	-0.135683	0.205239
C19	C	0.924414	-0.148334	0.224248
C20	C	1.151623	0.084995	0.131240
C21	C	1.132605	0.166447	0.118620
C22	C	0.565383	-0.010018	0.016451
C23	C	0.488859	-0.021918	0.034325
C24	C	0.525338	-0.093893	0.142442
C25	C	0.601867	-0.081995	0.124579
C26	C	0.621882	-0.040058	0.061583
C27	C	0.658366	-0.112036	0.169711
C28	C	0.734888	-0.100143	0.151847
C29	C	0.754910	-0.058209	0.088852
C30	C	0.698404	-0.028165	0.043719
C31	C	0.638349	-0.153978	0.232704
C32	C	0.694848	-0.184018	0.277835
C33	C	0.771371	-0.172120	0.259975
C34	C	0.791394	-0.130187	0.196980
C35	C	0.827877	-0.202165	0.305108
C36	C	0.904399	-0.190271	0.287245
C37	C	0.867915	-0.118294	0.179117
C38	C	1.240727	-0.296529	0.190363
C39	C	1.259825	-0.377961	0.202997
C40	C	1.387387	-0.076486	0.116295
C41	C	1.468837	-0.063849	0.097306
C42	C	1.225891	-0.061439	0.352005
C43	C	1.238522	-0.042390	0.433462
C44	C	1.340748	0.525480	0.256756
C45	C	1.322875	0.602010	0.244872
C46	C	1.214621	0.565539	0.172992
C47	C	1.232483	0.489004	0.184873
C48	C	1.295548	0.468982	0.226755
C49	C	1.187282	0.432506	0.154872
C50	C	1.205145	0.355978	0.166749
C51	C	1.268209	0.335948	0.208627
C52	C	1.313411	0.392454	0.238632
C53	C	1.124220	0.452530	0.112986
C54	C	1.079020	0.396032	0.082985
C55	C	1.096879	0.319503	0.094866
C56	C	1.159943	0.299473	0.136744
C57	C	1.051677	0.262997	0.064861
C58	C	1.069540	0.186469	0.076738
C59	C	1.177806	0.222945	0.148621
C60	C	1.166756	-0.150611	-0.029573
C61	C	1.154218	-0.169432	-0.111095
C62	C	1.100483	-0.250418	0.792291
C63	C	1.112365	-0.232506	0.868828
C64	C	1.184203	-0.124243	0.832448
C65	C	1.172324	-0.142144	0.755907
C66	C	1.130464	-0.205232	0.735835
C67	C	1.202305	-0.096958	0.699450
C68	C	1.190431	-0.114860	0.622916
C69	C	1.148574	-0.177947	0.602837
C70	C	1.118589	-0.223134	0.659300
C71	C	1.244170	-0.033873	0.719523
C72	C	1.274151	0.011312	0.663067
C73	C	1.262272	-0.006586	0.586532
C74	C	1.220416	-0.069673	0.566453
C75	C	1.292257	0.038601	0.530069
C76	C	1.280382	0.020699	0.453534
C77	C	1.208541	-0.087575	0.489919
H78	H	0.884212	-0.084130	0.127828
H79	H	0.509030	-0.128041	0.193732
H80	H	1.087948	-0.269306	0.914794
H81	H	1.027673	0.412344	0.048882
O82	O	0.675267	-0.224707	0.339021
C83	C	0.573553	-0.274967	0.414436
C84	C	0.595619	-0.228860	0.345131
H85	H	0.509158	-0.278354	0.419389
H86	H	0.594738	-0.246025	0.468083
H87	H	0.600442	-0.334710	0.407113
H88	H	0.568739	-0.169113	0.352380
H89	H	0.574448	-0.257863	0.291510
O90	O	0.564000	-0.165405	0.250109
C91	C	0.440697	-0.107839	0.283775
C92	C	0.524877	-0.094786	0.264092
H93	H	0.409038	-0.050754	0.295070
H94	H	0.436057	-0.142937	0.336574
H95	H	0.414664	-0.139499	0.234195
H96	H	0.550964	-0.063106	0.313624
H97	H	0.529465	-0.059721	0.211268
O98	O	1.309382	0.064588	0.398624
C99	C	1.282731	0.144865	0.294601
C100	C	1.249783	0.095174	0.356745
H101	H	1.234560	0.169620	0.260735
H102	H	1.323314	0.108804	0.254999
H103	H	1.314716	0.193004	0.322105
H104	H	1.217761	0.047029	0.329307
H105	H	1.209241	0.131286	0.396341
O106	O	0.434041	0.007222	-0.009626
C107	C	0.382866	0.010168	-0.134277
C108	C	0.445003	-0.022874	-0.084600
H109	H	0.391698	-0.014163	-0.194900
H110	H	0.386114	0.074605	-0.134042
H111	H	0.324746	-0.005517	-0.110646
H112	H	0.503153	-0.007246	-0.108194
H113	H	0.441688	-0.087304	-0.084837
O114	O	0.808295	-0.242859	0.366290
C115	C	0.706579	-0.293130	0.441693
C116	C	0.728647	-0.247014	0.372395
H117	H	0.642184	-0.296519	0.446642
H118	H	0.727760	-0.264193	0.495344
H119	H	0.733469	-0.352871	0.434364
H120	H	0.701765	-0.187268	0.379650
H121	H	0.707479	-0.276011	0.318769
H122	H	1.359689	0.648010	0.269305
O123	O	1.402043	0.506154	0.297450
C124	C	1.507487	0.550404	0.367582
C125	C	1.438115	0.572397	0.321489
H126	H	1.536661	0.603949	0.387044
H127	H	1.549014	0.512672	0.330603
H128	H	1.488107	0.518303	0.419271
H129	H	1.457425	0.604525	0.269797
H130	H	1.396603	0.610093	0.358521
H131	H	1.032733	0.140466	0.052309
O132	O	0.829273	-0.046791	0.071510
C133	C	0.952551	-0.104372	0.037756
C134	C	0.868360	-0.117411	0.057405
H135	H	0.984173	-0.161457	0.026332
H136	H	0.978667	-0.072785	0.087334
H137	H	0.957125	-0.069209	-0.015000
H138	H	0.863717	-0.152593	0.110141
H139	H	0.842281	-0.148964	0.007785
O140	O	1.314693	0.072663	0.682615
C141	C	1.314866	0.193317	0.751437
C142	C	1.268862	0.123887	0.729345
H143	H	1.277836	0.234743	0.789234
H144	H	1.334233	0.222599	0.697965
H145	H	1.366613	0.173980	0.783509
H146	H	1.217084	0.143161	0.697290
H147	H	1.249553	0.094621	0.782844
H148	H	1.138910	-0.192524	0.540517
O149	O	1.077952	-0.284476	0.639925
C150	C	1.007943	-0.389980	0.684080
C151	C	1.053949	-0.320539	0.706130
H152	H	0.988510	-0.419148	0.737595
H153	H	1.044975	-0.431495	0.646382
H154	H	0.956236	-0.370670	0.651933
H155	H	1.105659	-0.339779	0.738306
H156	H	1.016864	-0.279040	0.743793
H157	H	0.714701	0.005998	-0.007570
H158	H	1.000334	0.279310	0.030755
O159	O	1.167997	-0.148950	0.470434
C160	C	1.157909	-0.284597	0.474639
C161	C	1.203892	-0.215157	0.496746
H162	H	1.186903	-0.338141	0.495916
H163	H	1.154605	-0.289686	0.410239
H164	H	1.098138	-0.277360	0.501444
H165	H	1.263685	-0.222344	0.469993
H166	H	1.207133	-0.210090	0.561152
O167	O	1.059846	-0.311759	0.772915
C168	C	0.989837	-0.417264	0.817071
C169	C	1.035843	-0.347822	0.839121
H170	H	0.970404	-0.446431	0.870585
H171	H	1.026869	-0.458779	0.779372
H172	H	0.938130	-0.397954	0.784923
H173	H	1.087552	-0.367062	0.871296
H174	H	0.998758	-0.306323	0.876783
H175	H	1.218288	-0.072878	0.848801
O176	O	1.332876	0.099871	0.549705
C177	C	1.383060	0.175397	0.651484
C178	C	1.337029	0.105998	0.629355
H179	H	1.386446	0.180364	0.715881
H180	H	1.354066	0.229002	0.630340
H181	H	1.442800	0.168171	0.624602
H182	H	1.277284	0.113151	0.656229
H183	H	1.366083	0.052419	0.650486
H184	H	1.253839	-0.019301	0.781844
H185	H	0.581680	0.024146	-0.034838
H186	H	0.950403	-0.214732	0.323996
O187	O	1.285672	0.261613	0.220074
C188	C	1.378665	0.158291	0.201962
C189	C	1.358979	0.242479	0.188930
H190	H	1.437940	0.142799	0.176802
H191	H	1.335577	0.121305	0.173299
H192	H	1.377065	0.148458	0.265488
H193	H	1.360587	0.252384	0.125420
H194	H	1.402069	0.279423	0.217643
H195	H	1.229148	0.206643	0.182743
H196	H	1.163274	0.581851	0.138890
O197	O	1.374706	0.373127	0.279325
C198	C	1.480150	0.417378	0.349457
C199	C	1.410777	0.439370	0.303365
H200	H	1.509324	0.470923	0.368920
H201	H	1.521677	0.379646	0.312479
H202	H	1.460770	0.385277	0.401146
H203	H	1.430087	0.471499	0.251673
H204	H	1.369266	0.477067	0.340396
H205	H	1.109681	0.514845	0.103314
