data_functionalizedCrystal
_audit_creation_method	'MofGen! by Chris Wilmer'
_symmetry_space_group_name_H-M	'P1'
_symmetry_Int_Tables_number	1
_symmetry_cell_setting	triclinic
loop_
_symmetry_equiv_pos_as_xyz
  x,y,z
_cell_length_a	12.759401
_cell_length_b	16.625546
_cell_length_c	16.625539
_cell_angle_alpha	90.028532
_cell_angle_beta	90.013884
_cell_angle_gamma	90.022629
loop_
_atom_site_label
_atom_site_type_symbol
_atom_site_fract_x
_atom_site_fract_y
_atom_site_fract_z
Zn1	Zn	1.606151	-0.321012	0.455829
Zn2	Zn	1.939484	0.012322	0.789163
Zn3	Zn	2.272817	0.345655	1.122496
Zn4	Zn	1.606035	-0.455850	0.320992
Zn5	Zn	1.939369	-0.122517	0.654325
Zn6	Zn	2.272702	0.210816	0.987658
Zn7	Zn	1.430467	-0.321036	0.321017
Zn8	Zn	1.763800	0.012298	0.654351
Zn9	Zn	2.097134	0.345631	0.987684
Zn10	Zn	1.430418	-0.455806	0.455789
Zn11	Zn	1.763751	-0.122473	0.789122
Zn12	Zn	2.097084	0.210860	1.122456
O13	O	1.518268	-0.388426	0.388407
O14	O	1.851601	-0.055093	0.721740
O15	O	2.184934	0.278241	1.055074
O16	O	1.753157	-0.338907	0.437949
O17	O	2.086490	-0.005573	0.771282
O18	O	2.419823	0.327760	1.104616
O19	O	1.582718	-0.437995	0.208163
O20	O	1.916052	-0.104662	0.541496
O21	O	2.249385	0.228671	0.874829
O22	O	1.453841	-0.208200	0.338928
O23	O	1.787174	0.125133	0.672261
O24	O	2.120507	0.458467	1.005595
O25	O	1.753072	-0.437972	0.338884
O26	O	2.086405	-0.104639	0.672218
O27	O	2.419738	0.228695	1.005551
O28	O	1.582915	-0.208182	0.437974
O29	O	1.916248	0.125151	0.771307
O30	O	2.249582	0.458484	1.104641
O31	O	1.453729	-0.338948	0.208182
O32	O	1.787062	-0.005614	0.541515
O33	O	2.120396	0.327719	0.874848
O34	O	1.283439	-0.338905	0.338889
O35	O	1.616773	-0.005572	0.672222
O36	O	1.950106	0.327762	1.005556
O37	O	1.453757	-0.437897	0.568627
O38	O	1.787090	-0.104564	0.901960
O39	O	2.120423	0.228770	1.235293
O40	O	1.283403	-0.437920	0.437905
O41	O	1.616736	-0.104587	0.771238
O42	O	1.950070	0.228746	1.104572
O43	O	1.582867	-0.338864	0.568656
O44	O	1.916200	-0.005531	0.901990
O45	O	2.249534	0.327803	1.235323
O46	O	1.582670	-0.568677	0.338845
O47	O	1.916004	-0.235344	0.672179
O48	O	2.249337	0.097990	1.005512
O49	O	1.453645	-0.568645	0.437880
O50	O	1.786978	-0.235311	0.771214
O51	O	2.120311	0.098022	1.104547
C52	C	1.245300	-0.388411	0.388396
C53	C	1.578634	-0.055078	0.721729
C54	C	1.911967	0.278256	1.055063
C55	C	1.128524	-0.388424	0.388410
C56	C	1.461857	-0.055091	0.721744
C57	C	1.795190	0.278242	1.055077
C58	C	1.073670	-0.440064	0.439883
C59	C	1.407004	-0.106731	0.773216
C60	C	1.740337	0.226603	1.106549
C61	C	0.963946	-0.440074	0.439892
C62	C	1.297280	-0.106741	0.773225
C63	C	1.630613	0.226592	1.106558
C64	C	0.963939	-0.336803	0.336949
C65	C	1.297272	-0.003469	0.670282
C66	C	1.630605	0.329864	1.003615
C67	C	1.073661	-0.336789	0.336944
C68	C	1.406994	-0.003456	0.670278
C69	C	1.740327	0.329878	1.003611
C70	C	1.073674	-0.499690	0.499314
C71	C	1.407007	-0.166356	0.832647
C72	C	1.740340	0.166977	1.165980
C73	C	0.963950	-0.499700	0.499322
C74	C	1.297283	-0.166366	0.832656
C75	C	1.630616	0.166967	1.165989
C76	C	1.518168	-0.597917	0.388373
C77	C	1.851502	-0.264584	0.721706
C78	C	2.184835	0.068750	1.055040
C79	C	1.518222	-0.687538	0.388386
C80	C	1.851555	-0.354205	0.721719
C81	C	2.184889	-0.020871	1.055052
C82	C	1.518405	-1.015714	0.388470
C83	C	1.851738	-0.682380	0.721803
C84	C	2.185072	-0.349047	1.055136
C85	C	1.518351	-0.924405	0.388448
C86	C	1.851684	-0.591072	0.721782
C87	C	2.185017	-0.257738	1.055115
C88	C	1.518313	-0.851629	0.388427
C89	C	1.851646	-0.518295	0.721761
C90	C	2.184979	-0.184962	1.055094
C91	C	1.518260	-0.760314	0.388407
C92	C	1.851593	-0.426981	0.721740
C93	C	2.184927	-0.093648	1.055074
C94	C	1.792301	-0.388441	0.388418
C95	C	2.125634	-0.055108	0.721752
C96	C	2.458968	0.278225	1.055085
C97	C	1.909078	-0.388448	0.388423
C98	C	2.242411	-0.055115	0.721757
C99	C	2.575744	0.278219	1.055090
C100	C	1.518319	-0.388373	0.598716
C101	C	1.851653	-0.055039	0.932049
C102	C	2.184986	0.278294	1.265383
C103	C	1.518341	-0.388350	0.688337
C104	C	1.851675	-0.055017	1.021670
C105	C	2.185008	0.278317	1.355004
C106	C	1.518396	-0.178117	0.388458
C107	C	1.851729	0.155216	0.721792
C108	C	2.185063	0.488550	1.055125
C109	C	1.518451	-0.088496	0.388480
C110	C	1.851784	0.244837	0.721814
C111	C	2.185118	0.578171	1.055147
C112	C	1.518277	-0.388421	0.178916
C113	C	1.851610	-0.055087	0.512249
C114	C	2.184944	0.278246	0.845583
C115	C	1.518458	-0.388216	0.089295
C116	C	1.851792	-0.054883	0.422629
C117	C	2.185125	0.278450	0.755962
C118	C	1.518358	-0.388332	0.761120
C119	C	1.851692	-0.054999	1.094453
C120	C	2.185025	0.278334	1.427786
C121	C	1.518383	-0.388302	0.852428
C122	C	1.851716	-0.054969	1.185761
C123	C	2.185049	0.278364	1.519095
C124	C	1.518408	-0.388274	0.925205
C125	C	1.851741	-0.054941	1.258538
C126	C	2.185074	0.278393	1.591871
C127	C	1.518434	-0.388245	1.016519
C128	C	1.851767	-0.054911	1.349852
C129	C	2.185100	0.278422	1.683186
H130	H	0.934145	-0.562130	0.482485
H131	H	1.267478	-0.228797	0.815819
H132	H	1.600812	0.104537	1.149152
H133	H	1.103478	-0.483045	0.561791
H134	H	1.436812	-0.149711	0.895125
H135	H	1.770145	0.183622	1.228458
H136	H	0.929950	-0.477418	0.558689
H137	H	1.263283	-0.144084	0.892022
H138	H	1.596616	0.189249	1.225355
C139	C	1.133996	-0.279983	0.280327
C140	C	1.467330	0.053350	0.613661
C141	C	1.800663	0.386683	0.946994
H142	H	1.085605	-0.249241	0.249673
H143	H	1.418938	0.084092	0.583006
H144	H	1.752272	0.417425	0.916339
H145	H	1.176824	-0.244889	0.311233
H146	H	1.510158	0.088444	0.644566
H147	H	1.843491	0.421777	0.977899
H148	H	1.176772	-0.310780	0.245132
H149	H	1.510105	0.022553	0.578465
H150	H	1.843439	0.355887	0.911799
C151	C	0.903586	-0.280011	0.280338
C152	C	1.236920	0.053322	0.613672
C153	C	1.570253	0.386656	0.947005
H154	H	0.830383	-0.287416	0.287710
H155	H	1.163716	0.045917	0.621043
H156	H	1.497050	0.379250	0.954376
H157	H	0.921593	-0.225850	0.292236
H158	H	1.254926	0.107483	0.625569
H159	H	1.588260	0.440816	0.958903
H160	H	0.921540	-0.291742	0.226137
H161	H	1.254874	0.041591	0.559470
H162	H	1.588207	0.374924	0.892804
C163	C	1.119627	-0.579776	0.468956
C164	C	1.452960	-0.246442	0.802290
C165	C	1.786293	0.086891	1.135623
H166	H	1.193988	-0.577034	0.469984
H167	H	1.527322	-0.243701	0.803318
H168	H	1.860655	0.089633	1.136651
H169	H	1.096636	-0.622365	0.502696
H170	H	1.429970	-0.289031	0.836029
H171	H	1.763303	0.044302	1.169363
H172	H	1.096617	-0.589328	0.415448
H173	H	1.429951	-0.255994	0.748781
H174	H	1.763284	0.077339	1.082115
