data_functionalizedCrystal
_audit_creation_method	'MofGen! by Chris Wilmer'
_symmetry_space_group_name_H-M	'P1'
_symmetry_Int_Tables_number	1
_symmetry_cell_setting	triclinic
loop_
_symmetry_equiv_pos_as_xyz
  x,y,z
_cell_length_a	14.519731
_cell_length_b	15.944551
_cell_length_c	13.596369
_cell_angle_alpha	89.993059
_cell_angle_beta	89.994584
_cell_angle_gamma	83.593795
loop_
_atom_site_label
_atom_site_type_symbol
_atom_site_fract_x
_atom_site_fract_y
_atom_site_fract_z
O1	O	1.223664	0.110194	-0.081796
O2	O	0.955167	0.123142	-0.081797
O3	O	1.096747	-0.005596	-0.081788
O4	O	1.082083	0.238932	-0.081805
O5	O	1.096733	-0.005602	0.081795
O6	O	0.955153	0.123135	0.081785
O7	O	1.223650	0.110187	0.081787
Zn8	Zn	1.089399	0.116660	0.107759
Zn9	Zn	1.089417	0.116669	-0.107769
O10	O	1.082069	0.238925	0.081777
C11	C	0.920801	0.122532	-0.000006
C12	C	0.818424	0.120714	-0.000007
C13	C	0.735283	0.119237	-0.000010
C14	C	0.630977	0.117391	-0.000011
C15	C	0.547841	0.115926	-0.000010
C16	C	0.443528	0.114080	-0.000012
C17	C	1.096131	-0.036894	0.000004
C18	C	1.094306	-0.130143	0.000005
C19	C	1.002186	-0.345139	-0.000010
C20	C	1.044957	-0.406095	0.080647
C21	C	1.091005	-0.300874	-0.000003
C22	C	1.044991	-0.406072	-0.080633
C23	C	1.087809	-0.465791	-0.000015
C24	C	1.133800	-0.360601	0.080720
C25	C	1.133822	-0.360571	-0.080632
C26	C	1.176658	-0.421509	0.000044
C27	C	1.092843	-0.205868	0.000004
C28	C	1.085977	-0.560795	-0.000015
C29	C	1.258015	0.110797	-0.000006
C30	C	1.360392	0.112615	-0.000012
C31	C	1.082685	0.270223	-0.000016
C32	C	1.084510	0.363472	-0.000023
N33	N	1.089393	0.116654	0.254851
N34	N	1.089431	0.116669	-0.254861
C35	C	1.089416	0.116670	0.656141
C36	C	1.089407	0.116668	0.544490
C37	C	1.089405	0.116662	0.455500
C38	C	1.089395	0.116659	0.343841
H39	H	0.928462	-0.311944	0.000070
C40	C	0.994197	-0.433346	0.172764
N41	N	0.955959	-0.453869	0.242142
C42	C	1.276339	-0.466162	0.000108
N43	N	1.351417	-0.499798	0.000163
H44	H	1.171363	-0.340381	-0.148824
H45	H	1.007419	-0.426203	-0.148827
H46	H	1.171329	-0.340556	0.148984
