data_functionalizedCrystal
_audit_creation_method	'MofGen! by Chris Wilmer'
_symmetry_space_group_name_H-M	'P1'
_symmetry_Int_Tables_number	1
_symmetry_cell_setting	triclinic
loop_
_symmetry_equiv_pos_as_xyz
  x,y,z
_cell_length_a	19.805407
_cell_length_b	21.295417
_cell_length_c	19.805399
_cell_angle_alpha	90.029796
_cell_angle_beta	90.019573
_cell_angle_gamma	90.029702
loop_
_atom_site_label
_atom_site_type_symbol
_atom_site_fract_x
_atom_site_fract_y
_atom_site_fract_z
Zn1	Zn	1.034720	-0.250624	0.382709
Zn2	Zn	1.368054	0.082710	0.716043
Zn3	Zn	1.701387	0.416043	1.049376
Zn4	Zn	1.034629	-0.355893	0.269517
Zn5	Zn	1.367962	-0.022559	0.602850
Zn6	Zn	1.701295	0.310774	0.936183
Zn7	Zn	0.921535	-0.250641	0.269534
Zn8	Zn	1.254868	0.082692	0.602867
Zn9	Zn	1.588201	0.416026	0.936200
Zn10	Zn	0.921492	-0.355859	0.382663
Zn11	Zn	1.254825	-0.022526	0.715997
Zn12	Zn	1.588159	0.310808	1.049330
O13	O	0.978094	-0.303254	0.326106
O14	O	1.311427	0.030079	0.659439
O15	O	1.644761	0.363413	0.992772
O16	O	1.129425	-0.264595	0.367706
O17	O	1.462758	0.068739	0.701039
O18	O	1.796091	0.402072	1.034373
O19	O	1.019606	-0.341952	0.174802
O20	O	1.352939	-0.008619	0.508136
O21	O	1.686273	0.324715	0.841469
O22	O	0.936605	-0.162549	0.284573
O23	O	1.269939	0.170784	0.617907
O24	O	1.603272	0.504117	0.951240
O25	O	1.129357	-0.341935	0.284544
O26	O	1.462691	-0.008602	0.617877
O27	O	1.796024	0.324732	0.951210
O28	O	1.019762	-0.162537	0.367723
O29	O	1.353096	0.170797	0.701056
O30	O	1.686429	0.504130	1.034389
O31	O	0.936517	-0.264624	0.174815
O32	O	1.269850	0.068709	0.508148
O33	O	1.603183	0.402042	0.841482
O34	O	0.826813	-0.264592	0.284529
O35	O	1.160146	0.068742	0.617862
O36	O	1.493479	0.402075	0.951195
O37	O	0.936532	-0.341878	0.477386
O38	O	1.269866	-0.008545	0.810719
O39	O	1.603199	0.324789	1.144053
O40	O	0.826781	-0.341895	0.367644
O41	O	1.160114	-0.008562	0.700978
O42	O	1.493448	0.324772	1.034311
O43	O	1.019721	-0.264562	0.477420
O44	O	1.353054	0.068771	0.810753
O45	O	1.686387	0.402104	1.144086
O46	O	1.019564	-0.443977	0.284499
O47	O	1.352898	-0.110644	0.617833
O48	O	1.686231	0.222689	0.951166
O49	O	0.936443	-0.443953	0.367628
O50	O	1.269777	-0.110620	0.700961
O51	O	1.603110	0.222714	1.034294
C52	C	0.802238	-0.303242	0.326084
C53	C	1.135571	0.030091	0.659417
C54	C	1.468904	0.363425	0.992751
C55	C	0.727006	-0.303252	0.326091
C56	C	1.060339	0.030081	0.659424
C57	C	1.393673	0.363415	0.992757
C58	C	0.691663	-0.343564	0.369299
C59	C	1.024996	-0.010231	0.702632
C60	C	1.358330	0.323102	1.035966
C61	C	0.620975	-0.343566	0.369308
C62	C	0.954308	-0.010232	0.702642
C63	C	1.287641	0.323101	1.035975
C64	C	0.585630	-0.303257	0.326106
C65	C	0.918964	0.030076	0.659439
C66	C	1.252297	0.363410	0.992772
C67	C	0.620978	-0.262940	0.282895
C68	C	0.954311	0.070393	0.616229
C69	C	1.287645	0.403726	0.949562
C70	C	0.691665	-0.262936	0.282890
C71	C	1.024999	0.070397	0.616223
C72	C	1.358332	0.403730	0.949557
C73	C	0.335905	-0.262954	0.282918
C74	C	0.669238	0.070379	0.616251
C75	C	1.002571	0.403713	0.949585
C76	C	0.265213	-0.262962	0.282925
C77	C	0.598546	0.070371	0.616259
C78	C	0.931879	0.403704	0.949592
C79	C	0.265214	-0.343583	0.369336
C80	C	0.598547	-0.010250	0.702670
C81	C	0.931881	0.323083	1.036003
C82	C	0.335901	-0.343579	0.369331
C83	C	0.669235	-0.010246	0.702664
C84	C	1.002568	0.323087	1.035997
C85	C	0.371243	-0.303261	0.326123
C86	C	0.704576	0.030073	0.659457
C87	C	1.037910	0.363406	0.992790
C88	C	0.447891	-0.303259	0.326114
C89	C	0.781225	0.030074	0.659448
C90	C	1.114558	0.363408	0.992781
C91	C	0.508983	-0.303261	0.326111
C92	C	0.842316	0.030072	0.659444
C93	C	1.175650	0.363405	0.992777
C94	C	0.978008	-0.466806	0.326071
C95	C	1.311341	-0.133472	0.659405
C96	C	1.644674	0.199861	0.992738
C97	C	0.978033	-0.536774	0.326079
C98	C	1.311366	-0.203441	0.659413
C99	C	1.644699	0.129893	0.992746
C100	C	1.021308	-0.569577	0.369406
C101	C	1.354641	-0.236243	0.702740
C102	C	1.687974	0.097090	1.036073
C103	C	1.021331	-0.635319	0.369423
C104	C	1.354665	-0.301986	0.702756
C105	C	1.687998	0.031347	1.036090
C106	C	0.978087	-0.668256	0.326101
C107	C	1.311421	-0.334923	0.659434
C108	C	1.644754	-0.001590	0.992767
C109	C	0.934804	-0.635446	0.282771
C110	C	1.268137	-0.302112	0.616104
C111	C	1.601471	0.031221	0.949438
C112	C	0.934777	-0.569704	0.282760
C113	C	1.268110	-0.236371	0.616094
C114	C	1.601443	0.096962	0.949427
N115	N	0.972976	-0.771518	0.266865
N116	N	1.306309	-0.438184	0.600198
N117	N	1.639643	-0.104851	0.933532
N118	N	0.973006	-0.833969	0.266877
N119	N	1.306339	-0.500636	0.600210
N120	N	1.639673	-0.167302	0.933544
C121	C	0.978167	-0.866331	0.326131
C122	C	1.311500	-0.532998	0.659465
C123	C	1.644833	-0.199664	0.992798
N124	N	0.983309	-0.833882	0.385374
N125	N	1.316642	-0.500549	0.718708
N126	N	1.649976	-0.167216	1.052041
N127	N	0.983283	-0.771425	0.385362
N128	N	1.316616	-0.438092	0.718695
N129	N	1.649949	-0.104759	1.052028
C130	C	0.978112	-0.739542	0.326108
C131	C	1.311445	-0.406208	0.659441
C132	C	1.644779	-0.072875	0.992774
C133	C	1.021470	-0.970419	0.369480
C134	C	1.354803	-0.637086	0.702813
C135	C	1.688136	-0.303753	1.036147
C136	C	1.021489	-1.036163	0.369498
C137	C	1.354822	-0.702830	0.702831
C138	C	1.688156	-0.369496	1.036164
C139	C	0.934965	-1.036288	0.282840
C140	C	1.268298	-0.702955	0.616173
C141	C	1.601632	-0.369622	0.949506
C142	C	0.934942	-0.970546	0.282828
C143	C	1.268276	-0.637212	0.616161
C144	C	1.601609	-0.303879	0.949494
C145	C	0.978198	-0.937615	0.326147
C146	C	1.311532	-0.604282	0.659480
C147	C	1.644865	-0.270949	0.992814
C148	C	1.154637	-0.303267	0.326128
C149	C	1.487970	0.030067	0.659461
C150	C	1.821303	0.363400	0.992795
C151	C	1.229869	-0.303272	0.326138
C152	C	1.563202	0.030061	0.659471
C153	C	1.896535	0.363395	0.992804
C154	C	0.978132	-0.303214	0.502649
C155	C	1.311465	0.030119	0.835982
C156	C	1.644798	0.363452	1.169315
C157	C	0.978148	-0.303198	0.577881
C158	C	1.311481	0.030136	0.911214
C159	C	1.644815	0.363469	1.244547
C160	C	0.978199	-0.139064	0.326155
C161	C	1.311532	0.194269	0.659488
C162	C	1.644866	0.527603	0.992822
C163	C	0.978244	-0.069096	0.326176
C164	C	1.311577	0.264238	0.659509
C165	C	1.644910	0.597571	0.992843
C166	C	0.978095	-0.303248	0.150250
C167	C	1.311428	0.030085	0.483583
C168	C	1.644762	0.363418	0.816916
C169	C	0.978210	-0.303088	0.075018
C170	C	1.311543	0.030246	0.408351
C171	C	1.644877	0.363579	0.741685
C172	C	1.021465	-0.262937	0.613243
C173	C	1.354798	0.070396	0.946577
C174	C	1.688132	0.403729	1.279910
C175	C	1.021472	-0.262919	0.683932
C176	C	1.354805	0.070414	1.017265
C177	C	1.688139	0.403748	1.350599
C178	C	0.978165	-0.303165	0.719256
C179	C	1.311498	0.030169	1.052590
C180	C	1.644831	0.363502	1.385923
C181	C	0.934843	-0.343427	0.683888
C182	C	1.268176	-0.010094	1.017222
C183	C	1.601510	0.323240	1.350555
C184	C	0.934833	-0.343441	0.613201
C185	C	1.268166	-0.010108	0.946535
C186	C	1.601500	0.323225	1.279868
C187	C	0.934881	-0.343368	0.968962
C188	C	1.268214	-0.010035	1.302295
C189	C	1.601548	0.323298	1.635629
C190	C	0.934896	-0.343352	1.039654
C191	C	1.268229	-0.010018	1.372987
C192	C	1.601562	0.323315	1.706321
C193	C	1.021520	-0.262846	1.039692
C194	C	1.354854	0.070488	1.373026
C195	C	1.688187	0.403821	1.706359
C196	C	1.021510	-0.262860	0.969005
C197	C	1.354844	0.070473	1.302339
C198	C	1.688177	0.403806	1.635672
C199	C	0.978186	-0.303120	0.933644
C200	C	1.311520	0.030214	1.266977
C201	C	1.644853	0.363547	1.600310
C202	C	0.978178	-0.303138	0.856995
C203	C	1.311512	0.030195	1.190329
C204	C	1.644845	0.363528	1.523662
C205	C	0.978176	-0.303150	0.795903
C206	C	1.311509	0.030183	1.129237
C207	C	1.644842	0.363517	1.462570
H208	H	0.720441	-0.230107	0.247709
H209	H	1.053774	0.103227	0.581042
H210	H	1.387107	0.436560	0.914375
H211	H	1.056733	-0.230166	0.584487
H212	H	1.390066	0.103167	0.917821
H213	H	1.723400	0.436500	1.251154
O214	O	1.068008	-0.670707	0.416160
O215	O	1.401341	-0.337373	0.749494
O216	O	1.734674	-0.004040	1.082827
H217	H	1.060754	-0.721953	0.408893
H218	H	1.394088	-0.388620	0.742226
H219	H	1.727421	-0.055287	1.075560
H220	H	0.592201	-0.376392	0.404492
H221	H	0.925535	-0.043059	0.737826
H222	H	1.258868	0.290274	1.071159
O223	O	0.582862	-0.219478	0.236279
O224	O	0.916195	0.113855	0.569612
O225	O	1.249529	0.447188	0.902946
H226	H	0.527771	-0.226263	0.243530
H227	H	0.861104	0.107070	0.576863
H228	H	1.194437	0.440403	0.910196
H229	H	1.056747	-0.230136	0.712721
H230	H	1.390080	0.103197	1.046054
H231	H	1.723414	0.436530	1.379388
O232	O	0.227119	-0.387110	0.415920
O233	O	0.560452	-0.053776	0.749253
O234	O	0.893786	0.279557	1.082586
H235	H	0.240716	-0.376415	0.469070
H236	H	0.574049	-0.043081	0.802403
H237	H	0.907383	0.290252	1.135736
H238	H	0.899751	-1.063105	0.247570
H239	H	1.233084	-0.729772	0.580903
H240	H	1.566417	-0.396438	0.914237
H241	H	0.899536	-0.542996	0.247478
H242	H	1.232870	-0.209662	0.580811
H243	H	1.566203	0.123671	0.914144
H244	H	1.056778	-0.230090	0.940248
H245	H	1.390111	0.103243	1.273581
H246	H	1.723445	0.436577	1.606914
H247	H	0.236437	-0.230134	0.247744
H248	H	0.569771	0.103199	0.581078
H249	H	0.903104	0.436532	0.914411
H250	H	0.899707	-0.943836	0.247544
H251	H	1.233040	-0.610503	0.580877
H252	H	1.566373	-0.277169	0.914211
O253	O	0.888169	-0.670965	0.236035
O254	O	1.221502	-0.337631	0.569368
O255	O	1.554836	-0.004298	0.902701
H256	H	0.895466	-0.722190	0.243313
H257	H	1.228799	-0.388857	0.576646
H258	H	1.562132	-0.055524	0.909979
H259	H	0.899627	-0.376126	1.068413
H260	H	1.232960	-0.042793	1.401747
H261	H	1.566293	0.290541	1.735080
H262	H	1.056794	-0.230062	1.068492
H263	H	1.390128	0.103271	1.401826
H264	H	1.723461	0.436605	1.735159
H265	H	1.056527	-0.542767	0.404681
H266	H	1.389861	-0.209433	0.738014
H267	H	1.723194	0.123900	1.071348
H268	H	0.899579	-0.376193	0.712655
H269	H	1.232912	-0.042860	1.045989
H270	H	1.566246	0.290473	1.379322
O271	O	0.729775	-0.387037	0.415908
O272	O	1.063108	-0.053703	0.749241
O273	O	1.396441	0.279630	1.082574
H274	H	0.762006	-0.358895	0.450392
H275	H	1.095339	-0.025562	0.783725
H276	H	1.428673	0.307771	1.117059
O277	O	0.888121	-0.386756	0.930825
O278	O	1.221454	-0.053423	1.264158
O279	O	1.554788	0.279910	1.597492
H280	H	0.858002	-0.414730	0.967266
H281	H	1.191335	-0.081397	1.300600
H282	H	1.524668	0.251937	1.633933
H283	H	0.364672	-0.230129	0.247731
H284	H	0.698005	0.103205	0.581064
H285	H	1.031338	0.436538	0.914397
O286	O	1.068115	-0.934894	0.416205
O287	O	1.401449	-0.601560	0.749538
O288	O	1.734782	-0.268227	1.082871
H289	H	1.098205	-0.968752	0.446345
H290	H	1.431538	-0.635418	0.779678
H291	H	1.764871	-0.302085	1.113011
H292	H	0.364675	-0.376405	0.404509
H293	H	0.698008	-0.043072	0.737842
H294	H	1.031342	0.290262	1.071175
O295	O	0.888104	-0.386856	0.575054
O296	O	1.221437	-0.053523	0.908388
O297	O	1.554771	0.279810	1.241721
H298	H	0.857991	-0.414840	0.611492
H299	H	1.191325	-0.081507	0.944825
H300	H	1.524658	0.251827	1.278158
H301	H	1.056728	-1.062870	0.404783
H302	H	1.390062	-0.729537	0.738116
H303	H	1.723395	-0.396203	1.071450
