data_functionalizedCrystal
_audit_creation_method	'MofGen! by Chris Wilmer'
_symmetry_space_group_name_H-M	'P1'
_symmetry_Int_Tables_number	1
_symmetry_cell_setting	triclinic
loop_
_symmetry_equiv_pos_as_xyz
  x,y,z
_cell_length_a	16.120484
_cell_length_b	13.032831
_cell_length_c	13.032268
_cell_angle_alpha	90.886977
_cell_angle_beta	80.357249
_cell_angle_gamma	93.921479
loop_
_atom_site_label
_atom_site_type_symbol
_atom_site_fract_x
_atom_site_fract_y
_atom_site_fract_z
Zn1	Zn	-0.562103	-1.458766	0.811459
Zn2	Zn	-0.062103	-0.958766	1.311459
Zn3	Zn	-0.686112	-1.471747	0.646236
Zn4	Zn	-0.186112	-0.971747	1.146236
Zn5	Zn	-0.527333	-1.311081	0.615806
Zn6	Zn	-0.027333	-0.811081	1.115806
Zn7	Zn	-0.681612	-1.278313	0.796116
Zn8	Zn	-0.181612	-0.778313	1.296116
O9	O	-0.614290	-1.379976	0.717404
O10	O	-0.114290	-0.879976	1.217404
O11	O	-0.594988	-1.603247	0.808698
O12	O	-0.094988	-1.103247	1.308698
O13	O	-0.652382	-1.469580	0.497592
O14	O	-0.152382	-0.969580	0.997592
O15	O	-0.415480	-1.338953	0.635446
O16	O	0.084520	-0.838953	1.135446
O17	O	-0.686097	-1.612784	0.687309
O18	O	-0.186097	-1.112784	1.187309
O19	O	-0.441026	-1.447456	0.779192
O20	O	0.058974	-0.947456	1.279192
O21	O	-0.535727	-1.351539	0.475236
O22	O	-0.035727	-0.851539	0.975236
O23	O	-0.531364	-1.163974	0.620568
O24	O	-0.031364	-0.663974	1.120568
O25	O	-0.678427	-1.283104	0.942758
O26	O	-0.178427	-0.783104	1.442758
O27	O	-0.644712	-1.139900	0.753041
O28	O	-0.144712	-0.639900	1.253041
O29	O	-0.590624	-1.415682	0.954031
O30	O	-0.090624	-0.915682	1.454031
O31	O	-0.801980	-1.437806	0.672431
O32	O	-0.301980	-0.937806	1.172431
O33	O	-0.798674	-1.295691	0.782547
O34	O	-0.298674	-0.795691	1.282547
C35	C	-0.583777	-1.114921	0.681838
C36	C	-0.083777	-0.614921	1.181838
C37	C	-0.570746	-1.001525	0.666648
C38	C	-0.070746	-0.501525	1.166648
C39	C	-0.830530	-1.364626	0.729153
C40	C	-0.330530	-0.864626	1.229153
C41	C	-0.923053	-1.358148	0.734226
C42	C	-0.423053	-0.858148	1.234226
C43	C	-0.637902	-1.344290	0.986938
C44	C	-0.137902	-0.844290	1.486938
C45	C	-0.647964	-1.329082	1.101797
C46	C	-0.147964	-0.829082	1.601797
C47	C	-1.092455	-1.346324	0.743510
C48	C	-0.592455	-0.846324	1.243510
C49	C	-1.135307	-1.413810	0.691340
C50	C	-0.635307	-0.913810	1.191340
C51	C	-1.229569	-1.407231	0.696506
C52	C	-0.729569	-0.907231	1.196506
C53	C	-0.998185	-1.352901	0.738345
C54	C	-0.498185	-0.852901	1.238345
C55	C	-0.397210	-1.395412	0.705636
C56	C	0.102790	-0.895412	1.205636
C57	C	-0.304704	-1.401989	0.700622
C58	C	0.195296	-0.901989	1.200622
C59	C	-0.644923	-1.646067	0.753110
C60	C	-0.144923	-1.146067	1.253110
C61	C	-0.657977	-1.759458	0.768325
C62	C	-0.157977	-1.259458	1.268325
C63	C	-0.621091	-0.939092	0.725332
C64	C	-0.121091	-0.439092	1.225332
C65	C	-0.607624	-0.821890	0.709634
C66	C	-0.107624	-0.321890	1.209634
C67	C	-0.590717	-1.415587	0.448924
C68	C	-0.090717	-0.915587	0.948924
C69	C	-0.580443	-1.431009	0.334079
C70	C	-0.080443	-0.931009	0.834079
C71	C	-0.609007	-1.387900	1.158582
C72	C	-0.109007	-0.887900	1.658582
C73	C	-0.619405	-1.372183	1.277296
C74	C	-0.119405	-0.872183	1.777296
H75	H	-1.101202	-1.476527	0.642796
H76	H	-0.601202	-0.976527	1.142796
C77	C	-1.137777	-1.262651	0.808328
C78	C	-0.637777	-0.762651	1.308328
C79	C	-1.079721	-1.201687	0.855466
C80	C	-0.579721	-0.701687	1.355466
C81	C	-1.121453	-1.124607	0.915191
C82	C	-0.621453	-0.624607	1.415191
H83	H	-1.163169	-1.221049	0.764723
H84	H	-0.663169	-0.721049	1.264723
H85	H	-1.180069	-1.293327	0.860488
H86	H	-0.680069	-0.793327	1.360488
H87	H	-1.037444	-1.171013	0.803313
H88	H	-0.537444	-0.671013	1.303313
H89	H	-1.054326	-1.243261	0.899089
H90	H	-0.554326	-0.743261	1.399089
H91	H	-1.163745	-1.155283	0.967352
H92	H	-0.663745	-0.655283	1.467352
H93	H	-1.146844	-1.083012	0.871579
H94	H	-0.646844	-0.583012	1.371579
H95	H	-1.082070	-1.083240	0.947190
H96	H	-0.582070	-0.583240	1.447190
C97	C	-0.702834	-1.246579	1.154229
C98	C	-0.202834	-0.746579	1.654229
C99	C	-0.768229	-1.292411	1.226821
C100	C	-0.268229	-0.792411	1.726821
C101	C	-0.818801	-1.216443	1.275127
C102	C	-0.318801	-0.716443	1.775127
H103	H	-0.669648	-1.198817	1.188735
H104	H	-0.169648	-0.698817	1.688735
H105	H	-0.725982	-1.211729	1.103245
H106	H	-0.225982	-0.711729	1.603245
H107	H	-0.745082	-1.327245	1.277798
H108	H	-0.245082	-0.827245	1.777798
H109	H	-0.801436	-1.340166	1.192342
H110	H	-0.301436	-0.840166	1.692342
H111	H	-0.841948	-1.181592	1.224143
H112	H	-0.341948	-0.681592	1.724143
H113	H	-0.785607	-1.168685	1.309627
H114	H	-0.285607	-0.668685	1.809627
H115	H	-0.863181	-1.247530	1.324379
H116	H	-0.363181	-0.747530	1.824379
H117	H	-0.660453	-1.310182	1.316561
H118	H	-0.160453	-0.810182	1.816561
C119	C	-0.691880	-0.983302	0.807914
C120	C	-0.191880	-0.483302	1.307914
C121	C	-0.735705	-0.902989	0.859029
C122	C	-0.235705	-0.402989	1.359029
C123	C	-0.800914	-0.943672	0.935122
C124	C	-0.300914	-0.443672	1.435122
H125	H	-0.729452	-1.027533	0.775929
H126	H	-0.229452	-0.527533	1.275929
H127	H	-0.668810	-1.021136	0.856860
H128	H	-0.168810	-0.521136	1.356860
H129	H	-0.758775	-0.865171	0.810092
H130	H	-0.258775	-0.365171	1.310092
H131	H	-0.698157	-0.858751	0.891037
H132	H	-0.198157	-0.358751	1.391037
H133	H	-0.777844	-0.981506	0.984068
H134	H	-0.277844	-0.481506	1.484068
H135	H	-0.838479	-0.987903	0.903128
H136	H	-0.338479	-0.487903	1.403128
H137	H	-0.830652	-0.889185	0.969819
H138	H	-0.330652	-0.389185	1.469819
H139	H	-0.539383	-1.492999	1.294813
H140	H	-0.039383	-0.992999	1.794813
H141	H	-0.554544	-0.788578	0.647771
H142	H	-0.054544	-0.288578	1.147771
C143	C	-0.500058	-0.956918	0.584166
C144	C	-0.000058	-0.456918	1.084166
C145	C	-0.500778	-0.849542	0.584962
C146	C	-0.000778	-0.349542	1.084962
C147	C	-0.435682	-0.808421	0.508977
C148	C	0.064318	-0.308421	1.008977
H149	H	-0.447418	-0.976164	0.598581
H150	H	0.052582	-0.476164	1.098581
H151	H	-0.508064	-0.982606	0.517656
H152	H	-0.008064	-0.482606	1.017656
H153	H	-0.492765	-0.823864	0.651457
H154	H	0.007235	-0.323864	1.151457
H155	H	-0.553403	-0.830268	0.570535
H156	H	-0.053403	-0.330268	1.070535
H157	H	-0.443689	-0.834108	0.442468
H158	H	0.056311	-0.334108	0.942468
H159	H	-0.383047	-0.827673	0.523400
H160	H	0.116953	-0.327673	1.023400
H161	H	-0.436167	-0.735563	0.509501
H162	H	0.063833	-0.235563	1.009501
H163	H	-0.711049	-0.792768	0.830198
H164	H	-0.211049	-0.292768	1.330198
C165	C	-0.554192	-1.470419	1.106072
C166	C	-0.054192	-0.970419	1.606072
C167	C	-0.488821	-1.424599	1.033440
C168	C	0.011179	-0.924599	1.533440
C169	C	-0.438317	-1.500588	0.985041
C170	C	0.061683	-1.000588	1.485041
H171	H	-0.531012	-1.505330	1.156971
H172	H	-0.031012	-1.005330	1.656971
H173	H	-0.587459	-1.518129	1.071592
H174	H	-0.087459	-1.018129	1.571592
H175	H	-0.455560	-1.376907	1.067920
H176	H	0.044440	-0.876907	1.567920
H177	H	-0.511977	-1.389694	0.982521
H178	H	-0.011977	-0.889694	1.482521
H179	H	-0.471583	-1.548298	0.950560
H180	H	0.028417	-1.048298	1.450560
H181	H	-0.415143	-1.535494	1.035947
H182	H	0.084857	-1.035494	1.535947
H183	H	-0.393962	-1.469511	0.935748
H184	H	0.106038	-0.969511	1.435748
