data_functionalizedCrystal
_audit_creation_method	'MofGen! by Chris Wilmer'
_symmetry_space_group_name_H-M	'P1'
_symmetry_Int_Tables_number	1
_symmetry_cell_setting	triclinic
loop_
_symmetry_equiv_pos_as_xyz
  x,y,z
_cell_length_a	17.640280
_cell_length_b	18.050590
_cell_length_c	17.640968
_cell_angle_alpha	101.211534
_cell_angle_beta	114.317439
_cell_angle_gamma	78.792783
loop_
_atom_site_label
_atom_site_type_symbol
_atom_site_fract_x
_atom_site_fract_y
_atom_site_fract_z
Zn1	Zn	-0.234188	1.255744	0.399297
Zn2	Zn	0.265812	1.755744	0.899297
Zn3	Zn	-0.399857	1.255683	0.233658
Zn4	Zn	0.100143	1.755683	0.733658
Zn5	Zn	-0.262037	1.110675	0.261544
Zn6	Zn	0.237963	1.610675	0.761544
Zn7	Zn	-0.371926	1.152423	0.371470
Zn8	Zn	0.128074	1.652423	0.871470
O9	O	-0.317002	1.193631	0.316492
O10	O	0.182998	1.693631	0.816492
O11	O	-0.256199	1.359662	0.377299
O12	O	0.243801	1.859662	0.877299
O13	O	-0.404918	1.218950	0.122032
O14	O	0.095082	1.718950	0.622032
O15	O	-0.143020	1.112473	0.303133
O16	O	0.356980	1.612473	0.803133
O17	O	-0.377915	1.359617	0.255605
O18	O	0.122085	1.859617	0.755605
O19	O	-0.122560	1.219054	0.404340
O20	O	0.377440	1.719054	0.904340
O21	O	-0.303662	1.112414	0.142520
O22	O	0.196338	1.612414	0.642520
O23	O	-0.276579	1.012287	0.276151
O24	O	0.223421	1.512287	0.776151
O25	O	-0.330311	1.183626	0.490486
O26	O	0.169689	1.683626	0.990486
O27	O	-0.357315	1.042959	0.356914
O28	O	0.142685	1.542959	0.856914
O29	O	-0.229116	1.259535	0.510930
O30	O	0.270884	1.759535	1.010930
O31	O	-0.511474	1.259431	0.228623
O32	O	-0.011474	1.759431	0.728623
O33	O	-0.490953	1.183567	0.329873
O34	O	0.009047	1.683567	0.829873
C35	C	-0.316939	1.000676	0.316539
C36	C	0.183061	1.500676	0.816539
C37	C	-0.316927	0.918135	0.316575
C38	C	0.183073	1.418135	0.816575
C39	C	-0.531112	1.226046	0.273221
C40	C	-0.031112	1.726046	0.773221
C41	C	-0.622703	1.239985	0.254736
C42	C	-0.122703	1.739985	0.754736
C43	C	-0.361015	0.735389	0.360331
C44	C	0.138985	1.235389	0.860331
C45	C	-0.281776	0.677662	0.395785
C46	C	0.218224	1.177662	0.895785
C47	C	-0.316981	0.767005	0.316525
C48	C	0.183019	1.267005	0.816525
C49	C	-0.396264	0.677657	0.281061
C50	C	0.103736	1.177657	0.781061
C51	C	-0.317040	0.621022	0.316478
C52	C	0.182960	1.121022	0.816478
C53	C	-0.237694	0.710365	0.352027
C54	C	0.262306	1.210365	0.852027
C55	C	-0.352240	0.710367	0.237258
C56	C	0.147760	1.210367	0.737258
C57	C	-0.272955	0.652650	0.272694
C58	C	0.227045	1.152650	0.772694
C59	C	-0.316948	0.851103	0.316555
C60	C	0.183052	1.351103	0.816555
C61	C	-0.317065	0.536925	0.316450
C62	C	0.182935	1.036925	0.816450
C63	C	-0.870716	1.088087	0.457215
C64	C	-0.370716	1.588087	0.957215
C65	C	-0.956785	1.101183	0.439820
C66	C	-0.456785	1.601183	0.939820
C67	C	-0.978067	1.180256	0.334495
C68	C	-0.478067	1.680256	0.834495
C69	C	-0.891997	1.167170	0.351884
C70	C	-0.391997	1.667170	0.851884
C71	C	-0.838328	1.121084	0.413244
C72	C	-0.338328	1.621084	0.913244
C73	C	-0.859608	1.200167	0.307913
C74	C	-0.359608	1.700167	0.807913
C75	C	-0.773546	1.187079	0.325298
C76	C	-0.273546	1.687079	0.825298
C77	C	-0.719873	1.140993	0.386654
C78	C	-0.219873	1.640993	0.886654
C79	C	-0.752266	1.107996	0.430629
C80	C	-0.252266	1.607996	0.930629
C81	C	-0.913279	1.246248	0.246549
C82	C	-0.413279	1.746248	0.746549
C83	C	-0.880891	1.279245	0.202578
C84	C	-0.380891	1.779245	0.702578
C85	C	-0.794827	1.266161	0.219967
C86	C	-0.294827	1.766161	0.719967
C87	C	-0.741153	1.220076	0.281322
C88	C	-0.241153	1.720076	0.781322
C89	C	-0.762434	1.299159	0.175991
C90	C	-0.262434	1.799159	0.675991
C91	C	-0.676372	1.286070	0.193376
C92	C	-0.176372	1.786070	0.693376
C93	C	-0.655092	1.206988	0.298707
C94	C	-0.155092	1.706988	0.798707
C95	C	-0.102053	1.161113	0.359951
C96	C	0.397947	1.661113	0.859951
C97	C	-0.010454	1.147256	0.378471
C98	C	0.489546	1.647256	0.878471
C99	C	-0.273492	1.226244	0.531447
C100	C	0.226508	1.726244	1.031447
C101	C	-0.254950	1.240142	0.623048
C102	C	0.245050	1.740142	1.123048
C103	C	-0.317066	1.387340	0.316446
C104	C	0.182934	1.887340	0.816446
C105	C	-0.317094	1.469887	0.316426
C106	C	0.182906	1.969887	0.816426
C107	C	-0.360284	1.161179	0.102386
C108	C	0.139716	1.661179	0.602386
C109	C	-0.378593	1.147390	0.010833
C110	C	0.121407	1.647390	0.510833
C111	C	-0.457412	1.088269	0.871090
C112	C	0.042588	1.588269	1.371090
C113	C	-0.439979	1.101342	0.957165
C114	C	0.060021	1.601342	1.457165
C115	C	-0.334613	1.180380	0.978441
C116	C	0.165387	1.680380	1.478441
C117	C	-0.352034	1.167310	0.892366
C118	C	0.147966	1.667310	1.392366
C119	C	-0.413435	1.121255	0.838697
C120	C	0.086565	1.621255	1.338697
C121	C	-0.308058	1.200296	0.859974
C122	C	0.191942	1.700296	1.359974
C123	C	-0.325481	1.187231	0.773906
C124	C	0.174519	1.687231	1.273906
C125	C	-0.386881	1.141180	0.720231
C126	C	0.113119	1.641180	1.220231
C127	C	-0.430859	1.108190	0.752629
C128	C	0.069141	1.608190	1.252629
C129	C	-0.246661	1.246356	0.913644
C130	C	0.253339	1.746356	1.413644
C131	C	-0.202685	1.279342	0.881251
C132	C	0.297315	1.779342	1.381251
C133	C	-0.220103	1.266272	0.795183
C134	C	0.279897	1.766272	1.295183
C135	C	-0.281503	1.220221	0.741508
C136	C	0.218497	1.720221	1.241508
C137	C	-0.176126	1.299262	0.762785
C138	C	0.323874	1.799262	1.262785
C139	C	-0.193549	1.286197	0.676717
C140	C	0.306451	1.786197	1.176717
C141	C	-0.298927	1.207156	0.655440
C142	C	0.201073	1.707156	1.155440
H143	H	-0.398161	0.771172	0.397444
H144	H	0.101839	1.271172	0.897444
F145	F	-0.224247	0.606043	0.224261
F146	F	0.275753	1.106043	0.724261
H147	H	-0.232479	1.256994	0.983724
H148	H	0.267521	1.756994	1.483724
H149	H	-0.611390	1.169467	0.348679
H150	H	-0.111390	1.669467	0.848679
H151	H	-0.649797	1.130332	0.400801
H152	H	-0.149797	1.630332	0.900801
F153	F	-1.004870	1.260200	0.228070
F154	F	-0.504870	1.760200	0.728070
F155	F	-0.364270	1.158131	0.598318
F156	F	0.135730	1.658131	1.098318
F157	F	-0.150044	0.729389	0.391305
F158	F	0.349956	1.229389	0.891305
H159	H	-0.401069	1.130546	0.650149
H160	H	0.098931	1.630546	1.150149
H161	H	-0.463287	0.663014	0.251090
H162	H	0.036713	1.163014	0.751090
H163	H	-0.708565	1.070475	0.480601
H164	H	-0.208565	1.570475	0.980601
F165	F	-0.486788	1.066228	0.991635
F166	F	0.013212	1.566228	1.491635
H167	H	-0.507391	1.050746	0.827392
H168	H	-0.007391	1.550746	1.327392
F169	F	-0.269270	1.229396	1.035567
F170	F	0.230730	1.729396	1.535567
H171	H	-0.650002	1.312939	0.157569
H172	H	-0.150002	1.812939	0.657569
H173	H	-0.251975	0.663018	0.462801
H174	H	0.248025	1.163018	0.962801
H175	H	-0.480838	1.070666	0.708932
H176	H	0.019162	1.570666	1.208932
H177	H	-0.924600	1.316765	0.152616
H178	H	-0.424600	1.816765	0.652616
H179	H	-0.126139	1.336766	0.806493
H180	H	0.373861	1.836766	1.306493
H181	H	-0.152694	1.316842	0.924959
H182	H	0.347306	1.816842	1.424959
H183	H	-1.021775	1.217776	0.284533
H184	H	-0.521775	1.717776	0.784533
H185	H	-0.806145	1.336675	0.126026
H186	H	-0.306145	1.836675	0.626026
F187	F	-0.391206	0.729514	0.149671
F188	F	0.108794	1.229514	0.649671
H189	H	-0.157738	1.313056	0.650343
H190	H	0.342262	1.813056	1.150343
H191	H	-0.827015	1.050566	0.507187
H192	H	-0.327015	1.550566	1.007187
H193	H	-0.983149	1.074319	0.475641
H194	H	-0.483149	1.574319	0.975641
