data_functionalizedCrystal
_audit_creation_method	'MofGen! by Chris Wilmer'
_symmetry_space_group_name_H-M	'P1'
_symmetry_Int_Tables_number	1
_symmetry_cell_setting	triclinic
loop_
_symmetry_equiv_pos_as_xyz
  x,y,z
_cell_length_a	23.532407
_cell_length_b	14.044220
_cell_length_c	13.101039
_cell_angle_alpha	86.332523
_cell_angle_beta	86.666253
_cell_angle_gamma	91.981188
loop_
_atom_site_label
_atom_site_type_symbol
_atom_site_fract_x
_atom_site_fract_y
_atom_site_fract_z
O1	O	0.764357	-0.109755	-0.085152
O2	O	1.014357	0.140245	0.164848
O3	O	1.264357	0.390245	0.414848
O4	O	1.514357	0.640245	0.664848
O5	O	0.599396	-0.126395	-0.085169
O6	O	0.849396	0.123605	0.164831
O7	O	1.099396	0.373605	0.414831
O8	O	1.349396	0.623605	0.664831
O9	O	0.679400	0.019885	-0.085150
O10	O	0.929400	0.269885	0.164850
O11	O	1.179400	0.519885	0.414850
O12	O	1.429400	0.769885	0.664850
O13	O	0.684353	-0.256036	-0.085170
O14	O	0.934353	-0.006036	0.164830
O15	O	1.184353	0.243964	0.414830
O16	O	1.434353	0.493964	0.664830
O17	O	0.673661	0.009373	0.085278
O18	O	0.923661	0.259373	0.335278
O19	O	1.173661	0.509373	0.585278
O20	O	1.423661	0.759373	0.835278
O21	O	0.593657	-0.136908	0.085260
O22	O	0.843657	0.113092	0.335260
O23	O	1.093657	0.363092	0.585260
O24	O	1.343657	0.613092	0.835260
O25	O	0.758617	-0.120268	0.085277
O26	O	1.008617	0.129732	0.335277
O27	O	1.258617	0.379732	0.585277
O28	O	1.508617	0.629732	0.835277
Zn29	Zn	0.675226	-0.130257	0.112327
Zn30	Zn	0.925226	0.119743	0.362327
Zn31	Zn	1.175226	0.369743	0.612327
Zn32	Zn	1.425226	0.619743	0.862327
Zn33	Zn	0.682788	-0.116406	-0.112219
Zn34	Zn	0.932788	0.133594	0.137781
Zn35	Zn	1.182788	0.383594	0.387781
Zn36	Zn	1.432788	0.633594	0.637781
O37	O	0.678613	-0.266549	0.085258
O38	O	0.928613	-0.016549	0.335258
O39	O	1.178613	0.233451	0.585258
O40	O	1.428613	0.483451	0.835258
C41	C	0.575287	-0.131228	0.000044
C42	C	0.825287	0.118772	0.250044
C43	C	1.075287	0.368772	0.500044
C44	C	1.325287	0.618772	0.750044
C45	C	0.512001	-0.129953	0.000038
C46	C	0.762001	0.120047	0.250038
C47	C	1.012001	0.370047	0.500038
C48	C	1.262001	0.620047	0.750038
C49	C	0.240856	-0.038135	0.000072
C50	C	0.490856	0.211865	0.250072
C51	C	0.740856	0.461865	0.500072
C52	C	0.990856	0.711865	0.750072
C53	C	0.300320	-0.039318	0.000072
C54	C	0.550320	0.210682	0.250072
C55	C	0.800320	0.460682	0.500072
C56	C	1.050320	0.710682	0.750072
O57	O	0.333116	0.033519	0.000113
O58	O	0.583116	0.283519	0.250113
O59	O	0.833116	0.533519	0.500113
O60	O	1.083116	0.783519	0.750113
N61	N	0.327661	-0.126282	0.000059
N62	N	0.577661	0.123718	0.250059
N63	N	0.827661	0.373718	0.500059
N64	N	1.077661	0.623718	0.750059
C65	C	0.295533	-0.212068	0.000056
C66	C	0.545533	0.037932	0.250056
C67	C	0.795533	0.287932	0.500056
C68	C	1.045533	0.537932	0.750056
O69	O	0.324248	-0.286146	0.000046
O70	O	0.574248	-0.036146	0.250046
O71	O	0.824248	0.213854	0.500046
O72	O	1.074248	0.463854	0.750046
C73	C	0.236069	-0.210884	0.000064
C74	C	0.486069	0.039116	0.250064
C75	C	0.736069	0.289116	0.500064
C76	C	0.986069	0.539116	0.750064
C77	C	0.208733	-0.123914	0.000067
C78	C	0.458733	0.126086	0.250067
C79	C	0.708733	0.376086	0.500067
C80	C	0.958733	0.626086	0.750067
C81	C	0.213519	0.048828	0.000076
C82	C	0.463519	0.298828	0.250076
C83	C	0.713519	0.548828	0.500076
C84	C	0.963519	0.798828	0.750076
C85	C	0.154059	0.050011	0.000075
C86	C	0.404059	0.300011	0.250075
C87	C	0.654059	0.550011	0.500075
C88	C	0.904059	0.800011	0.750075
C89	C	0.121936	-0.035768	0.000069
C90	C	0.371936	0.214232	0.250069
C91	C	0.621936	0.464232	0.500069
C92	C	0.871936	0.714232	0.750069
C93	C	0.149273	-0.122731	0.000065
C94	C	0.399273	0.127269	0.250065
C95	C	0.649273	0.377269	0.500065
C96	C	0.899273	0.627269	0.750065
C97	C	0.203943	-0.296670	0.000069
C98	C	0.453943	-0.046670	0.250069
C99	C	0.703943	0.203330	0.500069
C100	C	0.953943	0.453330	0.750069
C101	C	0.144475	-0.295478	0.000077
C102	C	0.394475	-0.045478	0.250077
C103	C	0.644475	0.204522	0.500077
C104	C	0.894475	0.454522	0.750077
C105	C	0.117139	-0.208509	0.000080
C106	C	0.367139	0.041491	0.250080
C107	C	0.617139	0.291491	0.500080
C108	C	0.867139	0.541491	0.750080
C109	C	0.057689	-0.207327	0.000058
C110	C	0.307689	0.042673	0.250058
C111	C	0.557689	0.292673	0.500058
C112	C	0.807689	0.542673	0.750058
N113	N	0.030349	-0.120364	0.000071
N114	N	0.280349	0.129636	0.250071
N115	N	0.530349	0.379636	0.500071
N116	N	0.780349	0.629636	0.750071
C117	C	0.062472	-0.034584	0.000077
C118	C	0.312472	0.215416	0.250077
C119	C	0.562472	0.465416	0.500077
C120	C	0.812472	0.715416	0.750077
C121	C	0.420410	-0.214548	0.000042
C122	C	0.670410	0.035452	0.250042
C123	C	0.920410	0.285452	0.500042
C124	C	1.170410	0.535452	0.750042
C125	C	0.479873	-0.215733	0.000027
C126	C	0.729873	0.034267	0.250027
C127	C	0.979873	0.284267	0.500027
C128	C	1.229873	0.534267	0.750027
C129	C	0.484657	-0.042983	0.000044
C130	C	0.734657	0.207017	0.250044
C131	C	0.984657	0.457017	0.500044
C132	C	1.234657	0.707017	0.750044
C133	C	0.425193	-0.041799	0.000052
C134	C	0.675193	0.208201	0.250052
C135	C	0.925193	0.458201	0.500052
C136	C	1.175193	0.708201	0.750052
C137	C	0.393070	-0.127585	0.000055
C138	C	0.643070	0.122415	0.250055
C139	C	0.893070	0.372415	0.500055
C140	C	1.143070	0.622415	0.750055
C141	C	-0.062399	-0.032106	0.000073
C142	C	0.187601	0.217894	0.250073
C143	C	0.437601	0.467894	0.500073
C144	C	0.687601	0.717894	0.750073
C145	C	-0.121864	-0.030930	0.000067
C146	C	0.128136	0.219070	0.250067
C147	C	0.378136	0.469070	0.500067
C148	C	0.628136	0.719070	0.750067
C149	C	-0.126643	-0.203680	0.000055
C150	C	0.123357	0.046320	0.250055
C151	C	0.373357	0.296320	0.500055
C152	C	0.623357	0.546320	0.750055
C153	C	-0.067182	-0.204856	0.000055
C154	C	0.182818	0.045144	0.250055
C155	C	0.432818	0.295144	0.500055
C156	C	0.682818	0.545144	0.750055
C157	C	-0.035062	-0.119062	0.000067
C158	C	0.214938	0.130938	0.250067
C159	C	0.464938	0.380938	0.500067
C160	C	0.714938	0.630938	0.750067
O161	O	0.024857	-0.280127	0.000022
O162	O	0.274857	-0.030127	0.250022
O163	O	0.524857	0.219873	0.500022
O164	O	0.774857	0.469873	0.750022
O165	O	0.033749	0.039481	0.000101
O166	O	0.283749	0.289481	0.250101
O167	O	0.533749	0.539481	0.500101
O168	O	0.783749	0.789481	0.750101
C169	C	0.674363	0.049923	0.000064
C170	C	0.924363	0.299923	0.250064
C171	C	1.174363	0.549923	0.500064
C172	C	1.424363	0.799923	0.750064
C173	C	0.667897	0.155088	0.000065
C174	C	0.917897	0.405088	0.250065
C175	C	1.167897	0.655088	0.500065
C176	C	1.417897	0.905088	0.750065
C177	C	0.782726	-0.115436	0.000062
C178	C	1.032726	0.134564	0.250062
C179	C	1.282726	0.384564	0.500062
C180	C	1.532726	0.634564	0.750062
C181	C	0.846012	-0.116710	0.000061
C182	C	1.096012	0.133290	0.250061
C183	C	1.346012	0.383290	0.500061
C184	C	1.596012	0.633290	0.750061
C185	C	0.683651	-0.296586	0.000042
C186	C	0.933651	-0.046586	0.250042
C187	C	1.183651	0.203414	0.500042
C188	C	1.433651	0.453414	0.750042
C189	C	0.690117	-0.401751	0.000034
C190	C	0.940117	-0.151751	0.250034
C191	C	1.190117	0.098249	0.500034
C192	C	1.440117	0.348249	0.750034
N193	N	0.670069	-0.139709	0.265575
N194	N	0.920069	0.110291	0.515575
N195	N	1.170069	0.360291	0.765575
N196	N	1.420069	0.610291	1.015575
C197	C	0.656076	0.347639	0.000049
C198	C	0.906076	0.597639	0.250049
C199	C	1.156076	0.847639	0.500049
C200	C	1.406076	1.097639	0.750049
C201	C	0.701935	0.405704	0.000050
C202	C	0.951935	0.655704	0.250050
C203	C	1.201935	0.905704	0.500050
C204	C	1.451935	1.155704	0.750050
C205	C	0.695358	0.512846	0.000041
C206	C	0.945358	0.762846	0.250041
C207	C	1.195358	1.012846	0.500041
C208	C	1.445358	1.262846	0.750041
C209	C	0.662652	0.240487	0.000058
C210	C	0.912652	0.490487	0.250058
C211	C	1.162652	0.740487	0.500058
C212	C	1.412652	0.990487	0.750058
N213	N	0.687948	-0.106946	-0.265467
N214	N	0.937948	0.143054	-0.015467
N215	N	1.187948	0.393054	0.234533
N216	N	1.437948	0.643054	0.484533
C217	C	0.663054	-0.152578	0.474616
C218	C	0.913054	0.097422	0.724616
C219	C	1.163054	0.347422	0.974616
C220	C	1.413054	0.597422	1.224616
C221	C	0.694962	-0.094081	0.525499
C222	C	0.944962	0.155919	0.775499
C223	C	1.194962	0.405919	1.025499
C224	C	1.444962	0.655919	1.275499
C225	C	0.691059	-0.101241	0.641816
C226	C	0.941059	0.148759	0.891816
C227	C	1.191059	0.398759	1.141816
C228	C	1.441059	0.648759	1.391816
C229	C	0.666957	-0.145419	0.358288
C230	C	0.916957	0.104581	0.608288
C231	C	1.166957	0.354581	0.858288
C232	C	1.416957	0.604581	1.108288
H233	H	0.226190	-0.367490	0.000062
H234	H	0.476190	-0.117490	0.250062
H235	H	0.726190	0.132510	0.500062
H236	H	0.976190	0.382510	0.750062
H237	H	0.611879	0.378393	0.000042
H238	H	0.861879	0.628393	0.250042
H239	H	1.111879	0.878393	0.500042
H240	H	1.361879	1.128393	0.750042
H241	H	0.725211	-0.038622	0.481703
H242	H	0.975211	0.211378	0.731703
H243	H	1.225211	0.461378	0.981703
H244	H	1.475211	0.711378	1.231703
H245	H	0.118323	-0.365338	0.000084
H246	H	0.368323	-0.115338	0.250084
H247	H	0.618323	0.134662	0.500084
H248	H	0.868323	0.384662	0.750084
H249	H	0.632807	-0.208034	0.518406
H250	H	0.882807	0.041966	0.768406
H251	H	1.132807	0.291966	1.018406
H252	H	1.382807	0.541966	1.268406
H253	H	0.746138	0.374953	-0.000014
H254	H	0.996138	0.624953	0.249986
H255	H	1.246138	0.874953	0.499986
H256	H	1.496138	1.124953	0.749986
H257	H	0.394260	-0.284410	0.000037
H258	H	0.644260	-0.034410	0.250037
H259	H	0.894260	0.215590	0.500037
H260	H	1.144260	0.465590	0.750037
H261	H	-0.144119	0.039894	0.000066
H262	H	0.105881	0.289894	0.250066
H263	H	0.355881	0.539894	0.500066
H264	H	0.605881	0.789894	0.750066
H265	H	-0.036253	0.037756	0.000082
H266	H	0.213747	0.287756	0.250082
H267	H	0.463747	0.537756	0.500082
H268	H	0.713747	0.787756	0.750082
H269	H	-0.152808	-0.273519	0.000045
H270	H	0.097192	-0.023519	0.250045
H271	H	0.347192	0.226481	0.500045
H272	H	0.597192	0.476481	0.750045
H273	H	0.131807	0.120831	0.000081
H274	H	0.381807	0.370831	0.250081
H275	H	0.631807	0.620831	0.500081
H276	H	0.881807	0.870831	0.750081
H277	H	0.402940	0.029020	0.000055
H278	H	0.652940	0.279020	0.250055
H279	H	0.902940	0.529020	0.500055
H280	H	1.152940	0.779020	0.750055
H281	H	0.510822	0.026864	0.000049
H282	H	0.760822	0.276864	0.250049
H283	H	1.010822	0.526864	0.500049
H284	H	1.260822	0.776864	0.750049
H285	H	0.239668	0.118684	0.000084
H286	H	0.489668	0.368684	0.250084
H287	H	0.739668	0.618684	0.500084
H288	H	0.989668	0.868684	0.750084
H289	H	0.502126	-0.286551	0.000010
H290	H	0.752126	-0.036551	0.250010
H291	H	1.002126	0.213449	0.500010
H292	H	1.252126	0.463449	0.750010
H293	H	-0.044924	-0.275674	0.000052
H294	H	0.205076	-0.025674	0.250052
H295	H	0.455076	0.224326	0.500052
H296	H	0.705076	0.474326	0.750052
