data_functionalizedCrystal
_audit_creation_method	'MofGen! by Chris Wilmer'
_symmetry_space_group_name_H-M	'P1'
_symmetry_Int_Tables_number	1
_symmetry_cell_setting	triclinic
loop_
_symmetry_equiv_pos_as_xyz
  x,y,z
_cell_length_a	18.215407
_cell_length_b	19.805404
_cell_length_c	18.215399
_cell_angle_alpha	90.028419
_cell_angle_beta	90.019833
_cell_angle_gamma	90.030041
loop_
_atom_site_label
_atom_site_type_symbol
_atom_site_fract_x
_atom_site_fract_y
_atom_site_fract_z
Zn1	Zn	1.125048	-0.269462	0.416113
Zn2	Zn	1.124946	-0.382653	0.293046
Zn3	Zn	1.001980	-0.269484	0.293061
Zn4	Zn	1.001936	-0.382615	0.416071
O5	O	1.063478	-0.326054	0.354573
O6	O	1.228019	-0.284484	0.399800
O7	O	1.108610	-0.367666	0.190064
O8	O	1.018367	-0.174765	0.309408
O9	O	1.227944	-0.367644	0.309383
O10	O	1.108784	-0.174748	0.399814
O11	O	1.018268	-0.284521	0.190075
O12	O	0.898990	-0.284485	0.309367
O13	O	1.018291	-0.367580	0.519061
O14	O	0.898958	-0.367602	0.399742
O15	O	1.108741	-0.284447	0.519092
O16	O	1.108568	-0.477365	0.309342
O17	O	1.018193	-0.477337	0.399728
C18	C	0.872271	-0.326042	0.354552
C19	C	0.790473	-0.326053	0.354560
C20	C	0.602281	-0.369400	0.401559
C21	C	0.525422	-0.369403	0.401569
C22	C	0.525426	-0.282719	0.307602
C23	C	0.602284	-0.282714	0.307597
C24	C	0.640709	-0.326059	0.354575
C25	C	0.486993	-0.326066	0.354589
C26	C	0.403659	-0.326068	0.354599
C27	C	0.724048	-0.326056	0.354566
C28	C	1.063384	-0.501910	0.354545
C29	C	1.063412	-0.577142	0.354557
C30	C	1.110717	-1.038925	0.307612
C31	C	1.110682	-0.968236	0.307598
C32	C	1.063574	-0.932903	0.354612
C33	C	1.016492	-0.968263	0.401638
C34	C	1.016524	-1.038950	0.401648
C35	C	1.016364	-0.683189	0.401598
C36	C	1.016338	-0.612497	0.401586
C37	C	1.110523	-0.612476	0.307547
C38	C	1.110554	-0.683163	0.307557
C39	C	1.063470	-0.718516	0.354581
C40	C	1.063507	-0.795164	0.354595
C41	C	1.063540	-0.856256	0.354602
C42	C	1.255431	-0.326066	0.354594
C43	C	1.337229	-0.326071	0.354604
C44	C	1.063523	-0.326007	0.546526
C45	C	1.063542	-0.325987	0.628325
C46	C	1.063592	-0.149511	0.354617
C47	C	1.063640	-0.074279	0.354636
C48	C	1.063475	-0.326051	0.163367
C49	C	1.063599	-0.325880	0.081568
C50	C	1.110656	-0.282659	0.816536
C51	C	1.110664	-0.282639	0.893395
C52	C	1.016480	-0.369210	0.893351
C53	C	1.016468	-0.369226	0.816494
C54	C	1.063560	-0.325952	0.778088
C55	C	1.063581	-0.325916	0.931805
C56	C	1.063590	-0.325895	1.015138
C57	C	1.063550	-0.325972	0.694749
H58	H	1.149081	-1.067687	0.269331
H59	H	0.633564	-0.404693	0.439813
Cl60	Cl	1.169854	-0.228254	0.768258
H61	H	0.978140	-0.404444	0.924630
H62	H	1.148859	-0.583684	0.269256
Cl63	Cl	1.169880	-0.228218	0.941726
H64	H	0.978111	-0.404480	0.785189
Cl65	Cl	1.169875	-0.923793	0.248487
Cl66	Cl	0.650597	-0.228218	0.248531
H67	H	1.148917	-0.711927	0.269276
H68	H	0.494137	-0.404695	0.439829
H69	H	0.977974	-0.583731	0.439872
H70	H	0.978020	-0.711965	0.439882
Cl71	Cl	0.477115	-0.228234	0.248547
H72	H	0.978193	-1.067734	0.439944
Cl73	Cl	0.957270	-0.923844	0.460742
