data_functionalizedCrystal
_audit_creation_method	'MofGen! by Chris Wilmer'
_symmetry_space_group_name_H-M	'P1'
_symmetry_Int_Tables_number	1
_symmetry_cell_setting	triclinic
loop_
_symmetry_equiv_pos_as_xyz
  x,y,z
_cell_length_a	10.489716
_cell_length_b	10.489746
_cell_length_c	11.804783
_cell_angle_alpha	76.818858
_cell_angle_beta	76.828521
_cell_angle_gamma	84.535218
loop_
_atom_site_label
_atom_site_type_symbol
_atom_site_fract_x
_atom_site_fract_y
_atom_site_fract_z
O1	O	1.670888	0.156609	0.099011
O2	O	1.299688	0.173534	0.099016
O3	O	1.493733	-0.020525	0.099004
O4	O	1.476843	0.350668	0.099022
O5	O	1.540094	0.025891	-0.099035
O6	O	1.346049	0.219950	-0.099024
O7	O	1.717249	0.203025	-0.099028
Cu8	Cu	1.535882	0.215726	-0.117108
Cu9	Cu	1.481055	0.160833	0.117096
O10	O	1.523204	0.397084	-0.099017
C11	C	1.515637	-0.044848	-0.000015
C12	C	1.511817	-0.186477	-0.000014
C13	C	1.275336	0.195470	-0.000004
C14	C	1.133705	0.191665	-0.000002
C15	C	1.386088	-0.339328	0.000002
C16	C	1.426088	-0.284826	0.097643
C17	C	1.471826	-0.239104	-0.097608
C18	C	1.545049	-0.384349	0.097733
C19	C	1.590790	-0.338612	-0.097606
C20	C	1.630872	-0.284165	0.000059
C21	C	1.036031	0.310667	0.000007
C22	C	0.981544	0.270670	-0.097645
C23	C	0.935842	0.224880	0.097606
C24	C	1.081102	0.151737	-0.097735
C25	C	1.035385	0.105943	0.097604
C26	C	0.980953	0.065864	-0.000072
C27	C	1.741600	0.181089	-0.000006
C28	C	1.883230	0.184892	-0.000000
C29	C	1.501300	0.421407	0.000005
C30	C	1.505118	0.563034	0.000012
N31	N	1.574454	0.254333	-0.281835
C32	C	1.349822	0.029495	-0.655865
C33	C	1.320618	0.000280	-0.531214
C34	C	1.384074	0.063791	-0.468863
C35	C	1.476740	0.156521	-0.531176
C36	C	1.505955	0.185731	-0.655839
C37	C	1.540207	0.220028	-0.468837
C38	C	1.632873	0.312758	-0.531149
C39	C	1.662082	0.341964	-0.655800
C40	C	1.598626	0.278453	-0.718151
C41	C	1.510992	0.190818	-0.344174
C42	C	1.667125	0.347055	-0.344147
C43	C	1.696329	0.376269	-0.468798
N44	N	1.442493	0.122216	0.281822
H45	H	1.356513	-0.260694	0.180194
N46	N	0.949538	0.362847	-0.206986
H47	H	0.853597	0.358926	-0.206572
H48	H	1.004510	0.336083	-0.280677
H49	H	1.435542	0.115318	-0.293451
H50	H	1.298174	-0.022214	-0.706643
N51	N	1.682892	-0.370610	-0.206957
H52	H	1.631878	-0.406154	-0.255019
H53	H	1.751820	-0.438490	-0.181988
N54	N	0.948585	-0.071331	-0.000136
H55	H	1.030378	-0.130589	-0.000867
H56	H	0.913362	-0.070090	-0.073210
H57	H	1.059554	0.036396	0.180159
H58	H	1.771780	0.451772	-0.519551
H59	H	1.622394	0.302241	-0.819653
H60	H	1.143763	0.120898	-0.180373
H61	H	1.575918	-0.447004	0.180375
N62	N	1.735584	0.415558	-0.276914
H63	H	1.703014	0.382986	-0.188490
H64	H	1.716339	0.513195	-0.298706
H65	H	1.282562	-0.364061	0.000101
N66	N	0.852521	0.265877	0.206869
H67	H	0.872133	0.358328	0.206756
H68	H	0.872798	0.204579	0.280637
H69	H	1.734440	-0.259712	0.000111
H70	H	1.440879	-0.176308	-0.180157
N71	N	1.352581	0.032285	-0.334419
H72	H	1.284249	-0.036094	-0.304405
H73	H	1.317805	0.114399	-0.304492
N74	N	1.220684	-0.099732	-0.464008
H75	H	1.184916	-0.135534	-0.522419
H76	H	1.146717	-0.056841	-0.412295
N77	N	1.762078	0.441937	-0.722983
H78	H	1.732708	0.529429	-0.701299
H79	H	1.770949	0.450698	-0.811395
N80	N	1.068770	0.447796	-0.000098
H81	H	1.013884	0.476098	0.072894
H82	H	1.049669	0.509820	-0.073974
