data_functionalizedCrystal
_audit_creation_method	'MofGen! by Chris Wilmer'
_symmetry_space_group_name_H-M	'P1'
_symmetry_Int_Tables_number	1
_symmetry_cell_setting	triclinic
loop_
_symmetry_equiv_pos_as_xyz
  x,y,z
_cell_length_a	23.532409
_cell_length_b	14.044220
_cell_length_c	13.101018
_cell_angle_alpha	93.664297
_cell_angle_beta	86.659244
_cell_angle_gamma	88.019219
loop_
_atom_site_label
_atom_site_type_symbol
_atom_site_fract_x
_atom_site_fract_y
_atom_site_fract_z
O1	O	0.134364	1.261656	0.085093
O2	O	0.129411	0.985735	0.085119
O3	O	0.049407	1.132015	0.085106
O4	O	0.214368	1.115376	0.085105
O5	O	0.055152	1.121508	-0.085323
O6	O	0.135156	0.975228	-0.085310
O7	O	0.140109	1.251149	-0.085337
Zn8	Zn	0.138545	1.111520	-0.112383
Zn9	Zn	0.130975	1.125364	0.112165
O10	O	0.220113	1.104869	-0.085324
C11	C	0.130116	0.945188	-0.000092
C12	C	0.123649	0.840023	-0.000082
C13	C	0.031040	1.126338	-0.000106
C14	C	-0.032246	1.125063	-0.000098
C15	C	0.111829	0.647472	-0.000102
C16	C	0.157688	0.589407	-0.000107
C17	C	0.151111	0.482265	-0.000118
C18	C	0.118405	0.754624	-0.000091
C19	C	-0.308917	1.125370	0.092808
C20	C	-0.249452	1.126553	0.092808
O21	O	-0.221356	1.132070	0.171814
N22	N	-0.216587	1.121412	-0.000095
C23	C	-0.243189	1.115095	-0.093004
O24	O	-0.209774	1.110831	-0.172024
C25	C	-0.302652	1.113918	-0.093003
C26	C	-0.335515	1.119051	-0.000094
C27	C	-0.341779	1.130503	0.185709
C28	C	-0.401239	1.129317	0.185709
C29	C	-0.427837	1.122998	0.092807
C30	C	-0.394975	1.117865	-0.000094
C31	C	-0.329253	1.107609	-0.185910
C32	C	-0.388721	1.106433	-0.185901
C33	C	-0.421584	1.111566	-0.092993
C34	C	-0.481033	1.110361	-0.092996
N35	N	-0.513899	1.115503	-0.000094
C36	C	-0.487301	1.121821	0.092808
C37	C	-0.118312	1.117569	-0.092998
C38	C	-0.058849	1.118739	-0.093001
C39	C	-0.065117	1.130199	0.092811
C40	C	-0.124580	1.129022	0.092812
C41	C	-0.151177	1.122711	-0.000096
C42	C	-0.612171	1.119330	0.092800
C43	C	-0.671636	1.118140	0.092791
C44	C	-0.665363	1.106685	-0.093020
C45	C	-0.605903	1.107870	-0.093012
C46	C	-0.579309	1.114197	-0.000094
O47	O	-0.509169	1.104850	-0.171962
O48	O	-0.520723	1.126097	0.171816
C49	C	0.238480	1.110547	-0.000110
C50	C	0.301766	1.111821	-0.000111
C51	C	0.139404	1.291696	-0.000123
C52	C	0.145870	1.396861	-0.000127
N53	N	0.143711	1.102079	-0.265631
C54	C	0.118774	1.147653	-0.525544
C55	C	0.150740	1.089241	-0.474667
C56	C	0.146828	1.096386	-0.358348
C57	C	0.122686	1.140510	-0.641873
N58	N	0.125805	1.134813	0.265413
H59	H	0.201889	0.620163	-0.000102
C60	C	0.052941	0.606290	-0.000047
C61	C	0.058043	0.506669	-0.000028
C62	C	0.003808	0.468689	0.000042
H63	H	0.034796	0.623511	-0.059457
H64	H	0.030837	0.630874	0.059416
H65	H	0.080138	0.482094	-0.059484
H66	H	0.076178	0.489422	0.059379
H67	H	-0.018296	0.493272	0.059504
H68	H	-0.014333	0.485916	-0.059370
H69	H	0.007262	0.401093	0.000064
C70	C	-0.707217	1.123766	0.193776
C71	C	-0.671192	1.129579	0.275132
C72	C	-0.703947	1.134774	0.368170
H73	H	-0.729019	1.068310	0.197789
H74	H	-0.732067	1.178821	0.197695
H75	H	-0.646352	1.074530	0.271215
H76	H	-0.649391	1.185034	0.271153
H77	H	-0.728796	1.189829	0.372089
H78	H	-0.725747	1.079316	0.372173
H79	H	-0.679509	1.138727	0.423381
H80	H	-0.590526	1.124482	0.168463
H81	H	-0.427991	1.133503	0.261365
C82	C	-0.313013	1.137315	0.286691
C83	C	-0.354530	1.141534	0.368037
C84	C	-0.328057	1.147788	0.461083
H85	H	-0.291476	1.193259	0.290709
H86	H	-0.288434	1.082736	0.290618
H87	H	-0.379099	1.196107	0.364112
H88	H	-0.376069	1.085595	0.364053
H89	H	-0.303478	1.093209	0.465009
H90	H	-0.306521	1.203733	0.465090
H91	H	-0.356222	1.150643	0.516287
C92	C	-0.293654	1.101901	-0.286866
C93	C	-0.303986	1.016662	-0.342937
C94	C	-0.271211	1.011385	-0.435955
H95	H	-0.254413	1.103455	-0.273730
H96	H	-0.303664	1.154586	-0.325076
H97	H	-0.293973	0.963991	-0.304734
H98	H	-0.343221	1.015090	-0.356100
H99	H	-0.281221	1.064070	-0.474166
H100	H	-0.231971	1.012942	-0.422809
H101	H	-0.278221	0.953555	-0.474015
C102	C	0.191168	1.015317	-0.532875
C103	C	0.219883	0.962818	-0.463071
C104	C	0.257124	0.894709	-0.516659
H105	H	0.218025	1.046566	-0.574731
H106	H	0.170089	0.973465	-0.574712
H107	H	0.240960	1.004664	-0.421252
H108	H	0.193040	0.931548	-0.421213
H109	H	0.236046	0.852856	-0.558496
H110	H	0.283978	0.925966	-0.558513
H111	H	0.276608	0.859074	-0.469306
C112	C	-0.694214	1.099634	-0.193910
C113	C	-0.675622	1.014940	-0.249958
C114	C	-0.702196	1.008415	-0.342896
H115	H	-0.684734	1.152660	-0.232206
H116	H	-0.734337	1.099615	-0.180635
H117	H	-0.635509	1.014968	-0.263236
H118	H	-0.685103	0.961899	-0.211693
H119	H	-0.742318	1.008396	-0.329621
H120	H	-0.692713	1.061445	-0.381183
H121	H	-0.689589	0.950946	-0.380932
C122	C	-0.160159	1.134638	0.193792
C123	C	-0.124131	1.140435	0.275144
C124	C	-0.156882	1.145616	0.368185
H125	H	-0.181961	1.079181	0.197796
H126	H	-0.185008	1.189694	0.197724
H127	H	-0.099292	1.085384	0.271214
H128	H	-0.102329	1.195890	0.271174
H129	H	-0.181731	1.200672	0.372117
H130	H	-0.178682	1.090157	0.372179
H131	H	-0.132442	1.149558	0.423393
H132	H	-0.043450	1.135341	0.168457
C133	C	0.078440	1.221478	-0.466966
C134	C	0.082557	1.214011	-0.361571
C135	C	0.045423	1.282021	-0.307564
H136	H	0.040475	1.210551	-0.484343
H137	H	0.088432	1.283613	-0.484437
H138	H	0.072561	1.151891	-0.344107
H139	H	0.120513	1.224947	-0.344163
H140	H	0.055415	1.344155	-0.325035
H141	H	0.007460	1.271088	-0.324950
H142	H	0.048215	1.276969	-0.236048
C143	C	-0.023274	1.113192	-0.193981
C144	C	-0.059303	1.107427	-0.275333
C145	C	-0.026554	1.102332	-0.368374
H146	H	0.001590	1.058167	-0.197987
H147	H	-0.001489	1.168688	-0.197912
H148	H	-0.081078	1.051936	-0.271404
H149	H	-0.084167	1.162446	-0.271362
H150	H	-0.004769	1.157829	-0.372305
H151	H	-0.001691	1.047307	-0.372369
H152	H	-0.050995	1.098429	-0.423582
C153	C	-0.417704	1.099625	-0.286671
C154	C	-0.476815	1.099709	-0.266797
C155	C	-0.503531	1.093447	-0.359598
H156	H	-0.405205	1.042220	-0.324913
H157	H	-0.408235	1.152742	-0.324856
H158	H	-0.486279	1.046597	-0.228627
H159	H	-0.489330	1.157108	-0.228570
H160	H	-0.494062	1.146564	-0.397784
H161	H	-0.491028	1.036042	-0.397833
H162	H	-0.543640	1.093512	-0.346127
H163	H	-0.139963	1.112421	-0.168660
H164	H	-0.579144	1.103653	-0.168666
