data_functionalizedCrystal
_audit_creation_method	'MofGen! by Chris Wilmer'
_symmetry_space_group_name_H-M	'P1'
_symmetry_Int_Tables_number	1
_symmetry_cell_setting	triclinic
loop_
_symmetry_equiv_pos_as_xyz
  x,y,z
_cell_length_a	25.639243
_cell_length_b	25.639240
_cell_length_c	25.639234
_cell_angle_alpha	89.971713
_cell_angle_beta	89.986440
_cell_angle_gamma	90.035481
loop_
_atom_site_label
_atom_site_type_symbol
_atom_site_fract_x
_atom_site_fract_y
_atom_site_fract_z
Zn1	Zn	0.799234	-0.208164	-0.295630
Zn2	Zn	0.799170	-0.295587	-0.208183
Zn3	Zn	0.711814	-0.208171	-0.208203
Zn4	Zn	0.711765	-0.295575	-0.295582
O5	O	0.755496	-0.251874	-0.251900
O6	O	0.872391	-0.219763	-0.284041
O7	O	0.787576	-0.283999	-0.135020
O8	O	0.723458	-0.135005	-0.219829
O9	O	0.872344	-0.283992	-0.219794
O10	O	0.787685	-0.135000	-0.284061
O11	O	0.723396	-0.219775	-0.135035
O12	O	0.638642	-0.219763	-0.219783
O13	O	0.723374	-0.283972	-0.368754
O14	O	0.638606	-0.283978	-0.283980
O15	O	0.787637	-0.219751	-0.368789
O16	O	0.787528	-0.368750	-0.219749
O17	O	0.723312	-0.368741	-0.283960
C18	C	0.619653	-0.251871	-0.251879
C19	C	0.561539	-0.251882	-0.251882
C20	C	0.201195	-0.218483	-0.285409
C21	C	0.146591	-0.218482	-0.285412
O22	O	0.118370	-0.190076	-0.313891
N23	N	0.119257	-0.251873	-0.251914
C24	C	0.146530	-0.285262	-0.218407
O25	O	0.118266	-0.313663	-0.189914
C26	C	0.201133	-0.285259	-0.218401
C27	C	0.228464	-0.251870	-0.251905
C28	C	0.228526	-0.185096	-0.318909
C29	C	0.283127	-0.185098	-0.318907
C30	C	0.310396	-0.218485	-0.285403
C31	C	0.283065	-0.251872	-0.251903
C32	C	0.228406	-0.318645	-0.184892
C33	C	0.283013	-0.318640	-0.184889
C34	C	0.310344	-0.285251	-0.218393
C35	C	0.364935	-0.285261	-0.218396
N36	N	0.392269	-0.251870	-0.251894
C37	C	0.364999	-0.218483	-0.285398
C38	C	0.031859	-0.285264	-0.218420
C39	C	-0.022743	-0.285270	-0.218428
C40	C	-0.022678	-0.218489	-0.285432
C41	C	0.031925	-0.218487	-0.285427
C42	C	0.059193	-0.251874	-0.251918
C43	C	0.479665	-0.218488	-0.285390
C44	C	0.534270	-0.218494	-0.285386
C45	C	0.534201	-0.285272	-0.218380
C46	C	0.479600	-0.285269	-0.218385
C47	C	0.452333	-0.251872	-0.251892
O48	O	0.393190	-0.313652	-0.189930
O49	O	0.393270	-0.190082	-0.313881
C50	C	0.755422	-0.387717	-0.251859
C51	C	0.755438	-0.445831	-0.251859
C52	C	0.788956	-0.806153	-0.285405
C53	C	0.788971	-0.860757	-0.285416
O54	O	0.817381	-0.888959	-0.313897
N55	N	0.755568	-0.888113	-0.251950
C56	C	0.722145	-0.860862	-0.218475
O57	O	0.693734	-0.889145	-0.190011
C58	C	0.722127	-0.806259	-0.218467
C59	C	0.755535	-0.778906	-0.251932
C60	C	0.822361	-0.778799	-0.318867
C61	C	0.822346	-0.724199	-0.318856
C62	C	0.788926	-0.696952	-0.285383
C63	C	0.755520	-0.724305	-0.251920
C64	C	0.688701	-0.779009	-0.184996
C65	C	0.688686	-0.724402	-0.184991
C66	C	0.722094	-0.697049	-0.218455
C67	C	0.722085	-0.642457	-0.218435
N68	N	0.755488	-0.615101	-0.251901
C69	C	0.788908	-0.642348	-0.285375
C70	C	0.722184	-0.975533	-0.218494
C71	C	0.722203	-1.030135	-0.218499
C72	C	0.789029	-1.030026	-0.285441
C73	C	0.789012	-0.975423	-0.285433
C74	C	0.755586	-0.948177	-0.251960
C75	C	0.788875	-0.527683	-0.285348
C76	C	0.788858	-0.473078	-0.285332
C77	C	0.722031	-0.473192	-0.218392
C78	C	0.722049	-0.527792	-0.218406
C79	C	0.755473	-0.555037	-0.251888
O80	O	0.693689	-0.614221	-0.189971
O81	O	0.817309	-0.614059	-0.313839
C82	C	0.891869	-0.251878	-0.251921
C83	C	0.949983	-0.251880	-0.251930
C84	C	0.755507	-0.251859	-0.388273
C85	C	0.755512	-0.251853	-0.446387
C86	C	0.755584	-0.115501	-0.251952
C87	C	0.755622	-0.057387	-0.251975
C88	C	0.722085	-0.285227	-0.697556
C89	C	0.722076	-0.285238	-0.642952
O90	O	0.693605	-0.313666	-0.614695
N91	N	0.755532	-0.251811	-0.615661
C92	C	0.788996	-0.218366	-0.642976
O93	O	0.817451	-0.189933	-0.614749
C94	C	0.789002	-0.218352	-0.697580
C95	C	0.755547	-0.251785	-0.724868
C96	C	0.688632	-0.318657	-0.724845
C97	C	0.688642	-0.318646	-0.779446
C98	C	0.722105	-0.285204	-0.806758
C99	C	0.755557	-0.251774	-0.779469
C100	C	0.822462	-0.184904	-0.724894
C101	C	0.822465	-0.184893	-0.779501
C102	C	0.789011	-0.218326	-0.806790
C103	C	0.789029	-0.218321	-0.861381
N104	N	0.755573	-0.251749	-0.888673
C105	C	0.722111	-0.285190	-0.861361
C106	C	0.788979	-0.218397	-0.528306
C107	C	0.788976	-0.218413	-0.473703
C108	C	0.722055	-0.285286	-0.473683
C109	C	0.722062	-0.285272	-0.528286
C110	C	0.755523	-0.251825	-0.555597
C111	C	0.722135	-0.285164	-0.976026
C112	C	0.722149	-0.285152	-1.030631
C113	C	0.789068	-0.218278	-1.030647
C114	C	0.789055	-0.218292	-0.976047
C115	C	0.755585	-0.251737	-0.948737
O116	O	0.817484	-0.189906	-0.889673
O117	O	0.693655	-0.313613	-0.889595
C118	C	0.755515	-0.251851	-0.116057
C119	C	0.755611	-0.251710	-0.057943
H120	H	-0.044991	-0.312464	-0.191152
C121	C	0.449679	-0.181758	-0.322251
H122	H	0.473783	-0.161881	-0.342204
H123	H	0.428384	-0.158944	-0.302304
H124	H	0.428376	-0.201797	-0.344998
H125	H	0.849712	-0.157653	-0.801735
H126	H	0.816215	-0.953155	-0.312683
C127	C	0.685243	-0.322067	-0.443633
H128	H	0.690029	-0.317280	-0.407206
H129	H	0.692868	-0.357196	-0.452569
H130	H	0.650118	-0.314406	-0.452579
C131	C	0.651835	-0.355416	-0.809456
H132	H	0.631904	-0.375328	-0.785364
H133	H	0.671816	-0.378197	-0.830756
H134	H	0.629067	-0.335405	-0.830756
H135	H	0.206162	-0.345834	-0.157609
C136	C	0.859090	-0.694114	-0.355671
H137	H	0.854301	-0.657691	-0.350874
H138	H	0.851412	-0.703052	-0.390793
H139	H	0.894229	-0.703038	-0.348053
C140	C	0.825780	-0.181642	-0.443689
H141	H	0.820988	-0.186437	-0.407257
H142	H	0.818153	-0.146511	-0.452650
H143	H	0.860907	-0.189298	-0.452640
C144	C	0.685350	-0.321931	-1.060648
H145	H	0.690150	-0.317141	-1.097081
H146	H	0.650224	-0.314282	-1.051700
H147	H	0.692984	-0.357063	-1.051687
C148	C	0.651825	-0.355450	-0.694810
H149	H	0.631909	-0.375358	-0.718890
H150	H	0.629049	-0.335464	-0.673509
H151	H	0.671813	-0.378241	-0.673511
H152	H	0.849576	-0.800978	-0.346129
C153	C	0.685420	-0.945567	-0.181665
H154	H	0.665535	-0.969683	-0.161734
H155	H	0.662614	-0.924273	-0.201635
H156	H	0.705434	-0.924264	-0.158897
H157	H	0.206329	-0.157905	-0.346192
H158	H	0.054058	-0.312457	-0.191135
H159	H	0.816301	-0.191071	-0.953827
C160	C	0.651947	-0.809086	-0.148188
H161	H	0.632039	-0.785031	-0.128260
H162	H	0.671961	-0.830386	-0.125425
H163	H	0.629155	-0.830391	-0.168175
H164	H	0.054174	-0.191298	-0.312708
C165	C	0.825788	-1.060005	-0.322264
H166	H	0.821008	-1.096441	-0.317477
H167	H	0.860922	-1.051032	-0.314649
H168	H	0.818104	-1.051042	-0.357387
H169	H	0.305212	-0.345827	-0.157601
C170	C	0.564201	-0.321999	-0.181531
H171	H	0.540107	-0.341890	-0.161580
H172	H	0.585510	-0.301966	-0.158790
H173	H	0.585492	-0.344810	-0.201492
H174	H	0.694849	-0.550065	-0.191153
C175	C	0.685457	-1.060218	-0.181685
H176	H	0.665551	-1.036166	-0.161752
H177	H	0.705477	-1.081518	-0.158926
H178	H	0.662664	-1.081523	-0.201670
H179	H	0.661465	-0.702221	-0.157734
C180	C	0.825605	-0.442992	-0.322149
H181	H	0.845505	-0.467043	-0.342090
H182	H	0.848396	-0.421683	-0.302171
H183	H	0.805576	-0.421696	-0.344908
C184	C	0.825797	-0.181610	-0.558343
H185	H	0.845723	-0.161710	-0.534265
H186	H	0.805820	-0.158820	-0.579649
H187	H	0.848571	-0.201610	-0.579639
H188	H	0.694819	-0.312496	-0.550501
H189	H	0.849705	-0.157679	-0.702685
C190	C	0.449535	-0.321999	-0.181536
H191	H	0.473598	-0.341882	-0.161582
H192	H	0.428222	-0.344807	-0.201491
H193	H	0.428244	-0.301961	-0.158791
H194	H	-0.044891	-0.191302	-0.312711
C195	C	0.685268	-0.443215	-0.181576
H196	H	0.665374	-0.467324	-0.161644
H197	H	0.662471	-0.421923	-0.201557
H198	H	0.705280	-0.421911	-0.158809
H199	H	0.694875	-0.312394	-0.953797
C200	C	0.313187	-0.148368	-0.355758
H201	H	0.349613	-0.153148	-0.350965
H202	H	0.304253	-0.113229	-0.348175
H203	H	0.304241	-0.156076	-0.390874
C204	C	0.825644	-0.557645	-0.322173
H205	H	0.845539	-0.533527	-0.342093
H206	H	0.805641	-0.578950	-0.344943
H207	H	0.848449	-0.578935	-0.302194
C208	C	0.825869	-0.181491	-1.060697
H209	H	0.821076	-0.186270	-1.097124
H210	H	0.860995	-0.189138	-1.051755
H211	H	0.818230	-0.146362	-1.051758
H212	H	0.556520	-0.191304	-0.312670
