data_functionalizedCrystal
_audit_creation_method	'MofGen! by Chris Wilmer'
_symmetry_space_group_name_H-M	'P1'
_symmetry_Int_Tables_number	1
_symmetry_cell_setting	triclinic
loop_
_symmetry_equiv_pos_as_xyz
  x,y,z
_cell_length_a	16.956984
_cell_length_b	16.992695
_cell_length_c	16.053802
_cell_angle_alpha	92.741074
_cell_angle_beta	87.610701
_cell_angle_gamma	83.360821
loop_
_atom_site_label
_atom_site_type_symbol
_atom_site_fract_x
_atom_site_fract_y
_atom_site_fract_z
O1	O	1.063242	0.028849	-0.069433
O2	O	1.396575	0.362182	0.263900
O3	O	1.729909	0.695515	0.597233
O4	O	0.832831	0.056264	-0.069434
O5	O	1.166165	0.389598	0.263899
O6	O	1.499498	0.722931	0.597232
O7	O	0.947113	-0.071526	-0.069427
O8	O	1.280446	0.261807	0.263906
O9	O	1.613779	0.595141	0.597239
O10	O	0.948961	0.156639	-0.069441
O11	O	1.282294	0.489972	0.263893
O12	O	1.615627	0.823306	0.597226
O13	O	0.940821	-0.064519	0.069431
O14	O	1.274154	0.268814	0.402765
O15	O	1.607487	0.602147	0.736098
O16	O	0.826539	0.063271	0.069424
O17	O	1.159873	0.396604	0.402757
O18	O	1.493206	0.729938	0.736091
O19	O	1.056950	0.035855	0.069425
O20	O	1.390283	0.369189	0.402759
O21	O	1.723617	0.702522	0.736092
Zn22	Zn	0.940746	0.050676	0.091471
Zn23	Zn	1.274079	0.384009	0.424805
Zn24	Zn	1.607412	0.717342	0.758138
Zn25	Zn	0.949036	0.041444	-0.091481
Zn26	Zn	1.282369	0.374777	0.241853
Zn27	Zn	1.615702	0.708111	0.575186
O28	O	0.942669	0.163646	0.069418
O29	O	1.276002	0.496979	0.402751
O30	O	1.609335	0.830312	0.736085
C31	C	0.800067	0.061171	-0.000005
C32	C	1.133400	0.394505	0.333328
C33	C	1.466733	0.727838	0.666661
C34	C	0.711812	0.065345	-0.000006
C35	C	1.045145	0.398679	0.333328
C36	C	1.378479	0.732012	0.666661
C37	C	0.675280	-0.004440	0.000000
C38	C	1.008614	0.328893	0.333333
C39	C	1.341947	0.662227	0.666667
C40	C	0.592356	-0.000514	-0.000006
C41	C	0.925689	0.332820	0.333327
C42	C	1.259022	0.666153	0.666660
C43	C	0.545964	0.073198	-0.000012
C44	C	0.879297	0.406532	0.333321
C45	C	1.212630	0.739865	0.666655
C46	C	0.582501	0.142989	-0.000020
C47	C	0.915834	0.476322	0.333313
C48	C	1.249168	0.809655	0.666647
C49	C	0.665424	0.139062	-0.000020
C50	C	0.998758	0.472395	0.333314
C51	C	1.332091	0.805728	0.666647
C52	C	0.297430	0.092637	-0.000019
C53	C	0.630764	0.425970	0.333314
C54	C	0.964097	0.759304	0.666648
C55	C	0.214501	0.096559	-0.000017
C56	C	0.547834	0.429892	0.333317
C57	C	0.881168	0.763226	0.666650
C58	C	0.224362	-0.046944	-0.000004
C59	C	0.557695	0.286389	0.333329
C60	C	0.891028	0.619723	0.666662
C61	C	0.307286	-0.050864	0.000001
C62	C	0.640620	0.282469	0.333334
C63	C	0.973953	0.615802	0.666668
C64	C	0.343816	0.018925	-0.000012
C65	C	0.677150	0.352259	0.333322
C66	C	1.010483	0.685592	0.666655
N67	N	0.461201	0.077213	-0.000016
N68	N	0.794535	0.410547	0.333318
N69	N	1.127868	0.743880	0.666651
N70	N	0.428578	0.014909	-0.000014
N71	N	0.761911	0.348243	0.333320
N72	N	1.095244	0.681576	0.666653
C73	C	0.941590	-0.097081	0.000002
C74	C	1.274924	0.236252	0.333335
C75	C	1.608257	0.569585	0.666669
C76	C	0.934500	-0.183666	0.000002
C77	C	1.267833	0.149668	0.333335
C78	C	1.601166	0.483001	0.666668
C79	C	1.002914	-0.238341	0.000003
C80	C	1.336248	0.094993	0.333336
C81	C	1.669581	0.428326	0.666669
C82	C	0.996248	-0.319696	-0.000005
C83	C	1.329581	0.013638	0.333328
C84	C	1.662914	0.346971	0.666662
C85	C	0.921165	-0.346374	-0.000008
C86	C	1.254498	-0.013040	0.333325
C87	C	1.587832	0.320293	0.666658
C88	C	0.852745	-0.291692	-0.000012
C89	C	1.186078	0.041641	0.333321
C90	C	1.519412	0.374975	0.666655
C91	C	0.859413	-0.210339	-0.000010
C92	C	1.192746	0.122994	0.333323
C93	C	1.526080	0.456328	0.666657
C94	C	0.893530	-0.588181	-0.000020
C95	C	1.226863	-0.254847	0.333313
C96	C	1.560197	0.078486	0.666647
C97	C	0.886867	-0.669540	-0.000019
C98	C	1.220200	-0.336207	0.333314
C99	C	1.553534	-0.002873	0.666647
C100	C	1.030371	-0.697538	-0.000014
C101	C	1.363704	-0.364205	0.333319
C102	C	1.697037	-0.030872	0.666653
C103	C	1.037031	-0.616182	-0.000007
C104	C	1.370365	-0.282849	0.333326
C105	C	1.703698	0.050484	0.666660
C106	C	0.968612	-0.561508	-0.000015
C107	C	1.301945	-0.228175	0.333318
C108	C	1.635278	0.105159	0.666651
N109	N	0.914349	-0.429531	-0.000014
N110	N	1.247682	-0.096197	0.333320
N111	N	1.581015	0.237136	0.666653
N112	N	0.975429	-0.478353	-0.000016
N113	N	1.308762	-0.145019	0.333318
N114	N	1.642096	0.188314	0.666651
C115	C	1.089715	0.030948	-0.000006
C116	C	1.423048	0.364281	0.333327
C117	C	1.756381	0.697615	0.666661
C118	C	1.177970	0.026774	-0.000011
C119	C	1.511303	0.360107	0.333322
C120	C	1.844636	0.693441	0.666656
C121	C	0.948191	0.189201	-0.000013
C122	C	1.281524	0.522534	0.333320
C123	C	1.614858	0.855867	0.666654
C124	C	0.955282	0.275785	-0.000018
C125	C	1.288615	0.609118	0.333315
C126	C	1.621949	0.942452	0.666648
N127	N	0.935094	0.056975	0.216331
N128	N	1.268427	0.390308	0.549665
N129	N	1.601760	0.723642	0.882998
N130	N	0.954694	0.035138	-0.216341
N131	N	1.288027	0.368471	0.116993
N132	N	1.621360	0.701804	0.450326
C133	C	0.983741	0.002617	0.260028
C134	C	1.317074	0.335950	0.593362
C135	C	1.650407	0.669284	0.926695
C136	C	0.979795	0.007031	0.347435
C137	C	1.313128	0.340364	0.680768
C138	C	1.646461	0.673697	1.014102
C139	C	0.927206	0.065806	0.391143
C140	C	1.260539	0.399140	0.724476
C141	C	1.593872	0.732473	1.057809
C142	C	0.878553	0.120167	0.347440
C143	C	1.211887	0.453500	0.680773
C144	C	1.545220	0.786834	1.014106
C145	C	0.882496	0.115749	0.260035
C146	C	1.215829	0.449083	0.593368
C147	C	1.549162	0.782416	0.926701
C148	C	0.909984	0.085081	0.652551
C149	C	1.243317	0.418414	0.985885
C150	C	1.576650	0.751747	1.319218
C151	C	0.906047	0.089496	0.739962
C152	C	1.239380	0.422829	1.073296
C153	C	1.572713	0.756163	1.406629
C154	C	1.007288	-0.023642	0.739952
C155	C	1.340621	0.309691	1.073285
C156	C	1.673954	0.643025	1.406618
C157	C	1.011229	-0.028051	0.652545
C158	C	1.344562	0.305282	0.985878
C159	C	1.677895	0.638615	1.319212
C160	C	0.962573	0.026307	0.608849
C161	C	1.295907	0.359640	0.942183
C162	C	1.629240	0.692973	1.275516
N163	N	0.923173	0.070321	0.480486
N164	N	1.256506	0.403654	0.813820
N165	N	1.589839	0.736987	1.147153
N166	N	0.966603	0.021788	0.519508
N167	N	1.299936	0.355122	0.852841
N168	N	1.633269	0.688455	1.186174
H169	H	0.713047	-0.064464	0.000008
H170	H	1.046381	0.268869	0.333342
H171	H	1.379714	0.602202	0.666675
H172	H	1.098172	-0.594468	-0.000004
H173	H	1.431505	-0.261135	0.333329
H174	H	1.764838	0.072198	0.666662
O175	O	0.830018	0.174366	0.212894
O176	O	1.163351	0.507699	0.546227
O177	O	1.496685	0.841032	0.879560
H178	H	0.867650	0.208155	0.173042
H179	H	1.200983	0.541488	0.506376
H180	H	1.534317	0.874821	0.839709
O181	O	0.184957	-0.122212	0.000006
O182	O	0.518290	0.211122	0.333340
O183	O	0.851624	0.544455	0.666673
H184	H	0.231148	-0.174127	0.000017
H185	H	0.564481	0.159207	0.333350
H186	H	0.897814	0.492540	0.666684
H187	H	0.562616	-0.057340	-0.000002
H188	H	0.895949	0.275993	0.333331
H189	H	1.229283	0.609326	0.666664
H190	H	0.544722	0.203006	-0.000030
H191	H	0.878055	0.536340	0.333303
H192	H	1.211389	0.869673	0.666636
H193	H	1.046900	-0.067898	0.775536
H194	H	1.380233	0.265435	1.108870
H195	H	1.713566	0.598768	1.442203
H196	H	0.345053	-0.110889	0.000009
H197	H	0.678387	0.222445	0.333343
H198	H	1.011720	0.555778	0.666676
O199	O	0.336829	0.167905	-0.000027
O200	O	0.670163	0.501238	0.333307
O201	O	1.003496	0.834572	0.666640
H202	H	0.371816	0.172398	0.056566
H203	H	0.705149	0.505731	0.389899
H204	H	1.038482	0.839065	0.723232
H205	H	0.825722	-0.691256	-0.000009
H206	H	1.159056	-0.357923	0.333325
H207	H	1.492389	-0.024589	0.666658
H208	H	0.837817	-0.543674	-0.000026
H209	H	1.171151	-0.210340	0.333307
H210	H	1.504484	0.122993	0.666640
H211	H	1.019406	-0.037232	0.383013
H212	H	1.352740	0.296101	0.716346
H213	H	1.686073	0.629434	1.049679
H214	H	0.695167	0.195888	-0.000021
H215	H	1.028500	0.529222	0.333313
H216	H	1.361833	0.862555	0.666646
O217	O	1.083897	-0.209568	-0.000002
O218	O	1.417231	0.123766	0.333332
O219	O	1.750564	0.457099	0.666665
H220	H	1.130350	-0.261258	-0.000013
H221	H	1.463683	0.072075	0.333320
H222	H	1.797017	0.405408	0.666654
O223	O	0.164459	0.176066	-0.000032
O224	O	0.497792	0.509399	0.333301
O225	O	0.831126	0.842732	0.666634
H226	H	0.203792	0.223936	-0.000050
H227	H	0.537125	0.557269	0.333283
H228	H	0.870458	0.890602	0.666616
H229	H	1.054051	-0.075911	0.616960
H230	H	1.387384	0.257422	0.950293
H231	H	1.720718	0.590756	1.283626
O232	O	1.040455	-0.060792	0.212900
O233	O	1.373788	0.272541	0.546233
O234	O	1.707122	0.605875	0.879566
H235	H	1.006395	-0.098602	0.173098
H236	H	1.339728	0.234731	0.506431
H237	H	1.673062	0.568064	0.839764
O238	O	0.849313	0.152884	0.787110
O239	O	1.182646	0.486217	1.120443
O240	O	1.515980	0.819550	1.453777
H241	H	0.816134	0.189934	0.742043
H242	H	1.149467	0.523267	1.075376
H243	H	1.482801	0.856601	1.408709
O244	O	1.070036	-0.378669	0.000010
O245	O	1.403370	-0.045336	0.333343
O246	O	1.736703	0.287998	0.666677
H247	H	1.123365	-0.346450	0.000028
H248	H	1.456698	-0.013116	0.333361
H249	H	1.790032	0.320217	0.666694
O250	O	0.785624	-0.151361	-0.000002
O251	O	1.118957	0.181972	0.333331
O252	O	1.452290	0.515305	0.666664
H253	H	0.732293	-0.183577	0.000005
H254	H	1.065626	0.149756	0.333338
H255	H	1.398959	0.483089	0.666672
H256	H	0.835730	0.168021	0.383032
H257	H	1.169063	0.501354	0.716365
H258	H	1.502396	0.834688	1.049698
O259	O	0.857516	0.143713	0.605427
O260	O	1.190849	0.477047	0.938760
O261	O	1.524183	0.810380	1.272093
H262	H	0.820295	0.185330	0.650506
H263	H	1.153628	0.518664	0.983840
H264	H	1.486961	0.851997	1.317173
H265	H	0.791611	-0.313420	-0.000020
H266	H	1.124945	0.019914	0.333313
H267	H	1.458278	0.353247	0.666647
O268	O	1.104165	-0.756506	-0.000011
O269	O	1.437498	-0.423172	0.333323
O270	O	1.770831	-0.089839	0.666656
H271	H	1.086918	-0.817559	-0.000018
H272	H	1.420252	-0.484225	0.333315
H273	H	1.753585	-0.150892	0.666648
