data_functionalizedCrystal
_audit_creation_method	'MofGen! by Chris Wilmer'
_symmetry_space_group_name_H-M	'P1'
_symmetry_Int_Tables_number	1
_symmetry_cell_setting	triclinic
loop_
_symmetry_equiv_pos_as_xyz
  x,y,z
_cell_length_a	6.817900
_cell_length_b	7.190334
_cell_length_c	11.102188
_cell_angle_alpha	92.054912
_cell_angle_beta	108.603875
_cell_angle_gamma	60.611776
loop_
_atom_site_label
_atom_site_type_symbol
_atom_site_fract_x
_atom_site_fract_y
_atom_site_fract_z
V1	V	-4.248750	0.665001	-0.173812
O2	O	-4.205181	0.652342	0.010438
O3	O	-4.224580	0.660453	-0.346646
O4	O	-4.285382	0.955031	-0.170223
O5	O	-4.143957	0.355725	-0.167206
V6	V	-4.718221	0.628009	-0.151882
O7	O	-4.540835	0.746146	-0.221918
O8	O	-4.876334	0.546864	-0.103776
O9	O	-4.519185	0.632557	0.020952
O10	O	-4.879187	0.640668	-0.336132
O11	O	-4.940411	0.937285	-0.158488
O12	O	-4.458382	0.337979	-0.155470
C13	C	-4.072723	0.649962	-0.388807
C14	C	-4.134814	0.648177	-0.530095
C15	C	-4.063511	0.452021	-0.578919
C16	C	-4.121878	0.450352	-0.711676
C17	C	-4.322847	0.841012	-0.746775
C18	C	-4.264495	0.842680	-0.614021
C19	C	-4.150293	1.025723	-0.163757
C20	C	-4.263779	1.267279	-0.161930
C21	C	-4.334382	0.643042	0.063107
C22	C	-4.251534	0.644841	0.204394
H23	H	-4.063813	0.290623	-0.751420
H24	H	-4.428434	0.999369	-0.815122
H25	H	-4.322577	1.002424	-0.574270
H26	H	-3.957919	0.293644	-0.510590
