data_functionalizedCrystal
_audit_creation_method	'MofGen! by Chris Wilmer'
_symmetry_space_group_name_H-M	'P1'
_symmetry_Int_Tables_number	1
_symmetry_cell_setting	triclinic
loop_
_symmetry_equiv_pos_as_xyz
  x,y,z
_cell_length_a	14.519709
_cell_length_b	15.944551
_cell_length_c	12.996460
_cell_angle_alpha	89.992903
_cell_angle_beta	90.000034
_cell_angle_gamma	83.589442
loop_
_atom_site_label
_atom_site_type_symbol
_atom_site_fract_x
_atom_site_fract_y
_atom_site_fract_z
O1	O	1.223676	0.110109	-0.085435
O2	O	1.723676	0.610109	0.414565
O3	O	0.955177	0.123076	-0.085467
O4	O	1.455177	0.623076	0.414533
O5	O	1.096759	-0.005672	-0.085441
O6	O	1.596759	0.494328	0.414559
O7	O	1.082094	0.238857	-0.085461
O8	O	1.582094	0.738857	0.414539
O9	O	1.096744	-0.005679	0.085693
O10	O	1.596744	0.494321	0.585693
O11	O	0.955162	0.123069	0.085667
O12	O	1.455162	0.623069	0.585667
O13	O	1.223661	0.110102	0.085699
O14	O	1.723661	0.610102	0.585699
Cu15	Cu	1.089410	0.116585	0.101309
Cu16	Cu	1.589410	0.616585	0.601309
Cu17	Cu	1.089428	0.116593	-0.101077
Cu18	Cu	1.589428	0.616593	0.398923
O19	O	1.082080	0.238849	0.085673
O20	O	1.582080	0.738849	0.585673
C21	C	0.920810	0.122468	0.000096
C22	C	1.420810	0.622468	0.500096
C23	C	0.818432	0.120657	0.000084
C24	C	1.318432	0.620657	0.500084
C25	C	0.443548	0.113990	0.000132
C26	C	0.943548	0.613990	0.500132
C27	C	0.547853	0.115842	0.000118
C28	C	1.047853	0.615842	0.500118
C29	C	0.630987	0.117323	0.000107
C30	C	1.130987	0.617323	0.500107
C31	C	0.735298	0.119175	0.000095
C32	C	1.235298	0.619175	0.500095
C33	C	1.096142	-0.036970	0.000126
C34	C	1.596142	0.463030	0.500126
C35	C	1.094317	-0.130219	0.000126
C36	C	1.594317	0.369781	0.500126
C37	C	1.002196	-0.345209	0.000101
C38	C	1.502196	0.154791	0.500101
C39	C	1.044967	-0.406168	0.084486
C40	C	1.544967	0.093832	0.584486
C41	C	1.091015	-0.300950	0.000118
C42	C	1.591015	0.199050	0.500118
C43	C	1.045002	-0.406144	-0.084239
C44	C	1.545002	0.093856	0.415761
C45	C	1.087820	-0.465867	0.000106
C46	C	1.587820	0.034133	0.500106
C47	C	1.133811	-0.360680	0.084572
C48	C	1.633811	0.139320	0.584572
C49	C	1.133834	-0.360650	-0.084228
C50	C	1.633834	0.139350	0.415772
C51	C	1.176669	-0.421591	0.000177
C52	C	1.676669	0.078409	0.500177
C53	C	1.092854	-0.205945	0.000126
C54	C	1.592854	0.294055	0.500126
C55	C	1.085988	-0.560871	0.000105
C56	C	1.585988	-0.060871	0.500105
C57	C	1.258028	0.110710	0.000133
C58	C	1.758028	0.610710	0.500133
C59	C	1.360406	0.112521	0.000139
C60	C	1.860406	0.612521	0.500139
C61	C	1.082696	0.270148	0.000103
C62	C	1.582696	0.770148	0.500103
C63	C	1.084521	0.363397	0.000096
C64	C	1.584521	0.863397	0.500096
N65	N	1.089405	0.116578	0.243656
N66	N	1.589405	0.616578	0.743656
N67	N	1.089441	0.116593	-0.243424
N68	N	1.589441	0.616593	0.256576
C69	C	1.089426	0.116594	0.663470
C70	C	1.589426	0.616594	1.163470
C71	C	1.089418	0.116592	0.546665
C72	C	1.589418	0.616592	1.046665
C73	C	1.089416	0.116587	0.453567
C74	C	1.589416	0.616587	0.953567
C75	C	1.089406	0.116584	0.336754
C76	C	1.589406	0.616584	0.836754
H77	H	1.007393	-0.426334	0.155817
H78	H	1.507393	0.073666	0.655817
O79	O	1.264711	-0.460992	0.000422
O80	O	1.764711	0.039008	0.500422
C81	C	1.311180	-0.437797	0.089493
C82	C	1.811180	0.062203	0.589493
H83	H	1.258229	-0.415971	0.151386
H84	H	1.758229	0.084029	0.651386
H85	H	1.358764	-0.494420	0.118949
H86	H	1.858764	0.005580	0.618949
H87	H	1.354123	-0.384246	0.070172
H88	H	1.854123	0.115754	0.570172
H89	H	1.007429	-0.426273	-0.155584
H90	H	1.507429	0.073727	0.344416
O91	O	1.178746	-0.336673	-0.169297
O92	O	1.678746	0.163327	0.330703
C93	C	1.270201	-0.377109	-0.170007
C94	C	1.770201	0.122891	0.329993
H95	H	1.273956	-0.436873	-0.121324
H96	H	1.773956	0.063127	0.378676
H97	H	1.291551	-0.394356	-0.252407
H98	H	1.791551	0.105644	0.247593
H99	H	1.319048	-0.332798	-0.136865
H100	H	1.819048	0.167202	0.363135
H101	H	1.171340	-0.340638	0.155991
H102	H	1.671340	0.159362	0.655991
H103	H	0.928471	-0.312009	0.000177
H104	H	1.428471	0.187991	0.500177
