data_functionalizedCrystal
_audit_creation_method	'MofGen! by Chris Wilmer'
_symmetry_space_group_name_H-M	'P1'
_symmetry_Int_Tables_number	1
_symmetry_cell_setting	triclinic
loop_
_symmetry_equiv_pos_as_xyz
  x,y,z
_cell_length_a	12.837942
_cell_length_b	16.109302
_cell_length_c	14.586319
_cell_angle_alpha	89.994552
_cell_angle_beta	89.996741
_cell_angle_gamma	89.145360
loop_
_atom_site_label
_atom_site_type_symbol
_atom_site_fract_x
_atom_site_fract_y
_atom_site_fract_z
O1	O	0.133244	1.113716	-0.076281
O2	O	0.149825	0.872971	-0.076274
O3	O	-0.009367	0.988005	-0.076272
O4	O	0.292435	0.998681	-0.076284
O5	O	-0.009369	0.987996	0.076209
O6	O	0.149822	0.872962	0.076207
O7	O	0.133242	1.113707	0.076199
Cu8	Cu	0.141532	0.993333	0.090126
Cu9	Cu	0.141535	0.993344	-0.090201
O10	O	0.292433	0.998672	0.076197
C11	C	0.149152	0.841938	-0.000033
C12	C	0.147138	0.749483	-0.000030
C13	C	0.142479	0.536767	0.083078
C14	C	0.140576	0.449896	0.083075
C15	C	0.140584	0.449917	-0.083168
C16	C	0.142480	0.536786	-0.083164
C17	C	0.143433	0.580209	-0.000038
C18	C	0.139633	0.406468	-0.000045
C19	C	0.137569	0.312278	-0.000049
C20	C	0.145495	0.674405	-0.000034
C21	C	-0.047987	0.984394	-0.000032
C22	C	-0.163061	0.973637	-0.000033
C23	C	-0.404062	1.102954	-0.000056
C24	C	-0.512185	1.092851	-0.000057
C25	C	-0.487430	0.943328	-0.000044
C26	C	-0.379308	0.953431	-0.000042
C27	C	-0.337628	1.033247	-0.000047
C28	C	-0.229504	1.043349	-0.000039
C29	C	-0.204751	0.893827	-0.000032
C30	C	-0.312873	0.883724	-0.000033
C31	C	0.331054	1.002284	-0.000045
C32	C	0.446127	1.013040	-0.000050
C33	C	0.133914	1.144739	-0.000044
C34	C	0.135929	1.237195	-0.000053
N35	N	0.141529	0.993332	0.216957
N36	N	0.141529	0.993352	-0.217032
C37	C	0.071063	1.044290	0.451965
C38	C	0.071060	1.044292	0.547946
C39	C	0.211999	0.942388	0.547954
C40	C	0.211995	0.942382	0.451974
C41	C	0.141529	0.993338	0.403982
C42	C	0.141529	0.993346	0.595943
C43	C	0.141527	0.993348	0.700010
C44	C	0.141529	0.993335	0.299908
H45	H	0.139800	0.414529	0.150757
F46	F	0.139549	0.403696	-0.171631
H47	H	0.013683	1.085779	0.412892
F48	F	0.286994	0.888146	0.400903
F49	F	-0.185146	1.128294	-0.000039
H50	H	0.143253	0.572158	-0.150851
H51	H	0.013679	1.085780	0.587011
F52	F	-0.582886	1.167043	-0.000070
F53	F	-0.359701	1.187898	-0.000042
F54	F	0.143489	0.582978	0.171548
F55	F	-0.531807	0.858390	-0.000061
H56	H	-0.150648	0.837067	-0.000017
H57	H	-0.346824	0.818741	-0.000033
F58	F	0.286993	0.888162	0.599036
