data_functionalizedCrystal
_audit_creation_method	'MofGen! by Chris Wilmer'
_symmetry_space_group_name_H-M	'P1'
_symmetry_Int_Tables_number	1
_symmetry_cell_setting	triclinic
loop_
_symmetry_equiv_pos_as_xyz
  x,y,z
_cell_length_a	15.538191
_cell_length_b	19.288865
_cell_length_c	17.766277
_cell_angle_alpha	90.011603
_cell_angle_beta	89.989018
_cell_angle_gamma	114.795829
loop_
_atom_site_label
_atom_site_type_symbol
_atom_site_fract_x
_atom_site_fract_y
_atom_site_fract_z
O1	O	1.250877	0.225834	-0.062580
O2	O	1.750877	0.725834	0.437420
O3	O	0.976277	0.145548	-0.062588
O4	O	1.476277	0.645548	0.437412
O5	O	1.121512	0.288804	-0.062569
O6	O	1.621512	0.788804	0.437431
O7	O	1.105642	0.082579	-0.062599
O8	O	1.605642	0.582579	0.437401
O9	O	1.121486	0.288803	0.062620
O10	O	1.621486	0.788803	0.562620
O11	O	0.976252	0.145547	0.062601
O12	O	1.476252	0.645547	0.562601
O13	O	1.250851	0.225834	0.062609
O14	O	1.750851	0.725834	0.562609
Cu15	Cu	1.113549	0.185690	0.074035
Cu16	Cu	1.613549	0.685690	0.574035
Cu17	Cu	1.113579	0.185691	-0.074014
Cu18	Cu	1.613579	0.685691	0.425986
O19	O	1.105617	0.082578	0.062590
O20	O	1.605617	0.582578	0.562590
C21	C	0.941133	0.137147	0.000006
C22	C	1.441133	0.637147	0.500006
C23	C	0.836453	0.112126	0.000004
C24	C	1.336453	0.612126	0.500004
N25	N	1.113535	0.185691	0.178166
N26	N	1.613535	0.685691	0.678166
C27	C	1.120988	0.314552	0.000028
C28	C	1.620988	0.814552	0.500028
C29	C	1.119455	0.391273	0.000034
C30	C	1.619455	0.891273	0.500034
C31	C	0.549718	0.360705	0.000028
C32	C	1.049718	0.860705	0.500028
C33	C	0.451352	0.337176	0.000024
C34	C	0.951352	0.837176	0.500024
C35	C	0.428348	0.204832	0.000005
C36	C	0.928348	0.704832	0.500005
C37	C	0.526713	0.228350	0.000013
C38	C	1.026713	0.728350	0.500013
C39	C	0.587391	0.306287	0.000024
C40	C	1.087391	0.806287	0.500024
C41	C	0.564386	0.173932	0.000008
C42	C	1.064386	0.673932	0.500008
C43	C	0.662744	0.197448	0.000012
C44	C	1.162744	0.697448	0.500012
C45	C	0.723427	0.275382	0.000020
C46	C	1.223427	0.775382	0.500020
C47	C	0.685748	0.329803	0.000027
C48	C	1.185748	0.829803	0.500027
C49	C	0.503707	0.095996	-0.000008
C50	C	1.003707	0.595996	0.499992
C51	C	0.541380	0.041578	-0.000013
C52	C	1.041380	0.541578	0.499987
C53	C	0.639739	0.065094	-0.000004
C54	C	1.139739	0.565094	0.499996
C55	C	0.700423	0.143027	0.000005
C56	C	1.200423	0.643027	0.500005
C57	C	0.677418	0.010673	-0.000011
C58	C	1.177418	0.510673	0.499989
C59	C	0.775776	0.034189	-0.000007
C60	C	1.275776	0.534189	0.499993
C61	C	0.798780	0.166543	0.000008
C62	C	1.298780	0.666543	0.500008
C63	C	1.285995	0.234234	0.000013
C64	C	1.785995	0.734234	0.500013
C65	C	1.390675	0.259255	0.000011
C66	C	1.890675	0.759255	0.500011
C67	C	1.106140	0.056829	-0.000009
C68	C	1.606140	0.556829	0.499991
C69	C	1.107673	-0.019891	-0.000020
C70	C	1.607673	0.480109	0.499980
C71	C	1.204672	0.457257	0.000040
C72	C	1.704672	0.957257	0.500040
C73	C	1.203232	0.529344	0.000029
C74	C	1.703232	1.029344	0.500029
C75	C	1.116570	0.535443	0.000026
C76	C	1.616570	1.035443	0.500026
C77	C	1.031342	0.469446	0.000015
C78	C	1.531342	0.969446	0.500015
C79	C	1.032785	0.397361	0.000020
C80	C	1.532785	0.897361	0.500020
C81	C	1.048435	0.626711	0.043875
C82	C	1.548435	1.126711	0.543875
C83	C	1.046996	0.698796	0.043875
C84	C	1.546996	1.198796	0.543875
C85	C	1.112118	0.757776	0.000009
C86	C	1.612118	1.257776	0.500009
C87	C	1.178694	0.744668	-0.043848
C88	C	1.678694	1.244668	0.456152
C89	C	1.180137	0.672583	-0.043844
C90	C	1.680137	1.172583	0.456156
C91	C	1.114997	0.613604	0.000020
C92	C	1.614997	1.113604	0.500020
C93	C	1.195779	0.901928	0.000001
C94	C	1.695779	1.401928	0.500001
C95	C	1.194336	0.974015	-0.000016
C96	C	1.694336	1.474015	0.499984
C97	C	1.022443	0.914114	-0.000022
C98	C	1.522443	1.414114	0.499978
C99	C	1.023889	0.842029	-0.000013
C100	C	1.523889	1.342029	0.499987
C101	C	1.110560	0.835941	0.000002
C102	C	1.610560	1.335941	0.500002
N103	N	1.113601	0.185697	-0.178145
N104	N	1.613601	0.685697	0.321855
C105	C	1.177865	0.249107	0.217561
C106	C	1.677865	0.749107	0.717561
C107	C	1.177871	0.249112	0.296363
C108	C	1.677871	0.749112	0.796363
C109	C	1.113555	0.185691	0.335766
C110	C	1.613555	0.685691	0.835766
C111	C	1.049212	0.122268	0.296362
C112	C	1.549212	0.622268	0.796362
C113	C	1.049202	0.122269	0.217561
C114	C	1.549202	0.622269	0.717561
C115	C	1.100930	0.119249	0.460595
C116	C	1.600930	0.619249	0.960595
C117	C	1.100947	0.119250	0.539394
C118	C	1.600947	0.619250	1.039394
C119	C	1.113580	0.185689	0.578813
C120	C	1.613580	0.685689	1.078813
C121	C	1.126217	0.252135	0.539423
C122	C	1.626217	0.752135	1.039423
C123	C	1.126207	0.252135	0.460623
C124	C	1.626207	0.752135	0.960623
C125	C	1.113558	0.185684	0.421212
C126	C	1.613558	0.685684	0.921212
C127	C	1.177920	0.249114	0.703654
C128	C	1.677920	0.749114	1.203654
C129	C	1.177919	0.249118	0.782457
C130	C	1.677919	0.749118	1.282457
C131	C	1.049265	0.122270	0.782454
C132	C	1.549265	0.622270	1.282454
C133	C	1.049261	0.122271	0.703653
C134	C	1.549261	0.622271	1.203653
C135	C	1.113594	0.185694	0.664257
C136	C	1.613594	0.685694	1.164257
H137	H	0.848188	0.230008	0.000022
H138	H	1.348188	0.730008	0.500022
Cl139	Cl	0.916753	0.759073	-0.000017
Cl140	Cl	1.416753	1.259073	0.499983
H141	H	0.992782	0.709461	0.079581
H142	H	1.492782	1.209461	0.579581
Cl143	Cl	0.913495	0.921774	-0.000030
Cl144	Cl	1.413495	1.421774	0.499970
Cl145	Cl	0.823141	-0.034222	-0.000015
Cl146	Cl	1.323141	0.465778	0.499985
H147	H	1.136503	0.306236	0.571517
H148	H	1.636503	0.806236	1.071517
H149	H	1.230246	0.300751	0.185488
H150	H	1.730246	0.800751	0.685488
Cl151	Cl	0.968324	0.042539	0.168032
Cl152	Cl	1.468324	0.542539	0.668032
Cl153	Cl	0.968390	0.042542	0.654122
Cl154	Cl	1.468390	0.542542	1.154122
Cl155	Cl	0.403995	0.405596	0.000043
Cl156	Cl	0.903995	0.905596	0.500043
H157	H	0.995403	0.578692	0.079600
H158	H	1.495403	1.078692	0.579600
H159	H	1.230302	0.300762	0.814533
H160	H	1.730302	0.800762	1.314533
H161	H	1.275246	0.452307	0.000050
H162	H	1.775246	0.952307	0.500050
H163	H	0.491964	-0.021879	-0.000025
H164	H	0.991964	0.478121	0.499975
H165	H	1.090663	0.065147	0.571458
H166	H	1.590663	0.565147	1.071458
H167	H	0.960782	0.474415	0.000011
H168	H	1.460782	0.974415	0.500011
H169	H	1.230258	0.300754	0.328444
H170	H	1.730258	0.800754	0.828444
H171	H	0.423619	0.076851	-0.000014
H172	H	0.923619	0.576851	0.499986
H173	H	0.803516	0.294527	0.000013
H174	H	1.303516	0.794527	0.500013
Cl175	Cl	0.925646	0.314403	0.000013
Cl176	Cl	1.425646	0.814403	0.500013
H177	H	0.628000	-0.052784	-0.000027
H178	H	1.128000	0.447216	0.499973
H179	H	1.136493	0.306237	0.428555
H180	H	1.636493	0.806237	0.928555
H181	H	1.234344	0.661913	-0.079555
H182	H	1.734344	1.161913	0.420445
Cl183	Cl	1.310370	0.612309	0.000036
Cl184	Cl	1.810370	1.112309	0.500036
H185	H	1.090626	0.065139	0.428506
H186	H	1.590626	0.565139	0.928506
Cl187	Cl	0.968403	0.042544	0.831985
Cl188	Cl	1.468403	0.542544	1.331985
Cl189	Cl	0.762036	0.427783	0.000050
Cl190	Cl	1.262036	0.927783	0.500050
Cl191	Cl	1.260566	0.818807	-0.098999
Cl192	Cl	1.760566	1.318807	0.401001
Cl193	Cl	1.258790	0.328847	0.654127
Cl194	Cl	1.758790	0.828847	1.154127
H195	H	0.996844	0.070631	0.328448
H196	H	1.496844	0.570631	0.828448
H197	H	1.266352	0.896971	0.000009
H198	H	1.766352	1.396971	0.500009
Cl199	Cl	0.626006	0.458685	0.000051
Cl200	Cl	1.126006	0.958685	0.500051
H201	H	1.263733	1.027743	-0.000015
H202	H	1.763733	1.527743	0.499985
Cl203	Cl	0.352059	0.106858	-0.000013
Cl204	Cl	0.852059	0.606858	0.499987
