data_functionalizedCrystal
_audit_creation_method	'MofGen! by Chris Wilmer'
_symmetry_space_group_name_H-M	'P1'
_symmetry_Int_Tables_number	1
_symmetry_cell_setting	triclinic
loop_
_symmetry_equiv_pos_as_xyz
  x,y,z
_cell_length_a	14.421503
_cell_length_b	14.519709
_cell_length_c	14.519709
_cell_angle_alpha	83.680145
_cell_angle_beta	90.010234
_cell_angle_gamma	89.988844
loop_
_atom_site_label
_atom_site_type_symbol
_atom_site_fract_x
_atom_site_fract_y
_atom_site_fract_z
O1	O	-0.076993	-1.223853	-0.120899
O2	O	0.173007	-0.973853	0.129101
O3	O	0.423007	-0.723853	0.379101
O4	O	0.673007	-0.473853	0.629101
O5	O	-0.077022	-0.955376	-0.135135
O6	O	0.172978	-0.705376	0.114865
O7	O	0.422978	-0.455376	0.364865
O8	O	0.672978	-0.205376	0.614865
O9	O	-0.076998	-1.096733	0.006221
O10	O	0.173002	-0.846733	0.256221
O11	O	0.423002	-0.596733	0.506221
O12	O	0.673002	-0.346733	0.756221
O13	O	-0.077016	-1.082497	-0.262256
O14	O	0.172984	-0.832497	-0.012256
O15	O	0.422984	-0.582497	0.237744
O16	O	0.672984	-0.332497	0.487744
O17	O	0.077225	-1.096749	0.006241
O18	O	0.327225	-0.846749	0.256241
O19	O	0.577225	-0.596749	0.506241
O20	O	0.827225	-0.346749	0.756241
O21	O	0.077202	-0.955393	-0.135116
O22	O	0.327202	-0.705393	0.114884
O23	O	0.577202	-0.455393	0.364884
O24	O	0.827202	-0.205393	0.614884
O25	O	0.077230	-1.223870	-0.120879
O26	O	0.327230	-0.973870	0.129121
O27	O	0.577230	-0.723870	0.379121
O28	O	0.827230	-0.473870	0.629121
Cu29	Cu	0.091298	-1.089633	-0.127996
Cu30	Cu	0.341298	-0.839633	0.122004
Cu31	Cu	0.591298	-0.589633	0.372004
Cu32	Cu	0.841298	-0.339633	0.622004
Cu33	Cu	-0.091089	-1.089613	-0.128019
Cu34	Cu	0.158911	-0.839613	0.121981
Cu35	Cu	0.408911	-0.589613	0.371981
Cu36	Cu	0.658911	-0.339613	0.621981
O37	O	0.077207	-1.082513	-0.262236
O38	O	0.327207	-0.832513	-0.012236
O39	O	0.577207	-0.582513	0.237764
O40	O	0.827207	-0.332513	0.487764
C41	C	0.000087	-0.921025	-0.134462
C42	C	0.250087	-0.671025	0.115538
C43	C	0.500087	-0.421025	0.365538
C44	C	0.750087	-0.171025	0.615538
C45	C	0.000076	-0.818643	-0.132474
C46	C	0.250076	-0.568643	0.117526
C47	C	0.500076	-0.318643	0.367526
C48	C	0.750076	-0.068643	0.617526
N49	N	-0.219370	-1.089600	-0.128029
N50	N	0.030630	-0.839600	0.121971
N51	N	0.280630	-0.589600	0.371971
N52	N	0.530630	-0.339600	0.621971
C53	C	0.000114	-1.096078	0.040591
C54	C	0.250114	-0.846078	0.290591
C55	C	0.500114	-0.596078	0.540591
C56	C	0.750114	-0.346078	0.790591
C57	C	0.000114	-1.094090	0.142972
C58	C	0.250114	-0.844090	0.392972
C59	C	0.500114	-0.594090	0.642972
C60	C	0.750114	-0.344090	0.892972
C61	C	-0.469029	-1.024113	-0.193260
C62	C	-0.219029	-0.774113	0.056740
C63	C	0.030971	-0.524113	0.306740
C64	C	0.280971	-0.274113	0.556740
C65	C	-0.530831	-1.006291	-0.109831
C66	C	-0.280831	-0.756291	0.140169
C67	C	-0.030831	-0.506291	0.390169
C68	C	0.219169	-0.256291	0.640169
C69	C	-0.408532	-1.089618	-0.128010
C70	C	-0.158532	-0.839618	0.121990
C71	C	0.091468	-0.589618	0.371990
C72	C	0.341468	-0.339618	0.621990
C73	C	-0.530824	-1.107414	-0.211421
C74	C	-0.280824	-0.857414	0.038579
C75	C	-0.030824	-0.607414	0.288579
C76	C	0.219176	-0.357414	0.538579
C77	C	-0.591253	-1.089632	-0.127999
C78	C	-0.341253	-0.839632	0.122001
C79	C	-0.091253	-0.589632	0.372001
C80	C	0.158747	-0.339632	0.622001
C81	C	-0.468973	-1.071754	-0.044538
C82	C	-0.218973	-0.821754	0.205462
C83	C	0.031027	-0.571754	0.455462
C84	C	0.281027	-0.321754	0.705462
C85	C	-0.468961	-1.172913	-0.146183
C86	C	-0.218961	-0.922913	0.103817
C87	C	0.031039	-0.672913	0.353817
C88	C	0.281039	-0.422913	0.603817
C89	C	-0.530734	-1.155127	-0.062694
C90	C	-0.280734	-0.905127	0.187306
C91	C	-0.030734	-0.655127	0.437306
C92	C	0.219266	-0.405127	0.687306
C93	C	-0.303271	-1.089607	-0.128017
C94	C	-0.053271	-0.839607	0.121983
C95	C	0.196729	-0.589607	0.371983
C96	C	0.446729	-0.339607	0.621983
C97	C	-0.696512	-1.089644	-0.127982
C98	C	-0.446512	-0.839644	0.122018
C99	C	-0.196512	-0.589644	0.372018
C100	C	0.053488	-0.339644	0.622018
N101	N	0.219579	-1.089653	-0.127979
N102	N	0.469579	-0.839653	0.122021
N103	N	0.719579	-0.589653	0.372021
N104	N	0.969579	-0.339653	0.622021
C105	C	0.000120	-1.258221	-0.121553
C106	C	0.250120	-1.008221	0.128447
C107	C	0.500120	-0.758221	0.378447
C108	C	0.750120	-0.508221	0.628447
C109	C	0.000125	-1.360602	-0.123541
C110	C	0.250125	-1.110602	0.126459
C111	C	0.500125	-0.860602	0.376459
C112	C	0.750125	-0.610602	0.626459
C113	C	0.000119	-0.443748	-0.125154
C114	C	0.250119	-0.193748	0.124846
C115	C	0.500119	0.056252	0.374846
C116	C	0.750119	0.306252	0.624846
C117	C	0.000106	-0.548056	-0.127187
C118	C	0.250106	-0.298056	0.122813
C119	C	0.500106	-0.048056	0.372813
C120	C	0.750106	0.201944	0.622813
C121	C	0.000096	-0.631192	-0.128814
C122	C	0.250096	-0.381192	0.121186
C123	C	0.500096	-0.131192	0.371186
C124	C	0.750096	0.118808	0.621186
C125	C	0.000086	-0.735507	-0.130847
C126	C	0.250086	-0.485507	0.119153
C127	C	0.500086	-0.235507	0.369153
C128	C	0.750086	0.014493	0.619153
C129	C	0.000093	-1.083168	-0.296605
C130	C	0.250093	-0.833168	-0.046605
C131	C	0.500093	-0.583168	0.203395
C132	C	0.750093	-0.333168	0.453395
C133	C	0.000087	-1.085156	-0.398987
C134	C	0.250087	-0.835156	-0.148987
C135	C	0.500087	-0.585156	0.101013
C136	C	0.750087	-0.335156	0.351013
C137	C	0.000089	-1.086770	0.517868
C138	C	0.250089	-0.836770	0.767868
C139	C	0.500089	-0.586770	1.017868
C140	C	0.750089	-0.336770	1.267868
C141	C	0.000096	-1.088803	0.413560
C142	C	0.250096	-0.838803	0.663560
C143	C	0.500096	-0.588803	0.913560
C144	C	0.750096	-0.338803	1.163560
C145	C	0.000102	-1.090430	0.330423
C146	C	0.250102	-0.840430	0.580423
C147	C	0.500102	-0.590430	0.830423
C148	C	0.750102	-0.340430	1.080423
C149	C	0.000108	-1.092463	0.226109
C150	C	0.250108	-0.842463	0.476109
C151	C	0.500108	-0.592463	0.726109
C152	C	0.750108	-0.342463	0.976109
H153	H	-0.441934	-0.968675	-0.248382
H154	H	-0.191934	-0.718675	0.001618
H155	H	0.058066	-0.468675	0.251618
H156	H	0.308066	-0.218675	0.501618
C157	C	-0.567556	-0.911148	-0.089048
C158	C	-0.317556	-0.661148	0.160952
C159	C	-0.067556	-0.411148	0.410952
C160	C	0.182444	-0.161148	0.660952
H161	H	-0.603777	-0.918502	-0.034084
H162	H	-0.353777	-0.668502	0.215916
H163	H	-0.103777	-0.418502	0.465916
H164	H	0.146223	-0.168502	0.715916
H165	H	-0.604746	-0.885100	-0.139312
H166	H	-0.354746	-0.635100	0.110688
H167	H	-0.104746	-0.385100	0.360688
H168	H	0.145254	-0.135100	0.610688
H169	H	-0.516792	-0.871146	-0.080912
H170	H	-0.266792	-0.621146	0.169088
H171	H	-0.016792	-0.371146	0.419088
H172	H	0.233208	-0.121146	0.669088
H173	H	-0.557657	-1.210532	-0.007448
H174	H	-0.307657	-0.960532	0.242552
H175	H	-0.057657	-0.710532	0.492552
H176	H	0.192343	-0.460532	0.742552
H177	H	-0.557976	-1.122471	-0.281968
H178	H	-0.307976	-0.872471	-0.031968
H179	H	-0.057976	-0.622471	0.218032
H180	H	0.192024	-0.372471	0.468032
C181	C	-0.432432	-1.051308	0.050781
C182	C	-0.182432	-0.801308	0.300781
C183	C	0.067568	-0.551308	0.550781
C184	C	0.317568	-0.301308	0.800781
H185	H	-0.366559	-1.051395	0.050184
H186	H	-0.116559	-0.801395	0.300184
H187	H	0.133441	-0.551395	0.550184
H188	H	0.383441	-0.301395	0.800184
H189	H	-0.454052	-1.097569	0.097156
H190	H	-0.204052	-0.847569	0.347156
H191	H	0.045948	-0.597569	0.597156
H192	H	0.295948	-0.347569	0.847156
H193	H	-0.454131	-0.992330	0.063795
H194	H	-0.204131	-0.742330	0.313795
H195	H	0.045869	-0.492330	0.563795
H196	H	0.295869	-0.242330	0.813795
C197	C	-0.432209	-1.268030	-0.167000
C198	C	-0.182209	-1.018030	0.083000
C199	C	0.067791	-0.768030	0.333000
C200	C	0.317791	-0.518030	0.583000
H201	H	-0.453348	-1.280576	-0.226324
H202	H	-0.203348	-1.030576	0.023676
H203	H	0.046652	-0.780576	0.273676
H204	H	0.296652	-0.530576	0.523676
H205	H	-0.454254	-1.314689	-0.121251
H206	H	-0.204254	-1.064689	0.128749
H207	H	0.045746	-0.814689	0.378749
H208	H	0.295746	-0.564689	0.628749
H209	H	-0.366342	-1.267496	-0.166290
H210	H	-0.116342	-1.017496	0.083710
H211	H	0.133658	-0.767496	0.333710
H212	H	0.383658	-0.517496	0.583710
