data_functionalizedCrystal
_audit_creation_method	'MofGen! by Chris Wilmer'
_symmetry_space_group_name_H-M	'P1'
_symmetry_Int_Tables_number	1
_symmetry_cell_setting	triclinic
loop_
_symmetry_equiv_pos_as_xyz
  x,y,z
_cell_length_a	11.169417
_cell_length_b	19.076808
_cell_length_c	11.169409
_cell_angle_alpha	87.662578
_cell_angle_beta	89.980487
_cell_angle_gamma	92.324818
loop_
_atom_site_label
_atom_site_type_symbol
_atom_site_fract_x
_atom_site_fract_y
_atom_site_fract_z
Zn1	Zn	1.815644	-0.280138	-0.659282
Zn2	Zn	2.315644	0.219862	-0.159282
Zn3	Zn	1.807414	-0.397866	-0.450509
Zn4	Zn	2.307414	0.102134	0.049491
Zn5	Zn	1.614927	-0.280182	-0.458614
Zn6	Zn	2.114927	0.219818	0.041386
Zn7	Zn	1.606822	-0.397810	-0.651159
Zn8	Zn	2.106822	0.102190	-0.151159
O9	O	1.711202	-0.338999	-0.554891
O10	O	2.211202	0.161001	-0.054891
O11	O	1.982501	-0.295761	-0.631595
O12	O	2.482501	0.204239	-0.131595
O13	O	1.781828	-0.382297	-0.283631
O14	O	2.281828	0.117703	0.216369
O15	O	1.648388	-0.181679	-0.492025
O16	O	2.148388	0.318321	0.007975
O17	O	1.976455	-0.382255	-0.478210
O18	O	2.476455	0.117745	0.021790
O19	O	1.795854	-0.181647	-0.639455
O20	O	2.295854	0.318353	-0.139455
O21	O	1.640408	-0.295835	-0.289587
O22	O	2.140408	0.204165	0.210413
O23	O	1.445902	-0.295780	-0.484148
O24	O	1.945902	0.204220	0.015852
O25	O	1.634575	-0.382158	-0.820189
O26	O	2.134575	0.117842	-0.320189
O27	O	1.439948	-0.382201	-0.625610
O28	O	1.939948	0.117799	-0.125610
O29	O	1.787995	-0.295706	-0.826157
O30	O	2.287995	0.204294	-0.326157
O31	O	1.773970	-0.496356	-0.470333
O32	O	2.273970	0.003644	0.029667
O33	O	1.626596	-0.496314	-0.617750
O34	O	2.126596	0.003686	-0.117750
C35	C	1.399378	-0.338990	-0.554878
C36	C	1.899378	0.161010	-0.054878
C37	C	1.265977	-0.339003	-0.554900
C38	C	1.765977	0.160997	-0.054900
C39	C	1.698543	-0.521874	-0.542307
C40	C	2.198543	-0.021874	-0.042307
C41	C	1.693237	-0.600109	-0.536963
C42	C	2.193237	-0.100109	-0.036963
C43	C	1.767465	-0.636787	-0.611274
C44	C	2.267465	-0.136787	-0.111274
C45	C	1.762475	-0.710297	-0.606255
C46	C	2.262475	-0.210297	-0.106255
C47	C	1.683262	-0.747128	-0.526919
C48	C	2.183262	-0.247128	-0.026919
C49	C	1.609027	-0.710445	-0.452606
C50	C	2.109027	-0.210445	0.047394
C51	C	1.614012	-0.636936	-0.457631
C52	C	2.114012	-0.136936	0.042369
C53	C	1.660121	-0.966983	-0.503657
C54	C	2.160121	-0.466983	-0.003657
C55	C	1.655145	-1.040497	-0.498635
C56	C	2.155145	-0.540497	0.001365
C57	C	1.808592	-1.040344	-0.652286
C58	C	2.308592	-0.540344	-0.152286
C59	C	1.813575	-0.966834	-0.657300
C60	C	2.313575	-0.466834	-0.157300
C61	C	1.739335	-0.930157	-0.582991
C62	C	2.239335	-0.430157	-0.082991
N63	N	1.678162	-0.822267	-0.521785
N64	N	2.178162	-0.322267	-0.021785
N65	N	1.744429	-0.855020	-0.588132
N66	N	2.244429	-0.355020	-0.088132
C67	C	2.024243	-0.339009	-0.554905
C68	C	2.524243	0.160991	-0.054905
C69	C	2.157643	-0.339013	-0.554911
C70	C	2.657643	0.160987	-0.054911
C71	C	1.711299	-0.338921	-0.867939
C72	C	2.211299	0.161079	-0.367939
C73	C	1.711341	-0.338888	-1.001341
C74	C	2.211341	0.161112	-0.501341
C75	C	1.723943	-0.155410	-0.567550
C76	C	2.223943	0.344590	-0.067550
C77	C	1.729372	-0.077175	-0.572945
C78	C	2.229372	0.422825	-0.072945
C79	C	1.711177	-0.339026	-0.243064
C80	C	2.211177	0.160974	0.256936
C81	C	1.711382	-0.338861	-0.109676
C82	C	2.211382	0.161139	0.390324
H83	H	1.831973	-0.606804	-0.675872
H84	H	2.331973	-0.106804	-0.175872
H85	H	1.822928	-0.740157	-0.666758
H86	H	2.322928	-0.240157	-0.166758
H87	H	1.878076	-0.936848	-0.721901
H88	H	2.378076	-0.436848	-0.221901
H89	H	1.599674	-0.937127	-0.443150
H90	H	2.099674	-0.437127	0.056850
F91	F	1.887594	-1.079383	-0.731369
F92	F	2.387594	-0.579383	-0.231369
H93	H	1.553566	-0.607074	-0.397122
H94	H	2.053566	-0.107074	0.102878
H95	H	1.544525	-0.740439	-0.388014
H96	H	2.044525	-0.240439	0.111986
H97	H	1.590635	-1.070483	-0.434029
H98	H	2.090635	-0.570483	0.065971
