data_functionalizedCrystal
_audit_creation_method	'MofGen! by Chris Wilmer'
_symmetry_space_group_name_H-M	'P1'
_symmetry_Int_Tables_number	1
_symmetry_cell_setting	triclinic
loop_
_symmetry_equiv_pos_as_xyz
  x,y,z
_cell_length_a	19.288864
_cell_length_b	9.130313
_cell_length_c	19.288857
_cell_angle_alpha	90.003386
_cell_angle_beta	83.134677
_cell_angle_gamma	90.014070
loop_
_atom_site_label
_atom_site_type_symbol
_atom_site_fract_x
_atom_site_fract_y
_atom_site_fract_z
O1	O	0.921342	0.122276	0.086645
O2	O	0.719081	0.122177	0.098334
O3	O	0.826059	0.122212	-0.008641
O4	O	0.814364	0.122241	0.193620
O5	O	0.826057	-0.121387	-0.008639
O6	O	0.719080	-0.121422	0.098337
O7	O	0.921341	-0.121323	0.086648
Cu8	Cu	0.820210	-0.143615	0.092492
Cu9	Cu	0.820212	0.144469	0.092489
O10	O	0.814363	-0.121358	0.193623
C11	C	0.693204	0.000364	0.097959
C12	C	0.616100	0.000326	0.096830
N13	N	0.820214	-0.346238	0.092494
C14	C	0.571402	0.000358	0.159598
C15	C	0.498955	0.000374	0.158537
C16	C	0.471209	0.000387	0.094705
C17	C	0.515917	0.000347	0.031929
C18	C	0.588363	0.000316	0.032991
C19	C	0.362949	0.085773	0.044525
C20	C	0.290505	0.085812	0.043465
C21	C	0.247764	0.000475	0.091425
C22	C	0.277475	-0.084882	0.140458
C23	C	0.349920	-0.084913	0.141520
C24	C	0.392656	0.000420	0.093546
C25	C	0.124510	0.000523	0.153048
C26	C	0.052062	0.000530	0.151984
C27	C	0.069026	0.000517	0.025374
C28	C	0.141472	0.000496	0.026439
C29	C	0.169210	0.000505	0.090278
C30	C	0.867596	-0.422874	0.045142
C31	C	0.867594	-0.576211	0.045133
C32	C	0.772826	-0.576261	0.139837
C33	C	0.772826	-0.422927	0.139841
C34	C	0.914984	-0.346185	-0.002205
C35	C	0.962370	-0.422821	-0.049561
C36	C	0.962368	-0.576158	-0.049569
C37	C	0.914980	-0.652858	-0.002222
C38	C	0.947218	0.000493	0.087022
C39	C	1.024321	0.000541	0.088151
C40	C	0.825683	0.000411	-0.034516
C41	C	0.824556	0.000406	-0.111620
N42	N	0.820213	0.347091	0.092482
C43	C	0.824031	0.133191	-0.147833
C44	C	0.822962	0.133202	-0.220279
C45	C	0.822432	0.000419	-0.256511
C46	C	0.822954	-0.132384	-0.220290
C47	C	0.824015	-0.132391	-0.147844
C48	C	0.861433	-0.101281	-0.376742
C49	C	0.860376	-0.101269	-0.449187
C50	C	0.819155	0.000434	-0.479957
C51	C	0.779000	0.102150	-0.438276
C52	C	0.780061	0.102143	-0.365830
C53	C	0.821281	0.000411	-0.335066
C54	C	0.817470	0.133240	-0.594724
C55	C	0.816397	0.133245	-0.667170
C56	C	0.816395	-0.132345	-0.667181
C57	C	0.817461	-0.132346	-0.594735
C58	C	0.818002	0.000451	-0.558511
C59	C	0.814739	0.000446	0.219498
C60	C	0.815866	0.000461	0.296602
H61	H	0.593981	0.000369	0.211581
H62	H	0.397744	0.155273	0.005468
H63	H	0.824440	-0.240524	-0.118361
Cl64	Cl	0.729580	0.230001	-0.313432
Cl65	Cl	0.442753	0.000411	0.237452
Cl66	Cl	1.021934	-0.326402	-0.109086
H67	H	1.000947	-0.638554	-0.088133
H68	H	0.914978	-0.777716	-0.002237
H69	H	0.914991	-0.221330	-0.002201
Cl70	Cl	0.713260	-0.672684	0.199357
Cl71	Cl	-0.004132	0.000563	0.230901
H72	H	0.046436	0.000619	-0.026600
Cl73	Cl	0.713256	-0.326582	0.199370
H74	H	0.374108	-0.154419	0.181442
H75	H	0.824468	0.241325	-0.118343
H76	H	0.822530	0.241335	-0.249768
Cl77	Cl	0.818121	-0.299287	-0.549209
Cl78	Cl	0.159384	0.000521	0.233300
Cl79	Cl	0.223751	-0.192170	0.200756
H80	H	0.815959	-0.240460	-0.696681
H81	H	0.177867	0.000478	-0.024674
Cl82	Cl	0.727171	0.230008	-0.476949
Cl83	Cl	0.253161	0.193133	-0.018168
H84	H	0.817906	0.241371	-0.565228
Cl85	Cl	0.815731	0.300192	-0.712694
H86	H	0.624757	0.000291	-0.018124
Cl87	Cl	0.481038	0.000355	-0.048318
Cl88	Cl	0.910858	-0.229133	-0.501579
H89	H	0.895000	-0.184112	-0.351695
H90	H	0.822520	-0.240497	-0.249795
