data_functionalizedCrystal
_audit_creation_method	'MofGen! by Chris Wilmer'
_symmetry_space_group_name_H-M	'P1'
_symmetry_Int_Tables_number	1
_symmetry_cell_setting	triclinic
loop_
_symmetry_equiv_pos_as_xyz
  x,y,z
_cell_length_a	17.699083
_cell_length_b	17.699083
_cell_length_c	16.776229
_cell_angle_alpha	90.007545
_cell_angle_beta	90.001114
_cell_angle_gamma	83.283015
loop_
_atom_site_label
_atom_site_type_symbol
_atom_site_fract_x
_atom_site_fract_y
_atom_site_fract_z
O1	O	-1.004078	-0.095713	-0.066178
O2	O	-0.783700	-0.108165	-0.066204
O3	O	-0.900116	0.008250	-0.066183
O4	O	-0.887663	-0.212128	-0.066199
O5	O	-0.900100	0.008257	0.066393
O6	O	-0.783685	-0.108158	0.066372
O7	O	-1.004063	-0.095706	0.066398
Zn8	Zn	-0.893871	-0.101931	0.087435
Zn9	Zn	-0.893892	-0.101940	-0.087241
O10	O	-0.887648	-0.212121	0.066378
C11	C	-0.755495	-0.107716	0.000081
C12	C	-0.671477	-0.106377	0.000071
N13	N	-0.893863	-0.101924	0.206646
C14	C	-0.899662	0.036451	0.000105
C15	C	-0.898323	0.120469	0.000105
C16	C	-1.032268	-0.096156	0.000112
C17	C	-1.116286	-0.097494	0.000116
C18	C	-0.622856	-0.174710	0.000066
C19	C	-0.543913	-0.173448	0.000077
C20	C	-0.513592	-0.103852	0.000086
C21	C	-0.562219	-0.035513	0.000093
C22	C	-0.641161	-0.036776	0.000088
C23	C	-0.243856	-0.030418	0.000113
C24	C	-0.164908	-0.029160	0.000115
C25	C	-0.146608	-0.167090	0.000101
C26	C	-0.225550	-0.168353	0.000097
C27	C	-0.274170	-0.100015	0.000108
C28	C	-0.359769	-0.101384	0.000098
C29	C	-0.427995	-0.102481	0.000090
C30	C	-0.888102	-0.240322	0.000087
C31	C	-0.889440	-0.324340	0.000082
C32	C	-0.966656	0.169090	0.000114
C33	C	-0.965394	0.248033	0.000107
C34	C	-0.895798	0.278354	0.000096
C35	C	-0.827459	0.229727	0.000085
C36	C	-0.828722	0.150785	0.000086
C37	C	-0.822364	0.548090	0.000078
C38	C	-0.821106	0.627038	0.000078
C39	C	-0.959036	0.645338	0.000099
C40	C	-0.960299	0.566396	0.000100
C41	C	-0.891961	0.517776	0.000084
C42	C	-0.893330	0.432177	0.000090
C43	C	-0.894427	0.363951	0.000096
N44	N	-0.893906	-0.101941	-0.206452
C45	C	-0.945428	-0.050396	0.248372
C46	C	-0.945432	-0.050396	0.331824
C47	C	-0.893875	-0.101927	0.373549
C48	C	-0.842305	-0.153457	0.331817
C49	C	-0.842297	-0.153454	0.248366
C50	C	-0.842332	-0.153472	0.668364
C51	C	-0.842345	-0.153473	0.751820
C52	C	-0.945466	-0.050414	0.751822
C53	C	-0.945459	-0.050411	0.668372
C54	C	-0.893887	-0.101938	0.626647
C55	C	-0.893882	-0.101937	0.536158
C56	C	-0.893882	-0.101932	0.464036
H57	H	-0.504328	-0.229092	0.000072
O58	O	-0.786741	-0.209069	0.796819
H59	H	-0.727755	-0.199502	0.780825
O60	O	-0.786718	-0.209051	0.623364
H61	H	-0.750877	-0.244890	0.666400
O62	O	-0.755019	0.098341	0.000087
H63	H	-0.721707	0.109100	-0.053949
H64	H	-0.987457	-0.008456	0.785804
H65	H	-0.766718	0.508512	0.000065
H66	H	-0.107012	-0.222734	0.000097
H67	H	-0.770792	0.254420	0.000071
H68	H	-0.140225	0.027517	0.000124
H69	H	-1.021038	0.287618	0.000116
H70	H	-0.800322	-0.195412	0.365793
O71	O	-0.746035	0.659739	0.000067
H72	H	-0.756641	0.722800	0.000079
O73	O	-1.001033	0.005187	0.203370
H74	H	-1.036883	0.041023	0.246409
O75	O	-1.001061	0.005166	0.376833
H76	H	-1.036921	0.040988	0.333799
O77	O	-1.001062	0.005173	0.623367
H78	H	-1.036914	0.041010	0.666402
H79	H	-0.250232	-0.225025	0.000085
H80	H	-0.283434	0.025228	0.000123
H81	H	-0.647537	-0.231384	0.000058
O82	O	-0.786686	-0.209033	0.203355
H83	H	-0.750841	-0.244872	0.246386
H84	H	-0.537526	0.021154	0.000112
O85	O	-0.693606	0.036927	0.000099
H86	H	-0.730017	0.039649	-0.053932
O87	O	-1.041722	0.136387	0.000118
H88	H	-1.089025	0.183462	0.000113
H89	H	-1.014680	0.684934	0.000107
O90	O	-1.035363	0.533690	0.000100
H91	H	-1.082669	0.580763	0.000094
