data_functionalizedCrystal
_audit_creation_method	'MofGen! by Chris Wilmer'
_symmetry_space_group_name_H-M	'P1'
_symmetry_Int_Tables_number	1
_symmetry_cell_setting	triclinic
loop_
_symmetry_equiv_pos_as_xyz
  x,y,z
_cell_length_a	12.811434
_cell_length_b	12.837943
_cell_length_c	11.892095
_cell_angle_alpha	94.310562
_cell_angle_beta	99.326043
_cell_angle_gamma	90.588804
loop_
_atom_site_label
_atom_site_type_symbol
_atom_site_fract_x
_atom_site_fract_y
_atom_site_fract_z
O1	O	0.268699	-1.381291	-0.066428
O2	O	0.255125	-1.079526	-0.067827
O3	O	0.108871	-1.239108	-0.082814
O4	O	0.414953	-1.221709	-0.051440
O5	O	0.121045	-1.225802	0.106441
O6	O	0.267298	-1.066220	0.121428
O7	O	0.280873	-1.367986	0.122827
Zn8	Zn	0.276019	-1.214990	0.152176
Zn9	Zn	0.259979	-1.232521	-0.097176
O10	O	0.427127	-1.208404	0.137815
C11	C	0.256626	-1.034266	0.026330
C12	C	0.242950	-0.919229	0.024925
N13	N	0.286965	-1.203034	0.322352
C14	C	0.075509	-1.231889	0.007767
C15	C	-0.042039	-1.230189	-0.004289
C16	C	-0.214352	-1.235040	-0.124427
C17	C	-0.103906	-1.236642	-0.113112
C18	C	-0.090625	-1.222136	0.093225
C19	C	-0.201071	-1.220535	0.081910
C20	C	-0.262930	-1.226985	-0.026920
C21	C	-0.373378	-1.225376	-0.038235
C22	C	-0.360095	-1.210878	0.168101
C23	C	-0.249649	-1.212480	0.179417
C24	C	0.460489	-1.215623	0.047231
C25	C	0.578036	-1.217323	0.059279
C26	C	0.279372	-1.413246	0.028668
C27	C	0.293048	-1.528283	0.030065
C28	C	0.407364	-0.677787	0.041794
C29	C	0.394519	-0.569699	0.040475
C30	C	0.204416	-0.594963	0.020977
C31	C	0.217261	-0.703051	0.022296
C32	C	0.318738	-0.744459	0.032703
C33	C	0.331582	-0.852550	0.034013
C34	C	0.141480	-0.877810	0.014523
C35	C	0.128635	-0.769722	0.013205
N36	N	0.249025	-1.244486	-0.267352
C37	C	0.172795	-1.327686	0.547300
C38	C	0.180455	-1.319336	0.666427
C39	C	0.309938	-1.177979	0.679734
C40	C	0.302279	-1.186329	0.560607
C41	C	0.233706	-1.261186	0.494394
C42	C	0.226052	-1.269541	0.375266
C43	C	0.355529	-1.128180	0.388574
C44	C	0.363189	-1.119830	0.507701
H45	H	-0.423742	-1.230621	-0.126850
C46	C	0.076752	-1.054718	0.007879
C47	C	0.044053	-0.951099	0.004528
H48	H	0.016606	-1.099961	0.001711
H49	H	0.113665	-1.071871	-0.053892
H50	H	0.122150	-1.062597	0.078103
H51	H	-0.001338	-0.943219	-0.065700
H52	H	0.007123	-0.933941	0.066304
H53	H	-0.064358	-1.243203	-0.192512
C54	C	0.098823	-1.408416	0.374081
C55	C	0.150674	-1.351817	0.302481
H56	H	0.052280	-1.459204	0.329146
H57	H	0.149583	-1.442307	0.425431
H58	H	0.059426	-1.362119	0.416212
H59	H	0.190077	-1.398113	0.260356
H60	H	0.099906	-1.317924	0.251111
H61	H	0.405130	-1.074034	0.345486
C62	C	0.511460	-0.832266	0.052461
C63	C	0.518902	-0.723313	0.053225
H64	H	0.580320	-0.860368	0.059511
H65	H	0.478763	-0.850521	0.114669
H66	H	0.470261	-0.859798	-0.017327
H67	H	0.560094	-0.695781	0.123017
H68	H	0.551614	-0.705049	-0.008988
H69	H	-0.264718	-1.240277	-0.213041
H70	H	-0.040241	-1.216896	0.181829
C71	C	0.051699	-1.459899	0.641302
C72	C	0.113501	-1.392435	0.724582
H73	H	0.010367	-1.505031	0.677208
H74	H	0.006324	-1.420129	0.590505
H75	H	0.096496	-1.500301	0.599728
H76	H	0.068703	-1.352027	0.766151
H77	H	0.158880	-1.432209	0.775399
C78	C	-0.074446	-1.208489	0.288382
C79	C	-0.181647	-1.205383	0.299038
H80	H	-0.032468	-1.204098	0.362234
H81	H	-0.061057	-1.272148	0.247659
H82	H	-0.057107	-1.151313	0.248041
H83	H	-0.198988	-1.262564	0.339372
H84	H	-0.195042	-1.141716	0.339778
C85	C	0.327181	-1.027501	0.814631
C86	C	0.385300	-1.095700	0.752537
H87	H	0.373707	-0.976710	0.859583
H88	H	0.276435	-0.993613	0.763262
H89	H	0.291998	-1.065930	0.863174
H90	H	0.420477	-1.057271	0.703987
H91	H	0.436064	-1.129591	0.803912
C92	C	-0.523499	-1.201923	0.242382
C93	C	-0.413494	-1.201987	0.275291
H94	H	-0.556462	-1.196426	0.308556
H95	H	-0.542328	-1.144240	0.198322
H96	H	-0.546311	-1.265073	0.197964
H97	H	-0.390681	-1.138834	0.319703
H98	H	-0.394656	-1.259675	0.319370
C99	C	0.546338	-0.521728	-0.040610
C100	C	0.491936	-0.496411	0.050459
H101	H	0.606478	-0.476477	-0.034447
H102	H	0.568507	-0.592018	-0.038325
H103	H	0.500924	-0.513840	-0.110822
H104	H	0.537348	-0.504307	0.120671
H105	H	0.469769	-0.426104	0.048185
C106	C	0.100328	-0.440480	0.010320
C107	C	0.092880	-0.549432	0.009550
H108	H	0.031469	-0.412374	0.003261
H109	H	0.141520	-0.412954	0.080101
H110	H	0.133034	-0.422223	-0.051894
H111	H	0.060181	-0.567689	0.071769
H112	H	0.051672	-0.576968	-0.060240
H113	H	0.046016	-0.735991	0.004745
C114	C	0.380460	-0.969343	0.642596
C115	C	0.438562	-1.037554	0.580494
H116	H	0.426998	-0.918555	0.687539
H117	H	0.329713	-0.935452	0.591233
H118	H	0.345281	-1.007765	0.691149
H119	H	0.473736	-0.999133	0.531935
H120	H	0.489329	-1.071447	0.631864
H121	H	0.116968	-1.388644	0.493389
H122	H	0.414210	-0.886262	0.042489
