data_functionalizedCrystal
_audit_creation_method	'MofGen! by Chris Wilmer'
_symmetry_space_group_name_H-M	'P1'
_symmetry_Int_Tables_number	1
_symmetry_cell_setting	triclinic
loop_
_symmetry_equiv_pos_as_xyz
  x,y,z
_cell_length_a	25.639243
_cell_length_b	25.639240
_cell_length_c	12.594509
_cell_angle_alpha	90.041310
_cell_angle_beta	90.023577
_cell_angle_gamma	90.035481
loop_
_atom_site_label
_atom_site_type_symbol
_atom_site_fract_x
_atom_site_fract_y
_atom_site_fract_z
Zn1	Zn	0.799286	-0.208097	0.601827
Zn2	Zn	0.799207	-0.295539	0.423808
Zn3	Zn	0.711851	-0.208124	0.423849
Zn4	Zn	0.711816	-0.295507	0.601731
O5	O	0.755540	-0.251817	0.512804
O6	O	0.872441	-0.219699	0.578236
O7	O	0.787600	-0.283968	0.274868
O8	O	0.723497	-0.134955	0.447516
O9	O	0.872383	-0.283942	0.447446
O10	O	0.787735	-0.134935	0.578275
O11	O	0.723420	-0.219744	0.274898
O12	O	0.638681	-0.219713	0.447422
O13	O	0.723438	-0.283888	0.750690
O14	O	0.638656	-0.283914	0.578112
O15	O	0.787702	-0.219668	0.750760
O16	O	0.787567	-0.368700	0.447352
O17	O	0.723361	-0.368677	0.578072
C18	C	0.619697	-0.251813	0.512762
C19	C	0.561583	-0.251824	0.512769
C20	C	0.201245	-0.218418	0.581020
C21	C	0.146641	-0.218417	0.581026
O22	O	0.118425	-0.190004	0.639003
N23	N	0.119301	-0.251815	0.512833
C24	C	0.146568	-0.285212	0.444621
O25	O	0.118300	-0.313619	0.386618
C26	C	0.201172	-0.285210	0.444610
C27	C	0.228509	-0.251813	0.512815
C28	C	0.228582	-0.185024	0.649219
C29	C	0.283183	-0.185025	0.649213
C30	C	0.310446	-0.218420	0.581009
C31	C	0.283109	-0.251814	0.512810
C32	C	0.228438	-0.318603	0.376394
C33	C	0.283045	-0.318598	0.376388
C34	C	0.310382	-0.285201	0.444593
C35	C	0.364973	-0.285211	0.444600
N36	N	0.392313	-0.251813	0.512793
C37	C	0.365049	-0.218418	0.580998
C38	C	0.031898	-0.285214	0.444649
C39	C	-0.022705	-0.285220	0.444664
C40	C	-0.022629	-0.218424	0.581068
C41	C	0.031975	-0.218422	0.581057
C42	C	0.059237	-0.251816	0.512842
C43	C	0.479714	-0.218423	0.580982
C44	C	0.534320	-0.218429	0.580973
C45	C	0.534239	-0.285222	0.444566
C46	C	0.479638	-0.285219	0.444578
C47	C	0.452377	-0.251815	0.512789
O48	O	0.393224	-0.313608	0.386650
O49	O	0.393325	-0.190011	0.638982
C50	C	0.755466	-0.387659	0.512720
C51	C	0.755482	-0.445774	0.512720
C52	C	0.789005	-0.806088	0.581013
C53	C	0.789021	-0.860692	0.581035
O54	O	0.817436	-0.888887	0.639014
N55	N	0.755613	-0.888056	0.512907
C56	C	0.722183	-0.860813	0.444760
O57	O	0.693767	-0.889102	0.386814
C58	C	0.722165	-0.806209	0.444745
C59	C	0.755579	-0.778848	0.512870
C60	C	0.822417	-0.778727	0.649134
C61	C	0.822402	-0.724126	0.649110
C62	C	0.788976	-0.696887	0.580967
C63	C	0.755565	-0.724248	0.512846
C64	C	0.688733	-0.778967	0.376604
C65	C	0.688718	-0.724360	0.376595
C66	C	0.722132	-0.696999	0.444720
C67	C	0.722124	-0.642408	0.444679
N68	N	0.755532	-0.615044	0.512808
C69	C	0.788958	-0.642283	0.580951
C70	C	0.722222	-0.975483	0.444799
C71	C	0.722242	-1.030086	0.444808
C72	C	0.789079	-1.029961	0.581085
C73	C	0.789062	-0.975358	0.581069
C74	C	0.755630	-0.948119	0.512927
C75	C	0.788925	-0.527618	0.580897
C76	C	0.788908	-0.473013	0.580864
C77	C	0.722069	-0.473142	0.444592
C78	C	0.722087	-0.527743	0.444620
C79	C	0.755517	-0.554979	0.512781
O80	O	0.693722	-0.614178	0.386733
O81	O	0.817364	-0.613988	0.638897
C82	C	0.891913	-0.251821	0.512847
C83	C	0.950027	-0.251823	0.512865
C84	C	0.755575	-0.251771	0.790425
C85	C	0.755590	-0.251752	0.908730
C86	C	0.755628	-0.115444	0.512911
C87	C	0.755666	-0.057330	0.512956
C88	C	0.755535	-0.251825	0.236263
C89	C	0.755622	-0.251697	0.117958
C90	C	0.720648	-0.286661	0.977945
C91	C	0.768352	-0.299433	1.048734
C92	C	0.707923	-0.238948	1.048741
C93	C	0.803319	-0.264549	0.977961
C94	C	0.742858	-0.204041	0.977962
C95	C	0.790595	-0.216795	1.048718
H96	H	0.556447	-0.312413	0.389038
H97	H	0.667599	-0.228141	1.079833
H98	H	0.843655	-0.275402	0.947000
H99	H	0.206390	-0.157826	0.704759
H100	H	0.054229	-0.191226	0.636594
H101	H	0.556575	-0.191233	0.636518
Br102	Br	0.724858	-0.136849	0.926106
H103	H	0.849609	-0.701852	0.704587
Br104	Br	0.442726	-0.173089	0.673554
Br105	Br	0.676708	-0.436164	0.352114
Br106	Br	0.867784	-0.815684	0.741633
Br107	Br	0.786332	-0.366643	1.100548
H108	H	0.816120	-0.450737	0.636339
H109	H	0.305239	-0.345791	0.320836
Br110	Br	0.839922	-0.167551	1.100193
Br111	Br	0.671435	-0.335939	0.926149
Br112	Br	-0.059640	-0.173100	0.673630
H113	H	0.054091	-0.312413	0.389102
H114	H	0.305435	-0.157829	0.704751
H115	H	-0.044958	-0.312421	0.389137
Br116	Br	0.834411	-0.938231	0.673528
Br117	Br	0.191352	-0.363920	0.283802
H118	H	0.816143	-0.549788	0.636407
Br119	Br	0.442537	-0.330560	0.352049
Br120	Br	0.676747	-0.564877	0.352147
H121	H	0.816296	-1.052150	0.636573
H122	H	0.695038	-1.052358	0.389323
H123	H	0.661524	-0.801235	0.321129
Br124	Br	0.643343	-0.687397	0.284113
Br125	Br	0.676849	-0.938522	0.352306
