data_functionalizedCrystal
_audit_creation_method	'MofGen! by Chris Wilmer'
_symmetry_space_group_name_H-M	'P1'
_symmetry_Int_Tables_number	1
_symmetry_cell_setting	triclinic
loop_
_symmetry_equiv_pos_as_xyz
  x,y,z
_cell_length_a	13.897449
_cell_length_b	25.639239
_cell_length_c	13.897441
_cell_angle_alpha	90.034859
_cell_angle_beta	90.023394
_cell_angle_gamma	90.040111
loop_
_atom_site_label
_atom_site_type_symbol
_atom_site_fract_x
_atom_site_fract_y
_atom_site_fract_z
Zn1	Zn	1.474558	-0.208123	0.545421
Zn2	Zn	1.474391	-0.295565	0.384110
Zn3	Zn	1.313247	-0.208147	0.384132
Zn4	Zn	1.313168	-0.295530	0.545356
O5	O	1.393841	-0.251841	0.464755
O6	O	1.609517	-0.219727	0.524041
O7	O	1.452978	-0.283994	0.249132
O8	O	1.334748	-0.134978	0.405564
O9	O	1.609395	-0.283970	0.405527
O10	O	1.453263	-0.134961	0.524062
O11	O	1.334586	-0.219768	0.249147
O12	O	1.178255	-0.219734	0.405500
O13	O	1.334613	-0.283910	0.680346
O14	O	1.178197	-0.283934	0.523950
O15	O	1.453186	-0.219693	0.680394
O16	O	1.452902	-0.368726	0.405464
O17	O	1.334452	-0.368700	0.523930
C18	C	1.143227	-0.251833	0.464721
C19	C	1.036013	-0.251842	0.464730
C20	C	0.948943	-0.251844	0.464746
C21	C	0.839711	-0.251848	0.464775
C22	C	1.393676	-0.387684	0.464708
C23	C	1.393694	-0.445798	0.464720
C24	C	1.332152	-0.696990	0.526420
C25	C	1.332117	-0.642386	0.526409
O26	O	1.279634	-0.614148	0.578837
N27	N	1.393815	-0.615072	0.464771
C28	C	1.455560	-0.642364	0.403147
O29	O	1.508037	-0.614118	0.350718
C30	C	1.455600	-0.696968	0.403163
C31	C	1.393891	-0.724279	0.464799
C32	C	1.270449	-0.724302	0.588052
C33	C	1.270483	-0.778902	0.588061
C34	C	1.332222	-0.806191	0.526440
C35	C	1.393926	-0.778880	0.464809
C36	C	1.517350	-0.724260	0.341545
C37	C	1.517385	-0.778867	0.341567
C38	C	1.455675	-0.806178	0.403203
C39	C	1.455699	-0.860769	0.403197
N40	N	1.394000	-0.888084	0.464835
C41	C	1.332262	-0.860795	0.526457
C42	C	1.455473	-0.527694	0.403117
C43	C	1.455429	-0.473092	0.403095
C44	C	1.331986	-0.473117	0.526359
C45	C	1.332026	-0.527720	0.526376
C46	C	1.393775	-0.555008	0.464756
C47	C	1.332339	-0.975460	0.526472
C48	C	1.332376	-1.030065	0.526473
C49	C	1.455822	-1.030035	0.403213
C50	C	1.455781	-0.975434	0.403208
C51	C	1.394037	-0.948148	0.464845
O52	O	1.508158	-0.889041	0.350799
O53	O	1.279803	-0.889048	0.578885
C54	C	1.645434	-0.251850	0.464789
C55	C	1.752648	-0.251853	0.464804
C56	C	1.393909	-0.251795	0.716348
C57	C	1.393939	-0.251775	0.823562
C58	C	1.394033	-0.115468	0.464823
C59	C	1.394115	-0.057354	0.464852
C60	C	1.393828	-0.251849	0.214140
C61	C	1.393986	-0.251722	0.106927
C62	C	1.393965	-0.251740	1.019857
C63	C	1.393947	-0.251761	0.910625
H64	H	1.282123	-1.052300	0.576666
H65	H	1.281717	-0.450888	0.576536
F66	F	1.583110	-0.807905	0.275983
H67	H	1.282062	-0.953249	0.576663
H68	H	1.220232	-0.801134	0.638250
H69	H	1.505668	-0.450858	0.352895
F70	F	1.204734	-0.695267	0.653645
F71	F	1.266348	-0.556782	0.591976
F72	F	1.521528	-1.059088	0.337637
H73	H	1.505754	-0.549908	0.352931
F74	F	1.521441	-0.946367	0.337591
H75	H	1.567600	-0.702030	0.291356
