data_functionalizedCrystal
_audit_creation_method	'MofGen! by Chris Wilmer'
_symmetry_space_group_name_H-M	'P1'
_symmetry_Int_Tables_number	1
_symmetry_cell_setting	triclinic
loop_
_symmetry_equiv_pos_as_xyz
  x,y,z
_cell_length_a	16.625548
_cell_length_b	12.759399
_cell_length_c	12.759393
_cell_angle_alpha	90.031461
_cell_angle_beta	89.977740
_cell_angle_gamma	89.983816
loop_
_atom_site_label
_atom_site_type_symbol
_atom_site_fract_x
_atom_site_fract_y
_atom_site_fract_z
Zn1	Zn	1.232735	0.418180	-0.594067
Zn2	Zn	1.732735	0.918180	-0.094067
Zn3	Zn	1.232652	0.593897	-0.418386
Zn4	Zn	1.732652	1.093897	0.081614
Zn5	Zn	1.097893	0.418236	-0.418397
Zn6	Zn	1.597893	0.918236	0.081603
Zn7	Zn	1.097885	0.593821	-0.594018
Zn8	Zn	1.597885	1.093821	-0.094018
O9	O	1.165291	0.506033	-0.506217
O10	O	1.665291	1.006033	-0.006217
O11	O	1.345556	0.441498	-0.570779
O12	O	1.845556	0.941498	-0.070779
O13	O	1.214744	0.570651	-0.271366
O14	O	1.714744	1.070651	0.228634
O15	O	1.115818	0.271207	-0.441725
O16	O	1.615818	0.771207	0.058275
O17	O	1.345495	0.570596	-0.441707
O18	O	1.845495	1.070596	0.058293
O19	O	1.214886	0.271166	-0.570789
O20	O	1.714886	0.771166	-0.070789
O21	O	1.115738	0.441593	-0.271374
O22	O	1.615738	0.941593	0.228626
O23	O	0.985059	0.441519	-0.441677
O24	O	1.485059	0.941519	0.058323
O25	O	1.115804	0.570466	-0.741046
O26	O	1.615804	1.070466	-0.241046
O27	O	0.985053	0.570520	-0.570705
O28	O	1.485053	1.070520	-0.070705
O29	O	1.214878	0.441423	-0.741082
O30	O	1.714878	0.941423	-0.241082
O31	O	1.214736	0.740908	-0.441659
O32	O	1.714736	1.240908	0.058341
O33	O	1.115723	0.740852	-0.570695
O34	O	1.615723	1.240852	-0.070695
C35	C	1.165242	0.779001	-0.506193
C36	C	1.665242	1.279001	-0.006193
C37	C	1.165294	0.895777	-0.506218
C38	C	1.665294	1.395777	-0.006218
C39	C	0.955800	0.506018	-0.506188
C40	C	1.455800	1.006018	-0.006188
C41	C	0.866179	0.506037	-0.506200
C42	C	1.366179	1.006037	-0.006200
C43	C	1.165350	0.505930	-0.780250
C44	C	1.665350	1.005930	-0.280250
C45	C	1.165375	0.505886	-0.897027
C46	C	1.665375	1.005886	-0.397027
C47	C	0.538004	0.506044	-0.506245
C48	C	1.038004	1.006044	-0.006245
C49	C	0.629312	0.506039	-0.506229
C50	C	1.129312	1.006039	-0.006229
C51	C	0.702088	0.506041	-0.506222
C52	C	1.202088	1.006041	-0.006222
C53	C	0.793403	0.506035	-0.506207
C54	C	1.293403	1.006035	-0.006207
C55	C	1.375600	0.506049	-0.506247
C56	C	1.875600	1.006049	-0.006247
C57	C	1.465221	0.506056	-0.506260
C58	C	1.965221	1.006056	-0.006260
C59	C	1.165363	0.232000	-0.506264
C60	C	1.665363	0.732000	-0.006264
C61	C	1.165393	0.115223	-0.506284
C62	C	1.665393	0.615223	-0.006284
C63	C	1.216909	0.950634	-0.439105
C64	C	1.716909	1.450634	0.060895
C65	C	1.216961	1.060358	-0.439141
C66	C	1.716961	1.560358	0.060859
C67	C	1.113776	1.060359	-0.573404
C68	C	1.613776	1.560359	-0.073404
C69	C	1.113729	0.950637	-0.573373
C70	C	1.613729	1.450637	-0.073373
C71	C	1.216983	0.438643	-1.061641
C72	C	1.716983	0.938643	-0.561641
C73	C	1.216968	0.438684	-0.951917
C74	C	1.716968	0.938684	-0.451917
C75	C	1.113800	0.573059	-0.951867
C76	C	1.613800	1.073059	-0.451867
C77	C	1.113820	0.573023	-1.061590
C78	C	1.613820	1.073023	-0.561590
C79	C	1.165279	0.506061	-0.233250
C80	C	1.665279	1.006061	0.266750
C81	C	1.165410	0.505809	-0.116474
C82	C	1.665410	1.005809	0.383526
H83	H	1.258898	0.905969	-0.384425
H84	H	1.758898	1.405969	0.115575
H85	H	1.258991	0.383912	-1.106324
H86	H	1.758991	0.883912	-0.606324
N87	N	1.061015	0.894582	-0.641936
N88	N	1.561015	1.394582	-0.141936
N89	N	1.089341	0.833272	-0.708898
N90	N	1.589341	1.333272	-0.208898
H91	H	1.052117	0.793682	-0.757323
H92	H	1.552117	1.293682	-0.257323
H93	H	1.258992	1.105017	-0.384492
H94	H	1.758992	1.605017	0.115508
N95	N	1.269645	0.370085	-0.895889
N96	N	1.769645	0.870085	-0.395889
N97	N	1.321005	0.407074	-0.834667
N98	N	1.821005	0.907074	-0.334667
H99	H	1.358211	0.358625	-0.795095
H100	H	1.858211	0.858625	-0.295095
H101	H	1.071792	1.105040	-0.628078
H102	H	1.571792	1.605040	-0.128078
N103	N	1.061134	0.641619	-1.117623
N104	N	1.561134	1.141619	-0.617623
N105	N	1.061161	0.641573	-1.215588
N106	N	1.561161	1.141573	-0.715588
H107	H	1.023955	0.690018	-1.255165
H108	H	1.523955	1.190018	-0.755165
H109	H	1.071795	0.627781	-0.907168
H110	H	1.571795	1.127781	-0.407168
