data_functionalizedCrystal
_audit_creation_method	'MofGen! by Chris Wilmer'
_symmetry_space_group_name_H-M	'P1'
_symmetry_Int_Tables_number	1
_symmetry_cell_setting	triclinic
loop_
_symmetry_equiv_pos_as_xyz
  x,y,z
_cell_length_a	18.426585
_cell_length_b	12.970454
_cell_length_c	12.970454
_cell_angle_alpha	59.999702
_cell_angle_beta	89.999510
_cell_angle_gamma	60.001630
loop_
_atom_site_label
_atom_site_type_symbol
_atom_site_fract_x
_atom_site_fract_y
_atom_site_fract_z
Zr1	Zr	0.699118	1.128554	-0.135322
O2	O	0.583243	1.343637	-0.299941
O3	O	0.734639	0.913467	-0.084857
O4	O	0.734640	1.128557	-0.299947
O5	O	0.583241	1.128546	0.084816
O6	O	0.854066	1.128564	-0.299952
O7	O	0.583241	1.128547	-0.084851
O8	O	0.854063	0.743807	0.084805
O9	O	0.583244	1.513303	-0.299941
O10	O	0.838915	1.001943	-0.063338
O11	O	0.749789	1.001936	0.063287
O12	O	0.749791	1.255177	-0.189954
O13	O	0.660664	1.255171	-0.063330
Zr14	Zr	0.889588	1.128564	0.135272
Zr15	Zr	0.889588	1.128566	-0.135328
Zr16	Zr	0.699117	1.128553	0.135278
Zr17	Zr	0.699119	1.399152	-0.135321
Zr18	Zr	0.889586	0.857967	0.135271
O19	O	0.854067	1.343651	0.084807
O20	O	0.854067	1.343654	-0.299951
O21	O	0.583242	1.343635	0.084817
O22	O	1.005463	0.913481	0.299891
O23	O	1.005463	0.913483	-0.084867
O24	O	0.734638	0.913465	0.299901
O25	O	1.005464	1.128572	-0.084866
O26	O	0.854065	1.128561	0.299897
O27	O	0.734639	1.128554	0.299902
O28	O	1.005464	1.128572	0.084801
O29	O	0.734642	1.513312	-0.299946
O30	O	0.854063	0.743806	0.299896
O31	O	1.005462	0.743815	0.299891
O32	O	1.005462	0.743817	0.084800
O33	O	0.583244	1.513302	-0.084850
O34	O	0.734642	1.513311	-0.084855
O35	O	0.838915	1.001941	0.189904
O36	O	0.928041	1.001947	0.063280
O37	O	0.838917	1.255182	-0.063337
O38	O	0.749790	1.255176	0.063287
C39	C	0.556103	1.128545	-0.000016
C40	C	0.475243	1.128540	-0.000014
C41	C	0.794352	1.128558	0.338454
C42	C	0.794352	1.128557	0.453331
C43	C	0.794355	1.467036	-0.000024
C44	C	0.794355	1.581911	-0.000024
C45	C	0.179129	1.128584	-0.000036
C46	C	0.261515	1.128578	-0.000033
C47	C	0.327183	1.128562	-0.000026
C48	C	0.409575	1.128556	-0.000021
C49	C	1.032602	1.128574	-0.000034
C50	C	1.113462	1.128578	-0.000037
C51	C	0.794351	0.790083	-0.000026
C52	C	0.794350	0.675207	-0.000027
C53	C	0.794353	1.128561	-0.338504
C54	C	0.794353	1.128562	-0.453381
C55	C	1.032600	0.790097	-0.000035
C56	C	1.113459	0.675226	-0.000038
C57	C	0.794350	0.790081	0.338453
C58	C	0.794349	0.675205	0.453330
C59	C	1.032600	0.790095	0.338445
C60	C	1.113459	0.675224	0.453318
C61	C	0.556106	1.467023	-0.338495
C62	C	0.475247	1.581895	-0.453368
C63	C	0.556105	1.467021	-0.000015
C64	C	0.475246	1.581892	-0.000012
C65	C	0.794355	1.467038	-0.338503
C66	C	0.794356	1.581914	-0.453380
C67	C	1.104909	0.621279	-0.066144
C68	C	1.180877	0.513361	-0.066172
C69	C	1.265395	0.459384	-0.000087
C70	C	1.273944	0.513342	0.066021
C71	C	1.197977	0.621266	0.066042
C72	C	1.197962	0.621282	0.441167
C73	C	1.273945	0.513363	0.549093
C74	C	1.265422	0.459381	0.669168
C75	C	1.180910	0.513333	0.681316
C76	C	1.104929	0.621257	0.573392
C77	C	0.390744	1.635850	-0.441217
C78	C	0.314761	1.743802	-0.549143
C79	C	0.323283	1.797790	-0.669218
C80	C	0.407795	1.743831	-0.681366
C81	C	0.483776	1.635888	-0.573442
C82	C	0.483797	1.635851	0.066083
C83	C	0.407828	1.743799	0.066081
C84	C	0.323310	1.797780	-0.000008
C85	C	0.314761	1.743817	-0.066111
C86	C	0.390729	1.635878	-0.066116
H87	H	1.173899	0.469441	-0.120005
O88	O	1.172481	0.461095	0.797866
C89	C	1.072206	0.472360	0.917657
C90	C	1.081622	0.531677	0.785587
H91	H	0.998751	0.529377	0.907773
H92	H	1.105399	0.493643	0.971502
H93	H	1.105509	0.350052	0.971476
H94	H	1.048314	0.653992	0.731662
H95	H	1.048453	0.510281	0.731837
O96	O	0.232724	1.796133	-0.130404
C97	C	0.148409	1.784688	-0.261420
C98	C	0.241370	1.725347	-0.188701
H99	H	0.155367	1.727462	-0.308550
H100	H	0.110494	1.906972	-0.336550
H101	H	0.110539	1.763494	-0.192911
H102	H	0.279313	1.746436	-0.257113
H103	H	0.279217	1.603081	-0.113554
H104	H	1.036126	0.665163	0.583303
H105	H	0.261460	1.885670	0.000006
O106	O	1.339214	0.354718	-0.000245
C107	C	1.473793	0.288599	-0.052758
C108	C	1.390226	0.407279	-0.052684
H109	H	1.515069	0.331041	-0.095127
H110	H	1.453208	0.259323	-0.111408
H111	H	1.515002	0.187521	0.048304
H112	H	1.348980	0.508433	-0.153699
H113	H	1.410873	0.436432	0.006037
H114	H	1.327298	0.371501	0.757036
H115	H	0.383754	1.591948	-0.119935
O116	O	0.232654	1.796424	-0.537390
C117	C	0.092862	2.007091	-0.582521
C118	C	0.185823	1.947690	-0.595901
H119	H	0.054965	2.129402	-0.629841
H120	H	0.099778	1.950055	-0.478177
H121	H	0.054998	1.985795	-0.629718
H122	H	0.223738	1.968973	-0.548774
H123	H	0.178843	2.004728	-0.700266
O124	O	0.249443	1.902456	-0.774011
C125	C	0.114849	1.968516	-0.892542
C126	C	0.198449	1.849851	-0.773835
H127	H	0.073587	1.926040	-0.892426
H128	H	0.135394	1.997836	-0.980504
H129	H	0.073642	2.069577	-0.892532
H130	H	0.239693	1.748715	-0.773722
H131	H	0.177842	1.820655	-0.685927
O132	O	0.415908	1.796389	-0.798105
C133	C	0.340062	1.962746	-1.022962
C134	C	0.330751	1.903335	-0.890830
H135	H	0.271223	2.049243	-1.097966
H136	H	0.377882	1.869832	-1.034436
H137	H	0.377987	2.013215	-1.034298
H138	H	0.292808	1.852882	-0.879404
H139	H	0.292966	1.996301	-0.879417
H140	H	0.552580	1.591959	-0.583350
H141	H	1.342769	0.469378	0.119826
O142	O	0.565825	1.583630	0.130309
C143	C	0.650093	1.594982	0.261480
C144	C	0.557147	1.654261	0.188772
H145	H	0.643108	1.652039	0.308789
H146	H	0.688008	1.616249	0.193059
H147	H	0.687977	1.472679	0.336497
H148	H	0.519189	1.776571	0.113755
H149	H	0.519299	1.632881	0.257272
O150	O	1.206412	0.673490	0.324629
C151	C	1.306730	0.661804	0.204908
C152	C	1.297279	0.602648	0.336956
H153	H	1.380192	0.604533	0.214829
H154	H	1.273548	0.784098	0.150921
H155	H	1.273438	0.640508	0.151207
H156	H	1.330577	0.623840	0.390761
H157	H	1.330438	0.480372	0.390847
O158	O	1.022794	0.673569	-0.130148
C159	C	0.882991	0.706671	-0.118060
C160	C	0.975962	0.647359	-0.045405
H161	H	0.845094	0.685529	-0.049581
H162	H	0.889889	0.649548	-0.165275
H163	H	0.845137	0.828952	-0.193141
H164	H	1.013866	0.525088	0.029735
H165	H	0.969000	0.704591	0.001721
O166	O	1.356099	0.460865	0.537500
C167	C	1.514387	0.294604	0.645137
C168	C	1.421406	0.353936	0.658450
H169	H	1.567212	0.208120	0.742909
H170	H	1.522425	0.387559	0.591367
H171	H	1.522353	0.244137	0.591261
H172	H	1.413375	0.404385	0.712352
H173	H	1.413410	0.260928	0.712169
H174	H	1.204951	0.665175	0.119880
H175	H	0.383787	1.591898	-0.343456
H176	H	0.414807	1.787717	0.119915
