data_functionalizedCrystal
_audit_creation_method	'MofGen! by Chris Wilmer'
_symmetry_space_group_name_H-M	'P1'
_symmetry_Int_Tables_number	1
_symmetry_cell_setting	triclinic
loop_
_symmetry_equiv_pos_as_xyz
  x,y,z
_cell_length_a	6.817900
_cell_length_b	16.417825
_cell_length_c	11.102182
_cell_angle_alpha	93.889239
_cell_angle_beta	108.603774
_cell_angle_gamma	103.385495
loop_
_atom_site_label
_atom_site_type_symbol
_atom_site_fract_x
_atom_site_fract_y
_atom_site_fract_z
V1	V	-4.084988	-0.115894	-0.396703
O2	O	-4.071819	0.005560	-0.388693
O3	O	-4.035698	-0.229790	-0.394431
O4	O	-4.062169	-0.114115	-0.569518
O5	O	-4.045164	-0.110915	-0.212394
V6	V	-4.565417	-0.101366	-0.374605
O7	O	-4.353035	-0.147762	-0.445178
O8	O	-4.747568	-0.069498	-0.326130
O9	O	-4.391501	0.012529	-0.376877
O10	O	-4.695983	-0.222821	-0.382615
O11	O	-4.722638	-0.106345	-0.558914
O12	O	-4.365030	-0.103145	-0.201790
C13	C	-3.879654	-0.257555	-0.388286
C14	C	-3.920811	-0.350666	-0.387580
C15	C	-3.958124	-0.552928	-0.269550
C16	C	-3.996819	-0.640417	-0.268896
C17	C	-4.111663	-0.664333	-0.501772
C18	C	-4.072983	-0.576845	-0.502425
C19	C	-3.996202	-0.521144	-0.386309
C20	C	-4.073578	-0.696121	-0.385003
C21	C	-4.115533	-0.790981	-0.384296
C22	C	-3.954248	-0.426278	-0.387017
C23	C	-3.913420	-0.110000	-0.611626
C24	C	-3.976041	-0.109299	-0.752906
C25	C	-4.048075	-0.185668	-0.837735
C26	C	-4.106932	-0.184999	-0.970481
C27	C	-4.021702	-0.031585	-0.933555
C28	C	-3.962861	-0.032255	-0.800812
C29	C	-4.061254	-0.262712	-0.789829
C30	C	-4.133290	-0.339088	-0.874659
C31	C	-4.192147	-0.338419	-1.007405
C32	C	-4.178968	-0.261374	-1.055320
C33	C	-4.210886	0.040290	-0.383018
C34	C	-4.148969	0.133401	-0.383732
C35	C	-4.177120	-0.107263	-0.159675
C36	C	-4.093738	-0.107960	-0.018394
H37	H	-4.104005	-0.550968	-0.597511
H38	H	-4.174178	-0.709694	-0.596309
H39	H	-3.895605	-0.507578	-0.175001
H40	H	-4.013328	-0.263265	-0.681742
H41	H	-3.965811	-0.666290	-0.173819
H42	H	-4.010976	0.031141	-0.972578
H43	H	-4.144031	-0.401814	-0.835638
H44	H	-4.250818	-0.400608	-1.076472
H45	H	-4.226885	-0.260836	-1.163412
H46	H	-3.904206	0.029932	-0.731741
