data_functionalizedCrystal
_audit_creation_method	'MofGen! by Chris Wilmer'
_symmetry_space_group_name_H-M	'P1'
_symmetry_Int_Tables_number	1
_symmetry_cell_setting	triclinic
loop_
_symmetry_equiv_pos_as_xyz
  x,y,z
_cell_length_a	15.625110
_cell_length_b	14.971486
_cell_length_c	14.048226
_cell_angle_alpha	90.007287
_cell_angle_beta	108.082246
_cell_angle_gamma	96.057235
loop_
_atom_site_label
_atom_site_type_symbol
_atom_site_fract_x
_atom_site_fract_y
_atom_site_fract_z
O1	O	1.196351	-0.116780	0.333875
O2	O	1.696351	0.383220	0.833875
O3	O	0.933886	-0.130692	0.243258
O4	O	1.433886	0.369308	0.743258
O5	O	1.072154	0.006463	0.291002
O6	O	1.572154	0.506463	0.791002
O7	O	1.058084	-0.253935	0.286131
O8	O	1.558084	0.246065	0.786131
O9	O	1.072151	0.006474	0.449322
O10	O	1.572151	0.506474	0.949322
O11	O	0.933883	-0.130681	0.401578
O12	O	1.433883	0.369319	0.901578
O13	O	1.196348	-0.116769	0.492195
O14	O	1.696348	0.383231	0.992195
Zn15	Zn	1.065115	-0.123723	0.472023
Zn16	Zn	1.565115	0.376277	0.972023
Zn17	Zn	1.065119	-0.123738	0.263429
Zn18	Zn	1.565119	0.376262	0.763429
O19	O	1.058081	-0.253924	0.444451
O20	O	1.558081	0.246076	0.944451
C21	C	0.900296	-0.130056	0.310821
C22	C	1.400296	0.369944	0.810821
C23	C	0.800212	-0.128168	0.276267
C24	C	1.300212	0.371832	0.776267
C25	C	1.071523	0.039793	0.369944
C26	C	1.571523	0.539793	0.869944
C27	C	1.069637	0.139090	0.369293
C28	C	1.569637	0.639090	0.869293
C29	C	0.659147	-0.125513	0.141270
C30	C	1.159147	0.374487	0.641270
C31	C	0.753192	-0.127287	0.173749
C32	C	1.253192	0.372713	0.673749
C33	C	0.753197	-0.127279	0.346346
C34	C	1.253197	0.372721	0.846346
C35	C	0.659150	-0.125509	0.313881
C36	C	1.159150	0.374491	0.813881
C37	C	0.612133	-0.124625	0.211342
C38	C	1.112133	0.375375	0.711342
C39	C	0.612135	-0.124621	0.383953
C40	C	1.112135	0.375379	0.883953
C41	C	0.518097	-0.122847	0.351491
C42	C	1.018097	0.377153	0.851491
C43	C	0.471073	-0.121960	0.248956
C44	C	0.971073	0.378040	0.748956
C45	C	0.518094	-0.122851	0.178880
C46	C	1.018094	0.377149	0.678880
C47	C	0.659155	-0.125499	0.486493
C48	C	1.159155	0.374501	0.986493
C49	C	0.612140	-0.124611	0.556565
C50	C	1.112140	0.375389	1.056565
C51	C	0.518099	-0.122843	0.524102
C52	C	1.018099	0.377157	1.024102
C53	C	0.471076	-0.121956	0.421568
C54	C	0.971076	0.378044	0.921568
C55	C	0.471079	-0.121952	0.594179
C56	C	0.971079	0.378048	1.094179
C57	C	0.377040	-0.120177	0.561717
C58	C	0.877040	0.379823	1.061717
C59	C	0.377038	-0.120181	0.389105
C60	C	0.877038	0.379819	0.889105
C61	C	1.229939	-0.117405	0.424629
C62	C	1.729939	0.382595	0.924629
C63	C	1.330023	-0.119294	0.459177
C64	C	1.830023	0.380706	0.959177
N65	N	1.065122	-0.123742	0.121070
N66	N	1.565122	0.376258	0.621070
C67	C	1.058712	-0.287254	0.365506
C68	C	1.558712	0.212746	0.865506
C69	C	1.060597	-0.386552	0.366152
C70	C	1.560597	0.113448	0.866152
C71	C	1.150866	0.196301	0.397338
C72	C	1.650866	0.696301	0.897338
C73	C	1.149088	0.289601	0.396714
C74	C	1.649088	0.789601	0.896714
C75	C	1.066082	0.325688	0.368053
C76	C	1.566082	0.825688	0.868053
C77	C	0.984848	0.268470	0.340003
C78	C	1.484848	0.768470	0.840003
C79	C	0.986626	0.175172	0.340619
C80	C	1.486626	0.675172	0.840619
C81	C	0.981148	0.462933	0.338722
C82	C	1.481148	0.962933	0.838722
C83	C	0.979369	0.556238	0.338107
C84	C	1.479369	1.056238	0.838107
C85	C	1.143610	0.577362	0.394817
C86	C	1.643610	1.077362	0.894817
C87	C	1.145388	0.484064	0.395433
C88	C	1.645388	0.984064	0.895433
C89	C	1.064153	0.426852	0.367385
C90	C	1.564153	0.926852	0.867385
C91	C	1.126461	-0.063129	0.092432
C92	C	1.626461	0.436871	0.592432
C93	C	1.126465	-0.063126	-0.007224
C94	C	1.626465	0.436874	0.492776
C95	C	1.065125	-0.123732	-0.078243
C96	C	1.565125	0.376268	0.421757
C97	C	1.003783	-0.184351	-0.049599
C98	C	1.503783	0.315649	0.450401
C99	C	1.003784	-0.184358	0.050057
C100	C	1.503784	0.315642	0.550057
C101	C	1.003783	-0.184332	-0.257313
C102	C	1.503783	0.315668	0.242687
C103	C	1.003780	-0.184325	-0.356977
C104	C	1.503780	0.315675	0.143023
C105	C	1.126464	-0.063101	-0.314595
C106	C	1.626464	0.436899	0.185405
C107	C	1.126465	-0.063107	-0.214938
C108	C	1.626465	0.436893	0.285062
C109	C	1.065122	-0.123725	-0.186302
C110	C	1.565122	0.376275	0.313698
N111	N	1.065119	-0.123712	0.614385
N112	N	1.565119	0.376288	1.114385
H113	H	0.338752	-0.119473	0.305607
H114	H	0.838752	0.380527	0.805607
Cl115	Cl	1.203573	0.013088	-0.125657
Cl116	Cl	1.703573	0.513088	0.374343
H117	H	0.791467	-0.128016	0.116679
H118	H	1.291467	0.371984	0.616679
H119	H	0.394501	-0.120516	0.222527
H120	H	0.894501	0.379484	0.722527
Cl121	Cl	0.926666	-0.260542	-0.221318
Cl122	Cl	1.426666	0.239458	0.278682
Cl123	Cl	0.530198	-0.123054	0.723081
Cl124	Cl	1.030198	0.376946	1.223081
Cl125	Cl	0.600031	-0.124416	0.012360
Cl126	Cl	1.100031	0.375584	0.512360
H127	H	0.791492	-0.127995	0.429834
H128	H	1.291492	0.372005	0.929834
Cl129	Cl	0.458978	-0.121754	0.049970
Cl130	Cl	0.958978	0.378246	0.549970
Cl131	Cl	0.926672	-0.260548	-0.138877
Cl132	Cl	1.426672	0.239452	0.361123
Cl133	Cl	0.777377	-0.127720	0.527303
Cl134	Cl	1.277377	0.372280	1.027303
H135	H	0.650435	-0.125327	0.640053
H136	H	1.150435	0.374673	1.140053
Cl137	Cl	0.317933	-0.119048	0.649809
Cl138	Cl	0.817933	0.380952	1.149809
H139	H	1.215233	0.336179	0.419554
H140	H	1.715233	0.836179	0.919554
H141	H	0.917263	0.297859	0.316660
H142	H	1.417263	0.797859	0.816660
Cl143	Cl	1.249740	0.438699	0.431461
Cl144	Cl	1.749740	0.938699	0.931461
H145	H	1.209755	0.623949	0.417652
H146	H	1.709755	1.123949	0.917652
H147	H	1.218459	0.166927	0.420683
H148	H	1.718459	0.666927	0.920683
H149	H	1.176412	-0.013744	-0.337915
H150	H	1.676412	0.486256	0.162085
H151	H	0.953837	-0.233716	0.073371
H152	H	1.453837	0.266284	0.573371
Cl153	Cl	0.884506	0.103249	0.305358
Cl154	Cl	1.384506	0.603249	0.805358
H155	H	1.176408	-0.013773	0.150250
H156	H	1.676408	0.486227	0.650250
Cl157	Cl	0.875017	0.601603	0.302075
Cl158	Cl	1.375017	1.101603	0.802075
H159	H	0.914997	0.416353	0.315879
H160	H	1.414997	0.916353	0.815879
Cl161	Cl	0.926665	-0.260521	-0.446251
Cl162	Cl	1.426665	0.239479	0.053749
Cl163	Cl	1.203579	0.013072	-0.043227
Cl164	Cl	1.703579	0.513072	0.456773
