data_functionalizedCrystal
_audit_creation_method	'MofGen! by Chris Wilmer'
_symmetry_space_group_name_H-M	'P1'
_symmetry_Int_Tables_number	1
_symmetry_cell_setting	triclinic
loop_
_symmetry_equiv_pos_as_xyz
  x,y,z
_cell_length_a	12.759401
_cell_length_b	18.101395
_cell_length_c	12.759393
_cell_angle_alpha	90.033445
_cell_angle_beta	90.018496
_cell_angle_gamma	90.031265
loop_
_atom_site_label
_atom_site_type_symbol
_atom_site_fract_x
_atom_site_fract_y
_atom_site_fract_z
Zn1	Zn	1.606136	-0.294783	0.593968
Zn2	Zn	1.605980	-0.418644	0.418282
Zn3	Zn	1.430438	-0.294822	0.418307
Zn4	Zn	1.430376	-0.418587	0.593923
O5	O	1.518232	-0.356709	0.506120
O6	O	1.753136	-0.311221	0.570671
O7	O	1.582654	-0.402259	0.271264
O8	O	1.453835	-0.191183	0.441638
O9	O	1.753021	-0.402221	0.441595
O10	O	1.582920	-0.191155	0.570695
O11	O	1.453684	-0.311287	0.271283
O12	O	1.283408	-0.311232	0.441595
O13	O	1.453730	-0.402124	0.740950
O14	O	1.283363	-0.402162	0.570619
O15	O	1.582860	-0.311166	0.740983
O16	O	1.582594	-0.522270	0.441552
O17	O	1.453579	-0.522228	0.570595
C18	C	1.245265	-0.356695	0.506106
C19	C	1.128488	-0.356707	0.506125
C20	C	1.073630	-0.404131	0.573197
C21	C	0.963906	-0.404140	0.573208
C22	C	0.963908	-0.309301	0.439066
C23	C	1.073630	-0.309288	0.439061
C24	C	1.128488	-0.451550	0.640260
C25	C	1.073630	-0.498977	0.707337
C26	C	0.963906	-0.498987	0.707348
C27	C	0.909040	-0.451568	0.640283
C28	C	1.518092	-0.549120	0.506089
C29	C	1.518128	-0.631434	0.506111
C30	C	1.518358	-0.930525	0.506168
C31	C	1.437374	-0.899204	0.587559
C32	C	1.436989	-0.813586	0.587305
C33	C	1.518244	-0.782142	0.506140
C34	C	1.488263	-0.813302	0.395415
C35	C	1.487741	-0.898947	0.395903
C36	C	1.629501	-0.898866	0.534526
C37	C	1.628847	-0.813215	0.536954
C38	C	1.518181	-0.698283	0.506118
C39	C	1.518418	-1.014384	0.506182
C40	C	1.792265	-0.356723	0.506135
C41	C	1.909042	-0.356729	0.506141
C42	C	1.518306	-0.356634	0.780153
C43	C	1.518337	-0.356602	0.896930
C44	C	1.518402	-0.163547	0.506174
C45	C	1.518474	-0.081233	0.506197
C46	C	1.518219	-0.356730	0.233153
C47	C	1.518392	-0.356553	0.116376
C48	C	1.585584	-0.309236	0.951811
C49	C	1.585609	-0.309209	1.061535
C50	C	1.451137	-0.403922	1.061488
C51	C	1.451108	-0.403944	0.951766
C52	C	1.652814	-0.261894	0.896975
C53	C	1.720068	-0.214524	0.951856
C54	C	1.720092	-0.214497	1.061580
C55	C	1.652864	-0.261840	1.116423
H56	H	0.919243	-0.537599	0.761972
H57	H	1.396402	-0.442466	1.106150
H58	H	1.355493	-0.920792	0.569012
C59	C	1.133978	-0.257121	0.365288
H60	H	1.085594	-0.228888	0.325340
H61	H	1.176810	-0.224886	0.405566
H62	H	1.176751	-0.285407	0.319433
C63	C	0.903558	-0.257151	0.365296
H64	H	0.830355	-0.263955	0.374899
H65	H	0.921570	-0.207403	0.380792
H66	H	0.921508	-0.267934	0.294673
C67	C	0.788346	-0.451563	0.640320
H68	H	0.763530	-0.486595	0.689875
H69	H	0.763581	-0.403786	0.658613
H70	H	0.763469	-0.464316	0.572494
H71	H	1.354607	-0.793164	0.568521
C72	C	1.462291	-0.785118	0.698222
H73	H	1.472897	-0.825895	0.743844
H74	H	1.524036	-0.755813	0.696083
H75	H	1.405522	-0.756092	0.723182
H76	H	1.544168	-0.919669	0.333192
C77	C	1.462359	-0.927043	0.698809
H78	H	1.522410	-0.958011	0.696622
H79	H	1.475737	-0.886088	0.743442
H80	H	1.404317	-0.954251	0.724984
C81	C	1.565427	-0.785790	0.311249
H82	H	1.545853	-0.805287	0.244921
H83	H	1.563768	-0.733359	0.308636
H84	H	1.634269	-0.801765	0.328258
C85	C	1.377987	-0.926030	0.363460
H86	H	1.334137	-0.884690	0.350113
H87	H	1.383362	-0.955287	0.301868
H88	H	1.348740	-0.954811	0.418403
C89	C	1.652883	-0.261809	1.237118
H90	H	1.603212	-0.296786	1.261917
H91	H	1.720674	-0.274611	1.261945
H92	H	1.634754	-0.214008	1.261949
C93	C	1.379665	-0.784429	0.362383
H94	H	1.352451	-0.753395	0.415912
H95	H	1.385947	-0.757101	0.299159
H96	H	1.333589	-0.824988	0.351722
H97	H	1.692377	-0.791806	0.481993
H98	H	1.656833	-0.920408	0.613890
C99	C	1.659404	-0.785689	0.647027
H100	H	1.604994	-0.755383	0.674098
H101	H	1.669653	-0.826817	0.692080
H102	H	1.722412	-0.757866	0.642803
C103	C	1.710989	-0.926153	0.454375
H104	H	1.677501	-0.956700	0.403880
H105	H	1.741957	-0.884924	0.420294
H106	H	1.763762	-0.953665	0.489482
H107	H	1.396333	-0.442503	0.907081
H108	H	1.652803	-0.261912	0.807632
C109	C	1.794010	-0.162449	0.891533
H110	H	1.784372	-0.169253	0.818326
H111	H	1.778687	-0.112686	0.909530
H112	H	1.864598	-0.173295	0.909519
C113	C	1.794065	-0.162393	1.121946
H114	H	1.834102	-0.134207	1.073570
H115	H	1.753922	-0.130111	1.164760
H116	H	1.839828	-0.190723	1.164739
H117	H	1.217831	-0.451549	0.640256
H118	H	1.118309	-0.537579	0.761945
