data_functionalizedCrystal
_audit_creation_method	'MofGen! by Chris Wilmer'
_symmetry_space_group_name_H-M	'P1'
_symmetry_Int_Tables_number	1
_symmetry_cell_setting	triclinic
loop_
_symmetry_equiv_pos_as_xyz
  x,y,z
_cell_length_a	6.817900
_cell_length_b	12.200863
_cell_length_c	12.200737
_cell_angle_alpha	93.008149
_cell_angle_beta	107.141108
_cell_angle_gamma	107.143441
loop_
_atom_site_label
_atom_site_type_symbol
_atom_site_fract_x
_atom_site_fract_y
_atom_site_fract_z
V1	V	-4.086857	-0.158980	-0.357778
O2	O	-4.054154	0.007364	-0.350847
O3	O	-4.056305	-0.314966	-0.355447
O4	O	-4.056297	-0.156656	-0.513765
O5	O	-4.054162	-0.152042	-0.191433
V6	V	-4.565860	-0.139069	-0.337868
O7	O	-4.358029	-0.202657	-0.401453
O8	O	-4.744885	-0.095393	-0.294193
O9	O	-4.373205	0.016917	-0.340199
O10	O	-4.715959	-0.305414	-0.344798
O11	O	-4.715951	-0.146007	-0.504213
O12	O	-4.373213	-0.141394	-0.181881
C13	C	-3.905070	-0.352988	-0.349832
C14	C	-3.961497	-0.480510	-0.348966
C15	C	-3.905059	-0.151046	-0.551781
C16	C	-3.961475	-0.150178	-0.679302
C17	C	-4.007289	-0.149471	-0.782863
C18	C	-4.064778	-0.148580	-0.912784
C19	C	-4.064769	-0.713985	-0.347388
C20	C	-4.007293	-0.584063	-0.348266
C21	C	-4.187782	0.054933	-0.345811
C22	C	-4.110595	0.182453	-0.346685
C23	C	-4.187793	-0.147007	-0.143858
C24	C	-4.110615	-0.147870	-0.016337
