data_functionalizedCrystal
_audit_creation_method	'MofGen! by Chris Wilmer'
_symmetry_space_group_name_H-M	'P1'
_symmetry_Int_Tables_number	1
_symmetry_cell_setting	triclinic
loop_
_symmetry_equiv_pos_as_xyz
  x,y,z
_cell_length_a	14.971486
_cell_length_b	14.044220
_cell_length_c	13.448316
_cell_angle_alpha	89.992660
_cell_angle_beta	89.998199
_cell_angle_gamma	88.401503
loop_
_atom_site_label
_atom_site_type_symbol
_atom_site_fract_x
_atom_site_fract_y
_atom_site_fract_z
O1	O	1.196679	0.123538	-0.082579
O2	O	0.937445	0.138332	-0.082607
O3	O	1.063171	-0.007054	-0.082584
O4	O	1.070953	0.268924	-0.082602
O5	O	1.063153	-0.007063	0.082800
O6	O	0.937427	0.138323	0.082777
O7	O	1.196661	0.123529	0.082804
Cu8	Cu	1.067042	0.130925	0.097892
Cu9	Cu	1.067064	0.130936	-0.097694
O10	O	1.070935	0.268915	0.082781
C11	C	0.904059	0.137666	0.000082
C12	C	0.804606	0.135683	0.000072
C13	C	0.754109	0.221093	0.000067
C14	C	0.660662	0.219225	0.000082
C15	C	0.617714	0.131945	0.000094
C16	C	0.668218	0.046528	0.000102
C17	C	0.761663	0.048398	0.000094
C18	C	0.473449	0.042638	0.000116
C19	C	0.379997	0.040767	0.000122
C20	C	0.372448	0.213465	0.000104
C21	C	0.465893	0.215334	0.000096
C22	C	0.516390	0.129917	0.000102
C23	C	1.059755	-0.042377	0.000108
C24	C	1.049594	-0.147614	0.000108
C25	C	1.031018	-0.340297	0.000092
C26	C	1.103085	-0.397848	0.000097
C27	C	1.092748	-0.505063	0.000088
C28	C	1.041353	-0.233071	0.000101
C29	C	1.230047	0.124195	0.000114
C30	C	1.329501	0.126178	0.000117
C31	C	1.074351	0.304238	0.000087
C32	C	1.084512	0.409475	0.000080
N33	N	1.067034	0.130917	0.235456
N34	N	1.067079	0.130936	-0.235258
C35	C	1.122727	0.066567	0.287506
C36	C	1.122732	0.066566	0.391610
C37	C	1.067049	0.130921	0.443660
C38	C	1.011350	0.195274	0.391603
C39	C	1.011341	0.195270	0.287501
C40	C	1.011376	0.195281	0.608583
C41	C	1.011386	0.195287	0.712691
C42	C	1.122767	0.066577	0.712691
C43	C	1.122757	0.066572	0.608590
C44	C	1.067060	0.130927	0.556539
H45	H	0.345032	-0.030303	0.000133
H46	H	1.168118	0.014177	0.755077
H47	H	1.172546	-0.366598	0.000037
H48	H	0.331329	0.283015	0.000104
H49	H	0.961562	-0.371545	0.000082
C50	C	0.566629	0.317613	0.085065
C51	C	0.513115	0.311266	0.000063
H52	H	0.595788	0.376834	0.085035
H53	H	0.530338	0.313317	0.142736
H54	H	0.610064	0.266997	0.085061
H55	H	0.469676	0.361878	0.000071
H56	H	0.549409	0.315571	-0.057623
H57	H	0.789070	0.292167	0.000056
H58	H	1.168103	0.014175	0.566210
C59	C	1.232814	-0.060663	0.297974
C60	C	1.183934	-0.004178	0.230297
H61	H	1.270596	-0.104344	0.262655
H62	H	1.268141	-0.021145	0.338561
H63	H	1.192852	-0.094821	0.338592
H64	H	1.223897	0.029986	0.189684
H65	H	1.148605	-0.043701	0.189693
C66	C	0.901257	0.322480	0.702241
C67	C	0.950161	0.266008	0.769908
H68	H	0.863452	0.366133	0.737566
H69	H	0.941197	0.356661	0.661633
H70	H	0.865945	0.282943	0.661642
H71	H	0.985479	0.305545	0.810502
H72	H	0.910216	0.231824	0.810533
C73	C	0.471529	-0.128259	0.000113
C74	C	0.528957	-0.051254	0.000111
H75	H	0.505800	-0.186220	0.000098
H76	H	0.434934	-0.125406	0.057788
H77	H	0.434917	-0.125379	-0.057558
H78	H	0.565565	-0.054130	0.057786
H79	H	0.565568	-0.054108	-0.057570
C80	C	1.131887	-0.062423	0.508685
C81	C	1.183958	-0.004170	0.448816
H82	H	1.169689	-0.106098	0.543994
H83	H	1.098735	-0.024102	0.554584
H84	H	1.091933	-0.096586	0.468074
H85	H	1.223907	0.030000	0.489428
H86	H	1.217125	-0.042495	0.402912
H87	H	0.966017	0.247682	0.566206
C88	C	0.891267	0.215633	0.508699
C89	C	0.950143	0.266013	0.448819
H90	H	0.853485	0.259308	0.544025
H91	H	0.855940	0.176125	0.468101
H92	H	0.924449	0.177311	0.554592
H93	H	0.916960	0.304330	0.402921
H94	H	0.985473	0.305538	0.489421
H95	H	0.965989	0.247669	0.245123
H96	H	0.619551	0.288775	0.000077
H97	H	0.802776	-0.021152	0.000097
H98	H	0.633242	-0.024537	0.000126
