data_functionalizedCrystal
_audit_creation_method	'MofGen! by Chris Wilmer'
_symmetry_space_group_name_H-M	'P1'
_symmetry_Int_Tables_number	1
_symmetry_cell_setting	triclinic
loop_
_symmetry_equiv_pos_as_xyz
  x,y,z
_cell_length_a	15.538191
_cell_length_b	17.699083
_cell_length_c	16.776229
_cell_angle_alpha	89.995692
_cell_angle_beta	90.006765
_cell_angle_gamma	114.722446
loop_
_atom_site_label
_atom_site_type_symbol
_atom_site_fract_x
_atom_site_fract_y
_atom_site_fract_z
O1	O	1.250477	0.245976	0.066293
O2	O	0.976018	0.158529	0.066294
O3	O	1.121002	0.314560	0.066286
O4	O	1.105493	0.089944	0.066300
O5	O	1.120985	0.314556	-0.066290
O6	O	0.976001	0.158525	-0.066283
O7	O	1.250461	0.245972	-0.066284
Zn8	Zn	1.113228	0.202248	-0.087333
Zn9	Zn	1.113250	0.202253	0.087343
O10	O	1.105477	0.089940	-0.066276
C11	C	0.940893	0.149378	0.000006
C12	C	0.836257	0.122125	0.000006
N13	N	1.113221	0.202246	-0.206544
C14	C	1.120438	0.342603	-0.000002
C15	C	1.118771	0.426166	-0.000002
C16	C	0.549086	0.392872	0.000001
C17	C	0.450762	0.367245	0.000004
C18	C	0.427989	0.223099	0.000012
C19	C	0.526313	0.248714	0.000006
C20	C	0.586855	0.333602	0.000002
C21	C	0.564082	0.189444	0.000007
C22	C	0.662398	0.215057	0.000005
C23	C	0.722945	0.299940	0.000003
C24	C	0.685171	0.359215	-0.000000
C25	C	0.503539	0.104556	0.000017
C26	C	0.541308	0.045286	0.000017
C27	C	0.639625	0.070899	0.000010
C28	C	0.700173	0.155782	0.000007
C29	C	0.677400	0.011624	0.000012
C30	C	0.775716	0.037238	0.000011
C31	C	0.798489	0.181396	0.000006
C32	C	1.285585	0.255123	0.000006
C33	C	1.390221	0.282375	0.000011
C34	C	1.106041	0.061897	0.000014
C35	C	1.107708	-0.021665	0.000020
C36	C	1.203873	0.498041	-0.000004
C37	C	1.202301	0.576554	0.000003
C38	C	1.115626	0.583192	0.000006
C39	C	1.030517	0.511309	0.000010
C40	C	1.032090	0.432797	0.000008
C41	C	1.024171	0.827938	0.000016
C42	C	1.022605	0.906458	0.000015
C43	C	1.194382	0.971696	0.000011
C44	C	1.195955	0.893184	0.000010
C45	C	1.110847	0.821308	0.000018
C46	C	1.112552	0.736175	0.000012
C47	C	1.113919	0.668323	0.000006
C48	C	1.170278	0.171988	-0.248255
C49	C	1.170289	0.171994	-0.331707
C50	C	1.113236	0.202253	-0.373447
C51	C	1.056176	0.232515	-0.331730
C52	C	1.056171	0.232514	-0.248279
C53	C	1.056195	0.232519	-0.668277
C54	C	1.056202	0.232515	-0.751734
C55	C	1.170313	0.171999	-0.751705
C56	C	1.170308	0.171998	-0.668254
C57	C	1.113252	0.202265	-0.626545
C58	C	1.113243	0.202259	-0.536056
C59	C	1.113239	0.202253	-0.463934
N60	N	1.113265	0.202263	0.206554
H61	H	0.803000	0.320793	0.000012
C62	C	0.927260	0.913761	0.000025
H63	H	0.938516	0.970815	0.000016
H64	H	0.892236	0.887494	0.046260
H65	H	0.892216	0.887491	-0.046210
C66	C	0.865094	0.274770	-0.000008
H67	H	0.929055	0.281532	-0.000014
H68	H	0.853672	0.300198	0.046220
H69	H	0.853654	0.300181	-0.046251
H70	H	0.734468	0.428339	-0.000009
H71	H	0.598383	0.461996	-0.000007
C72	C	1.233043	0.138708	-0.202348
H73	H	1.267033	0.120698	-0.239145
H74	H	1.194341	0.093260	-0.169793
H75	H	1.276495	0.181650	-0.169795
C76	C	0.993403	0.265791	-0.202394
H77	H	1.001577	0.261464	-0.146716
H78	H	0.928881	0.234034	-0.216077
H79	H	1.011045	0.322419	-0.216072
H80	H	0.492002	-0.023830	0.000024
H81	H	0.420016	0.415517	0.000005
H82	H	1.271600	0.635075	0.000000
H83	H	0.628093	-0.057491	0.000024
C84	C	1.233049	0.138706	-0.377585
H85	H	1.267017	0.120676	-0.340775
H86	H	1.276506	0.181637	-0.410136
H87	H	1.194336	0.093255	-0.410141
C88	C	1.233070	0.138718	-0.622344
H89	H	1.267061	0.120705	-0.659138
H90	H	1.194365	0.093270	-0.589789
H91	H	1.276522	0.181660	-0.589791
C92	C	0.361390	0.129729	0.000013
H93	H	0.297426	0.122962	0.000008
H94	H	0.372830	0.104306	0.046242
H95	H	0.372818	0.104318	-0.046229
C96	C	0.993426	0.265801	-0.622407
H97	H	0.959441	0.283811	-0.659220
H98	H	1.032126	0.311250	-0.589851
H99	H	0.949968	0.222861	-0.589858
H100	H	0.954870	0.769424	0.000023
H101	H	1.009740	0.257158	-0.785716
C102	C	1.233083	0.138716	-0.797587
H103	H	1.224926	0.143056	-0.853265
H104	H	1.215446	0.082093	-0.783908
H105	H	1.297609	0.170478	-0.783900
H106	H	0.959944	0.516719	0.000017
H107	H	0.962790	0.374274	0.000010
H108	H	1.009727	0.257157	-0.365721
H109	H	0.806467	-0.011026	0.000004
C110	C	1.299217	0.490747	-0.000007
H111	H	1.349675	0.544800	0.000001
H112	H	1.303399	0.461478	-0.046239
H113	H	1.303406	0.461475	0.046231
H114	H	0.423484	0.083705	0.000021
H115	H	1.266535	0.887787	0.000003
H116	H	1.263682	1.030228	0.000008
