data_functionalizedCrystal
_audit_creation_method	'MofGen! by Chris Wilmer'
_symmetry_space_group_name_H-M	'P1'
_symmetry_Int_Tables_number	1
_symmetry_cell_setting	triclinic
loop_
_symmetry_equiv_pos_as_xyz
  x,y,z
_cell_length_a	25.639242
_cell_length_b	25.639239
_cell_length_c	11.169409
_cell_angle_alpha	89.960777
_cell_angle_beta	89.967320
_cell_angle_gamma	90.034213
loop_
_atom_site_label
_atom_site_type_symbol
_atom_site_fract_x
_atom_site_fract_y
_atom_site_fract_z
Zn1	Zn	0.799279	-0.208171	-0.678873
Zn2	Zn	0.799187	-0.295621	-0.478165
Zn3	Zn	0.711840	-0.208195	-0.478165
Zn4	Zn	0.711801	-0.295570	-0.678768
O5	O	0.755527	-0.251889	-0.578492
O6	O	0.872432	-0.219783	-0.652293
O7	O	0.787578	-0.284055	-0.310215
O8	O	0.723494	-0.135026	-0.504833
O9	O	0.872364	-0.284032	-0.504834
O10	O	0.787735	-0.135009	-0.652292
O11	O	0.723404	-0.219823	-0.310215
O12	O	0.638669	-0.219774	-0.504731
O13	O	0.723428	-0.283946	-0.846731
O14	O	0.638641	-0.283969	-0.652113
O15	O	0.787698	-0.219734	-0.846809
O16	O	0.787540	-0.368780	-0.504732
O17	O	0.723338	-0.368742	-0.652114
C18	C	0.619684	-0.251869	-0.578411
C19	C	0.561570	-0.251873	-0.578405
C20	C	0.201201	-0.285371	-0.655162
C21	C	0.146597	-0.285375	-0.655181
O22	O	0.118355	-0.313831	-0.720373
N23	N	0.119288	-0.251904	-0.578571
C24	C	0.146586	-0.218424	-0.501946
O25	O	0.118343	-0.189954	-0.436786
C26	C	0.201189	-0.218418	-0.501934
C27	C	0.228495	-0.251895	-0.578540
C28	C	0.228507	-0.318845	-0.731763
C29	C	0.283108	-0.318842	-0.731742
C30	C	0.310402	-0.285366	-0.655120
C31	C	0.283096	-0.251892	-0.578519
C32	C	0.228486	-0.184936	-0.425316
C33	C	0.283093	-0.184933	-0.425311
C34	C	0.310399	-0.218410	-0.501917
C35	C	0.364990	-0.218414	-0.501876
N36	N	0.392300	-0.251884	-0.578486
C37	C	0.365005	-0.285361	-0.655108
C38	C	0.031915	-0.218437	-0.501978
C39	C	-0.022687	-0.218445	-0.501983
C40	C	-0.022672	-0.285395	-0.655220
C41	C	0.031931	-0.285390	-0.655208
C42	C	0.059224	-0.251908	-0.578588
C43	C	0.479670	-0.285353	-0.655058
C44	C	0.534276	-0.285349	-0.655027
C45	C	0.534256	-0.218397	-0.501795
C46	C	0.479656	-0.218403	-0.501821
C47	C	0.452364	-0.251882	-0.578462
O48	O	0.393267	-0.189970	-0.436721
O49	O	0.393255	-0.313821	-0.720268
C50	C	0.755439	-0.387732	-0.578438
C51	C	0.755449	-0.445846	-0.578454
C52	C	0.789044	-0.806216	-0.501882
C53	C	0.789064	-0.860820	-0.501898
O54	O	0.817537	-0.889063	-0.436733
N55	N	0.755619	-0.888128	-0.578572
C56	C	0.722154	-0.860830	-0.655244
O57	O	0.693708	-0.889071	-0.720464
C58	C	0.722137	-0.806226	-0.655233
C59	C	0.755581	-0.778921	-0.578545
C60	C	0.822486	-0.778910	-0.425201
C61	C	0.822465	-0.724310	-0.425184
C62	C	0.789002	-0.697015	-0.501847
C63	C	0.755560	-0.724320	-0.578528
C64	C	0.688676	-0.778928	-0.731910
C65	C	0.688662	-0.724321	-0.731893
C66	C	0.722106	-0.697016	-0.655205
C67	C	0.722076	-0.642425	-0.655174
N68	N	0.755522	-0.615116	-0.578500
C69	C	0.788985	-0.642411	-0.501836
C70	C	0.722194	-0.975500	-0.655262
C71	C	0.722208	-1.030102	-0.655268
C72	C	0.789119	-1.030089	-0.501923
C73	C	0.789101	-0.975486	-0.501912
C74	C	0.755639	-0.948192	-0.578588
C75	C	0.788937	-0.527746	-0.501805
C76	C	0.788912	-0.473141	-0.501791
C77	C	0.722003	-0.473159	-0.655140
C78	C	0.722027	-0.527760	-0.655150
C79	C	0.755498	-0.555052	-0.578478
O80	O	0.693620	-0.614147	-0.720309
O81	O	0.817431	-0.614163	-0.436638
C82	C	0.891900	-0.251910	-0.578575
C83	C	0.950014	-0.251919	-0.578610
C84	C	0.755569	-0.251831	-0.891535
C85	C	0.755586	-0.251807	-1.024935
C86	C	0.755629	-0.115516	-0.578574
C87	C	0.755673	-0.057402	-0.578609
C88	C	0.755515	-0.251909	-0.266668
C89	C	0.755598	-0.251787	-0.133268
H90	H	-0.044905	-0.312652	-0.717614
H91	H	0.556506	-0.312612	-0.717410
H92	H	0.816146	-0.450910	-0.439338
H93	H	-0.044916	-0.191190	-0.439591
H94	H	0.849699	-0.702081	-0.362741
H95	H	0.457422	-0.191144	-0.439439
H96	H	0.694795	-0.549993	-0.717599
H97	H	0.206263	-0.157677	-0.362931
H98	H	0.556489	-0.191143	-0.439407
H99	H	0.816194	-0.549961	-0.439374
H100	H	0.816335	-0.953257	-0.439467
H101	H	0.305336	-0.346102	-0.794125
H102	H	0.054134	-0.191173	-0.439576
H103	H	0.694940	-0.953280	-0.717698
H104	H	0.849738	-0.801128	-0.362772
H105	H	0.305312	-0.157665	-0.362923
H106	H	0.816368	-1.052323	-0.439504
H107	H	0.661439	-0.801151	-0.794352
H108	H	0.694969	-1.052330	-0.717704
H109	H	0.661413	-0.702101	-0.794336
H110	H	0.694756	-0.450927	-0.717555
H111	H	0.206290	-0.346106	-0.794164
H112	H	0.054160	-0.312649	-0.717589
H113	H	0.457456	-0.312614	-0.717469
