data_functionalizedCrystal
_audit_creation_method	'MofGen! by Chris Wilmer'
_symmetry_space_group_name_H-M	'P1'
_symmetry_Int_Tables_number	1
_symmetry_cell_setting	triclinic
loop_
_symmetry_equiv_pos_as_xyz
  x,y,z
_cell_length_a	15.625110
_cell_length_b	15.625429
_cell_length_c	14.586319
_cell_angle_alpha	71.919058
_cell_angle_beta	108.080072
_cell_angle_gamma	89.778684
loop_
_atom_site_label
_atom_site_type_symbol
_atom_site_fract_x
_atom_site_fract_y
_atom_site_fract_z
O1	O	1.196357	0.117723	0.282429
O2	O	0.933898	0.131739	0.190498
O3	O	1.072140	-0.006496	0.282422
O4	O	1.058115	0.255959	0.190505
O5	O	1.072130	-0.006499	0.434900
O6	O	0.933889	0.131737	0.342976
O7	O	1.196347	0.117721	0.434907
Cu8	Cu	1.065117	0.124729	0.402864
Cu9	Cu	1.065128	0.124731	0.222541
O10	O	1.058105	0.255957	0.342983
C11	C	0.900305	0.131102	0.255780
C12	C	0.800222	0.129197	0.223134
C13	C	0.659163	0.126513	0.094011
C14	C	0.753206	0.128303	0.124696
C15	C	0.753204	0.128305	0.290923
C16	C	0.659158	0.126519	0.260250
C17	C	0.612145	0.125622	0.161793
C18	C	0.612140	0.125628	0.328032
C19	C	0.518103	0.123838	0.297363
C20	C	0.471084	0.122938	0.198911
C21	C	0.518108	0.123832	0.131123
C22	C	0.659156	0.126519	0.426491
C23	C	0.612138	0.125628	0.494274
C24	C	0.518098	0.123844	0.463602
C25	C	0.471079	0.122944	0.365150
C26	C	0.471074	0.122951	0.531390
C27	C	0.377037	0.121160	0.500720
C28	C	0.377042	0.121154	0.334481
C29	C	1.071500	-0.040086	0.369614
C30	C	1.069598	-0.140168	0.402248
C31	C	1.063342	-0.469321	0.094022
C32	C	1.061551	-0.563363	0.124713
C33	C	1.061540	-0.563351	0.290935
C34	C	1.063336	-0.469308	0.260259
C35	C	1.064236	-0.422300	0.161801
C36	C	1.064230	-0.422287	0.328038
C37	C	1.066022	-0.328252	0.297362
C38	C	1.066919	-0.281237	0.198908
C39	C	1.066027	-0.328265	0.131125
C40	C	1.063324	-0.469296	0.426493
C41	C	1.064218	-0.422275	0.494272
C42	C	1.066016	-0.328239	0.463599
C43	C	1.066913	-0.281224	0.365144
C44	C	1.066907	-0.281211	0.531381
C45	C	1.068698	-0.187176	0.500706
C46	C	1.068704	-0.187189	0.334469
C47	C	1.229941	0.118358	0.369623
C48	C	1.330024	0.120263	0.402263
C49	C	1.058745	0.289546	0.255789
C50	C	1.060647	0.389628	0.223149
N51	N	1.065116	0.124727	0.529696
N52	N	1.065137	0.124726	0.095714
C53	C	1.126349	0.063536	0.805406
C54	C	1.126352	0.063534	0.901389
C55	C	1.003897	0.185919	0.819994
C56	C	1.003890	0.185917	0.724013
C57	C	1.065122	0.124726	0.716723
C58	C	1.065131	0.124727	0.908687
C59	C	1.065133	0.124725	1.012755
C60	C	1.065119	0.124727	0.612648
H61	H	0.338759	0.120435	0.254303
F62	F	0.326995	0.120202	0.572865
F63	F	1.068827	-0.181155	0.166260
F64	F	0.371001	0.121020	0.166274
H65	H	1.176208	0.013707	0.973596
F66	F	1.060595	-0.613402	0.052564
H67	H	1.066768	-0.289989	0.050954
H68	H	0.791484	0.129034	0.069490
H69	H	0.479825	0.123112	0.050946
F70	F	0.609121	0.125571	-0.010784
H71	H	0.954045	0.235741	0.825939
H72	H	0.791495	0.129032	0.371089
F73	F	0.759241	0.128416	0.459134
H74	H	1.063482	-0.460562	0.574435
H75	H	0.650429	0.126355	0.574439
H76	H	1.066165	-0.319498	0.611542
F77	F	1.191515	-0.001590	0.797652
H78	H	0.509367	0.123672	0.611557
F79	F	0.938717	0.251043	0.629621
H80	H	1.069445	-0.148913	0.254298
F81	F	1.064312	-0.419288	-0.010764
F82	F	1.061415	-0.569378	0.459137
F83	F	1.060575	-0.613389	0.395715
F84	F	1.069654	-0.137130	0.572845
