data_functionalizedCrystal
_audit_creation_method	'MofGen! by Chris Wilmer'
_symmetry_space_group_name_H-M	'P1'
_symmetry_Int_Tables_number	1
_symmetry_cell_setting	triclinic
loop_
_symmetry_equiv_pos_as_xyz
  x,y,z
_cell_length_a	10.654562
_cell_length_b	17.019294
_cell_length_c	15.500235
_cell_angle_alpha	88.964516
_cell_angle_beta	87.138702
_cell_angle_gamma	83.940708
loop_
_atom_site_label
_atom_site_type_symbol
_atom_site_fract_x
_atom_site_fract_y
_atom_site_fract_z
O1	O	1.672571	0.106793	-0.079956
O2	O	1.306992	0.117300	-0.080727
O3	O	1.499291	-0.002299	-0.071819
O4	O	1.480271	0.226392	-0.088864
O5	O	1.487667	0.004957	0.071529
O6	O	1.295368	0.124555	0.062621
O7	O	1.660947	0.114049	0.063392
Cu8	Cu	1.477096	0.119964	0.076095
Cu9	Cu	1.490843	0.111384	-0.093430
O10	O	1.468647	0.233647	0.054484
C11	C	1.254389	0.120154	-0.008994
C12	C	1.114969	0.117840	-0.008818
C13	C	1.043113	0.120715	0.069395
C14	C	0.912113	0.118546	0.069542
C15	C	0.924836	0.110630	-0.086743
C16	C	1.055835	0.112793	-0.086889
C17	C	1.102247	0.125762	0.147466
C18	C	1.030390	0.128638	0.225686
C19	C	0.899390	0.126469	0.225833
C20	C	0.840247	0.121424	0.147761
C21	C	1.492529	-0.027954	0.002036
C22	C	1.489682	-0.115208	0.008534
C23	C	1.494684	-0.160151	-0.066552
C24	C	1.492001	-0.242135	-0.060444
C25	C	1.484325	-0.279175	0.020751
C26	C	1.479319	-0.234226	0.095842
C27	C	1.481993	-0.152243	0.089733
C28	C	1.475925	-0.526512	0.043106
C29	C	1.473255	-0.608501	0.049209
C30	C	1.485935	-0.616404	-0.107077
C31	C	1.488616	-0.534420	-0.113179
C32	C	1.483603	-0.489478	-0.038088
C33	C	1.481586	-0.362976	0.026997
C34	C	1.486333	-0.405678	-0.044335
C35	C	1.713549	0.111194	-0.008342
C36	C	1.852970	0.113508	-0.008525
C37	C	1.475410	0.259302	-0.019373
C38	C	1.478257	0.346556	-0.025876
N39	N	1.467436	0.125999	0.195331
N40	N	1.500512	0.105343	-0.212665
C41	C	1.419009	0.156008	0.738283
C42	C	1.426342	0.151459	0.648049
C43	C	1.515185	0.096250	0.606868
C44	C	1.596691	0.045580	0.655927
C45	C	1.589352	0.050125	0.746159
C46	C	1.541603	0.079874	0.334622
C47	C	1.548939	0.075334	0.244382
C48	C	1.378587	0.181213	0.236511
C49	C	1.371260	0.185757	0.326745
C50	C	1.452762	0.135084	0.375796
C51	C	1.522685	0.091601	0.514635
C52	C	1.445255	0.139730	0.468028
H53	H	0.876671	0.106525	-0.150306
H54	H	1.078555	0.132740	0.289249
F55	F	1.465092	-0.647921	0.135632
F56	F	1.132314	0.109732	-0.170132
F57	F	1.617240	0.032844	0.470802
H58	H	1.496079	-0.278724	-0.121587
H59	H	1.208912	0.127530	0.147355
F60	F	1.502862	-0.120738	-0.152971
F61	F	0.822919	0.129524	0.309079
H62	H	0.733577	0.119656	0.147887
H63	H	1.312231	0.222468	0.196566
H64	H	1.477902	-0.115650	0.150876
F65	F	1.496788	-0.495005	-0.199598
H66	H	1.490013	-0.653005	-0.168212
H67	H	1.492574	-0.375515	-0.110443
F68	F	1.470574	-0.478691	0.123026
H69	H	1.473061	-0.264390	0.161953
H70	H	1.621291	0.030373	0.210858
F71	F	1.473412	-0.402404	0.113408
F72	F	1.324456	0.214774	0.782102
H73	H	1.359976	0.192714	0.608112
F74	F	1.276706	0.244518	0.370572
F75	F	1.628345	0.025947	0.386818
H76	H	1.669025	0.000623	0.622392
F77	F	1.676095	-0.003802	0.798363
H78	H	1.372915	0.184679	0.501561
