data_functionalizedCrystal
_audit_creation_method	'MofGen! by Chris Wilmer'
_symmetry_space_group_name_H-M	'P1'
_symmetry_Int_Tables_number	1
_symmetry_cell_setting	triclinic
loop_
_symmetry_equiv_pos_as_xyz
  x,y,z
_cell_length_a	21.395362
_cell_length_b	14.908520
_cell_length_c	21.395356
_cell_angle_alpha	93.272765
_cell_angle_beta	89.964230
_cell_angle_gamma	93.337688
loop_
_atom_site_label
_atom_site_type_symbol
_atom_site_fract_x
_atom_site_fract_y
_atom_site_fract_z
Zn1	Zn	0.943463	-0.358826	-0.368962
Zn2	Zn	0.937350	-0.509688	-0.270229
Zn3	Zn	0.838691	-0.358886	-0.264166
Zn4	Zn	0.832616	-0.509688	-0.374934
O5	O	0.888030	-0.434272	-0.319573
O6	O	1.030331	-0.378813	-0.355904
O7	O	0.924246	-0.489709	-0.181748
O8	O	0.857690	-0.232631	-0.273031
O9	O	1.025839	-0.489651	-0.283365
O10	O	0.934666	-0.232586	-0.350024
O11	O	0.851762	-0.378916	-0.177293
O12	O	0.750206	-0.378916	-0.278821
O13	O	0.847337	-0.489650	-0.461819
O14	O	0.745743	-0.489709	-0.360202
O15	O	0.928776	-0.378812	-0.457431
O16	O	0.918355	-0.635936	-0.289155
O17	O	0.841408	-0.635936	-0.366081
C18	C	0.725240	-0.434320	-0.319502
C19	C	0.655597	-0.434362	-0.319488
C20	C	0.620574	-0.492128	-0.361806
C21	C	0.555139	-0.492106	-0.361833
C22	C	0.524731	-0.434327	-0.319531
C23	C	0.559763	-0.376549	-0.277210
C24	C	0.625196	-0.376567	-0.277188
C25	C	0.421304	-0.427069	-0.262835
C26	C	0.355872	-0.427058	-0.262856
C27	C	0.322912	-0.434268	-0.319598
C28	C	0.355393	-0.441508	-0.376321
C29	C	0.420826	-0.441526	-0.376300
C30	C	0.453779	-0.434301	-0.319550
C31	C	0.216937	-0.492014	-0.361949
C32	C	0.151501	-0.491986	-0.361976
C33	C	0.156126	-0.376433	-0.277348
C34	C	0.221560	-0.376457	-0.277325
C35	C	0.251962	-0.434252	-0.319625
C36	C	0.878576	-0.668670	-0.328938
C37	C	0.874589	-0.768947	-0.332965
C38	C	0.947305	-0.957316	-0.260495
C39	C	0.943561	-1.051534	-0.264277
C40	C	0.863361	-1.051604	-0.344314
C41	C	0.867105	-0.957386	-0.340532
C42	C	0.909077	-0.910245	-0.298620
C43	C	0.912818	-0.816024	-0.294836
C44	C	0.832622	-0.816096	-0.374876
C45	C	0.828878	-0.910315	-0.378658
C46	C	1.051455	-0.434225	-0.319644
C47	C	1.121097	-0.434205	-0.319675
C48	C	0.888061	-0.434225	-0.482994
C49	C	0.888074	-0.434204	-0.552635
C50	C	0.897538	-0.198959	-0.310185
C51	C	0.901589	-0.098682	-0.306184
C52	C	0.925894	-0.491705	-1.056744
C53	C	0.925882	-0.491734	-0.991309
C54	C	0.888139	-0.434061	-0.956268
C55	C	0.850394	-0.376372	-0.986666
C56	C	0.850403	-0.376352	-1.052099
C57	C	0.886462	-0.352814	-0.849356
C58	C	0.886457	-0.352833	-0.783923
C59	C	0.888108	-0.434125	-0.754449
C60	C	0.889777	-0.515401	-0.790416
C61	C	0.889785	-0.515381	-0.855849
C62	C	0.888125	-0.434078	-0.885316
C63	C	0.925834	-0.491846	-0.653108
C64	C	0.925817	-0.491877	-0.587672
C65	C	0.850334	-0.376507	-0.583030
C66	C	0.850347	-0.376485	-0.648464
C67	C	0.888100	-0.434153	-0.683499
C68	C	0.888038	-0.434254	-0.156785
C69	C	0.888157	-0.434020	-0.087134
H70	H	0.122986	-0.539024	-0.396441
H71	H	0.946992	-0.777643	-0.260707
F72	F	0.966014	-0.553222	-0.690397
F73	F	0.791928	-0.765993	-0.415448
H74	H	0.974690	-1.089856	-0.233232
H75	H	0.819663	-0.329416	-0.958131
H76	H	0.819601	-0.329551	-0.554499
H77	H	0.535000	-0.329504	-0.242768
H78	H	0.131368	-0.329384	-0.242908
H79	H	0.250077	-0.329422	-0.242862
H80	H	0.329431	-0.421169	-0.216668
H81	H	0.956622	-0.538698	-0.966560
F82	F	0.818701	-1.101790	-0.388923
H83	H	0.981476	-0.918933	-0.226364
F84	F	0.784212	-0.960495	-0.423263
F85	F	0.652926	-0.553637	-0.406827
H86	H	0.448134	-0.421194	-0.216625
H87	H	0.956634	-0.538666	-1.085266
F88	F	0.810232	-0.314957	-1.084444
F89	F	0.891558	-0.601878	-0.894125
F90	F	0.810174	-0.315097	-0.680810
F91	F	0.891536	-0.601925	-0.759053
H92	H	0.328559	-0.447378	-0.422526
H93	H	0.956544	-0.538859	-0.562930
H94	H	0.885159	-0.286606	-0.873347
F95	F	0.517857	-0.553592	-0.406875
F96	F	0.455392	-0.449227	-0.436667
H97	H	0.653712	-0.329524	-0.242727
F98	F	0.249295	-0.553519	-0.406970
H99	H	0.885103	-0.286653	-0.754644
