data_functionalizedCrystal
_audit_creation_method	'MofGen! by Chris Wilmer'
_symmetry_space_group_name_H-M	'P1'
_symmetry_Int_Tables_number	1
_symmetry_cell_setting	triclinic
loop_
_symmetry_equiv_pos_as_xyz
  x,y,z
_cell_length_a	17.077404
_cell_length_b	15.297327
_cell_length_c	17.077396
_cell_angle_alpha	99.647268
_cell_angle_beta	89.980499
_cell_angle_gamma	99.707136
loop_
_atom_site_label
_atom_site_type_symbol
_atom_site_fract_x
_atom_site_fract_y
_atom_site_fract_z
Zn1	Zn	1.145953	-0.359161	-0.497895
Zn2	Zn	1.645953	0.140839	0.002105
Zn3	Zn	1.123133	-0.510035	-0.389335
Zn4	Zn	1.623133	-0.010035	0.110665
Zn5	Zn	1.014680	-0.359192	-0.366647
Zn6	Zn	1.514680	0.140808	0.133353
Zn7	Zn	0.991934	-0.509981	-0.520550
Zn8	Zn	1.491934	-0.009981	-0.020550
O9	O	1.068925	-0.434592	-0.443607
O10	O	1.568925	0.065408	0.056393
O11	O	1.252771	-0.379184	-0.483507
O12	O	1.752771	0.120816	0.016493
O13	O	1.108715	-0.490061	-0.276484
O14	O	1.608715	0.009939	0.223516
O15	O	1.051163	-0.232941	-0.365082
O16	O	1.551163	0.267059	0.134918
O17	O	1.236005	-0.490030	-0.403749
O18	O	1.736005	0.009970	0.096251
O19	O	1.147608	-0.232918	-0.461508
O20	O	1.647608	0.267082	0.038492
O21	O	1.029035	-0.379238	-0.259815
O22	O	1.529035	0.120762	0.240185
O23	O	0.901817	-0.379186	-0.387050
O24	O	1.401817	0.120814	0.112950
O25	O	1.012395	-0.489939	-0.627386
O26	O	1.512395	0.010061	-0.127386
O27	O	0.885105	-0.489970	-0.500121
O28	O	1.385105	0.010030	-0.000121
O29	O	1.125553	-0.379132	-0.610742
O30	O	1.625553	0.120868	-0.110742
O31	O	1.086659	-0.636275	-0.425717
O32	O	1.586659	-0.136275	0.074283
O33	O	0.990268	-0.636236	-0.522120
O34	O	1.490268	-0.136236	-0.022120
C35	C	0.864979	-0.434576	-0.443583
C36	C	1.364979	0.065424	0.056417
C37	C	0.777727	-0.434591	-0.443594
C38	C	1.277727	0.065409	0.056406
C39	C	0.728043	-0.492363	-0.502403
C40	C	1.228043	0.007637	-0.002403
C41	C	0.646062	-0.492365	-0.502416
C42	C	1.146062	0.007635	-0.002416
C43	C	0.613767	-0.434599	-0.443616
C44	C	1.113767	0.065401	0.056384
C45	C	0.663458	-0.376820	-0.384804
C46	C	1.163458	0.123180	0.115196
C47	C	0.745438	-0.376814	-0.384795
C48	C	1.245438	0.123186	0.115205
C49	C	0.492585	-0.376838	-0.384825
C50	C	0.992585	0.123162	0.115175
C51	C	0.410599	-0.376844	-0.384833
C52	C	0.910599	0.123156	0.115167
C53	C	0.393210	-0.492389	-0.502446
C54	C	0.893210	0.007611	-0.002446
C55	C	0.475189	-0.492383	-0.502438
C56	C	0.975189	0.007617	-0.002438
C57	C	0.524875	-0.434605	-0.443624
C58	C	1.024875	0.065395	0.056376
C59	C	1.033541	-0.668990	-0.478856
C60	C	1.533541	-0.168990	0.021144
C61	C	1.018475	-0.769266	-0.493962
C62	C	1.518475	-0.269266	0.006038
C63	C	1.176925	-1.051885	-0.335910
C64	C	1.676925	-0.551885	0.164090
C65	C	1.191079	-0.957670	-0.321713
C66	C	1.691079	-0.457670	0.178287
C67	C	1.147930	-0.910565	-0.364774
C68	C	1.647930	-0.410565	0.135226
C69	C	1.090623	-0.957683	-0.422034
C70	C	1.590623	-0.457683	0.077966
C71	C	1.076462	-1.051907	-0.436228
C72	C	1.576462	-0.551907	0.063772
C73	C	1.047467	-0.910586	-0.465092
C74	C	1.547467	-0.410586	0.034908
C75	C	0.990160	-0.957705	-0.522352
C76	C	1.490160	-0.457705	-0.022352
C77	C	0.976003	-1.051919	-0.536544
C78	C	1.476003	-0.551919	-0.036544
C79	C	1.019152	-1.099025	-0.493483
C80	C	1.519152	-0.599025	0.006517
C81	C	1.061628	-0.816363	-0.450898
C82	C	1.561628	-0.316363	0.049102
C83	C	0.961165	-0.816384	-0.551217
C84	C	1.461165	-0.316384	-0.051217
C85	C	0.947010	-0.910599	-0.565413
C86	C	1.447010	-0.410599	-0.065413
C87	C	1.273666	-0.434609	-0.443632
C88	C	1.773666	0.065391	0.056368
C89	C	1.360915	-0.434617	-0.443642
C90	C	1.860915	0.065383	0.056358
C91	C	1.068982	-0.434526	-0.648341
C92	C	1.568982	0.065474	-0.148341
C93	C	1.069007	-0.434498	-0.735587
C94	C	1.569007	0.065502	-0.235587
C95	C	1.104468	-0.199279	-0.408237
C96	C	1.604468	0.300721	0.091763
C97	C	1.119615	-0.099003	-0.393165
C98	C	1.619615	0.400997	0.106835
C99	C	1.127930	-0.376795	-0.767910
C100	C	1.627930	0.123205	-0.267910
C101	C	1.127944	-0.376765	-0.849886
C102	C	1.627944	0.123235	-0.349886
C103	C	1.069037	-0.434443	-0.899538
C104	C	1.569037	0.065557	-0.399538
C105	C	1.010108	-0.492147	-0.867209
C106	C	1.510108	0.007853	-0.367209
C107	C	1.010091	-0.492172	-0.785234
C108	C	1.510091	0.007828	-0.285234
C109	C	1.010148	-0.492093	-1.038071
C110	C	1.510148	0.007907	-0.538071
C111	C	1.010165	-0.492070	-1.120052
C112	C	1.510165	0.007930	-0.620052
C113	C	1.128000	-0.376686	-1.102724
C114	C	1.628000	0.123314	-0.602724
C115	C	1.127984	-0.376711	-1.020748
C116	C	1.627984	0.123289	-0.520748
C117	C	1.069055	-0.434417	-0.988425
C118	C	1.569055	0.065583	-0.488425
C119	C	1.068922	-0.434593	-0.239659
C120	C	1.568922	0.065407	0.260341
C121	C	1.069088	-0.434368	-0.152376
C122	C	1.569088	0.065632	0.347624
H123	H	0.754331	-0.539406	-0.550283
H124	H	1.254331	-0.039406	-0.050283
C125	C	1.163516	-0.806926	-0.349170
C126	C	1.663516	-0.306926	0.150830
N127	N	1.175266	-0.728861	-0.337420
N128	N	1.675266	-0.228861	0.162580
C129	C	0.510712	-0.555934	-0.567117
C130	C	1.010712	-0.055934	-0.067117
N131	N	0.537467	-0.603800	-0.615836
N132	N	1.037467	-0.103800	-0.115836
C133	C	0.547237	-0.313281	-0.320126
C134	C	1.047237	0.186719	0.179874
N135	N	0.588400	-0.265415	-0.271392
N136	N	1.088400	0.234585	0.228608
C137	C	0.945360	-0.555512	-1.174667
C138	C	1.445360	-0.055512	-0.674667
N139	N	0.896547	-0.603297	-1.215802
N140	N	1.396547	-0.103297	-0.715802
C141	C	0.800090	-0.313262	-0.320099
C142	C	1.300090	0.186738	0.179901
N143	N	0.841254	-0.265391	-0.271369
N144	N	1.341254	0.234609	0.228631
H145	H	0.352752	-0.539431	-0.550336
H146	H	0.852752	-0.039431	-0.050336
C147	C	0.945325	-0.555577	-1.002518
C148	C	1.445325	-0.055577	-0.502518
N149	N	0.896504	-0.603396	-0.975740
N150	N	1.396504	-0.103396	-0.475740
H151	H	0.962142	-0.539106	-0.907641
H152	H	1.462142	-0.039106	-0.407641
H153	H	0.605612	-0.539410	-0.550304
H154	H	1.105612	-0.039410	-0.050304
C155	C	1.254102	-0.905848	-0.258716
C156	C	1.754102	-0.405848	0.241284
N157	N	1.301570	-0.866814	-0.211258
N158	N	1.801570	-0.366814	0.288742
C159	C	1.003582	-1.202667	-0.509093
C160	C	1.503582	-0.702667	-0.009093
N161	N	0.991855	-1.280732	-0.520848
N162	N	1.491855	-0.780732	-0.020848
H163	H	0.962103	-0.539150	-0.758916
H164	H	1.462103	-0.039150	-0.258916
H165	H	1.212046	-1.090247	-0.300851
H166	H	1.712046	-0.590247	0.199149
C167	C	0.375077	-0.313295	-0.320152
C168	C	0.875077	0.186705	0.179848
N169	N	0.348322	-0.265428	-0.271434
N170	N	0.848322	0.234572	0.228566
H171	H	0.637157	-0.329781	-0.336930
H172	H	1.137157	0.170219	0.163070
C173	C	0.913698	-0.764572	-0.598589
C174	C	1.413698	-0.264572	-0.098589
N175	N	0.877949	-0.725541	-0.634266
N176	N	1.377949	-0.225541	-0.134266
H177	H	1.108287	-0.778007	-0.404277
H178	H	1.608287	-0.278007	0.095723
H179	H	0.929330	-1.090280	-0.583160
H180	H	1.429330	-0.590280	-0.083160
C181	C	0.883967	-0.962441	-0.628392
C182	C	1.383967	-0.462441	-0.128392
N183	N	0.836482	-1.001490	-0.675825
N184	N	1.336482	-0.501490	-0.175825
H185	H	1.175901	-0.329830	-0.727489
H186	H	1.675901	0.170170	-0.227489
C187	C	1.192766	-0.313290	-0.885438
C188	C	1.692766	0.186710	-0.385438
N189	N	1.241592	-0.265477	-0.912215
N190	N	1.741592	0.234523	-0.412215
H191	H	1.175955	-0.329750	-0.980324
H192	H	1.675955	0.170250	-0.480324
C193	C	1.192822	-0.313208	-1.138280
C194	C	1.692822	0.186792	-0.638280
N195	N	1.241646	-0.265401	-1.165066
N196	N	1.741646	0.234599	-0.665066
