data_functionalizedCrystal
_audit_creation_method	'MofGen! by Chris Wilmer'
_symmetry_space_group_name_H-M	'P1'
_symmetry_Int_Tables_number	1
_symmetry_cell_setting	triclinic
loop_
_symmetry_equiv_pos_as_xyz
  x,y,z
_cell_length_a	19.121063
_cell_length_b	18.215407
_cell_length_c	18.215399
_cell_angle_alpha	89.983140
_cell_angle_beta	87.590157
_cell_angle_gamma	87.534992
loop_
_atom_site_label
_atom_site_type_symbol
_atom_site_fract_x
_atom_site_fract_y
_atom_site_fract_z
Zn1	Zn	-0.279693	-1.112556	0.428542
Zn2	Zn	0.053640	-0.779222	0.761875
Zn3	Zn	0.386974	-0.445889	1.095208
Zn4	Zn	-0.397148	-1.107208	0.310718
Zn5	Zn	-0.063814	-0.773875	0.644052
Zn6	Zn	0.269519	-0.440541	0.977385
Zn7	Zn	-0.279707	-0.989488	0.305496
Zn8	Zn	0.053626	-0.656154	0.638830
Zn9	Zn	0.386960	-0.322821	0.972163
Zn10	Zn	-0.397100	-0.984200	0.433747
Zn11	Zn	-0.063766	-0.650867	0.767081
Zn12	Zn	0.269567	-0.317533	1.100414
O13	O	-0.338412	-1.048363	0.369626
O14	O	-0.005079	-0.715029	0.702959
O15	O	0.328255	-0.381696	1.036293
O16	O	-0.295288	-1.214830	0.412919
O17	O	0.038046	-0.881497	0.746252
O18	O	0.371379	-0.548163	1.079586
O19	O	-0.381595	-1.091567	0.207042
O20	O	-0.048262	-0.758233	0.540376
O21	O	0.285072	-0.424900	0.873709
O22	O	-0.181421	-1.010264	0.317454
O23	O	0.151912	-0.676930	0.650788
O24	O	0.485246	-0.343597	0.984121
O25	O	-0.381581	-1.210901	0.326355
O26	O	-0.048248	-0.877568	0.659688
O27	O	0.285086	-0.544234	0.993021
O28	O	-0.181410	-1.100681	0.407856
O29	O	0.151923	-0.767348	0.741189
O30	O	0.485256	-0.434015	1.074522
O31	O	-0.295312	-1.005078	0.203206
O32	O	0.038022	-0.671745	0.536539
O33	O	0.371355	-0.338412	0.869872
O34	O	-0.295265	-0.885803	0.322502
O35	O	0.038068	-0.552469	0.655835
O36	O	0.371401	-0.219136	0.989169
O37	O	-0.381499	-1.001252	0.536040
O38	O	-0.048166	-0.667919	0.869373
O39	O	0.285167	-0.334585	1.202707
O40	O	-0.381513	-0.881918	0.416728
O41	O	-0.048180	-0.548585	0.750061
O42	O	0.285154	-0.215251	1.083394
O43	O	-0.295241	-1.095554	0.532215
O44	O	0.038092	-0.762221	0.865549
O45	O	0.371425	-0.428888	1.198882
O46	O	-0.495426	-1.086440	0.331402
O47	O	-0.162092	-0.753106	0.664736
O48	O	0.171241	-0.419773	0.998069
O49	O	-0.495390	-0.996066	0.421791
O50	O	-0.162057	-0.662733	0.755125
O51	O	0.171276	-0.329400	1.088458
C52	C	-0.338386	-0.857158	0.369614
C53	C	-0.005053	-0.523824	0.702947
C54	C	0.328281	-0.190491	1.036280
C55	C	-0.338392	-0.775359	0.369626
C56	C	-0.005059	-0.442025	0.702960
C57	C	0.328275	-0.108692	1.036293
C58	C	-0.520892	-1.040119	0.377744
C59	C	-0.187559	-0.706786	0.711078
C60	C	0.145775	-0.373452	1.044411
C61	C	-0.598958	-1.036660	0.381242
C62	C	-0.265624	-0.703326	0.714575
C63	C	0.067709	-0.369993	1.047909
C64	C	-0.383383	-0.508294	0.418628
C65	C	-0.050050	-0.174960	0.751961
C66	C	0.283284	0.158373	1.085294
C67	C	-0.383379	-0.585153	0.418624
C68	C	-0.050045	-0.251819	0.751957
C69	C	0.283288	0.081514	1.085291
C70	C	-0.293434	-0.589173	0.320637
C71	C	0.039899	-0.255840	0.653971
C72	C	0.373232	0.077493	0.987304
C73	C	-0.293443	-0.512316	0.320638
C74	C	0.039891	-0.178982	0.653972
C75	C	0.373224	0.154351	0.987305
C76	C	-0.338416	-0.471878	0.369637
C77	C	-0.005083	-0.138545	0.702971
C78	C	0.328251	0.194789	1.036304
C79	C	-0.338403	-0.625595	0.369633
C80	C	-0.005070	-0.292261	0.702966
C81	C	0.328263	0.041072	1.036300
C82	C	-0.338398	-0.708928	0.369628
C83	C	-0.005065	-0.375595	0.702962
C84	C	0.328268	-0.042262	1.036295
C85	C	-0.338422	-0.388539	0.369641
C86	C	-0.005089	-0.055205	0.702975
C87	C	0.328245	0.278128	1.036308
C88	C	-0.635628	-1.082124	0.335864
C89	C	-0.302295	-0.748790	0.669197
C90	C	0.031038	-0.415457	1.002530
C91	C	-0.708979	-1.078874	0.339157
C92	C	-0.375646	-0.745541	0.672491
C93	C	-0.042313	-0.412208	1.005824
C94	C	-0.745659	-1.030157	0.387827
C95	C	-0.412325	-0.696824	0.721160
C96	C	-0.078992	-0.363490	1.054493
C97	C	-0.708983	-0.984691	0.433210
C98	C	-0.375650	-0.651358	0.766543
C99	C	-0.042316	-0.318025	1.099877
C100	C	-0.635633	-0.987945	0.429919
C101	C	-0.302300	-0.654611	0.763253
C102	C	0.031033	-0.321278	1.096586
C103	C	-0.967128	-1.017982	0.400118
C104	C	-0.633795	-0.684648	0.733452
C105	C	-0.300461	-0.351315	1.066785
C106	C	-1.040483	-1.014730	0.403404
C107	C	-0.707149	-0.681397	0.736737
C108	C	-0.373816	-0.348063	1.070071
C109	C	-1.040474	-1.108915	0.309352
C110	C	-0.707141	-0.775581	0.642685
C111	C	-0.373807	-0.442248	0.976019
C112	C	-0.967123	-1.112160	0.306062
C113	C	-0.633790	-0.778827	0.639396
C114	C	-0.300456	-0.445494	0.972729
C115	C	-0.930454	-1.066697	0.351449
C116	C	-0.597120	-0.733364	0.684782
C117	C	-0.263787	-0.400031	1.018115
C118	C	-0.820635	-1.026833	0.391193
C119	C	-0.487302	-0.693500	0.724526
C120	C	-0.153969	-0.360167	1.057860
C121	C	-0.855478	-1.070026	0.348085
C122	C	-0.522145	-0.736692	0.681419
C123	C	-0.188812	-0.403359	1.014752
C124	C	-0.155219	-1.056659	0.361492
C125	C	0.178114	-0.723325	0.694825
C126	C	0.511448	-0.389992	1.028159
C127	C	-0.077153	-1.060194	0.358026
C128	C	0.256180	-0.726861	0.691359
C129	C	0.589513	-0.393527	1.024692
C130	C	-0.338363	-1.048410	0.561577
C131	C	-0.005030	-0.715076	0.894910
C132	C	0.328303	-0.381743	1.228243
C133	C	-0.338343	-1.048430	0.643375
C134	C	-0.005009	-0.715096	0.976708
C135	C	0.328324	-0.381763	1.310041
C136	C	-0.338433	-0.240315	0.369639
C137	C	-0.005099	0.093019	0.702972
C138	C	0.328234	0.426352	1.036305
C139	C	-0.338427	-0.322114	0.369644
C140	C	-0.005094	0.011219	0.702977
C141	C	0.328239	0.344553	1.036311
C142	C	-0.338409	-1.048361	0.178420
C143	C	-0.005076	-0.715027	0.511753
C144	C	0.328257	-0.381694	0.845086
C145	C	-0.338232	-1.048492	0.096613
C146	C	-0.004899	-0.715159	0.429946
C147	C	0.328434	-0.381825	0.763280
C148	C	-0.293386	-1.097552	0.829577
C149	C	0.039947	-0.764218	1.162910
C150	C	0.373281	-0.430885	1.496243
C151	C	-0.293366	-1.097562	0.906435
C152	C	0.039968	-0.764228	1.239768
C153	C	0.373301	-0.430895	1.573101
C154	C	-0.383191	-0.999365	0.910406
C155	C	-0.049857	-0.666031	1.243739
C156	C	0.283476	-0.332698	1.577073
C157	C	-0.383207	-0.999352	0.833549
C158	C	-0.049874	-0.666019	1.166883
C159	C	0.283459	-0.332685	1.500216
C160	C	-0.338306	-1.048450	0.793137
C161	C	-0.004973	-0.715116	1.126470
C162	C	0.328361	-0.381783	1.459803
C163	C	-0.338269	-1.048472	0.946851
C164	C	-0.004936	-0.715139	1.280185
C165	C	0.328398	-0.381805	1.613518
C166	C	-0.338247	-1.048482	1.030184
C167	C	-0.004914	-0.715149	1.363517
C168	C	0.328419	-0.381816	1.696851
C169	C	-0.338327	-1.048439	0.709799
C170	C	-0.004993	-0.715106	1.043132
C171	C	0.328340	-0.381772	1.376465
H172	H	-0.420003	-0.475372	0.458526
H173	H	-0.086670	-0.142038	0.791859
H174	H	0.246663	0.191295	1.125192
H175	H	-0.605769	-1.121791	0.296229
H176	H	-0.272436	-0.788458	0.629562
H177	H	0.060898	-0.455124	0.962895
H178	H	-0.419996	-0.614799	0.458516
H179	H	-0.086663	-0.281466	0.791849
H180	H	0.246671	0.051868	1.125183
N181	N	-0.748532	-1.127906	0.290210
N182	N	-0.415199	-0.794573	0.623543
N183	N	-0.081865	-0.461240	0.956876
H184	H	-0.778917	-1.160650	0.321509
H185	H	-0.445584	-0.827317	0.654842
H186	H	-0.112251	-0.493983	0.988175
H187	H	-0.714121	-1.159211	0.258884
H188	H	-0.380788	-0.825877	0.592218
H189	H	-0.047455	-0.492544	0.925551
N190	N	-0.244962	-1.150507	0.785987
N191	N	0.088371	-0.817174	1.119321
N192	N	0.421704	-0.483840	1.452654
H193	H	-0.212419	-1.122073	0.752645
H194	H	0.120914	-0.788740	1.085978
H195	H	0.454248	-0.455407	1.419312
H196	H	-0.273574	-1.183299	0.755421
H197	H	0.059759	-0.849966	1.088755
H198	H	0.393092	-0.516632	1.422088
H199	H	-0.419749	-0.959393	0.943319
H200	H	-0.086416	-0.626059	1.276653
H201	H	0.246917	-0.292726	1.609986
N202	N	-0.244925	-0.632795	0.267800
N203	N	0.088408	-0.299462	0.601134
N204	N	0.421742	0.033872	0.934467
H205	H	-0.194758	-0.621679	0.277082
H206	H	0.138575	-0.288346	0.610415
H207	H	0.471908	0.044988	0.943748
H208	H	-0.255832	-0.618900	0.215704
H209	H	0.077502	-0.285567	0.549038
H210	H	0.410835	0.047767	0.882371
N211	N	-0.431665	-0.946393	0.794242
N212	N	-0.098331	-0.613060	1.127576
N213	N	0.235002	-0.279727	1.460909
H214	H	-0.424859	-0.953835	0.739422
H215	H	-0.091526	-0.620502	1.072756
H216	H	0.241808	-0.287168	1.406089
H217	H	-0.420726	-0.894330	0.807183
H218	H	-0.087393	-0.560997	1.140516
H219	H	0.245940	-0.227664	1.473850
N220	N	-0.244945	-0.473032	0.267792
N221	N	0.088389	-0.139698	0.601126
N222	N	0.421722	0.193635	0.934459
H223	H	-0.216450	-0.510310	0.236754
H224	H	0.116883	-0.176977	0.570088
H225	H	0.450217	0.156357	0.903421
H226	H	-0.212481	-0.442611	0.296357
H227	H	0.120852	-0.109278	0.629690
H228	H	0.454186	0.224056	0.963023
H229	H	-0.937260	-1.151830	0.266432
H230	H	-0.603927	-0.818497	0.599766
H231	H	-0.270593	-0.485163	0.933099
H232	H	-1.070338	-1.145929	0.272402
H233	H	-0.737005	-0.812596	0.605736
H234	H	-0.403671	-0.479262	0.939069
N235	N	-1.080047	-0.962182	0.455899
N236	N	-0.746713	-0.628849	0.789232
N237	N	-0.413380	-0.295516	1.122566
H238	H	-1.045687	-0.933876	0.484153
H239	H	-0.712354	-0.600543	0.817487
H240	H	-0.379021	-0.267209	1.150820
H241	H	-1.110439	-0.990775	0.491340
H242	H	-0.777105	-0.657441	0.824674
H243	H	-0.443772	-0.324108	1.158007
N244	N	-0.927583	-0.968943	0.449062
N245	N	-0.594249	-0.635609	0.782395
N246	N	-0.260916	-0.302276	1.115729
H247	H	-0.961951	-0.937584	0.480387
H248	H	-0.628618	-0.604251	0.813721
H249	H	-0.295284	-0.270918	1.147054
H250	H	-0.897195	-0.936252	0.417709
H251	H	-0.563862	-0.602918	0.751042
H252	H	-0.230528	-0.269585	1.084376
N253	N	-0.748540	-0.932148	0.485707
N254	N	-0.415207	-0.598814	0.819040
N255	N	-0.081874	-0.265481	1.152373
H256	H	-0.800572	-0.936982	0.480905
H257	H	-0.467238	-0.603649	0.814238
H258	H	-0.133905	-0.270316	1.147571
H259	H	-0.735762	-0.880162	0.473633
H260	H	-0.402428	-0.546829	0.806966
H261	H	-0.069095	-0.213496	1.140299
H262	H	-0.256786	-1.137544	0.936100
H263	H	0.076547	-0.804211	1.269434
H264	H	0.409880	-0.470878	1.602767
H265	H	-0.605777	-0.950924	0.466872
H266	H	-0.272443	-0.617591	0.800206
H267	H	0.060890	-0.284258	1.133539
H268	H	-0.825612	-1.109694	0.308462
H269	H	-0.492279	-0.776361	0.641795
H270	H	-0.158945	-0.443027	0.975128
H271	H	-0.850508	-0.987166	0.430818
H272	H	-0.517174	-0.653833	0.764152
H273	H	-0.183841	-0.320499	1.097485
