data_functionalizedCrystal
_audit_creation_method	'MofGen! by Chris Wilmer'
_symmetry_space_group_name_H-M	'P1'
_symmetry_Int_Tables_number	1
_symmetry_cell_setting	triclinic
loop_
_symmetry_equiv_pos_as_xyz
  x,y,z
_cell_length_a	21.295418
_cell_length_b	21.295417
_cell_length_c	21.295412
_cell_angle_alpha	89.968813
_cell_angle_beta	89.964379
_cell_angle_gamma	90.046319
loop_
_atom_site_label
_atom_site_type_symbol
_atom_site_fract_x
_atom_site_fract_y
_atom_site_fract_z
Zn1	Zn	0.962305	-0.250356	-0.356234
Zn2	Zn	1.462305	0.249644	0.143766
Zn3	Zn	0.962223	-0.355625	-0.250959
Zn4	Zn	1.462223	0.144375	0.249041
Zn5	Zn	0.857043	-0.250403	-0.250943
Zn6	Zn	1.357043	0.249597	0.249057
Zn7	Zn	0.856998	-0.355620	-0.356155
Zn8	Zn	1.356998	0.144380	0.143845
O9	O	0.909642	-0.303001	-0.303573
O10	O	1.409642	0.196999	0.196427
O11	O	1.050384	-0.264303	-0.342308
O12	O	1.550384	0.235697	0.157692
O13	O	0.948255	-0.341689	-0.162867
O14	O	1.448255	0.158311	0.337133
O15	O	0.871060	-0.162307	-0.264937
O16	O	1.371060	0.337693	0.235063
O17	O	1.050323	-0.341644	-0.264963
O18	O	1.550323	0.158356	0.235037
O19	O	0.948396	-0.162273	-0.342293
O20	O	1.448396	0.337727	0.157707
O21	O	0.870980	-0.264383	-0.162856
O22	O	1.370980	0.235617	0.337144
O23	O	0.768948	-0.264378	-0.264861
O24	O	1.268948	0.235622	0.235139
O25	O	0.870983	-0.341635	-0.444255
O26	O	1.370983	0.158365	0.055745
O27	O	0.768915	-0.341681	-0.342160
O28	O	1.268915	0.158319	0.157840
O29	O	0.948352	-0.264298	-0.444313
O30	O	1.448352	0.235702	0.055687
O31	O	0.948211	-0.443714	-0.264887
O32	O	1.448211	0.056286	0.235113
O33	O	0.870903	-0.443710	-0.342175
O34	O	1.370903	0.056290	0.157825
C35	C	0.746091	-0.303034	-0.303500
C36	C	1.246091	0.196966	0.196500
C37	C	0.676123	-0.303064	-0.303484
C38	C	1.176123	0.196936	0.196516
C39	C	0.643255	-0.343368	-0.343674
C40	C	1.143255	0.156632	0.156326
C41	C	0.577512	-0.343353	-0.343702
C42	C	1.077512	0.156647	0.156298
C43	C	0.544640	-0.303039	-0.303530
C44	C	1.044640	0.196961	0.196470
C45	C	0.577516	-0.262727	-0.263337
C46	C	1.077516	0.237273	0.236663
C47	C	0.643257	-0.262739	-0.263315
C48	C	1.143257	0.237261	0.236685
N49	N	0.441372	-0.298121	-0.248472
N50	N	0.941372	0.201879	0.251528
N51	N	0.378920	-0.298113	-0.248495
N52	N	0.878920	0.201887	0.251505
C53	C	0.346565	-0.302999	-0.303596
C54	C	0.846565	0.197001	0.196404
N55	N	0.379021	-0.307905	-0.358674
N56	N	0.879021	0.192095	0.141326
N57	N	0.441478	-0.307916	-0.358650
N58	N	0.941478	0.192084	0.141350
C59	C	0.473355	-0.303021	-0.303550
C60	C	0.973355	0.196979	0.196450
C61	C	0.242412	-0.343289	-0.343820
C62	C	0.742412	0.156711	0.156180
C63	C	0.176669	-0.343269	-0.343849
C64	C	0.676669	0.156731	0.156151
C65	C	0.176673	-0.262646	-0.263479
C66	C	0.676673	0.237354	0.236521
C67	C	0.242415	-0.262663	-0.263455
C68	C	0.742415	0.237337	0.236545
C69	C	0.275281	-0.302988	-0.303625
C70	C	0.775281	0.197012	0.196375
C71	C	0.909560	-0.466553	-0.303538
C72	C	1.409560	0.033447	0.196462
C73	C	0.909582	-0.536521	-0.303544
C74	C	1.409582	-0.036521	0.196456
C75	C	0.949872	-0.569369	-0.263342
C76	C	1.449872	-0.069369	0.236658
C77	C	0.949902	-0.635111	-0.263356
C78	C	1.449902	-0.135111	0.236644
C79	C	0.909630	-0.668003	-0.303566
C80	C	1.409630	-0.168003	0.196434
C81	C	0.869337	-0.635148	-0.343776
C82	C	1.369337	-0.135148	0.156224
C83	C	0.869313	-0.569407	-0.343765
C84	C	1.369313	-0.069407	0.156235
N85	N	0.854562	-0.771284	-0.308340
N86	N	1.354562	-0.271284	0.191660
N87	N	0.854587	-0.833736	-0.308347
N88	N	1.354587	-0.333736	0.191653
C89	C	0.909700	-0.866078	-0.303602
C90	C	1.409700	-0.366078	0.196398
N91	N	0.964790	-0.833610	-0.298838
N92	N	1.464790	-0.333610	0.201162
N93	N	0.964765	-0.771152	-0.298828
N94	N	1.464765	-0.271152	0.201172
C95	C	0.909652	-0.739289	-0.303582
C96	C	1.409652	-0.239289	0.196418
C97	C	0.950026	-0.970211	-0.263413
C98	C	1.450026	-0.470211	0.236587
C99	C	0.950056	-1.035955	-0.263431
C100	C	1.450056	-0.535955	0.236569
C101	C	0.869486	-1.035990	-0.343848
C102	C	1.369486	-0.535990	0.156152
C103	C	0.869461	-0.970248	-0.343833
C104	C	1.369461	-0.470248	0.156167
C105	C	0.909730	-0.937362	-0.303612
C106	C	1.409730	-0.437362	0.196388
C107	C	1.073833	-0.302968	-0.303646
C108	C	1.573833	0.197032	0.196354
C109	C	1.143801	-0.302954	-0.303677
C110	C	1.643801	0.197046	0.196323
C111	C	0.909671	-0.302960	-0.467763
C112	C	1.409671	0.197040	0.032237
C113	C	0.909684	-0.302943	-0.537731
C114	C	1.409684	0.197057	-0.037731
C115	C	0.909742	-0.138811	-0.303622
C116	C	1.409742	0.361189	0.196378
C117	C	0.909785	-0.068843	-0.303642
C118	C	1.409785	0.431157	0.196358
C119	C	0.950029	-0.262574	-1.037220
C120	C	1.450029	0.237426	-0.537220
C121	C	0.950025	-0.262589	-0.971478
C122	C	1.450025	0.237411	-0.471478
C123	C	0.909738	-0.302860	-0.938571
C124	C	1.409738	0.197140	-0.438571
C125	C	0.869465	-0.343130	-0.971412
C126	C	1.369465	0.156870	-0.471412
C127	C	0.869476	-0.343118	-1.037153
C128	C	1.369476	0.156882	-0.537153
N129	N	0.854617	-0.307719	-0.835324
N130	N	1.354617	0.192281	-0.335324
N131	N	0.854609	-0.307727	-0.772872
N132	N	1.354609	0.192273	-0.272872
C133	C	0.909705	-0.302899	-0.740496
C134	C	1.409705	0.197101	-0.240496
N135	N	0.964811	-0.298052	-0.772931
N136	N	1.464811	0.201948	-0.272931
N137	N	0.964819	-0.298041	-0.835388
N138	N	1.464819	0.201959	-0.335388
C139	C	0.909723	-0.302878	-0.867286
C140	C	1.409723	0.197122	-0.367286
C141	C	0.949973	-0.262652	-0.636377
C142	C	1.449973	0.237348	-0.136377
C143	C	0.949970	-0.262671	-0.570634
C144	C	1.449970	0.237329	-0.070634
C145	C	0.869405	-0.343209	-0.570569
C146	C	1.369405	0.156791	-0.070569
C147	C	0.869414	-0.343192	-0.636312
C148	C	1.369414	0.156808	-0.136312
C149	C	0.909698	-0.302910	-0.669212
C150	C	1.409698	0.197090	-0.169212
C151	C	0.909650	-0.302996	-0.140021
C152	C	1.409650	0.197004	0.359979
C153	C	0.909759	-0.302836	-0.070054
C154	C	1.409759	0.197164	0.429946
H155	H	0.149909	-0.376089	-0.376580
H156	H	0.649909	0.123911	0.123420
H157	H	0.670017	-0.229916	-0.230588
H158	H	1.170017	0.270084	0.269412
C159	C	0.994323	-0.218297	-0.935351
C160	C	1.494323	0.281703	-0.435351
C161	C	0.994310	-0.218311	-0.863038
C162	C	1.494310	0.281689	-0.363038
C163	C	1.038607	-0.174019	-0.826914
C164	C	1.538607	0.325981	-0.326914
C165	C	1.082918	-0.129713	-0.863102
C166	C	1.582918	0.370287	-0.363102
C167	C	1.082932	-0.129697	-0.935419
C168	C	1.582932	0.370303	-0.435419
C169	C	1.038635	-0.173989	-0.971544
C170	C	1.538635	0.326011	-0.471544
H171	H	0.961507	-0.251111	-0.836246
H172	H	1.461507	0.248889	-0.336246
H173	H	1.038596	-0.174031	-0.773380
H174	H	1.538596	0.325969	-0.273380
H175	H	1.115710	-0.096925	-0.836361
H176	H	1.615710	0.403075	-0.336361
H177	H	1.115735	-0.096897	-0.962211
H178	H	1.615735	0.403103	-0.462211
H179	H	1.038646	-0.173977	-1.025077
H180	H	1.538646	0.326023	-0.525077
C181	C	0.994174	-0.533198	-0.219104
C182	C	1.494174	-0.033198	0.280896
C183	C	0.989085	-0.542298	-0.147538
C184	C	1.489085	-0.042298	0.352462
C185	C	1.033388	-0.506127	-0.103301
C186	C	1.533388	-0.006127	0.396699
C187	C	1.082780	-0.460857	-0.130629
C188	C	1.582780	0.039143	0.369371
C189	C	1.087870	-0.451755	-0.202199
C190	C	1.587870	0.048245	0.297801
C191	C	1.043567	-0.487926	-0.246436
C192	C	1.543567	0.012074	0.253564
H193	H	0.952521	-0.575812	-0.127304
H194	H	1.452521	-0.075812	0.372696
H195	H	1.029620	-0.512865	-0.050320
H196	H	1.529620	-0.012865	0.449680
H197	H	1.115575	-0.434081	-0.097882
H198	H	1.615575	0.065919	0.402118
H199	H	1.124435	-0.418241	-0.222432
H200	H	1.624435	0.081759	0.277568
H201	H	1.047336	-0.481188	-0.299417
H202	H	1.547336	0.018812	0.200583
C203	C	0.994270	-0.218378	-0.534516
C204	C	1.494270	0.281622	-0.034516
C205	C	0.967010	-0.168976	-0.489323
C206	C	1.467010	0.331024	0.010677
C207	C	1.011310	-0.124681	-0.453205
C208	C	1.511310	0.375319	0.046795
C209	C	1.082870	-0.129789	-0.462280
C210	C	1.582870	0.370211	0.037720
C211	C	1.110134	-0.179192	-0.507475
C212	C	1.610134	0.320808	-0.007475
C213	C	1.065834	-0.223487	-0.543593
C214	C	1.565834	0.276513	-0.043593
H215	H	0.914033	-0.165194	-0.482603
H216	H	1.414033	0.334806	0.017397
H217	H	0.991127	-0.088109	-0.419748
H218	H	1.491127	0.411891	0.080252
H219	H	1.115664	-0.096999	-0.435543
H220	H	1.615664	0.403001	0.064457
H221	H	1.163110	-0.182975	-0.514194
H222	H	1.663110	0.317025	-0.014194
H223	H	1.086017	-0.260059	-0.577049
H224	H	1.586017	0.239941	-0.077049
H225	H	0.269173	-0.376121	-0.376531
H226	H	0.769173	0.123879	0.123469
C227	C	0.825152	-0.387431	-0.935218
C228	C	1.325152	0.112569	-0.435218
C229	C	0.825138	-0.387446	-0.862905
C230	C	1.325138	0.112554	-0.362905
C231	C	0.780828	-0.431753	-0.826711
C232	C	1.280828	0.068247	-0.326711
C233	C	0.736531	-0.476046	-0.862831
C234	C	1.236531	0.023954	-0.362831
C235	C	0.736544	-0.476032	-0.935148
C236	C	1.236544	0.023968	-0.435148
C237	C	0.780854	-0.431725	-0.971341
C238	C	1.280854	0.068275	-0.471341
H239	H	0.857931	-0.354657	-0.836164
H240	H	1.357931	0.145343	-0.336164
H241	H	0.780819	-0.431763	-0.773177
H242	H	1.280819	0.068237	-0.273177
H243	H	0.703730	-0.508844	-0.836038
H244	H	1.203730	-0.008844	-0.336038
H245	H	0.703751	-0.508822	-0.961889
H246	H	1.203751	-0.008822	-0.461889
H247	H	0.780863	-0.431716	-1.024875
H248	H	1.280863	0.068284	-0.524875
C249	C	0.994288	-0.218350	-0.672575
C250	C	1.494288	0.281650	-0.172575
C251	C	1.043697	-0.245608	-0.717788
C252	C	1.543697	0.254392	-0.217788
C253	C	1.088012	-0.201307	-0.753984
C254	C	1.588012	0.298693	-0.253984
C255	C	1.082919	-0.129748	-0.744966
C256	C	1.582919	0.370252	-0.244966
C257	C	1.033508	-0.102487	-0.699751
C258	C	1.533508	0.397513	-0.199751
C259	C	0.989193	-0.146788	-0.663555
C260	C	1.489193	0.353212	-0.163555
H261	H	1.047469	-0.298583	-0.724465
H262	H	1.547469	0.201417	-0.224465
H263	H	1.124588	-0.221488	-0.787455
H264	H	1.624588	0.278512	-0.287455
H265	H	1.115723	-0.096954	-0.771760
H266	H	1.615723	0.403046	-0.271760
H267	H	1.029736	-0.049511	-0.693073
H268	H	1.529736	0.450489	-0.193073
H269	H	0.952617	-0.126606	-0.630083
H270	H	1.452617	0.373394	-0.130083
C271	C	0.140522	-0.218298	-0.219289
C272	C	0.640522	0.281702	0.280711
C273	C	0.068209	-0.218281	-0.219312
C274	C	0.568209	0.281719	0.280688
C275	C	0.032054	-0.173930	-0.175124
C276	C	0.532054	0.326070	0.324876
C277	C	0.068212	-0.129595	-0.130912
C278	C	0.568212	0.370405	0.369088
C279	C	0.140529	-0.129611	-0.130887
C280	C	0.640529	0.370389	0.369113
C281	C	0.176684	-0.173963	-0.175076
C282	C	0.676684	0.326037	0.324924
H283	H	0.041439	-0.251101	-0.252042
H284	H	0.541439	0.248899	0.247958
H285	H	-0.021480	-0.173918	-0.175142
H286	H	0.478520	0.326082	0.324858
H287	H	0.041448	-0.096764	-0.098201
H288	H	0.541448	0.403236	0.401799
H289	H	0.167299	-0.096791	-0.098157
H290	H	0.667299	0.403209	0.401843
H291	H	0.230218	-0.173974	-0.175057
H292	H	0.730218	0.326026	0.324943
H293	H	0.982834	-0.229776	-1.064004
H294	H	1.482834	0.270224	-0.564004
C295	C	0.825184	-1.072162	-0.388080
C296	C	1.325184	-0.572162	0.111920
C297	C	0.775795	-1.117434	-0.360749
C298	C	1.275795	-0.617434	0.139251
C299	C	0.731493	-1.153608	-0.404984
C300	C	1.231493	-0.653608	0.095016
C301	C	0.736580	-1.144511	-0.476551
C302	C	1.236580	-0.644511	0.023449
C303	C	0.785971	-1.099237	-0.503885
C304	C	1.285971	-0.599237	-0.003885
C305	C	0.830273	-1.063063	-0.459650
C306	C	1.330273	-0.563063	0.040350
H307	H	0.772028	-1.124170	-0.307768
H308	H	1.272028	-0.624170	0.192232
H309	H	0.694931	-1.187123	-0.384749
H310	H	1.194931	-0.687123	0.115251
H311	H	0.703785	-1.171289	-0.509296
H312	H	1.203785	-0.671289	-0.009296
H313	H	0.789738	-1.092501	-0.556866
H314	H	1.289738	-0.592501	-0.056866
H315	H	0.866835	-1.029548	-0.479886
H316	H	1.366835	-0.529548	0.020114
C317	C	0.825100	-0.387471	-0.672427
C318	C	1.325100	0.112529	-0.172427
C319	C	0.830180	-0.459034	-0.663365
C320	C	1.330180	0.040966	-0.163365
C321	C	0.785860	-0.503313	-0.699478
C322	C	1.285860	-0.003313	-0.199478
C323	C	0.736460	-0.476029	-0.744653
C324	C	1.236460	0.023971	-0.244653
C325	C	0.731378	-0.404463	-0.753717
C326	C	1.231378	0.095537	-0.253717
C327	C	0.775698	-0.360183	-0.717604
C328	C	1.275698	0.139817	-0.217604
H329	H	0.866750	-0.479234	-0.629922
H330	H	1.366750	0.020766	-0.129922
H331	H	0.789622	-0.556292	-0.692767
H332	H	1.289622	-0.056292	-0.192767
H333	H	0.703652	-0.508808	-0.771385
H334	H	1.203652	-0.008808	-0.271385
H335	H	0.694807	-0.384262	-0.787160
H336	H	1.194807	0.115738	-0.287160
H337	H	0.771935	-0.307205	-0.724314
H338	H	1.271935	0.192795	-0.224314
C339	C	0.825134	-0.934111	-0.388050
C340	C	1.325134	-0.434111	0.111950
C341	C	0.825105	-0.861798	-0.388040
C342	C	1.325105	-0.361798	0.111960
C343	C	0.780777	-0.825662	-0.432260
C344	C	1.280777	-0.325662	0.067740
C345	C	0.736477	-0.861838	-0.476491
C346	C	1.236477	-0.361838	0.023509
C347	C	0.736504	-0.934154	-0.476503
C348	C	1.236504	-0.434154	0.023497
C349	C	0.780832	-0.970291	-0.432283
C350	C	1.280832	-0.470291	0.067717
H351	H	0.857900	-0.835015	-0.355296
H352	H	1.357900	-0.335015	0.144704
H353	H	0.780758	-0.772128	-0.432251
H354	H	1.280758	-0.272128	0.067749
H355	H	0.703663	-0.835087	-0.509226
H356	H	1.203663	-0.335087	-0.009226
H357	H	0.703709	-0.960938	-0.509247
H358	H	1.203709	-0.460938	-0.009247
H359	H	0.780852	-1.023825	-0.432292
H360	H	1.280852	-0.523825	0.067708
H361	H	0.982818	-0.943435	-0.230664
H362	H	1.482818	-0.443435	0.269336
H363	H	0.982869	-1.062698	-0.230695
H364	H	1.482869	-0.562698	0.269305
H365	H	0.670010	-0.376203	-0.376384
H366	H	1.170010	0.123797	0.123616
C367	C	0.994217	-0.671254	-0.219125
C368	C	1.494217	-0.171254	0.280875
C369	C	1.038508	-0.635082	-0.174882
C370	C	1.538508	-0.135082	0.325118
C371	C	1.082821	-0.671222	-0.130649
C372	C	1.582821	-0.171222	0.369351
C373	C	1.082842	-0.743535	-0.130658
C374	C	1.582842	-0.243535	0.369342
C375	C	1.038549	-0.779711	-0.174902
C376	C	1.538549	-0.279711	0.325098
C377	C	0.994237	-0.743571	-0.219136
C378	C	1.494237	-0.243571	0.280864
H379	H	1.038494	-0.581548	-0.174874
H380	H	1.538494	-0.081548	0.325126
H381	H	1.115609	-0.644442	-0.097896
H382	H	1.615609	-0.144442	0.402104
H383	H	1.115645	-0.770288	-0.097914
H384	H	1.615645	-0.270288	0.402086
H385	H	1.038563	-0.833245	-0.174911
H386	H	1.538563	-0.333245	0.325089
H387	H	0.961448	-0.770351	-0.251888
H388	H	1.461448	-0.270351	0.248112
H389	H	0.836548	-0.661933	-0.376516
H390	H	1.336548	-0.161933	0.123484
C391	C	0.825169	-0.387404	-1.073272
C392	C	1.325169	0.112596	-0.573272
C393	C	0.830259	-0.458967	-1.064213
C394	C	1.330259	0.041033	-0.564213
C395	C	0.785949	-0.503250	-1.100333
C396	C	1.285949	-0.003250	-0.600333
C397	C	0.736549	-0.475971	-1.145510
C398	C	1.236549	0.024029	-0.645510
C399	C	0.731457	-0.404405	-1.154571
C400	C	1.231457	0.095595	-0.654571
C401	C	0.775767	-0.360121	-1.118452
C402	C	1.275767	0.139879	-0.618452
H403	H	0.866829	-0.479163	-1.030768
H404	H	1.366829	0.020837	-0.530768
H405	H	0.789718	-0.556229	-1.093625
H406	H	1.289718	-0.056229	-0.593625
H407	H	0.703747	-0.508753	-1.172248
H408	H	1.203747	-0.008753	-0.672248
H409	H	0.694886	-0.384208	-1.188016
H410	H	1.194886	0.115792	-0.688016
H411	H	0.771997	-0.307143	-1.125159
H412	H	1.271997	0.192857	-0.625159
H413	H	0.269177	-0.229845	-0.230726
H414	H	0.769177	0.270155	0.269274
H415	H	0.550747	-0.229902	-0.230630
H416	H	1.050747	0.270098	0.269370
C417	C	0.825080	-0.387504	-0.534385
C418	C	1.325080	0.112496	-0.034385
C419	C	0.775665	-0.360241	-0.489183
C420	C	1.275665	0.139759	0.010817
C421	C	0.731337	-0.404538	-0.452998
C422	C	1.231337	0.095462	0.047002
C423	C	0.736424	-0.476097	-0.462015
C424	C	1.236424	0.023903	0.037985
C425	C	0.785842	-0.503364	-0.507218
C426	C	1.285842	-0.003364	-0.007218
C427	C	0.830170	-0.459067	-0.543404
C428	C	1.330170	0.040933	-0.043404
H429	H	0.771896	-0.307266	-0.482506
H430	H	1.271896	0.192734	0.017494
H431	H	0.694754	-0.384353	-0.419535
H432	H	1.194754	0.115647	0.080465
H433	H	0.703610	-0.508888	-0.435228
H434	H	1.203610	-0.008888	0.064772
H435	H	0.789611	-0.556339	-0.513895
H436	H	1.289611	-0.056339	-0.013895
H437	H	0.866753	-0.479252	-0.576867
H438	H	1.366753	0.020748	-0.076867
H439	H	0.550746	-0.376174	-0.376431
H440	H	1.050746	0.123826	0.123569
H441	H	0.836503	-0.542661	-0.376503
H442	H	1.336503	-0.042661	0.123497
