data_functionalizedCrystal
_audit_creation_method	'MofGen! by Chris Wilmer'
_symmetry_space_group_name_H-M	'P1'
_symmetry_Int_Tables_number	1
_symmetry_cell_setting	triclinic
loop_
_symmetry_equiv_pos_as_xyz
  x,y,z
_cell_length_a	15.537937
_cell_length_b	15.186229
_cell_length_c	16.109301
_cell_angle_alpha	89.998949
_cell_angle_beta	114.637940
_cell_angle_gamma	90.004193
loop_
_atom_site_label
_atom_site_type_symbol
_atom_site_fract_x
_atom_site_fract_y
_atom_site_fract_z
O1	O	-1.250065	-0.073198	-0.270171
O2	O	-0.750065	0.426802	0.229829
O3	O	-0.975762	-0.073208	-0.174140
O4	O	-0.475762	0.426792	0.325860
O5	O	-1.120449	-0.073194	-0.345459
O6	O	-0.620449	0.426806	0.154541
O7	O	-1.105378	-0.073212	-0.098852
O8	O	-0.605378	0.426788	0.401148
O9	O	-1.120431	0.073263	-0.345445
O10	O	-0.620431	0.573263	0.154555
O11	O	-0.975744	0.073250	-0.174125
O12	O	-0.475744	0.573250	0.325875
O13	O	-1.250048	0.073259	-0.270157
O14	O	-0.750048	0.573259	0.229843
Zn15	Zn	-1.112893	0.096507	-0.222139
Zn16	Zn	-0.612893	0.596507	0.277861
Zn17	Zn	-1.112917	-0.096456	-0.222158
Zn18	Zn	-0.612917	0.403544	0.277842
O19	O	-1.105361	0.073245	-0.098837
O20	O	-0.605361	0.573245	0.401163
C21	C	-0.940653	0.000020	-0.164084
C22	C	-0.440653	0.500020	0.335916
C23	C	-0.836064	0.000017	-0.134155
C24	C	-0.336064	0.500017	0.365845
C25	C	-0.677398	0.000007	-0.012841
C26	C	-0.177398	0.500007	0.487159
C27	C	-0.775676	0.000010	-0.040974
C28	C	-0.275676	0.500010	0.459026
C29	C	-0.798190	0.000025	-0.199240
C30	C	-0.298190	0.500025	0.300760
C31	C	-0.699912	0.000027	-0.171120
C32	C	-0.199912	0.500027	0.328880
C33	C	-0.639523	0.000017	-0.077920
C34	C	-0.139523	0.500017	0.422080
C35	C	-0.662038	0.000037	-0.236199
C36	C	-0.162038	0.500037	0.263801
C37	C	-0.563768	0.000034	-0.208081
C38	C	-0.063768	0.500034	0.291919
C39	C	-0.503373	0.000021	-0.114885
C40	C	-0.003373	0.500021	0.385115
C41	C	-0.541254	0.000014	-0.049802
C42	C	-0.041254	0.500014	0.450198
C43	C	-0.722428	0.000041	-0.329399
C44	C	-0.222428	0.500041	0.170601
C45	C	-0.684554	0.000051	-0.394478
C46	C	-0.184554	0.500051	0.105522
C47	C	-0.586282	0.000054	-0.366361
C48	C	-0.086282	0.500054	0.133639
C49	C	-0.525887	0.000041	-0.273164
C50	C	-0.025887	0.500041	0.226836
C51	C	-0.548402	0.000061	-0.431444
C52	C	-0.048402	0.500061	0.068556
C53	C	-0.450132	0.000058	-0.403326
C54	C	0.049868	0.500058	0.096674
C55	C	-0.427618	0.000038	-0.245047
C56	C	0.072382	0.500038	0.254953
N57	N	-1.112884	0.228200	-0.222129
N58	N	-0.612884	0.728200	0.277871
C59	C	-1.170023	0.453921	-0.188932
C60	C	-0.670023	0.953921	0.311068
C61	C	-1.170032	0.546111	-0.188939
C62	C	-0.670032	1.046111	0.311061
C63	C	-1.055787	0.546124	-0.255366
C64	C	-0.555787	1.046124	0.244634
C65	C	-1.055783	0.453936	-0.255364
C66	C	-0.555783	0.953936	0.244636
C67	C	-1.112899	0.407837	-0.222141
C68	C	-0.612899	0.907837	0.277859
C69	C	-1.112913	0.592214	-0.222151
C70	C	-0.612913	1.092214	0.277849
C71	C	-1.112923	0.692171	-0.222160
C72	C	-0.612923	1.192171	0.277840
C73	C	-1.112890	0.307874	-0.222134
C74	C	-0.612890	0.807874	0.277866
C75	C	-0.285156	0.000035	-0.280208
C76	C	0.214844	0.500035	0.219792
C77	C	-0.389743	0.000048	-0.310125
C78	C	0.110257	0.500048	0.189875
C79	C	-1.119830	0.000035	-0.376243
C80	C	-0.619830	0.500035	0.123757
C81	C	-1.117999	0.000036	-0.467986
C82	C	-0.617999	0.500036	0.032014
N83	N	-1.112928	0.771851	-0.222164
N84	N	-0.612928	1.271851	0.277836
C85	C	-1.199598	0.000025	-0.714869
C86	C	-0.699598	0.500025	-0.214869
C87	C	-1.197871	0.000018	-0.801069
C88	C	-0.697871	0.500018	-0.301069
C89	C	-1.026205	0.000016	-0.729418
C90	C	-0.526205	0.500016	-0.229418
C91	C	-1.027933	0.000017	-0.643221
C92	C	-0.527933	0.500017	-0.143221
C93	C	-1.114632	0.000026	-0.635950
C94	C	-0.614632	0.500026	-0.135950
C95	C	-1.111177	0.000018	-0.808347
C96	C	-0.611177	0.500018	-0.308347
C97	C	-1.109304	0.000010	-0.901808
C98	C	-0.609304	0.500010	-0.401808
C99	C	-1.116506	0.000032	-0.542483
C100	C	-0.616506	0.500032	-0.042483
C101	C	-1.105980	0.000014	-0.068054
C102	C	-0.605980	0.500014	0.431946
C103	C	-1.107810	0.000007	0.023689
C104	C	-0.607810	0.500007	0.523689
H105	H	-0.628225	0.000011	0.063052
H106	H	-0.128225	0.500011	0.563052
Cl107	Cl	-0.351692	0.000043	-0.127878
Cl108	Cl	0.148308	0.500043	0.372122
H109	H	-1.009283	0.583669	-0.282413
H110	H	-0.509283	1.083669	0.217587
H111	H	-1.267059	0.000016	-0.865325
H112	H	-0.767059	0.500016	-0.365325
Cl113	Cl	-1.241834	0.395971	-0.147176
Cl114	Cl	-0.741834	0.895971	0.352824
Cl115	Cl	-1.241850	0.604041	-0.147190
Cl116	Cl	-0.741850	1.104041	0.352810
Cl117	Cl	-0.983962	0.395997	-0.297114
Cl118	Cl	-0.483962	0.895997	0.202886
H119	H	-0.806508	0.000012	0.012029
H120	H	-0.306508	0.500012	0.512029
Cl121	Cl	-0.379832	0.000014	-0.079534
Cl122	Cl	0.120168	0.500014	0.420466
Cl123	Cl	-0.874116	0.000039	-0.316402
Cl124	Cl	-0.374116	0.500039	0.183598
H125	H	-1.270194	0.000031	-0.708954
H126	H	-0.770194	0.500031	-0.208954
Cl127	Cl	-0.921110	0.000010	-0.544000
Cl128	Cl	-0.421110	0.500010	-0.044000
Cl129	Cl	-0.465328	0.000019	0.067367
Cl130	Cl	0.034672	0.500019	0.567367
Cl131	Cl	-0.760479	0.000065	-0.511640
Cl132	Cl	-0.260479	0.500065	-0.011640
Cl133	Cl	-0.845969	0.000039	-0.364747
Cl134	Cl	-0.345969	0.500039	0.135253
Cl135	Cl	-0.624330	0.000064	-0.548605
Cl136	Cl	-0.124330	0.500064	-0.048605
H137	H	-0.955617	0.000010	-0.735350
H138	H	-0.455617	0.500010	-0.235350
Cl139	Cl	-0.402514	0.000079	-0.485140
Cl140	Cl	0.097486	0.500079	0.014860
