data_functionalizedCrystal
_audit_creation_method	'MofGen! by Chris Wilmer'
_symmetry_space_group_name_H-M	'P1'
_symmetry_Int_Tables_number	1
_symmetry_cell_setting	triclinic
loop_
_symmetry_equiv_pos_as_xyz
  x,y,z
_cell_length_a	14.519709
_cell_length_b	14.519731
_cell_length_c	10.868271
_cell_angle_alpha	89.993880
_cell_angle_beta	90.001299
_cell_angle_gamma	83.684499
loop_
_atom_site_label
_atom_site_type_symbol
_atom_site_fract_x
_atom_site_fract_y
_atom_site_fract_z
O1	O	1.223876	0.120891	-0.102165
O2	O	0.955401	0.135127	-0.102203
O3	O	1.096747	-0.006228	-0.102172
O4	O	1.082531	0.262246	-0.102196
O5	O	1.096735	-0.006234	0.102473
O6	O	0.955389	0.135121	0.102442
O7	O	1.223865	0.120885	0.102480
Zn8	Zn	1.089625	0.128002	0.134953
Zn9	Zn	1.089640	0.128010	-0.134676
O10	O	1.082519	0.262240	0.102449
C11	C	0.921035	0.134461	0.000115
C12	C	0.818654	0.132473	0.000101
C13	C	1.096075	-0.040591	0.000151
C14	C	1.094079	-0.142971	0.000151
C15	C	0.443757	0.125153	0.000157
C16	C	0.548065	0.127186	0.000141
C17	C	0.631202	0.128813	0.000128
C18	C	0.735517	0.130846	0.000114
C19	C	1.092457	-0.226115	0.000148
C20	C	1.090430	-0.330424	0.000139
C21	C	1.088822	-0.413563	0.000130
C22	C	1.086795	-0.517878	0.000123
C23	C	1.258230	0.121551	0.000160
C24	C	1.360612	0.123539	0.000166
C25	C	1.083191	0.296603	0.000123
C26	C	1.085187	0.398983	0.000115
N27	N	1.089621	0.127997	0.318967
N28	N	1.089651	0.128008	-0.318690
C29	C	1.089636	0.128008	0.569973
C30	C	1.089625	0.128004	0.430295
