data_functionalizedCrystal
_audit_creation_method	'MofGen! by Chris Wilmer'
_symmetry_space_group_name_H-M	'P1'
_symmetry_Int_Tables_number	1
_symmetry_cell_setting	triclinic
loop_
_symmetry_equiv_pos_as_xyz
  x,y,z
_cell_length_a	6.817900
_cell_length_b	11.102188
_cell_length_c	10.773894
_cell_angle_alpha	95.423105
_cell_angle_beta	96.645922
_cell_angle_gamma	108.603875
loop_
_atom_site_label
_atom_site_type_symbol
_atom_site_fract_x
_atom_site_fract_y
_atom_site_fract_z
V1	V	-3.974351	-0.171169	-0.388944
V2	V	-3.474351	0.328831	0.111056
O3	O	-3.936005	0.013031	-0.381540
O4	O	-3.436005	0.513031	0.118460
O5	O	-3.952057	-0.344021	-0.386284
O6	O	-3.452057	0.155979	0.113716
O7	O	-3.891308	-0.166427	-0.558576
O8	O	-3.391308	0.333573	-0.058576
O9	O	-3.997174	-0.165792	-0.208056
O10	O	-3.497174	0.334208	0.291944
V11	V	-4.459085	-0.149385	-0.367308
V12	V	-3.959085	0.350615	0.132692
O13	O	-4.232953	-0.218952	-0.436404
O14	O	-3.732953	0.281048	0.063596
O15	O	-4.650681	-0.101602	-0.319849
O16	O	-4.150681	0.398398	0.180151
O17	O	-4.258173	0.023467	-0.369968
O18	O	-3.758173	0.523467	0.130032
O19	O	-4.614828	-0.333585	-0.374713
O20	O	-4.114828	0.166415	0.125287
O21	O	-4.553659	-0.154762	-0.548197
O22	O	-4.053659	0.345238	-0.048197
O23	O	-4.318922	-0.154127	-0.197677
O24	O	-3.818922	0.345873	0.302323
C25	C	-3.804529	-0.386224	-0.380149
C26	C	-3.304529	0.113776	0.119851
C27	C	-3.867357	-0.527519	-0.379104
C28	C	-3.367357	-0.027519	0.120896
C29	C	-3.727037	-0.159684	-0.599922
C30	C	-3.227037	0.340316	-0.099922
C31	C	-3.740597	-0.156951	-0.738597
C32	C	-3.240597	0.343049	-0.238597
C33	C	-3.876993	-0.577122	-0.264377
C34	C	-3.376993	-0.077122	0.235623
C35	C	-3.936049	-0.709886	-0.263401
C36	C	-3.436049	-0.209886	0.236599
C37	C	-3.975821	-0.743432	-0.491889
C38	C	-3.475821	-0.243432	0.008111
C39	C	-3.916780	-0.610671	-0.492865
C40	C	-3.416780	-0.110671	0.007135
C41	C	-3.919387	-0.161688	-0.806460
C42	C	-3.419387	0.338312	-0.306460
C43	C	-3.933405	-0.158863	-0.949788
C44	C	-3.433405	0.341137	-0.449788
C45	C	-4.069044	0.065663	-0.376101
C46	C	-3.569044	0.565663	0.123899
C47	C	-3.985453	0.206957	-0.377153
C48	C	-3.485453	0.706957	0.122847
C49	C	-4.146537	-0.160874	-0.156324
C50	C	-3.646537	0.339126	0.343676
C51	C	-4.112215	-0.163601	-0.017648
C52	C	-3.612215	0.336399	0.482352
H53	H	-3.943893	-0.750265	-0.169979
H54	H	-3.443893	-0.250265	0.330021
H55	H	-3.836752	-0.509423	-0.171746
H56	H	-3.336752	-0.009423	0.328254
H57	H	-4.016064	-0.811150	-0.584509
H58	H	-3.516064	-0.311150	-0.084509
H59	H	-3.908947	-0.570286	-0.586295
H60	H	-3.408947	-0.070286	-0.086295
H61	H	-4.062073	-0.167826	-0.758448
H62	H	-3.562073	0.332174	-0.258448
H63	H	-3.790697	-0.152708	-0.997792
H64	H	-3.290697	0.347292	-0.497792
H65	H	-4.254923	-0.169752	-0.969645
H66	H	-3.754923	0.330248	-0.469645
H67	H	-3.597902	-0.150796	-0.786607
H68	H	-3.097902	0.349204	-0.286607
