data_functionalizedCrystal
_audit_creation_method	'MofGen! by Chris Wilmer'
_symmetry_space_group_name_H-M	'P1'
_symmetry_Int_Tables_number	1
_symmetry_cell_setting	triclinic
loop_
_symmetry_equiv_pos_as_xyz
  x,y,z
_cell_length_a	16.992694
_cell_length_b	15.944551
_cell_length_c	15.455313
_cell_angle_alpha	92.664316
_cell_angle_beta	87.142206
_cell_angle_gamma	87.083481
loop_
_atom_site_label
_atom_site_type_symbol
_atom_site_fract_x
_atom_site_fract_y
_atom_site_fract_z
O1	O	1.043832	0.174669	-0.072025
O2	O	0.815548	0.172714	-0.072051
O3	O	0.935924	0.051836	-0.072029
O4	O	0.923457	0.295548	-0.072046
O5	O	0.929040	0.058718	0.072232
O6	O	0.808664	0.179596	0.072210
O7	O	1.036949	0.181551	0.072236
Cu8	Cu	0.922178	0.181202	0.085395
Cu9	Cu	0.930319	0.173063	-0.085210
O10	O	0.916573	0.302430	0.072215
C11	C	0.782894	0.173641	0.000077
C12	C	0.695850	0.166141	0.000067
C13	C	0.931964	0.023948	0.000101
C14	C	0.930413	-0.069402	0.000102
C15	C	0.645613	0.238506	0.000063
C16	C	0.563826	0.231454	0.000075
C17	C	0.532276	0.152037	0.000086
C18	C	0.582519	0.079667	0.000093
C19	C	0.664305	0.086719	0.000087
C20	C	0.288676	0.122807	0.000111
C21	C	0.206884	0.115760	0.000115
C22	C	0.188196	0.267548	0.000099
C23	C	0.269984	0.274593	0.000087
C24	C	0.320220	0.202223	0.000099
N25	N	0.448677	0.144827	0.000096
N26	N	0.403817	0.209434	0.000095
C27	C	0.852089	-0.289513	0.000081
C28	C	0.885066	-0.344697	0.071214
C29	C	0.927606	-0.240317	0.000095
C30	C	0.891871	-0.351465	-0.071016
C31	C	0.924889	-0.405412	0.000084
C32	C	0.960600	-0.294269	0.071287
C33	C	0.967397	-0.301034	-0.071007
C34	C	1.000428	-0.356196	0.000144
C35	C	0.929168	-0.145209	0.000101
C36	C	0.923332	-0.500518	0.000084
C37	C	1.069603	0.180624	0.000107
C38	C	1.156647	0.188124	0.000110
C39	C	0.920532	0.330318	0.000082
C40	C	0.922084	0.423668	0.000076
N41	N	0.916458	0.186926	0.205390
N42	N	0.936045	0.167333	-0.205204
C43	C	0.967616	0.135594	0.250793
C44	C	0.963297	0.139932	0.341600
C45	C	0.907824	0.195606	0.387002
C46	C	0.856661	0.246940	0.341593
C47	C	0.860976	0.242598	0.250787
C48	C	0.889197	0.214325	0.658581
C49	C	0.884887	0.218665	0.749392
C50	C	0.991523	0.111655	0.749393
C51	C	0.995836	0.107321	0.658586
C52	C	0.944671	0.158653	0.613185
N53	N	0.903410	0.200042	0.479822
N54	N	0.949081	0.154211	0.520367
H55	H	0.522926	0.290381	0.000071
O56	O	1.013021	0.090195	0.385804
C57	C	1.058902	0.140976	0.438300
H58	H	1.027022	0.205236	0.451891
H59	H	1.068270	0.109812	0.502162
H60	H	1.118514	0.148940	0.403299
H61	H	0.862790	-0.376554	-0.131158
H62	H	0.329568	0.063878	0.000121
H63	H	0.556825	0.015004	0.000114
H64	H	1.012791	0.090262	0.213832
H65	H	0.295665	0.339262	0.000069
O66	O	0.176107	0.038672	0.000095
C67	C	0.093148	0.047971	0.000117
H68	H	0.075251	0.110926	-0.027208
H69	H	0.070024	-0.005179	-0.041754
H70	H	0.067087	0.045686	0.069328
H71	H	1.041007	0.061987	0.621621
H72	H	1.033179	0.069863	0.786368
H73	H	0.850256	-0.364079	0.131345
H74	H	0.839712	0.264005	0.786355
H75	H	0.847537	0.256123	0.621622
H76	H	0.705207	0.027792	0.000090
O77	O	0.802843	0.301002	0.385828
C78	C	0.809991	0.293816	0.475712
H79	H	0.871738	0.267239	0.488111
H80	H	0.799629	0.358487	0.510210
H81	H	0.764388	0.249913	0.501498
O82	O	0.777288	-0.254814	0.000306
C83	C	0.734173	-0.276880	0.075427
H84	H	0.776696	-0.293363	0.127589
H85	H	0.692657	-0.221615	0.100245
H86	H	0.698304	-0.333501	0.059194
H87	H	0.819318	0.284397	0.213821
O88	O	0.995324	-0.264358	0.143022
C89	C	1.062377	-0.221116	0.117649
H90	H	1.056221	-0.199267	0.049005
H91	H	1.067724	-0.164237	0.164058
H92	H	1.117405	-0.264875	0.119368
O93	O	0.676124	0.315719	0.000090
C94	C	0.614243	0.378075	0.000068
H95	H	0.557385	0.352101	0.027386
H96	H	0.629343	0.435191	0.041945
H97	H	0.605962	0.397358	-0.069142
H98	H	0.147286	0.326467	0.000091
O99	O	1.075274	-0.390694	0.000350
C100	C	1.111207	-0.361331	0.075434
H101	H	1.063702	-0.339956	0.127608
H102	H	1.150481	-0.414124	0.100264
H103	H	1.148494	-0.306172	0.059147
H104	H	1.002180	-0.281632	-0.131141
