data_functionalizedCrystal
_audit_creation_method	'MofGen! by Chris Wilmer'
_symmetry_space_group_name_H-M	'P1'
_symmetry_Int_Tables_number	1
_symmetry_cell_setting	triclinic
loop_
_symmetry_equiv_pos_as_xyz
  x,y,z
_cell_length_a	14.519709
_cell_length_b	15.995350
_cell_length_c	13.596369
_cell_angle_alpha	89.996243
_cell_angle_beta	90.000291
_cell_angle_gamma	83.586260
loop_
_atom_site_label
_atom_site_type_symbol
_atom_site_fract_x
_atom_site_fract_y
_atom_site_fract_z
O1	O	1.223669	0.109760	-0.081658
O2	O	0.955169	0.122685	-0.081688
O3	O	1.096759	-0.005654	-0.081671
O4	O	1.082079	0.238099	-0.081675
O5	O	1.096744	-0.005661	0.081912
O6	O	0.955155	0.122679	0.081895
O7	O	1.223655	0.109753	0.081925
Zn8	Zn	1.089403	0.116215	0.107882
Zn9	Zn	1.089421	0.116224	-0.107645
O10	O	1.082065	0.238093	0.081908
C11	C	0.920803	0.122080	0.000100
C12	C	0.818425	0.120275	0.000088
C13	C	1.096145	-0.036853	0.000118
C14	C	1.094325	-0.129806	0.000112
C15	C	0.443541	0.113629	0.000133
C16	C	0.547846	0.115475	0.000120
C17	C	0.630980	0.116952	0.000110
C18	C	0.735291	0.118797	0.000099
C19	C	1.087791	-0.467563	0.000115
C20	C	0.986954	-0.420280	-0.000263
C21	C	0.988773	-0.323587	0.000106
C22	C	1.091032	-0.299998	0.000113
C23	C	1.140761	-0.341005	0.093531
C24	C	1.138228	-0.437644	0.093609
C25	C	1.140327	-0.437992	-0.092415
C26	C	1.140303	-0.341046	-0.093650
C27	C	1.092869	-0.205298	0.000115
C28	C	1.085957	-0.562264	0.000119
C29	C	1.258021	0.110359	0.000135
C30	C	1.360399	0.112164	0.000140
C31	C	1.082679	0.269292	0.000116
C32	C	1.084498	0.362245	0.000116
N33	N	1.089397	0.116208	0.254974
N34	N	1.089434	0.116224	-0.254737
C35	C	1.089420	0.116225	0.656265
C36	C	1.089411	0.116223	0.544614
C37	C	1.089409	0.116217	0.455623
C38	C	1.089399	0.116214	0.343965
H39	H	0.946656	-0.438870	-0.067255
C40	C	1.238235	-0.481071	0.099358
C41	C	1.268003	-0.539711	0.186243
C42	C	1.368006	-0.583135	0.191999
C43	C	1.438242	-0.567918	0.110871
C44	C	1.408476	-0.509275	0.023980
C45	C	1.308472	-0.465851	0.018224
H46	H	1.216009	-0.550979	0.246304
H47	H	1.390041	-0.626547	0.256321
H48	H	1.512271	-0.600063	0.115132
H49	H	1.460470	-0.498008	-0.036082
H50	H	1.286437	-0.422439	-0.046099
C51	C	1.094085	-0.302749	0.187444
C52	C	1.010916	-0.234355	0.179561
C53	C	0.964233	-0.196101	0.273471
C54	C	1.000720	-0.226240	0.375264
C55	C	1.083894	-0.294637	0.383150
C56	C	1.130576	-0.332892	0.289240
H57	H	0.983902	-0.212041	0.104205
H58	H	0.902662	-0.145469	0.267633
H59	H	0.966163	-0.197922	0.444781
H60	H	1.110908	-0.316952	0.458506
H61	H	1.192147	-0.383524	0.295079
C62	C	0.935959	-0.285258	-0.090354
C63	C	0.927268	-0.189566	-0.107733
C64	C	0.874448	-0.151241	-0.198194
C65	C	0.830318	-0.208609	-0.271276
C66	C	0.839007	-0.304307	-0.253899
C67	C	0.891828	-0.342632	-0.163438
H68	H	0.959937	-0.147094	-0.053632
H69	H	0.868015	-0.080399	-0.211057
H70	H	0.791216	-0.180239	-0.338241
H71	H	0.806338	-0.346779	-0.308000
H72	H	0.898260	-0.413474	-0.150575
H73	H	1.107364	-0.458578	-0.163220
C74	C	1.242243	-0.321748	0.098260
C75	C	1.304731	-0.355789	0.184100
C76	C	1.406209	-0.336520	0.188835
C77	C	1.445200	-0.283211	0.107729
C78	C	1.382711	-0.249167	0.021882
C79	C	1.281233	-0.268436	0.017147
H80	H	1.275869	-0.395254	0.244146
H81	H	1.452467	-0.361722	0.252385
H82	H	1.520320	-0.268947	0.111234
H83	H	1.411573	-0.209702	-0.038164
H84	H	1.234975	-0.243234	-0.046403
C85	C	0.932733	-0.446828	0.089722
C86	C	0.979617	-0.511196	0.163442
C87	C	0.925399	-0.537746	0.253427
C88	C	0.824297	-0.499928	0.269692
C89	C	0.777408	-0.435556	0.195970
C90	C	0.831626	-0.409006	0.105985
H91	H	1.054464	-0.539194	0.151404
H92	H	0.960111	-0.585398	0.308001
H93	H	0.784162	-0.519582	0.336305
H94	H	0.702561	-0.407558	0.208009
H95	H	0.796915	-0.361354	0.051411
C96	C	1.241046	-0.320143	-0.101266
C97	C	1.310641	-0.347010	-0.018619
C98	C	1.411388	-0.326105	-0.026225
C99	C	1.442539	-0.278333	-0.116478
C100	C	1.372943	-0.251462	-0.199131
C101	C	1.272196	-0.272367	-0.191525
H102	H	1.287582	-0.382377	0.048197
H103	H	1.462907	-0.345997	0.034960
H104	H	1.517118	-0.262858	-0.122108
H105	H	1.396002	-0.216095	-0.265947
H106	H	1.220677	-0.252475	-0.252711
H107	H	0.949409	-0.295784	0.067177
H108	H	1.214674	-0.469641	-0.093038
H109	H	1.103945	-0.313849	-0.162758
H110	H	1.101954	-0.456003	0.163434
