data_functionalizedCrystal
_audit_creation_method	'MofGen! by Chris Wilmer'
_symmetry_space_group_name_H-M	'P1'
_symmetry_Int_Tables_number	1
_symmetry_cell_setting	triclinic
loop_
_symmetry_equiv_pos_as_xyz
  x,y,z
_cell_length_a	10.268362
_cell_length_b	16.992694
_cell_length_c	16.992695
_cell_angle_alpha	89.331777
_cell_angle_beta	90.005527
_cell_angle_gamma	90.001137
loop_
_atom_site_label
_atom_site_type_symbol
_atom_site_fract_x
_atom_site_fract_y
_atom_site_fract_z
O1	O	0.108138	-1.050851	0.166917
O2	O	0.358138	-0.800851	0.416917
O3	O	0.608138	-0.550851	0.666917
O4	O	0.858138	-0.300851	0.916917
O5	O	0.108177	-0.822451	0.165086
O6	O	0.358177	-0.572451	0.415086
O7	O	0.608177	-0.322451	0.665086
O8	O	0.858177	-0.072451	0.915086
O9	O	0.108147	-0.935735	0.051802
O10	O	0.358147	-0.685735	0.301802
O11	O	0.608147	-0.435735	0.551802
O12	O	0.858147	-0.185735	0.801802
O13	O	0.108168	-0.937566	0.280202
O14	O	0.358168	-0.687566	0.530202
O15	O	0.608168	-0.437566	0.780202
O16	O	0.858168	-0.187566	1.030202
O17	O	-0.108453	-0.935724	0.051796
O18	O	0.141547	-0.685724	0.301796
O19	O	0.391547	-0.435724	0.551796
O20	O	0.641547	-0.185724	0.801796
O21	O	-0.108424	-0.822440	0.165080
O22	O	0.141576	-0.572440	0.415080
O23	O	0.391576	-0.322440	0.665080
O24	O	0.641576	-0.072440	0.915080
O25	O	-0.108462	-1.050840	0.166912
O26	O	0.141538	-0.800840	0.416912
O27	O	0.391538	-0.550840	0.666912
O28	O	0.641538	-0.300840	0.916912
Cu29	Cu	-0.128221	-0.936639	0.165995
Cu30	Cu	0.121779	-0.686639	0.415995
Cu31	Cu	0.371779	-0.436639	0.665995
Cu32	Cu	0.621779	-0.186639	0.915995
Cu33	Cu	0.127935	-0.936652	0.166002
Cu34	Cu	0.377935	-0.686652	0.416002
Cu35	Cu	0.627935	-0.436652	0.666002
Cu36	Cu	0.877935	-0.186652	0.916002
O37	O	-0.108433	-0.937555	0.280196
O38	O	0.141567	-0.687555	0.530196
O39	O	0.391567	-0.437555	0.780196
O40	O	0.641567	-0.187555	1.030196
C41	C	-0.000119	-0.793085	0.162727
C42	C	0.249881	-0.543085	0.412727
C43	C	0.499881	-0.293085	0.662727
C44	C	0.749881	-0.043085	0.912727
C45	C	-0.000105	-0.705600	0.155699
C46	C	0.249895	-0.455600	0.405699
C47	C	0.499895	-0.205600	0.655699
C48	C	0.749895	0.044400	0.905699
N49	N	-0.308386	-0.936636	0.165991
N50	N	-0.058386	-0.686636	0.415991
N51	N	0.191614	-0.436636	0.665991
N52	N	0.441614	-0.186636	0.915991
C53	C	-0.000153	-0.933374	0.022439
C54	C	0.249847	-0.683374	0.272439
C55	C	0.499847	-0.433374	0.522439
C56	C	0.749847	-0.183374	0.772439
C57	C	-0.000151	-0.926345	-0.065046
C58	C	0.249849	-0.676345	0.184954
C59	C	0.499849	-0.426345	0.434954
C60	C	0.749849	-0.176345	0.684954
C61	C	-0.574057	-0.936648	0.166000
C62	C	-0.324057	-0.686648	0.416000
C63	C	-0.074057	-0.436648	0.666000
C64	C	0.175943	-0.186648	0.916000
C65	C	-0.426219	-0.936638	0.165997
C66	C	-0.176219	-0.686638	0.415997
C67	C	0.073781	-0.436638	0.665997
C68	C	0.323781	-0.186638	0.915997
N69	N	0.308101	-0.936661	0.166001
N70	N	0.558101	-0.686661	0.416001
N71	N	0.808101	-0.436661	0.666001
N72	N	1.058101	-0.186661	0.916001
C73	C	-0.000164	-1.080205	0.169270
C74	C	0.249836	-0.830205	0.419270
C75	C	0.499836	-0.580205	0.669270
C76	C	0.749836	-0.330205	0.919270
C77	C	-0.000170	-1.167690	0.176299
C78	C	0.249830	-0.917690	0.426299
C79	C	0.499830	-0.667690	0.676299
C80	C	0.749830	-0.417690	0.926299
C81	C	-0.000099	-0.659610	0.223517
C82	C	0.249901	-0.409610	0.473517
C83	C	0.499901	-0.159610	0.723517
C84	C	0.749901	0.090390	0.973517
C85	C	-0.000118	-0.577409	0.216908
C86	C	0.249882	-0.327409	0.466908
C87	C	0.499882	-0.077409	0.716908
C88	C	0.749882	0.172591	0.966908
C89	C	-0.000132	-0.541201	0.142480
C90	C	0.249868	-0.291201	0.392480
C91	C	0.499868	-0.041201	0.642480
C92	C	0.749868	0.208799	0.892480
C93	C	-0.000141	-0.587198	0.074657
C94	C	0.249859	-0.337198	0.324657
C95	C	0.499859	-0.087198	0.574657
C96	C	0.749859	0.162802	0.824657
C97	C	-0.000132	-0.669397	0.081267
C98	C	0.249868	-0.419397	0.331267
C99	C	0.499868	-0.169397	0.581267
C100	C	0.749868	0.080603	0.831267
C101	C	-0.000170	-0.295886	0.115086
C102	C	0.249830	-0.045886	0.365086
C103	C	0.499830	0.204114	0.615086
C104	C	0.749830	0.454114	0.865086
C105	C	-0.000175	-0.213681	0.108481
C106	C	0.249825	0.036319	0.358481
C107	C	0.499825	0.286319	0.608481
C108	C	0.749825	0.536319	0.858481
C109	C	-0.000154	-0.203898	0.250732
C110	C	0.249846	0.046102	0.500732
C111	C	0.499846	0.296102	0.750732
C112	C	0.749846	0.546102	1.000732
C113	C	-0.000137	-0.286099	0.257335
C114	C	0.249863	-0.036099	0.507335
C115	C	0.499863	0.213901	0.757335
C116	C	0.749863	0.463901	1.007335
C117	C	-0.000153	-0.332089	0.189512
C118	C	0.249847	-0.082089	0.439512
C119	C	0.499847	0.167911	0.689512
C120	C	0.749847	0.417911	0.939512
N121	N	-0.000147	-0.457178	0.135723
N122	N	0.249853	-0.207178	0.385723
N123	N	0.499853	0.042822	0.635723
N124	N	0.749853	0.292822	0.885723
N125	N	-0.000147	-0.416110	0.196270
N126	N	0.249853	-0.166110	0.446270
N127	N	0.499853	0.083890	0.696270
N128	N	0.749853	0.333890	0.946270
C129	C	-0.000164	-0.994163	-0.111037
C130	C	0.249836	-0.744163	0.138963
C131	C	0.499836	-0.494163	0.388963
C132	C	0.749836	-0.244163	0.638963
C133	C	-0.000150	-0.987554	-0.193238
C134	C	0.249850	-0.737554	0.056762
C135	C	0.499850	-0.487554	0.306762
C136	C	0.749850	-0.237554	0.556762
C137	C	-0.000133	-0.913127	-0.229446
C138	C	0.249867	-0.663127	0.020554
C139	C	0.499867	-0.413127	0.270554
C140	C	0.749867	-0.163127	0.520554
C141	C	-0.000117	-0.845303	-0.183449
C142	C	0.249883	-0.595303	0.066551
C143	C	0.499883	-0.345303	0.316551
C144	C	0.749883	-0.095303	0.566551
C145	C	-0.000121	-0.851913	-0.101250
C146	C	0.249879	-0.601913	0.148750
C147	C	0.499879	-0.351913	0.398750
C148	C	0.749879	-0.101913	0.648750
C149	C	-0.000111	-0.885732	-0.474760
C150	C	0.249889	-0.635732	-0.224760
C151	C	0.499889	-0.385732	0.025240
C152	C	0.749889	-0.135732	0.275240
C153	C	-0.000111	-0.879127	-0.556966
C154	C	0.249889	-0.629127	-0.306966
C155	C	0.499889	-0.379127	-0.056966
C156	C	0.749889	-0.129127	0.193034
C157	C	-0.000142	-1.021379	-0.566749
C158	C	0.249858	-0.771379	-0.316749
C159	C	0.499858	-0.521379	-0.066749
C160	C	0.749858	-0.271379	0.183251
C161	C	-0.000154	-1.027982	-0.484547
C162	C	0.249846	-0.777982	-0.234547
C163	C	0.499846	-0.527982	0.015453
C164	C	0.749846	-0.277982	0.265453
C165	C	-0.000130	-0.960159	-0.438558
C166	C	0.249870	-0.710159	-0.188558
C167	C	0.499870	-0.460159	0.061442
C168	C	0.749870	-0.210159	0.311442
N169	N	-0.000124	-0.906369	-0.313468
N170	N	0.249876	-0.656369	-0.063468
N171	N	0.499876	-0.406369	0.186532
N172	N	0.749876	-0.156369	0.436532
N173	N	-0.000131	-0.966917	-0.354537
N174	N	0.249869	-0.716917	-0.104537
N175	N	0.499869	-0.466917	0.145463
N176	N	0.749869	-0.216917	0.395463
C177	C	-0.000130	-0.939917	0.309559
C178	C	0.249870	-0.689917	0.559559
C179	C	0.499870	-0.439917	0.809559
C180	C	0.749870	-0.189917	1.059559
C181	C	-0.000123	-0.946945	0.397044
C182	C	0.249877	-0.696945	0.647044
C183	C	0.499877	-0.446945	0.897044
C184	C	0.749877	-0.196945	1.147044
H185	H	-0.000087	-0.689084	0.284124
H186	H	0.249913	-0.439084	0.534124
H187	H	0.499913	-0.189084	0.784124
H188	H	0.749913	0.060916	1.034124
H189	H	-0.000164	-1.042779	-0.230680
H190	H	0.249836	-0.792779	0.019320
H191	H	0.499836	-0.542779	0.269320
H192	H	0.749836	-0.292779	0.519320
H193	H	-0.000184	-0.333322	0.059859
H194	H	0.249816	-0.083322	0.309859
H195	H	0.499816	0.166678	0.559859
H196	H	0.749816	0.416678	0.809859
H197	H	-0.000168	-1.088589	-0.455073
H198	H	0.249832	-0.838589	-0.205073
H199	H	0.499832	-0.588589	0.044927
H200	H	0.749832	-0.338589	0.294927
H201	H	-0.000186	-1.054770	-0.081563
H202	H	0.249814	-0.804770	0.168437
H203	H	0.499814	-0.554770	0.418437
H204	H	0.749814	-0.304770	0.668437
H205	H	-0.000144	-0.166444	0.305950
H206	H	0.249856	0.083556	0.555950
H207	H	0.499856	0.333556	0.805950
H208	H	0.749856	0.583556	1.055950
Br209	Br	-0.000107	-0.514995	0.308951
Br210	Br	0.249893	-0.264995	0.558951
Br211	Br	0.499893	-0.014995	0.808951
Br212	Br	0.749893	0.235005	1.058951
H213	H	-0.000135	-0.706842	0.026042
H214	H	0.249865	-0.456842	0.276042
H215	H	0.499865	-0.206842	0.526042
H216	H	0.749865	0.043158	0.776042
Br217	Br	-0.000103	-0.335233	0.358348
Br218	Br	0.249897	-0.085233	0.608348
Br219	Br	0.499897	0.164767	0.858348
Br220	Br	0.749897	0.414767	1.108348
Br221	Br	-0.000222	-0.164541	0.007465
Br222	Br	0.249778	0.085459	0.257465
Br223	Br	0.499778	0.335459	0.507465
Br224	Br	0.749778	0.585459	0.757465
Br225	Br	-0.000174	-0.538059	-0.026353
Br226	Br	0.249826	-0.288059	0.223647
Br227	Br	0.499826	-0.038059	0.473647
Br228	Br	0.749826	0.211941	0.723647
Br229	Br	-0.000174	-1.113419	-0.629167
Br230	Br	0.249826	-0.863419	-0.379167
Br231	Br	0.499826	-0.613419	-0.129167
Br232	Br	0.749826	-0.363419	0.120833
H233	H	-0.000118	-0.818517	-0.586443
H234	H	0.249882	-0.568517	-0.336443
H235	H	0.499882	-0.318517	-0.086443
H236	H	0.749882	-0.068517	0.163557
H237	H	-0.000092	-0.830505	-0.437325
H238	H	0.249908	-0.580505	-0.187325
H239	H	0.499908	-0.330505	0.062675
H240	H	0.749908	-0.080505	0.312675
Br241	Br	-0.000072	-0.744293	-0.232588
Br242	Br	0.249928	-0.494293	0.017412
Br243	Br	0.499928	-0.244293	0.267412
Br244	Br	0.749928	0.005707	0.517412
H245	H	-0.000110	-0.796688	-0.063804
H246	H	0.249890	-0.546688	0.186196
H247	H	0.499890	-0.296688	0.436196
H248	H	0.749890	-0.046688	0.686196
