data_functionalizedCrystal
_audit_creation_method	'MofGen! by Chris Wilmer'
_symmetry_space_group_name_H-M	'P1'
_symmetry_Int_Tables_number	1
_symmetry_cell_setting	triclinic
loop_
_symmetry_equiv_pos_as_xyz
  x,y,z
_cell_length_a	17.038272
_cell_length_b	10.654550
_cell_length_c	9.130313
_cell_angle_alpha	90.000276
_cell_angle_beta	89.995195
_cell_angle_gamma	92.201757
loop_
_atom_site_label
_atom_site_type_symbol
_atom_site_fract_x
_atom_site_fract_y
_atom_site_fract_z
O1	O	0.109878	-1.678042	-0.121691
O2	O	0.609878	-1.178042	0.378309
O3	O	0.120346	-1.313536	-0.121718
O4	O	0.620346	-0.813536	0.378282
O5	O	0.001285	-1.493623	-0.121693
O6	O	0.501285	-0.993623	0.378307
O7	O	0.228940	-1.497955	-0.121716
O8	O	0.728940	-0.997955	0.378284
O9	O	0.001281	-1.493609	0.121906
O10	O	0.501281	-0.993609	0.621906
O11	O	0.120343	-1.313522	0.121881
O12	O	0.620343	-0.813522	0.621881
O13	O	0.109875	-1.678029	0.121908
O14	O	0.609875	-1.178029	0.621908
Cu15	Cu	0.115108	-1.495774	0.144137
Cu16	Cu	0.615108	-0.995774	0.644137
Cu17	Cu	0.115113	-1.495790	-0.143947
Cu18	Cu	0.615113	-0.995790	0.356053
O19	O	0.228936	-1.497942	0.121883
O20	O	0.728936	-0.997942	0.621883
C21	C	0.119576	-1.266660	0.000078
C22	C	0.619576	-0.766660	0.500078
C23	C	0.117276	-1.127003	0.000068
C24	C	0.617276	-0.627003	0.500068
C25	C	-0.027867	-1.489675	0.000106
C26	C	0.472133	-0.989675	0.500106
C27	C	-0.114726	-1.477918	0.000104
C28	C	0.385274	-0.977918	0.500104
C29	C	0.110645	-1.724905	0.000108
C30	C	0.610645	-1.224905	0.500108
C31	C	0.112945	-1.864561	0.000109
C32	C	0.612945	-1.364561	0.500109
C33	C	-0.164237	-1.585862	0.000114
C34	C	0.335763	-1.085862	0.500114
C35	C	-0.245849	-1.574808	0.000099
C36	C	0.254151	-1.074808	0.500099
C37	C	-0.277949	-1.455808	0.000085
C38	C	0.222051	-0.955808	0.500085
C39	C	-0.228431	-1.347855	0.000072
C40	C	0.271569	-0.847855	0.500072
C41	C	-0.146820	-1.358911	0.000076
C42	C	0.353180	-0.858911	0.500076
C43	C	-0.523925	-1.416750	0.000063
C44	C	-0.023925	-0.916750	0.500063
C45	C	-0.605542	-1.405702	0.000063
C46	C	-0.105542	-0.905702	0.500063
C47	C	-0.622955	-1.632655	0.000088
C48	C	-0.122955	-1.132655	0.500088
C49	C	-0.541341	-1.643701	0.000101
C50	C	-0.041341	-1.143701	0.500101
C51	C	-0.491831	-1.535748	0.000079
C52	C	0.008169	-1.035748	0.500079
C53	C	-0.361369	-1.444505	0.000075
C54	C	0.138631	-0.944505	0.500075
C55	C	-0.408412	-1.547052	0.000079
C56	C	0.091588	-1.047052	0.500079
C57	C	0.258088	-1.501889	0.000081
C58	C	0.758088	-1.001889	0.500081
C59	C	0.344947	-1.513646	0.000072
C60	C	0.844947	-1.013646	0.500072
N61	N	0.115105	-1.495772	0.346759
N62	N	0.615105	-0.995772	0.846759
C63	C	0.187378	-1.054026	0.000065
C64	C	0.687378	-0.554026	0.500065
C65	C	0.185213	-0.922805	0.000091
C66	C	0.685213	-0.422805	0.500091
C67	C	0.042838	-0.937548	0.000116
C68	C	0.542838	-0.437548	0.500116
C69	C	0.045004	-1.068767	0.000101
C70	C	0.545004	-0.568767	0.500101
N71	N	0.115110	-1.495802	-0.346570
N72	N	0.615110	-0.995802	0.153430
C73	C	0.062407	-1.575545	0.423422
C74	C	0.562407	-1.075545	0.923422
C75	C	0.062407	-1.575557	0.576759
C76	C	0.562407	-1.075557	1.076759
C77	C	0.167810	-1.416019	0.576757
C78	C	0.667810	-0.916019	1.076757
C79	C	0.167806	-1.416002	0.423423
C80	C	0.667806	-0.916002	0.923423
H81	H	-0.286159	-1.662708	0.000110
H82	H	0.213841	-1.162708	0.500110
C83	C	-0.640850	-1.274797	0.000023
C84	C	-0.140850	-0.774797	0.500023
H85	H	-0.599675	-1.212087	-0.000008
H86	H	-0.099675	-0.712087	0.499992
H87	H	-0.672330	-1.265749	0.084965
H88	H	-0.172330	-0.765749	0.584965
H89	H	-0.672319	-1.265793	-0.084942
H90	H	-0.172319	-0.765793	0.415058
C91	C	0.225760	-1.328247	0.661084
C92	C	0.725760	-0.828247	1.161084
H93	H	0.257133	-1.280714	0.593461
H94	H	0.757133	-0.780714	1.093461
H95	H	0.258600	-1.376893	0.720906
H96	H	0.758600	-0.876893	1.220906
H97	H	0.197289	-1.272953	0.720892
H98	H	0.697289	-0.772953	1.220892
H99	H	-0.012085	-1.128187	0.000107
H100	H	0.487915	-0.628187	0.500107
H101	H	0.019494	-1.640497	0.361007
H102	H	0.519494	-1.140497	0.861007
H103	H	-0.483623	-1.328847	0.000045
H104	H	0.016377	-0.828847	0.500045
H105	H	-0.254573	-1.250963	0.000051
H106	H	0.245427	-0.750963	0.500051
C107	C	-0.506038	-1.774600	0.000097
C108	C	-0.006038	-1.274600	0.500097
H109	H	-0.547214	-1.837307	0.000085
H110	H	-0.047214	-1.337307	0.500085
H111	H	-0.474565	-1.783631	0.085043
H112	H	0.025435	-1.283631	0.585043
H113	H	-0.474561	-1.783626	-0.084865
H114	H	0.025439	-1.283626	0.415135
H115	H	-0.106509	-1.271011	0.000068
H116	H	0.393491	-0.771011	0.500068
H117	H	0.210719	-1.351035	0.360999
H118	H	0.710719	-0.851035	0.860999
C119	C	0.004442	-1.663313	0.661082
C120	C	0.504442	-1.163313	1.161082
H121	H	-0.026939	-1.710822	0.593459
H122	H	0.473061	-1.210822	1.093459
H123	H	-0.028387	-1.614649	0.720913
H124	H	0.471613	-1.114649	1.220913
H125	H	0.032896	-1.718631	0.720881
H126	H	0.532896	-1.218631	1.220881
H127	H	-0.387514	-1.347615	0.000067
H128	H	0.112486	-0.847615	0.500067
H129	H	0.246227	-1.101438	0.000049
H130	H	0.746227	-0.601438	0.500049
H131	H	-0.138109	-1.682764	0.000134
H132	H	0.361891	-1.182764	0.500134
C133	C	0.262322	-0.842530	0.000080
C134	C	0.762322	-0.342530	0.500080
H135	H	0.250684	-0.756039	0.000109
H136	H	0.750684	-0.256039	0.500109
H137	H	0.291925	-0.860998	-0.084877
H138	H	0.791925	-0.360998	0.415123
H139	H	0.291927	-0.861017	0.085030
H140	H	0.791927	-0.361017	0.585030
C141	C	-0.677413	-1.751395	0.000096
C142	C	-0.177413	-1.251395	0.500096
H143	H	-0.646607	-1.823849	0.000113
H144	H	-0.146607	-1.323849	0.500113
H145	H	-0.709607	-1.751806	-0.084853
H146	H	-0.209607	-1.251806	0.415147
H147	H	-0.709615	-1.751798	0.085054
H148	H	-0.209615	-1.251798	0.585054
H149	H	-0.382273	-1.643941	0.000058
H150	H	0.117727	-1.143941	0.500058
H151	H	-0.016004	-0.890116	0.000152
H152	H	0.483996	-0.390116	0.500152
