data_functionalizedCrystal
_audit_creation_method	'MofGen! by Chris Wilmer'
_symmetry_space_group_name_H-M	'P1'
_symmetry_Int_Tables_number	1
_symmetry_cell_setting	triclinic
loop_
_symmetry_equiv_pos_as_xyz
  x,y,z
_cell_length_a	6.817900
_cell_length_b	15.185311
_cell_length_c	19.453114
_cell_angle_alpha	95.653796
_cell_angle_beta	101.709288
_cell_angle_gamma	104.261569
loop_
_atom_site_label
_atom_site_type_symbol
_atom_site_fract_x
_atom_site_fract_y
_atom_site_fract_z
V1	V	-4.010750	-0.126703	-0.219207
O2	O	-3.994583	0.005115	-0.214822
O3	O	-3.966209	-0.250294	-0.217911
O4	O	-3.953618	-0.125181	-0.314717
O5	O	-4.007262	-0.120864	-0.117346
V6	V	-4.495009	-0.110885	-0.206998
O7	O	-4.270393	-0.161399	-0.245986
O8	O	-4.685564	-0.076189	-0.180219
O9	O	-4.316344	0.012706	-0.208294
O10	O	-4.628573	-0.242703	-0.211383
O11	O	-4.615895	-0.116724	-0.308859
O12	O	-4.328935	-0.112407	-0.111488
C13	C	-3.812432	-0.280409	-0.214506
C14	C	-3.857243	-0.381449	-0.214083
C15	C	-4.012022	-0.795423	-0.147973
C16	C	-4.081629	-0.821924	-0.276667
C17	C	-4.039499	-0.726990	-0.277060
C18	C	-3.983631	-0.666268	-0.212908
C19	C	-3.969893	-0.700480	-0.148364
C20	C	-4.053254	-0.692771	-0.341603
C21	C	-4.011125	-0.597832	-0.341999
C22	C	-3.955241	-0.537108	-0.277846
C23	C	-3.941502	-0.571326	-0.213299
C24	C	-3.885634	-0.510604	-0.149148
C25	C	-3.871880	-0.544819	-0.084600
C26	C	-3.914010	-0.639757	-0.084211
C27	C	-3.913111	-0.442171	-0.278235
C28	C	-3.843505	-0.415661	-0.149539
C29	C	-3.796369	-0.120814	-0.337990
C30	C	-3.830966	-0.120388	-0.416072
C31	C	-4.029144	-0.124750	-0.456336
C32	C	-4.061652	-0.124350	-0.529702
C33	C	-3.895979	-0.119605	-0.562803
C34	C	-3.697771	-0.115238	-0.522529
C35	C	-3.665264	-0.115629	-0.449164
N36	N	-3.837735	-0.167606	-0.681671
N37	N	-3.868628	-0.167236	-0.751366
C38	C	-3.993909	-0.118424	-0.783850
N39	N	-4.087165	-0.070007	-0.744008
N40	N	-4.056276	-0.070381	-0.674307
C41	C	-3.931207	-0.119180	-0.642356
C42	C	-4.227348	-0.122351	-0.903666
C43	C	-4.259846	-0.121944	-0.977033
C44	C	-3.895963	-0.112841	-0.969859
C45	C	-3.863466	-0.113239	-0.896493
C46	C	-4.029168	-0.117998	-0.863402
C47	C	-4.133464	0.042816	-0.211697
C48	C	-4.067890	0.143855	-0.212124
C49	C	-4.149527	-0.116777	-0.088211
C50	C	-4.094168	-0.117198	-0.010129
H51	H	-4.098767	-0.742217	-0.393832
O52	O	-3.472732	-0.111268	-0.409990
C53	C	-3.403262	-0.032127	-0.357652
H54	H	-3.488418	0.020744	-0.375040
H55	H	-3.436575	-0.051552	-0.305209
C56	C	-3.062757	-0.055799	-0.326478
C57	C	-3.167333	0.009142	-0.347837
H58	H	-2.917224	-0.030344	-0.320420
H59	H	-3.109560	-0.109120	-0.361737
H60	H	-3.090540	-0.071981	-0.282777
H61	H	-3.139571	0.025313	-0.391541
H62	H	-3.120520	0.062466	-0.312585
O63	O	-3.789485	-0.356594	-0.087272
C64	C	-3.935931	-0.305311	-0.086977
H65	H	-4.017474	-0.304066	-0.144016
H66	H	-4.056026	-0.338447	-0.057408
C67	C	-3.723367	-0.207744	0.020509
C68	C	-3.823507	-0.206208	-0.049548
H69	H	-3.654023	-0.146614	0.043600
H70	H	-3.624706	-0.242296	0.020313
H71	H	-3.823464	-0.235362	0.045141
H72	H	-3.723407	-0.178601	-0.074180
H73	H	-3.922148	-0.171649	-0.049354
H74	H	-3.826399	-0.495368	-0.032368
H75	H	-3.902821	-0.667624	-0.031660
H76	H	-4.000818	-0.823285	-0.095419
O77	O	-4.135620	-0.880804	-0.339021
C78	C	-3.973622	-0.861284	-0.374918
H79	H	-3.875495	-0.787119	-0.355793
H80	H	-3.871477	-0.909801	-0.363443
C81	C	-4.187718	-0.965700	-0.478958
C82	C	-4.067208	-0.874606	-0.455472
H83	H	-4.245443	-0.973921	-0.528647
H84	H	-4.296857	-0.978854	-0.454773
H85	H	-4.102578	-1.006119	-0.469389
H86	H	-4.152353	-0.834189	-0.465033
H87	H	-3.958084	-0.861445	-0.479660
H88	H	-3.562879	-0.111372	-0.549484
O89	O	-3.671115	-0.109187	-0.857342
C90	C	-3.681274	-0.188307	-0.824392
H91	H	-3.847619	-0.218652	-0.819711
H92	H	-3.632013	-0.241335	-0.857696
C93	C	-3.329901	-0.124843	-0.755484
C94	C	-3.534206	-0.162108	-0.749729
H95	H	-3.239177	-0.108684	-0.709430
H96	H	-3.323052	-0.071540	-0.777685
H97	H	-3.288880	-0.169039	-0.783240
H98	H	-3.575233	-0.117909	-0.721982
H99	H	-3.541058	-0.215404	-0.727522
H100	H	-4.022323	-0.569983	-0.394558
O101	O	-3.734872	-0.108068	-1.001951
C102	C	-3.576464	-0.026280	-0.972172
H103	H	-3.646190	0.026252	-0.947353
H104	H	-3.453148	-0.041560	-0.929533
C105	C	-3.390182	-0.051783	-1.061250
C106	C	-3.475823	0.012741	-1.030772
H107	H	-3.328093	-0.027714	-1.097396
H108	H	-3.496899	-0.106887	-1.081312
H109	H	-3.287430	-0.064511	-1.025711
H110	H	-3.578590	0.025459	-1.066309
H111	H	-3.369120	0.067848	-1.010717
H112	H	-4.164073	-0.128622	-0.429398
O113	O	-3.926807	-0.409048	-0.340978
C114	C	-4.131153	-0.444691	-0.383354
H115	H	-4.209474	-0.511321	-0.365885
H116	H	-4.223651	-0.392503	-0.376986
C117	C	-4.027426	-0.382279	-0.483297
C118	C	-4.123615	-0.464120	-0.461845
H119	H	-4.022780	-0.394260	-0.531714
H120	H	-3.889756	-0.358262	-0.454747
H121	H	-4.104520	-0.338797	-0.477984
H122	H	-4.046507	-0.507596	-0.467149
H123	H	-4.261273	-0.488144	-0.490398
H124	H	-4.362271	-0.126222	-0.876721
H125	H	-4.223040	-0.127907	-0.562493
H126	H	-4.421226	-0.125490	-1.009814
