data_functionalizedCrystal
_audit_creation_method	'MofGen! by Chris Wilmer'
_symmetry_space_group_name_H-M	'P1'
_symmetry_Int_Tables_number	1
_symmetry_cell_setting	triclinic
loop_
_symmetry_equiv_pos_as_xyz
  x,y,z
_cell_length_a	10.654562
_cell_length_b	10.654550
_cell_length_c	9.730223
_cell_angle_alpha	89.999807
_cell_angle_beta	89.996961
_cell_angle_gamma	84.487503
loop_
_atom_site_label
_atom_site_type_symbol
_atom_site_fract_x
_atom_site_fract_y
_atom_site_fract_z
O1	O	1.667825	0.176469	-0.114377
O2	O	1.302348	0.193259	-0.114359
O3	O	1.493489	0.002125	-0.114363
O4	O	1.476683	0.367603	-0.114373
O5	O	1.493487	0.002130	0.114217
O6	O	1.302346	0.193264	0.114221
O7	O	1.667822	0.176474	0.114203
Zn8	Zn	1.485084	0.184870	0.150504
Zn9	Zn	1.485087	0.184863	-0.150660
O10	O	1.476681	0.367608	0.114207
C11	C	1.255549	0.192025	-0.000067
C12	C	1.116107	0.188327	-0.000060
C13	C	1.050575	0.186604	0.124528
C14	C	0.919553	0.183139	0.124505
C15	C	0.919605	0.183125	-0.124705
C16	C	1.050626	0.186581	-0.124681
C17	C	1.050543	0.186618	0.268408
C18	C	0.919521	0.183153	0.268385
C19	C	1.492254	-0.044671	-0.000075
C20	C	1.488563	-0.184114	-0.000079
C21	C	1.601103	-0.263595	-0.000081
C22	C	1.597627	-0.394615	-0.000090
C23	C	1.369059	-0.366662	-0.000091
C24	C	1.372537	-0.235644	-0.000092
C25	C	1.733066	-0.279734	-0.000074
C26	C	1.729589	-0.410755	-0.000083
C27	C	1.714621	0.177708	-0.000092
C28	C	1.854064	0.181406	-0.000108
C29	C	1.477916	0.414403	-0.000084
C30	C	1.481608	0.553847	-0.000088
N31	N	1.485091	0.184873	0.356040
N32	N	1.485089	0.184850	-0.356196
C33	C	1.569750	0.100268	0.427965
C34	C	1.569747	0.100253	0.571848
C35	C	1.400421	0.269459	0.571869
C36	C	1.400419	0.269467	0.427989
C37	C	1.667513	0.002582	0.427953
C38	C	1.667510	0.002567	0.571836
H39	H	1.080117	0.278215	0.313049
H40	H	0.889932	0.091560	0.313033
O41	O	0.864489	0.286802	0.334251
C42	C	0.895866	0.479046	0.454443
C43	C	0.958349	0.361743	0.379862
H44	H	0.971724	0.539655	0.491366
H45	H	0.829497	0.536062	0.380826
H46	H	0.840109	0.448209	0.546443
H47	H	1.014171	0.392469	0.287867
H48	H	1.024646	0.304754	0.453571
O49	O	1.641698	-0.112528	0.381429
C50	C	1.493307	-0.269497	0.377142
C51	C	1.522373	-0.139110	0.429892
H52	H	1.396845	-0.291042	0.416327
H53	H	1.493210	-0.269549	0.259977
H54	H	1.568404	-0.344473	0.416150
H55	H	1.447307	-0.064061	0.390985
H56	H	1.522515	-0.139164	0.547056
H57	H	1.103980	0.187964	-0.226133
O58	O	0.855909	0.181658	-0.245719
C59	C	0.694689	0.286316	-0.390343
C60	C	0.766745	0.288145	-0.253259
H61	H	0.622566	0.372387	-0.396471
H62	H	0.763968	0.288223	-0.479443
H63	H	0.644129	0.196920	-0.396560
H64	H	0.817308	0.377526	-0.246907
H65	H	0.697406	0.286170	-0.164225
O66	O	1.794645	-0.244486	-0.114092
C67	C	1.867726	-0.072765	-0.243241
C68	C	1.797997	-0.112514	-0.114046
H69	H	1.870436	0.033939	-0.243262
H70	H	1.968137	-0.120619	-0.243279
H71	H	1.816145	-0.102194	-0.338888
H72	H	1.849472	-0.083092	-0.018331
H73	H	1.697583	-0.064671	-0.114130
H74	H	1.280895	-0.170935	-0.000110
H75	H	1.769471	-0.456398	-0.098780
O76	O	1.782978	-0.237396	0.117868
C77	C	1.872895	-0.292016	0.339651
C78	C	1.816625	-0.340163	0.206040
H79	H	1.900090	-0.375075	0.410986
H80	H	1.960189	-0.242358	0.314436
H81	H	1.799972	-0.222945	0.392485
H82	H	1.889454	-0.409279	0.153140
H83	H	1.729306	-0.389747	0.231344
H84	H	1.779310	-0.452511	0.095573
H85	H	1.274594	-0.408635	-0.000102
H86	H	1.096802	0.099825	0.323663
O87	O	1.318127	0.351764	0.358334
C88	C	1.150110	0.519523	0.373545
C89	C	1.243265	0.426408	0.452600
H90	H	1.089542	0.579879	0.449724
H91	H	1.204796	0.582872	0.306220
H92	H	1.086968	0.464681	0.306149
H93	H	1.306430	0.481148	0.520070
H94	H	1.188501	0.363059	0.519838
H95	H	1.331483	0.338332	0.630465
H96	H	1.758696	0.033175	0.383322
H97	H	1.636997	-0.088657	0.616456
O98	O	1.782698	0.028305	0.618198
C99	C	1.992628	0.075043	0.558115
C100	C	1.862234	0.045943	0.505424
H101	H	2.056978	0.089286	0.466965
H102	H	1.982012	0.164426	0.623168
H103	H	2.035454	-0.007136	0.623238
H104	H	1.819336	0.128044	0.440245
H105	H	1.872932	-0.043482	0.440446
