data_functionalizedCrystal
_audit_creation_method	'MofGen! by Chris Wilmer'
_symmetry_space_group_name_H-M	'P1'
_symmetry_Int_Tables_number	1
_symmetry_cell_setting	triclinic
loop_
_symmetry_equiv_pos_as_xyz
  x,y,z
_cell_length_a	29.839134
_cell_length_b	29.839131
_cell_length_c	12.759393
_cell_angle_alpha	89.962110
_cell_angle_beta	89.966250
_cell_angle_gamma	90.034165
loop_
_atom_site_label
_atom_site_type_symbol
_atom_site_fract_x
_atom_site_fract_y
_atom_site_fract_z
Zn1	Zn	0.686761	-0.178914	-0.594363
Zn2	Zn	0.686681	-0.254052	-0.418663
Zn3	Zn	0.611632	-0.178928	-0.418655
Zn4	Zn	0.611592	-0.254008	-0.594258
O5	O	0.649167	-0.216475	-0.506485
O6	O	0.749618	-0.188894	-0.571103
O7	O	0.676709	-0.244111	-0.271641
O8	O	0.621648	-0.116059	-0.442004
O9	O	0.749559	-0.244098	-0.442017
O10	O	0.676846	-0.116048	-0.571095
O11	O	0.621570	-0.188917	-0.271635
O12	O	0.548760	-0.188874	-0.441902
O13	O	0.621580	-0.244022	-0.741293
O14	O	0.548730	-0.244036	-0.570917
O15	O	0.676807	-0.188851	-0.741370
O16	O	0.676670	-0.316913	-0.441916
O17	O	0.621503	-0.316881	-0.570924
C18	C	0.532444	-0.216452	-0.506398
C19	C	0.482510	-0.216453	-0.506386
C20	C	0.125925	-0.187710	-0.439444
C21	C	0.313598	-0.187698	-0.439380
O22	O	0.337865	-0.163222	-0.382366
N23	N	0.337065	-0.216460	-0.506438
C24	C	0.313610	-0.245226	-0.573522
O25	O	0.337875	-0.269686	-0.630565
C26	C	0.125937	-0.245236	-0.573590
C27	C	0.102474	-0.216475	-0.506520
C28	C	0.102461	-0.158951	-0.372380
C29	C	0.055546	-0.158957	-0.372393
C30	C	0.032094	-0.187721	-0.439469
C31	C	0.055558	-0.216480	-0.506533
C32	C	0.102483	-0.273999	-0.640679
C33	C	0.055562	-0.273998	-0.640692
C34	C	0.032099	-0.245237	-0.573622
C35	C	-0.014809	-0.245249	-0.573622
N36	N	-0.038275	-0.216487	-0.506564
C37	C	-0.014823	-0.187723	-0.439487
C38	C	0.412140	-0.245219	-0.573480
C39	C	0.459058	-0.245217	-0.573462
C40	C	0.459044	-0.187688	-0.439321
C41	C	0.412125	-0.187693	-0.439335
C42	C	0.388674	-0.216457	-0.506422
C43	C	-0.113349	-0.187736	-0.439518
C44	C	-0.160269	-0.187745	-0.439534
C45	C	-0.160250	-0.245272	-0.573678
C46	C	-0.113335	-0.245265	-0.573659
C47	C	-0.089885	-0.216493	-0.506576
O48	O	-0.039105	-0.269709	-0.630614
O49	O	-0.039097	-0.163259	-0.382469
C50	C	0.172841	-0.187705	-0.439431
C51	C	0.196305	-0.216464	-0.506495
C52	C	0.172853	-0.245228	-0.573572
C53	C	0.243222	-0.216462	-0.506477
C54	C	0.266674	-0.187698	-0.439401
C55	C	0.243208	-0.158936	-0.372342
C56	C	0.196292	-0.158941	-0.372355
C57	C	0.196319	-0.273991	-0.640630
C58	C	0.243235	-0.273984	-0.640611
C59	C	0.266686	-0.245219	-0.573535
C60	C	0.649086	-0.333198	-0.506433
C61	C	0.649092	-0.383132	-0.506445
C62	C	0.677945	-0.692780	-0.439408
C63	C	0.678000	-0.880453	-0.439449
O64	O	0.702468	-0.904721	-0.382411
N65	N	0.649260	-0.903917	-0.506564
C66	C	0.620506	-0.880461	-0.573679
O67	O	0.596065	-0.904725	-0.630773
C68	C	0.620453	-0.692788	-0.573642
C69	C	0.649192	-0.669326	-0.506515
C70	C	0.706682	-0.669318	-0.372287
C71	C	0.706666	-0.622403	-0.372274
C72	C	0.677913	-0.598949	-0.439381
C73	C	0.649176	-0.622411	-0.506502
C74	C	0.591701	-0.669332	-0.640761
C75	C	0.591691	-0.622411	-0.640748
C76	C	0.620430	-0.598950	-0.573621
C77	C	0.620407	-0.552042	-0.573595
N78	N	0.649147	-0.528578	-0.506480
C79	C	0.677900	-0.552031	-0.439373
C80	C	0.620535	-0.978991	-0.573691
C81	C	0.620547	-1.025909	-0.573699
C82	C	0.678043	-1.025898	-0.439471
C83	C	0.678027	-0.978980	-0.439458
C84	C	0.649275	-0.955527	-0.506576
C85	C	0.677865	-0.453505	-0.439349
C86	C	0.677845	-0.406586	-0.439338
C87	C	0.620351	-0.406601	-0.573570
C88	C	0.620369	-0.453516	-0.573577
C89	C	0.649130	-0.476967	-0.506463
O90	O	0.595956	-0.527745	-0.630611
O91	O	0.702345	-0.527759	-0.382304
C92	C	0.677961	-0.739695	-0.439422
C93	C	0.649224	-0.763157	-0.506542
C94	C	0.620471	-0.739704	-0.573650
C95	C	0.649236	-0.810075	-0.506550
C96	C	0.677989	-0.833529	-0.439443
C97	C	0.706729	-0.810064	-0.372328
C98	C	0.706714	-0.763149	-0.372315
C99	C	0.591730	-0.763168	-0.640765
C100	C	0.591748	-0.810084	-0.640772
C101	C	0.620501	-0.833537	-0.573665
C102	C	0.766345	-0.216499	-0.506573
C103	C	0.816279	-0.216509	-0.506610
C104	C	0.649198	-0.216430	-0.780518
C105	C	0.649212	-0.216411	-0.897295
C106	C	0.649260	-0.099297	-0.506560
C107	C	0.649300	-0.049363	-0.506592
C108	C	0.677972	-0.187680	-0.952199
C109	C	0.677983	-0.187664	-1.061923
C110	C	0.620471	-0.245113	-1.061830
C111	C	0.620459	-0.245126	-0.952108
C112	C	0.711177	-0.154514	-0.952253
C113	C	0.711188	-0.154498	-1.061977
C114	C	0.649161	-0.216488	-0.233517
C115	C	0.649235	-0.216381	-0.116741
H116	H	0.393024	-0.164272	-0.384724
H117	H	0.730069	-0.603303	-0.317616
C118	C	0.484487	-0.156511	-0.366323
C119	C	0.473049	-0.166244	-0.262328
C120	C	0.496485	-0.137536	-0.195064
H121	H	0.476840	-0.126318	-0.381697
H122	H	0.515793	-0.160635	-0.375853
H123	H	0.441750	-0.162116	-0.252803
H124	H	0.480697	-0.196432	-0.246922
H125	H	0.527792	-0.141661	-0.204594
H126	H	0.488837	-0.107345	-0.210447
H127	H	0.488731	-0.144139	-0.124496
H128	H	0.701429	-0.959880	-0.384798
C129	C	0.755227	-0.171219	-0.907028
C130	C	0.762993	-0.215135	-0.941056
C131	C	0.803569	-0.230537	-0.899426
H132	H	0.753749	-0.170699	-0.832670
H133	H	0.778964	-0.152401	-0.930083
H134	H	0.739261	-0.233949	-0.917995
H135	H	0.764479	-0.215668	-1.015407
H136	H	0.827306	-0.211718	-0.922481
H137	H	0.802087	-0.230014	-0.825070
H138	H	0.808845	-0.260333	-0.922516
H139	H	0.701885	-0.119721	-0.922501
C140	C	0.589208	-0.276308	-1.121154
C141	C	0.564011	-0.301464	-1.049583
C142	C	0.535202	-0.330203	-1.104191
H143	H	0.606331	-0.295920	-1.163959
H144	H	0.569628	-0.259121	-1.163931
H145	H	0.583589	-0.318649	-1.006824
H146	H	0.546878	-0.281864	-1.006775
H147	H	0.515622	-0.313016	-1.146968
H148	H	0.552329	-0.349812	-1.146994
H149	H	0.518100	-0.347272	-1.055638
C150	C	0.589300	-0.276342	-0.892368
C151	C	0.614699	-0.305148	-0.829348
C152	C	0.586008	-0.333907	-0.774294
H153	H	0.572170	-0.293483	-0.940614
H154	H	0.569743	-0.259168	-0.849508
H155	H	0.634248	-0.322321	-0.872205
H156	H	0.631828	-0.288020	-0.781083
H157	H	0.566451	-0.316733	-0.731433
H158	H	0.568879	-0.351045	-0.822547
H159	H	0.603237	-0.353453	-0.731521
C160	C	0.030158	-0.305201	-0.713703
C161	C	0.041618	-0.295470	-0.817686
C162	C	0.018230	-0.324208	-0.884970
H163	H	-0.001152	-0.301114	-0.704254
H164	H	0.037837	-0.335386	-0.698269
H165	H	0.033937	-0.265292	-0.833115
H166	H	0.072924	-0.299560	-0.827169
H167	H	0.025908	-0.354393	-0.869536
H168	H	-0.013079	-0.320118	-0.875511
H169	H	0.026005	-0.317612	-0.955528
C170	C	0.170803	-0.305251	-0.713284
C171	C	0.143829	-0.334013	-0.653683
C172	C	0.120315	-0.362815	-0.720576
H173	H	0.191450	-0.322421	-0.753240
H174	H	0.152496	-0.288105	-0.759128
H175	H	0.162134	-0.351156	-0.607858
H176	H	0.123174	-0.316855	-0.613730
H177	H	0.102007	-0.345670	-0.766420
H178	H	0.140964	-0.379982	-0.760528
H179	H	0.102007	-0.382331	-0.680147
H180	H	0.568278	-0.603318	-0.695407
H181	H	0.698754	-0.121438	-1.096026
H182	H	-0.094230	-0.268688	-0.628265
C183	C	0.757534	-0.166988	-1.101875
C184	C	0.754592	-0.205888	-1.162793
C185	C	0.797274	-0.217402	-1.199578
H186	H	0.776896	-0.172215	-1.044083
H187	H	0.769119	-0.143184	-1.143317
H188	H	0.743014	-0.229687	-1.121352
H189	H	0.735240	-0.200672	-1.220599
H190	H	0.808859	-0.193598	-1.241020
H191	H	0.816632	-0.222627	-1.141780
H192	H	0.795283	-0.243794	-1.240922
H193	H	0.036446	-0.135536	-0.317777
H194	H	0.121579	-0.297419	-0.695294
H195	H	-0.179371	-0.164324	-0.384914
H196	H	0.730098	-0.688409	-0.317640
C197	C	-0.087836	-0.156575	-0.366619
C198	C	-0.060927	-0.181977	-0.299181
C199	C	-0.037414	-0.153290	-0.232017
H200	H	-0.108483	-0.139440	-0.326582
H201	H	-0.069485	-0.137022	-0.406846
H202	H	-0.079277	-0.201522	-0.258958
H203	H	-0.040272	-0.199111	-0.339189
H204	H	-0.019062	-0.133737	-0.272244
H205	H	-0.058064	-0.136156	-0.191987
H206	H	-0.019150	-0.170521	-0.186259
H207	H	-0.179353	-0.268692	-0.628286
C208	C	0.127837	-0.127703	-0.299428
C209	C	0.097237	-0.102530	-0.240692
C210	C	0.120593	-0.073744	-0.173456
H211	H	0.146166	-0.108103	-0.339561
H212	H	0.146104	-0.144856	-0.253511
H213	H	0.078978	-0.085378	-0.286603
H214	H	0.078907	-0.122117	-0.200537
H215	H	0.138860	-0.090897	-0.127539
H216	H	0.138922	-0.054147	-0.213598
H217	H	0.099835	-0.056663	-0.133589
H218	H	0.478158	-0.268642	-0.628066
H219	H	0.701455	-1.045002	-0.384830
H220	H	0.393051	-0.268643	-0.628113
H221	H	0.177192	-0.135520	-0.317741
C222	C	0.560483	-0.694716	-0.713764
C223	C	0.535314	-0.664125	-0.772547
C224	C	0.506554	-0.687491	-0.839823
H225	H	0.540879	-0.713052	-0.673658
H226	H	0.577654	-0.712977	-0.759650
H227	H	0.518145	-0.645872	-0.726667
H228	H	0.554906	-0.645789	-0.812674
H229	H	0.523725	-0.705752	-0.885709
H230	H	0.486953	-0.705826	-0.799709
H231	H	0.489477	-0.666739	-0.879722
C232	C	0.268756	-0.127722	-0.299631
C233	C	0.314866	-0.133870	-0.314004
C234	C	0.338417	-0.105120	-0.247060
H235	H	0.261100	-0.134232	-0.228969
H236	H	0.261115	-0.097535	-0.315149
H237	H	0.322504	-0.164051	-0.298479
H238	H	0.322536	-0.127357	-0.384652
H239	H	0.330776	-0.074933	-0.262577
H240	H	0.330757	-0.111632	-0.176402
H241	H	0.369705	-0.109285	-0.256809
H242	H	0.701248	-0.387485	-0.384672
C243	C	0.268625	-0.305230	-0.713551
C244	C	0.238039	-0.330410	-0.772312
C245	C	0.261411	-0.359190	-0.839530
H246	H	0.286910	-0.324826	-0.673403
H247	H	0.286939	-0.288073	-0.759453
H248	H	0.219734	-0.347566	-0.726416
H249	H	0.219754	-0.310826	-0.812481
H250	H	0.279724	-0.342033	-0.885432
H251	H	0.279695	-0.378783	-0.799374
H252	H	0.240662	-0.376275	-0.879414
H253	H	0.701285	-0.472594	-0.384701
H254	H	0.597141	-1.045008	-0.628351
C255	C	0.589262	-0.953613	-0.646598
C256	C	0.564089	-0.984210	-0.705345
C257	C	0.535269	-0.960850	-0.772501
H258	H	0.606376	-0.935278	-0.692519
H259	H	0.569667	-0.935351	-0.606374
H260	H	0.583682	-1.002464	-0.745565
H261	H	0.546966	-1.002545	-0.659451
H262	H	0.515674	-0.942588	-0.732278
H263	H	0.552387	-0.942516	-0.818415
H264	H	0.518183	-0.981606	-0.812362
C265	C	0.589149	-0.478911	-0.646569
C266	C	0.563973	-0.448327	-0.705351
C267	C	0.535216	-0.471700	-0.772622
H268	H	0.569550	-0.497250	-0.606459
H269	H	0.606323	-0.497169	-0.692456
H270	H	0.546800	-0.430076	-0.659471
H271	H	0.583560	-0.429986	-0.745483
H272	H	0.552390	-0.489958	-0.818508
H273	H	0.515620	-0.490039	-0.732503
H274	H	0.518133	-0.450952	-0.812520
H275	H	0.730116	-0.744050	-0.317654
C276	C	0.737944	-0.835615	-0.299614
C277	C	0.731816	-0.881724	-0.314036
C278	C	0.760572	-0.905277	-0.247102
H279	H	0.731427	-0.828020	-0.228947
H280	H	0.768129	-0.827914	-0.315110
H281	H	0.701638	-0.889421	-0.298532
H282	H	0.738336	-0.889332	-0.384688
H283	H	0.790757	-0.897576	-0.262599
H284	H	0.754053	-0.897678	-0.176440
H285	H	0.756421	-0.936564	-0.256885
H286	H	0.596940	-0.387498	-0.628205
H287	H	0.568341	-0.829182	-0.695434
H288	H	0.568317	-0.744076	-0.695413
