data_functionalizedCrystal
_audit_creation_method	'MofGen! by Chris Wilmer'
_symmetry_space_group_name_H-M	'P1'
_symmetry_Int_Tables_number	1
_symmetry_cell_setting	triclinic
loop_
_symmetry_equiv_pos_as_xyz
  x,y,z
_cell_length_a	14.446369
_cell_length_b	17.917603
_cell_length_c	14.446369
_cell_angle_alpha	57.013865
_cell_angle_beta	90.002026
_cell_angle_gamma	63.032965
loop_
_atom_site_label
_atom_site_type_symbol
_atom_site_fract_x
_atom_site_fract_y
_atom_site_fract_z
Zr1	Zr	0.937973	0.818580	-0.167647
O2	O	0.798970	0.974606	-0.324260
O3	O	0.974478	0.662554	-0.113529
O4	O	0.983284	0.818571	-0.315446
O5	O	0.790164	0.818595	0.029985
O6	O	1.135621	0.818564	-0.315440
O7	O	0.790164	0.818588	-0.122343
O8	O	1.119868	0.539478	0.045753
O9	O	0.805917	1.097682	-0.331208
O10	O	1.111112	0.726724	-0.097822
O11	O	0.997425	0.726734	0.015854
O12	O	1.007793	0.910425	-0.221877
O13	O	0.894106	0.910435	-0.108201
Zr14	Zr	1.180933	0.818580	0.075309
Zr15	Zr	1.180933	0.818569	-0.167637
Zr16	Zr	0.937973	0.818590	0.075300
Zr17	Zr	0.949052	1.014872	-0.178727
Zr18	Zr	1.169854	0.622288	0.086389
O19	O	1.144428	0.974606	0.021191
O20	O	1.144427	0.974590	-0.324247
O21	O	0.798971	0.974621	0.021178
O22	O	1.319936	0.662554	0.231923
O23	O	1.319935	0.662538	-0.113515
O24	O	0.974478	0.662569	0.231909
O25	O	1.328742	0.818564	-0.122322
O26	O	1.135622	0.818588	0.223108
O27	O	0.983285	0.818595	0.223102
O28	O	1.328742	0.818571	0.030006
O29	O	0.999037	1.097673	-0.331200
O30	O	1.119869	0.539486	0.238863
O31	O	1.312989	0.539478	0.238870
O32	O	1.312989	0.539469	0.045760
O33	O	0.805917	1.097690	-0.138098
O34	O	0.999037	1.097682	-0.138090
O35	O	1.111112	0.726734	0.129540
O36	O	1.224800	0.726724	0.015863
O37	O	1.121481	0.910425	-0.108192
O38	O	1.007794	0.910435	0.005485
C39	C	1.045595	0.573048	-0.032309
C40	C	1.040891	0.489717	-0.027606
C41	C	0.755548	0.818593	-0.046181
C42	C	0.652405	0.818598	-0.046185
C43	C	1.032298	0.337148	-0.019016
C44	C	1.086605	0.300006	-0.073319
C45	C	1.081824	0.215112	-0.068539
C46	C	1.037078	0.422050	-0.023794
C47	C	0.440575	0.934445	-0.124064
C48	C	0.547811	0.934524	-0.124469
C49	C	0.645833	0.761045	-0.095234
C50	C	0.538106	0.761781	-0.095799
C51	C	0.539335	0.759403	0.080886
C52	C	0.645427	0.761586	0.080568
C53	C	1.363358	0.818566	-0.046157
C54	C	1.466501	0.818562	-0.046153
C55	C	1.059453	0.818566	-0.350057
C56	C	1.059452	0.818562	-0.453194
C57	C	1.073311	1.064111	-0.060028
C58	C	1.078014	1.147442	-0.064732
C59	C	1.124973	0.702714	-0.521635
C60	C	1.124657	0.702636	-0.414302
C61	C	0.939171	0.876114	-0.531007
C62	C	0.939524	0.875379	-0.637825
C63	C	1.113266	0.877757	-0.639526
C64	C	1.115642	0.875573	-0.530731
C65	C	1.059453	0.818593	0.257720
C66	C	1.059453	0.818598	0.360857
C67	C	1.349500	0.573035	-0.032297
C68	C	1.447939	0.489699	-0.027590
C69	C	1.045595	0.573062	0.271579
C70	C	1.040892	0.489735	0.379420
C71	C	1.349500	0.573048	0.271591
C72	C	1.447940	0.489717	0.379436
C73	C	0.769406	1.064111	-0.363929
C74	C	0.670966	1.147442	-0.471774
C75	C	0.769406	1.064125	-0.060040
C76	C	0.670967	1.147460	-0.064748
C77	C	1.073311	1.064098	-0.363917
C78	C	1.078014	1.147424	-0.471758
C79	C	1.434824	0.450564	-0.084732
C80	C	1.527309	0.372272	-0.080331
C81	C	1.632909	0.333111	-0.018782
C82	C	1.646023	0.372254	0.038362
C83	C	1.553539	0.450550	0.033954
C84	C	1.098027	0.450604	0.489416
C85	C	1.093604	0.372321	0.590753
C86	C	1.032052	0.333165	0.582091
C87	C	0.974910	0.372304	0.472083
C88	C	0.979327	0.450591	0.370749
C89	C	1.553522	0.450579	0.370743
C90	C	1.646026	0.372291	0.472065
C91	C	1.632945	0.333138	0.582079
C92	C	1.527353	0.372284	0.590769
C93	C	1.434851	0.450576	0.489448
C94	C	0.565385	1.186590	-0.463081
C95	C	0.472882	1.264902	-0.564404
C96	C	0.485962	1.304059	-0.674418
C97	C	0.591555	1.264908	-0.683108
C98	C	0.684056	1.186603	-0.581787
C99	C	0.684082	1.186604	-0.007616
C100	C	0.591598	1.264917	-0.012045
C101	C	0.485999	1.304081	-0.073598
C102	C	0.472885	1.264934	-0.130736
C103	C	0.565368	1.186627	-0.126315
C104	C	1.139576	1.186556	-0.463058
C105	C	1.144017	1.264839	-0.564376
C106	C	1.086889	1.303996	-0.674393
C107	C	1.025324	1.264857	-0.683089
C108	C	1.020890	1.186569	-0.581772
H109	H	1.136689	0.331967	-0.123399
Br110	Br	1.227569	1.317944	-0.552546
Br111	Br	0.458032	0.829949	-0.251363
H112	H	0.982216	0.305191	0.031059
H113	H	1.708206	0.269357	-0.015201
Br114	Br	1.092916	1.410246	-0.811885
H115	H	0.559961	0.676758	-0.042378
H116	H	0.978812	1.296750	-0.772679
H117	H	0.386893	1.296833	-0.180852
Br118	Br	0.768261	0.618975	-0.004748
Br119	Br	1.291564	0.503678	0.501267
Br120	Br	1.272702	0.626890	-0.513450
Br121	Br	0.360413	1.410332	-0.811917
Br122	Br	0.547602	1.133463	-0.313789
Br123	Br	1.571304	0.503703	0.221452
Br124	Br	0.329592	1.318017	-0.552583
H125	H	0.970755	1.154717	-0.588872
H126	H	0.547929	0.979949	-0.218283
Br127	Br	0.853807	1.018183	-0.584422
H128	H	0.548613	0.979908	-0.092224
Br129	Br	0.609288	1.318059	-0.832423
Br130	Br	0.354919	1.010263	-0.070176
H131	H	1.186098	1.154686	-0.373487
Br132	Br	0.901782	0.503683	0.221473
H133	H	0.770022	1.154729	-0.588878
H134	H	0.388144	0.979702	-0.217317
Br135	Br	0.653151	0.827658	-0.249272
H136	H	0.770059	1.154723	0.042514
Br137	Br	1.026068	0.226917	0.719630
H138	H	0.554673	1.154759	-0.172835
H139	H	1.200764	0.840670	-0.641546
Br140	Br	0.459442	0.821194	0.150225
Br141	Br	1.789316	0.319178	0.460244
Br142	Br	1.181576	0.503722	0.501204
H143	H	0.647277	0.803549	0.117269
H144	H	1.213072	0.657481	-0.357476
Br145	Br	0.577062	0.617114	0.177961
Br146	Br	0.769385	0.620605	0.184609
Br147	Br	1.062909	0.627280	-0.515650
H148	H	1.087086	0.657193	-0.357952
Br149	Br	1.758496	0.226884	0.719576
Br150	Br	0.868329	0.807219	-0.633537
Br151	Br	0.853172	1.017083	-0.776801
Br152	Br	0.609421	1.318026	0.065510
H153	H	0.896221	0.836145	-0.477150
Br154	Br	0.360495	1.410356	-0.079587
Br155	Br	0.891380	0.319151	0.460348
H156	H	1.204286	0.833601	-0.476941
H157	H	1.073387	0.960146	-0.561022
H158	H	1.732014	0.340358	0.088474
Br159	Br	1.034232	1.020043	-0.777919
H160	H	1.348848	0.482447	-0.134866
H161	H	1.140140	0.340463	0.680315
Br162	Br	1.571358	0.503648	0.111520
Br163	Br	1.509486	0.319164	-0.157887
H164	H	1.516719	0.340394	0.680356
