data_functionalizedCrystal
_audit_creation_method	'MofGen! by Chris Wilmer'
_symmetry_space_group_name_H-M	'P1'
_symmetry_Int_Tables_number	1
_symmetry_cell_setting	triclinic
loop_
_symmetry_equiv_pos_as_xyz
  x,y,z
_cell_length_a	10.489741
_cell_length_b	10.654541
_cell_length_c	9.730217
_cell_angle_alpha	90.004878
_cell_angle_beta	90.001022
_cell_angle_gamma	84.511551
loop_
_atom_site_label
_atom_site_type_symbol
_atom_site_fract_x
_atom_site_fract_y
_atom_site_fract_z
O1	O	1.693965	0.177193	0.114204
O2	O	1.322761	0.193826	0.114226
O3	O	1.516899	0.002774	0.114206
O4	O	1.499827	0.368245	0.114224
O5	O	1.516885	0.002766	-0.114374
O6	O	1.322747	0.193818	-0.114354
O7	O	1.693951	0.177186	-0.114376
Zn8	Zn	1.508347	0.185500	-0.150657
Zn9	Zn	1.508365	0.185511	0.150507
O10	O	1.499813	0.368237	-0.114356
C11	C	1.515640	-0.044029	-0.000083
C12	C	1.511891	-0.183474	-0.000081
C13	C	1.275223	0.192565	-0.000062
C14	C	1.133596	0.188807	-0.000054
C15	C	1.744036	-0.211336	-0.000111
C16	C	1.858342	-0.290777	-0.000129
C17	C	1.854812	-0.421796	-0.000125
C18	C	1.736963	-0.473377	-0.000098
C19	C	1.622657	-0.393936	-0.000080
C20	C	1.626200	-0.262915	-0.000089
C21	C	1.390515	-0.366074	-0.000039
C22	C	1.394042	-0.235054	-0.000054
C23	C	1.272666	-0.417655	-0.000013
C24	C	1.158358	-0.338214	-0.000005
C25	C	1.161893	-0.207187	-0.000011
C26	C	1.279736	-0.155614	-0.000036
C27	C	1.065515	0.067247	-0.000073
C28	C	0.973367	0.124674	0.112629
C29	C	0.973387	0.124696	-0.112733
C30	C	1.043313	0.246285	0.112741
C31	C	1.043342	0.246289	-0.112722
C32	C	0.951222	0.303806	0.000007
C33	C	1.741489	0.178446	-0.000085
C34	C	1.883117	0.182204	-0.000084
C35	C	1.501073	0.415040	-0.000064
C36	C	1.504821	0.554485	-0.000058
N37	N	1.508344	0.185493	-0.356194
C38	C	1.352294	0.031644	-0.356248
C39	C	1.274283	-0.045284	-0.428215
C40	C	1.274302	-0.045284	-0.572095
C41	C	1.352337	0.031654	-0.644011
C42	C	1.430348	0.108581	-0.572044
C43	C	1.430324	0.108570	-0.428161
C44	C	1.586390	0.262436	-0.571989
C45	C	1.586379	0.262431	-0.428110
C46	C	1.664425	0.339374	-0.643905
C47	C	1.742445	0.416296	-0.571938
C48	C	1.742424	0.416292	-0.428050
C49	C	1.664391	0.339358	-0.356142
N50	N	1.508379	0.185508	0.356044
H51	H	1.746922	-0.104654	-0.000133
H52	H	1.947890	-0.486478	-0.000129
N53	N	1.826560	0.499270	-0.350431
H54	H	1.875992	0.548005	-0.417826
H55	H	1.888436	0.445116	-0.290733
H56	H	1.352280	0.031627	-0.239094
H57	H	1.734099	-0.580061	-0.000078
N58	N	1.826607	0.499277	-0.649488
H59	H	1.771615	0.560217	-0.709179
H60	H	1.888557	0.445117	-0.709107
N61	N	1.031269	-0.393857	0.000019
H62	H	0.981127	-0.364983	-0.084713
H63	H	0.981247	-0.364941	0.084813
N64	N	1.084450	0.314383	-0.238909
H65	H	1.041175	0.403233	-0.239788
H66	H	1.059299	0.268307	-0.323951
H67	H	1.954292	-0.248765	-0.000163
N68	N	1.084123	0.314349	0.239103
H69	H	1.058080	0.268777	0.324115
H70	H	1.041443	0.403432	0.239377
N71	N	1.283561	-0.014303	-0.000034
H72	H	1.238858	0.022731	0.084711
H73	H	1.238851	0.022626	-0.084814
N74	N	1.664376	0.339346	-0.200959
H75	H	1.603106	0.278936	-0.166327
H76	H	1.636559	0.427093	-0.166401
H77	H	1.210745	-0.107923	-0.369645
N78	N	1.268851	-0.558967	-0.000000
H79	H	1.359144	-0.601468	-0.000021
H80	H	1.222354	-0.584953	-0.084729
N81	N	0.932371	0.056542	-0.238944
H82	H	0.974357	-0.032810	-0.238841
H83	H	0.959057	0.101651	-0.323995
H84	H	1.115254	-0.032684	0.000064
N85	N	1.190161	-0.128248	-0.649727
H86	H	1.140721	-0.176987	-0.582343
H87	H	1.245258	-0.189102	-0.709419
N88	N	1.665010	0.338829	-0.799086
H89	H	1.603942	0.278235	-0.833766
H90	H	1.754357	0.311386	-0.832946
H91	H	1.068810	-0.142512	0.000010
H92	H	0.942384	0.073243	0.207907
H93	H	0.901749	0.403842	0.000073
H94	H	1.352334	0.031659	-0.761165
