data_functionalizedCrystal
_audit_creation_method	'MofGen! by Chris Wilmer'
_symmetry_space_group_name_H-M	'P1'
_symmetry_Int_Tables_number	1
_symmetry_cell_setting	triclinic
loop_
_symmetry_equiv_pos_as_xyz
  x,y,z
_cell_length_a	23.532407
_cell_length_b	14.044220
_cell_length_c	22.010155
_cell_angle_alpha	89.998205
_cell_angle_beta	90.009040
_cell_angle_gamma	88.018778
loop_
_atom_site_label
_atom_site_type_symbol
_atom_site_fract_x
_atom_site_fract_y
_atom_site_fract_z
O1	O	-0.761502	-0.114999	-0.050450
O2	O	-0.261502	0.385001	0.449550
O3	O	-0.596540	-0.131640	-0.050468
O4	O	-0.096540	0.368360	0.449532
O5	O	-0.676545	0.014642	-0.050454
O6	O	-0.176545	0.514642	0.449546
O7	O	-0.681497	-0.261280	-0.050465
O8	O	-0.181497	0.238720	0.449535
O9	O	-0.676520	0.014625	0.050597
O10	O	-0.176520	0.514625	0.550597
O11	O	-0.596516	-0.131657	0.050582
O12	O	-0.096516	0.368343	0.550582
O13	O	-0.761477	-0.115016	0.050600
O14	O	-0.261477	0.384984	0.550600
Cu15	Cu	-0.678994	-0.123338	0.059818
Cu16	Cu	-0.178994	0.376662	0.559818
Cu17	Cu	-0.679023	-0.123318	-0.059686
Cu18	Cu	-0.179023	0.376682	0.440314
O19	O	-0.681472	-0.261298	0.050585
O20	O	-0.181472	0.238702	0.550585
C21	C	-0.575289	-0.131224	0.000054
C22	C	-0.075289	0.368776	0.500054
C23	C	-0.512003	-0.129950	0.000048
C24	C	-0.012003	0.370050	0.500048
C25	C	-0.782728	-0.115431	0.000076
C26	C	-0.282728	0.384569	0.500076
C27	C	-0.846014	-0.116705	0.000078
C28	C	-0.346014	0.383295	0.500078
C29	C	-0.674365	0.049928	0.000071
C30	C	-0.174365	0.549928	0.500071
C31	C	-0.667899	0.155093	0.000072
C32	C	-0.167899	0.655093	0.500072
C33	C	-0.117159	-0.208526	0.000072
C34	C	0.382841	0.291474	0.500072
C35	C	-0.057694	-0.207342	0.000076
C36	C	0.442306	0.292658	0.500076
O37	O	-0.024898	-0.280182	0.000095
O38	O	0.475102	0.219818	0.500095
N39	N	-0.030354	-0.120378	0.000078
N40	N	0.469646	0.379622	0.500078
C41	C	-0.062482	-0.034591	0.000083
C42	C	0.437518	0.465409	0.500083
O43	O	-0.033767	0.039488	0.000087
O44	O	0.466233	0.539488	0.500087
C45	C	-0.121946	-0.035776	0.000084
C46	C	0.378054	0.464224	0.500084
C47	C	-0.149282	-0.122746	0.000075
C48	C	0.350718	0.377254	0.500075
C49	C	-0.144495	-0.295489	0.000064
C50	C	0.355505	0.204511	0.500064
C51	C	-0.203956	-0.296672	0.000059
C52	C	0.296044	0.203328	0.500059
C53	C	-0.236079	-0.210892	0.000062
C54	C	0.263921	0.289108	0.500062
C55	C	-0.208742	-0.123929	0.000070
C56	C	0.291258	0.376071	0.500070
C57	C	-0.154072	0.050010	0.000093
C58	C	0.345928	0.550010	0.500093
C59	C	-0.213539	0.048818	0.000094
C60	C	0.286461	0.548818	0.500094
C61	C	-0.240876	-0.038152	0.000086
C62	C	0.259124	0.461848	0.500086
C63	C	-0.300326	-0.039332	0.000069
C64	C	0.199674	0.460668	0.500069
N65	N	-0.327666	-0.126297	0.000066
N66	N	0.172334	0.373703	0.500066
C67	C	-0.295542	-0.212076	0.000063
C68	C	0.204458	0.287924	0.500063
C69	C	0.062395	-0.032110	0.000083
C70	C	0.562395	0.467890	0.500083
C71	C	0.121857	-0.030925	0.000078
C72	C	0.621857	0.469075	0.500078
C73	C	0.126641	-0.203676	0.000072
C74	C	0.626641	0.296324	0.500072
C75	C	0.067178	-0.204861	0.000072
C76	C	0.567178	0.295139	0.500072
C77	C	0.035055	-0.119075	0.000081
C78	C	0.535055	0.380925	0.500081
C79	C	-0.420413	-0.214555	0.000052
C80	C	0.079587	0.285445	0.500052
C81	C	-0.479879	-0.215730	0.000045
C82	C	0.020121	0.284270	0.500045
C83	C	-0.484658	-0.042979	0.000054
C84	C	0.015342	0.457021	0.500054
C85	C	-0.425198	-0.041803	0.000058
C86	C	0.074802	0.458197	0.500058
C87	C	-0.393076	-0.127599	0.000059
C88	C	0.106924	0.372401	0.500059
O89	O	-0.333159	0.033470	0.000052
O90	O	0.166841	0.533470	0.500052
O91	O	-0.324265	-0.286143	0.000068
O92	O	0.175735	0.213857	0.500068
C93	C	-0.683652	-0.296583	0.000059
C94	C	-0.183652	0.203417	0.500059
C95	C	-0.690118	-0.401748	0.000055
C96	C	-0.190118	0.098252	0.500055
N97	N	-0.678978	-0.123351	0.143870
N98	N	-0.178978	0.376649	0.643870
C99	C	-0.656078	0.347643	0.000061
C100	C	-0.156078	0.847643	0.500061
C101	C	-0.701937	0.405708	0.000065
C102	C	-0.201937	0.905708	0.500065
C103	C	-0.695359	0.512849	0.000059
C104	C	-0.195359	1.012849	0.500059
C105	C	-0.662654	0.240491	0.000067
C106	C	-0.162654	0.740491	0.500067
N107	N	-0.679043	-0.123296	-0.143739
N108	N	-0.179043	0.376704	0.356261
C109	C	-0.641567	-0.066139	0.436474
C110	C	-0.141567	0.433861	0.936474
C111	C	-0.641563	-0.066144	0.372866
C112	C	-0.141563	0.433856	0.872866
O113	O	-0.609733	-0.017502	0.339967
O114	O	-0.109733	0.482498	0.839967
N115	N	-0.678999	-0.123322	0.341054
N116	N	-0.178999	0.376678	0.841054
C117	C	-0.716446	-0.180492	0.372853
C118	C	-0.216446	0.319508	0.872853
O119	O	-0.748288	-0.229127	0.339954
O120	O	-0.248288	0.270873	0.839954
C121	C	-0.716453	-0.180482	0.436460
C122	C	-0.216453	0.319518	0.936460
C123	C	-0.679011	-0.123307	0.468268
C124	C	-0.179011	0.376693	0.968268
C125	C	-0.604128	-0.008968	0.468282
C126	C	-0.104128	0.491032	0.968282
C127	C	-0.604133	-0.008966	0.531885
C128	C	-0.104133	0.491034	1.031885
C129	C	-0.641576	-0.066134	0.563680
C130	C	-0.141576	0.433866	1.063680
C131	C	-0.679015	-0.123305	0.531872
C132	C	-0.179015	0.376695	1.031872
C133	C	-0.753903	-0.237647	0.468258
C134	C	-0.253903	0.262353	0.968258
C135	C	-0.753907	-0.237631	0.531869
C136	C	-0.253907	0.262369	1.031869
C137	C	-0.716464	-0.180457	0.563677
C138	C	-0.216464	0.319543	1.063677
C139	C	-0.716462	-0.180470	0.627269
C140	C	-0.216462	0.319530	1.127269
N141	N	-0.679026	-0.123292	0.659081
N142	N	-0.179026	0.376708	1.159081
C143	C	-0.641583	-0.066124	0.627286
C144	C	-0.141583	0.433876	1.127286
C145	C	-0.716429	-0.180508	0.239276
C146	C	-0.216429	0.319492	0.739276
C147	C	-0.716419	-0.180524	0.175670
C148	C	-0.216419	0.319476	0.675670
C149	C	-0.641536	-0.066173	0.175687
C150	C	-0.141536	0.433827	0.675687
C151	C	-0.641544	-0.066163	0.239294
C152	C	-0.141544	0.433837	0.739294
C153	C	-0.678993	-0.123330	0.271087
C154	C	-0.178993	0.376670	0.771087
C155	C	-0.641594	-0.066123	0.760858
C156	C	-0.141594	0.433877	1.260858
C157	C	-0.641600	-0.066128	0.824467
C158	C	-0.141600	0.433872	1.324467
C159	C	-0.716485	-0.180474	0.824444
C160	C	-0.216485	0.319526	1.324444
C161	C	-0.716477	-0.180473	0.760841
C162	C	-0.216477	0.319527	1.260841
C163	C	-0.679030	-0.123290	0.729049
C164	C	-0.179030	0.376710	1.229049
O165	O	-0.748277	-0.229084	0.660208
O166	O	-0.248277	0.270916	1.160208
O167	O	-0.609751	-0.017488	0.660193
O168	O	-0.109751	0.482512	1.160193
H169	H	-0.502134	-0.286555	0.000037
H170	H	-0.002134	0.213445	0.500037
C171	C	-0.520005	0.051374	0.000065
C172	C	-0.020005	0.551374	0.500065
N173	N	-0.546630	0.122441	0.000079
N174	N	-0.046630	0.622441	0.500079
H175	H	-0.746958	-0.227043	0.734941
H176	H	-0.246958	0.272957	1.234941
C177	C	-0.562945	0.053936	0.566866
C178	C	-0.062945	0.553936	1.066866
N179	N	-0.531921	0.101318	0.593210
N180	N	-0.031921	0.601318	1.093210
C181	C	-0.596368	0.389190	0.000063
C182	C	-0.096368	0.889190	0.500063
N183	N	-0.551395	0.420494	0.000069
N184	N	-0.051395	0.920494	0.500069
H185	H	-0.118346	-0.365345	0.000064
H186	H	0.381654	0.134655	0.500064
C187	C	-0.234018	-0.392347	0.000062
C188	C	0.265982	0.107653	0.500062
N189	N	-0.256657	-0.464414	0.000070
N190	N	0.243343	0.035586	0.500070
C191	C	-0.757605	-0.243428	0.140688
C192	C	-0.257605	0.256572	0.640688
N193	N	-0.788630	-0.290804	0.114342
N194	N	-0.288630	0.209196	0.614342
C195	C	-0.757616	-0.243422	0.274243
C196	C	-0.257616	0.256578	0.774243
N197	N	-0.788636	-0.290814	0.300577
N198	N	-0.288636	0.209186	0.800577
H199	H	-0.611048	-0.019624	0.149788
H200	H	-0.111048	0.480376	0.649788
C201	C	0.027065	0.062268	0.000082
C202	C	0.527065	0.562268	0.500082
N203	N	0.000457	0.133353	0.000081
N204	N	0.500457	0.633353	0.500081
H205	H	-0.746969	-0.227021	0.850343
H206	H	-0.246969	0.272979	1.350343
H207	H	0.044924	-0.275679	0.000069
H208	H	0.544924	0.224321	0.500069
C209	C	-0.385089	-0.308934	0.000050
C210	C	0.114911	0.191066	0.500050
N211	N	-0.358483	-0.380021	0.000043
N212	N	0.141517	0.119979	0.500043
C213	C	-0.600409	-0.003228	0.859452
C214	C	-0.100409	0.496772	1.359452
N215	N	-0.569386	0.044148	0.885801
N216	N	-0.069386	0.544148	1.385801
H217	H	-0.784393	-0.284203	0.442370
H218	H	-0.284393	0.215797	0.942370
H219	H	-0.611101	-0.019559	0.734981
H220	H	-0.111101	0.480441	1.234981
H221	H	-0.573637	0.037590	0.442402
H222	H	-0.073637	0.537590	0.942402
C223	C	-0.600358	-0.003262	0.274277
C224	C	-0.100358	0.496738	0.774277
N225	N	-0.569336	0.044121	0.300623
N226	N	-0.069336	0.544121	0.800623
H227	H	0.152807	-0.273523	0.000072
H228	H	0.652807	0.226477	0.500072
C229	C	0.151920	0.064749	0.000084
C230	C	0.651920	0.564749	0.500084
N231	N	0.174562	0.136814	0.000093
N232	N	0.674562	0.636814	0.500093
C233	C	-0.124016	0.145685	0.000115
C234	C	0.375984	0.645685	0.500115
N235	N	-0.101378	0.217754	0.000136
N236	N	0.398622	0.717754	0.500136
C237	C	-0.761651	0.364161	0.000080
C238	C	-0.261651	0.864161	0.500080
N239	N	-0.806626	0.332864	0.000094
N240	N	-0.306626	0.832864	0.500094
C241	C	-0.795102	-0.300526	0.566838
C242	C	-0.295102	0.199474	1.066838
N243	N	-0.826128	-0.347902	0.593175
N244	N	-0.326128	0.152098	1.093175
H245	H	-0.239691	0.118677	0.000102
H246	H	0.260309	0.618677	0.500102
H247	H	-0.402939	0.029015	0.000057
H248	H	0.097061	0.529015	0.500057
