data_functionalizedCrystal
_audit_creation_method	'MofGen! by Chris Wilmer'
_symmetry_space_group_name_H-M	'P1'
_symmetry_Int_Tables_number	1
_symmetry_cell_setting	triclinic
loop_
_symmetry_equiv_pos_as_xyz
  x,y,z
_cell_length_a	24.447405
_cell_length_b	24.446649
_cell_length_c	24.443239
_cell_angle_alpha	60.006064
_cell_angle_beta	60.011844
_cell_angle_gamma	59.992812
loop_
_atom_site_label
_atom_site_type_symbol
_atom_site_fract_x
_atom_site_fract_y
_atom_site_fract_z
O1	O	0.075907	-0.799232	0.668277
O2	O	0.575907	-0.299232	1.168277
O3	O	0.028634	-0.622262	0.538455
O4	O	0.528634	-0.122262	1.038455
O5	O	0.140702	-0.734230	0.538349
O6	O	0.640702	-0.234230	1.038349
O7	O	-0.036160	-0.687265	0.668384
O8	O	0.463840	-0.187265	1.168384
O9	O	0.177886	-0.697056	0.575424
O10	O	0.677886	-0.197056	1.075424
O11	O	0.065818	-0.585088	0.575530
O12	O	0.565818	-0.085088	1.075530
O13	O	0.113091	-0.762059	0.705353
O14	O	0.613091	-0.262059	1.205353
Cu15	Cu	0.092850	-0.670179	0.643827
Cu16	Cu	0.592850	-0.170179	1.143827
Cu17	Cu	0.048876	-0.714142	0.599981
Cu18	Cu	0.548876	-0.214142	1.099981
O19	O	0.001024	-0.650091	0.705459
O20	O	0.501024	-0.150091	1.205459
N21	N	0.123780	-0.639263	0.674669
N22	N	0.623780	-0.139263	1.174669
N23	N	0.017951	-0.745064	0.569139
N24	N	0.517951	-0.245064	1.069139
C25	C	0.170236	-0.489965	0.721065
C26	C	0.670236	0.010035	1.221065
C27	C	0.170249	-0.592837	0.721058
C28	C	0.670249	-0.092837	1.221058
C29	C	0.195989	-0.567121	0.746758
C30	C	0.695989	-0.067121	1.246758
C31	C	0.308182	-0.547773	0.687664
C32	C	0.808182	-0.047773	1.187664
C33	C	0.378316	-0.571143	0.664253
C34	C	0.878316	-0.071143	1.164253
C35	C	0.378353	-0.684626	0.707525
C36	C	0.878353	-0.184626	1.207525
C37	C	0.308220	-0.661254	0.730938
C38	C	0.808220	-0.161254	1.230938
C39	C	0.187125	-0.454882	0.652117
C40	C	0.687125	0.045118	1.152117
C41	C	0.163710	-0.384741	0.628763
C42	C	0.663710	0.115259	1.128763
C43	C	0.106523	-0.384772	0.743308
C44	C	0.606523	0.115228	1.243308
C45	C	0.129938	-0.454913	0.766662
C46	C	0.629938	0.045087	1.266662
C47	C	0.101291	-0.575906	0.738041
C48	C	0.601291	-0.075906	1.238041
C49	C	0.077897	-0.599283	0.714670
C50	C	0.577897	-0.099283	1.214670
C51	C	0.192412	-0.656523	0.657348
C52	C	0.692412	-0.156523	1.157348
C53	C	0.215809	-0.633146	0.680711
C54	C	0.715809	-0.133146	1.180711
C55	C	0.101393	-0.575928	0.859014
C56	C	0.601393	-0.075928	1.359014
C57	C	0.078071	-0.599328	0.929152
C58	C	0.578071	-0.099328	1.429152
C59	C	0.192636	-0.656582	0.929078
C60	C	0.692636	-0.156582	1.429078
C61	C	0.215955	-0.633184	0.858938
C62	C	0.715955	-0.133184	1.358938
C63	C	0.170332	-0.592855	0.823908
C64	C	0.670332	-0.092855	1.323908
C65	C	0.273137	-0.592827	0.721004
C66	C	0.773137	-0.092827	1.221004
C67	C	-0.131205	-0.791294	0.522327
C68	C	0.368795	-0.291294	1.022327
C69	C	-0.028388	-0.791420	0.522551
C70	C	0.471612	-0.291420	1.022551
C71	C	-0.054056	-0.817099	0.496741
C72	C	0.445944	-0.317099	0.996741
C73	C	-0.073479	-0.929255	0.555734
C74	C	0.426521	-0.429255	1.055734
C75	C	-0.050156	-0.999396	0.579142
C76	C	0.449844	-0.499396	1.079142
C77	C	0.063326	-0.999525	0.536064
C78	C	0.563326	-0.499525	1.036064
C79	C	0.040001	-0.929386	0.512654
C80	C	0.540001	-0.429386	1.012654
C81	C	-0.166365	-0.808188	0.591256
C82	C	0.333635	-0.308188	1.091256
C83	C	-0.236499	-0.784726	0.614512
C84	C	0.263501	-0.284726	1.114512
C85	C	-0.236309	-0.727482	0.499907
C86	C	0.263691	-0.227482	0.999907
C87	C	-0.166175	-0.750944	0.476651
C88	C	0.333825	-0.250944	0.976651
C89	C	-0.045285	-0.722468	0.505590
C90	C	0.454715	-0.222468	1.005590
C91	C	-0.021951	-0.699130	0.529061
C92	C	0.478049	-0.199130	1.029061
C93	C	0.035176	-0.813691	0.586439
C94	C	0.535176	-0.313691	1.086439
C95	C	0.011842	-0.837031	0.562976
C96	C	0.511842	-0.337031	1.062976
C97	C	-0.045097	-0.722476	0.384488
C98	C	0.454903	-0.222476	0.884488
C99	C	-0.021613	-0.699140	0.314350
C100	C	0.478387	-0.199140	0.814350
C101	C	0.035607	-0.813706	0.314419
C102	C	0.535607	-0.313706	0.814419
C103	C	0.012124	-0.837041	0.384558
C104	C	0.512124	-0.337041	0.884558
C105	C	-0.028229	-0.791425	0.419591
C106	C	0.471771	-0.291425	0.919591
C107	C	-0.028402	-0.894253	0.522492
C108	C	0.471598	-0.394253	1.022492
N109	N	0.412405	-0.639229	0.674505
N110	N	0.912405	-0.139229	1.174505
O111	O	0.626552	-0.645384	0.514503
O112	O	1.126552	-0.145384	1.014503
O113	O	0.626802	-0.775625	0.691288
O114	O	1.126802	-0.275625	1.191288
O115	O	0.626698	-0.775326	0.579168
O116	O	1.126698	-0.275326	1.079168
O117	O	0.626656	-0.645683	0.626623
O118	O	1.126656	-0.145683	1.126623
O119	O	0.515277	-0.738265	0.616407
O120	O	1.015277	-0.238265	1.116407
O121	O	0.515382	-0.738564	0.728527
O122	O	1.015382	-0.238564	1.228527
O123	O	0.515131	-0.608323	0.551742
O124	O	1.015131	-0.108323	1.051742
Cu125	Cu	0.505083	-0.670059	0.643535
Cu126	Cu	1.005083	-0.170059	1.143535
Cu127	Cu	0.636850	-0.713889	0.599495
Cu128	Cu	1.136850	-0.213889	1.099495
O129	O	0.515236	-0.608622	0.663862
O130	O	1.015236	-0.108622	1.163862
N131	N	0.729529	-0.744719	0.568518
N132	N	1.229529	-0.244719	1.068518
N133	N	0.123755	-0.350686	0.674680
N134	N	0.623755	0.149314	1.174680
O135	O	-0.036153	-0.136410	0.668391
O136	O	0.463847	0.363590	1.168391
O137	O	0.140633	-0.136380	0.538141
O138	O	0.640633	0.363620	1.038141
O139	O	0.028472	-0.136412	0.538488
O140	O	0.528472	0.363588	1.038488
O141	O	0.076007	-0.136377	0.668044
O142	O	0.576007	0.363623	1.168044
O143	O	0.065663	-0.247842	0.575621
O144	O	0.565663	0.252158	1.075621
O145	O	0.177823	-0.247810	0.575274
O146	O	0.677823	0.252190	1.075274
O147	O	0.001037	-0.247840	0.705524
O148	O	0.501037	0.252160	1.205524
Cu149	Cu	0.092826	-0.258000	0.643789
Cu150	Cu	0.592826	0.242000	1.143789
Cu151	Cu	0.048844	-0.126220	0.599875
Cu152	Cu	0.548844	0.373780	1.099875
O153	O	0.113198	-0.247808	0.705177
O154	O	0.613198	0.252192	1.205177
N155	N	0.017907	-0.033534	0.568986
N156	N	0.517907	0.466466	1.068986
N157	N	0.124013	-0.639306	0.963182
N158	N	0.624013	-0.139306	1.463182
O159	O	0.117754	-0.799195	1.177439
O160	O	0.617754	-0.299195	1.677439
O161	O	-0.012458	-0.622342	1.177485
O162	O	0.487542	-0.122342	1.677485
O163	O	-0.012155	-0.734480	1.177444
O164	O	0.487845	-0.234480	1.677444
O165	O	0.117450	-0.687057	1.177480
O166	O	0.617450	-0.187057	1.677480
O167	O	0.024954	-0.697317	1.066020
O168	O	0.524954	-0.197317	1.566020
O169	O	0.024650	-0.585179	1.066061
O170	O	0.524650	-0.085179	1.566061
O171	O	0.154862	-0.762032	1.066014
O172	O	0.654862	-0.262032	1.566014
Cu173	Cu	0.093145	-0.670212	1.055863
Cu174	Cu	0.593145	-0.170212	1.555863
Cu175	Cu	0.049259	-0.714162	1.187636
Cu176	Cu	0.549259	-0.214162	1.687636
O177	O	0.154559	-0.649894	1.066055
O178	O	0.654559	-0.149894	1.566055
N179	N	0.018389	-0.745075	1.280318
N180	N	0.518389	-0.245075	1.780318
C181	C	0.042795	-0.581375	0.539107
C182	C	0.542795	-0.081375	1.039107
C183	C	0.181576	-0.720034	0.538975
C184	C	0.681576	-0.220034	1.038975
C185	C	0.098930	-0.802946	0.704700
C186	C	0.598930	-0.302946	1.204700
C187	C	-0.039851	-0.664287	0.704832
C188	C	0.460149	-0.164287	1.204832
C189	C	0.571122	-0.775030	0.732180
C190	C	1.071122	-0.275030	1.232180
C191	C	0.570995	-0.774660	0.593332
C192	C	1.070995	-0.274660	1.093332
C193	C	0.570808	-0.608917	0.510851
C194	C	1.070808	-0.108917	1.010851
C195	C	0.570939	-0.609288	0.649698
C196	C	1.070939	-0.109288	1.149698
C197	C	0.181453	-0.191954	0.538725
C198	C	0.681453	0.308046	1.038725
C199	C	0.042602	-0.192131	0.539201
C200	C	0.542602	0.307869	1.039201
C201	C	-0.039829	-0.192128	0.704893
C202	C	0.460171	0.307872	1.204893
C203	C	0.099069	-0.192090	0.704464
C204	C	0.599069	0.307910	1.204464
C205	C	-0.011836	-0.581480	1.121779
C206	C	0.488164	-0.081480	1.621779
C207	C	-0.011453	-0.720342	1.121706
C208	C	0.488547	-0.220342	1.621706
C209	C	0.154240	-0.802894	1.121720
C210	C	0.654240	-0.302894	1.621720
C211	C	0.153865	-0.664024	1.121769
C212	C	0.653865	-0.164024	1.621769
H213	H	0.064236	-0.543084	0.830495
H214	H	0.564236	-0.043084	1.330495
H215	H	0.195123	-0.853684	1.121698
H216	H	0.695123	-0.353684	1.621698
H217	H	0.570930	-0.568565	0.659852
H218	H	1.070930	-0.068565	1.159852
O219	O	0.241921	-0.191541	0.489880
O220	O	0.741921	0.308459	0.989880
C221	C	0.352118	-0.191005	0.458525
C222	C	0.852118	0.308995	0.958525
C223	C	0.283663	-0.191457	0.513895
C224	C	0.783663	0.308543	1.013895
H225	H	0.385890	-0.190951	0.477925
H226	H	0.885890	0.309049	0.977925
H227	H	0.344823	-0.144259	0.412982
H228	H	0.844823	0.355741	0.912982
H229	H	0.376334	-0.237525	0.443688
H230	H	0.876334	0.262475	0.943688
H231	H	0.259410	-0.144969	0.528789
H232	H	0.759410	0.355031	1.028789
H233	H	0.291001	-0.238234	0.559401
H234	H	0.791001	0.261766	1.059401
O235	O	-0.100349	-0.192165	0.753761
O236	O	0.399651	0.307835	1.253761
C237	C	-0.168947	-0.192121	0.866700
C238	C	0.331053	0.307879	1.366700
C239	C	-0.100374	-0.192095	0.811423
C240	C	0.399626	0.307905	1.311423
H241	H	-0.168995	-0.192051	0.913328
H242	H	0.331005	0.307949	1.413328
H243	H	-0.178766	-0.238774	0.879420
H244	H	0.321234	0.261226	1.379420
H245	H	-0.209868	-0.145507	0.848253
H246	H	0.290132	0.354493	1.348253
H247	H	-0.059411	-0.238678	0.829824
H248	H	0.440589	0.261322	1.329824
H249	H	-0.090614	-0.145412	0.798712
H250	H	0.409386	0.354588	1.298712
H251	H	-0.052152	-0.730472	1.121651
H252	H	0.447848	-0.230472	1.621651
H253	H	0.109248	-0.192079	0.745165
H254	H	0.609248	0.307921	1.245165
O255	O	0.110965	-0.863643	0.753286
O256	O	0.610965	-0.363643	1.253286
C257	C	0.140390	-0.982847	0.785395
C258	C	0.640390	-0.482847	1.285395
C259	C	0.126763	-0.914150	0.730321
C260	C	0.626763	-0.414150	1.230321
H261	H	0.153180	-1.023701	0.766843
H262	H	0.653180	-0.523701	1.266843
H263	H	0.093904	-0.983124	0.832163
H264	H	0.593904	-0.483124	1.332163
H265	H	0.184226	-0.992575	0.797937
H266	H	0.684226	-0.492575	1.297937
H267	H	0.082949	-0.904378	0.717721
H268	H	0.582949	-0.404378	1.217721
H269	H	0.173283	-0.913906	0.683588
H270	H	0.673283	-0.413906	1.183588
H271	H	0.032420	-0.192135	0.498498
H272	H	0.532420	0.307865	0.998498
O273	O	-0.060545	-0.520859	1.121824
O274	O	0.439455	-0.020859	1.621824
C275	C	-0.091682	-0.410475	1.121818
C276	C	0.408318	0.089525	1.621818
C277	C	-0.036466	-0.479102	1.121783
C278	C	0.463534	0.020898	1.621783
H279	H	-0.072230	-0.376691	1.121770
H280	H	0.427770	0.123309	1.621770
H281	H	-0.137367	-0.417474	1.168459
H282	H	0.362633	0.082526	1.668459
H283	H	-0.106315	-0.386441	1.075197
H284	H	0.393685	0.113559	1.575197
H285	H	-0.021776	-0.503175	1.168372
H286	H	0.478224	-0.003175	1.668372
H287	H	0.009183	-0.472060	1.075111
H288	H	0.509183	0.027940	1.575111
H289	H	0.571013	-0.815386	0.583175
H290	H	1.071013	-0.315386	1.083175
H291	H	0.232372	-0.730046	0.498140
H292	H	0.732372	-0.230046	0.998140
H293	H	0.194582	-0.653876	1.121771
H294	H	0.694582	-0.153876	1.621771
H295	H	0.021932	-0.585534	0.957726
H296	H	0.521932	-0.085534	1.457726
H297	H	0.570727	-0.568026	0.460082
H298	H	1.070727	-0.068026	0.960082
O299	O	0.237046	-0.695762	0.962997
O300	O	0.737046	-0.195762	1.462997
C301	C	0.353143	-0.750028	0.955512
C302	C	0.853143	-0.250028	1.455512
C303	C	0.302919	-0.705665	0.917015
C304	C	0.802919	-0.205665	1.417015
H305	H	0.406412	-0.758037	0.918352
H306	H	0.906412	-0.258037	1.418352
H307	H	0.345151	-0.800517	0.988326
H308	H	0.845151	-0.300517	1.488326
H309	H	0.345040	-0.724332	0.988365
H310	H	0.845040	-0.224332	1.488365
H311	H	0.310991	-0.731302	0.884125
H312	H	0.810991	-0.231302	1.384125
H313	H	0.310924	-0.655178	0.884243
H314	H	0.810924	-0.155178	1.384243
H315	H	0.571186	-0.815915	0.782955
H316	H	1.071186	-0.315915	1.282955
O317	O	0.056943	-0.536731	0.777198
O318	O	0.556943	-0.036731	1.277198
C319	C	-0.059112	-0.482453	0.831620
C320	C	0.440888	0.017547	1.331620
C321	C	-0.008961	-0.526810	0.787253
C322	C	0.491039	-0.026810	1.287253
H323	H	-0.112407	-0.474430	0.839774
H324	H	0.387593	0.025570	1.339774
H325	H	-0.051104	-0.431971	0.805936
H326	H	0.448896	0.068029	1.305936
H327	H	-0.050947	-0.508164	0.882038
H328	H	0.449053	-0.008164	1.382038
H329	H	-0.017096	-0.501158	0.736827
H330	H	0.482904	-0.001158	1.236827
H331	H	-0.016981	-0.577290	0.812989
H332	H	0.483019	-0.077290	1.312989
H333	H	-0.090650	-0.654278	0.745664
H334	H	0.409350	-0.154278	1.245664
H335	H	0.272095	-0.646975	0.830359
H336	H	0.772095	-0.146975	1.330359
O337	O	0.030799	-0.520787	0.490377
O338	O	0.530799	-0.020787	0.990377
C339	C	0.024559	-0.460803	0.378788
C340	C	0.524559	0.039197	0.878788
C341	C	0.038176	-0.529462	0.433911
C342	C	0.538176	-0.029462	0.933911
H343	H	0.030504	-0.467792	0.333128
H344	H	0.530504	0.032208	0.833128
H345	H	0.061693	-0.436644	0.364066
H346	H	0.561693	0.063356	0.864066
H347	H	-0.028655	-0.427132	0.398386
H348	H	0.471345	0.072868	0.898386
H349	H	0.091370	-0.563185	0.414360
H350	H	0.591370	-0.063185	0.914360
H351	H	0.000999	-0.553567	0.448625
H352	H	0.500999	-0.053567	0.948625
H353	H	0.021747	-0.585481	0.728482
H354	H	0.521747	-0.085481	1.228482
H355	H	0.229515	-0.689349	0.624505
H356	H	0.729515	-0.189349	1.124505
H357	H	0.279688	-0.697946	0.758086
H358	H	0.779688	-0.197946	1.258086
O359	O	0.282807	-0.649542	0.664095
O360	O	0.782807	-0.149542	1.164095
C361	C	0.387777	-0.644081	0.575120
C362	C	0.887777	-0.144081	1.075120
C363	C	0.311917	-0.625495	0.593848
C364	C	0.811917	-0.125495	1.093848
H365	H	0.411332	-0.624635	0.518326
H366	H	0.911332	-0.124635	1.018326
H367	H	0.411512	-0.700872	0.594395
H368	H	0.911512	-0.200872	1.094395
H369	H	0.396639	-0.620456	0.598787
H370	H	0.896639	-0.120456	1.098787
H371	H	0.302994	-0.649075	0.570188
H372	H	0.802994	-0.149075	1.070188
H373	H	0.288220	-0.568698	0.574586
H374	H	0.788220	-0.068698	1.074586
O375	O	0.412257	-0.527284	0.631852
O376	O	0.912257	-0.027284	1.131852
C377	C	0.404821	-0.412262	0.591433
C378	C	0.904821	0.087738	1.091433
C379	C	0.366298	-0.461858	0.628124
C380	C	0.866298	0.038142	1.128124
H381	H	0.367680	-0.359357	0.588420
H382	H	0.867680	0.140643	1.088420
H383	H	0.437606	-0.414350	0.538675
H384	H	0.937606	0.085650	1.038675
H385	H	0.437704	-0.426376	0.620086
H386	H	0.937704	0.073624	1.120086
H387	H	0.333378	-0.447778	0.599527
H388	H	0.833378	0.052222	1.099527
H389	H	0.333556	-0.459763	0.680886
H390	H	0.833556	0.040237	1.180886
O391	O	0.274031	-0.481330	0.678133
O392	O	0.774031	0.018670	1.178133
C393	C	0.194901	-0.396464	0.729829
C394	C	0.694901	0.103536	1.229829
C395	C	0.233524	-0.471732	0.740719
C396	C	0.733524	0.028268	1.240719
H397	H	0.162152	-0.388679	0.780421
H398	H	0.662152	0.111321	1.280421
H399	H	0.161987	-0.376693	0.699050
H400	H	0.661987	0.123307	1.199050
H401	H	0.232013	-0.368290	0.701949
H402	H	0.732013	0.131710	1.201949
H403	H	0.196460	-0.499960	0.768617
H404	H	0.696460	0.000040	1.268617
H405	H	0.266447	-0.491451	0.771470
H406	H	0.766447	0.008549	1.271470
O407	O	0.412335	-0.751122	0.717246
O408	O	0.912335	-0.251122	1.217246
C409	C	0.404976	-0.861210	0.762590
C410	C	0.904976	-0.361210	1.262590
C411	C	0.366410	-0.785926	0.751640
C412	C	0.866410	-0.285926	1.251640
H413	H	0.367863	-0.889370	0.790386
H414	H	0.867863	-0.389370	1.290386
H415	H	0.437828	-0.881002	0.793439
H416	H	0.937828	-0.381002	1.293439
H417	H	0.437796	-0.868985	0.712000
H418	H	0.937796	-0.368985	1.212000
H419	H	0.333554	-0.778093	0.802198
H420	H	0.833554	-0.278093	1.302198
H421	H	0.333600	-0.766171	0.720760
H422	H	0.833600	-0.266171	1.220760
H423	H	0.219934	-0.483420	0.614988
H424	H	0.719934	0.016580	1.114988
H425	H	0.073721	-0.356231	0.780438
H426	H	0.573721	0.143769	1.280438
O427	O	0.180198	-0.350761	0.561761
O428	O	0.680198	0.149239	1.061761
C429	C	0.239352	-0.358128	0.450609
C430	C	0.739352	0.141872	0.950609
C431	C	0.220742	-0.396693	0.526468
C432	C	0.720742	0.103307	1.026468
H433	H	0.272123	-0.395248	0.422052
H434	H	0.772123	0.104752	0.922052
H435	H	0.267938	-0.325302	0.436752
H436	H	0.767938	0.174698	0.936752
H437	H	0.191723	-0.325277	0.436862
H438	H	0.691723	0.174723	0.936862
H439	H	0.268336	-0.429581	0.540269
H440	H	0.768336	0.070419	1.040269
H441	H	0.192130	-0.429477	0.540284
H442	H	0.692130	0.070523	1.040284
H443	H	0.116177	-0.483478	0.822809
H444	H	0.616177	0.016522	1.322809
H445	H	-0.077958	-0.685325	0.413008
H446	H	0.422042	-0.185325	0.913008
O447	O	-0.038097	-0.632137	0.280361
O448	O	0.461903	-0.132137	0.780361
C449	C	-0.097310	-0.520968	0.287702
C450	C	0.402690	-0.020968	0.787702
C451	C	-0.078707	-0.596829	0.326279
C452	C	0.421293	-0.096829	0.826279
H453	H	-0.130134	-0.492400	0.324810
H454	H	0.369866	0.007600	0.824810
H455	H	-0.125839	-0.507101	0.254802
H456	H	0.374161	-0.007101	0.754802
H457	H	-0.049682	-0.507245	0.254927
H458	H	0.450318	-0.007245	0.754927
H459	H	-0.126299	-0.610606	0.359091
H460	H	0.373701	-0.110606	0.859091
H461	H	-0.050152	-0.610656	0.359137
H462	H	0.449848	-0.110656	0.859137
H463	H	0.068452	-0.850855	0.285902
H464	H	0.568452	-0.350855	0.785902
O465	O	-0.132466	-0.847449	0.635685
O466	O	0.367534	-0.347449	1.135685
C467	C	-0.111145	-0.950683	0.726473
C468	C	0.388855	-0.450683	1.226473
C469	C	-0.149589	-0.906278	0.676202
C470	C	0.350411	-0.406278	1.176202
H471	H	-0.124964	-0.998262	0.759235
H472	H	0.375036	-0.498262	1.259235
H473	H	-0.124985	-0.922164	0.759369
H474	H	0.375015	-0.422164	1.259369
H475	H	-0.054983	-0.964515	0.697995
H476	H	0.445017	-0.464515	1.197995
H477	H	-0.205760	-0.892433	0.704627
H478	H	0.294240	-0.392433	1.204627
H479	H	-0.135693	-0.934822	0.643307
H480	H	0.364307	-0.434822	1.143307
O481	O	0.028431	-0.904028	0.418627
O482	O	0.528431	-0.404028	0.918627
C483	C	0.023071	-1.009034	0.440012
C484	C	0.523071	-0.509034	0.940012
C485	C	0.004550	-0.933181	0.401401
C486	C	0.504550	-0.433181	0.901401
H487	H	0.003784	-1.032630	0.426089
H488	H	0.503784	-0.532630	0.926089
H489	H	-0.000661	-1.017919	0.496166
H490	H	0.499339	-0.517919	0.996166
H491	H	0.079852	-1.032718	0.426331
H492	H	0.579852	-0.532718	0.926331
H493	H	-0.052222	-0.909447	0.415026
H494	H	0.447778	-0.409447	0.915026
H495	H	0.028330	-0.924345	0.345257
H496	H	0.528330	-0.424345	0.845257
O497	O	-0.084384	-0.678070	0.466357
O498	O	0.415616	-0.178070	0.966357
C499	C	-0.138555	-0.561975	0.411892
C500	C	0.361445	-0.061975	0.911892
C501	C	-0.094284	-0.612183	0.456344
C502	C	0.405716	-0.112183	0.956344
H503	H	-0.146562	-0.508695	0.403771
H504	H	0.353438	-0.008695	0.903771
H505	H	-0.189046	-0.569944	0.437488
H506	H	0.310954	-0.069944	0.937488
H507	H	-0.112790	-0.570125	0.361465
H508	H	0.387210	-0.070125	0.861465
H509	H	-0.119990	-0.604063	0.506778
H510	H	0.380010	-0.104063	1.006778
H511	H	-0.043796	-0.604202	0.430695
H512	H	0.456204	-0.104202	0.930695
H513	H	0.067938	-0.850836	0.619346
H514	H	0.567938	-0.350836	1.119346
O515	O	-0.038440	-0.632155	0.512695
O516	O	0.461560	-0.132155	1.012695
C517	C	-0.092396	-0.539246	0.552940
C518	C	0.407604	-0.039246	1.052940
C519	C	-0.073780	-0.615101	0.571572
C520	C	0.426220	-0.115101	1.071572
H521	H	-0.120960	-0.525437	0.600531
H522	H	0.379040	-0.025437	1.100531
H523	H	-0.125191	-0.510628	0.520046
H524	H	0.374809	-0.010628	1.020046
H525	H	-0.044771	-0.525525	0.524443
H526	H	0.455229	-0.025525	1.024443
H527	H	-0.121368	-0.628884	0.600092
H528	H	0.378632	-0.128884	1.100092
H529	H	-0.040959	-0.643677	0.604434
H530	H	0.459041	-0.143677	1.104434
H531	H	0.025599	-0.893178	0.576787
H532	H	0.525599	-0.393178	1.076787
H533	H	0.119026	-1.028132	0.528057
H534	H	0.619026	-0.528132	1.028057
O535	O	0.083867	-0.895457	0.480295
O536	O	0.583867	-0.395457	0.980295
C537	C	0.181155	-0.874087	0.385874
C538	C	0.681155	-0.374087	0.885874
C539	C	0.131535	-0.912565	0.422463
C540	C	0.631535	-0.412565	0.922463
H541	H	0.219699	-0.887894	0.339103
H542	H	0.719699	-0.387894	0.839103
H543	H	0.207749	-0.887914	0.420544
H544	H	0.707749	-0.387914	0.920544
H545	H	0.152718	-0.817925	0.370865
H546	H	0.652718	-0.317925	0.870865
H547	H	0.159922	-0.968736	0.437476
H548	H	0.659922	-0.468736	0.937476
H549	H	0.104941	-0.898682	0.387771
H550	H	0.604941	-0.398682	0.887771
O551	O	-0.094048	-1.033295	0.611525
O552	O	0.405952	-0.533295	1.111525
C553	C	-0.209090	-1.025767	0.651933
C554	C	0.290910	-0.525767	1.151933
C555	C	-0.159448	-0.987291	0.615211
C556	C	0.340552	-0.487291	1.115211
H557	H	-0.261974	-0.988590	0.654913
H558	H	0.238026	-0.488590	1.154913
H559	H	-0.207020	-1.058529	0.704705
H560	H	0.292980	-0.558529	1.204705
H561	H	-0.195012	-1.058674	0.623323
H562	H	0.304988	-0.558674	1.123323
H563	H	-0.173492	-0.954348	0.643766
H564	H	0.326508	-0.454348	1.143766
H565	H	-0.161526	-0.954572	0.562437
H566	H	0.338474	-0.454572	1.062437
H567	H	-0.129177	-0.900656	0.563750
H568	H	0.370823	-0.400656	1.063750
H569	H	-0.264783	-0.694634	0.462714
H570	H	0.235217	-0.194634	0.962714
O571	O	-0.132120	-0.734501	0.409667
O572	O	0.367880	-0.234501	0.909667
C573	C	-0.139329	-0.675219	0.298445
C574	C	0.360671	-0.175219	0.798445
C575	C	-0.177978	-0.693803	0.374284
C576	C	0.322022	-0.193803	0.874284
H577	H	-0.176389	-0.642301	0.269816
H578	H	0.323611	-0.142301	0.769816
H579	H	-0.106518	-0.722815	0.284637
H580	H	0.393482	-0.222815	0.784637
H581	H	-0.106462	-0.646745	0.284740
H582	H	0.393538	-0.146745	0.784740
H583	H	-0.210882	-0.722260	0.388044
H584	H	0.289118	-0.222260	0.888044
H585	H	-0.210747	-0.646183	0.388052
H586	H	0.289253	-0.146183	0.888052
O587	O	-0.270685	-0.801022	0.681468
O588	O	0.229315	-0.301022	1.181468
C589	C	-0.350001	-0.760650	0.774266
C590	C	0.149999	-0.260650	1.274266
C591	C	-0.311319	-0.742098	0.698435
C592	C	0.188681	-0.242098	1.198435
H593	H	-0.382874	-0.713020	0.788005
H594	H	0.117126	-0.213020	1.288005
H595	H	-0.312987	-0.793487	0.802948
H596	H	0.187013	-0.293487	1.302948
H597	H	-0.382815	-0.789183	0.787978
H598	H	0.117185	-0.289183	1.287978
H599	H	-0.278503	-0.713541	0.684661
H600	H	0.221497	-0.213541	1.184661
H601	H	-0.348369	-0.709292	0.669794
H602	H	0.151631	-0.209292	1.169794
