data_functionalizedCrystal
_audit_creation_method	'MofGen! by Chris Wilmer'
_symmetry_space_group_name_H-M	'P1'
_symmetry_Int_Tables_number	1
_symmetry_cell_setting	triclinic
loop_
_symmetry_equiv_pos_as_xyz
  x,y,z
_cell_length_a	19.376997
_cell_length_b	19.377372
_cell_length_c	14.560438
_cell_angle_alpha	90.000381
_cell_angle_beta	68.965488
_cell_angle_gamma	82.421080
loop_
_atom_site_label
_atom_site_type_symbol
_atom_site_fract_x
_atom_site_fract_y
_atom_site_fract_z
Zr1	Zr	0.842048	0.764620	-0.020123
O2	O	0.938374	0.689448	-0.116982
O3	O	0.725025	0.768540	-0.015069
O4	O	0.851195	0.796118	-0.171140
O5	O	0.812206	0.661871	0.190228
O6	O	0.881954	0.902016	-0.185834
O7	O	0.812204	0.661870	0.039089
O8	O	0.656259	0.852684	0.093349
O9	O	1.037901	0.711203	-0.088955
O10	O	0.803779	0.872348	0.005888
O11	O	0.780825	0.793318	0.129647
O12	O	0.929374	0.825788	-0.054107
O13	O	0.906421	0.746758	0.069652
Zr14	Zr	0.891108	0.933517	0.197491
Zr15	Zr	0.891105	0.933515	-0.043558
Zr16	Zr	0.842051	0.764622	0.220926
Zr17	Zr	1.000782	0.799317	0.024577
Zr18	Zr	0.732374	0.898820	0.152791
O19	O	1.008131	0.929598	0.192437
O20	O	1.008126	0.929595	-0.150303
O21	O	0.938379	0.689451	0.225758
O22	O	0.794782	1.008690	0.294350
O23	O	0.794777	1.008687	-0.048390
O24	O	0.725030	0.768542	0.327671
O25	O	0.920950	1.036266	-0.012860
O26	O	0.881961	0.902020	0.348508
O27	O	0.851202	0.796122	0.363202
O28	O	0.920952	1.036267	0.138279
O29	O	1.076894	0.845452	-0.107583
O30	O	0.656262	0.852685	0.284950
O31	O	0.695255	0.986934	0.266323
O32	O	0.695252	0.986933	0.074721
O33	O	1.037904	0.711205	0.102647
O34	O	1.076897	0.845454	0.084019
O35	O	0.803782	0.872350	0.231474
O36	O	0.826735	0.951379	0.107715
O37	O	0.952330	0.904819	0.047721
O38	O	0.929377	0.825789	0.171480
C39	C	0.668026	0.805668	0.032771
C40	C	0.600639	0.790938	0.013795
C41	C	0.543541	0.723825	-0.072677
C42	C	0.606857	0.737671	-0.054838
C43	C	0.531098	0.830383	0.064614
C44	C	0.467775	0.816547	0.046782
C45	C	0.474003	0.763267	-0.021864
C46	C	0.398237	0.855989	0.097595
C47	C	0.334919	0.842152	0.079768
C48	C	0.341139	0.788872	0.011128
C49	C	0.410685	0.749429	-0.039691
C50	C	0.392009	0.909266	0.166245
C51	C	0.322470	0.948708	0.217058
C52	C	0.259152	0.934874	0.199227
C53	C	0.265373	0.881595	0.130587
C54	C	0.189606	0.974317	0.250045
C55	C	0.126288	0.960480	0.232218
C56	C	0.202055	0.867757	0.112760
C57	C	0.805216	0.637807	0.117997
C58	C	0.784390	0.566106	0.127946
C59	C	1.043686	0.208776	0.004080
C60	C	1.024100	0.141409	0.013437
C61	C	0.892988	0.190023	0.076067
C62	C	0.912563	0.257396	0.066719
C63	C	0.987914	0.266766	0.030724
C64	C	0.856791	0.315386	0.093363
C65	C	0.876365	0.382753	0.084011
C66	C	0.951711	0.392129	0.048015
C67	C	1.007488	0.334132	0.021371
C68	C	0.781441	0.306015	0.129352
C69	C	0.725668	0.364005	0.155996
C70	C	0.745242	0.431373	0.146651
C71	C	0.820589	0.440749	0.110654
C72	C	0.689466	0.489370	0.173294
C73	C	0.709040	0.556736	0.163942
C74	C	0.840163	0.508116	0.101302
C75	C	1.065130	0.892469	0.144597
C76	C	1.132517	0.907199	0.163573
C77	C	0.866574	0.849066	-0.212831
C78	C	0.866573	0.849066	-0.315163
C79	C	0.927940	1.060331	0.059370
C80	C	0.948766	1.132031	0.049422
C81	C	0.849627	0.790727	-0.355147
C82	C	0.849635	0.790729	-0.451302
C83	C	0.883532	0.907414	-0.467480
C84	C	0.883529	0.907410	-0.371329
C85	C	0.871415	0.705021	-0.593116
C86	C	0.854457	0.646684	-0.633097
C87	C	0.797348	0.610797	-0.574619
C88	C	0.757180	0.633251	-0.476152
C89	C	0.774133	0.691591	-0.436173
C90	C	0.831257	0.727470	-0.494658
C91	C	0.861742	0.993115	-0.229511
C92	C	0.878689	1.051459	-0.189527
C93	C	0.935795	1.087353	-0.248002
C94	C	0.975954	1.064909	-0.346467
C95	C	0.959007	1.006566	-0.386450
C96	C	0.901902	0.970671	-0.327970
C97	C	0.866582	0.849071	0.390199
C98	C	0.866583	0.849072	0.492530
C99	C	0.729388	1.016930	0.003458
C100	C	0.682827	1.073901	-0.025467
C101	C	0.668030	0.805671	0.334286
C102	C	0.600645	0.790942	0.417641
C103	C	0.729392	1.016933	0.304973
C104	C	0.682833	1.073904	0.378379
C105	C	1.003764	0.681205	-0.127605
C106	C	1.050323	0.624233	-0.201011
C107	C	1.003768	0.681207	0.173910
C108	C	1.050329	0.624236	0.202835
C109	C	1.065126	0.892467	-0.156918
C110	C	1.132511	0.907196	-0.240274
C111	C	0.648979	1.059401	-0.092214
C112	C	0.605237	1.112927	-0.119411
C113	C	0.595340	1.180950	-0.079855
C114	C	0.629194	1.195450	-0.013105
C115	C	0.672939	1.141926	0.014085
C116	C	0.580983	0.825278	0.509949
C117	C	0.517675	0.811438	0.588282
C118	C	0.474027	0.763264	0.574304
C119	C	0.493694	0.728924	0.481988
C120	C	0.557004	0.742761	0.403658
C121	C	0.672951	1.141918	0.348250
C122	C	0.629214	1.195457	0.417215
C123	C	0.595355	1.180980	0.516308
C124	C	0.605240	1.112959	0.546438
C125	C	0.648981	1.059423	0.477475
C126	C	1.060212	0.556221	-0.170880
C127	C	1.103969	0.502686	-0.239840
C128	C	1.137832	0.517164	-0.338932
C129	C	1.127942	0.585184	-0.369063
C130	C	1.084191	0.638718	-0.300103
C131	C	1.084184	0.638737	0.269573
C132	C	1.127943	0.585216	0.296749
C133	C	1.137843	0.517193	0.257191
C134	C	1.103985	0.502693	0.190444
C135	C	1.060231	0.556215	0.163264
C136	C	1.176141	0.955373	-0.226266
C137	C	1.239453	0.969226	-0.304583
C138	C	1.259137	0.934897	-0.396904
C139	C	1.215500	0.886717	-0.410910
C140	C	1.152187	0.872869	-0.332597
H141	H	0.184545	1.017693	0.305943
Br142	Br	1.298664	1.034611	-0.285550
Br143	Br	0.948938	0.753714	-0.672481
H144	H	0.831638	0.182384	0.105372
H145	H	0.415760	0.706049	-0.095598
H146	H	1.076140	0.694096	-0.324649
Br147	Br	0.718900	1.161586	0.213772
Br148	Br	0.559298	1.093233	-0.209997
H149	H	0.663624	0.603955	0.185657
Br150	Br	1.197227	0.444563	0.294089
Br151	Br	0.826617	0.711545	-0.278925
H152	H	0.741434	0.709869	-0.356001
Br153	Br	0.255208	0.770087	-0.013063
H154	H	0.422478	0.752003	0.638093
H155	H	0.621129	1.250842	0.019094
Br156	Br	0.774334	0.531625	-0.628881
Br157	Br	0.587209	0.476643	0.222126
Br158	Br	1.117378	0.410381	-0.198927
Br159	Br	0.434449	0.663547	0.463033
Br160	Br	0.551991	0.651526	-0.165858
H161	H	0.559717	1.224527	-0.102003
H162	H	0.657037	1.004019	-0.124441
Br163	Br	0.679662	0.584550	-0.396796
H164	H	0.700494	1.153741	0.068440
H165	H	0.663476	0.705536	-0.096201
Br166	Br	0.640204	0.890664	0.528944
Br167	Br	0.908970	0.616210	-0.766723
Br168	Br	0.978280	0.483555	0.035313
H169	H	1.310693	0.946180	-0.460663
Br170	Br	0.535994	1.253646	0.609891
H171	H	1.068845	0.341761	-0.007907
H172	H	1.076128	0.694121	0.301798
H173	H	0.621171	1.250838	0.392665
Br174	Br	0.559283	1.093323	0.680927
H175	H	1.112052	0.447302	0.158242
Br176	Br	1.197208	0.444502	-0.432511
Br177	Br	0.906542	0.986594	-0.543708
Br178	Br	0.662381	0.967118	0.518382
Br179	Br	1.092985	0.807475	-0.351621
H180	H	0.207130	0.824377	0.056852
Br181	Br	1.014261	0.536553	-0.036403
Br182	Br	1.173902	0.604821	-0.503551
H183	H	1.155504	0.597035	0.351100
H184	H	1.032665	0.544397	0.108924
Br185	Br	0.583676	0.696156	0.278385
Br186	Br	1.149445	1.001972	-0.100982
Br187	Br	0.031909	1.014006	0.301182
Br188	Br	1.145949	0.221499	-0.044754
Br189	Br	1.053449	1.113631	-0.425839
Br190	Br	1.242228	0.840128	-0.536207
H191	H	0.526036	0.873763	0.120507
Br192	Br	1.013502	0.976111	-0.520087
Br193	Br	0.958791	1.166538	-0.193740
Br194	Br	0.490998	0.858051	0.713556
H195	H	0.443567	0.920526	0.180765
H196	H	1.069522	0.094191	-0.008265
H197	H	0.901520	0.515744	0.072024
Br198	Br	0.754875	0.214588	0.142030
H199	H	0.664318	0.356366	0.185301
Br200	Br	0.314025	1.021010	0.310224
H201	H	0.846000	1.069720	-0.109342
Br202	Br	0.784241	0.944397	-0.150141
