data_functionalizedCrystal
_audit_creation_method	'MofGen! by Chris Wilmer'
_symmetry_space_group_name_H-M	'P1'
_symmetry_Int_Tables_number	1
_symmetry_cell_setting	triclinic
loop_
_symmetry_equiv_pos_as_xyz
  x,y,z
_cell_length_a	25.639240
_cell_length_b	12.645331
_cell_length_c	12.645324
_cell_angle_alpha	89.983975
_cell_angle_beta	89.966247
_cell_angle_gamma	90.031294
loop_
_atom_site_label
_atom_site_type_symbol
_atom_site_fract_x
_atom_site_fract_y
_atom_site_fract_z
Zn1	Zn	-0.208122	1.620628	-0.599235
Zn2	Zn	-0.295571	1.620465	-0.421969
Zn3	Zn	-0.208150	1.443342	-0.422001
Zn4	Zn	-0.295527	1.443280	-0.599206
O5	O	-0.251843	1.531929	-0.510603
O6	O	-0.219729	1.768954	-0.575720
O7	O	-0.284005	1.596926	-0.273626
O8	O	-0.134981	1.466954	-0.445537
O9	O	-0.283977	1.768834	-0.445483
O10	O	-0.134960	1.597205	-0.575750
O11	O	-0.219777	1.466795	-0.273650
O12	O	-0.219734	1.294987	-0.445509
O13	O	-0.283902	1.466849	-0.747557
O14	O	-0.283930	1.294941	-0.575701
O15	O	-0.219686	1.597145	-0.747579
O16	O	-0.368730	1.596866	-0.445455
O17	O	-0.368698	1.466690	-0.575670
C18	C	-0.251831	1.256499	-0.510606
C19	C	-0.251838	1.138669	-0.510632
C20	C	-0.292445	0.971112	-0.592109
C21	C	-0.292314	1.093672	-0.592449
C22	C	-0.196768	1.094219	-0.541157
C23	C	-0.197016	0.971621	-0.541731
C24	C	-0.265858	0.971416	-0.398372
C25	C	-0.267063	1.094021	-0.398977
C26	C	-0.387685	1.531782	-0.510579
C27	C	-0.445799	1.531817	-0.510604
C28	C	-0.696930	1.599745	-0.578474
C29	C	-0.642326	1.599713	-0.578466
O30	O	-0.614037	1.657346	-0.636137
N31	N	-0.615073	1.531933	-0.510617
C32	C	-0.642427	1.464188	-0.442763
O33	O	-0.614232	1.406533	-0.385051
C34	C	-0.697030	1.464226	-0.442767
C35	C	-0.724281	1.532003	-0.510628
C36	C	-0.724181	1.667517	-0.646329
C37	C	-0.778781	1.667547	-0.646339
C38	C	-0.806131	1.599805	-0.578493
C39	C	-0.778881	1.532033	-0.510637
C40	C	-0.724383	1.396487	-0.374909
C41	C	-0.778990	1.396531	-0.374918
C42	C	-0.806241	1.464308	-0.442779
C43	C	-0.860832	1.464321	-0.442801
N44	N	-0.888085	1.532101	-0.510650
C45	C	-0.860735	1.599843	-0.578496
C46	C	-0.527756	1.464114	-0.442760
C47	C	-0.473154	1.464070	-0.442761
C48	C	-0.473057	1.599597	-0.578463
C49	C	-0.527660	1.599635	-0.578466
C50	C	-0.555010	1.531894	-0.510609
C51	C	-0.975400	1.599901	-0.578511
C52	C	-1.030005	1.599922	-0.578517
C53	C	-1.030098	1.464399	-0.442812
C54	C	-0.975497	1.464374	-0.442809
C55	C	-0.948149	1.532133	-0.510662
O56	O	-0.889156	1.406721	-0.385156
O57	O	-0.888936	1.657498	-0.636189
C58	C	-0.115469	1.532105	-0.510651
C59	C	-0.057355	1.532180	-0.510671
C60	C	-0.251786	1.532008	-0.787108
C61	C	-0.251761	1.532042	-0.904939
C62	C	-0.251855	1.808434	-0.510601
C63	C	-0.251860	1.926264	-0.510600
C64	C	-0.211480	1.614331	-1.072516
C65	C	-0.211335	1.614067	-0.949956
C66	C	-0.236788	1.420368	-0.949431
C67	C	-0.236482	1.420867	-1.072030
C68	C	-0.307075	1.560522	-1.072129
C69	C	-0.306797	1.562965	-0.949523
C70	C	-0.251861	1.531911	-0.235173
C71	C	-0.251738	1.532082	-0.117344
H72	H	-0.283049	1.123026	-0.675606
H73	H	-1.052190	1.655112	-0.633784
H74	H	-0.196789	1.395815	-0.918742
Br75	Br	-0.938513	1.372387	-0.350715
Br76	Br	-0.436178	1.372062	-0.350681
Br77	Br	-0.359484	1.470365	-0.898454
Br78	Br	-0.226909	1.752816	-1.121658
H79	H	-0.337072	1.500620	-1.101127
H80	H	-0.185143	0.943053	-0.623775
H81	H	-0.333151	1.123723	-0.573318
H82	H	-0.450778	1.654758	-0.633705
H83	H	-0.165693	0.941956	-0.485086
H84	H	-0.236297	0.942414	-0.337641
H85	H	-0.170342	1.595240	-0.920648
Br86	Br	-0.815755	1.759531	-0.738446
H87	H	-0.318088	1.645148	-0.920442
Br88	Br	-0.360738	0.921917	-0.560585
Br89	Br	-0.226956	1.752093	-0.899812
H90	H	-0.283300	0.940326	-0.674782
H91	H	-0.165707	1.123367	-0.483645
H92	H	-0.184679	1.124951	-0.622312
H93	H	-0.307586	1.123083	-0.375955
Br94	Br	-0.331643	0.919825	-0.352116
Br95	Br	-0.221367	1.145064	-0.292320
Br96	Br	-0.938294	1.691861	-0.670597
H97	H	-0.550021	1.408942	-0.387506
H98	H	-0.701917	1.722686	-0.701577
Br99	Br	-0.564637	1.691622	-0.670566
H100	H	-0.702204	1.341297	-0.319650
Br101	Br	-0.169071	1.380625	-1.119730
Br102	Br	-0.816104	1.304597	-0.282816
H103	H	-1.052376	1.409243	-0.387576
H104	H	-0.170714	1.595745	-1.103345
H105	H	-0.264529	1.357501	-1.101683
Br106	Br	-0.284162	1.315446	-0.900847
Br107	Br	-0.329771	1.693927	-1.123663
