data_functionalizedCrystal
_audit_creation_method	'MofGen! by Chris Wilmer'
_symmetry_space_group_name_H-M	'P1'
_symmetry_Int_Tables_number	1
_symmetry_cell_setting	triclinic
loop_
_symmetry_equiv_pos_as_xyz
  x,y,z
_cell_length_a	14.853567
_cell_length_b	19.288865
_cell_length_c	17.766277
_cell_angle_alpha	90.011603
_cell_angle_beta	90.006387
_cell_angle_gamma	83.385589
loop_
_atom_site_label
_atom_site_type_symbol
_atom_site_fract_x
_atom_site_fract_y
_atom_site_fract_z
O1	O	-1.195855	-0.090685	-0.062551
O2	O	-0.933334	-0.101488	-0.062565
O3	O	-1.072180	0.005018	-0.062543
O4	O	-1.057009	-0.197191	-0.062574
O5	O	-1.072156	0.005024	0.062646
O6	O	-0.933310	-0.101482	0.062623
O7	O	-1.195831	-0.090680	0.062637
Cu8	Cu	-1.064568	-0.096080	0.074061
Cu9	Cu	-1.064597	-0.096087	-0.073989
O10	O	-1.056985	-0.197186	0.062615
C11	C	-1.071680	0.030899	0.000053
C12	C	-1.070215	0.108008	0.000060
C13	C	-0.899736	-0.100996	0.000027
C14	C	-0.799661	-0.099529	0.000023
C15	C	-1.229429	-0.091172	0.000043
C16	C	-1.329504	-0.092639	0.000043
C17	C	-0.387522	-0.030061	0.000050
C18	C	-0.365522	-0.156593	0.000030
C19	C	-0.459547	-0.157972	0.000028
C20	C	-0.517565	-0.095395	0.000035
C21	C	-0.481557	-0.031439	0.000045
C22	C	-0.495563	-0.221927	0.000010
C23	C	-0.589594	-0.223309	0.000006
C24	C	-0.647614	-0.160731	0.000019
C25	C	-0.611600	-0.096772	0.000030
C26	C	-0.669618	-0.034195	0.000038
C27	C	-0.633606	0.029764	0.000054
C28	C	-0.539577	0.031139	0.000058
C29	C	-0.741643	-0.162106	0.000015
C30	C	-0.763653	-0.035572	0.000033
C31	C	-1.057485	-0.223067	0.000017
C32	C	-1.058951	-0.300175	0.000005
N33	N	-1.064555	-0.096076	0.178191
C34	C	-1.151683	0.152429	0.000068
C35	C	-1.150307	0.224881	0.000056
C36	C	-1.067457	0.252908	0.000051
C37	C	-0.985977	0.208477	0.000039
C38	C	-0.987356	0.136027	0.000043
C39	C	-1.002318	0.361417	0.043899
C40	C	-1.000943	0.433866	0.043899
C41	C	-1.063200	0.476368	0.000034
C42	C	-1.126848	0.446413	-0.043821
C43	C	-1.128227	0.373963	-0.043817
C44	C	-1.065952	0.331467	0.000046
C45	C	-1.143181	0.599350	0.000028
C46	C	-1.141801	0.671803	0.000011
C47	C	-0.977470	0.655397	0.000002
C48	C	-0.978852	0.582946	0.000011
C49	C	-1.061710	0.554927	0.000028
N50	N	-1.064618	-0.096086	-0.178119
C51	C	-1.126055	-0.048938	0.217588
C52	C	-1.126061	-0.048935	0.296390
C53	C	-1.064574	-0.096081	0.335792
C54	C	-1.003061	-0.143222	0.296386
C55	C	-1.003052	-0.143220	0.217585
C56	C	-1.052504	-0.159328	0.460620
C57	C	-1.052520	-0.159332	0.539419
C58	C	-1.064598	-0.096090	0.578838
C59	C	-1.076679	-0.032841	0.539449
C60	C	-1.076669	-0.032838	0.460649
C61	C	-1.064577	-0.096089	0.421238
C62	C	-1.126108	-0.048944	0.703681
C63	C	-1.126107	-0.048940	0.782484
C64	C	-1.003111	-0.143234	0.782478
C65	C	-1.003108	-0.143232	0.703677
C66	C	-1.064611	-0.096088	0.664283
H67	H	-0.680856	0.080715	0.000055
O68	O	-0.935170	0.315577	0.091216
H69	H	-0.890693	0.348577	0.121720
H70	H	-0.949113	0.458249	0.079604
H71	H	-1.208146	0.707971	0.000014
H72	H	-1.210650	0.576536	0.000038
H73	H	-1.176132	-0.010549	0.185516
O74	O	-0.500738	0.100120	0.000072
H75	H	-0.425607	0.090563	0.000065
O76	O	-0.896615	0.238699	0.000042
H77	H	-0.909342	0.296542	0.000051
H78	H	-0.910012	0.678216	-0.000006
H79	H	-0.358197	0.022013	0.000066
H80	H	-1.086503	0.018661	0.428581
H81	H	-0.953044	-0.181619	0.814559
H82	H	-0.921013	0.099858	0.000037
O83	O	-0.302953	-0.224086	0.000030
H84	H	-0.231518	-0.212383	0.000041
H85	H	-1.176144	-0.010548	0.328473
H86	H	-0.618906	-0.275389	-0.000007
H87	H	-1.086513	0.018657	0.571543
O88	O	-0.826230	0.031922	0.000046
H89	H	-0.813466	0.062523	-0.050973
O90	O	-0.432992	-0.289419	0.000011
H91	H	-0.361559	-0.277715	0.000031
O92	O	-0.780490	-0.231081	0.000003
H93	H	-0.724349	-0.274363	0.000001
H94	H	-1.042654	-0.210831	0.428531
O95	O	-1.192439	0.001905	0.824984
H96	H	-1.236122	-0.027404	0.860877
O97	O	-1.241047	0.122206	0.000065
H98	H	-1.297467	0.165272	0.000058
O99	O	-1.238178	0.272806	0.000075
H100	H	-1.296025	0.241151	0.000093
H101	H	-1.176184	-0.010555	0.671605
O102	O	-0.936785	-0.194082	0.661176
H103	H	-0.894034	-0.226870	0.701811
O104	O	-0.890982	0.535027	0.000021
H105	H	-0.833138	0.566685	0.000025
O106	O	-1.196856	0.341649	-0.091125
H107	H	-1.239913	0.383369	-0.121636
O108	O	-1.194000	0.492241	-0.091143
H109	H	-1.182343	0.547652	-0.083789
H110	H	-0.952996	-0.181609	0.328471
H111	H	-1.042689	-0.210832	0.571483
O112	O	-0.936723	-0.194068	0.175085
H113	H	-0.893969	-0.226855	0.215719
