data_functionalizedCrystal
_audit_creation_method	'MofGen! by Chris Wilmer'
_symmetry_space_group_name_H-M	'P1'
_symmetry_Int_Tables_number	1
_symmetry_cell_setting	triclinic
loop_
_symmetry_equiv_pos_as_xyz
  x,y,z
_cell_length_a	16.109301
_cell_length_b	14.519731
_cell_length_c	14.586319
_cell_angle_alpha	90.005332
_cell_angle_beta	90.001418
_cell_angle_gamma	83.575167
loop_
_atom_site_label
_atom_site_type_symbol
_atom_site_fract_x
_atom_site_fract_y
_atom_site_fract_z
O1	O	1.103345	0.118539	0.076184
O2	O	0.861309	0.133291	0.076199
O3	O	0.988735	-0.008335	0.076183
O4	O	0.975919	0.260166	0.076201
O5	O	0.988725	-0.008339	-0.076298
O6	O	0.861299	0.133288	-0.076282
O7	O	1.103335	0.118536	-0.076296
Cu8	Cu	0.982316	0.125912	-0.090212
Cu9	Cu	0.982328	0.125916	0.090115
O10	O	0.975909	0.260163	-0.076280
C11	C	0.830328	0.132692	-0.000039
C12	C	0.738030	0.130901	-0.000034
C13	C	0.515901	0.210773	-0.000039
C14	C	0.429178	0.209083	-0.000045
C15	C	0.448750	0.041048	-0.000052
C16	C	0.535471	0.042739	-0.000053
C17	C	0.569045	0.127605	-0.000042
C18	C	0.395599	0.124223	-0.000047
C19	C	0.301570	0.122389	-0.000054
C20	C	0.663080	0.129439	-0.000037
C21	C	0.988129	-0.042695	-0.000057
C22	C	0.986330	-0.145072	-0.000058
C23	C	0.984868	-0.228213	-0.000056
C24	C	0.983041	-0.332518	-0.000049
C25	C	0.981591	-0.415654	-0.000043
C26	C	0.979764	-0.519965	-0.000037
C27	C	1.134316	0.119135	-0.000056
C28	C	1.226614	0.120927	-0.000055
C29	C	0.976515	0.294523	-0.000038
C30	C	0.978314	0.396899	-0.000031
N31	N	0.982314	0.125908	-0.217043
C32	C	1.038760	0.063216	-0.548044
C33	C	1.038758	0.063217	-0.452063
C34	C	0.925888	0.188610	-0.452059
C35	C	0.925895	0.188613	-0.548039
C36	C	0.982330	0.125911	-0.596029
C37	C	0.982321	0.125909	-0.404068
C38	C	0.982318	0.125910	-0.300001
C39	C	0.982334	0.125911	-0.700103
N40	N	0.982337	0.125912	0.216946
H41	H	1.084713	0.012162	-0.587116
C42	C	1.100827	-0.005751	-0.399284
H43	H	1.134432	-0.043096	-0.441614
H44	H	1.135487	0.027428	-0.361834
H45	H	1.070851	-0.044152	-0.361851
C46	C	0.370723	0.300568	-0.000036
H47	H	0.403142	0.351350	-0.000023
H48	H	0.336485	0.303404	-0.053209
H49	H	0.336489	0.303400	0.053145
H50	H	0.879939	0.239660	-0.412976
C51	C	0.863814	0.257575	-0.600826
H52	H	0.830193	0.294908	-0.558500
H53	H	0.893780	0.295975	-0.638262
H54	H	0.829157	0.224380	-0.638272
H55	H	0.543233	0.279876	-0.000037
C56	C	0.411816	-0.052297	-0.000053
H57	H	0.352556	-0.041394	-0.000042
H58	H	0.430046	-0.086547	-0.053226
H59	H	0.430052	-0.086532	0.053128
H60	H	0.578743	-0.024991	-0.000058
