data_functionalizedCrystal
_audit_creation_method	'MofGen! by Chris Wilmer'
_symmetry_space_group_name_H-M	'P1'
_symmetry_Int_Tables_number	1
_symmetry_cell_setting	triclinic
loop_
_symmetry_equiv_pos_as_xyz
  x,y,z
_cell_length_a	18.101280
_cell_length_b	12.759401
_cell_length_c	12.759393
_cell_angle_alpha	90.020938
_cell_angle_beta	90.106678
_cell_angle_gamma	89.861426
loop_
_atom_site_label
_atom_site_type_symbol
_atom_site_fract_x
_atom_site_fract_y
_atom_site_fract_z
Zn1	Zn	0.294767	1.605374	0.595021
Zn2	Zn	0.418627	1.604890	0.419762
Zn3	Zn	0.294806	1.429672	0.419356
Zn4	Zn	0.418576	1.429289	0.595399
O5	O	0.356694	1.517306	0.507384
O6	O	0.311202	1.752331	0.571784
O7	O	0.402240	1.581605	0.272687
O8	O	0.191167	1.453342	0.442331
O9	O	0.402202	1.751975	0.443022
O10	O	0.191138	1.582429	0.571391
O11	O	0.311270	1.452873	0.272389
O12	O	0.311219	1.282601	0.442697
O13	O	0.402114	1.452690	0.742370
O14	O	0.402152	1.282319	0.572035
O15	O	0.311152	1.582058	0.742092
O16	O	0.522255	1.581233	0.443388
O17	O	0.522217	1.452220	0.572428
C18	C	0.356685	1.244339	0.507364
C19	C	0.356699	1.127562	0.507380
C20	C	0.404120	1.072581	0.574620
C21	C	0.404123	0.962857	0.574641
C22	C	0.309282	0.963105	0.440172
C23	C	0.309276	1.072827	0.440157
C24	C	0.163530	1.517983	0.506774
C25	C	0.081215	1.518271	0.506513
C26	C	-0.069491	1.517671	0.507119
C27	C	-0.100863	1.598764	0.588441
C28	C	-0.186478	1.598185	0.589103
C29	C	-0.217872	1.517082	0.507715
C30	C	-0.186285	1.406409	0.537273
C31	C	-0.100641	1.407219	0.537519
C32	C	-0.101523	1.546155	0.396162
C33	C	-0.187179	1.548258	0.397101
C34	C	-0.301730	1.516742	0.508051
C35	C	0.014367	1.518003	0.506786
C36	C	0.549107	1.516661	0.508016
C37	C	0.631422	1.516481	0.508321
C38	C	0.356623	1.517385	0.781418
C39	C	0.356593	1.517419	0.898194
C40	C	0.356704	1.791340	0.507406
C41	C	0.356708	1.908116	0.507415
C42	C	0.356711	1.517288	0.234417
C43	C	0.356533	1.517459	0.117640
C44	C	0.309221	1.584786	0.952913
C45	C	0.309189	1.584804	1.062637
C46	C	0.403907	1.450084	1.062914
C47	C	0.403934	1.450062	0.953191
H48	H	0.270655	1.117594	0.385401
C49	C	0.456288	0.902378	0.648605
C50	C	0.508448	0.962589	0.722545
C51	C	0.560615	0.902110	0.796514
C52	C	0.560622	0.781420	0.796542
C53	C	0.508460	0.721202	0.722599
C54	C	0.456293	0.781681	0.648630
H55	H	0.508445	1.051937	0.722526
H56	H	0.599229	0.946688	0.851251
H57	H	0.599239	0.736650	0.851298
H58	H	0.508463	0.631854	0.722618
H59	H	0.417679	0.737103	0.593893
C60	C	-0.214779	1.373020	0.645870
C61	C	-0.260720	1.272274	0.657408
C62	C	-0.289211	1.238893	0.766008
C63	C	-0.271760	1.306258	0.863069
C64	C	-0.225817	1.407010	0.851534
C65	C	-0.197326	1.440391	0.742935
H66	H	-0.273639	1.222401	0.585555
H67	H	-0.323221	1.164309	0.774546
H68	H	-0.292851	1.281547	0.943461
H69	H	-0.212897	1.456883	0.923388
H70	H	-0.163316	1.514975	0.734396
H71	H	-0.206599	1.344162	0.480029
H72	H	0.442509	1.395196	0.908638
C73	C	-0.215365	1.709048	0.564193
C74	C	-0.160508	1.798728	0.543555
C75	C	-0.189390	1.909598	0.518652
C76	C	-0.273129	1.930788	0.514388
C77	C	-0.327991	1.841105	0.535027
C78	C	-0.299109	1.730235	0.559929
H79	H	-0.098514	1.783045	0.546711
H80	H	-0.148777	1.975987	0.503374
H81	H	-0.294509	2.012860	0.495954
H82	H	-0.389985	1.856789	0.531871
H83	H	-0.339722	1.663846	0.575208
H84	H	0.442733	1.117143	0.629360
C85	C	0.257141	1.658867	0.892415
C86	C	0.172948	1.650588	0.907233
C87	C	0.120864	1.724668	0.846738
C88	C	0.152974	1.807029	0.771423
C89	C	0.237172	1.815312	0.756601
C90	C	0.289256	1.741231	0.817097
H91	H	0.149174	1.589617	0.962989
H92	H	0.058535	1.718536	0.857711
H93	H	0.114419	1.861868	0.726641
H94	H	0.260946	1.876283	0.700846
H95	H	0.351585	1.747363	0.806124
H96	H	0.270673	0.918526	0.385440
C97	C	-0.073173	1.374626	0.647090
C98	C	0.010286	1.368615	0.669995
C99	C	0.037750	1.336022	0.779569
C100	C	-0.018245	1.309439	0.866238
C101	C	-0.101710	1.315449	0.843335
C102	C	-0.129174	1.348043	0.733761
H103	H	0.051742	1.388294	0.605836
H104	H	0.099537	1.331573	0.796523
H105	H	0.002085	1.285311	0.947351
H106	H	-0.143166	1.295770	0.907494
H107	H	-0.190960	1.352491	0.716807
C108	C	0.257081	1.658911	1.122829
C109	C	0.205008	1.732994	1.062329
C110	C	0.152896	1.807103	1.122520
C111	C	0.152856	1.807127	1.243210
C112	C	0.204931	1.733040	1.303716
C113	C	0.257043	1.658932	1.243525
H114	H	0.205036	1.732979	0.972981
H115	H	0.114347	1.861947	1.077729
H116	H	0.114280	1.861986	1.287767
H117	H	0.204904	1.733056	1.393064
H118	H	0.295592	1.604088	1.288317
C119	C	-0.073520	1.710200	0.563606
C120	C	-0.022369	1.728932	0.469181
C121	C	0.004984	1.840370	0.444349
C122	C	-0.018812	1.933075	0.513943
C123	C	-0.069965	1.914345	0.608374
C124	C	-0.097319	1.802908	0.633206
H125	H	-0.004752	1.660304	0.417658
H126	H	0.042851	1.854234	0.374444
H127	H	0.001437	2.015568	0.495561
H128	H	-0.087583	1.982974	0.659897
H129	H	-0.135185	1.789044	0.703111
H130	H	-0.080304	1.625662	0.368990
C131	C	-0.074102	1.466368	0.314328
C132	C	-0.028193	1.503650	0.220004
C133	C	-0.000761	1.423863	0.138183
C134	C	-0.019239	1.306792	0.150685
C135	C	-0.065151	1.269504	0.245012
C136	C	-0.092583	1.349292	0.326834
H137	H	-0.014512	1.590318	0.210746
H138	H	0.033226	1.451466	0.068355
H139	H	0.001067	1.247729	0.090116
H140	H	-0.078832	1.182837	0.254271
H141	H	-0.126570	1.321688	0.396662
H142	H	-0.079007	1.580118	0.670197
C143	C	-0.213698	1.572459	0.700415
C144	C	-0.261868	1.474989	0.719322
C145	C	-0.289082	1.449262	0.830642
C146	C	-0.268125	1.521003	0.923054
C147	C	-0.219953	1.618479	0.904150
C148	C	-0.192739	1.644206	0.792830
H149	H	-0.277384	1.421876	0.650910
H150	H	-0.324743	1.377104	0.844635
H151	H	-0.288271	1.501958	1.005460
H152	H	-0.204437	1.671592	0.972562
H153	H	-0.157078	1.716364	0.778837
H154	H	-0.079865	1.344705	0.480850
C155	C	0.455986	1.376003	1.123413
C156	C	0.455962	1.376028	1.244103
C157	C	0.508045	1.301948	1.304600
C158	C	0.560152	1.227842	1.244407
C159	C	0.560178	1.227815	1.123710
C160	C	0.508095	1.301895	1.063213
H161	H	0.417388	1.430888	1.288668
H162	H	0.508025	1.301968	1.393948
H163	H	0.598706	1.173003	1.289191
H164	H	0.598752	1.172955	1.079146
H165	H	0.508114	1.301874	0.973865
H166	H	-0.207863	1.629719	0.374796
C167	C	-0.216074	1.474086	0.311148
C168	C	-0.268277	1.383504	0.340027
C169	C	-0.297169	1.309320	0.254079
C170	C	-0.273858	1.325719	0.139251
C171	C	-0.221652	1.416305	0.110367
C172	C	-0.192760	1.490489	0.196315
H173	H	-0.285536	1.371362	0.425034
H174	H	-0.335816	1.242263	0.275461
H175	H	-0.295246	1.270803	0.075627
H176	H	-0.204394	1.428447	0.025360
H177	H	-0.154114	1.557546	0.174933
