data_functionalizedCrystal
_audit_creation_method	'MofGen! by Chris Wilmer'
_symmetry_space_group_name_H-M	'P1'
_symmetry_Int_Tables_number	1
_symmetry_cell_setting	triclinic
loop_
_symmetry_equiv_pos_as_xyz
  x,y,z
_cell_length_a	19.077105
_cell_length_b	18.050589
_cell_length_c	19.077271
_cell_angle_alpha	87.709704
_cell_angle_beta	89.912562
_cell_angle_gamma	87.724731
loop_
_atom_site_label
_atom_site_type_symbol
_atom_site_fract_x
_atom_site_fract_y
_atom_site_fract_z
Zn1	Zn	1.058165	-0.359400	0.440435
Zn2	Zn	1.062819	-0.478776	0.322936
Zn3	Zn	0.945407	-0.349418	0.318229
Zn4	Zn	0.940620	-0.478359	0.435688
O5	O	1.001753	-0.416488	0.379322
O6	O	1.157114	-0.379588	0.428805
O7	O	1.051195	-0.457614	0.223981
O8	O	0.960420	-0.246821	0.334456
O9	O	1.160533	-0.467293	0.342479
O10	O	1.043263	-0.254154	0.424241
O11	O	0.964932	-0.362575	0.220522
O12	O	0.846441	-0.362171	0.329853
O13	O	0.952262	-0.466581	0.534648
O14	O	0.842924	-0.456903	0.416150
O15	O	1.038622	-0.379183	0.538136
O16	O	1.046554	-0.582643	0.337876
O17	O	0.956775	-0.582336	0.420714
C18	C	0.819187	-0.408409	0.371976
C19	C	0.741083	-0.404971	0.368850
C20	C	0.702580	-0.452746	0.412241
C21	C	0.629194	-0.449506	0.409307
C22	C	0.594312	-0.398494	0.362978
C23	C	0.632820	-0.350713	0.319586
C24	C	0.706205	-0.353950	0.322524
C25	C	0.375028	-0.383513	0.349385
C26	C	0.301638	-0.380282	0.346449
C27	C	0.298017	-0.479074	0.436171
C28	C	0.371404	-0.482309	0.439102
C29	C	0.409905	-0.434526	0.395712
N30	N	0.519299	-0.395183	0.359977
N31	N	0.484916	-0.437835	0.398718
C32	C	1.001669	-0.609436	0.379307
C33	C	1.001696	-0.691984	0.379326
C34	C	0.952921	-0.891296	0.424359
C35	C	0.938383	-0.937353	0.359553
C36	C	1.001764	-0.843118	0.379338
C37	C	1.016337	-0.944145	0.444153
C38	C	1.001829	-0.989106	0.379355
C39	C	0.987194	-0.888084	0.314497
C40	C	1.065176	-0.894875	0.399142
C41	C	1.050664	-0.940909	0.334292
C42	C	1.001725	-0.759018	0.379329
C43	C	1.001869	-1.073205	0.379357
C44	C	1.185032	-0.424600	0.386697
C45	C	1.263135	-0.428057	0.389840
C46	C	0.994389	-0.423949	0.562601
C47	C	0.991251	-0.427128	0.640704
C48	C	1.001856	-0.222789	0.379353
C49	C	1.001900	-0.140245	0.379366
C50	C	1.034737	-0.383120	0.679213
C51	C	1.031780	-0.386104	0.752599
C52	C	0.985340	-0.433101	0.787473
C53	C	0.941849	-0.477110	0.748958
C54	C	0.944803	-0.474122	0.675574
C55	C	0.971680	-0.446914	1.006753
C56	C	0.968731	-0.449901	1.080143
C57	C	1.058662	-0.358893	1.083778
C58	C	1.061615	-0.355912	1.010393
C59	C	1.018121	-0.399919	0.971884
N60	N	0.982318	-0.436154	0.862485
N61	N	1.021140	-0.396862	0.896873
C62	C	1.009082	-0.409073	1.196755
C63	C	1.012217	-0.405893	1.118653
H64	H	0.597848	-0.488411	0.444640
H65	H	0.936275	-0.482759	0.975409
O66	O	0.867389	-0.962224	0.337368
H67	H	0.854973	-0.938817	0.283938
O68	O	0.891757	-0.527799	0.786571
H69	H	0.837183	-0.512040	0.770269
H70	H	1.072556	-0.344853	0.650824
O71	O	0.897891	-0.521585	0.634041
H72	H	0.930657	-0.559399	0.601859
O73	O	0.740203	-0.507764	0.462212
H74	H	0.701097	-0.540435	0.491897
O75	O	0.409027	-0.537323	0.489077
H76	H	0.369924	-0.569996	0.518763
H77	H	1.092000	-0.962550	0.296181
O78	O	0.898134	-0.862430	0.474709
H79	H	0.909721	-0.885806	0.528326
H80	H	1.099434	-0.317645	0.982003
H81	H	0.266661	-0.517975	0.471498
O82	O	0.595203	-0.295709	0.269597
H83	H	0.537705	-0.301495	0.274831
H84	H	0.974832	-0.863658	0.259673
O85	O	1.078687	-0.338643	0.794137
H86	H	1.111483	-0.305470	0.757559
O87	O	1.105551	-0.311407	1.125310
H88	H	1.095688	-0.321367	1.182197
H89	H	0.273238	-0.338733	0.308727
O90	O	0.918632	-0.500582	1.117763
H91	H	0.931205	-0.558830	1.104153
H92	H	1.118758	-0.876087	0.415907
O93	O	0.747733	-0.302427	0.275713
H94	H	0.733182	-0.244034	0.287289
O95	O	0.416552	-0.332001	0.302566
H96	H	0.379965	-0.295999	0.269847
H97	H	1.028636	-0.968658	0.498960
