data_functionalizedCrystal
_audit_creation_method	'MofGen! by Chris Wilmer'
_symmetry_space_group_name_H-M	'P1'
_symmetry_Int_Tables_number	1
_symmetry_cell_setting	triclinic
loop_
_symmetry_equiv_pos_as_xyz
  x,y,z
_cell_length_a	15.500227
_cell_length_b	11.026607
_cell_length_c	11.026607
_cell_angle_alpha	71.413983
_cell_angle_beta	86.545431
_cell_angle_gamma	86.533579
loop_
_atom_site_label
_atom_site_type_symbol
_atom_site_fract_x
_atom_site_fract_y
_atom_site_fract_z
O1	O	0.071942	-1.731369	0.529003
O2	O	0.571942	-1.231369	1.029003
O3	O	0.071943	-1.364789	0.468239
O4	O	0.571943	-0.864789	0.968239
O5	O	0.071940	-1.517697	0.315331
O6	O	0.571940	-1.017697	0.815331
O7	O	0.071946	-1.578461	0.681911
O8	O	0.571946	-1.078461	1.181911
O9	O	-0.071949	-1.508408	0.324563
O10	O	0.428051	-1.008408	0.824563
O11	O	-0.071945	-1.355500	0.477471
O12	O	0.428055	-0.855500	0.977471
O13	O	-0.071946	-1.722080	0.538235
O14	O	0.428054	-1.222080	1.038235
Cu15	Cu	-0.085084	-1.537942	0.508696
Cu16	Cu	0.414916	-1.037942	1.008696
Cu17	Cu	0.085081	-1.548927	0.497778
Cu18	Cu	0.585081	-1.048927	0.997778
O19	O	-0.071943	-1.569172	0.691143
O20	O	0.428057	-1.069172	1.191143
C21	C	-0.000001	-1.312485	0.461645
C22	C	0.499999	-0.812485	0.961645
C23	C	-0.000000	-1.170471	0.428228
C24	C	0.500000	-0.670471	0.928228
N25	N	-0.204769	-1.530224	0.516377
N26	N	0.295231	-1.030224	1.016377
C27	C	-0.000003	-1.501842	0.272288
C28	C	0.499997	-1.001842	0.772288
C29	C	-0.000000	-1.468426	0.130273
C30	C	0.500000	-0.968426	0.630273
C31	C	-0.250047	-1.595052	0.451621
C32	C	0.249953	-1.095052	0.951621
C33	C	-0.340620	-1.589230	0.457444
C34	C	0.159380	-1.089230	0.957444
C35	C	-0.385912	-1.518586	0.528031
C36	C	0.114088	-1.018586	1.028031
C37	C	-0.340628	-1.453751	0.592788
C38	C	0.159372	-0.953751	1.092788
C39	C	-0.250057	-1.459566	0.586957
C40	C	0.249943	-0.959566	1.086957
C41	C	-0.659379	-1.497632	0.549016
C42	C	-0.159379	-0.997632	1.049016
C43	C	-0.749956	-1.491824	0.554845
C44	C	-0.249956	-0.991824	1.054845
C45	C	-0.749942	-1.627302	0.419498
C46	C	-0.249942	-1.127302	0.919498
C47	C	-0.659369	-1.633118	0.413680
C48	C	-0.159369	-1.133118	0.913680
C49	C	-0.614092	-1.568276	0.478432
C50	C	-0.114092	-1.068276	0.978432
C51	C	-0.478492	-1.512637	0.533988
C52	C	0.021508	-1.012637	1.033988
C53	C	-0.521514	-1.574219	0.472466
C54	C	-0.021514	-1.074219	0.972466
N55	N	0.204766	-1.556652	0.490090
N56	N	0.704766	-1.056652	0.990090
C57	C	-0.000000	-1.774384	0.544829
C58	C	0.500000	-1.274384	1.044829
C59	C	0.000005	-1.916398	0.578245
C60	C	0.500005	-1.416398	1.078245
C61	C	0.000002	-1.116821	0.520498
C62	C	0.500002	-0.616821	1.020498
C63	C	0.000003	-0.970043	0.485962
C64	C	0.500003	-0.470043	0.985962
C65	C	0.000001	-1.560695	0.076624
C66	C	0.500001	-1.060695	0.576624
C67	C	0.000004	-1.526160	-0.070155
C68	C	0.500004	-1.026160	0.429845
C69	C	0.000002	-1.585026	0.734186
C70	C	0.500002	-1.085026	1.234186
C71	C	0.000005	-1.618443	0.876200
C72	C	0.500005	-1.118443	1.376200
H73	H	-0.213175	-1.652584	0.394148
H74	H	0.286825	-1.152584	0.894148
Br75	Br	-0.811420	-1.395949	0.650657
Br76	Br	-0.311420	-0.895949	1.150657
Br77	Br	-0.000001	-1.221368	0.694783
Br78	Br	0.499999	-0.721368	1.194783
H79	H	-0.484634	-1.631732	0.414989
H80	H	0.015366	-1.131732	0.914989
Br81	Br	-0.402072	-1.677206	0.369555
Br82	Br	0.097928	-1.177206	0.869555
H83	H	0.000006	-1.363863	0.067540
H84	H	0.500006	-0.863863	0.567540
Br85	Br	0.000017	-1.351869	-0.174698
Br86	Br	0.500017	-0.851869	0.325302
H87	H	-0.515377	-1.455120	0.591464
H88	H	-0.015377	-0.955120	1.091464
Br89	Br	-0.597937	-1.409639	0.636893
Br90	Br	-0.097937	-0.909639	1.136893
H91	H	0.000023	-0.907315	0.381391
H92	H	0.500023	-0.407315	0.881391
H93	H	-0.622493	-1.690641	0.356202
H94	H	-0.122493	-1.190641	0.856202
Br95	Br	-0.811391	-1.715294	0.331622
Br96	Br	-0.311391	-1.215294	0.831622
Br97	Br	-0.000013	-1.065923	0.253944
Br98	Br	0.499987	-0.565923	0.753944
H99	H	0.000069	-1.723017	-0.061077
H100	H	0.500069	-1.223017	0.438923
Br101	Br	-0.402093	-1.357864	0.688576
Br102	Br	0.097907	-0.857864	1.188576
Br103	Br	-0.000009	-1.020936	0.752539
Br104	Br	0.499991	-0.520936	1.252539
Br105	Br	-0.188608	-1.371571	0.674834
Br106	Br	0.311392	-0.871571	1.174834
H107	H	-0.000005	-1.665258	0.139358
H108	H	0.499995	-1.165258	0.639358
