data_functionalizedCrystal
_audit_creation_method	'MofGen! by Chris Wilmer'
_symmetry_space_group_name_H-M	'P1'
_symmetry_Int_Tables_number	1
_symmetry_cell_setting	triclinic
loop_
_symmetry_equiv_pos_as_xyz
  x,y,z
_cell_length_a	27.731993
_cell_length_b	27.732048
_cell_length_c	10.065918
_cell_angle_alpha	99.886927
_cell_angle_beta	99.916038
_cell_angle_gamma	82.631525
loop_
_atom_site_label
_atom_site_type_symbol
_atom_site_fract_x
_atom_site_fract_y
_atom_site_fract_z
O1	O	0.647221	0.063631	0.113140
O2	O	0.506429	0.072409	0.113225
O3	O	0.581196	-0.002379	0.113154
O4	O	0.572454	0.138419	0.113211
O5	O	0.568597	-0.014900	-0.113831
O6	O	0.493830	0.059888	-0.113760
O7	O	0.634622	0.051111	-0.113846
Zn8	Zn	0.562226	0.053512	-0.149842
Zn9	Zn	0.578825	0.070008	0.149222
O10	O	0.559855	0.125899	-0.113774
C11	C	0.482122	0.065969	-0.000257
C12	C	0.428468	0.065429	-0.000225
C13	C	0.052171	0.068319	0.123437
C14	C	0.253831	0.070388	0.123475
O15	O	0.285745	0.076440	0.228705
N16	N	0.272184	0.063822	-0.000252
C17	C	0.240119	0.056735	-0.123998
O18	O	0.260357	0.051193	-0.229234
C19	C	0.038461	0.054663	-0.124034
C20	C	0.020110	0.061234	-0.000299
C21	C	0.033820	0.074889	0.247162
C22	C	-0.016592	0.074375	0.247151
C23	C	-0.048653	0.067290	0.123415
C24	C	-0.030302	0.060719	-0.000310
C25	C	0.006397	0.047572	-0.247778
C26	C	-0.044020	0.047053	-0.247776
C27	C	-0.062370	0.053625	-0.124041
C28	C	-0.112776	0.053120	-0.124056
N29	N	-0.131129	0.059686	-0.000329
C30	C	-0.099067	0.066771	0.123407
C31	C	0.345992	0.057825	-0.123970
C32	C	0.396407	0.058344	-0.123961
C33	C	0.410115	0.071996	0.123512
C34	C	0.359700	0.071480	0.123501
C35	C	0.327640	0.064391	-0.000243
C36	C	-0.204937	0.065690	0.123375
C37	C	-0.255355	0.065176	0.123353
C38	C	-0.269059	0.051522	-0.124119
C39	C	-0.218646	0.052038	-0.124098
C40	C	-0.186586	0.059121	-0.000340
O41	O	-0.144717	0.047065	-0.229231
O42	O	-0.119314	0.072301	0.228627
C43	C	0.102584	0.068834	0.123447
C44	C	0.120935	0.062263	-0.000278
C45	C	0.088874	0.055178	-0.124013
C46	C	0.171349	0.062782	-0.000269
C47	C	0.203410	0.069867	0.123467
C48	C	0.185057	0.076433	0.247194
C49	C	0.134645	0.075919	0.247183
C50	C	0.107226	0.048612	-0.247740
C51	C	0.157639	0.049128	-0.247719
C52	C	0.189700	0.056213	-0.123984
C53	C	0.574713	-0.026647	-0.000342
C54	C	0.574160	-0.080302	-0.000353
C55	C	0.614867	-0.419122	-0.000308
C56	C	0.612817	-0.620781	-0.000288
O57	O	0.650041	-0.652041	-0.000250
N58	N	0.568482	-0.639894	-0.000262
C59	C	0.524657	-0.608589	-0.000232
O60	O	0.486901	-0.629473	-0.000196
C61	C	0.526708	-0.406932	-0.000243
C62	C	0.571045	-0.387822	-0.000282
C63	C	0.659200	-0.400012	-0.000346
C64	C	0.659712	-0.349601	-0.000358
C65	C	0.615890	-0.318300	-0.000333
C66	C	0.571557	-0.337411	-0.000295
C67	C	0.482884	-0.375627	-0.000204
C68	C	0.483401	-0.325210	-0.000203
C69	C	0.527738	-0.306100	-0.000242
C70	C	0.528246	-0.255699	-0.000282
N71	N	0.572581	-0.236585	-0.000308
C72	C	0.616403	-0.267886	-0.000333
C73	C	0.523583	-0.714463	-0.000230
C74	C	0.523070	-0.764877	-0.000229
C75	C	0.611231	-0.777065	-0.000282
C76	C	0.611742	-0.726650	-0.000292
C77	C	0.567918	-0.695349	-0.000255
C78	C	0.617474	-0.162018	-0.000360
C79	C	0.617982	-0.111603	-0.000379
C80	C	0.529822	-0.099419	-0.000319
C81	C	0.529314	-0.149831	-0.000308
C82	C	0.573144	-0.181130	-0.000324
O83	O	0.491043	-0.224409	-0.000304
O84	O	0.654155	-0.246991	-0.000339
C85	C	0.614355	-0.469534	-0.000295
C86	C	0.570022	-0.488644	-0.000257
C87	C	0.526200	-0.457343	-0.000232
C88	C	0.569509	-0.539058	-0.000257
C89	C	0.613331	-0.570359	-0.000283
C90	C	0.657666	-0.551245	-0.000308
C91	C	0.658177	-0.500834	-0.000321
C92	C	0.481865	-0.476457	-0.000206
C93	C	0.481357	-0.526869	-0.000195
C94	C	0.525179	-0.558170	-0.000221
C95	C	0.658929	0.057550	-0.000360
C96	C	0.712584	0.058092	-0.000383
C97	C	0.566338	0.150166	-0.000275
C98	C	0.566892	0.203822	-0.000255
N99	N	0.550901	0.042253	-0.353945
C100	C	0.574882	0.066091	-0.421729
C101	C	0.566170	0.057421	-0.578894
N102	N	0.590154	0.081262	0.353324
H103	H	-0.270293	0.070529	0.224117
O104	O	0.530436	0.021873	-0.656112
H105	H	0.493246	0.034261	-0.628757
O106	O	0.481491	-0.170442	-0.000282
H107	H	0.474010	-0.198227	-0.092794
O108	O	-0.170362	0.073334	0.256851
H109	H	-0.191600	0.077821	0.342872
O110	O	0.444701	0.079629	0.256976
H111	H	0.482839	0.078879	0.236181
O112	O	0.311414	0.050185	-0.257444
H113	H	0.332650	0.045713	-0.343465
O114	O	0.475246	-0.785485	-0.000213
H115	H	0.482245	-0.825800	-0.000230
O116	O	0.219645	0.084075	0.380650
H117	H	0.198420	0.088560	0.466697
H118	H	0.647846	-0.711095	-0.000323
O119	O	0.476311	-0.680706	-0.000219
H120	H	0.445399	-0.702473	-0.000222
H121	H	0.695816	-0.334046	-0.000385
H122	H	0.617137	0.108089	-0.588362
H123	H	0.523922	0.015426	-0.412265
H124	H	0.601864	0.092915	-0.363408
H125	H	0.446780	-0.391177	-0.000163
O126	O	0.177428	0.042051	-0.381185
H127	H	0.146660	0.037038	-0.467220
H128	H	-0.031528	0.079724	0.347909
O129	O	0.072622	0.040998	-0.381164
H130	H	0.083541	0.004870	-0.440581
O131	O	0.068397	0.082535	0.380630
H132	H	0.047158	0.087020	0.466648
H133	H	0.344763	0.076831	0.224258
H134	H	0.653165	-0.187496	-0.000368
O135	O	0.704930	-0.585014	-0.000342
H136	H	0.735849	-0.563261	-0.000378
H137	H	0.021329	0.042220	-0.348536
H138	H	0.654087	-0.096047	-0.000414
O139	O	0.706468	-0.433770	-0.000393
H140	H	0.737377	-0.412004	-0.000433
O141	O	0.436130	-0.291452	-0.000183
H142	H	0.420028	-0.293099	0.092342
H143	H	0.646912	-0.802559	-0.000303
H144	H	0.446179	-0.450976	-0.000183
O145	O	0.416190	0.051268	-0.257426
H146	H	0.443392	0.018220	-0.263371
O147	O	-0.078601	0.039411	-0.381245
H148	H	-0.057368	0.034934	-0.467274
O149	O	-0.198849	0.044952	-0.257549
H150	H	-0.229615	0.039937	-0.343591
H151	H	-0.295172	0.045755	-0.224861
O152	O	0.433532	-0.547479	-0.000163
H153	H	0.417634	-0.529770	0.092372
H154	H	0.494143	-0.073925	-0.000303
O155	O	0.114857	0.082988	0.380640
H156	H	0.145629	0.087991	0.466671
H157	H	0.694281	-0.485280	-0.000352
