data_functionalizedCrystal
_audit_creation_method	'MofGen! by Chris Wilmer'
_symmetry_space_group_name_H-M	'P1'
_symmetry_Int_Tables_number	1
_symmetry_cell_setting	triclinic
loop_
_symmetry_equiv_pos_as_xyz
  x,y,z
_cell_length_a	19.188930
_cell_length_b	17.666332
_cell_length_c	15.944551
_cell_angle_alpha	89.992575
_cell_angle_beta	96.678241
_cell_angle_gamma	90.023234
loop_
_atom_site_label
_atom_site_type_symbol
_atom_site_fract_x
_atom_site_fract_y
_atom_site_fract_z
O1	O	0.926421	0.063193	-0.104867
O2	O	1.426421	0.563193	0.395133
O3	O	0.723146	0.063142	-0.118984
O4	O	1.223146	0.563142	0.381016
O5	O	0.830334	0.063162	0.010370
O6	O	1.330334	0.563162	0.510370
O7	O	0.819232	0.063173	-0.234221
O8	O	1.319232	0.563173	0.265779
O9	O	0.830315	-0.062735	0.010377
O10	O	1.330315	0.437265	0.510377
O11	O	0.723127	-0.062755	-0.118977
O12	O	1.223127	0.437245	0.381023
O13	O	0.926402	-0.062703	-0.104861
O14	O	1.426402	0.437297	0.395139
Cu15	Cu	0.824763	-0.074225	-0.111918
Cu16	Cu	1.324763	0.425775	0.388082
Cu17	Cu	0.824785	0.074663	-0.111926
Cu18	Cu	1.324785	0.574663	0.388074
O19	O	0.819214	-0.062724	-0.234215
O20	O	1.319214	0.437276	0.265785
C21	C	0.697124	0.000187	-0.118524
C22	C	1.197124	0.500187	0.381476
C23	C	0.619616	0.000167	-0.117151
C24	C	1.119616	0.500167	0.382849
C25	C	0.574889	0.000182	-0.193052
C26	C	1.074889	0.500182	0.306948
C27	C	0.502061	0.000190	-0.191763
C28	C	1.002061	0.500190	0.308237
C29	C	0.473965	0.000198	-0.114568
C30	C	0.973965	0.500198	0.385432
C31	C	0.518703	0.000179	-0.038658
C32	C	1.018703	0.500179	0.461342
C33	C	0.591528	0.000163	-0.039949
C34	C	1.091528	0.500163	0.460051
N35	N	0.365839	0.043074	-0.055565
N36	N	0.865839	0.543074	0.444435
N37	N	0.296657	0.043091	-0.054344
N38	N	0.796657	0.543091	0.445656
C39	C	0.254547	0.000245	-0.110673
C40	C	0.754547	0.500245	0.389327
N41	N	0.284230	-0.042610	-0.168282
N42	N	0.784230	0.457390	0.331718
N43	N	0.353418	-0.042623	-0.169507
N44	N	0.853418	0.457377	0.330493
C45	C	0.394999	0.000215	-0.113160
C46	C	0.894999	0.500215	0.386840
C47	C	0.130851	0.000268	-0.185181
C48	C	0.630851	0.500268	0.314819
C49	C	0.058023	0.000271	-0.183888
C50	C	0.558023	0.500271	0.316112
C51	C	0.074666	0.000268	-0.030781
C52	C	0.574666	0.500268	0.469219
C53	C	0.147492	0.000256	-0.032076
C54	C	0.647492	0.500256	0.467924
C55	C	0.175580	0.000260	-0.109278
C56	C	0.675580	0.500260	0.390722
N57	N	0.824752	-0.178944	-0.111912
N58	N	1.324752	0.321056	0.388088
C59	C	0.872231	-0.218545	-0.054662
C60	C	1.372231	0.281455	0.445338
C61	C	0.872235	-0.297792	-0.054658
C62	C	1.372235	0.202208	0.445342
C63	C	0.824767	-0.337436	-0.111918
C64	C	1.324767	0.162564	0.388082
C65	C	0.777280	-0.297826	-0.169173
C66	C	1.277280	0.202174	0.330827
C67	C	0.777272	-0.218580	-0.169170
C68	C	1.277272	0.281420	0.330830
N69	N	0.815883	-0.461853	-0.186275
N70	N	1.315883	0.038147	0.313725
N71	N	0.815894	-0.537133	-0.186275
N72	N	1.315894	-0.037133	0.313725
C73	C	0.824785	-0.576200	-0.111930
C74	C	1.324785	-0.076200	0.388070
N75	N	0.833679	-0.537143	-0.037582
N76	N	1.333679	-0.037143	0.462418
N77	N	0.833671	-0.461855	-0.037583
N78	N	1.333671	0.038145	0.462417
C79	C	0.824769	-0.423365	-0.111928
C80	C	1.324769	0.076635	0.388072
C81	C	0.872271	-0.701730	-0.054671
C82	C	1.372271	-0.201730	0.445329
C83	C	0.872270	-0.780979	-0.054666
C84	C	1.372270	-0.280979	0.445334
C85	C	0.777318	-0.781011	-0.169188
C86	C	1.277318	-0.281011	0.330812
C87	C	0.777316	-0.701764	-0.169186
C88	C	1.277316	-0.201764	0.330814
C89	C	0.824796	-0.662128	-0.111928
C90	C	1.324796	-0.162128	0.388072
C91	C	0.952423	0.000253	-0.105321
C92	C	1.452423	0.500253	0.394679
C93	C	1.029932	0.000278	-0.106693
C94	C	1.529932	0.500278	0.393307
C95	C	0.829864	0.000213	0.041665
C96	C	1.329864	0.500213	0.541665
C97	C	0.828482	0.000213	0.134906
C98	C	1.328482	0.500213	0.634906
N99	N	0.824801	0.179382	-0.111926
N100	N	1.324801	0.679382	0.388074
C101	C	0.819684	0.000226	-0.265510
C102	C	1.319684	0.500226	0.234490
C103	C	0.821066	0.000232	-0.358751
C104	C	1.321066	0.500232	0.141249
C105	C	0.758739	0.000205	0.349502
C106	C	1.258739	0.500205	0.849502
C107	C	0.791116	-0.061861	0.410644
C108	C	1.291116	0.438139	0.910644
C109	C	0.825983	0.000218	0.305623
C110	C	1.325983	0.500218	0.805623
C111	C	0.791151	0.062263	0.410621
C112	C	1.291151	0.562263	0.910621
C113	C	0.823563	0.000226	0.470527
C114	C	1.323563	0.500226	0.970527
C115	C	0.858378	-0.061900	0.365537
C116	C	1.358378	0.438100	0.865537
C117	C	0.858403	0.062280	0.365507
C118	C	1.358403	0.562280	0.865507
C119	C	0.890829	0.000199	0.426631
C120	C	1.390829	0.500199	0.926631
C121	C	0.827374	0.000212	0.210626
C122	C	1.327374	0.500212	0.710626
C123	C	0.822176	0.000226	0.565522
C124	C	1.322176	0.500226	1.065522
H125	H	0.465637	0.000200	-0.253572
H126	H	0.965637	0.500200	0.246428
N127	N	0.894007	-0.127801	0.340588
N128	N	1.394007	0.372199	0.840588
N129	N	0.862567	-0.174035	0.290250
N130	N	1.362567	0.325965	0.790250
H131	H	0.887726	-0.220578	0.272627
H132	H	1.387726	0.279422	0.772627
H133	H	0.910930	-0.669457	-0.008046
H134	H	1.410930	-0.169457	0.491954
H135	H	0.762708	0.114739	0.430588
H136	H	1.262708	0.614739	0.930588
N137	N	0.960906	0.000193	0.468501
N138	N	1.460906	0.500193	0.968501
N139	N	1.001857	0.052996	0.456080
N140	N	1.501857	0.552996	0.956080
H141	H	1.051348	0.052991	0.485653
H142	H	1.551348	0.552991	0.985653
H143	H	0.910899	-0.330041	-0.008036
H144	H	1.410899	0.169959	0.491964
N145	N	0.894059	0.128132	0.340389
N146	N	1.394059	0.628132	0.840389
N147	N	0.871150	0.192533	0.354576
N148	N	1.371150	0.692533	0.854576
H149	H	0.896327	0.239047	0.336836
H150	H	1.396327	0.739047	0.836836
N151	N	0.045978	0.000256	0.048073
N152	N	0.545978	0.500256	0.548073
N153	N	0.007173	-0.052811	0.065876
N154	N	0.507173	0.447189	0.565876
H155	H	-0.013090	-0.052825	0.121570
H156	H	0.486910	0.447175	0.621570
N157	N	0.603567	0.000188	-0.271917
N158	N	1.103567	0.500188	0.228083
N159	N	0.563617	0.000203	-0.339681
N160	N	1.063617	0.500203	0.160319
H161	H	0.583872	0.000207	-0.395380
H162	H	1.083872	0.500207	0.104620
H163	H	0.495822	0.000196	0.024194
H164	H	0.995822	0.500196	0.524194
N165	N	0.728785	-0.178126	-0.227669
N166	N	1.228785	0.321874	0.272331
N167	N	0.750938	-0.133892	-0.279744
N168	N	1.250938	0.366108	0.220256
H169	H	0.716695	-0.105319	-0.321064
H170	H	1.216695	0.394681	0.178936
N171	N	0.728820	-0.821483	-0.227680
N172	N	1.228820	-0.321483	0.272320
N173	N	0.664289	-0.812663	-0.226720
N174	N	1.164289	-0.312663	0.273280
H175	H	0.630033	-0.841248	-0.268030
H176	H	1.130033	-0.341248	0.231970
H177	H	0.153721	0.000259	-0.248043
H178	H	0.653721	0.500259	0.251957
N179	N	0.637211	0.000144	0.037593
N180	N	1.137211	0.500144	0.537593
N181	N	0.612121	0.000144	0.106513
N182	N	1.112121	0.500144	0.606513
H183	H	0.644385	0.000130	0.161280
H184	H	1.144385	0.500130	0.661280
N185	N	0.688718	0.000108	0.307463
N186	N	1.188718	0.500108	0.807463
N187	N	0.648015	-0.053120	0.319171
N188	N	1.148015	0.446880	0.819171
H189	H	0.598563	-0.053192	0.289481
H190	H	1.098563	0.446808	0.789481
H191	H	0.738657	-0.669519	-0.215808
H192	H	1.238657	-0.169519	0.284192
H193	H	0.910890	-0.186276	-0.008038
H194	H	1.410890	0.313724	0.491962
N195	N	0.012341	0.000278	-0.261431
N196	N	0.512341	0.500278	0.238569
N197	N	0.037433	0.000279	-0.330351
N198	N	0.537433	0.500279	0.169649
H199	H	0.005171	0.000283	-0.385118
H200	H	0.505171	0.500283	0.114882
H201	H	0.183911	0.000248	0.029731
H202	H	0.683911	0.500248	0.529731
N203	N	0.728793	-0.338329	-0.227652
N204	N	1.228793	0.161671	0.272348
N205	N	0.728805	-0.409084	-0.227648
N206	N	1.228805	0.090916	0.272352
H207	H	0.694558	-0.437690	-0.268948
H208	H	1.194558	0.062310	0.231052
H209	H	0.910931	-0.813223	-0.008041
H210	H	1.410931	-0.313223	0.491959
N211	N	0.755422	-0.127702	0.435736
N212	N	1.255422	0.372298	0.935736
N213	N	0.692668	-0.138778	0.407738
N214	N	1.192668	0.361222	0.907738
H215	H	0.667453	-0.185275	0.425456
H216	H	1.167453	0.314725	0.925456
