data_functionalizedCrystal
_audit_creation_method	'MofGen! by Chris Wilmer'
_symmetry_space_group_name_H-M	'P1'
_symmetry_Int_Tables_number	1
_symmetry_cell_setting	triclinic
loop_
_symmetry_equiv_pos_as_xyz
  x,y,z
_cell_length_a	16.625545
_cell_length_b	18.050591
_cell_length_c	16.625539
_cell_angle_alpha	89.987293
_cell_angle_beta	89.973757
_cell_angle_gamma	90.024399
loop_
_atom_site_label
_atom_site_type_symbol
_atom_site_fract_x
_atom_site_fract_y
_atom_site_fract_z
Zn1	Zn	-0.321040	1.135322	-0.455817
Zn2	Zn	0.012293	1.468655	-0.122484
Zn3	Zn	0.345627	1.801989	0.210850
Zn4	Zn	-0.455879	1.135234	-0.320985
Zn5	Zn	-0.122545	1.468567	0.012349
Zn6	Zn	0.210788	1.801901	0.345682
Zn7	Zn	-0.321061	1.011137	-0.321008
Zn8	Zn	0.012272	1.344470	0.012326
Zn9	Zn	0.345606	1.677803	0.345659
Zn10	Zn	-0.455832	1.011095	-0.455785
Zn11	Zn	-0.122498	1.344428	-0.122451
Zn12	Zn	0.210835	1.677762	0.210882
O13	O	-0.388453	1.073197	-0.388398
O14	O	-0.055120	1.406530	-0.055065
O15	O	0.278214	1.739864	0.278268
O16	O	-0.338938	1.239235	-0.437935
O17	O	-0.005604	1.572568	-0.104602
O18	O	0.327729	1.905902	0.228732
O19	O	-0.438023	1.118753	-0.208155
O20	O	-0.104690	1.452086	0.125178
O21	O	0.228643	1.785419	0.458511
O22	O	-0.208226	1.027664	-0.338914
O23	O	0.125107	1.360998	-0.005580
O24	O	0.458441	1.694331	0.327753
O25	O	-0.438003	1.239170	-0.338874
O26	O	-0.104670	1.572503	-0.005541
O27	O	0.228664	1.905837	0.327792
O28	O	-0.208210	1.118903	-0.437957
O29	O	0.125123	1.452236	-0.104624
O30	O	0.458456	1.785570	0.228709
O31	O	-0.338973	1.027579	-0.208172
O32	O	-0.005640	1.360912	0.125161
O33	O	0.327693	1.694245	0.458495
O34	O	-0.338928	0.907207	-0.338882
O35	O	-0.005594	1.240540	-0.005549
O36	O	0.327739	1.573873	0.327784
O37	O	-0.437923	1.027594	-0.568621
O38	O	-0.104589	1.360927	-0.235288
O39	O	0.228744	1.694260	0.098045
O40	O	-0.437943	0.907176	-0.437902
O41	O	-0.104610	1.240509	-0.104569
O42	O	0.228724	1.573843	0.228764
O43	O	-0.338892	1.118863	-0.568645
O44	O	-0.005559	1.452196	-0.235312
O45	O	0.327775	1.785529	0.098022
O46	O	-0.568705	1.118712	-0.338843
O47	O	-0.235372	1.452046	-0.005510
O48	O	0.097962	1.785379	0.327824
O49	O	-0.568670	1.027508	-0.437880
O50	O	-0.235337	1.360841	-0.104547
O51	O	0.097996	1.694175	0.228787
C52	C	-0.388433	0.880245	-0.388392
C53	C	-0.055100	1.213578	-0.055058
C54	C	0.278233	1.546911	0.278275
C55	C	-0.388444	0.797699	-0.388408
C56	C	-0.055111	1.131032	-0.055075
C57	C	0.278222	1.464366	0.278259
C58	C	-0.442400	0.548878	-0.442182
C59	C	-0.109067	0.882212	-0.108849
C60	C	0.224267	1.215545	0.224485
C61	C	-0.462026	0.598247	-0.368586
C62	C	-0.128693	0.931580	-0.035253
C63	C	0.204641	1.264913	0.298081
C64	C	-0.388469	0.500579	-0.388407
C65	C	-0.055136	0.833912	-0.055073
C66	C	0.278197	1.167245	0.278260
C67	C	-0.368869	0.598292	-0.461999
C68	C	-0.035536	0.931625	-0.128665
C69	C	0.297798	1.264959	0.204668
C70	C	-0.388459	0.646564	-0.388411
C71	C	-0.055126	0.979897	-0.055078
C72	C	0.278208	1.313230	0.278255
C73	C	-0.408134	0.548860	-0.314772
C74	C	-0.074800	0.882193	0.018562
C75	C	0.258533	1.215526	0.351895
C76	C	-0.314942	0.548901	-0.408234
C77	C	0.018391	0.882234	-0.074901
C78	C	0.351724	1.215567	0.258432
C79	C	-0.334540	0.598247	-0.334588
C80	C	-0.001207	0.931580	-0.001254
C81	C	0.332126	1.264913	0.332079
C82	C	-0.388478	0.416480	-0.388405
C83	C	-0.055144	0.749814	-0.055072
C84	C	0.278189	1.083147	0.278262
C85	C	-0.388451	0.730660	-0.388405
C86	C	-0.055118	1.063994	-0.055071
C87	C	0.278216	1.397327	0.278262
C88	C	-0.597944	1.073116	-0.388373
C89	C	-0.264610	1.406450	-0.055040
C90	C	0.068723	1.739783	0.278294
C91	C	-0.687565	1.073150	-0.388389
C92	C	-0.354232	1.406483	-0.055056
C93	C	-0.020898	1.739816	0.278278
C94	C	-0.760347	1.073178	-0.388405
C95	C	-0.427014	1.406512	-0.055072
C96	C	-0.093681	1.739845	0.278261
C97	C	-0.851656	1.073222	-0.388423
C98	C	-0.518322	1.406555	-0.055090
C99	C	-0.184989	1.739888	0.278244
C100	C	-0.924432	1.073260	-0.388433
C101	C	-0.591099	1.406594	-0.055100
C102	C	-0.257765	1.739927	0.278233
C103	C	-1.015746	1.073303	-0.388450
C104	C	-0.682413	1.406636	-0.055116
C105	C	-0.349080	1.739969	0.278217
C106	C	-0.178144	1.073298	-0.388442
C107	C	0.155189	1.406631	-0.055108
C108	C	0.488523	1.739965	0.278225
C109	C	-0.088523	1.073341	-0.388460
C110	C	0.244811	1.406675	-0.055127
C111	C	0.578144	1.740008	0.278207
C112	C	-0.388400	1.073233	-0.598707
C113	C	-0.055066	1.406567	-0.265374
C114	C	0.278267	1.739900	0.067959
C115	C	-0.388377	1.073249	-0.688329
C116	C	-0.055044	1.406582	-0.354995
C117	C	0.278290	1.739915	-0.021662
C118	C	-0.388473	1.266902	-0.388406
C119	C	-0.055140	1.600236	-0.055072
C120	C	0.278193	1.933569	0.278261
C121	C	-0.388482	1.349448	-0.388409
C122	C	-0.055149	1.682782	-0.055075
C123	C	0.278185	2.016115	0.278258
C124	C	-0.388359	1.073261	-0.761111
C125	C	-0.055026	1.406594	-0.427778
C126	C	0.278308	1.739928	-0.094444
C127	C	-0.388329	1.073278	-0.852420
C128	C	-0.054996	1.406612	-0.519086
C129	C	0.278338	1.739945	-0.185753
C130	C	-0.388301	1.073296	-0.925196
C131	C	-0.054967	1.406629	-0.591863
C132	C	0.278366	1.739962	-0.258529
C133	C	-0.388272	1.073314	-1.016510
C134	C	-0.054938	1.406648	-0.683177
C135	C	0.278395	1.739981	-0.349844
C136	C	-0.388448	1.073203	-0.178908
C137	C	-0.055114	1.406537	0.154426
C138	C	0.278219	1.739870	0.487759
C139	C	-0.388243	1.073332	-0.089287
C140	C	-0.054910	1.406665	0.244046
C141	C	0.278423	1.739998	0.577380
H142	H	-0.352295	0.620005	-0.524233
H143	H	-0.018962	0.953339	-0.190900
H144	H	0.314372	1.286672	0.142434
C145	C	-0.430180	0.520077	-0.231707
C146	C	-0.096847	0.853410	0.101626
C147	C	0.236486	1.186744	0.434960
C148	C	-0.373940	0.545658	-0.175532
C149	C	-0.040607	0.878991	0.157801
C150	C	0.292726	1.212325	0.491134
C151	C	-0.394220	0.519149	-0.099011
C152	C	-0.060887	0.852482	0.234323
C153	C	0.272446	1.185815	0.567656
H154	H	-0.482217	0.537366	-0.217428
H155	H	-0.148884	0.870700	0.115906
H156	H	0.184450	1.204033	0.449239
H157	H	-0.430036	0.467446	-0.232182
H158	H	-0.096703	0.800779	0.101151
H159	H	0.236631	1.134113	0.434485
H160	H	-0.374093	0.598278	-0.175055
H161	H	-0.040759	0.931611	0.158278
H162	H	0.292574	1.264945	0.491612
H163	H	-0.321899	0.528371	-0.189785
H164	H	0.011434	0.861704	0.143548
H165	H	0.344767	1.195038	0.476881
H166	H	-0.394076	0.466518	-0.099485
H167	H	-0.060743	0.799851	0.233848
H168	H	0.272591	1.133184	0.567181
H169	H	-0.446258	0.536440	-0.084739
H170	H	-0.112924	0.869773	0.248594
H171	H	0.220409	1.203106	0.581927
H172	H	-0.356061	0.536496	-0.060888
H173	H	-0.022728	0.869829	0.272445
H174	H	0.310606	1.203162	0.605779
C175	C	-0.503388	0.520008	-0.502634
C176	C	-0.170054	0.853341	-0.169301
C177	C	0.163279	1.186675	0.164032
C178	C	-0.580256	0.544997	-0.481496
C179	C	-0.246923	0.878331	-0.148163
C180	C	0.086411	1.211664	0.185171
C181	C	-0.636460	0.518408	-0.537155
C182	C	-0.303126	0.851741	-0.203822
C183	C	0.030207	1.185074	0.129512
H184	H	-0.490088	0.537642	-0.554809
H185	H	-0.156755	0.870976	-0.221476
H186	H	0.176579	1.204309	0.111858
H187	H	-0.502679	0.467379	-0.502543
H188	H	-0.169346	0.800713	-0.169209
H189	H	0.163988	1.134046	0.164124
H190	H	-0.580963	0.597615	-0.481596
H191	H	-0.247629	0.930948	-0.148262
H192	H	0.085704	1.264282	0.185071
H193	H	-0.593581	0.527365	-0.429330
H194	H	-0.260247	0.860698	-0.095997
H195	H	0.073086	1.194032	0.237336
H196	H	-0.635751	0.465779	-0.537063
H197	H	-0.302417	0.799112	-0.203730
H198	H	0.030916	1.132446	0.129603
H199	H	-0.623152	0.536044	-0.589326
H200	H	-0.289819	0.869377	-0.255993
H201	H	0.043514	1.202711	0.077340
H202	H	-0.688622	0.535353	-0.522816
H203	H	-0.355288	0.868687	-0.189483
H204	H	-0.021955	1.202020	0.143850
H205	H	-0.288928	0.619786	-0.289061
H206	H	0.044405	0.953120	0.044272
H207	H	0.377738	1.286453	0.377606
C208	C	-0.544868	0.627198	-0.346062
C209	C	-0.211534	0.960532	-0.012729
C210	C	0.121799	1.293865	0.320605
C211	C	-0.539167	0.669810	-0.275935
C212	C	-0.205834	1.003143	0.057398
C213	C	0.127500	1.336476	0.390732
C214	C	-0.615467	0.696481	-0.255162
C215	C	-0.282133	1.029814	0.078171
C216	C	0.051200	1.363148	0.411504
H217	H	-0.565196	0.656943	-0.388576
H218	H	-0.231862	0.990277	-0.055242
H219	H	0.101471	1.323610	0.278091
H220	H	-0.580163	0.586634	-0.337012
H221	H	-0.246830	0.919968	-0.003679
H222	H	0.086503	1.253301	0.329655
H223	H	-0.503884	0.710368	-0.284989
H224	H	-0.170551	1.043701	0.048344
H225	H	0.162783	1.377035	0.381677
H226	H	-0.518853	0.640080	-0.233406
H227	H	-0.185520	0.973414	0.099927
H228	H	0.147814	1.306747	0.433261
H229	H	-0.650762	0.655917	-0.246112
H230	H	-0.317429	0.989250	0.087221
H231	H	0.015904	1.322584	0.420554
H232	H	-0.635788	0.726223	-0.297681
H233	H	-0.302455	1.059556	0.035653
H234	H	0.030878	1.392890	0.368986
H235	H	-0.611610	0.725390	-0.207576
H236	H	-0.278277	1.058723	0.125758
H237	H	0.055057	1.392057	0.459091
C238	C	-0.232091	0.520008	-0.430792
C239	C	0.101242	0.853341	-0.097458
C240	C	0.434576	1.186674	0.235875
C241	C	-0.211885	0.544995	-0.507933
C242	C	0.121449	0.878328	-0.174599
C243	C	0.454782	1.211662	0.158734
C244	C	-0.135573	0.518384	-0.528753
C245	C	0.197760	0.851717	-0.195420
C246	C	0.531093	1.185051	0.137913
H247	H	-0.193560	0.537629	-0.393206
H248	H	0.139773	0.870962	-0.059873
H249	H	0.473107	1.204295	0.273461
H250	H	-0.232569	0.467379	-0.430187
H251	H	0.100764	0.800713	-0.096853
H252	H	0.434097	1.134046	0.236480
H253	H	-0.211400	0.597613	-0.508532
H254	H	0.121933	0.930946	-0.175198
H255	H	0.455266	1.264279	0.158135
H256	H	-0.250395	0.527376	-0.545536
H257	H	0.082938	0.860710	-0.212202
H258	H	0.416272	1.194043	0.121131
H259	H	-0.136051	0.465755	-0.528149
H260	H	0.197282	0.799089	-0.194815
H261	H	0.530615	1.132422	0.138518
H262	H	-0.097049	0.536006	-0.491163
H263	H	0.236284	0.869340	-0.157830
H264	H	0.569618	1.202673	0.175504
H265	H	-0.121856	0.535328	-0.581098
H266	H	0.211477	0.868661	-0.247765
H267	H	0.544810	1.201995	0.085569
