data_functionalizedCrystal
_audit_creation_method	'MofGen! by Chris Wilmer'
_symmetry_space_group_name_H-M	'P1'
_symmetry_Int_Tables_number	1
_symmetry_cell_setting	triclinic
loop_
_symmetry_equiv_pos_as_xyz
  x,y,z
_cell_length_a	12.811438
_cell_length_b	11.892113
_cell_length_c	12.811487
_cell_angle_alpha	88.930736
_cell_angle_beta	84.560627
_cell_angle_gamma	99.769223
loop_
_atom_site_label
_atom_site_type_symbol
_atom_site_fract_x
_atom_site_fract_y
_atom_site_fract_z
O1	O	1.407519	0.222333	0.155597
O2	O	1.099897	0.189441	0.168865
O3	O	1.262444	0.222329	0.010526
O4	O	1.244972	0.189445	0.313935
O5	O	1.250404	0.034320	-0.001504
O6	O	1.087857	0.001432	0.156835
O7	O	1.395479	0.034324	0.143567
Zn8	Zn	1.239757	-0.011972	0.148291
Zn9	Zn	1.255620	0.235737	0.164141
O10	O	1.232932	0.001436	0.301905
C11	C	1.054519	0.091516	0.161737
C12	C	0.937242	0.079836	0.158411
N13	N	1.228938	-0.181027	0.137473
C14	C	0.765384	-0.039103	0.147165
C15	C	0.875575	-0.028134	0.150291
C16	C	0.888710	0.176844	0.163408
C17	C	0.778519	0.165875	0.160281
C18	C	0.716859	0.057898	0.152158
C19	C	0.606667	0.046931	0.149025
C20	C	0.619803	0.251907	0.162149
C21	C	0.729994	0.262876	0.165275
C22	C	1.341715	-0.417676	0.250277
C23	C	1.334162	-0.536016	0.242706
C24	C	1.206283	-0.536049	0.114758
C25	C	1.213837	-0.417708	0.122328
C26	C	1.281554	-0.358526	0.190091
C27	C	1.289101	-0.240185	0.197666
C28	C	1.161229	-0.240219	0.069712
C29	C	1.153676	-0.358559	0.062142
C30	C	1.440858	0.132251	0.150694
C31	C	1.558135	0.143938	0.154022
C32	C	1.255813	0.132246	-0.034345
C33	C	1.253980	0.143930	-0.150125
N34	N	1.266447	0.404793	0.174950
C35	C	1.237426	-0.039099	-0.380820
C36	C	1.235703	-0.028126	-0.489606
C37	C	1.248818	0.176850	-0.476486
C38	C	1.250541	0.165876	-0.367700
C39	C	1.244843	0.057898	-0.319871
C40	C	1.246559	0.046925	-0.211082
C41	C	1.259681	0.251901	-0.197965
C42	C	1.257958	0.262874	-0.306751
C43	C	1.239563	0.091521	0.346777
C44	C	1.241397	0.079845	0.462557
H45	H	0.556464	-0.040991	0.142418
O46	O	1.264089	0.379330	-0.358339
H47	H	1.335594	0.397497	-0.416109
H48	H	0.938930	0.264753	0.170030
H49	H	0.715179	-0.127023	0.140557
O50	O	1.267686	0.356532	-0.132230
H51	H	1.267932	0.330766	-0.048549
O52	O	1.231276	-0.155558	-0.329229
H53	H	1.233714	-0.146892	-0.243343
H54	H	0.780212	0.350787	0.171893
O55	O	0.927916	-0.132756	0.144919
H56	H	0.866524	-0.209677	0.138745
H57	H	0.580283	0.330892	0.166218
H58	H	1.344235	-0.192001	0.252846
O59	O	1.096350	-0.176412	0.004783
H60	H	1.042912	-0.133386	0.057575
H61	H	1.396843	-0.369491	0.305462
H62	H	1.151163	-0.584253	0.059577
O63	O	1.399043	-0.599820	0.307625
H64	H	1.447391	-0.538782	0.356019
H65	H	1.098546	-0.406760	0.006968
O66	O	1.240428	-0.069531	-0.159494
H67	H	1.164980	-0.124835	-0.175013
O68	O	1.227696	-0.132743	-0.555348
H69	H	1.224015	-0.209667	-0.503807
O70	O	1.254963	0.293305	-0.528080
H71	H	1.252513	0.284633	-0.613965
