data_functionalizedCrystal
_audit_creation_method	'MofGen! by Chris Wilmer'
_symmetry_space_group_name_H-M	'P1'
_symmetry_Int_Tables_number	1
_symmetry_cell_setting	triclinic
loop_
_symmetry_equiv_pos_as_xyz
  x,y,z
_cell_length_a	10.723023
_cell_length_b	10.654559
_cell_length_c	9.798715
_cell_angle_alpha	89.996528
_cell_angle_beta	89.996770
_cell_angle_gamma	84.478047
loop_
_atom_site_label
_atom_site_type_symbol
_atom_site_fract_x
_atom_site_fract_y
_atom_site_fract_z
O1	O	1.657220	0.176141	-0.113478
O2	O	1.294070	0.193003	-0.113484
O3	O	1.483989	0.001832	-0.113471
O4	O	1.467301	0.367312	-0.113492
O5	O	1.483974	0.001832	0.113511
O6	O	1.294056	0.193003	0.113498
O7	O	1.657205	0.176141	0.113504
Zn8	Zn	1.475628	0.184572	0.149539
Zn9	Zn	1.475647	0.184572	-0.149520
O10	O	1.467287	0.367312	0.113491
C11	C	1.247563	0.191776	0.000006
C12	C	1.109008	0.188105	0.000004
C13	C	0.904047	0.182675	-0.117579
C14	C	1.047251	0.186469	-0.117580
C15	C	1.482754	-0.044965	0.000020
C16	C	1.479081	-0.184408	0.000019
C17	C	1.703712	0.177368	0.000010
C18	C	1.842267	0.181039	0.000003
N19	N	1.475625	0.184570	0.353639
C20	C	1.468522	0.414109	-0.000003
C21	C	1.472194	0.553552	-0.000011
C22	C	1.473919	0.619076	-0.123733
C23	C	1.477366	0.750097	-0.123718
C24	C	1.477361	0.750058	0.123750
C25	C	1.473922	0.619039	0.123734
C26	C	1.472191	0.553589	-0.247478
C27	C	1.473914	0.619114	-0.371210
C28	C	1.477362	0.750135	-0.371195
C29	C	1.479087	0.815631	-0.247449
N30	N	1.475661	0.184564	-0.353619
C31	C	1.555366	0.103950	0.421421
C32	C	1.555386	0.103945	0.578584
H33	H	0.895394	0.182440	0.100670
H34	H	1.469379	0.446906	-0.247504
H35	H	1.472519	0.565777	-0.471959
F36	F	1.479209	0.819866	-0.502879
H37	H	1.407365	0.253586	0.411959
H38	H	0.850922	0.181260	-0.218245
F39	F	1.116689	0.188318	-0.249164
H40	H	1.055886	0.186705	0.100676
H41	H	1.623618	0.034924	0.363104
F42	F	1.482772	0.955075	-0.247441
F43	F	1.479193	0.819769	0.255439
F44	F	1.472093	0.549298	0.255413
H45	H	1.623661	0.034927	0.636874
F46	F	1.386426	0.274794	0.570203
