data_functionalizedCrystal
_audit_creation_method	'MofGen! by Chris Wilmer'
_symmetry_space_group_name_H-M	'P1'
_symmetry_Int_Tables_number	1
_symmetry_cell_setting	triclinic
loop_
_symmetry_equiv_pos_as_xyz
  x,y,z
_cell_length_a	8.559649
_cell_length_b	8.597275
_cell_length_c	8.140239
_cell_angle_alpha	97.700208
_cell_angle_beta	89.997621
_cell_angle_gamma	77.624622
loop_
_atom_site_label
_atom_site_type_symbol
_atom_site_fract_x
_atom_site_fract_y
_atom_site_fract_z
O1	O	2.119294	-0.053144	-0.144110
O2	O	1.655354	0.027756	-0.132666
O3	O	1.896457	-0.242261	-0.170878
O4	O	1.878191	0.216873	-0.105897
O5	O	1.896443	-0.242262	0.102349
O6	O	1.655340	0.027755	0.140561
O7	O	2.119281	-0.053145	0.129117
Zn8	Zn	1.887308	-0.012696	0.178220
Zn9	Zn	1.887326	-0.012694	-0.181768
O10	O	1.878178	0.216871	0.167330
C11	C	1.894489	-0.300497	-0.042510
C12	C	1.888628	-0.474016	-0.067078
C13	C	1.595913	0.033886	0.004815
C14	C	1.418817	0.052135	0.007395
C15	C	2.178722	-0.059276	-0.008367
C16	C	2.355817	-0.077525	-0.010958
C17	C	1.880145	0.275107	0.038958
C18	C	1.886006	0.448627	0.063516
N19	N	1.887308	-0.012699	0.423902
N20	N	1.887339	-0.012705	-0.427452
H21	H	1.888258	-0.484849	0.194121
C22	C	1.464461	-0.244206	-0.034886
C23	C	1.434261	-0.327559	-0.187274
C24	C	1.534339	-0.481103	-0.209385
H25	H	1.444254	-0.301215	0.052213
H26	H	1.573054	-0.234805	-0.033643
H27	H	1.325694	-0.336967	-0.188503
H28	H	1.454478	-0.270599	-0.274403
H29	H	1.642931	-0.471703	-0.208142
H30	H	1.514123	-0.538098	-0.122277
H31	H	1.513872	-0.537673	-0.312787
C32	C	1.885700	-0.562431	-0.241356
C33	C	1.889319	-0.456306	-0.356912
C34	C	1.886632	-0.537708	-0.517475
H35	H	1.790810	-0.602891	-0.253405
H36	H	1.976338	-0.649171	-0.259848
H37	H	1.798689	-0.369595	-0.338427
H38	H	1.984203	-0.415841	-0.344917
H39	H	1.977271	-0.624448	-0.535967
H40	H	1.791740	-0.578165	-0.529506
H41	H	1.889102	-0.465718	-0.595899
C42	C	1.309899	0.218687	0.030705
C43	C	1.213378	0.236871	-0.107274
C44	C	1.113009	0.390265	-0.085852
H45	H	1.372971	0.297735	0.041811
H46	H	1.244189	0.231348	0.127725
H47	H	1.279080	0.224226	-0.204267
H48	H	1.150272	0.157860	-0.118405
H49	H	1.047299	0.402925	0.011168
H50	H	1.176094	0.469300	-0.074743
H51	H	1.047498	0.402617	-0.179459
