data_functionalizedCrystal
_audit_creation_method	'MofGen! by Chris Wilmer'
_symmetry_space_group_name_H-M	'P1'
_symmetry_Int_Tables_number	1
_symmetry_cell_setting	triclinic
loop_
_symmetry_equiv_pos_as_xyz
  x,y,z
_cell_length_a	17.666332
_cell_length_b	17.038272
_cell_length_c	17.038272
_cell_angle_alpha	91.111556
_cell_angle_beta	89.993620
_cell_angle_gamma	89.996433
loop_
_atom_site_label
_atom_site_type_symbol
_atom_site_fract_x
_atom_site_fract_y
_atom_site_fract_z
O1	O	0.062854	-1.048760	-0.170538
O2	O	0.562854	-0.548760	0.329462
O3	O	0.062877	-0.820948	-0.167831
O4	O	0.562877	-0.320948	0.332169
O5	O	0.062860	-0.933500	-0.055279
O6	O	0.562860	-0.433500	0.444721
O7	O	0.062871	-0.936208	-0.283090
O8	O	0.562871	-0.436208	0.216910
O9	O	-0.063037	-0.933479	-0.055271
O10	O	0.436963	-0.433479	0.444729
O11	O	-0.063020	-0.820927	-0.167823
O12	O	0.436980	-0.320927	0.332177
O13	O	-0.063042	-1.048738	-0.170531
O14	O	0.436958	-0.548738	0.329469
Cu15	Cu	-0.074527	-0.934831	-0.169176
Cu16	Cu	0.425473	-0.434831	0.330824
Cu17	Cu	0.074361	-0.934856	-0.169185
Cu18	Cu	0.574361	-0.434856	0.330815
O19	O	-0.063025	-0.936187	-0.283082
O20	O	0.436975	-0.436187	0.216918
C21	C	-0.000069	-0.791645	-0.165364
C22	C	0.499931	-0.291645	0.334636
C23	C	-0.000061	-0.704361	-0.158016
C24	C	0.499939	-0.204361	0.341984
C25	C	-0.000088	-0.931027	-0.025982
C26	C	0.499912	-0.431027	0.474018
C27	C	-0.000088	-0.923679	0.061301
C28	C	0.499912	-0.423679	0.561301
N29	N	-0.179246	-0.934818	-0.169169
N30	N	0.320754	-0.434818	0.330831
C31	C	-0.218863	-0.984675	-0.119359
C32	C	0.281137	-0.484675	0.380641
C33	C	-0.298111	-0.984680	-0.119355
C34	C	0.201889	-0.484680	0.380645
C35	C	-0.337738	-0.934835	-0.169176
C36	C	0.162262	-0.434835	0.330824
C37	C	-0.298111	-0.884969	-0.218990
C38	C	0.201889	-0.384969	0.281010
C39	C	-0.218865	-0.884960	-0.218987
C40	C	0.281135	-0.384960	0.281013
N41	N	-0.462153	-0.929461	-0.238001
N42	N	0.037847	-0.429461	0.261999
N43	N	-0.537433	-0.929474	-0.238002
N44	N	-0.037433	-0.429474	0.261998
C45	C	-0.576502	-0.934857	-0.169189
C46	C	-0.076502	-0.434857	0.330811
N47	N	-0.537447	-0.940242	-0.100373
N48	N	-0.037447	-0.440242	0.399627
N49	N	-0.462160	-0.940234	-0.100373
N50	N	0.037840	-0.440234	0.399627
C51	C	-0.423667	-0.934839	-0.169185
C52	C	0.076333	-0.434839	0.330815
C53	C	-0.702049	-0.984721	-0.119370
C54	C	-0.202049	-0.484721	0.380630
C55	C	-0.781298	-0.984720	-0.119365
C56	C	-0.281298	-0.484720	0.380635
C57	C	-0.781297	-0.885013	-0.219008
C58	C	-0.281297	-0.385013	0.280992
C59	C	-0.702049	-0.885010	-0.219005
C60	C	-0.202049	-0.385010	0.280995
C61	C	-0.662430	-0.934868	-0.169188
C62	C	-0.162430	-0.434868	0.330812
N63	N	0.179080	-0.934874	-0.169186
N64	N	0.679080	-0.434874	0.330814
C65	C	-0.000095	-1.078042	-0.172997
C66	C	0.499905	-0.578042	0.327003
C67	C	-0.000099	-1.165326	-0.180346
C68	C	0.499901	-0.665326	0.319654
C69	C	-0.000058	-0.658752	-0.225479
C70	C	0.499942	-0.158752	0.274521
C71	C	-0.000069	-0.576740	-0.218570
C72	C	0.499931	-0.076740	0.281430
C73	C	-0.000077	-0.540339	-0.144197
C74	C	0.499923	-0.040339	0.355803
C75	C	-0.000082	-0.585954	-0.076728
C76	C	0.499918	-0.085954	0.423272
C77	C	-0.000077	-0.667965	-0.083638
C78	C	0.499923	-0.167965	0.416362
C79	C	-0.000098	-0.292951	-0.119787
C80	C	0.499902	0.207049	0.380213
C81	C	-0.000101	-0.210935	-0.112882
C82	C	0.499899	0.289065	0.387118
C83	C	-0.000089	-0.201726	-0.254725
C84	C	0.499911	0.298274	0.245275
C85	C	-0.000080	-0.283739	-0.261628
C86	C	0.499920	0.216261	0.238372
C87	C	-0.000089	-0.329347	-0.194159
C88	C	0.499911	0.170653	0.305841
C89	C	-0.000086	-0.456510	-0.137133
C90	C	0.499914	0.043490	0.362867
C91	C	-0.000085	-0.413174	-0.201224
C92	C	0.499915	0.086826	0.298776
C93	C	-0.000076	-0.938660	-0.312379
C94	C	0.499924	-0.438660	0.187621
C95	C	-0.000072	-0.946008	-0.399663
C96	C	0.499928	-0.446008	0.100337
C97	C	-0.000095	-0.991142	0.106911
C98	C	0.499905	-0.491142	0.606911
C99	C	-0.000087	-0.984233	0.188923
C100	C	0.499913	-0.484233	0.688923
C101	C	-0.000077	-0.909860	0.225324
C102	C	0.499923	-0.409860	0.725324
C103	C	-0.000068	-0.842391	0.179708
C104	C	0.499932	-0.342391	0.679708
C105	C	-0.000070	-0.849301	0.097698
C106	C	0.499930	-0.349301	0.597698
C107	C	-0.000065	-0.885449	0.472712
C108	C	0.499935	-0.385449	0.972712
C109	C	-0.000064	-0.878545	0.554728
C110	C	0.499936	-0.378545	1.054728
C111	C	-0.000082	-1.020387	0.563937
C112	C	0.499918	-0.520387	1.063937
C113	C	-0.000089	-1.027291	0.481924
C114	C	0.499911	-0.527291	0.981924
C115	C	-0.000076	-0.959822	0.436316
C116	C	0.499924	-0.459822	0.936316
C117	C	-0.000072	-0.902796	0.309153
C118	C	0.499928	-0.402796	0.809153
C119	C	-0.000076	-0.966886	0.352488
C120	C	0.499924	-0.466886	0.852488
H121	H	-0.186608	-1.025271	-0.078792
H122	H	0.313392	-0.525271	0.421208
H123	H	-0.669790	-1.025316	-0.078803
H124	H	-0.169790	-0.525316	0.421197
H125	H	-0.813555	-1.025317	-0.078799
H126	H	-0.313555	-0.525317	0.421201
Cl127	Cl	-0.347927	-0.822304	-0.281620
Cl128	Cl	0.152073	-0.322304	0.218380
H129	H	-0.000092	-1.075316	0.601079
H130	H	0.499908	-0.575316	1.101079
Cl131	Cl	-0.000058	-0.764486	0.040360
Cl132	Cl	0.499942	-0.264486	0.540360
H133	H	-0.186608	-0.844360	-0.259549
H134	H	0.313392	-0.344360	0.240451
H135	H	-0.000065	-0.842241	0.338800
H136	H	0.499935	-0.342241	0.838800
H137	H	-0.330373	-1.025281	-0.078792
H138	H	0.169627	-0.525281	0.421208
Cl139	Cl	-0.831109	-0.822345	-0.281634
Cl140	Cl	-0.331109	-0.322345	0.218366
Cl141	Cl	-0.000042	-0.704505	-0.318982
Cl142	Cl	0.499958	-0.204505	0.181018
H143	H	-0.669791	-0.844415	-0.259569
H144	H	-0.169791	-0.344415	0.240431
Cl145	Cl	-0.000097	-0.540193	0.016770
Cl146	Cl	0.499903	-0.040193	0.516770
H147	H	-0.000079	-0.705099	-0.028702
H148	H	0.499921	-0.205099	0.471298
H149	H	-0.000114	-0.426863	-0.076578
H150	H	0.499886	0.073137	0.423422
Cl151	Cl	-0.000060	-0.519406	-0.303386
Cl152	Cl	0.499940	-0.019406	0.196614
Cl153	Cl	-0.000064	-0.329494	-0.355129
Cl154	Cl	0.499936	0.170506	0.144871
H155	H	-0.000084	-0.164583	-0.309653
H156	H	0.499916	0.335417	0.190347
H157	H	-0.000095	-1.039170	0.226054
H158	H	0.499905	-0.539170	0.726054
H159	H	-0.000107	-0.181300	-0.052315
H160	H	0.499893	0.318700	0.447685
Cl161	Cl	-0.000109	-0.350276	-0.034967
Cl162	Cl	0.499891	0.149724	0.465033
Cl163	Cl	-0.000077	-0.458937	-0.294718
Cl164	Cl	0.499923	0.041063	0.205282
Cl165	Cl	-0.000115	-1.084645	0.061158
Cl166	Cl	0.499885	-0.584645	0.561158
Cl167	Cl	-0.000077	-1.120792	0.436169
Cl168	Cl	0.499923	-0.620792	0.936169
H169	H	-0.000069	-0.817978	0.584363
H170	H	0.499931	-0.317978	1.084363
Cl171	Cl	-0.000045	-0.800630	0.415386
Cl172	Cl	0.499955	-0.300630	0.915386
H173	H	-0.000055	-0.781835	0.209353
H174	H	0.499945	-0.281835	0.709353
Cl175	Cl	-0.000084	-1.060381	0.306726
Cl176	Cl	0.499916	-0.560381	0.806726
