data_functionalizedCrystal
_audit_creation_method	'MofGen! by Chris Wilmer'
_symmetry_space_group_name_H-M	'P1'
_symmetry_Int_Tables_number	1
_symmetry_cell_setting	triclinic
loop_
_symmetry_equiv_pos_as_xyz
  x,y,z
_cell_length_a	13.339070
_cell_length_b	10.489741
_cell_length_c	12.376457
_cell_angle_alpha	101.393369
_cell_angle_beta	75.589755
_cell_angle_gamma	100.084234
loop_
_atom_site_label
_atom_site_type_symbol
_atom_site_fract_x
_atom_site_fract_y
_atom_site_fract_z
O1	O	1.366233	0.623457	-0.094044
O2	O	1.071092	0.539311	-0.094038
O3	O	1.225377	0.398086	-0.094035
O4	O	1.211948	0.764681	-0.094048
O5	O	1.186819	0.433330	0.093977
O6	O	1.032534	0.574555	0.093973
O7	O	1.327675	0.658701	0.093967
Zn8	Zn	1.173983	0.622224	0.123821
Zn9	Zn	1.224784	0.575788	-0.123892
O10	O	1.173390	0.799925	0.093964
C11	C	1.014020	0.542719	-0.000031
C12	C	0.901409	0.500351	-0.000029
C13	C	0.539022	0.829783	-0.000059
C14	C	0.644826	0.869593	-0.000065
C15	C	0.708977	0.777286	-0.000055
C16	C	0.667313	0.645161	-0.000041
C17	C	0.561501	0.605345	-0.000044
C18	C	0.731456	0.552849	-0.000040
C19	C	0.689792	0.420724	-0.000026
C20	C	0.583990	0.380915	-0.000028
C21	C	0.519839	0.473222	-0.000037
C22	C	0.837268	0.592665	-0.000037
C23	C	0.859747	0.368227	-0.000022
C24	C	0.753943	0.328417	-0.000016
C25	C	1.205084	0.367829	-0.000030
C26	C	1.202049	0.225160	-0.000032
C27	C	1.103883	0.123412	-0.000038
C28	C	1.131245	0.064542	0.092661
C29	C	1.169284	0.029828	-0.092704
C30	C	1.229436	0.168184	0.092743
C31	C	1.267478	0.133459	-0.092704
C32	C	1.294907	0.074645	0.000017
C33	C	1.384748	0.655292	-0.000042
C34	C	1.497360	0.697659	-0.000052
C35	C	1.193684	0.830182	-0.000044
C36	C	1.196720	0.972849	-0.000049
N37	N	1.139319	0.653917	0.292879
N38	N	1.259456	0.544088	-0.292950
C39	C	1.339921	0.470493	0.647868
C40	C	1.364176	0.448309	0.529529
C41	C	1.307963	0.499709	0.470360
C42	C	1.227492	0.573297	0.529543
C43	C	1.203240	0.595492	0.647894
C44	C	1.171283	0.624708	0.470386
C45	C	1.090812	0.698296	0.529569
C46	C	1.066563	0.720486	0.647908
C47	C	1.122775	0.669087	0.707076
C48	C	1.195535	0.602512	0.352035
C49	C	1.058855	0.727511	0.352061
C50	C	1.034599	0.749696	0.470400
H51	H	0.795127	0.809707	-0.000063
N52	N	1.096620	0.693016	0.834718
H53	H	1.106162	0.790476	0.863219
H54	H	1.021739	0.655248	0.863149
H55	H	1.001046	0.780419	0.696095
H56	H	1.327716	0.481643	0.374003
N57	N	0.998219	0.782941	0.288248
H58	H	0.921909	0.746550	0.308861
H59	H	1.006417	0.881700	0.308851
N60	N	1.400533	0.415065	0.711695
H61	H	1.392417	0.316302	0.691115
H62	H	1.476818	0.451551	0.691063
H63	H	0.486784	0.904923	-0.000076
H64	H	0.433684	0.440814	-0.000032
N65	N	0.947806	0.829061	0.534237
H66	H	0.940975	0.835316	0.618184
H67	H	0.964412	0.920056	0.513549
N68	N	1.450964	0.368948	0.465698
H69	H	1.482893	0.339751	0.521135
H70	H	1.421790	0.289438	0.416607
H71	H	0.871179	0.700242	-0.000045
H72	H	1.143808	-0.030053	-0.171080
H73	H	1.254847	0.227931	0.171200
N74	N	0.928933	0.268668	-0.000003
H75	H	0.901137	0.225746	0.069695
H76	H	0.929715	0.199693	-0.069743
H77	H	0.678742	0.977167	-0.000085
H78	H	0.720008	0.220837	-0.000014
N79	N	0.539052	0.238410	-0.000027
H80	H	0.595742	0.185973	-0.000018
H81	H	0.481345	0.230072	0.069671
N82	N	0.996949	0.152603	0.000074
H83	H	0.945628	0.127799	0.070165
H84	H	0.999993	0.249313	-0.000685
H85	H	1.073636	0.034002	0.171032
H86	H	1.375682	0.052887	0.000066
H87	H	1.325053	0.164019	-0.171080
N88	N	1.282314	0.523141	0.288196
H89	H	1.350186	0.567251	0.308771
H90	H	1.265662	0.432116	0.308824
