data_functionalizedCrystal
_audit_creation_method	'MofGen! by Chris Wilmer'
_symmetry_space_group_name_H-M	'P1'
_symmetry_Int_Tables_number	1
_symmetry_cell_setting	triclinic
loop_
_symmetry_equiv_pos_as_xyz
  x,y,z
_cell_length_a	18.050591
_cell_length_b	18.050590
_cell_length_c	19.076919
_cell_angle_alpha	87.729485
_cell_angle_beta	87.724882
_cell_angle_gamma	90.014558
loop_
_atom_site_label
_atom_site_type_symbol
_atom_site_fract_x
_atom_site_fract_y
_atom_site_fract_z
Zn1	Zn	1.118484	-0.312628	0.398057
Zn2	Zn	1.123400	-0.431831	0.280361
Zn3	Zn	0.999288	-0.307651	0.280364
Zn4	Zn	0.994275	-0.436770	0.398003
O5	O	1.058862	-0.372220	0.339196
O6	O	1.223060	-0.328456	0.382465
O7	O	1.111092	-0.411209	0.181873
O8	O	1.015140	-0.204388	0.295999
O9	O	1.226672	-0.416035	0.295995
O10	O	1.102713	-0.208044	0.382468
O11	O	1.019907	-0.319974	0.181875
O12	O	0.894699	-0.324763	0.295948
O13	O	1.006596	-0.424451	0.496499
O14	O	0.891016	-0.419626	0.382377
O15	O	1.097852	-0.333245	0.496538
O16	O	1.106231	-0.536410	0.295943
O17	O	1.011363	-0.540038	0.382375
C18	C	0.865911	-0.372191	0.339157
C19	C	0.783366	-0.372197	0.339157
C20	C	0.585892	-0.320557	0.292265
C21	C	0.537217	-0.387560	0.274944
C22	C	0.632234	-0.372221	0.339189
C23	C	0.533827	-0.305241	0.356508
C24	C	0.486248	-0.372238	0.339219
C25	C	0.584648	-0.439258	0.321835
C26	C	0.581261	-0.356894	0.403429
C27	C	0.532607	-0.423945	0.386132
C28	C	0.716333	-0.372210	0.339170
C29	C	0.402150	-0.372256	0.339237
C30	C	1.058806	-0.565171	0.339168
C31	C	1.058849	-0.647717	0.339180
C32	C	1.110539	-0.845171	0.292244
C33	C	1.125954	-0.897228	0.356481
C34	C	1.058890	-0.798849	0.339208
C35	C	1.043549	-0.893874	0.275000
C36	C	1.058931	-0.944835	0.339229
C37	C	1.074338	-0.849821	0.403478
C38	C	0.991904	-0.846460	0.321954
C39	C	1.007292	-0.898497	0.386235
C40	C	1.058868	-0.714750	0.339195
C41	C	1.058953	-1.028932	0.339250
C42	C	1.252566	-0.372250	0.339236
C43	C	1.335111	-0.372263	0.339253
C44	C	1.051116	-0.379954	0.522770
C45	C	1.047816	-0.383250	0.600998
C46	C	1.058938	-0.178516	0.339240
C47	C	1.058970	-0.095971	0.339258
C48	C	1.066620	-0.364462	0.156337
C49	C	1.070064	-0.360957	0.078110
C50	C	1.093775	-0.337314	0.637771
C51	C	1.090665	-0.340408	0.711274
C52	C	1.041598	-0.389442	0.748003
C53	C	0.995634	-0.435380	0.711225
C54	C	0.998741	-0.432282	0.637723
C55	C	1.027207	-0.403797	0.967829
C56	C	1.024105	-0.406893	1.041336
C57	C	1.119135	-0.311920	1.041381
C58	C	1.122241	-0.308829	0.967877
C59	C	1.076274	-0.354764	0.931105
N60	N	1.038419	-0.392608	0.823136
N61	N	1.079450	-0.351594	0.855974
H62	H	0.517782	-0.400537	0.220631
H63	H	0.955681	-0.475302	0.741136
O64	O	0.954078	-0.476988	0.602108
C65	C	0.910096	-0.520923	0.650285
H66	H	0.938294	-0.525699	0.702690
H67	H	0.853368	-0.494057	0.658088
C68	C	0.865955	-0.592889	0.557216
C69	C	0.900592	-0.598761	0.621579
H70	H	0.860089	-0.640902	0.539508
H71	H	0.895584	-0.563288	0.524757
H72	H	0.818686	-0.570498	0.563727
H73	H	0.947864	-0.621143	0.615065
H74	H	0.870971	-0.628368	0.654036
H75	H	0.963630	-0.921712	0.426006
H76	H	1.133732	-0.297388	0.607871
H77	H	1.154229	-0.821823	0.252569
H78	H	0.989789	-0.441211	0.937898
O79	O	0.613702	-0.268566	0.244782
C80	C	0.591332	-0.285010	0.177141
H81	H	0.577532	-0.346550	0.175710
H82	H	0.540200	-0.250918	0.164013
C83	C	0.671560	-0.190307	0.124675
C84	C	0.654616	-0.265894	0.122916
H85	H	0.710594	-0.178513	0.091226
H86	H	0.686629	-0.179227	0.170247
H87	H	0.628944	-0.161907	0.113738
H88	H	0.697229	-0.294292	0.133863
H89	H	0.639556	-0.276979	0.077345
H90	H	0.606858	-0.495923	0.307138
O91	O	1.135387	-0.295761	0.746887
C92	C	1.179351	-0.251810	0.698707
H93	H	1.184122	-0.280022	0.646307
H94	H	1.152513	-0.195071	0.690895
C95	C	1.251322	-0.207682	0.791777
C96	C	1.257188	-0.242337	0.727419
H97	H	1.299335	-0.201836	0.809488
H98	H	1.221702	-0.237291	0.824237
H99	H	1.228955	-0.160404	0.785258
H100	H	1.279547	-0.289618	0.733941
H101	H	1.286815	-0.212736	0.694961
O102	O	1.193603	-0.923773	0.373792
C103	C	1.247877	-0.896519	0.324147
H104	H	1.220547	-0.880536	0.272868
H105	H	1.275790	-0.845706	0.345098
C106	C	1.339944	-0.976612	0.373863
C107	C	1.306378	-0.956987	0.310880
H108	H	1.376033	-1.013909	0.365682
H109	H	1.303380	-0.994972	0.407312
H110	H	1.363199	-0.934262	0.391317
H111	H	1.283116	-0.999334	0.293433
H112	H	1.342940	-0.938635	0.277428
O113	O	1.169921	-0.261130	0.932310
C114	C	1.209834	-0.221261	0.980529
H115	H	1.177202	-0.220891	1.032917
H116	H	1.265895	-0.248796	0.988355
C117	C	1.261861	-0.141469	0.887519
C118	C	1.221779	-0.141010	0.951861
H119	H	1.269233	-0.091967	0.869835
H120	H	1.234973	-0.168331	0.855032
H121	H	1.308574	-0.164419	0.894050
H122	H	1.175064	-0.118069	0.945328
H123	H	1.248659	-0.114142	0.984346
H124	H	0.600714	-0.343896	0.457726
O125	O	1.163705	-0.267325	1.077210
C126	C	1.150457	-0.280584	1.149961
H127	H	1.092712	-0.305322	1.159980
H128	H	1.193612	-0.321015	1.170823
C129	C	1.226617	-0.176648	1.175409
C130	C	1.155691	-0.207027	1.187715
H131	H	1.229849	-0.131276	1.198699
H132	H	1.235545	-0.167717	1.126396
H133	H	1.262572	-0.210348	1.192794
H134	H	1.119739	-0.173331	1.170323
H135	H	1.146758	-0.215951	1.236727
O136	O	0.504966	-0.476226	0.433407
C137	C	0.531047	-0.546719	0.414912
H138	H	0.547274	-0.545573	0.356515
H139	H	0.581472	-0.561894	0.446604
C140	C	0.449572	-0.606178	0.502508
C141	C	0.469496	-0.604772	0.430782
H142	H	0.411607	-0.641989	0.512299
H143	H	0.432002	-0.558685	0.514971
H144	H	0.491598	-0.618821	0.528909
H145	H	0.427473	-0.592120	0.404382
H146	H	0.487058	-0.652264	0.418315
O147	O	0.507315	-0.237599	0.373893
C148	C	0.534526	-0.183300	0.324254
H149	H	0.587645	-0.204123	0.297397
H150	H	0.491249	-0.171800	0.283290
C151	C	0.485711	-0.085818	0.394631
C152	C	0.550957	-0.111391	0.361649
H153	H	0.495844	-0.041460	0.417696
H154	H	0.467376	-0.122400	0.428073
H155	H	0.449654	-0.076240	0.360488
H156	H	0.587009	-0.120977	0.395793
H157	H	0.569298	-0.074809	0.328214
O158	O	1.027912	-0.917029	0.210233
C159	C	0.957780	-0.890027	0.191657
H160	H	0.923470	-0.877485	0.241226
H161	H	0.965059	-0.837166	0.157349
C162	C	0.959829	-0.964287	0.089870
C163	C	0.917685	-0.948887	0.150752
H164	H	0.935097	-1.000592	0.064635
H165	H	1.007079	-0.982477	0.102383
H166	H	0.965891	-0.920231	0.061288
H167	H	0.911631	-0.992940	0.179337
H168	H	0.870433	-0.930706	0.138243
H169	H	0.984147	-0.446824	1.071239
O170	O	1.089944	-0.826620	0.468237
C171	C	1.089745	-0.748481	0.467441
H172	H	1.100413	-0.725692	0.411361
H173	H	1.033567	-0.728235	0.488288
C174	C	1.137904	-0.749248	0.583043
C175	C	1.151013	-0.721259	0.514165
H176	H	1.175694	-0.732456	0.611867
H177	H	1.138035	-0.801892	0.583581
H178	H	1.091088	-0.732374	0.600406
H179	H	1.197824	-0.738141	0.496800
H180	H	1.150891	-0.668617	0.513625
O181	O	0.924291	-0.819978	0.304466
C182	C	0.877058	-0.879742	0.291610
H183	H	0.911808	-0.930001	0.277094
H184	H	0.841191	-0.894000	0.340834
C185	C	0.784292	-0.796145	0.248511
C186	C	0.826972	-0.857873	0.230676
H187	H	0.753394	-0.782655	0.210927
H188	H	0.816112	-0.755881	0.257175
H189	H	0.754409	-0.808035	0.289532
H190	H	0.856861	-0.845980	0.189661
H191	H	0.795156	-0.898135	0.222004
