data_functionalizedCrystal
_audit_creation_method	'MofGen! by Chris Wilmer'
_symmetry_space_group_name_H-M	'P1'
_symmetry_Int_Tables_number	1
_symmetry_cell_setting	triclinic
loop_
_symmetry_equiv_pos_as_xyz
  x,y,z
_cell_length_a	11.792254
_cell_length_b	19.188924
_cell_length_c	10.268362
_cell_angle_alpha	89.992651
_cell_angle_beta	89.995475
_cell_angle_gamma	83.670281
loop_
_atom_site_label
_atom_site_type_symbol
_atom_site_fract_x
_atom_site_fract_y
_atom_site_fract_z
O1	O	1.505463	0.095738	-0.108306
O2	O	1.174976	0.105591	-0.108309
O3	O	1.349761	-0.000937	-0.108292
O4	O	1.330679	0.202266	-0.108323
O5	O	1.349746	-0.000942	0.108309
O6	O	1.174961	0.105586	0.108292
O7	O	1.505448	0.095733	0.108295
Cu8	Cu	1.340203	0.100659	0.128071
Cu9	Cu	1.340221	0.100665	-0.128085
O10	O	1.330664	0.202261	0.108278
C11	C	1.132687	0.104968	-0.000009
C12	C	1.006702	0.103110	-0.000010
C13	C	0.904388	0.101601	-0.000015
C14	C	0.776030	0.099713	-0.000016
C15	C	1.349137	-0.026954	0.000010
C16	C	1.347286	-0.104470	0.000013
C17	C	1.346430	-0.140871	-0.118056
C18	C	1.344675	-0.213704	-0.118066
C19	C	1.343798	-0.250134	-0.000000
C20	C	1.344647	-0.213723	0.118085
C21	C	1.346391	-0.140891	0.118091
N22	N	1.405639	-0.369447	0.087874
N23	N	1.403985	-0.438635	0.087860
C24	C	1.338541	-0.469573	-0.000013
N25	N	1.274828	-0.428711	-0.087891
N26	N	1.276487	-0.359517	-0.087880
C27	C	1.341906	-0.329108	0.000006
C28	C	1.335780	-0.584948	-0.118101
C29	C	1.334018	-0.657781	-0.118106
C30	C	1.334002	-0.657800	0.118049
C31	C	1.335753	-0.584967	0.118050
C32	C	1.336647	-0.548546	-0.000028
C33	C	1.547737	0.096356	-0.000008
C34	C	1.673722	0.098214	-0.000016
C35	C	1.331288	0.228278	-0.000027
C36	C	1.333139	0.305794	-0.000039
N37	N	1.340199	0.100655	0.308237
N38	N	1.340235	0.100663	-0.308251
C39	C	1.340216	0.100663	0.573907
C40	C	1.340203	0.100661	0.426069
H41	H	1.347155	-0.111221	-0.214205
O42	O	1.332986	-0.693157	-0.232775
C43	C	1.233719	-0.727762	-0.239855
H44	H	1.165546	-0.700554	-0.172859
H45	H	1.200734	-0.726046	-0.344290
H46	H	1.254605	-0.784668	-0.208142
O47	O	1.347273	-0.105639	0.232906
C48	C	1.346086	-0.153404	0.337118
H49	H	1.380767	-0.208074	0.302505
H50	H	1.401669	-0.136591	0.419703
H51	H	1.254864	-0.154171	0.373414
H52	H	1.333279	-0.687461	0.214180
H53	H	1.343971	-0.243347	-0.214215
O54	O	1.336583	-0.549666	-0.232912
C55	C	1.335467	-0.597418	-0.337129
H56	H	1.298295	-0.646583	-0.302519
H57	H	1.280888	-0.572141	-0.419706
H58	H	1.426314	-0.612143	-0.373437
O59	O	1.336448	-0.549671	0.232829
C60	C	1.237735	-0.559924	0.304648
H61	H	1.203702	-0.610288	0.271070
H62	H	1.259775	-0.564122	0.412662
H63	H	1.169906	-0.513654	0.288289
O64	O	1.343641	-0.249172	0.232693
C65	C	1.244347	-0.283754	0.239763
H66	H	1.211336	-0.292146	0.137244
H67	H	1.265217	-0.336668	0.289735
H68	H	1.176198	-0.250413	0.298025
