data_functionalizedCrystal
_audit_creation_method	'MofGen! by Chris Wilmer'
_symmetry_space_group_name_H-M	'P1'
_symmetry_Int_Tables_number	1
_symmetry_cell_setting	triclinic
loop_
_symmetry_equiv_pos_as_xyz
  x,y,z
_cell_length_a	10.908937
_cell_length_b	11.792254
_cell_length_c	9.482900
_cell_angle_alpha	99.398945
_cell_angle_beta	83.036371
_cell_angle_gamma	72.142277
loop_
_atom_site_label
_atom_site_type_symbol
_atom_site_fract_x
_atom_site_fract_y
_atom_site_fract_z
O1	O	1.722481	-0.196576	-0.120935
O2	O	2.222481	0.303424	0.379065
O3	O	1.349240	-0.108066	-0.120930
O4	O	1.849240	0.391934	0.379070
O5	O	1.544908	-0.319246	-0.120922
O6	O	2.044908	0.180754	0.379078
O7	O	1.526814	0.014604	-0.120943
O8	O	2.026814	0.514604	0.379057
O9	O	1.505165	-0.276208	0.120869
O10	O	2.005165	0.223792	0.620869
O11	O	1.309497	-0.065028	0.120861
O12	O	1.809497	0.434972	0.620861
O13	O	1.682738	-0.153539	0.120856
O14	O	2.182738	0.346461	0.620856
Cu15	Cu	1.492488	-0.105354	0.142936
Cu16	Cu	1.992488	0.394646	0.642936
Cu17	Cu	1.539490	-0.156250	-0.143010
Cu18	Cu	2.039490	0.343750	0.356990
O19	O	1.487070	0.057641	0.120848
O20	O	1.987070	0.557641	0.620848
C21	C	1.281585	-0.078275	-0.000033
C22	C	1.781585	0.421725	0.499967
C23	C	1.139206	-0.053642	-0.000031
C24	C	1.639206	0.446358	0.499969
C25	C	0.942416	-0.118080	-0.000053
C26	C	1.442416	0.381920	0.499947
C27	C	1.089569	-0.143539	-0.000034
C28	C	1.589569	0.356461	0.499966
C29	C	1.523897	-0.339796	-0.000027
C30	C	2.023897	0.160204	0.499973
C31	C	1.520484	-0.465147	-0.000029
C32	C	2.020484	0.034853	0.499971
C33	C	1.517713	-0.566946	-0.000034
C34	C	2.017713	-0.066946	0.499966
C35	C	1.514248	-0.694662	-0.000047
C36	C	2.014248	-0.194662	0.499953
C37	C	1.750393	-0.183329	-0.000044
C38	C	2.250393	0.316671	0.499956
C39	C	1.892774	-0.207964	-0.000056
C40	C	2.392774	0.292036	0.499944
C41	C	1.508082	0.078192	-0.000050
C42	C	2.008082	0.578192	0.499950
C43	C	1.511496	0.203541	-0.000058
C44	C	2.011496	0.703541	0.499942
N45	N	1.459440	-0.069558	0.344055
N46	N	1.959440	0.430442	0.844055
N47	N	1.572549	-0.192057	-0.344129
N48	N	2.072549	0.307943	0.155871
C49	C	1.529733	-0.145697	0.416257
C50	C	2.029733	0.354303	0.916257
C51	C	1.502245	-0.115907	0.583673
C52	C	2.002245	0.384093	1.083673
H53	H	0.959216	-0.303766	-0.000053
H54	H	1.459216	0.196234	0.499947
H55	H	0.875977	-0.022282	-0.000074
H56	H	1.375977	0.477718	0.499926
H57	H	1.653080	-0.279305	0.593750
H58	H	2.153080	0.220695	1.093750
H59	H	1.156008	-0.239347	-0.000031
H60	H	1.656008	0.260653	0.499969
H61	H	1.378904	0.017677	0.406182
H62	H	1.878904	0.517677	0.906182
C63	C	0.921115	0.075887	-0.000068
C64	C	1.421115	0.575887	0.499932
C65	C	1.049533	0.075698	-0.000051
C66	C	1.549533	0.575698	0.499949
H67	H	0.865756	0.155737	-0.000073
H68	H	1.365756	0.655737	0.499927
H69	H	0.919115	0.021029	-0.084380
H70	H	1.419115	0.521029	0.415620
H71	H	0.891376	0.051043	0.084256
H72	H	1.391376	0.551043	0.584256
H73	H	1.079275	0.100534	-0.084381
H74	H	1.579275	0.600534	0.415619
H75	H	1.051538	0.130574	0.084270
H76	H	1.551538	0.630574	0.584270
H77	H	1.610260	-0.232939	0.354132
H78	H	2.110260	0.267061	0.854132
C79	C	1.273141	0.001295	0.630875
C80	C	1.773141	0.501295	1.130875
C81	C	1.393519	0.001868	0.667526
C82	C	1.893519	0.501868	1.167526
H83	H	1.206021	0.073999	0.682652
H84	H	1.706021	0.573999	1.182652
H85	H	1.277358	-0.003265	0.529382
H86	H	1.777358	0.496735	1.029382
H87	H	1.254399	-0.067232	0.655760
H88	H	1.754399	0.432768	1.155760
H89	H	1.412266	0.070390	0.642632
H90	H	1.912266	0.570390	1.142632
H91	H	1.389304	0.006440	0.769042
H92	H	1.889304	0.506440	1.269042
