data_functionalizedCrystal
_audit_creation_method	'MofGen! by Chris Wilmer'
_symmetry_space_group_name_H-M	'P1'
_symmetry_Int_Tables_number	1
_symmetry_cell_setting	triclinic
loop_
_symmetry_equiv_pos_as_xyz
  x,y,z
_cell_length_a	14.044191
_cell_length_b	12.503572
_cell_length_c	14.044220
_cell_angle_alpha	86.154684
_cell_angle_beta	93.190327
_cell_angle_gamma	93.837835
loop_
_atom_site_label
_atom_site_type_symbol
_atom_site_fract_x
_atom_site_fract_y
_atom_site_fract_z
O1	O	1.282208	0.089264	0.225146
O2	O	1.532208	0.339264	0.475146
O3	O	1.782208	0.589264	0.725146
O4	O	2.032208	0.839264	0.975146
O5	O	1.005536	0.089277	0.216832
O6	O	1.255536	0.339277	0.466832
O7	O	1.505536	0.589277	0.716832
O8	O	1.755536	0.839277	0.966832
O9	O	1.139719	0.089266	0.082653
O10	O	1.389719	0.339266	0.332653
O11	O	1.639719	0.589266	0.582653
O12	O	1.889719	0.839266	0.832653
O13	O	1.148025	0.089275	0.359324
O14	O	1.398025	0.339275	0.609324
O15	O	1.648025	0.589275	0.859324
O16	O	1.898025	0.839275	1.109324
O17	O	1.129629	-0.089375	0.092763
O18	O	1.379629	0.160625	0.342763
O19	O	1.629629	0.410625	0.592763
O20	O	1.879629	0.660625	0.842763
O21	O	0.995446	-0.089364	0.226941
O22	O	1.245446	0.160636	0.476941
O23	O	1.495446	0.410636	0.726941
O24	O	1.745446	0.660636	0.976941
O25	O	1.272118	-0.089378	0.235255
O26	O	1.522118	0.160622	0.485255
O27	O	1.772118	0.410622	0.735255
O28	O	2.022118	0.660622	0.985255
Cu29	Cu	1.132861	-0.105682	0.232021
Cu30	Cu	1.382861	0.144318	0.482021
Cu31	Cu	1.632861	0.394318	0.732021
Cu32	Cu	1.882861	0.644318	0.982021
Cu33	Cu	1.144793	0.105582	0.220066
Cu34	Cu	1.394793	0.355582	0.470066
Cu35	Cu	1.644793	0.605582	0.720066
Cu36	Cu	1.894793	0.855582	0.970066
O37	O	1.137935	-0.089366	0.369434
O38	O	1.387935	0.160634	0.619434
O39	O	1.637935	0.410634	0.869434
O40	O	1.887935	0.660634	1.119434
C41	C	0.964869	-0.000041	0.218250
C42	C	1.214869	0.249959	0.468250
C43	C	1.464869	0.499959	0.718250
C44	C	1.714869	0.749959	0.968250
C45	C	0.858726	-0.000036	0.207403
C46	C	1.108726	0.249964	0.457403
C47	C	1.358726	0.499964	0.707403
C48	C	1.608726	0.749964	0.957403
N49	N	1.124475	-0.254274	0.240430
N50	N	1.374475	-0.004274	0.490430
N51	N	1.624475	0.245726	0.740430
N52	N	1.874475	0.495726	0.990430
C53	C	0.613267	-0.000045	0.264504
C54	C	0.863267	0.249955	0.514504
C55	C	1.113267	0.499955	0.764504
C56	C	1.363267	0.749955	1.014504
C57	C	0.664393	-0.000046	0.187587
C58	C	0.914393	0.249954	0.437587
C59	C	1.164393	0.499954	0.687587
C60	C	1.414393	0.749954	0.937587
C61	C	0.772530	-0.000040	0.198615
C62	C	1.022530	0.249960	0.448615
C63	C	1.272530	0.499960	0.698615
C64	C	1.522530	0.749960	0.948615
C65	C	0.505120	-0.000050	0.253477
C66	C	0.755120	0.249950	0.503477
C67	C	1.005120	0.499950	0.753477
C68	C	1.255120	0.749950	1.003477
C69	C	1.112140	-0.473388	0.252808
C70	C	1.362140	-0.223388	0.502808
C71	C	1.612140	0.026612	0.752808
C72	C	1.862140	0.276612	1.002808
C73	C	1.165518	-0.526719	0.199275
C74	C	1.415518	-0.276719	0.449275
C75	C	1.665518	-0.026719	0.699275
C76	C	1.915518	0.223281	0.949275
C77	C	1.158654	-0.648642	0.206162
C78	C	1.408654	-0.398642	0.456162
C79	C	1.658654	-0.148642	0.706162
C80	C	1.908654	0.101358	0.956162
C81	C	1.119002	-0.351454	0.245922
C82	C	1.369002	-0.101454	0.495922
C83	C	1.619002	0.148546	0.745922
C84	C	1.869002	0.398546	0.995922
C85	C	1.312785	-0.000056	0.233837
C86	C	1.562785	0.249944	0.483837
C87	C	1.812785	0.499944	0.733837
C88	C	2.062785	0.749944	0.983837
C89	C	1.418928	-0.000055	0.244684
C90	C	1.668928	0.249945	0.494684
C91	C	1.918928	0.499945	0.744684
C92	C	2.168928	0.749945	0.994684
C93	C	1.131038	-0.000053	0.052086
C94	C	1.381038	0.249947	0.302086
C95	C	1.631038	0.499947	0.552086
C96	C	1.881038	0.749947	0.802086
C97	C	1.120194	-0.000050	-0.054057
C98	C	1.370194	0.249950	0.195943
C99	C	1.620194	0.499950	0.445943
C100	C	1.870194	0.749950	0.695943
N101	N	1.153186	0.254173	0.211650
N102	N	1.403186	0.504173	0.461650
N103	N	1.653186	0.754173	0.711650
N104	N	1.903186	1.004173	0.961650
C105	C	1.146616	-0.000044	0.400001
C106	C	1.396616	0.249956	0.650001
C107	C	1.646616	0.499956	0.900001
C108	C	1.896616	0.749956	1.150001
C109	C	1.157461	-0.000041	0.506144
C110	C	1.407461	0.249959	0.756144
C111	C	1.657461	0.499959	1.006144
C112	C	1.907461	0.749959	1.256144
C113	C	1.177287	-0.000047	0.700482
C114	C	1.427287	0.249953	0.950482
C115	C	1.677287	0.499953	1.200482
C116	C	1.927287	0.749953	1.450482
C117	C	1.100372	-0.000044	0.751610
C118	C	1.350372	0.249956	1.001610
C119	C	1.600372	0.499956	1.251610
C120	C	1.850372	0.749956	1.501610
C121	C	1.111404	-0.000047	0.859747
C122	C	1.361404	0.249953	1.109747
C123	C	1.611404	0.499953	1.359747
C124	C	1.861404	0.749953	1.609747
C125	C	1.166257	-0.000044	0.592336
C126	C	1.416257	0.249956	0.842336
C127	C	1.666257	0.499956	1.092336
C128	C	1.916257	0.749956	1.342336
H129	H	0.626954	0.000027	0.113451
H130	H	0.876954	0.250027	0.363451
H131	H	1.126954	0.500027	0.613451
H132	H	1.376954	0.750027	0.863451
H133	H	1.061291	-0.519291	0.303808
H134	H	1.311291	-0.269291	0.553808
H135	H	1.561291	-0.019291	0.803808
H136	H	1.811291	0.230709	1.053808
N137	N	0.662851	-0.000029	0.362698
N138	N	0.912851	0.249971	0.612698
N139	N	1.162851	0.499971	0.862698
N140	N	1.412851	0.749971	1.112698
H141	H	0.700328	-0.066245	0.374448
H142	H	0.950328	0.183755	0.624448
H143	H	1.200328	0.433755	0.874448
H144	H	1.450328	0.683755	1.124448
H145	H	0.707742	0.066243	0.366872
H146	H	0.957742	0.316243	0.616872
H147	H	1.207742	0.566243	0.866872
H148	H	1.457742	0.816243	1.116872
N149	N	1.232881	-0.465920	0.131715
N150	N	1.482881	-0.215920	0.381715
N151	N	1.732881	0.034080	0.631715
N152	N	1.982881	0.284080	0.881715
H153	H	1.228302	-0.386178	0.136308
H154	H	1.478302	-0.136178	0.386308
H155	H	1.728302	0.113822	0.636308
H156	H	1.978302	0.363822	0.886308
H157	H	1.300475	-0.485506	0.149491
H158	H	1.550475	-0.235506	0.399491
H159	H	1.800475	0.014494	0.649491
H160	H	2.050475	0.264494	0.899491
H161	H	1.251414	-0.000055	0.737922
H162	H	1.501414	0.249945	0.987922
H163	H	1.751414	0.499945	1.237922
H164	H	2.001414	0.749945	1.487922
H165	H	1.026238	-0.000041	0.714169
H166	H	1.276238	0.249959	0.964169
H167	H	1.526238	0.499959	1.214169
H168	H	1.776238	0.749959	1.464169
