data_functionalizedCrystal
_audit_creation_method	'MofGen! by Chris Wilmer'
_symmetry_space_group_name_H-M	'P1'
_symmetry_Int_Tables_number	1
_symmetry_cell_setting	triclinic
loop_
_symmetry_equiv_pos_as_xyz
  x,y,z
_cell_length_a	19.077269
_cell_length_b	19.077068
_cell_length_c	12.759393
_cell_angle_alpha	92.261232
_cell_angle_beta	92.277346
_cell_angle_gamma	89.938054
loop_
_atom_site_label
_atom_site_type_symbol
_atom_site_fract_x
_atom_site_fract_y
_atom_site_fract_z
Zn1	Zn	1.062971	-0.322854	-0.549585
Zn2	Zn	1.058153	-0.440376	-0.381221
Zn3	Zn	0.945462	-0.318171	-0.380687
Zn4	Zn	0.940710	-0.435604	-0.563615
O5	O	1.001824	-0.379251	-0.468777
O6	O	1.160659	-0.342401	-0.521603
O7	O	1.043176	-0.424202	-0.234133
O8	O	0.965054	-0.220462	-0.396996
O9	O	1.157120	-0.428744	-0.397907
O10	O	1.051388	-0.223903	-0.521085
O11	O	0.960382	-0.334419	-0.233740
O12	O	0.846504	-0.329792	-0.410600
O13	O	0.956956	-0.420611	-0.708771
O14	O	0.843013	-0.416070	-0.544997
O15	O	1.046781	-0.337774	-0.698464
O16	O	1.038569	-0.538073	-0.411512
O17	O	0.952284	-0.534567	-0.545516
C18	C	0.819263	-0.371905	-0.479264
C19	C	0.741162	-0.368779	-0.483776
C20	C	0.702627	-0.412192	-0.421390
C21	C	0.629242	-0.409255	-0.425643
C22	C	0.594395	-0.362901	-0.492279
C23	C	0.632935	-0.319487	-0.554672
C24	C	0.706318	-0.322428	-0.550424
C25	C	0.375121	-0.349296	-0.511909
C26	C	0.301733	-0.346357	-0.516150
C27	C	0.298046	-0.436126	-0.387122
C28	C	0.371430	-0.439060	-0.382875
C29	C	0.409964	-0.395648	-0.445272
N30	N	0.519384	-0.359897	-0.496626
N31	N	0.484973	-0.398657	-0.440930
C32	C	0.994407	-0.561817	-0.480116
C33	C	0.991299	-0.639921	-0.484998
C34	C	1.034797	-0.678418	-0.417577
C35	C	1.031877	-0.751806	-0.422175
C36	C	0.985455	-0.786695	-0.494190
C37	C	0.941955	-0.748193	-0.561619
C38	C	0.944879	-0.674807	-0.557025
C39	C	0.971893	-1.005984	-0.515409
C40	C	0.968972	-1.079375	-0.519996
C41	C	1.058894	-1.082983	-0.380553
C42	C	1.061811	-1.009595	-0.375961
C43	C	1.018314	-0.971099	-0.443393
N44	N	0.982468	-0.861709	-0.498889
N45	N	1.021305	-0.896087	-0.438698
C46	C	1.185098	-0.386627	-0.458250
C47	C	1.263198	-0.389770	-0.453764
C48	C	1.001876	-0.379182	-0.742803
C49	C	1.001898	-0.379153	-0.859577
C50	C	1.009289	-0.195974	-0.457416
C51	C	1.012470	-0.117872	-0.452574
C52	C	1.048676	-0.336016	-0.909073
C53	C	1.048694	-0.335991	-1.018794
C54	C	0.955153	-0.422247	-1.029515
C55	C	0.955133	-0.422267	-0.919795
C56	C	1.102683	-0.286219	-0.902884
C57	C	1.102700	-0.286194	-1.012606
C58	C	1.001814	-0.379271	-0.195811
C59	C	1.001936	-0.379108	-0.079018
H60	H	0.597870	-0.444606	-0.374841
F61	F	1.169202	-0.314428	-0.856092
H62	H	1.085318	-0.233706	-1.044557
H63	H	1.094308	-1.114334	-0.325655
F64	F	1.173063	-0.308094	-1.048626
H65	H	0.399798	-0.476805	-0.328612
F66	F	0.257030	-0.482326	-0.320721
F67	F	0.919554	-1.116505	-0.596637
F68	F	0.925599	-0.965023	-0.587176
F69	F	0.595845	-0.270159	-0.625599
F70	F	0.892554	-0.785327	-0.638268
H71	H	0.730994	-0.449935	-0.367124
F72	F	1.084201	-0.641293	-0.340922
F73	F	0.264647	-0.297016	-0.587071
F74	F	0.747329	-0.276224	-0.616827
F75	F	1.086526	-0.214328	-0.860655
H76	H	0.909459	-0.643463	-0.611928
F77	F	1.078176	-0.792775	-0.350418
F78	F	1.111227	-0.972469	-0.299324
F79	F	0.416122	-0.303094	-0.578319
H80	H	0.917078	-0.457348	-1.078558
F81	F	0.905336	-0.468170	-0.867122
