data_functionalizedCrystal
_audit_creation_method	'MofGen! by Chris Wilmer'
_symmetry_space_group_name_H-M	'P1'
_symmetry_Int_Tables_number	1
_symmetry_cell_setting	triclinic
loop_
_symmetry_equiv_pos_as_xyz
  x,y,z
_cell_length_a	11.169416
_cell_length_b	17.077404
_cell_length_c	17.077396
_cell_angle_alpha	90.017244
_cell_angle_beta	89.976500
_cell_angle_gamma	89.989435
loop_
_atom_site_label
_atom_site_type_symbol
_atom_site_fract_x
_atom_site_fract_y
_atom_site_fract_z
Zn1	Zn	-0.477790	-1.200106	-0.443874
Zn2	Zn	0.022210	-0.700106	0.056126
Zn3	Zn	-0.678505	-1.200047	-0.312622
Zn4	Zn	-0.178505	-0.700047	0.187378
Zn5	Zn	-0.477835	-1.068843	-0.312622
Zn6	Zn	0.022165	-0.568843	0.187378
Zn7	Zn	-0.678431	-1.068834	-0.443845
Zn8	Zn	-0.178431	-0.568834	0.056155
O9	O	-0.578140	-1.134457	-0.378241
O10	O	-0.078140	-0.634457	0.121759
O11	O	-0.504427	-1.309945	-0.426475
O12	O	-0.004427	-0.809945	0.073525
O13	O	-0.651935	-1.182621	-0.202775
O14	O	-0.151935	-0.682621	0.297225
O15	O	-0.309879	-1.086283	-0.330046
O16	O	0.190121	-0.586283	0.169954
O17	O	-0.651892	-1.309901	-0.330045
O18	O	-0.151892	-0.809901	0.169955
O19	O	-0.309846	-1.182721	-0.426476
O20	O	0.190154	-0.682721	0.073524
O21	O	-0.504504	-1.086226	-0.202775
O22	O	-0.004504	-0.586226	0.297225
O23	O	-0.504432	-0.958995	-0.330017
O24	O	-0.004432	-0.458995	0.169983
O25	O	-0.651765	-1.086269	-0.553696
O26	O	-0.151765	-0.586269	-0.053696
O27	O	-0.651809	-0.958988	-0.426426
O28	O	-0.151809	-0.458988	0.073574
O29	O	-0.504356	-1.182713	-0.553718
O30	O	-0.004356	-0.682713	-0.053718
O31	O	-0.846445	-1.182613	-0.330016
O32	O	-0.346445	-0.682613	0.169984
O33	O	-0.846390	-1.086211	-0.426426
O34	O	-0.346390	-0.586211	0.073574
C35	C	-0.578118	-0.930509	-0.378219
C36	C	-0.078118	-0.430509	0.121781
C37	C	-0.578138	-0.843260	-0.378229
C38	C	-0.078138	-0.343260	0.121771
C39	C	-0.889965	-1.134426	-0.378235
C40	C	-0.389965	-0.634426	0.121765
C41	C	-1.023365	-1.134485	-0.378259
C42	C	-0.523365	-0.634485	0.121741
C43	C	-0.578047	-1.134497	-0.582985
C44	C	-0.078047	-0.634497	-0.082985
C45	C	-0.578008	-1.134513	-0.670235
C46	C	-0.078008	-0.634513	-0.170235
C47	C	-0.265098	-1.134510	-0.378264
C48	C	0.234902	-0.634510	0.121736
C49	C	-0.131698	-1.134532	-0.378274
C50	C	0.368302	-0.634532	0.121726
C51	C	-0.578163	-1.339201	-0.378263
C52	C	-0.078163	-0.839201	0.121737
C53	C	-0.578172	-1.426451	-0.378273
C54	C	-0.078172	-0.926451	0.121727
C55	C	-0.654993	-0.802287	-0.428348
C56	C	-0.154993	-0.302287	0.071652
C57	C	-0.654995	-0.720306	-0.428361
C58	C	-0.154995	-0.220306	0.071639
C59	C	-0.578148	-0.679300	-0.378249
C60	C	-0.078148	-0.179300	0.121751
C61	C	-0.501285	-0.720279	-0.328127
C62	C	-0.001285	-0.220279	0.171873
C63	C	-0.501277	-0.802258	-0.328119
C64	C	-0.001277	-0.302258	0.171881
C65	C	-0.501309	-0.549409	-0.328146
C66	C	-0.001309	-0.049409	0.171854
C67	C	-0.501318	-0.467424	-0.328153
C68	C	-0.001318	0.032576	0.171847
C69	C	-0.655027	-0.467457	-0.428388
C70	C	-0.155027	0.032543	0.071612
C71	C	-0.655019	-0.549436	-0.428380
C72	C	-0.155019	-0.049436	0.071620
C73	C	-0.578157	-0.590409	-0.378257
C74	C	-0.078157	-0.090409	0.121743
C75	C	-0.501231	-1.084336	-0.711225
C76	C	-0.001231	-0.584336	-0.211225
C77	C	-0.501204	-1.084349	-0.793206
C78	C	-0.001204	-0.584349	-0.293206
C79	C	-0.577948	-1.134544	-0.834195
C80	C	-0.077948	-0.634544	-0.334195
C81	C	-0.654733	-1.184723	-0.793199
C82	C	-0.154733	-0.684723	-0.293199
C83	C	-0.654765	-1.184706	-0.711220
C84	C	-0.154765	-0.684706	-0.211220
C85	C	-0.654658	-1.184757	-0.964069
C86	C	-0.154658	-0.684757	-0.464069
C87	C	-0.654624	-1.184776	-1.046054
C88	C	-0.154624	-0.684776	-0.546054
C89	C	-0.501096	-1.084400	-1.046055
C90	C	-0.001096	-0.584400	-0.546055
C91	C	-0.501129	-1.084383	-0.964076
C92	C	-0.001129	-0.584383	-0.464076
C93	C	-0.577912	-1.134564	-0.923086
C94	C	-0.077912	-0.634564	-0.423086
C95	C	-0.578146	-1.134463	-0.174293
C96	C	-0.078146	-0.634463	0.325707
C97	C	-0.577848	-1.134598	-0.087044
C98	C	-0.077848	-0.634598	0.412956
H99	H	-0.717575	-0.835668	-0.469153
H100	H	-0.217575	-0.335668	0.030847
C101	C	-0.739145	-1.239943	-0.838281
C102	C	-0.239145	-0.739943	-0.338281
H103	H	-0.784880	-1.269821	-0.802126
H104	H	-0.284880	-0.769821	-0.302126
H105	H	-0.693219	-1.274159	-0.870266
H106	H	-0.193219	-0.774159	-0.370266
H107	H	-0.791428	-1.209913	-0.870256
H108	H	-0.291428	-0.709913	-0.370256
C109	C	-0.739046	-1.239982	-1.091145
C110	C	-0.239046	-0.739982	-0.591145
H111	H	-0.728017	-1.232810	-1.145838
H112	H	-0.228017	-0.732810	-0.645838
H113	H	-0.819688	-1.228473	-1.077704
H114	H	-0.319688	-0.728473	-0.577704
H115	H	-0.721496	-1.292729	-1.077717
H116	H	-0.221496	-0.792729	-0.577717
H117	H	-0.717173	-1.225627	-0.930698
H118	H	-0.217173	-0.725627	-0.430698
H119	H	-0.717276	-1.225572	-0.677847
H120	H	-0.217276	-0.725572	-0.177847
H121	H	-0.717579	-0.686950	-0.469173
H122	H	-0.217579	-0.186950	0.030827
H123	H	-0.717601	-0.582821	-0.469181
H124	H	-0.217601	-0.082821	0.030819
H125	H	-0.717607	-0.434093	-0.469202
H126	H	-0.217607	0.065907	0.030798
C127	C	-0.416776	-0.422318	-0.273040
C128	C	0.083224	0.077682	0.226960
H129	H	-0.370985	-0.458460	-0.243196
H130	H	0.129015	0.041540	0.256804
H131	H	-0.462616	-0.390320	-0.238788
H132	H	0.037384	0.109680	0.261212
H133	H	-0.364550	-0.390356	-0.303141
H134	H	0.135450	0.109644	0.196859
H135	H	-0.438709	-0.582766	-0.287338
H136	H	0.061291	-0.082766	0.212662
H137	H	-0.438575	-1.043542	-1.079433
H138	H	0.061425	-0.543542	-0.579433
H139	H	-0.438688	-0.835617	-0.287311
H140	H	0.061312	-0.335617	0.212689
C141	C	-0.416750	-0.675178	-0.273006
C142	C	0.083250	-0.175178	0.226994
H143	H	-0.370969	-0.711323	-0.243161
H144	H	0.129031	-0.211323	0.256839
H145	H	-0.462595	-0.643180	-0.238756
H146	H	0.037405	-0.143180	0.261244
H147	H	-0.364514	-0.643215	-0.303100
H148	H	0.135486	-0.143215	0.196900
H149	H	-0.438730	-1.043466	-0.677857
H150	H	0.061270	-0.543466	-0.177857
H151	H	-0.438689	-1.043486	-0.826576
H152	H	0.061311	-0.543486	-0.326576
H153	H	-0.438631	-1.043513	-0.930704
H154	H	0.061369	-0.543513	-0.430704
