data_functionalizedCrystal
_audit_creation_method	'MofGen! by Chris Wilmer'
_symmetry_space_group_name_H-M	'P1'
_symmetry_Int_Tables_number	1
_symmetry_cell_setting	triclinic
loop_
_symmetry_equiv_pos_as_xyz
  x,y,z
_cell_length_a	18.215407
_cell_length_b	19.121063
_cell_length_c	18.215399
_cell_angle_alpha	92.409843
_cell_angle_beta	89.980167
_cell_angle_gamma	92.469446
loop_
_atom_site_label
_atom_site_type_symbol
_atom_site_fract_x
_atom_site_fract_y
_atom_site_fract_z
Zn1	Zn	1.112559	-0.279613	-0.428596
Zn2	Zn	1.612559	0.220387	0.071404
Zn3	Zn	1.107212	-0.397068	-0.310772
Zn4	Zn	1.607212	0.102932	0.189228
Zn5	Zn	0.989491	-0.279636	-0.305544
Zn6	Zn	1.489491	0.220364	0.194456
Zn7	Zn	0.984203	-0.397029	-0.433795
Zn8	Zn	1.484203	0.102971	0.066205
O9	O	1.048366	-0.338336	-0.369677
O10	O	1.548366	0.161664	0.130323
O11	O	1.214834	-0.295200	-0.412978
O12	O	1.714834	0.204800	0.087022
O13	O	1.091570	-0.381516	-0.207095
O14	O	1.591570	0.118484	0.292905
O15	O	1.010267	-0.181348	-0.317504
O16	O	1.510267	0.318652	0.182496
O17	O	1.210905	-0.381494	-0.326414
O18	O	1.710905	0.118506	0.173586
O19	O	1.100685	-0.181331	-0.407909
O20	O	1.600685	0.318669	0.092091
O21	O	1.005081	-0.295240	-0.203255
O22	O	1.505081	0.204760	0.296745
O23	O	0.885805	-0.295202	-0.322545
O24	O	1.385805	0.204798	0.177455
O25	O	1.001255	-0.381427	-0.536089
O26	O	1.501255	0.118573	-0.036089
O27	O	0.881921	-0.381450	-0.416771
O28	O	1.381921	0.118550	0.083229
O29	O	1.095558	-0.295162	-0.532269
O30	O	1.595558	0.204838	-0.032269
O31	O	1.086443	-0.495348	-0.331455
O32	O	1.586443	0.004652	0.168545
O33	O	0.996070	-0.495319	-0.421840
O34	O	1.496070	0.004681	0.078160
C35	C	0.857160	-0.338324	-0.369655
C36	C	1.357160	0.161676	0.130345
C37	C	0.775361	-0.338336	-0.369664
C38	C	1.275361	0.161664	0.130336
C39	C	1.040122	-0.520817	-0.377795
C40	C	1.540122	-0.020817	0.122205
C41	C	1.036663	-0.598883	-0.381293
C42	C	1.536663	-0.098883	0.118707
C43	C	0.585160	-0.383316	-0.418671
C44	C	1.085160	0.116684	0.081329
C45	C	0.508302	-0.383318	-0.418681
C46	C	1.008302	0.116682	0.081319
C47	C	0.512323	-0.293369	-0.320699
C48	C	1.012323	0.206631	0.179301
C49	C	0.589181	-0.293364	-0.320694
C50	C	1.089181	0.206636	0.179306
C51	C	0.625597	-0.338342	-0.369679
C52	C	1.125597	0.161658	0.130321
C53	C	0.471881	-0.338349	-0.369694
C54	C	0.971881	0.161651	0.130306
C55	C	0.388547	-0.338351	-0.369703
C56	C	0.888547	0.161649	0.130297
C57	C	0.708936	-0.338339	-0.369671
C58	C	1.208936	0.161661	0.130329
C59	C	1.082127	-0.635551	-0.335916
C60	C	1.582127	-0.135551	0.164084
C61	C	1.078878	-0.708902	-0.339210
C62	C	1.578878	-0.208902	0.160790
C63	C	1.030161	-0.745585	-0.387877
C64	C	1.530161	-0.245585	0.112123
C65	C	0.984695	-0.708912	-0.433258
C66	C	1.484695	-0.208912	0.066742
C67	C	0.987948	-0.635562	-0.429968
C68	C	1.487948	-0.135562	0.070032
C69	C	1.017985	-0.967055	-0.400168
C70	C	1.517985	-0.467055	0.099832
C71	C	1.014733	-1.040410	-0.403454
C72	C	1.514733	-0.540410	0.096546
C73	C	1.108918	-1.040394	-0.309406
C74	C	1.608918	-0.540394	0.190594
C75	C	1.112164	-0.967043	-0.306117
C76	C	1.612164	-0.467043	0.193883
C77	C	1.066701	-0.930377	-0.351501
C78	C	1.566701	-0.430377	0.148499
C79	C	1.026837	-0.820561	-0.391243
C80	C	1.526837	-0.320561	0.108757
C81	C	1.070029	-0.855401	-0.348138
C82	C	1.570029	-0.355401	0.151862
C83	C	1.240319	-0.338349	-0.369699
C84	C	1.740319	0.161651	0.130301
C85	C	1.322117	-0.338354	-0.369709
C86	C	1.822117	0.161646	0.130291
C87	C	1.048413	-0.338288	-0.561628
C88	C	1.548413	0.161712	-0.061628
C89	C	1.048433	-0.338267	-0.643426
C90	C	1.548433	0.161733	-0.143426
C91	C	1.056662	-0.155143	-0.361543
C92	C	1.556662	0.344857	0.138457
C93	C	1.060197	-0.077077	-0.358077
C94	C	1.560197	0.422923	0.141923
C95	C	1.097555	-0.293307	-0.829630
C96	C	1.597555	0.206693	-0.329630
C97	C	1.097565	-0.293287	-0.906488
C98	C	1.597565	0.206713	-0.406488
C99	C	0.999368	-0.383119	-0.910455
C100	C	1.499368	0.116881	-0.410455
C101	C	0.999355	-0.383135	-0.833598
C102	C	1.499355	0.116865	-0.333598
C103	C	1.048453	-0.338231	-0.793188
C104	C	1.548453	0.161769	-0.293188
C105	C	1.048476	-0.338194	-0.946902
C106	C	1.548476	0.161806	-0.446902
C107	C	1.048486	-0.338172	-1.030235
C108	C	1.548486	0.161828	-0.530235
C109	C	1.048442	-0.338251	-0.709850
C110	C	1.548442	0.161749	-0.209850
C111	C	1.048364	-0.338334	-0.178471
C112	C	1.548364	0.161666	0.321529
C113	C	1.048495	-0.338157	-0.096664
C114	C	1.548495	0.161843	0.403336
H115	H	0.614808	-0.419938	-0.458560
H116	H	1.114808	0.080062	0.041440
Br117	Br	0.956285	-0.917303	-0.461761
Br118	Br	1.456285	-0.417303	0.038239
H119	H	0.475381	-0.419940	-0.458576
H120	H	0.975381	0.080060	0.041424
Br121	Br	1.178293	-0.917264	-0.240076
Br122	Br	1.678293	-0.417264	0.259924
Br123	Br	0.462897	-0.232332	-0.254222
Br124	Br	0.962897	0.267668	0.245778
H125	H	1.137532	-0.256741	-0.796730
H126	H	1.637532	0.243259	-0.296730
H127	H	0.622106	-0.256736	-0.280798
H128	H	1.122106	0.243264	0.219202
H129	H	0.959365	-0.419717	-0.803926
H130	H	1.459365	0.080283	-0.303926
H131	H	1.115899	-0.738753	-0.302259
H132	H	1.615899	-0.238753	0.197741
Br133	Br	1.148240	-0.585774	-0.269858
Br134	Br	1.648240	-0.085774	0.230142
H135	H	1.145933	-1.070256	-0.272458
H136	H	1.645933	-0.570256	0.227542
Br137	Br	0.948600	-1.090194	-0.469493
Br138	Br	1.448600	-0.590194	0.030507
Br139	Br	0.918583	-0.758695	-0.499313
Br140	Br	1.418583	-0.258695	0.000687
Br141	Br	0.926249	-0.585798	-0.491557
Br142	Br	1.426249	-0.085798	0.008443
Br143	Br	1.136148	-0.805617	-0.282096
Br144	Br	1.636148	-0.305617	0.217904
H145	H	0.987169	-0.850437	-0.430866
H146	H	1.487169	-0.350437	0.069134
Br147	Br	1.164212	-0.232322	-0.955943
Br148	Br	1.664212	0.267678	-0.455943
H149	H	0.959396	-0.419680	-0.943366
H150	H	1.459396	0.080320	-0.443366
