data_functionalizedCrystal
_audit_creation_method	'MofGen! by Chris Wilmer'
_symmetry_space_group_name_H-M	'P1'
_symmetry_Int_Tables_number	1
_symmetry_cell_setting	triclinic
loop_
_symmetry_equiv_pos_as_xyz
  x,y,z
_cell_length_a	18.050590
_cell_length_b	17.640112
_cell_length_c	17.640968
_cell_angle_alpha	92.139080
_cell_angle_beta	101.224637
_cell_angle_gamma	78.780299
loop_
_atom_site_label
_atom_site_type_symbol
_atom_site_fract_x
_atom_site_fract_y
_atom_site_fract_z
Zn1	Zn	0.021336	1.247789	-0.195083
Zn2	Zn	0.174537	1.222097	-0.068119
Zn3	Zn	0.069639	1.095146	-0.093735
Zn4	Zn	0.164762	1.120833	-0.220700
O5	O	0.107568	1.171466	-0.144409
O6	O	0.025534	1.350642	-0.156800
O7	O	0.184928	1.183754	0.034753
O8	O	-0.040694	1.115396	-0.107178
O9	O	0.138090	1.331766	-0.063520
O10	O	-0.076182	1.227543	-0.181638
O11	O	0.107859	1.090484	0.015933
O12	O	0.098381	0.992292	-0.132018
O13	O	0.121431	1.159176	-0.323572
O14	O	0.168268	1.011164	-0.225299
O15	O	0.016056	1.252451	-0.304751
O16	O	0.277165	1.208662	-0.088360
O17	O	0.269984	1.134264	-0.200461
C18	C	0.137506	0.974176	-0.184218
C19	C	0.150327	0.889778	-0.201267
C20	C	-0.086138	1.171470	-0.144408
C21	C	-0.168684	1.171471	-0.144407
C22	C	0.010152	0.563044	-0.014899
C23	C	0.022212	0.483742	-0.030929
C24	C	0.095155	0.503414	-0.127895
C25	C	0.083097	0.582720	-0.111876
C26	C	0.040596	0.612529	-0.055377
C27	C	0.113541	0.632205	-0.152353
C28	C	0.101488	0.711504	-0.136332
C29	C	0.058991	0.741318	-0.079834
C30	C	0.028543	0.691828	-0.039356
C31	C	0.156047	0.602394	-0.208848
C32	C	0.186491	0.651879	-0.249326
C33	C	0.174434	0.731180	-0.233309
C34	C	0.131936	0.760994	-0.176811
C35	C	0.204882	0.780671	-0.273787
C36	C	0.192828	0.859970	-0.257766
C37	C	0.119883	0.840293	-0.160790
C38	C	-0.348844	1.110521	-0.103924
C39	C	-0.411259	1.105975	-0.176959
C40	C	-0.319823	1.171505	-0.144420
C41	C	-0.404493	1.176048	-0.071406
C42	C	-0.465815	1.171534	-0.144427
C43	C	-0.381154	1.166930	-0.217499
C44	C	-0.374377	1.237026	-0.111893
C45	C	-0.436785	1.232516	-0.184971
C46	C	-0.235720	1.171486	-0.144415
C47	C	-0.549918	1.171555	-0.144439
C48	C	0.300514	1.171487	-0.144423
C49	C	0.383041	1.171570	-0.144440
C50	C	0.062265	1.211545	-0.342486
C51	C	0.042959	1.228624	-0.426895
C52	C	0.077514	1.369527	-0.104445
C53	C	0.064707	1.453929	-0.087415
C54	C	0.253783	1.042010	-0.753494
C55	C	0.235631	1.058074	-0.832806
C56	C	0.125913	1.155192	-0.813199
C57	C	0.144054	1.139133	-0.733885
C58	C	0.207990	1.082542	-0.704039
C59	C	0.098261	1.179665	-0.684429
C60	C	0.116404	1.163610	-0.605121
C61	C	0.180339	1.107023	-0.575269
C62	C	0.226133	1.066487	-0.624731
C63	C	0.034329	1.236260	-0.714276
C64	C	-0.011464	1.276792	-0.664820
C65	C	0.006675	1.260734	-0.585511
C66	C	0.070610	1.204147	-0.555659
C67	C	-0.039119	1.301270	-0.536049
C68	C	-0.020977	1.285215	-0.456741
C69	C	0.088752	1.188092	-0.476351
C70	C	0.152635	1.131587	0.052906
C71	C	0.171709	1.114655	0.137344
H72	H	0.085261	0.864567	-0.114793
H73	H	-0.370559	1.163035	-0.279279
H74	H	0.305831	0.995909	-0.729196
Br75	Br	-0.346986	1.329325	-0.066002
Br76	Br	0.042639	0.848938	-0.058083
Br77	Br	-0.438607	1.013646	-0.222831
H78	H	-0.058267	1.318219	-0.416473
H79	H	-0.415173	1.179880	-0.009656
Br80	Br	0.204968	1.085238	-0.467634
H81	H	0.140800	1.141991	-0.452053
Br82	Br	-0.499885	1.318513	-0.242132
H83	H	0.278181	1.020386	-0.600433
Br84	Br	0.297785	1.003059	-0.899924
H85	H	-0.006079	0.716101	0.006640
Br86	Br	0.039148	1.231996	-0.853711
Br87	Br	-0.098229	1.353596	-0.705332
H88	H	0.019561	1.249332	-0.778853
Br89	Br	0.262581	0.740203	-0.350444
H90	H	-0.024470	0.587318	0.031097
Br91	Br	-0.019100	0.416582	0.024019
Br92	Br	0.152847	0.462950	-0.204558
Br93	Br	0.234150	0.927132	-0.312695
Br94	Br	0.244183	0.611415	-0.325989
Br95	Br	-0.285546	1.024511	-0.046937
Br96	Br	-0.125878	1.378081	-0.576562
H97	H	0.165859	0.537823	-0.221891
