data_functionalizedCrystal
_audit_creation_method	'MofGen! by Chris Wilmer'
_symmetry_space_group_name_H-M	'P1'
_symmetry_Int_Tables_number	1
_symmetry_cell_setting	triclinic
loop_
_symmetry_equiv_pos_as_xyz
  x,y,z
_cell_length_a	15.944551
_cell_length_b	15.944551
_cell_length_c	14.421503
_cell_angle_alpha	89.996660
_cell_angle_beta	89.996859
_cell_angle_gamma	96.501262
loop_
_atom_site_label
_atom_site_type_symbol
_atom_site_fract_x
_atom_site_fract_y
_atom_site_fract_z
O1	O	1.114529	-0.108320	-0.077017
O2	O	0.869980	-0.121677	-0.077040
O3	O	0.998933	0.007276	-0.077020
O4	O	0.985576	-0.237273	-0.077038
O5	O	0.998911	0.007257	0.077204
O6	O	0.869958	-0.121696	0.077183
O7	O	1.114508	-0.108340	0.077206
Cu8	Cu	0.992231	-0.115020	0.091277
Cu9	Cu	0.992256	-0.114997	-0.091110
O10	O	0.985555	-0.237293	0.077186
C11	C	0.838675	-0.121132	0.000069
C12	C	0.745429	-0.119470	0.000060
C13	C	0.530572	-0.035565	0.000084
C14	C	0.469563	-0.074518	-0.075959
C15	C	0.574703	-0.116462	0.000071
C16	C	0.469564	-0.074556	0.076093
C17	C	0.409790	-0.113551	0.000086
C18	C	0.514922	-0.155437	-0.076035
C19	C	0.514929	-0.155464	0.076086
C20	C	0.453937	-0.194476	0.000024
C21	C	0.669705	-0.118137	0.000062
C22	C	0.314789	-0.111883	0.000089
C23	C	0.998367	0.038561	0.000092
C24	C	0.996705	0.131807	0.000093
C25	C	1.145813	-0.108885	0.000096
C26	C	1.239059	-0.110547	0.000098
C27	C	0.986120	-0.268577	0.000072
C28	C	0.987782	-0.361823	0.000066
N29	N	0.992219	-0.115035	0.219558
C30	C	0.912801	0.346663	0.000072
C31	C	0.951753	0.407671	0.076117
C32	C	0.993698	0.302533	0.000085
C33	C	0.951793	0.407674	-0.075935
C34	C	0.990787	0.467445	0.000074
C35	C	1.032672	0.362312	0.076193
C36	C	1.032701	0.362308	-0.075927
C37	C	1.071711	0.423298	0.000136
C38	C	0.995372	0.207530	0.000092
C39	C	0.989119	0.562446	0.000073
N40	N	0.992275	-0.114975	-0.219392
C41	C	0.932581	-0.174636	0.469202
C42	C	1.008481	-0.190943	0.531011
C43	C	0.992240	-0.115015	0.408719
C44	C	0.916359	-0.098727	0.531005
C45	C	0.992253	-0.114997	0.591441
C46	C	1.068178	-0.131360	0.469167
C47	C	0.976007	-0.039111	0.469156
C48	C	1.051961	-0.055386	0.530936
C49	C	0.992231	-0.115027	0.303458
C50	C	0.992270	-0.114985	0.696700
H51	H	0.563905	0.031573	-0.000005
O52	O	0.872354	-0.234783	0.436965
C53	C	0.724406	-0.286458	0.433122
C54	C	0.792523	-0.218300	0.469714
H55	H	0.659845	-0.273146	0.459569
H56	H	0.738343	-0.351146	0.458563
H57	H	0.724602	-0.285510	0.354079
H58	H	0.792364	-0.219170	0.548755
H59	H	0.778561	-0.153643	0.444202
H60	H	1.066897	0.342186	-0.140214
H61	H	1.138919	0.456457	0.000186
H62	H	0.535052	-0.189660	0.140373
O63	O	0.910860	0.431532	-0.152606
C64	C	0.780807	0.419311	-0.239207
C65	C	0.827075	0.392213	-0.152357
H66	H	0.713054	0.387548	-0.239024
H67	H	0.814582	0.399729	-0.304038
H68	H	0.780521	0.490777	-0.238825
H69	H	0.827374	0.320752	-0.152649
H70	H	0.793284	0.411857	-0.087565
H71	H	0.534918	-0.189620	-0.140394
O72	O	1.073526	0.338372	0.152882
C73	C	1.190304	0.271322	0.212765
C74	C	1.144113	0.298373	0.125839
H75	H	1.247392	0.238993	0.190933
H76	H	1.145603	0.225623	0.255424
H77	H	1.212143	0.329386	0.256300
H78	H	1.122269	0.240359	0.082233
H79	H	1.188844	0.344101	0.083250
O80	O	0.445726	-0.033634	-0.152676
C81	C	0.490463	0.040367	-0.293022
C82	C	0.517568	-0.005904	-0.206174
H83	H	0.548530	0.062785	-0.336308
H84	H	0.457550	0.097063	-0.271133
H85	H	0.445224	-0.004550	-0.335953
H86	H	0.562834	0.038946	-0.163204
H87	H	0.550434	-0.062611	-0.228126
O88	O	1.144761	-0.148014	0.437043
C89	C	1.248631	-0.246590	0.432801
C90	C	1.161900	-0.227815	0.469247
H91	H	1.262508	-0.311116	0.458807
H92	H	1.299558	-0.196114	0.458795
H93	H	1.248010	-0.246458	0.353755
H94	H	1.162439	-0.227960	0.548291
H95	H	1.111011	-0.278294	0.443182
O96	O	0.445702	-0.033620	0.152761
C97	C	0.457915	0.096438	0.239352
C98	C	0.485019	0.050165	0.152507
H99	H	0.489677	0.164191	0.239166
H100	H	0.477495	0.062667	0.304187
H101	H	0.386450	0.096721	0.238964
H102	H	0.556481	0.049868	0.152805
H103	H	0.465377	0.083951	0.087712
O104	O	0.832682	0.306959	0.000313
C105	C	0.699526	0.284939	0.080725
C106	C	0.790241	0.329942	0.080573
H107	H	0.665181	0.303518	0.145598
H108	H	0.701487	0.213689	0.080121
H109	H	0.664733	0.304340	0.016521
H110	H	0.825086	0.310611	0.144766
H111	H	0.788219	0.401183	0.081128
H112	H	1.022224	-0.255126	0.558180
H113	H	1.102474	-0.004956	0.557872
H114	H	0.420779	-0.261683	-0.000023
H115	H	0.962240	0.025051	0.441965
H116	H	0.852183	-0.084959	0.558170
H117	H	0.917527	0.427771	0.140401
