data_functionalizedCrystal
_audit_creation_method	'MofGen! by Chris Wilmer'
_symmetry_space_group_name_H-M	'P1'
_symmetry_Int_Tables_number	1
_symmetry_cell_setting	triclinic
loop_
_symmetry_equiv_pos_as_xyz
  x,y,z
_cell_length_a	19.077105
_cell_length_b	12.827892
_cell_length_c	19.076919
_cell_angle_alpha	87.724655
_cell_angle_beta	89.923776
_cell_angle_gamma	87.711895
loop_
_atom_site_label
_atom_site_type_symbol
_atom_site_fract_x
_atom_site_fract_y
_atom_site_fract_z
Zn1	Zn	1.058323	-0.505562	0.440439
Zn2	Zn	1.062981	-0.673587	0.322939
Zn3	Zn	0.945540	-0.491563	0.318232
Zn4	Zn	0.940803	-0.672957	0.435692
O5	O	1.001912	-0.585917	0.379325
O6	O	1.157274	-0.533973	0.428809
O7	O	1.051334	-0.643846	0.223983
O8	O	0.960534	-0.347187	0.334459
O9	O	1.160695	-0.657421	0.342483
O10	O	1.043396	-0.357472	0.424245
O11	O	0.965050	-0.510114	0.220525
O12	O	0.846579	-0.509503	0.329856
O13	O	0.952460	-0.656346	0.534653
O14	O	0.843099	-0.642772	0.416154
O15	O	1.038802	-0.533362	0.538141
O16	O	1.046740	-0.819736	0.337879
O17	O	0.956976	-0.819273	0.420718
C18	C	0.819342	-0.574551	0.371979
C19	C	0.741237	-0.569714	0.368853
C20	C	1.001868	-0.857424	0.379311
C21	C	1.001913	-0.973581	0.379330
C22	C	0.702753	-0.636925	0.412245
C23	C	0.629365	-0.632367	0.409311
C24	C	0.594463	-0.560602	0.362982
C25	C	0.632953	-0.493385	0.319589
C26	C	0.706339	-0.497938	0.322527
C27	C	0.375174	-0.539528	0.349388
C28	C	0.301782	-0.534981	0.346452
C29	C	0.298199	-0.673963	0.436176
C30	C	0.371587	-0.678514	0.439106
C31	C	0.410071	-0.611293	0.395716
N32	N	0.519449	-0.555944	0.359980
N33	N	0.485083	-0.615947	0.398722
C34	C	1.042895	-1.030372	0.423797
C35	C	1.042942	-1.150427	0.423818
C36	C	1.185194	-0.597329	0.386701
C37	C	1.263298	-0.602192	0.389843
C38	C	0.994583	-0.596346	0.562606
C39	C	0.991460	-0.600790	0.640709
C40	C	1.001974	-0.313353	0.379356
C41	C	1.002000	-0.197202	0.379370
C42	C	1.009252	-0.575456	0.196759
C43	C	1.012511	-0.570726	0.118662
C44	C	1.034945	-0.538849	0.679219
C45	C	1.032002	-0.543020	0.752605
C46	C	0.985578	-0.609138	0.787480
C47	C	0.942089	-0.671081	0.748965
C48	C	0.945029	-0.666904	0.675580
C49	C	0.971962	-0.628492	1.006762
C50	C	0.969027	-0.632667	1.080152
C51	C	1.058939	-0.504604	1.083788
C52	C	1.061878	-0.500437	1.010401
C53	C	1.018386	-0.562376	0.971892
N54	N	0.982570	-0.613406	0.862492
N55	N	1.021391	-0.558103	0.896881
H56	H	0.598034	-0.687098	0.444644
H57	H	1.077944	-0.990117	0.461853
O58	O	0.405377	-0.748256	0.484173
C59	C	0.355673	-0.806622	0.521830
H60	H	0.303268	-0.760721	0.522223
H61	H	0.348883	-0.883972	0.495691
C62	C	0.445706	-0.884273	0.597262
C63	C	0.381342	-0.827892	0.597749
H64	H	0.461541	-0.897398	0.644092
H65	H	0.479194	-0.844954	0.571891
H66	H	0.440039	-0.948725	0.575476
H67	H	0.387012	-0.763436	0.619527
H68	H	0.347856	-0.867200	0.623127
O69	O	0.929815	-0.688718	0.969294
C70	C	0.971495	-0.756315	0.928460
H71	H	1.025195	-0.722155	0.919601
H72	H	0.978069	-0.835842	0.957049
C73	C	0.869648	-0.810829	0.868081
C74	C	0.935602	-0.768868	0.857196
H75	H	0.847507	-0.818577	0.824123
H76	H	0.841567	-0.765290	0.895593
H77	H	0.875136	-0.877097	0.891907
H78	H	0.930113	-0.702596	0.833378
H79	H	0.963681	-0.814395	0.829677
H80	H	1.099683	-0.446600	0.982012
O81	O	0.960117	-1.139131	0.333883
C82	C	0.922044	-1.205941	0.292574
H83	H	0.950909	-1.285386	0.291285
H84	H	0.867627	-1.215707	0.316112
C85	C	0.879518	-1.060834	0.218976
C86	C	0.914974	-1.158407	0.217389
H87	H	0.875154	-1.031513	0.172600
H88	H	0.905166	-1.015822	0.246809
H89	H	0.834175	-1.068987	0.238595
H90	H	0.960320	-1.150252	0.197779
H91	H	0.889334	-1.203417	0.189552
O92	O	1.101109	-0.444469	1.121301
C93	C	1.088574	-0.462348	1.193552
H94	H	1.033938	-0.493770	1.201386
H95	H	1.129410	-0.521774	1.216051
C96	C	1.160632	-0.320566	1.221876
C97	C	1.093523	-0.359150	1.231498
H98	H	1.163688	-0.256911	1.245285
H99	H	1.169079	-0.308522	1.173200
H100	H	1.194654	-0.370097	1.240625
H101	H	1.059504	-0.309626	1.212742
H102	H	1.085071	-0.371183	1.280172
H103	H	1.078031	-1.199247	0.461885
O104	O	0.598942	-0.423760	0.274606
C105	C	0.525916	-0.434132	0.281329
H106	H	0.514969	-0.515517	0.303843
H107	H	0.503609	-0.373081	0.317991
C108	C	0.504512	-0.318039	0.181082
C109	C	0.491067	-0.418000	0.208729
H110	H	0.483014	-0.308084	0.136301
H111	H	0.553711	-0.311047	0.176554
H112	H	0.485923	-0.267174	0.211641
H113	H	0.509664	-0.468863	0.178175
H114	H	0.441870	-0.425001	0.213251
H115	H	0.966858	-1.013839	0.341281
O116	O	0.743620	-0.432612	0.280302
C117	C	0.697080	-0.368279	0.238790
H118	H	0.644860	-0.407687	0.234215
H119	H	0.688260	-0.289955	0.264300
C120	C	0.792835	-0.302169	0.170786
C121	C	0.728699	-0.350576	0.165162
H122	H	0.812339	-0.291244	0.125369
H123	H	0.824190	-0.345508	0.198754
H124	H	0.785476	-0.236905	0.192046
H125	H	0.736059	-0.415844	0.143910
H126	H	0.697345	-0.307247	0.137188
O127	O	1.080060	-0.474531	0.645455
C128	C	1.117820	-0.420773	0.695185
H129	H	1.086942	-0.418343	0.746336
H130	H	1.170867	-0.462807	0.705137
C131	C	1.167044	-0.311540	0.604144
C132	C	1.129117	-0.308547	0.666967
H133	H	1.174016	-0.242315	0.586738
H134	H	1.141607	-0.347760	0.570639
H135	H	1.211246	-0.346573	0.612446
H136	H	1.084913	-0.273526	0.658663
H137	H	1.154547	-0.272319	0.700470
O138	O	0.902770	-0.727190	0.638277
C139	C	0.861156	-0.786432	0.684792
H140	H	0.887839	-0.794808	0.738266
H141	H	0.807480	-0.745298	0.690445
C142	C	0.819394	-0.885108	0.590057
C143	C	0.852168	-0.895403	0.655732
H144	H	0.813846	-0.952325	0.572131
H145	H	0.847428	-0.845193	0.558718
H146	H	0.774667	-0.850826	0.594777
H147	H	0.896898	-0.929672	0.651011
H148	H	0.824142	-0.935326	0.687070
H149	H	0.904287	-0.724912	0.777365
H150	H	1.067413	-0.492584	0.783957
H151	H	0.731165	-0.695367	0.449969
O152	O	0.923864	-0.696919	1.113919
C153	C	0.886120	-0.750712	1.064195
H154	H	0.885787	-0.704781	1.011791
H155	H	0.912143	-0.831237	1.057416
C156	C	0.810593	-0.819155	1.154191
C157	C	0.810179	-0.762737	1.089829
H158	H	0.763750	-0.826578	1.170004
H159	H	0.836023	-0.782917	1.187692
H160	H	0.832282	-0.886253	1.148533
H161	H	0.788498	-0.695637	1.095490
H162	H	0.784743	-0.798964	1.056330
H163	H	0.266859	-0.728689	0.471502
H164	H	0.273368	-0.476530	0.308730
H165	H	0.406499	-0.484799	0.314051
