data_functionalizedCrystal
_audit_creation_method	'MofGen! by Chris Wilmer'
_symmetry_space_group_name_H-M	'P1'
_symmetry_Int_Tables_number	1
_symmetry_cell_setting	triclinic
loop_
_symmetry_equiv_pos_as_xyz
  x,y,z
_cell_length_a	23.532407
_cell_length_b	23.532407
_cell_length_c	9.798715
_cell_angle_alpha	90.007792
_cell_angle_beta	89.998337
_cell_angle_gamma	82.848678
loop_
_atom_site_label
_atom_site_type_symbol
_atom_site_fract_x
_atom_site_fract_y
_atom_site_fract_z
O1	O	0.755259	0.069134	0.113334
O2	O	1.255259	0.569134	0.613334
O3	O	0.589396	0.079137	0.113376
O4	O	1.089396	0.579137	0.613376
O5	O	0.677329	-0.008797	0.113329
O6	O	1.177329	0.491203	0.613329
O7	O	0.667326	0.157067	0.113382
O8	O	1.167326	0.657067	0.613382
O9	O	0.677322	-0.008797	-0.113653
O10	O	1.177322	0.491203	0.386347
O11	O	0.589389	0.079137	-0.113606
O12	O	1.089389	0.579137	0.386394
O13	O	0.755252	0.069133	-0.113648
O14	O	1.255252	0.569133	0.386352
Zn15	Zn	0.672320	0.074135	-0.149665
Zn16	Zn	1.172320	0.574135	0.350335
Zn17	Zn	0.672328	0.074135	0.149394
Zn18	Zn	1.172328	0.574135	0.649394
O19	O	0.667319	0.157067	-0.113600
O20	O	1.167319	0.657067	0.386400
C21	C	0.568176	0.078882	-0.000110
C22	C	1.068176	0.578882	0.499890
C23	C	0.504959	0.078116	-0.000095
C24	C	1.004959	0.578116	0.499905
C25	C	0.105856	0.125350	-0.000142
C26	C	0.605856	0.625350	0.499858
C27	C	0.046456	0.124638	-0.000150
C28	C	0.546456	0.624638	0.499850
O29	O	0.009711	0.168424	-0.000186
O30	O	0.509711	0.668424	0.499814
N31	N	0.023830	0.072362	-0.000164
N32	N	0.523830	0.572362	0.499836
C33	C	0.060607	0.020794	-0.000184
C34	C	0.560607	0.520794	0.499816
O35	O	0.035908	-0.023737	-0.000198
O36	O	0.535908	0.476263	0.499802
C37	C	0.120006	0.021506	-0.000185
C38	C	0.620006	0.521506	0.499815
C39	C	0.142629	0.073785	-0.000157
C40	C	0.642629	0.573785	0.499843
C41	C	0.128479	0.177625	-0.000115
C42	C	0.628479	0.677625	0.499885
C43	C	0.187876	0.178336	-0.000104
C44	C	0.687876	0.678336	0.499896
C45	C	0.224649	0.126772	-0.000119
C46	C	0.724649	0.626772	0.499881
C47	C	0.202025	0.074497	-0.000146
C48	C	0.702025	0.574497	0.499854
C49	C	0.156783	-0.030062	-0.000215
C50	C	0.656783	0.469938	0.499785
C51	C	0.216185	-0.029345	-0.000217
C52	C	0.716185	0.470655	0.499783
C53	C	0.238808	0.022934	-0.000189
C54	C	0.738808	0.522934	0.499811
C55	C	0.298194	0.023643	-0.000150
C56	C	0.798194	0.523643	0.499850
N57	N	0.320820	0.075920	-0.000136
N58	N	0.820820	0.575920	0.499864
C59	C	0.284048	0.127484	-0.000121
C60	C	0.784048	0.627484	0.499879
C61	C	-0.064135	0.019302	-0.000184
C62	C	0.435865	0.519302	0.499816
C63	C	-0.123533	0.018589	-0.000173
C64	C	0.376467	0.518589	0.499827
C65	C	-0.137680	0.122434	-0.000142
C66	C	0.362320	0.622434	0.499858
C67	C	-0.078281	0.123146	-0.000143
C68	C	0.421719	0.623146	0.499857
C69	C	-0.041509	0.071578	-0.000170
C70	C	0.458491	0.571578	0.499830
C71	C	0.408784	0.128974	-0.000096
C72	C	0.908784	0.628974	0.499904
C73	C	0.468186	0.129680	-0.000079
C74	C	0.968186	0.629680	0.499921
C75	C	0.482329	0.025836	-0.000118
C76	C	0.982329	0.525836	0.499882
C77	C	0.422932	0.025129	-0.000127
C78	C	0.922932	0.525129	0.499873
C79	C	0.386160	0.076702	-0.000121
C80	C	0.886160	0.576702	0.499879
O81	O	0.334974	-0.020119	-0.000120
O82	O	0.834974	0.479881	0.499880
O83	O	0.308755	0.172007	-0.000124
O84	O	0.808755	0.672007	0.499876
C85	C	0.677071	-0.030013	-0.000165
C86	C	1.177071	0.469987	0.499835
C87	C	0.676305	-0.093230	-0.000176
C88	C	1.176305	0.406770	0.499824
C89	C	0.723539	-0.492333	-0.000113
C90	C	1.223539	0.007667	0.499887
C91	C	0.722827	-0.551733	-0.000102
C92	C	1.222827	-0.051733	0.499898
O93	O	0.766613	-0.588478	-0.000063
O94	O	1.266613	-0.088478	0.499937
N95	N	0.670551	-0.574359	-0.000090
N96	N	1.170551	-0.074359	0.499910
C97	C	0.618983	-0.537582	-0.000074
C98	C	1.118983	-0.037582	0.499926
O99	O	0.574452	-0.562281	-0.000062
O100	O	1.074452	-0.062281	0.499938
C101	C	0.619695	-0.478182	-0.000075
C102	C	1.119695	0.021818	0.499925
C103	C	0.671974	-0.455560	-0.000101
C104	C	1.171974	0.044440	0.499899
C105	C	0.775814	-0.469710	-0.000137
C106	C	1.275814	0.030290	0.499863
C107	C	0.776525	-0.410313	-0.000150
C108	C	1.276525	0.089687	0.499850
C109	C	0.724961	-0.373540	-0.000139
C110	C	1.224961	0.126460	0.499861
C111	C	0.672685	-0.396164	-0.000114
C112	C	1.172685	0.103836	0.499886
C113	C	0.568127	-0.441406	-0.000050
C114	C	1.068127	0.058594	0.499950
C115	C	0.568844	-0.382004	-0.000050
C116	C	1.068844	0.117996	0.499950
C117	C	0.621123	-0.359381	-0.000076
C118	C	1.121123	0.140619	0.499924
C119	C	0.621832	-0.299995	-0.000116
C120	C	1.121832	0.200005	0.499884
N121	N	0.674109	-0.277368	-0.000128
N122	N	1.174109	0.222632	0.499872
C123	C	0.725673	-0.314141	-0.000140
C124	C	1.225673	0.185859	0.499860
C125	C	0.617491	-0.662324	-0.000070
C126	C	1.117491	-0.162324	0.499930
C127	C	0.616778	-0.721722	-0.000079
C128	C	1.116778	-0.221722	0.499921
C129	C	0.720623	-0.735869	-0.000105
C130	C	1.220623	-0.235869	0.499895
C131	C	0.721335	-0.676470	-0.000105
C132	C	1.221335	-0.176470	0.499895
C133	C	0.669767	-0.639698	-0.000083
C134	C	1.169767	-0.139698	0.499917
C135	C	0.727163	-0.189405	-0.000168
C136	C	1.227163	0.310595	0.499832
C137	C	0.727869	-0.130003	-0.000187
C138	C	1.227869	0.369997	0.499813
C139	C	0.624025	-0.115860	-0.000155
C140	C	1.124025	0.384140	0.499845
C141	C	0.623318	-0.175257	-0.000143
C142	C	1.123318	0.324743	0.499857
C143	C	0.674891	-0.212029	-0.000145
C144	C	1.174891	0.287971	0.499855
O145	O	0.578070	-0.263215	-0.000150
O146	O	1.078070	0.236785	0.499850
O147	O	0.770196	-0.289433	-0.000134
O148	O	1.270196	0.210567	0.499866
C149	C	0.776472	0.069388	-0.000159
C150	C	1.276472	0.569388	0.499841
C151	C	0.839689	0.070154	-0.000165
C152	C	1.339689	0.570154	0.499835
C153	C	0.667577	0.178283	-0.000103
C154	C	1.167577	0.678283	0.499897
C155	C	0.668343	0.241500	-0.000084
C156	C	1.168343	0.741500	0.499916
N157	N	0.672318	0.074134	-0.353765
N158	N	1.172318	0.574134	0.146235
C159	C	0.709241	0.037053	-0.421562
C160	C	1.209241	0.537053	0.078438
C161	C	0.709250	0.037051	-0.578724
C162	C	1.209250	0.537051	-0.078724
N163	N	0.672335	0.074131	0.353493
N164	N	1.172335	0.574131	0.853493
H165	H	0.486602	0.172255	-0.000055
H166	H	0.986602	0.672255	0.499945
H167	H	-0.059867	0.165717	-0.000128
H168	H	0.440133	0.665717	0.499872
F169	F	0.631016	0.115632	-0.570313
F170	F	1.131016	0.615632	-0.070313
H171	H	0.580748	-0.193677	-0.000160
H172	H	1.080748	0.306323	0.499840
H173	H	0.819097	-0.391900	-0.000166
H174	H	1.319097	0.108100	0.499834
F175	F	0.775503	-0.775016	-0.000110
F176	F	1.275503	-0.275016	0.499890
F177	F	0.631005	0.115626	-0.429971
F178	F	1.131005	0.615626	0.070029
H179	H	0.740844	0.005306	-0.363256
H180	H	1.240844	0.505306	0.136744
H181	H	0.582043	-0.085909	-0.000150
H182	H	1.082043	0.414091	0.499850
H183	H	0.378851	0.170970	-0.000095
H184	H	0.878851	0.670970	0.499905
F185	F	0.089351	0.232512	-0.000098
F186	F	0.589351	0.732512	0.499902
F187	F	0.211944	0.233980	-0.000080
F188	F	0.711944	0.733980	0.499920
H189	H	0.770443	-0.111587	-0.000212
H190	H	1.270443	0.388413	0.499788
H191	H	-0.167632	0.164421	-0.000135
H192	H	0.332368	0.664421	0.499865
H193	H	-0.141947	-0.023982	-0.000174
H194	H	0.358053	0.476018	0.499826
H195	H	-0.034198	-0.022693	-0.000194
H196	H	0.465802	0.477307	0.499806
F197	F	0.830701	-0.508838	-0.000149
F198	F	1.330701	-0.008838	0.499851
F199	F	0.132720	-0.085706	-0.000225
F200	F	0.632720	0.414294	0.499775
H201	H	0.246123	-0.071339	-0.000240
H202	H	0.746123	0.428661	0.499760
F203	F	0.398854	-0.030513	-0.000158
F204	F	0.898854	0.469487	0.499842
H205	H	0.740864	0.005306	-0.637026
H206	H	1.240864	0.505306	-0.137026
F207	F	0.521475	-0.029040	-0.000136
F208	F	1.021475	0.470960	0.499864
H209	H	0.574207	-0.740136	-0.000082
H210	H	1.074207	-0.240136	0.499918
F211	F	0.782053	-0.228531	-0.000170
F212	F	1.282053	0.271469	0.499830
F213	F	0.776978	-0.652399	-0.000133
F214	F	1.276978	-0.152399	0.499867
F215	F	0.562602	-0.623192	-0.000059
F216	F	1.062602	-0.123192	0.499941
H217	H	0.525555	-0.459814	-0.000020
H218	H	1.025555	0.040186	0.499980
H219	H	0.526850	-0.352066	-0.000029
H220	H	1.026850	0.147934	0.499971
