data_functionalizedCrystal
_audit_creation_method	'MofGen! by Chris Wilmer'
_symmetry_space_group_name_H-M	'P1'
_symmetry_Int_Tables_number	1
_symmetry_cell_setting	triclinic
loop_
_symmetry_equiv_pos_as_xyz
  x,y,z
_cell_length_a	11.169417
_cell_length_b	18.050590
_cell_length_c	11.169409
_cell_angle_alpha	90.037983
_cell_angle_beta	90.019513
_cell_angle_gamma	90.019802
loop_
_atom_site_label
_atom_site_type_symbol
_atom_site_fract_x
_atom_site_fract_y
_atom_site_fract_z
Zn1	Zn	1.834894	-0.295575	0.678486
Zn2	Zn	2.334894	0.204425	1.178486
Zn3	Zn	1.834754	-0.419790	0.477783
Zn4	Zn	2.334754	0.080210	0.977783
Zn5	Zn	1.634180	-0.295621	0.477821
Zn6	Zn	2.134180	0.204379	0.977821
Zn7	Zn	1.634158	-0.419730	0.678429
Zn8	Zn	2.134158	0.080270	1.178429
O9	O	1.734497	-0.357679	0.578130
O10	O	2.234497	0.142321	1.078130
O11	O	2.002825	-0.312058	0.651870
O12	O	2.502825	0.187942	1.151870
O13	O	1.808098	-0.403363	0.309838
O14	O	2.308098	0.096637	0.809838
O15	O	1.660872	-0.191690	0.504480
O16	O	2.160872	0.308310	1.004480
O17	O	2.002723	-0.403318	0.504414
O18	O	2.502723	0.096682	1.004414
O19	O	1.808336	-0.191656	0.651907
O20	O	2.308336	0.308344	1.151907
O21	O	1.660737	-0.312136	0.309866
O22	O	2.160737	0.187864	0.809866
O23	O	1.466227	-0.312078	0.504424
O24	O	1.966227	0.187922	1.004424
O25	O	1.660836	-0.403216	0.846386
O26	O	2.160836	0.096784	1.346386
O27	O	1.466212	-0.403261	0.651810
O28	O	1.966212	0.096739	1.151810
O29	O	1.808315	-0.312000	0.846428
O30	O	2.308315	0.188000	1.346428
O31	O	1.808078	-0.523706	0.504359
O32	O	2.308078	-0.023706	1.004359
O33	O	1.660701	-0.523662	0.651773
O34	O	2.160701	-0.023662	1.151773
C35	C	1.422672	-0.357669	0.578116
C36	C	1.922672	0.142331	1.078116
C37	C	1.289272	-0.357682	0.578138
C38	C	1.789272	0.142318	1.078138
C39	C	1.734404	-0.550631	0.578082
C40	C	2.234404	-0.050631	1.078082
C41	C	1.734475	-0.633177	0.578101
C42	C	2.234475	-0.133177	1.078101
C43	C	1.814785	-0.832624	0.498050
C44	C	2.314785	-0.332624	0.998050
C45	C	1.844109	-0.881945	0.607586
C46	C	2.344109	-0.381945	1.107586
C47	C	1.734543	-0.784307	0.578149
C48	C	2.234543	-0.284307	1.078149
C49	C	1.705341	-0.882068	0.468663
C50	C	2.205341	-0.382068	0.968663
C51	C	1.734611	-0.930292	0.578186
C52	C	2.234611	-0.430292	1.078186
C53	C	1.763923	-0.832541	0.687743
C54	C	2.263923	-0.332541	1.187743
C55	C	1.625104	-0.832659	0.548746
C56	C	2.125104	-0.332659	1.048746
C57	C	1.654386	-0.881958	0.658357
C58	C	2.154386	-0.381958	1.158357
C59	C	1.734507	-0.700209	0.578127
C60	C	2.234507	-0.200209	1.078127
C61	C	1.734647	-1.014389	0.578221
C62	C	2.234647	-0.514389	1.078221
C63	C	2.047539	-0.357689	0.578144
C64	C	2.547539	0.142311	1.078144
C65	C	2.180939	-0.357694	0.578150
C66	C	2.680939	0.142306	1.078150
C67	C	1.734589	-0.357596	0.891172
C68	C	2.234589	0.142404	1.391172
C69	C	1.734628	-0.357561	1.024572
C70	C	2.234628	0.142439	1.524572
C71	C	1.734622	-0.163973	0.578204
C72	C	2.234622	0.336027	1.078204
C73	C	1.734675	-0.081427	0.578236
C74	C	2.234675	0.418573	1.078236
C75	C	1.734474	-0.357707	0.266305
C76	C	2.234474	0.142293	0.766305
C77	C	1.734667	-0.357533	0.132905
C78	C	2.234667	0.142467	0.632905
H79	H	1.882666	-0.810962	0.430382
H80	H	2.382666	-0.310962	0.930382
H81	H	1.936688	-0.903596	0.632479
H82	H	2.436688	-0.403596	1.132479
N83	N	1.564549	-0.910471	0.748214
N84	N	2.064549	-0.410471	1.248214
H85	H	1.564565	-0.966422	0.747256
H86	H	2.064565	-0.466422	1.247256
H87	H	1.482145	-0.891693	0.726686
H88	H	1.982145	-0.391693	1.226686
H89	H	1.532551	-0.810992	0.523820
H90	H	2.032551	-0.310992	1.023820
H91	H	1.788558	-0.810879	0.780429
H92	H	2.288558	-0.310879	1.280429
H93	H	1.680614	-0.903822	0.376056
H94	H	2.180614	-0.403822	0.876056
