data_functionalizedCrystal
_audit_creation_method	'MofGen! by Chris Wilmer'
_symmetry_space_group_name_H-M	'P1'
_symmetry_Int_Tables_number	1
_symmetry_cell_setting	triclinic
loop_
_symmetry_equiv_pos_as_xyz
  x,y,z
_cell_length_a	27.731993
_cell_length_b	27.732064
_cell_length_c	12.503572
_cell_angle_alpha	93.498303
_cell_angle_beta	86.523389
_cell_angle_gamma	82.634907
loop_
_atom_site_label
_atom_site_type_symbol
_atom_site_fract_x
_atom_site_fract_y
_atom_site_fract_z
O1	O	0.643747	0.054583	-0.089022
O2	O	1.143747	0.554583	0.410978
O3	O	0.502952	0.063354	-0.089086
O4	O	1.002952	0.563354	0.410914
O5	O	0.577718	-0.011429	-0.089056
O6	O	1.077718	0.488571	0.410944
O7	O	0.568981	0.129365	-0.089052
O8	O	1.068981	0.629365	0.410948
O9	O	0.572095	-0.005796	0.089583
O10	O	1.072095	0.494204	0.589583
O11	O	0.497329	0.068987	0.089553
O12	O	0.997329	0.568987	0.589553
O13	O	0.638124	0.060216	0.089618
O14	O	1.138124	0.560216	0.589618
Cu15	Cu	0.567213	0.065116	0.105897
Cu16	Cu	1.067213	0.565116	0.605897
Cu17	Cu	0.573863	0.058454	-0.105365
Cu18	Cu	1.073863	0.558454	0.394635
O19	O	0.563358	0.134998	0.089588
O20	O	1.063358	0.634998	0.589588
C21	C	0.482133	0.065990	0.000225
C22	C	0.982133	0.565990	0.500225
C23	C	0.428478	0.065447	0.000200
C24	C	0.928478	0.565447	0.500200
C25	C	0.048381	0.058447	-0.097124
C26	C	0.548381	0.558447	0.402876
C27	C	0.250039	0.060513	-0.097153
C28	C	0.750039	0.560513	0.402847
O29	O	0.278719	0.058149	-0.179970
O30	O	0.778719	0.558149	0.320030
N31	N	0.272195	0.063842	0.000221
N32	N	0.772195	0.563842	0.500221
C33	C	0.243932	0.066652	0.097610
C34	C	0.743932	0.566652	0.597610
O35	O	0.267405	0.069526	0.180432
O36	O	0.767405	0.569526	0.680432
C37	C	0.042275	0.064583	0.097638
C38	C	0.542275	0.564583	0.597638
C39	C	0.020122	0.061258	0.000257
C40	C	0.520122	0.561258	0.500257
C41	C	0.026228	0.055122	-0.194497
C42	C	0.526228	0.555122	0.305503
C43	C	-0.024184	0.054608	-0.194489
C44	C	0.475816	0.554608	0.305511
C45	C	-0.052443	0.057419	-0.097108
C46	C	0.447557	0.557419	0.402892
C47	C	-0.030290	0.060744	0.000265
C48	C	0.469710	0.560744	0.500265
C49	C	0.014015	0.067389	0.195025
C50	C	0.514015	0.567389	0.695025
C51	C	-0.036402	0.066870	0.195023
C52	C	0.463598	0.566870	0.695023
C53	C	-0.058555	0.063545	0.097643
C54	C	0.441445	0.563545	0.597643
C55	C	-0.108960	0.063042	0.097654
C56	C	0.391040	0.563042	0.597654
N57	N	-0.131116	0.059712	0.000280
N58	N	0.368884	0.559712	0.500280
C59	C	-0.102857	0.056901	-0.097101
C60	C	0.397143	0.556901	0.402899
C61	C	0.349805	0.067740	0.097588
C62	C	0.849805	0.567740	0.597588
C63	C	0.400219	0.068258	0.097581
C64	C	0.900219	0.568258	0.597581
C65	C	0.406323	0.062118	-0.097182
C66	C	0.906323	0.562118	0.402818
C67	C	0.355907	0.061603	-0.097174
C68	C	0.855907	0.561603	0.402826
C69	C	0.327650	0.064410	0.000214
C70	C	0.827650	0.564410	0.500214
C71	C	-0.208726	0.055823	-0.097076
C72	C	0.291274	0.555823	0.402924
C73	C	-0.259143	0.055311	-0.097059
C74	C	0.240857	0.555311	0.402941
C75	C	-0.265242	0.061449	0.097703
C76	C	0.234758	0.561449	0.597703
C77	C	-0.214830	0.061963	0.097687
C78	C	0.285170	0.561963	0.597687
C79	C	-0.186572	0.059148	0.000289
C80	C	0.313428	0.559148	0.500289
O81	O	-0.137669	0.065398	0.180428
O82	O	0.362331	0.565398	0.680428
O83	O	-0.126337	0.054017	-0.179911
O84	O	0.373663	0.554017	0.320089
C85	C	0.098793	0.058961	-0.097132
C86	C	0.598793	0.558961	0.402868
C87	C	0.120946	0.062286	0.000240
C88	C	0.620946	0.562286	0.500240
C89	C	0.092688	0.065097	0.097621
C90	C	0.592688	0.565097	0.597621
C91	C	0.171360	0.062804	0.000234
C92	C	0.671360	0.562804	0.500234
C93	C	0.199619	0.059993	-0.097147
C94	C	0.699619	0.559993	0.402853
C95	C	0.177463	0.056664	-0.194522
C96	C	0.677463	0.556664	0.305478
C97	C	0.127052	0.056150	-0.194513
C98	C	0.627052	0.556150	0.305487
C99	C	0.114843	0.068426	0.194996
C100	C	0.614843	0.568426	0.694996
C101	C	0.165255	0.068940	0.194979
C102	C	0.665255	0.568940	0.694979
C103	C	0.193514	0.066129	0.097598
C104	C	0.693514	0.566129	0.597598
C105	C	0.574722	-0.026619	0.000260
C106	C	1.074722	0.473381	0.500260
C107	C	0.574167	-0.080274	0.000250
C108	C	1.074167	0.419726	0.500250
C109	C	0.526199	-0.457338	0.000224
C110	C	1.026199	0.042662	0.500224
C111	C	0.528245	-0.255678	0.000223
C112	C	1.028245	0.244322	0.500223
O113	O	0.491025	-0.224420	0.000163
O114	O	0.991025	0.275580	0.500163
N115	N	0.572580	-0.236559	0.000243
N116	N	1.072580	0.263441	0.500243
C117	C	0.616407	-0.267858	0.000256
C118	C	1.116407	0.232142	0.500256
O119	O	0.654163	-0.246969	0.000263
O120	O	1.154163	0.253031	0.500263
C121	C	0.614360	-0.469517	0.000249
C122	C	1.114360	0.030483	0.500249
C123	C	0.570022	-0.488633	0.000240
C124	C	1.070022	0.011367	0.500240
C125	C	0.481864	-0.476455	0.000213
C126	C	0.981864	0.023545	0.500213
C127	C	0.481353	-0.526867	0.000219
C128	C	0.981353	-0.026867	0.500219
C129	C	0.525176	-0.558162	0.000236
C130	C	1.025176	-0.058162	0.500236
C131	C	0.569511	-0.539045	0.000246
C132	C	1.069511	-0.039045	0.500246
C133	C	0.658186	-0.500816	0.000255
C134	C	1.158186	-0.000816	0.500255
C135	C	0.657671	-0.551233	0.000250
C136	C	1.157671	-0.051233	0.500250
C137	C	0.613333	-0.570349	0.000241
C138	C	1.113333	-0.070349	0.500241
C139	C	0.612823	-0.620752	0.000268
C140	C	1.112823	-0.120752	0.500268
N141	N	0.568488	-0.639871	0.000248
N142	N	1.068488	-0.139871	0.500248
C143	C	0.524665	-0.608576	0.000232
C144	C	1.024665	-0.108576	0.500232
C145	C	0.617478	-0.161984	0.000262
C146	C	1.117478	0.338016	0.500262
C147	C	0.617990	-0.111569	0.000266
C148	C	1.117990	0.388431	0.500266
C149	C	0.529828	-0.099393	0.000231
C150	C	1.029828	0.400607	0.500231
C151	C	0.529317	-0.149808	0.000235
C152	C	1.029317	0.350192	0.500235
C153	C	0.573143	-0.181103	0.000242
C154	C	1.073143	0.318897	0.500242
C155	C	0.523594	-0.714445	0.000245
C156	C	1.023594	-0.214445	0.500245
C157	C	0.523087	-0.764862	0.000256
C158	C	1.023087	-0.264862	0.500256
C159	C	0.611248	-0.777034	0.000285
C160	C	1.111248	-0.277034	0.500285
C161	C	0.611756	-0.726622	0.000281
C162	C	1.111756	-0.226622	0.500281
C163	C	0.567925	-0.695328	0.000257
C164	C	1.067925	-0.195328	0.500257
O165	O	0.650023	-0.652039	0.000316
O166	O	1.150023	-0.152039	0.500316
O167	O	0.486914	-0.629476	0.000202
O168	O	0.986914	-0.129476	0.500202
C169	C	0.526710	-0.406926	0.000218
C170	C	1.026710	0.093074	0.500218
C171	C	0.571045	-0.387810	0.000228
C172	C	1.071045	0.112190	0.500228
C173	C	0.614868	-0.419105	0.000245
C174	C	1.114868	0.080895	0.500245
C175	C	0.571556	-0.337395	0.000232
C176	C	1.071556	0.162605	0.500232
C177	C	0.527733	-0.306100	0.000216
C178	C	1.027733	0.193900	0.500216
C179	C	0.483398	-0.325219	0.000195
C180	C	0.983398	0.174781	0.500195
C181	C	0.482887	-0.375631	0.000201
C182	C	0.982887	0.124369	0.500201
C183	C	0.659203	-0.399985	0.000265
C184	C	1.159203	0.100015	0.500265
C185	C	0.659710	-0.349573	0.000260
C186	C	1.159710	0.150427	0.500260
C187	C	0.615887	-0.318278	0.000243
C188	C	1.115887	0.181722	0.500243
C189	C	0.658943	0.057579	0.000304
C190	C	1.158943	0.557579	0.500304
C191	C	0.712598	0.058122	0.000322
C192	C	1.212598	0.558122	0.500322
C193	C	0.566354	0.150189	0.000269
C194	C	1.066354	0.650189	0.500269
C195	C	0.566910	0.203843	0.000272
C196	C	1.066910	0.703843	0.500272
N197	N	0.562540	0.069801	0.254487
N198	N	1.062540	0.569801	0.754487
N199	N	0.578540	0.053764	-0.253956
N200	N	1.078540	0.553764	0.246044
C201	C	0.555664	0.076698	0.473600
C202	C	1.055664	0.576698	0.973600
C203	C	0.585414	0.046869	0.526939
C204	C	1.085414	0.546869	1.026939
C205	C	0.581588	0.050707	0.648860
C206	C	1.081588	0.550707	1.148860
C207	C	0.559489	0.072861	0.351667
C208	C	1.059489	0.572861	0.851667
H209	H	-0.185725	0.053531	-0.176387
H210	H	0.314275	0.553531	0.323613
H211	H	0.653169	-0.187460	0.000270
H212	H	1.153169	0.312540	0.500270
H213	H	0.527325	0.105115	0.519496
H214	H	1.027325	0.605115	1.019496
H215	H	0.613756	0.018451	0.481037
H216	H	1.113756	0.518451	0.981037
F217	F	0.434162	-0.547205	0.000200
F218	F	0.934162	-0.047205	0.500200
H219	H	-0.277178	0.052605	-0.176362
H220	H	0.222822	0.552605	0.323638
H221	H	0.647859	-0.711056	0.000304
H222	H	1.147859	-0.211056	0.500304
F223	F	0.103481	0.052611	-0.298160
F224	F	0.603481	0.552611	0.201840
H225	H	0.694291	-0.485261	0.000261
H226	H	1.194291	0.014739	0.500261
F227	F	-0.047755	0.051067	-0.298136
F228	F	0.452245	0.551067	0.201864
H229	H	0.693361	-0.576712	0.000250
H230	H	1.193361	-0.076712	0.500250
H231	H	0.049231	0.052831	-0.273801
H232	H	0.549231	0.552831	0.226199
H233	H	0.337874	0.058896	-0.176470
H234	H	0.837874	0.558896	0.323530
H235	H	0.429339	0.059831	-0.176473
H236	H	0.929339	0.559831	0.323527
H237	H	0.646928	-0.802523	0.000304
H238	H	1.146928	-0.302523	0.500304
F239	F	0.423789	0.071805	0.201227
F240	F	0.923789	0.571805	0.701227
H241	H	0.326803	0.070024	0.176897
H242	H	0.826803	0.570024	0.676897
F243	F	0.037581	0.070928	0.298673
F244	F	0.537581	0.570928	0.798673
H245	H	-0.059408	0.069160	0.274330
H246	H	0.440592	0.569160	0.774330
H247	H	-0.196793	0.064680	0.176982
H248	H	0.303207	0.564680	0.676982
H249	H	-0.288259	0.063739	0.176988
H250	H	0.211741	0.563739	0.676988
F251	F	0.483188	-0.066078	0.000215
F252	F	0.983188	0.433922	0.500215
F253	F	0.188826	0.072483	0.298633
F254	F	0.688826	0.572483	0.798633
F255	F	0.084774	0.071422	0.298648
F256	F	0.584774	0.571422	0.798648
F257	F	0.207547	0.053674	-0.298162
F258	F	0.707547	0.553674	0.201838
H259	H	0.446782	-0.391190	0.000195
H260	H	0.946782	0.108810	0.500195
H261	H	0.486980	-0.780423	0.000253
H262	H	0.986980	-0.280423	0.500253
H263	H	0.487903	-0.688971	0.000226
H264	H	0.987903	-0.188971	0.500226
F265	F	0.435218	-0.443155	0.000192
F266	F	0.935218	0.056845	0.500192
F267	F	0.705848	-0.433286	0.000284
F268	F	1.205848	0.066714	0.500284
F269	F	0.482127	-0.170148	0.000223
F270	F	0.982127	0.329852	0.500223
H271	H	0.654094	-0.096009	0.000290
H272	H	1.154094	0.403991	0.500290
F273	F	0.436758	-0.291904	0.000183
F274	F	0.936758	0.208096	0.500183
H275	H	0.695818	-0.334014	0.000276
H276	H	1.195818	0.165986	0.500276
