data_functionalizedCrystal
_audit_creation_method	'MofGen! by Chris Wilmer'
_symmetry_space_group_name_H-M	'P1'
_symmetry_Int_Tables_number	1
_symmetry_cell_setting	triclinic
loop_
_symmetry_equiv_pos_as_xyz
  x,y,z
_cell_length_a	6.817900
_cell_length_b	17.982865
_cell_length_c	17.982968
_cell_angle_alpha	95.931086
_cell_angle_beta	102.451960
_cell_angle_gamma	102.450232
loop_
_atom_site_label
_atom_site_type_symbol
_atom_site_fract_x
_atom_site_fract_y
_atom_site_fract_z
V1	V	-4.009934	-0.106128	-0.237878
V2	V	-3.509934	0.393872	0.262122
O3	O	-4.003034	0.004366	-0.233013
O4	O	-3.503034	0.504366	0.266987
O5	O	-3.956501	-0.209729	-0.236574
O6	O	-3.456501	0.290271	0.263426
O7	O	-3.956505	-0.104818	-0.341477
O8	O	-3.456505	0.395182	0.158523
O9	O	-4.003030	-0.101271	-0.127384
O10	O	-3.503030	0.398729	0.372616
V11	V	-4.494865	-0.092874	-0.224622
V12	V	-3.994865	0.407126	0.275378
O13	O	-4.268102	-0.135203	-0.266954
O14	O	-3.768102	0.364797	0.233046
O15	O	-4.686894	-0.063799	-0.195546
O16	O	-4.186894	0.436201	0.304454
O17	O	-4.325092	0.010726	-0.225926
O18	O	-3.825092	0.510726	0.274074
O19	O	-4.619162	-0.203368	-0.229487
O20	O	-4.119162	0.296632	0.270513
O21	O	-4.619166	-0.097731	-0.335116
O22	O	-4.119166	0.402269	0.164884
O23	O	-4.325088	-0.094184	-0.121023
O24	O	-3.825088	0.405816	0.378977
C25	C	-3.800440	-0.234974	-0.232905
C26	C	-3.300440	0.265026	0.267095
C27	C	-3.838005	-0.319670	-0.232530
C28	C	-3.338005	0.180330	0.267470
C29	C	-4.032248	-0.828451	-0.160348
C30	C	-3.532248	-0.328451	0.339652
C31	C	-3.996952	-0.748872	-0.160711
C32	C	-3.496952	-0.248872	0.339289
C33	C	-4.015589	-0.720179	-0.230699
C34	C	-3.515589	-0.220179	0.269301
C35	C	-4.069507	-0.771071	-0.300329
C36	C	-3.569507	-0.271071	0.199671
C37	C	-4.104788	-0.850649	-0.299965
C38	C	-3.604788	-0.350649	0.200035
C39	C	-3.927220	-0.450142	-0.301797
C40	C	-3.427220	0.049858	0.198203
C41	C	-3.891939	-0.370558	-0.302156
C42	C	-3.391939	0.129442	0.197844
C43	C	-3.819383	-0.348365	-0.162543
C44	C	-3.319383	0.151635	0.337457
C45	C	-3.854664	-0.427943	-0.162179
C46	C	-3.354664	0.072057	0.337821
C47	C	-3.908568	-0.478827	-0.231808
C48	C	-3.408568	0.021173	0.268192
C49	C	-3.946837	-0.565117	-0.231414
C50	C	-3.446837	-0.065117	0.268586
C51	C	-3.977336	-0.633892	-0.231094
C52	C	-3.477336	-0.133892	0.268906
C53	C	-3.800444	-0.101149	-0.366718
C54	C	-3.300444	0.398851	0.133282
C55	C	-3.838010	-0.100764	-0.451412
C56	C	-3.338010	0.399236	0.048588
C57	C	-4.037393	-0.104400	-0.495095
C58	C	-3.537393	0.395600	0.004905
C59	C	-4.072679	-0.104037	-0.574675
C60	C	-3.572679	0.395963	-0.074675
C61	C	-3.908581	-0.100043	-0.610571
C62	C	-3.408581	0.399957	-0.110571
C63	C	-3.709180	-0.096404	-0.566882
C64	C	-3.209180	0.403596	-0.066882
C65	C	-3.673894	-0.096761	-0.487303
C66	C	-3.173894	0.403239	0.012697
C67	C	-3.851477	-0.094961	-0.887814
C68	C	-3.351477	0.405039	-0.387814
C69	C	-3.886780	-0.094606	-0.967399
C70	C	-3.386780	0.405394	-0.467399
C71	C	-4.250261	-0.102237	-0.975186
C72	C	-3.750261	0.397763	-0.475186
C73	C	-4.214976	-0.102595	-0.895607
C74	C	-3.714976	0.397405	-0.395607
C75	C	-4.015577	-0.098951	-0.851925
C76	C	-3.515577	0.401049	-0.351925
C77	C	-3.977318	-0.099343	-0.765635
C78	C	-3.477318	0.400657	-0.265635
C79	C	-3.946840	-0.099657	-0.696860
C80	C	-3.446840	0.400343	-0.196860
C81	C	-4.144495	0.035968	-0.229593
C82	C	-3.644495	0.535968	0.270407
C83	C	-4.086167	0.120663	-0.229973
C84	C	-3.586167	0.620663	0.270027
C85	C	-4.144491	-0.097855	-0.095778
C86	C	-3.644491	0.402145	0.404222
C87	C	-4.086163	-0.098237	-0.011083
C88	C	-3.586163	0.401763	0.488917
H89	H	-3.953055	-0.707443	-0.104016
H90	H	-3.453055	-0.207443	0.395984
H91	H	-4.235031	-0.106994	-0.610238
H92	H	-3.735031	0.393006	-0.110238
Cl93	Cl	-3.600819	-0.090402	-0.832912
Cl94	Cl	-3.100819	0.409598	-0.332912
H95	H	-3.971115	-0.491563	-0.358494
H96	H	-3.471115	0.008437	0.141506
H97	H	-4.084667	-0.747703	-0.357314
H98	H	-3.584667	-0.247703	0.142686
Cl99	Cl	-4.243708	-0.109427	-0.449978
Cl100	Cl	-3.743708	0.390573	0.050022
Cl101	Cl	-4.421283	-0.107620	-0.850486
Cl102	Cl	-3.921283	0.392380	-0.350486
H103	H	-3.575568	-0.093147	-0.596114
H104	H	-3.075568	0.406853	-0.096114
Cl105	Cl	-3.423227	-0.092182	-0.432385
Cl106	Cl	-2.923227	0.407818	0.067615
Cl107	Cl	-4.172598	-0.914620	-0.387497
Cl108	Cl	-3.672598	-0.414620	0.112503
Cl109	Cl	-3.751623	-0.284391	-0.075008
Cl110	Cl	-3.251623	0.215609	0.424992
H111	H	-3.907127	-0.347200	-0.359152
H112	H	-3.407127	0.152800	0.140848
H113	H	-4.017076	-0.851806	-0.103356
H114	H	-3.517076	-0.351806	0.396644
Cl115	Cl	-3.831245	-0.464009	-0.074191
Cl116	Cl	-3.331245	0.035991	0.425809
Cl117	Cl	-4.500939	-0.106813	-1.030106
Cl118	Cl	-4.000939	0.393187	-0.530106
H119	H	-3.753139	-0.091352	-0.996623
H120	H	-3.253139	0.408648	-0.496623
