data_functionalizedCrystal
_audit_creation_method	'MofGen! by Chris Wilmer'
_symmetry_space_group_name_H-M	'P1'
_symmetry_Int_Tables_number	1
_symmetry_cell_setting	triclinic
loop_
_symmetry_equiv_pos_as_xyz
  x,y,z
_cell_length_a	9.730223
_cell_length_b	10.654550
_cell_length_c	10.654550
_cell_angle_alpha	84.484931
_cell_angle_beta	89.998791
_cell_angle_gamma	90.003019
loop_
_atom_site_label
_atom_site_type_symbol
_atom_site_fract_x
_atom_site_fract_y
_atom_site_fract_z
O1	O	0.114187	-1.667834	-0.176394
O2	O	0.114212	-1.302355	-0.193200
O3	O	0.114190	-1.493498	-0.002057
O4	O	0.114209	-1.476692	-0.367536
O5	O	-0.114390	-1.493496	-0.002062
O6	O	-0.114368	-1.302353	-0.193204
O7	O	-0.114393	-1.667832	-0.176398
Zn8	Zn	-0.150672	-1.485092	-0.184802
Zn9	Zn	0.150492	-1.485095	-0.184796
O10	O	-0.114371	-1.476689	-0.367541
C11	C	-0.000075	-1.255556	-0.191968
C12	C	-0.000065	-1.116113	-0.188276
C13	C	-0.000099	-1.492263	0.044738
C14	C	-0.000096	-1.488571	0.184181
N15	N	-0.356209	-1.485099	-0.184806
C16	C	-0.428144	-1.569759	-0.100197
C17	C	-0.572027	-1.569756	-0.100182
C18	C	-0.572026	-1.400429	-0.269395
C19	C	-0.428146	-1.400427	-0.269403
C20	C	-0.356207	-1.654431	-0.015599
C21	C	-0.428143	-1.739099	0.069015
C22	C	-0.572026	-1.739096	0.069031
C23	C	-0.643973	-1.654425	-0.015569
N24	N	0.356028	-1.485098	-0.184782
C25	C	-0.000103	-1.714631	-0.177630
C26	C	-0.000104	-1.854074	-0.181322
C27	C	-0.000064	-1.036628	-0.300818
C28	C	-0.000088	-0.905607	-0.297341
C29	C	-0.000109	-0.933570	-0.068772
C30	C	-0.000095	-1.064588	-0.072250
C31	C	-0.000079	-1.477925	-0.414336
C32	C	-0.000072	-1.481617	-0.553779
C33	C	-0.000104	-1.601112	0.263667
C34	C	-0.000087	-1.597636	0.394688
C35	C	-0.000061	-1.369066	0.366725
C36	C	-0.000068	-1.372544	0.235706
H37	H	-0.239051	-1.654444	-0.015607
H38	H	-0.369556	-1.808028	0.137901
H39	H	-0.630595	-1.808026	0.137935
H40	H	-0.000049	-1.078574	-0.395294
N41	N	-0.000123	-1.726251	0.208095
H42	H	-0.000134	-1.711382	0.113034
H43	H	-0.084866	-1.775540	0.237113
N44	N	-0.799161	-1.654430	-0.015560
H45	H	-0.833819	-1.587953	-0.081996
H46	H	-0.833707	-1.635465	0.069989
N47	N	-0.000089	-0.819847	-0.418707
H48	H	-0.084837	-0.764887	-0.422341
H49	H	-0.000020	-0.872434	-0.492682
H50	H	-0.630615	-1.331494	-0.338274
H51	H	-0.000100	-1.129309	0.019401
N52	N	-0.000120	-0.878005	0.056371
H53	H	-0.084857	-0.906930	0.105724
H54	H	-0.000071	-0.782953	0.041402
N55	N	-0.350546	-1.309114	-0.360653
H56	H	-0.417948	-1.255481	-0.414251
H57	H	-0.290851	-1.357671	-0.416627
H58	H	-0.000090	-1.689279	0.459401
N59	N	-0.000036	-1.243928	0.422299
H60	H	-0.000038	-1.258800	0.517360
H61	H	-0.084770	-1.194630	0.393294
H62	H	-0.000058	-1.280893	0.170985
