data_functionalizedCrystal
_audit_creation_method	'MofGen! by Chris Wilmer'
_symmetry_space_group_name_H-M	'P1'
_symmetry_Int_Tables_number	1
_symmetry_cell_setting	triclinic
loop_
_symmetry_equiv_pos_as_xyz
  x,y,z
_cell_length_a	14.628931
_cell_length_b	14.560438
_cell_length_c	14.560438
_cell_angle_alpha	59.996693
_cell_angle_beta	90.000974
_cell_angle_gamma	60.001335
loop_
_atom_site_label
_atom_site_type_symbol
_atom_site_fract_x
_atom_site_fract_y
_atom_site_fract_z
Zr1	Zr	0.880623	1.005313	-0.120589
O2	O	0.734660	1.196924	-0.267251
O3	O	0.925368	0.813704	-0.075621
O4	O	0.925365	1.005316	-0.267238
O5	O	0.734667	1.005310	0.075507
O6	O	1.075797	1.005315	-0.267238
O7	O	0.734664	1.005313	-0.075634
O8	O	1.075803	0.662557	0.075529
O9	O	0.734661	1.348068	-0.267260
O10	O	1.056718	0.892515	-0.056453
O11	O	0.944455	0.892513	0.056341
O12	O	0.944451	1.118111	-0.169263
O13	O	0.832188	1.118109	-0.056468
Zr14	Zr	1.120551	1.005308	0.120463
Zr15	Zr	1.120545	1.005313	-0.120589
Zr16	Zr	0.880629	1.005309	0.120463
Zr17	Zr	0.880625	1.246370	-0.120605
Zr18	Zr	1.120550	0.764252	0.120479
O19	O	1.075807	1.196918	0.075495
O20	O	1.075798	1.196923	-0.267250
O21	O	0.734669	1.196919	0.075495
O22	O	1.266515	0.813697	0.267124
O23	O	1.266506	0.813703	-0.075621
O24	O	0.925377	0.813698	0.267124
O25	O	1.266507	1.005311	-0.075633
O26	O	1.075810	1.005306	0.267112
O27	O	0.925378	1.005307	0.267111
O28	O	1.266511	1.005309	0.075508
O29	O	0.925367	1.348068	-0.267260
O30	O	1.075808	0.662554	0.267134
O31	O	1.266514	0.662554	0.267134
O32	O	1.266509	0.662557	0.075530
O33	O	0.734666	1.348065	-0.075656
O34	O	0.925372	1.348064	-0.075656
O35	O	1.056724	0.892511	0.169136
O36	O	1.168987	0.892512	0.056342
O37	O	1.056720	1.118109	-0.056468
O38	O	0.944457	1.118107	0.056327
C39	C	1.000585	0.703785	-0.000044
C40	C	1.000584	0.601450	-0.000037
C41	C	0.917706	0.636666	-0.083320
C42	C	0.917711	0.540526	-0.083349
C43	C	1.083477	0.373956	0.083198
C44	C	1.083476	0.470095	0.083221
C45	C	0.700482	1.005312	-0.000064
C46	C	0.598629	1.005312	-0.000064
C47	C	0.608911	0.893401	0.055897
C48	C	0.503642	0.893399	0.055898
C49	C	1.300693	1.005310	-0.000063
C50	C	1.402546	1.005310	-0.000063
C51	C	1.000580	1.005316	-0.301583
C52	C	1.000577	1.005318	-0.403916
C53	C	1.000590	1.306836	-0.000083
C54	C	1.000590	1.409171	-0.000089
C55	C	0.941976	1.123074	-0.510877
C56	C	0.941989	1.123068	-0.607026
C57	C	1.059206	0.887538	-0.489238
C58	C	1.059199	0.887546	-0.393092
C59	C	1.000595	1.005306	0.301456
C60	C	1.000598	1.005304	0.403789
C61	C	1.300691	0.703784	-0.000043
C62	C	1.402543	0.601449	-0.000037
C63	C	1.000593	0.703780	0.301476
C64	C	1.000595	0.601444	0.403815
C65	C	1.300698	0.703779	0.301476
C66	C	1.402553	0.601442	0.403816
C67	C	0.700476	1.306842	-0.301602
C68	C	0.598621	1.409179	-0.403942
C69	C	0.700484	1.306837	-0.000083
C70	C	0.598632	1.409173	-0.000090
C71	C	1.000582	1.306841	-0.301602
C72	C	1.000580	1.409178	-0.403942
C73	C	1.391793	0.553370	-0.058909
C74	C	1.487498	0.457223	-0.058906
C75	C	1.604700	0.457238	0.058849
C76	C	1.508996	0.553390	0.058840
C77	C	1.059198	0.553362	0.510772
C78	C	1.059186	0.457215	0.606927
C79	C	0.941968	0.457235	0.489154
C80	C	0.941973	0.553387	0.393002
C81	C	1.509005	0.553363	0.393021
C82	C	1.604705	0.457215	0.489183
C83	C	1.487487	0.457230	0.606933
C84	C	1.391790	0.553383	0.510772
H85	H	0.850224	0.569211	-0.151167
C86	C	1.111216	0.782979	-0.193404
C87	C	1.123603	0.758098	-0.275506
H88	H	1.150979	0.703067	-0.120815
H89	H	1.034123	0.831369	-0.201860
H90	H	1.140164	0.831360	-0.201846
H91	H	1.094647	0.709725	-0.267069
H92	H	1.200713	0.709688	-0.267045
H93	H	1.305119	0.592509	-0.106861
C94	C	0.738441	0.692711	0.234784
C95	C	0.726000	0.764056	0.120582
H96	H	0.810730	0.612860	0.274718
H97	H	0.683068	0.675738	0.243261
H98	H	0.729980	0.741143	0.263826
H99	H	0.734452	0.715627	0.091537
H100	H	0.781389	0.781025	0.112098
C101	C	1.111193	0.782936	-0.584316
C102	C	1.123629	0.758085	-0.477341
H103	H	1.150959	0.703012	-0.576965
H104	H	1.140100	0.831336	-0.624308
H105	H	1.034083	0.831295	-0.624217
H106	H	1.200738	0.709734	-0.437443
H107	H	1.094726	0.709664	-0.437333
H108	H	1.691380	0.418073	0.480386
H109	H	1.150971	0.441409	0.151042
H110	H	1.478736	0.418084	-0.106848
C111	C	1.803448	0.309840	0.111161
C112	C	1.721713	0.404396	0.123576
H113	H	1.875686	0.277213	0.151131
H114	H	1.795056	0.347351	0.033707
H115	H	1.795044	0.240817	0.140245
H116	H	1.730113	0.473423	0.094485
H117	H	1.730110	0.366886	0.201046
H118	H	0.512271	0.797588	0.103801
H119	H	0.850204	0.743618	-0.151108
C120	C	1.634454	0.543745	0.175252
C121	C	1.520810	0.606242	0.123561
H122	H	1.641742	0.576372	0.215208
H123	H	1.669343	0.559511	0.119540
H124	H	1.669346	0.452965	0.226080
H125	H	1.485920	0.697021	0.072726
H126	H	1.485907	0.590486	0.179280
C127	C	1.175037	0.543706	0.636846
C128	C	1.123612	0.606208	0.522656
H129	H	1.214794	0.576341	0.644183
H130	H	1.225620	0.452939	0.671903
H131	H	1.119568	0.559470	0.671889
H132	H	1.179083	0.590436	0.487615
H133	H	1.073025	0.696997	0.487585
C134	C	1.582138	0.309830	0.806628
C135	C	1.475662	0.404387	0.724501
H136	H	1.574832	0.277202	0.879207
H137	H	1.621893	0.347340	0.798195
H138	H	1.621892	0.240808	0.798188
H139	H	1.435911	0.473414	0.732935
H140	H	1.435890	0.366878	0.732937
C141	C	1.049025	0.427623	0.783367
C142	C	1.123605	0.404368	0.724495
H143	H	1.088796	0.395006	0.855946
H144	H	1.014130	0.385232	0.790696
H145	H	0.993581	0.518409	0.743389
H146	H	1.179045	0.313581	0.764469
H147	H	1.158519	0.446755	0.717170
H148	H	1.305106	0.592534	0.519570
H149	H	1.150964	0.266998	0.150985
C150	C	0.442375	1.141757	0.010236
C151	C	0.390873	1.134667	-0.064744
H152	H	0.435165	1.221622	-0.029696
H153	H	0.519438	1.071558	0.045330
H154	H	0.407434	1.136923	0.065915
H155	H	0.425819	1.139492	-0.120418
H156	H	0.313795	1.204886	-0.099856
C157	C	0.826125	1.355883	-0.636965
C158	C	0.877552	1.252527	-0.522773
H159	H	0.786360	1.435802	-0.644310
H160	H	0.775550	1.350983	-0.672017
H161	H	0.881595	1.350968	-0.672009
H162	H	0.822082	1.257437	-0.487731
H163	H	0.928132	1.257429	-0.487707
H164	H	0.894243	0.418094	0.480364
H165	H	0.894246	0.592538	0.305906
H166	H	0.894272	1.218958	-0.694116
C167	C	1.414358	0.700746	0.193325
C168	C	1.520832	0.606199	0.275454
H169	H	1.421665	0.733357	0.120747
H170	H	1.374602	0.769768	0.201751
H171	H	1.374603	0.663221	0.201770
H172	H	1.560584	0.643726	0.267014
H173	H	1.560605	0.537165	0.267025
H174	H	0.511891	1.101121	-0.047971
