data_functionalizedCrystal
_audit_creation_method	'MofGen! by Chris Wilmer'
_symmetry_space_group_name_H-M	'P1'
_symmetry_Int_Tables_number	1
_symmetry_cell_setting	triclinic
loop_
_symmetry_equiv_pos_as_xyz
  x,y,z
_cell_length_a	8.597339
_cell_length_b	9.616153
_cell_length_c	8.559649
_cell_angle_alpha	89.999072
_cell_angle_beta	77.626154
_cell_angle_gamma	97.693361
loop_
_atom_site_label
_atom_site_type_symbol
_atom_site_fract_x
_atom_site_fract_y
_atom_site_fract_z
O1	O	-2.053684	-0.130381	-0.238086
O2	O	-1.594565	-0.075379	-0.256336
O3	O	-1.864573	-0.107727	-0.015242
O4	O	-1.783676	-0.098033	-0.479180
O5	O	-1.864540	-0.339014	-0.015247
O6	O	-1.594531	-0.306666	-0.256341
O7	O	-2.053651	-0.361668	-0.238091
Zn8	Zn	-1.824086	-0.370889	-0.247217
Zn9	Zn	-1.824130	-0.066158	-0.247211
O10	O	-1.783642	-0.329320	-0.479185
C11	C	-1.536315	-0.184046	-0.254376
C12	C	-1.362800	-0.163259	-0.248509
N13	N	-1.824067	-0.578861	-0.247220
C14	C	-1.679297	-0.781887	-0.375751
C15	C	-1.679516	-0.620746	-0.376238
C16	C	-1.983135	-0.656367	-0.286126
C17	C	-1.982319	-0.817487	-0.287038
C18	C	-1.811457	-0.797263	-0.079369
C19	C	-1.807552	-0.635569	-0.080432
C20	C	-1.111902	-0.253005	-0.240044
C21	C	-1.285422	-0.273803	-0.245890
C22	C	-1.870687	-0.224103	0.044189
C23	C	-1.888936	-0.226281	0.221284
N24	N	-1.824162	0.141813	-0.247195
C25	C	-1.777528	-0.212942	-0.538617
C26	C	-1.759280	-0.210754	-0.715711
H27	H	-1.296307	-0.052707	-0.246249
H28	H	-2.092418	-0.869665	-0.197232
F29	F	-1.372341	-0.418315	-0.248827
F30	F	-2.052287	-0.245867	0.327870
H31	H	-1.690642	-0.583363	-0.050965
F32	F	-1.524094	-0.550474	-0.345527
F33	F	-1.523342	-0.813906	-0.345396
H34	H	-1.685532	-0.582886	-0.500728
F35	F	-1.686917	-0.835710	-0.537552
F36	F	-2.000955	-0.868853	-0.447117
F37	F	-2.126304	-0.623397	-0.167138
H38	H	-1.998244	-0.617786	-0.407221
F39	F	-1.938521	-0.598606	0.050727
H40	H	-1.634315	-0.195788	0.202747
F41	F	-1.664544	-0.832870	-0.031321
H42	H	-1.917334	-0.848064	0.016328
