data_functionalizedCrystal
_audit_creation_method	'MofGen! by Chris Wilmer'
_symmetry_space_group_name_H-M	'P1'
_symmetry_Int_Tables_number	1
_symmetry_cell_setting	triclinic
loop_
_symmetry_equiv_pos_as_xyz
  x,y,z
_cell_length_a	13.033748
_cell_length_b	13.032721
_cell_length_c	13.032268
_cell_angle_alpha	103.289627
_cell_angle_beta	103.297929
_cell_angle_gamma	103.361838
loop_
_atom_site_label
_atom_site_type_symbol
_atom_site_fract_x
_atom_site_fract_y
_atom_site_fract_z
Zn1	Zn	1.506748	-0.279639	-0.435246
Zn2	Zn	1.506630	-0.434741	-0.280212
Zn3	Zn	1.351689	-0.279717	-0.280199
Zn4	Zn	1.298873	-0.487472	-0.487944
O5	O	1.415985	-0.370393	-0.370900
O6	O	1.658572	-0.278113	-0.392632
O7	O	1.508131	-0.392141	-0.128385
O8	O	1.394412	-0.127850	-0.278707
O9	O	1.658485	-0.392066	-0.278729
O10	O	1.508333	-0.127793	-0.392620
O11	O	1.394297	-0.278246	-0.128376
O12	O	1.192844	-0.329377	-0.329805
O13	O	1.304394	-0.481939	-0.632778
O14	O	1.154040	-0.482014	-0.482435
O15	O	1.457119	-0.329245	-0.594062
O16	O	1.456917	-0.593593	-0.329827
O17	O	1.304279	-0.632334	-0.482447
C18	C	1.134071	-0.411427	-0.411838
C19	C	1.013460	-0.429011	-0.429381
C20	C	0.978858	-0.361246	-0.361775
C21	C	0.854200	-0.379419	-0.379905
C22	C	1.374880	-0.652338	-0.411876
C23	C	1.357389	-0.772946	-0.429428
C24	C	1.425164	-0.807512	-0.361780
C25	C	1.407088	-0.932167	-0.379919
C26	C	1.699000	-0.329199	-0.329803
C27	C	1.819603	-0.311645	-0.312290
C28	C	1.374878	-0.411465	-0.653887
C29	C	1.357361	-0.428968	-0.774479
C30	C	1.457277	-0.087346	-0.329784
C31	C	1.474873	0.033272	-0.312262
C32	C	1.425116	-0.361221	-0.809087
C33	C	1.407013	-0.379309	-0.933725
C34	C	1.457006	-0.329392	-0.088994
C35	C	1.474778	-0.311553	0.031673
H36	H	0.791539	-0.450897	-0.451209
H37	H	1.285985	-0.835637	-0.500776
C38	C	0.903265	-0.216483	-0.217150
C39	C	0.969498	-0.258291	-0.147041
C40	C	1.046586	-0.170664	-0.059396
H41	H	0.865531	-0.176268	-0.176963
H42	H	0.948380	-0.168903	-0.245445
H43	H	0.924388	-0.305853	-0.118747
H44	H	1.007256	-0.298497	-0.187195
H45	H	1.091701	-0.123083	-0.087691
H46	H	1.008843	-0.130454	-0.019219
H47	H	1.091541	-0.199017	-0.011823
H48	H	0.950796	-0.500484	-0.500679
C49	C	1.520227	-0.723878	-0.266530
C50	C	1.478306	-0.657765	-0.196454
C51	C	1.565846	-0.580721	-0.108689
H52	H	1.567863	-0.678661	-0.294673
H53	H	1.560402	-0.761686	-0.226372
H54	H	1.438150	-0.619960	-0.236606
H55	H	1.430681	-0.702952	-0.168283
H56	H	1.606020	-0.618529	-0.068531
H57	H	1.613476	-0.535512	-0.136842
H58	H	1.537414	-0.535861	-0.061126
C59	C	1.311897	-1.015918	-0.474963
C60	C	1.312871	-1.122906	-0.474038
C61	C	1.225192	-1.200086	-0.561564
H62	H	1.319704	-1.005786	-0.542966
H63	H	1.243945	-1.005840	-0.466946
H64	H	1.380806	-1.132980	-0.482063
H65	H	1.305049	-1.133073	-0.406054
H66	H	1.157240	-1.190008	-0.553548
H67	H	1.233007	-1.189944	-0.629561
H68	H	1.225835	-1.272685	-0.560942
C69	C	1.520368	-0.265928	-0.725740
C70	C	1.579353	-0.206916	-0.781823
C71	C	1.667099	-0.119114	-0.705083
H72	H	1.568078	-0.294052	-0.680673
H73	H	1.492162	-0.218258	-0.680718
H74	H	1.607560	-0.254578	-0.826826
H75	H	1.531675	-0.178766	-0.826885
H76	H	1.638893	-0.071444	-0.660061
H77	H	1.714801	-0.147248	-0.660020
H78	H	1.707125	-0.079058	-0.743124
C79	C	1.569943	-0.883102	-0.217005
C80	C	1.528026	-0.816989	-0.146924
C81	C	1.615568	-0.739953	-0.059155
H82	H	1.617582	-0.837884	-0.245144
H83	H	1.610113	-0.920916	-0.176851
H84	H	1.487875	-0.779178	-0.187071
H85	H	1.480397	-0.862177	-0.118756
H86	H	1.655738	-0.777767	-0.019002
H87	H	1.663202	-0.694743	-0.087305
H88	H	1.587139	-0.695093	-0.011589
H89	H	1.335592	-0.450700	-0.996366
H90	H	1.546189	-0.240151	-0.905687
H91	H	1.285944	-0.500353	-0.837123
H92	H	1.041522	-0.289780	-0.290471
