data_functionalizedCrystal
_audit_creation_method	'MofGen! by Chris Wilmer'
_symmetry_space_group_name_H-M	'P1'
_symmetry_Int_Tables_number	1
_symmetry_cell_setting	triclinic
loop_
_symmetry_equiv_pos_as_xyz
  x,y,z
_cell_length_a	11.792241
_cell_length_b	11.792254
_cell_length_c	10.868271
_cell_angle_alpha	89.995741
_cell_angle_beta	90.000150
_cell_angle_gamma	95.803993
loop_
_atom_site_label
_atom_site_type_symbol
_atom_site_fract_x
_atom_site_fract_y
_atom_site_fract_z
O1	O	-0.155637	1.506900	-0.102307
O2	O	-0.171655	1.176561	-0.102308
O3	O	0.001524	1.349747	-0.102315
O4	O	-0.328816	1.333714	-0.102300
O5	O	0.001531	1.349732	0.102330
O6	O	-0.171648	1.176546	0.102337
O7	O	-0.155630	1.506885	0.102338
Zn8	Zn	-0.163638	1.341714	0.134829
Zn9	Zn	-0.163647	1.341732	-0.134799
O10	O	-0.328809	1.333699	0.102345
C11	C	-0.170642	1.134263	0.000014
C12	C	-0.167622	1.008250	0.000013
C13	C	-0.165168	0.905913	0.000008
C14	C	-0.162100	0.777527	0.000007
C15	C	-0.371104	1.334714	0.000024
C16	C	-0.497118	1.337728	0.000030
C17	C	-0.727830	1.343271	-0.000001
C18	C	-0.599445	1.340191	0.000016
C19	C	0.043819	1.348732	0.000003
C20	C	0.169832	1.345718	-0.000010
C21	C	-0.156643	1.549183	0.000013
C22	C	-0.159663	1.675196	0.000006
N23	N	-0.163631	1.341709	0.318843
N24	N	-0.163645	1.341746	-0.318813
C25	C	-0.163645	1.341727	0.569849
C26	C	-0.163640	1.341713	0.430172
