data_functionalizedCrystal
_audit_creation_method	'MofGen! by Chris Wilmer'
_symmetry_space_group_name_H-M	'P1'
_symmetry_Int_Tables_number	1
_symmetry_cell_setting	triclinic
loop_
_symmetry_equiv_pos_as_xyz
  x,y,z
_cell_length_a	11.792241
_cell_length_b	10.654550
_cell_length_c	10.268362
_cell_angle_alpha	90.004651
_cell_angle_beta	90.008848
_cell_angle_gamma	95.660841
loop_
_atom_site_label
_atom_site_type_symbol
_atom_site_fract_x
_atom_site_fract_y
_atom_site_fract_z
O1	O	-1.507291	0.172136	0.108175
O2	O	-1.176991	0.189877	0.108205
O3	O	-1.349735	-0.001754	0.108180
O4	O	-1.334547	0.363767	0.108200
O5	O	-1.349751	-0.001762	-0.108421
O6	O	-1.177006	0.189869	-0.108396
O7	O	-1.507306	0.172128	-0.108426
Cu8	Cu	-1.342158	0.180998	-0.128188
Cu9	Cu	-1.342140	0.181007	0.127967
O10	O	-1.334562	0.363759	-0.108401
C11	C	-1.348628	-0.048553	-0.000120
C12	C	-1.345291	-0.187987	-0.000119
C13	C	-1.134705	0.188758	-0.000091
C14	C	-1.008684	0.185423	-0.000080
C15	C	-1.549592	0.173247	-0.000127
C16	C	-1.675614	0.176582	-0.000129
C17	C	-0.777958	0.179290	-0.000118
C18	C	-0.906351	0.182697	-0.000097
C19	C	-1.335670	0.410558	-0.000098
C20	C	-1.339006	0.549992	-0.000091
N21	N	-1.342179	0.180990	-0.308354
C22	C	-1.237297	0.629765	-0.000094
C23	C	-1.240439	0.760777	-0.000103
C24	C	-1.447008	0.732229	-0.000112
C25	C	-1.443865	0.601220	-0.000093
C26	C	-1.118036	0.646248	-0.000094
C27	C	-1.121178	0.777260	-0.000104
N28	N	-1.342128	0.181005	0.308133
C29	C	-1.342135	0.181005	0.425975
C30	C	-1.342156	0.181000	0.573813
H31	H	-1.532381	0.773956	-0.000092
O32	O	-1.072539	0.603929	-0.111578
C33	C	-0.960047	0.660504	-0.126207
H34	H	-0.924674	0.692415	-0.026982
H35	H	-0.904735	0.589292	-0.169852
H36	H	-0.959768	0.745549	-0.193617
O37	O	-1.542771	0.523907	-0.000137
C38	C	-1.635991	0.597221	-0.000112
H39	H	-1.607959	0.694783	-0.041135
H40	H	-1.707330	0.549371	-0.062987
H41	H	-1.668063	0.606790	0.103802
O42	O	-1.062558	0.611430	0.108186
C43	C	-1.120343	0.647718	0.220157
H44	H	-1.213003	0.658269	0.194601
H45	H	-1.116861	0.572657	0.298779
H46	H	-1.077894	0.741570	0.257636
O47	O	-1.078385	0.831890	0.111545
C48	C	-1.163284	0.894641	0.173632
H49	H	-1.250938	0.851806	0.140456
H50	H	-1.155627	0.883858	0.283650
H51	H	-1.151937	0.998999	0.146999
O52	O	-1.067425	0.827305	-0.108106
C53	C	-0.974877	0.913631	-0.070501
H54	H	-0.946916	0.890357	0.032254
H55	H	-0.900924	0.906922	-0.140830
H56	H	-1.001950	1.013419	-0.072520
