data_functionalizedCrystal
_audit_creation_method	'MofGen! by Chris Wilmer'
_symmetry_space_group_name_H-M	'P1'
_symmetry_Int_Tables_number	1
_symmetry_cell_setting	triclinic
loop_
_symmetry_equiv_pos_as_xyz
  x,y,z
_cell_length_a	16.109302
_cell_length_b	16.109295
_cell_length_c	15.186229
_cell_angle_alpha	90.000628
_cell_angle_beta	89.994701
_cell_angle_gamma	96.539516
loop_
_atom_site_label
_atom_site_type_symbol
_atom_site_fract_x
_atom_site_fract_y
_atom_site_fract_z
O1	O	1.103128	-0.106869	-0.073262
O2	O	1.603128	0.393131	0.426738
O3	O	0.861066	-0.120168	-0.073254
O4	O	1.361066	0.379832	0.426746
O5	O	0.988749	0.007513	-0.073259
O6	O	1.488749	0.507513	0.426741
O7	O	0.975445	-0.234550	-0.073257
O8	O	1.475445	0.265450	0.426743
O9	O	0.988741	0.007514	0.073198
O10	O	1.488741	0.507514	0.573198
O11	O	0.861057	-0.120166	0.073203
O12	O	1.361057	0.379834	0.573203
O13	O	1.103120	-0.106867	0.073195
O14	O	1.603120	0.393133	0.573195
Zn15	Zn	0.982087	-0.113517	0.096452
Zn16	Zn	1.482087	0.386483	0.596452
Zn17	Zn	0.982098	-0.113519	-0.096511
Zn18	Zn	1.482098	0.386481	0.403489
O19	O	0.975436	-0.234548	0.073201
O20	O	1.475436	0.265452	0.573201
C21	C	0.830087	-0.119628	-0.000025
C22	C	1.330087	0.380372	0.499975
C23	C	0.737792	-0.118013	-0.000022
C24	C	1.237792	0.381987	0.499978
C25	C	0.525446	-0.114277	0.079803
C26	C	1.025446	0.385723	0.579803
C27	C	0.438726	-0.112750	0.079800
C28	C	0.938726	0.387250	0.579800
C29	C	0.438746	-0.112756	-0.079876
C30	C	0.938746	0.387244	0.420124
C31	C	0.525465	-0.114277	-0.079872
C32	C	1.025465	0.385723	0.420128
C33	C	0.568812	-0.115041	-0.000030
C34	C	1.068812	0.384959	0.499970
C35	C	0.395373	-0.111994	-0.000037
C36	C	0.895373	0.388006	0.499963
C37	C	0.301347	-0.110339	-0.000041
C38	C	0.801347	0.389661	0.499959
C39	C	0.662844	-0.116695	-0.000026
C40	C	1.162844	0.383305	0.499974
C41	C	1.134099	-0.107407	-0.000036
C42	C	1.634099	0.392593	0.499964
C43	C	1.226394	-0.109023	-0.000045
C44	C	1.726394	0.390977	0.499955
C45	C	0.988207	0.038489	-0.000033
C46	C	1.488207	0.538489	0.499967
C47	C	0.986593	0.130784	-0.000039
C48	C	1.486593	0.630784	0.499961
N49	N	0.982086	-0.113514	0.228145
N50	N	1.482086	0.386486	0.728145
C51	C	1.058606	0.353057	-0.000074
C52	C	1.558606	0.853057	0.499926
C53	C	1.057083	0.439778	-0.000089
C54	C	1.557083	0.939778	0.499911
C55	C	0.905594	0.419904	-0.000079
C56	C	1.405594	0.919904	0.499921
C57	C	0.907117	0.333185	-0.000071
C58	C	1.407117	0.833185	0.499929
C59	C	0.983626	0.299764	-0.000064
C60	C	1.483626	0.799764	0.499936
C61	C	0.980580	0.473203	-0.000087
C62	C	1.480580	0.973203	0.499913
C63	C	0.978929	0.567230	-0.000102
C64	C	1.478929	1.067230	0.499898
C65	C	0.985277	0.205732	-0.000050
C66	C	1.485277	0.705732	0.499950
C67	C	0.975984	0.734477	-0.000049
C68	C	1.475984	1.234477	0.499951
C69	C	0.977612	0.642183	-0.000111
C70	C	1.477612	1.142183	0.499889
N71	N	0.982107	-0.113514	-0.228204
N72	N	1.482107	0.386486	0.271796
C73	C	1.038643	-0.056996	0.453866
C74	C	1.538643	0.443004	0.953866
C75	C	1.038646	-0.056994	0.546055
C76	C	1.538646	0.443006	1.046055
C77	C	0.925543	-0.170035	0.546069
C78	C	1.425543	0.329965	1.046069
C79	C	0.925537	-0.170032	0.453881
C80	C	1.425537	0.329968	0.953881
C81	C	0.982092	-0.113514	0.407782
C82	C	1.482092	0.386486	0.907782
C83	C	0.982100	-0.113515	0.592159
C84	C	1.482100	0.386485	1.092159
C85	C	0.982103	-0.113513	0.692115
C86	C	1.482103	0.386487	1.192115
C87	C	0.982089	-0.113514	0.307819
C88	C	1.482089	0.386486	0.807819
H89	H	0.403442	-0.112135	-0.144880
H90	H	0.903442	0.387865	0.355120
H91	H	0.560737	-0.114899	0.144816
H92	H	1.060737	0.385101	0.644816
N93	N	1.099636	0.003961	0.404142
N94	N	1.599636	0.503961	0.904142
H95	H	1.135460	0.039765	0.447329
H96	H	1.635460	0.539765	0.947329
H97	H	1.067818	0.040726	0.365899
H98	H	1.567818	0.540726	0.865899
N99	N	1.141122	0.317011	-0.000067
N100	N	1.641122	0.817011	0.499933
H101	H	1.173973	0.336439	-0.054364
H102	H	1.673973	0.836439	0.445636
H103	H	1.130642	0.253994	-0.000024
H104	H	1.630642	0.753994	0.499976
N105	N	0.572248	-0.115092	-0.165981
N106	N	1.072248	0.384908	0.334019
H107	H	0.531629	-0.114381	-0.216561
H108	H	1.031629	0.385619	0.283439
H109	H	0.601476	-0.167230	-0.169457
H110	H	1.101476	0.332770	0.330543
N111	N	1.137954	0.497259	-0.000100
N112	N	1.637954	0.997259	0.499900
H113	H	1.186649	0.462925	-0.000094
H114	H	1.686649	0.962925	0.499906
H115	H	1.140618	0.533678	0.054189
H116	H	1.640618	1.033678	0.554189
N117	N	0.823078	0.455951	-0.000083
N118	N	1.323078	0.955951	0.499917
H119	H	0.833489	0.518974	-0.000087
H120	H	1.333489	1.018974	0.499913
H121	H	0.790268	0.436456	0.054214
H122	H	1.290268	0.936456	0.554214
H123	H	0.846056	0.289791	-0.000066
H124	H	1.346056	0.789791	0.499934
H125	H	1.084693	-0.010972	0.583574
H126	H	1.584693	0.489028	1.083574
N127	N	0.864548	-0.230992	0.595790
N128	N	1.364548	0.269008	1.095790
H129	H	0.873133	-0.222420	0.661184
H130	H	1.373133	0.277580	1.161184
H131	H	0.874131	-0.289976	0.579671
H132	H	1.374131	0.210024	1.079671
H133	H	0.879482	-0.216056	0.416357
H134	H	1.379482	0.283944	0.916357
H135	H	0.403421	-0.112128	0.144808
H136	H	0.903421	0.387872	0.644808
