data_functionalizedCrystal
_audit_creation_method	'MofGen! by Chris Wilmer'
_symmetry_space_group_name_H-M	'P1'
_symmetry_Int_Tables_number	1
_symmetry_cell_setting	triclinic
loop_
_symmetry_equiv_pos_as_xyz
  x,y,z
_cell_length_a	10.489716
_cell_length_b	10.489711
_cell_length_c	14.586319
_cell_angle_alpha	89.999909
_cell_angle_beta	89.996864
_cell_angle_gamma	84.528072
loop_
_atom_site_label
_atom_site_type_symbol
_atom_site_fract_x
_atom_site_fract_y
_atom_site_fract_z
O1	O	1.694051	0.179820	-0.076225
O2	O	1.322850	0.196745	-0.076227
O3	O	1.516917	0.002681	-0.076228
O4	O	1.499984	0.373883	-0.076224
O5	O	1.516903	0.002678	0.076252
O6	O	1.322836	0.196742	0.076253
O7	O	1.694037	0.179817	0.076256
Cu8	Cu	1.508435	0.188279	0.090177
Cu9	Cu	1.508452	0.188283	-0.090149
O10	O	1.499970	0.373880	0.076257
C11	C	1.275311	0.195472	0.000013
C12	C	1.133680	0.191667	0.000011
C13	C	1.515639	-0.044852	0.000009
C14	C	1.511837	-0.186483	0.000002
C15	C	1.035994	0.310673	0.000011
C16	C	0.958648	0.247787	0.075195
C17	C	0.958668	0.247761	-0.075139
C18	C	1.058200	0.128830	0.075258
C19	C	1.058225	0.128823	-0.075144
C20	C	0.980928	0.065849	0.000059
C21	C	1.628543	-0.368880	0.000012
C22	C	1.570240	-0.276732	0.075191
C23	C	1.570222	-0.276753	-0.075143
C24	C	1.446696	-0.346672	0.075261
C25	C	1.446695	-0.346703	-0.075141
C26	C	1.388302	-0.254583	0.000058
C27	C	1.741576	0.181090	0.000014
C28	C	1.883207	0.184895	0.000009
C29	C	1.501248	0.421414	0.000017
C30	C	1.505050	0.563045	0.000019
N31	N	1.508433	0.188276	0.217009
N32	N	1.508464	0.188276	-0.216981
C33	C	1.594395	0.102374	0.452015
C34	C	1.594399	0.102371	0.547996
C35	C	1.422493	0.274182	0.548007
C36	C	1.422484	0.274178	0.452027
C37	C	1.508442	0.188275	0.404034
C38	C	1.508455	0.188276	0.595995
C39	C	1.508458	0.188274	0.700062
C40	C	1.508438	0.188276	0.299960
H41	H	1.060652	0.414191	0.000082
H42	H	0.915184	0.298024	-0.138692
H43	H	0.915154	0.298023	0.138758
O44	O	1.632771	-0.239842	0.150948
C45	C	1.759389	-0.298608	0.150696
H46	H	1.788736	-0.326063	0.077535
H47	H	1.765224	-0.388262	0.195257
C48	C	1.814127	-0.170881	0.278909
C49	C	1.850176	-0.204593	0.189051
H50	H	1.870130	-0.112892	0.302573
H51	H	1.728821	-0.131293	0.279082
H52	H	1.818990	-0.245602	0.316033
H53	H	1.845297	-0.129875	0.151927
H54	H	1.935484	-0.244167	0.188873
H55	H	1.352484	0.344130	0.412958
O56	O	1.749696	-0.428019	-0.000024
C57	C	1.815258	-0.390868	-0.078553
H58	H	1.768540	-0.295051	-0.104488
H59	H	1.810691	-0.466450	-0.134315
C60	C	2.013534	-0.495305	-0.022119
C61	C	1.956160	-0.377616	-0.053969
H62	H	2.100450	-0.487136	-0.006957
H63	H	1.969363	-0.520339	0.030786
H64	H	2.009716	-0.558278	-0.068594
H65	H	1.959964	-0.314649	-0.007491
H66	H	2.000334	-0.352571	-0.106866
O67	O	1.110028	0.068823	0.151073
C68	C	1.197554	-0.034831	0.124241
H69	H	1.232628	-0.017849	0.051687
H70	H	1.148265	-0.127075	0.126050
C71	C	1.269287	-0.067247	0.279611
C72	C	1.312374	-0.046384	0.190500
H73	H	1.340110	-0.074379	0.320484
H74	H	1.210315	0.002583	0.297689
H75	H	1.228212	-0.144115	0.281105
H76	H	1.353432	0.030491	0.189005
H77	H	1.371355	-0.116202	0.172423
O78	O	1.338877	0.357673	0.594487
C79	C	1.263028	0.433510	0.531553
H80	H	1.261111	0.381193	0.463136
H81	H	1.305298	0.528674	0.521339
C82	C	1.128020	0.522725	0.653052
C83	C	1.125657	0.458464	0.569024
H84	H	1.043284	0.538123	0.676167
H85	H	1.179123	0.471636	0.695453
H86	H	1.163251	0.602021	0.644529
H87	H	1.090442	0.379163	0.577550
H88	H	1.074544	0.509540	0.526625
H89	H	1.286710	-0.205109	0.000098
H90	H	1.394490	-0.377717	-0.138704
H91	H	1.101732	0.078625	-0.138710
O92	O	1.384201	-0.383322	0.151109
C93	C	1.257966	-0.323576	0.151291
H94	H	1.228438	-0.295611	0.078257
H95	H	1.253088	-0.234125	0.196027
C96	C	1.202819	-0.451268	0.279417
C97	C	1.166548	-0.416931	0.189714
H98	H	1.146428	-0.508850	0.303122
H99	H	1.287867	-0.491517	0.279298
H100	H	1.198754	-0.376716	0.316686
H101	H	1.170630	-0.491479	0.152444
H102	H	1.081499	-0.376697	0.189828
O103	O	1.632767	-0.239782	-0.150875
C104	C	1.739691	-0.176978	-0.123888
H105	H	1.769638	-0.208307	-0.051575
H106	H	1.713524	-0.068980	-0.125006
C107	C	1.814600	-0.173462	-0.279394
C108	C	1.851389	-0.211950	-0.190582
H109	H	1.883500	-0.195029	-0.320535
H110	H	1.742562	-0.215770	-0.297577
H111	H	1.792794	-0.083466	-0.280313
H112	H	1.873179	-0.301947	-0.189661
H113	H	1.923434	-0.169658	-0.172400
H114	H	0.956509	-0.037744	0.000101
H115	H	1.664386	0.032425	0.412941
H116	H	1.664388	0.032420	0.587060
