data_functionalizedCrystal
_audit_creation_method	'MofGen! by Chris Wilmer'
_symmetry_space_group_name_H-M	'P1'
_symmetry_Int_Tables_number	1
_symmetry_cell_setting	triclinic
loop_
_symmetry_equiv_pos_as_xyz
  x,y,z
_cell_length_a	16.120530
_cell_length_b	18.101395
_cell_length_c	18.101389
_cell_angle_alpha	89.983159
_cell_angle_beta	87.084523
_cell_angle_gamma	87.126665
loop_
_atom_site_label
_atom_site_type_symbol
_atom_site_fract_x
_atom_site_fract_y
_atom_site_fract_z
Zn1	Zn	1.274487	-0.352401	-0.476079
Zn2	Zn	1.274370	-0.476222	-0.352236
Zn3	Zn	1.135073	-0.346115	-0.345980
Zn4	Zn	1.135017	-0.469914	-0.469767
O5	O	1.204737	-0.411163	-0.411016
O6	O	1.391137	-0.374097	-0.464911
O7	O	1.255866	-0.458972	-0.247772
O8	O	1.153639	-0.243319	-0.363262
O9	O	1.391050	-0.465068	-0.373924
O10	O	1.256066	-0.247938	-0.458845
O11	O	1.153525	-0.363383	-0.243176
O12	O	1.018401	-0.357266	-0.357141
O13	O	1.153544	-0.454317	-0.574238
O14	O	1.018360	-0.448221	-0.448086
O15	O	1.256012	-0.367981	-0.578876
O16	O	1.255812	-0.579015	-0.367803
O17	O	1.153431	-0.574380	-0.454152
C18	C	0.988130	-0.401377	-0.401250
C19	C	0.895465	-0.397209	-0.397090
C20	C	0.725805	-0.389581	-0.389501
C21	C	0.684509	-0.432799	-0.432585
C22	C	0.590105	-0.428555	-0.428362
C23	C	0.820218	-0.393824	-0.393722
C24	C	1.204625	-0.603568	-0.410989
C25	C	1.204654	-0.685884	-0.411005
C26	C	1.204837	-0.984983	-0.411054
C27	C	1.140570	-0.950780	-0.465531
C28	C	1.140265	-0.865148	-0.465338
C29	C	1.204746	-0.836596	-0.411030
C30	C	1.180960	-0.866660	-0.331911
C31	C	1.180546	-0.952287	-0.332235
C32	C	1.293030	-0.957309	-0.435015
C33	C	1.292512	-0.871635	-0.436703
C34	C	1.204696	-0.752735	-0.411013
C35	C	1.204885	-1.068845	-0.411066
C36	C	1.422189	-0.420987	-0.420820
C37	C	1.514854	-0.425174	-0.424998
C38	C	1.204785	-0.411146	-0.604180
C39	C	1.204806	-0.411139	-0.686495
C40	C	1.204872	-0.218007	-0.411060
C41	C	1.204929	-0.135696	-0.411078
C42	C	1.204854	-0.411003	-0.985588
C43	C	1.140162	-0.465131	-0.951335
C44	C	1.140337	-0.465403	-0.865724
C45	C	1.204829	-0.411070	-0.837204
C46	C	1.292667	-0.436217	-0.872255
C47	C	1.292306	-0.436575	-0.957884
C48	C	1.182473	-0.331635	-0.953005
C49	C	1.180518	-0.332000	-0.867266
C50	C	1.204821	-0.411108	-0.753344
C51	C	1.204869	-0.410968	-1.069448
C52	C	1.204737	-0.411128	-0.218605
C53	C	1.204878	-0.410934	-0.136298
H54	H	0.720056	-0.472987	-0.472642
H55	H	0.690261	-0.349397	-0.349447
F56	F	1.317105	-0.512563	-0.985122
F57	F	1.159714	-0.838504	-0.541857
H58	H	1.340911	-0.979711	-0.395385
H59	H	1.155304	-0.972003	-0.524254
F60	F	1.357362	-0.386534	-0.848568
H61	H	1.075597	-0.969433	-0.449531
H62	H	1.074894	-0.841773	-0.449153
H63	H	1.314716	-0.979845	-0.491934
H64	H	1.116077	-0.969419	-0.312398
H65	H	1.342140	-0.399077	-0.980861
F66	F	1.239066	-0.981998	-0.277090
F67	F	1.240216	-0.842700	-0.277181
F68	F	1.096024	-0.307309	-0.836905
F69	F	1.244060	-0.278860	-0.982270
H70	H	1.117174	-0.842395	-0.311801
F71	F	1.315959	-0.846091	-0.512837
F72	F	1.358411	-0.846606	-0.389038
H73	H	1.075202	-0.449209	-0.841766
H74	H	1.311968	-0.493759	-0.851681
H75	H	1.119535	-0.309496	-0.971764
H76	H	1.074831	-0.449063	-0.968987
F77	F	1.159244	-0.541437	-0.980372
F78	F	1.159690	-0.542185	-0.839820
F79	F	1.237618	-0.276072	-0.841887
