data_functionalizedCrystal
_audit_creation_method	'MofGen! by Chris Wilmer'
_symmetry_space_group_name_H-M	'P1'
_symmetry_Int_Tables_number	1
_symmetry_cell_setting	triclinic
loop_
_symmetry_equiv_pos_as_xyz
  x,y,z
_cell_length_a	19.188905
_cell_length_b	16.109301
_cell_length_c	15.186229
_cell_angle_alpha	90.000894
_cell_angle_beta	89.989522
_cell_angle_gamma	83.298019
loop_
_atom_site_label
_atom_site_type_symbol
_atom_site_fract_x
_atom_site_fract_y
_atom_site_fract_z
O1	O	0.926397	0.103697	-0.073365
O2	O	1.426397	0.603697	0.426635
O3	O	0.723116	0.117692	-0.073334
O4	O	1.223116	0.617692	0.426666
O5	O	0.830341	-0.010356	-0.073355
O6	O	1.330341	0.489644	0.426645
O7	O	0.819172	0.231745	-0.073344
O8	O	1.319172	0.731745	0.426656
O9	O	0.830334	-0.010357	0.073103
O10	O	1.330334	0.489643	0.573103
O11	O	0.723109	0.117690	0.073124
O12	O	1.223109	0.617690	0.573124
O13	O	0.926390	0.103695	0.073092
O14	O	1.426390	0.603695	0.573092
Zn15	Zn	0.824748	0.110692	0.096361
Zn16	Zn	1.324748	0.610692	0.596361
Zn17	Zn	0.824758	0.110695	-0.096602
Zn18	Zn	1.324758	0.610695	0.403398
O19	O	0.819165	0.231743	0.073114
O20	O	1.319165	0.731743	0.573114
C21	C	0.697100	0.117241	-0.000101
C22	C	1.197100	0.617241	0.499899
C23	C	0.619592	0.115891	-0.000090
C24	C	1.119592	0.615891	0.499910
C25	C	0.583202	0.115244	-0.079926
C26	C	1.083202	0.615244	0.420074
C27	C	0.510376	0.113966	-0.079937
C28	C	1.010376	0.613966	0.420063
C29	C	0.473943	0.113319	-0.000107
C30	C	0.973943	0.613319	0.499893
C31	C	0.510341	0.113971	0.079740
C32	C	1.010341	0.613971	0.579740
C33	C	0.583165	0.115258	0.079748
C34	C	1.083165	0.615258	0.579748
N35	N	0.364805	0.063986	0.059300
N36	N	0.864805	0.563986	0.559300
N37	N	0.295625	0.062763	0.059287
N38	N	0.795625	0.562763	0.559287
C39	C	0.254527	0.109446	-0.000128
C40	C	0.754527	0.609446	0.499872
N41	N	0.285224	0.157389	-0.059543
N42	N	0.785224	0.657389	0.440457
N43	N	0.354411	0.158609	-0.059532
N44	N	0.854411	0.658609	0.440468
C45	C	0.394977	0.111925	-0.000108
C46	C	0.894977	0.611925	0.499892
C47	C	0.139171	0.107414	-0.079982
C48	C	0.639171	0.607414	0.420018
C49	C	0.066342	0.106142	-0.079990
C50	C	0.566342	0.606142	0.420010
C51	C	0.066310	0.106139	0.079689
C52	C	0.566310	0.606139	0.579689
C53	C	0.139136	0.107420	0.079694
C54	C	0.639136	0.607420	0.579694
C55	C	0.175563	0.108053	-0.000144
C56	C	0.675563	0.608053	0.499856
C57	C	0.829885	-0.041330	-0.000129
C58	C	1.329885	0.458670	0.499871
C59	C	0.828529	-0.133620	-0.000138
C60	C	1.328529	0.366380	0.499862
C61	C	0.952406	0.104146	-0.000142
C62	C	1.452406	0.604146	0.499858
C63	C	1.029915	0.105496	-0.000159
C64	C	1.529915	0.605496	0.499841
C65	C	0.819621	0.262717	-0.000114
C66	C	1.319621	0.762717	0.499886
C67	C	0.820978	0.355008	-0.000111
C68	C	1.320978	0.855008	0.499889
N69	N	0.824747	0.110690	0.228054
N70	N	1.324747	0.610690	0.728054
C71	C	0.760506	0.577487	-0.000114
C72	C	1.260506	1.077487	0.499886
C73	C	0.761786	0.664203	-0.000121
C74	C	1.261786	1.164203	0.499879
C75	C	0.889005	0.643893	-0.000137
C76	C	1.389005	1.143893	0.499863
C77	C	0.887724	0.557179	-0.000136
C78	C	1.387724	1.057179	0.499864
C79	C	0.823473	0.523978	-0.000121
C80	C	1.323473	1.023978	0.499879
C81	C	0.826033	0.697409	-0.000128
C82	C	1.326033	1.197409	0.499872
C83	C	0.827422	0.791430	-0.000136
C84	C	1.327422	1.291430	0.499864
C85	C	0.822084	0.429951	-0.000115
C86	C	1.322084	0.929951	0.499885
N87	N	0.824765	0.110690	-0.228295
N88	N	1.324765	0.610690	0.271705
C89	C	0.872242	0.054010	0.453768
C90	C	1.372242	0.554010	0.953768
C91	C	0.872245	0.054008	0.545957
C92	C	1.372245	0.554008	1.045957
C93	C	0.777264	0.167373	0.545985
C94	C	1.277264	0.667373	1.045985
C95	C	0.777259	0.167371	0.453797
C96	C	1.277259	0.667371	0.953797
C97	C	0.824752	0.110690	0.407691
C98	C	1.324752	0.610690	0.907691
C99	C	0.824759	0.110691	0.592068
C100	C	1.324759	0.610691	1.092068
C101	C	0.824762	0.110689	0.692024
C102	C	1.324762	0.610689	1.192024
C103	C	0.824750	0.110690	0.307728
C104	C	1.324750	0.610690	0.807728
H105	H	0.612793	0.115786	0.144763
H106	H	1.112793	0.615786	0.644763
H107	H	0.941316	0.670936	-0.000141
H108	H	1.441316	1.170936	0.499859
O109	O	0.918282	-0.001131	0.590755
O110	O	1.418282	0.498869	1.090755
C111	C	0.880909	-0.052298	0.644107
C112	C	1.380909	0.447702	1.144107
H113	H	0.825848	-0.053534	0.616342
H114	H	1.325848	0.446466	1.116342
H115	H	0.877246	-0.026268	0.713976
H116	H	1.377246	0.473732	1.213976
C117	C	0.987038	-0.140165	0.679610
C118	C	1.487038	0.359835	1.179610
C119	C	0.919413	-0.141689	0.645504
C120	C	1.419413	0.358311	1.145504
H121	H	1.010790	-0.195305	0.680476
H122	H	1.510790	0.304695	1.180476
H123	H	1.012218	-0.105692	0.643669
H124	H	1.512218	0.394308	1.143669
H125	H	0.983976	-0.118469	0.737831
H126	H	1.483976	0.381531	1.237831
H127	H	0.922476	-0.163375	0.587280
H128	H	1.422476	0.336625	1.087280
H129	H	0.894235	-0.176169	0.681436
H130	H	1.394235	0.323831	1.181436
H131	H	0.738598	0.213523	0.583534
H132	H	1.238598	0.713523	1.083534
H133	H	0.939002	0.513610	-0.000145
H134	H	1.439002	1.013610	0.499855
O135	O	0.475043	0.113230	0.157343
O136	O	0.975043	0.613230	0.657343
C137	C	0.500754	0.041545	0.205901
C138	C	1.000754	0.541545	0.705901
H139	H	0.556280	0.018481	0.183206
H140	H	1.056280	0.518481	0.683206
H141	H	0.465328	-0.009590	0.194827
H142	H	0.965328	0.490410	0.694827
C143	C	0.433487	0.091800	0.332437
C144	C	0.933487	0.591800	0.832437
C145	C	0.501688	0.063476	0.304567
C146	C	1.001688	0.563476	0.804567
H147	H	0.434061	0.105326	0.393299
H148	H	0.934061	0.605326	0.893299
H149	H	0.416163	0.140094	0.299722
H150	H	0.916163	0.640094	0.799722
H151	H	0.403974	0.049182	0.323201
H152	H	0.903974	0.549182	0.823201
H153	H	0.531198	0.106098	0.313793
H154	H	1.031198	0.606098	0.813793
H155	H	0.519017	0.015190	0.337286
H156	H	1.019017	0.515190	0.837286
H157	H	0.910913	0.007856	0.416230
H158	H	1.410913	0.507856	0.916230
H159	H	0.738584	0.213527	0.416279
H160	H	1.238584	0.713527	0.916279
O161	O	0.031032	0.105550	0.157316
O162	O	0.531032	0.605550	0.657316
C163	C	0.078774	0.106370	0.227786
C164	C	0.578774	0.606370	0.727786
H165	H	0.127791	0.133600	0.204388
H166	H	0.627791	0.633600	0.704388
H167	H	0.093863	0.039821	0.252332
H168	H	0.593863	0.539821	0.752332
C169	C	-0.015874	0.126935	0.331951
C170	C	0.484126	0.626935	0.831951
C171	C	0.044327	0.160387	0.303215
C172	C	0.544327	0.660387	0.803215
H173	H	-0.037123	0.160252	0.378482
H174	H	0.462877	0.660252	0.878482
H175	H	-0.048040	0.126380	0.284475
H176	H	0.451960	0.626380	0.784475
H177	H	-0.003292	0.071478	0.352400
H178	H	0.496708	0.571478	0.852400
H179	H	0.031743	0.215838	0.282757
H180	H	0.531743	0.715838	0.782757
H181	H	0.076490	0.160953	0.350690
H182	H	0.576490	0.660953	0.850690
O183	O	0.618473	0.115899	-0.157557
O184	O	1.118473	0.615899	0.342443
C185	C	0.570735	0.115032	-0.228025
C186	C	1.070735	0.615032	0.271975
H187	H	0.515917	0.140431	-0.204625
H188	H	1.015917	0.640431	0.295375
H189	H	0.570346	0.048208	-0.252572
H190	H	1.070346	0.548208	0.247428
C191	C	0.660490	0.138844	-0.332193
C192	C	1.160490	0.638844	0.167807
C193	C	0.593163	0.170047	-0.303454
C194	C	1.093163	0.670047	0.196546
H195	H	0.674326	0.172777	-0.378723
H196	H	1.174326	0.672777	0.121277
H197	H	0.692653	0.139426	-0.284718
H198	H	1.192653	0.639426	0.215282
H199	H	0.660157	0.083158	-0.352643
H200	H	1.160157	0.583158	0.147357
H201	H	0.593499	0.225728	-0.282994
H202	H	1.093499	0.725728	0.217006
H203	H	0.561000	0.169476	-0.350928
H204	H	1.061000	0.669476	0.149072
H205	H	0.480741	0.113440	-0.144951
H206	H	0.980741	0.613440	0.355049
H207	H	0.710512	0.707767	-0.000118
H208	H	1.210512	1.207767	0.499882
O209	O	0.174514	0.108192	-0.157553
O210	O	0.674514	0.608192	0.342447
C211	C	0.148784	0.179862	-0.206123
C212	C	0.648784	0.679862	0.293877
H213	H	0.123207	0.229820	-0.159406
H214	H	0.623207	0.729820	0.340594
H215	H	0.108319	0.162846	-0.255914
H216	H	0.608319	0.662846	0.244086
C217	C	0.241305	0.152292	-0.312406
C218	C	0.741305	0.652292	0.187594
C219	C	0.209896	0.213654	-0.255025
C220	C	0.709896	0.713654	0.244975
H221	H	0.279000	0.173136	-0.342575
H222	H	0.779000	0.673136	0.157425
H223	H	0.258638	0.104005	-0.279686
H224	H	0.758638	0.604005	0.220314
H225	H	0.207577	0.138118	-0.353891
H226	H	0.707577	0.638118	0.146109
H227	H	0.243621	0.227820	-0.213535
H228	H	0.743621	0.727820	0.286465
H229	H	0.192570	0.261945	-0.287740
H230	H	0.692570	0.761945	0.212260
O231	O	0.030945	0.105661	-0.157525
O232	O	0.530945	0.605661	0.342475
C233	C	-0.019123	0.176899	-0.162303
C234	C	0.480877	0.676899	0.337697
H235	H	-0.002731	0.227605	-0.116997
H236	H	0.497269	0.727605	0.383003
H237	H	-0.072527	0.159654	-0.140862
H238	H	0.427473	0.659654	0.359138
C239	C	-0.043946	0.147236	-0.313333
C240	C	0.456054	0.647236	0.186667
C241	C	-0.023811	0.209517	-0.257693
C242	C	0.476189	0.709517	0.242307
H243	H	-0.046842	0.167356	-0.372173
H244	H	0.453158	0.667356	0.127827
H245	H	-0.010217	0.099240	-0.310113
H246	H	0.489783	0.599240	0.189887
H247	H	-0.088448	0.132871	-0.295454
H248	H	0.411552	0.632871	0.204546
H249	H	0.020694	0.223874	-0.275565
H250	H	0.520694	0.723874	0.224435
H251	H	-0.057533	0.257517	-0.260917
H252	H	0.442467	0.757517	0.239083
H253	H	0.168765	0.107941	0.144706
H254	H	0.668765	0.607941	0.644706
H255	H	0.708189	0.550458	-0.000099
H256	H	1.208189	1.050458	0.499901
