data_functionalizedCrystal
_audit_creation_method	'MofGen! by Chris Wilmer'
_symmetry_space_group_name_H-M	'P1'
_symmetry_Int_Tables_number	1
_symmetry_cell_setting	triclinic
loop_
_symmetry_equiv_pos_as_xyz
  x,y,z
_cell_length_a	14.853567
_cell_length_b	12.837943
_cell_length_c	11.892095
_cell_angle_alpha	94.310562
_cell_angle_beta	93.898435
_cell_angle_gamma	90.768065
loop_
_atom_site_label
_atom_site_type_symbol
_atom_site_fract_x
_atom_site_fract_y
_atom_site_fract_z
O1	O	0.229205	-1.382409	-0.093964
O2	O	0.217625	-1.080587	-0.093972
O3	O	0.092869	-1.239561	-0.093971
O4	O	0.353961	-1.223436	-0.093965
O5	O	0.103253	-1.226306	0.094036
O6	O	0.228009	-1.067332	0.094035
O7	O	0.239589	-1.369154	0.094043
Zn8	Zn	0.235448	-1.216139	0.123889
Zn9	Zn	0.221766	-1.233603	-0.123818
O10	O	0.364345	-1.210181	0.094042
C11	C	0.218906	-1.035334	0.000031
C12	C	0.207240	-0.920240	0.000027
N13	N	0.244785	-1.204228	0.292943
C14	C	0.064410	-1.232203	0.000029
C15	C	-0.035860	-1.230014	0.000019
C16	C	-0.457187	-1.126324	0.000038
C17	C	-0.462449	-1.315188	0.000043
C18	C	-0.368241	-1.317247	0.000036
C19	C	-0.318502	-1.223843	0.000032
C20	C	-0.362970	-1.128380	0.000035
C21	C	-0.323765	-1.412707	0.000045
C22	C	-0.229551	-1.414770	0.000040
C23	C	-0.179810	-1.321366	0.000028
C24	C	-0.224285	-1.225899	0.000029
C25	C	-0.174546	-1.132495	0.000025
C26	C	-0.219019	-1.037028	0.000018
C27	C	-0.313230	-1.034976	0.000023
C28	C	-0.085599	-1.323418	0.000023
C29	C	-0.080329	-1.134551	0.000022
C30	C	0.392804	-1.217539	0.000040
C31	C	0.493073	-1.219728	0.000042
C32	C	0.238308	-1.414408	0.000038
C33	C	0.249974	-1.529502	0.000034
C34	C	0.347487	-0.679482	0.000047
C35	C	0.336530	-0.571341	0.000045
C36	C	0.174369	-0.595813	0.000029
C37	C	0.185327	-0.703955	0.000031
C38	C	0.271888	-0.745785	0.000038
C39	C	0.282844	-0.853929	0.000032
C40	C	0.120685	-0.878399	0.000024
C41	C	0.109727	-0.770257	0.000022
N42	N	0.212422	-1.245522	-0.292873
C43	C	0.147396	-1.328405	0.529592
C44	C	0.153930	-1.320087	0.647934
C45	C	0.264382	-1.179269	0.647971
C46	C	0.257848	-1.187587	0.529629
C47	C	0.199354	-1.262159	0.470444
C48	C	0.192826	-1.270481	0.352100
C49	C	0.303272	-1.129659	0.352140
C50	C	0.309806	-1.121341	0.470481
H51	H	-0.039837	-1.058490	0.000014
Br52	Br	0.389182	-1.020136	0.550811
H53	H	0.312000	-1.118548	0.696175
H54	H	0.345582	-1.075720	0.303968
H55	H	0.417969	-0.713541	0.000051
Br56	Br	-0.529951	-1.441942	0.000072
Br57	Br	0.056903	-0.539023	0.000039
H58	H	0.099775	-1.389131	0.481402
Br59	Br	-0.151504	-0.910270	0.000027
H60	H	-0.364268	-1.488751	0.000059
H61	H	-0.349449	-0.957252	0.000019
Br62	Br	0.113447	-1.371688	0.271778
H63	H	0.111620	-1.374030	0.696089
H64	H	-0.193349	-1.492505	0.000043
Br65	Br	-0.007743	-0.713477	0.000019
H66	H	-0.493402	-1.048598	0.000028
H67	H	0.353327	-0.887985	0.000040
Br68	Br	-0.025244	-1.452967	0.000059
Br69	Br	0.018078	-0.968389	-0.000011
H70	H	0.398091	-0.517360	0.000055
