data_functionalizedCrystal
_audit_creation_method	'MofGen! by Chris Wilmer'
_symmetry_space_group_name_H-M	'P1'
_symmetry_Int_Tables_number	1
_symmetry_cell_setting	triclinic
loop_
_symmetry_equiv_pos_as_xyz
  x,y,z
_cell_length_a	16.109301
_cell_length_b	10.654551
_cell_length_c	14.586319
_cell_angle_alpha	89.997973
_cell_angle_beta	89.999213
_cell_angle_gamma	83.973455
loop_
_atom_site_label
_atom_site_type_symbol
_atom_site_fract_x
_atom_site_fract_y
_atom_site_fract_z
O1	O	1.104091	0.161419	-0.076179
O2	O	0.862149	0.181507	-0.076193
O3	O	0.988682	-0.011352	-0.076183
O4	O	0.977558	0.354278	-0.076188
O5	O	0.988673	-0.011354	0.076297
O6	O	0.862140	0.181504	0.076288
O7	O	1.104082	0.161416	0.076302
Cu8	Cu	0.983110	0.171460	0.090218
Cu9	Cu	0.983121	0.171463	-0.090109
O10	O	0.977549	0.354275	0.076293
C11	C	0.831164	0.180692	0.000046
C12	C	0.738855	0.178252	0.000040
C13	C	0.517229	0.287018	0.000049
C14	C	0.430495	0.284716	0.000055
C15	C	0.449008	0.055896	0.000054
C16	C	0.535741	0.058199	0.000055
C17	C	0.569849	0.173764	0.000048
C18	C	0.396382	0.169159	0.000053
C19	C	0.302341	0.166662	0.000060
C20	C	0.663895	0.176262	0.000043
C21	C	0.987860	-0.058140	0.000055
C22	C	0.985416	-0.197550	0.000051
C23	C	0.984274	-0.263037	-0.083067
C24	C	0.981970	-0.394026	-0.083068
C25	C	0.981955	-0.394031	0.083175
C26	C	0.984252	-0.263043	0.083175
C27	C	0.930214	-0.563394	-0.182932
C28	C	0.929086	-0.628888	-0.266054
C29	C	0.978470	-0.596016	-0.339437
C30	C	1.029002	-0.497656	-0.329701
C31	C	1.030138	-0.432170	-0.246577
C32	C	0.980734	-0.465037	-0.173197
C33	C	1.036015	-0.093674	0.183032
C34	C	1.037157	-0.028187	0.266157
C35	C	0.987778	-0.061057	0.339548
C36	C	0.937258	-0.159423	0.329821
C37	C	0.936116	-0.224910	0.246696
C38	C	0.985494	-0.192031	0.173305
C39	C	1.135066	0.162231	0.000061
C40	C	1.227376	0.164671	0.000061
C41	C	0.978370	0.401063	0.000052
C42	C	0.980815	0.540473	0.000050
N43	N	0.983109	0.171457	0.217049
N44	N	0.983128	0.171456	-0.216940
C45	C	1.039157	0.086087	0.452060
C46	C	1.039159	0.086084	0.548041
C47	C	0.927075	0.256830	0.548042
C48	C	0.927069	0.256826	0.452063
C49	C	0.983115	0.171456	0.404074
C50	C	0.983123	0.171457	0.596035
C51	C	0.983125	0.171454	0.700102
C52	C	0.983112	0.171457	0.300000
H53	H	0.421227	-0.038193	0.000066
O54	O	0.866624	0.348910	0.400296
H55	H	0.827662	0.408287	0.449788
H56	H	0.544997	0.381119	0.000051
O57	O	1.099579	-0.006016	0.400293
H58	H	1.140297	0.046840	0.356554
H59	H	0.887937	-0.708971	-0.273976
O60	O	0.876956	-0.598858	-0.103775
H61	H	0.841647	-0.678271	-0.124506
H62	H	1.084792	0.016568	0.587109
O63	O	0.866642	0.348924	0.599804
H64	H	0.801736	0.332898	0.581400
H65	H	0.578586	-0.034032	0.000056
O66	O	0.980724	-0.464672	0.172828
H67	H	0.978949	-0.566762	0.158866
H68	H	0.894975	-0.305003	0.238779
H69	H	0.897031	-0.186163	0.389573
H70	H	0.988718	-0.007734	0.407235
H71	H	0.387655	0.376940	0.000058
O72	O	1.091657	0.077899	0.276652
H73	H	1.084164	0.117898	0.346787
H74	H	0.977550	-0.649350	-0.407117
H75	H	1.071281	-0.352089	-0.238649
O76	O	0.985511	-0.192394	-0.172719
H77	H	1.041632	-0.228756	-0.212582
O78	O	1.082273	-0.462202	-0.408850
H79	H	1.072988	-0.524254	-0.468289
O80	O	1.089279	-0.058227	0.103870
H81	H	1.124612	0.021158	0.124606
