data_functionalizedCrystal
_audit_creation_method	'MofGen! by Chris Wilmer'
_symmetry_space_group_name_H-M	'P1'
_symmetry_Int_Tables_number	1
_symmetry_cell_setting	triclinic
loop_
_symmetry_equiv_pos_as_xyz
  x,y,z
_cell_length_a	21.395362
_cell_length_b	12.594516
_cell_length_c	21.395356
_cell_angle_alpha	89.981492
_cell_angle_beta	89.964230
_cell_angle_gamma	90.031933
loop_
_atom_site_label
_atom_site_type_symbol
_atom_site_fract_x
_atom_site_fract_y
_atom_site_fract_z
Zn1	Zn	0.957873	-0.423340	-0.354617
Zn2	Zn	0.957817	-0.601326	-0.249852
Zn3	Zn	0.853103	-0.423411	-0.249818
Zn4	Zn	0.853084	-0.601326	-0.354557
O5	O	0.905469	-0.512351	-0.302211
O6	O	1.045543	-0.446920	-0.340759
O7	O	0.943911	-0.577755	-0.162170
O8	O	0.867032	-0.274456	-0.263730
O9	O	1.045502	-0.577686	-0.263789
O10	O	0.944006	-0.274403	-0.340725
O11	O	0.866978	-0.447042	-0.162144
O12	O	0.765422	-0.447042	-0.263672
O13	O	0.867000	-0.577686	-0.442243
O14	O	0.765408	-0.577755	-0.340624
O15	O	0.943988	-0.446920	-0.442287
O16	O	0.943893	-0.750272	-0.263731
O17	O	0.866945	-0.750272	-0.340657
C18	C	0.742681	-0.512407	-0.302138
C19	C	0.673040	-0.512457	-0.302122
C20	C	0.640336	-0.580609	-0.342130
C21	C	0.574901	-0.580583	-0.342158
C22	C	0.542172	-0.512416	-0.302167
C23	C	0.574884	-0.444250	-0.262155
C24	C	0.640318	-0.444270	-0.262133
C25	C	0.438454	-0.503853	-0.245761
C26	C	0.373021	-0.503840	-0.245782
C27	C	0.340351	-0.512346	-0.302236
C28	C	0.373122	-0.520888	-0.358670
C29	C	0.438556	-0.520908	-0.358648
C30	C	0.471219	-0.512385	-0.302187
C31	C	0.236695	-0.580474	-0.342278
C32	C	0.171258	-0.580441	-0.342307
C33	C	0.171242	-0.444113	-0.262298
C34	C	0.236677	-0.444141	-0.262275
C35	C	0.269400	-0.512327	-0.302264
C36	C	0.905428	-0.788892	-0.302205
C37	C	0.905468	-0.907197	-0.302223
C38	C	0.863612	-0.976489	-0.344034
C39	C	0.848351	-1.047348	-0.286856
C40	C	0.920786	-1.047137	-0.359410
C41	C	0.890176	-0.976498	-0.245015
C42	C	0.962638	-0.976280	-0.317608
C43	C	0.947398	-1.047108	-0.260391
C44	C	1.068892	-0.512295	-0.302284
C45	C	1.138534	-0.512271	-0.302315
C46	C	0.905498	-0.512295	-0.465634
C47	C	0.905510	-0.512271	-0.535275
C48	C	0.905527	-0.234730	-0.302231
C49	C	0.905552	-0.116424	-0.302239
C50	C	0.945639	-0.580110	-1.037085
C51	C	0.945628	-0.580144	-0.971650
C52	C	0.905570	-0.512102	-0.938914
C53	C	0.865508	-0.444041	-0.971619
C54	C	0.865516	-0.444017	-1.037053
C55	C	0.900630	-0.416247	-0.835250
C56	C	0.900626	-0.416270	-0.769817
C57	C	0.905541	-0.512178	-0.737093
C58	C	0.910474	-0.608066	-0.769810
C59	C	0.910481	-0.608042	-0.835244
C60	C	0.905556	-0.512121	-0.867962
C61	C	0.945585	-0.580277	-0.633444
C62	C	0.945570	-0.580312	-0.568007
C63	C	0.865453	-0.444200	-0.567977
C64	C	0.865465	-0.444173	-0.633412
C65	C	0.905535	-0.512210	-0.666142
C66	C	0.905476	-0.512330	-0.139423
C67	C	0.905586	-0.512054	-0.069782
H68	H	0.263305	-0.388649	-0.229692
H69	H	0.828153	-0.945479	-0.379340
N70	N	0.339559	-0.495130	-0.188133
N71	N	0.368733	-0.487525	-0.137732
H72	H	0.345102	-0.481376	-0.097015
H73	H	0.346524	-0.527813	-0.404640
N74	N	0.270115	-0.650128	-0.383127
N75	N	0.240903	-0.710970	-0.418851
H76	H	0.264504	-0.760165	-0.447701
H77	H	0.896614	-0.338191	-0.743184
N78	N	0.873877	-0.937735	-0.184342
N79	N	0.826646	-0.880521	-0.177516
H80	H	0.815129	-0.853144	-0.134667
H81	H	0.978254	-0.635551	-0.945023
H82	H	0.800042	-1.078587	-0.273857
H83	H	0.978211	-0.635679	-0.660093
H84	H	0.896668	-0.338135	-0.861889
H85	H	0.465236	-0.527860	-0.404598
N86	N	0.991845	-1.085757	-0.215989
N87	N	0.986135	-1.062905	-0.159425
H88	H	1.017524	-1.090202	-0.128064
H89	H	1.010935	-0.945044	-0.330634
N90	N	0.986484	-0.649851	-0.534615
N91	N	1.022253	-0.710590	-0.563849
H92	H	1.051150	-0.759705	-0.540266
H93	H	0.832851	-0.388750	-0.660034
N94	N	0.936988	-1.086065	-0.420073
N95	N	0.903699	-1.063428	-0.466175
H96	H	0.915136	-1.090919	-0.509020
N97	N	0.824594	-0.374491	-1.070446
N98	N	0.788825	-0.313750	-1.041214
H99	H	0.759924	-0.264645	-1.064798
N100	N	0.137830	-0.374464	-0.221447
N101	N	0.145190	-0.276262	-0.225698
H102	H	0.121591	-0.227066	-0.196847
N103	N	0.541476	-0.650193	-0.383026
N104	N	0.505015	-0.612831	-0.423000
H105	H	0.481409	-0.661993	-0.451862
H106	H	0.914477	-0.686164	-0.743168
H107	H	0.144632	-0.635937	-0.374890
H108	H	0.978265	-0.635514	-1.063730
N109	N	0.824532	-0.374711	-0.534536
N110	N	0.824527	-0.374745	-0.476114
H111	H	0.795623	-0.325670	-0.452493
N112	N	0.824589	-0.374551	-0.938173
N113	N	0.824587	-0.374581	-0.879751
H114	H	0.795685	-0.325505	-0.856129
H115	H	0.548232	-0.388746	-0.229595
N116	N	0.673750	-0.650263	-0.382981
N117	N	0.644537	-0.711109	-0.418702
H118	H	0.668136	-0.760302	-0.447555
N119	N	0.915519	-0.705990	-0.868654
N120	N	0.919910	-0.791619	-0.839436
H121	H	0.923466	-0.860798	-0.863032
H122	H	0.465048	-0.496922	-0.199786
H123	H	0.666945	-0.388769	-0.229553
