data_functionalizedCrystal
_audit_creation_method	'MofGen! by Chris Wilmer'
_symmetry_space_group_name_H-M	'P1'
_symmetry_Int_Tables_number	1
_symmetry_cell_setting	triclinic
loop_
_symmetry_equiv_pos_as_xyz
  x,y,z
_cell_length_a	14.044220
_cell_length_b	14.044190
_cell_length_c	12.503572
_cell_angle_alpha	93.839403
_cell_angle_beta	86.164750
_cell_angle_gamma	93.190328
loop_
_atom_site_label
_atom_site_type_symbol
_atom_site_fract_x
_atom_site_fract_y
_atom_site_fract_z
O1	O	1.282207	0.225116	-0.089227
O2	O	1.532207	0.475116	0.160773
O3	O	1.782207	0.725116	0.410773
O4	O	2.032207	0.975116	0.660773
O5	O	1.005537	0.216809	-0.089254
O6	O	1.255537	0.466809	0.160746
O7	O	1.505537	0.716809	0.410746
O8	O	1.755537	0.966809	0.660746
O9	O	1.139714	0.082627	-0.089220
O10	O	1.389714	0.332627	0.160780
O11	O	1.639714	0.582627	0.410780
O12	O	1.889714	0.832627	0.660780
O13	O	1.148029	0.359297	-0.089261
O14	O	1.398029	0.609297	0.160739
O15	O	1.648029	0.859297	0.410739
O16	O	1.898029	1.109297	0.660739
O17	O	1.129625	0.092737	0.089420
O18	O	1.379625	0.342737	0.339420
O19	O	1.629625	0.592737	0.589420
O20	O	1.879625	0.842737	0.839420
O21	O	0.995447	0.226918	0.089386
O22	O	1.245447	0.476918	0.339386
O23	O	1.495447	0.726918	0.589386
O24	O	1.745447	0.976918	0.839386
O25	O	1.272117	0.235226	0.089412
O26	O	1.522117	0.485226	0.339412
O27	O	1.772117	0.735226	0.589412
O28	O	2.022117	0.985226	0.839412
Cu29	Cu	1.132861	0.231995	0.105710
Cu30	Cu	1.382861	0.481995	0.355710
Cu31	Cu	1.632861	0.731995	0.605710
Cu32	Cu	1.882861	0.981995	0.855710
Cu33	Cu	1.144793	0.220039	-0.105552
Cu34	Cu	1.394793	0.470039	0.144448
Cu35	Cu	1.644793	0.720039	0.394448
Cu36	Cu	1.894793	0.970039	0.644448
O37	O	1.137940	0.369407	0.089378
O38	O	1.387940	0.619407	0.339378
O39	O	1.637940	0.869407	0.589378
O40	O	1.887940	1.119407	0.839378
C41	C	1.131033	0.052060	0.000103
C42	C	1.381033	0.302060	0.250103
C43	C	1.631033	0.552060	0.500103
C44	C	1.881033	0.802060	0.750103
C45	C	1.120185	-0.054082	0.000111
C46	C	1.370185	0.195918	0.250111
C47	C	1.620185	0.445918	0.500111
C48	C	1.870185	0.695918	0.750111
C49	C	0.964870	0.218228	0.000063
C50	C	1.214870	0.468228	0.250063
C51	C	1.464870	0.718228	0.500063
C52	C	1.714870	0.968228	0.750063
C53	C	0.858728	0.207383	0.000054
C54	C	1.108728	0.457383	0.250054
C55	C	1.358728	0.707383	0.500054
C56	C	1.608728	0.957383	0.750054
C57	C	1.177287	-0.299543	0.000075
C58	C	1.427287	-0.049543	0.250075
C59	C	1.677287	0.200457	0.500075
C60	C	1.927287	0.450457	0.750075
C61	C	1.100371	-0.248417	0.000075
C62	C	1.350371	0.001583	0.250075
C63	C	1.600371	0.251583	0.500075
C64	C	1.850371	0.501583	0.750075
C65	C	1.111398	-0.140279	0.000095
C66	C	1.361398	0.109721	0.250095
C67	C	1.611398	0.359721	0.500095
C68	C	1.861398	0.609721	0.750095
C69	C	1.166262	-0.407691	0.000054
C70	C	1.416262	-0.157691	0.250054
C71	C	1.666262	0.092309	0.500054
C72	C	1.916262	0.342309	0.750054
C73	C	0.664388	0.187558	0.000078
C74	C	0.914388	0.437558	0.250078
C75	C	1.164388	0.687558	0.500078
C76	C	1.414388	0.937558	0.750078
C77	C	0.613260	0.264472	0.000071
C78	C	0.863260	0.514472	0.250071
C79	C	1.113260	0.764472	0.500071
C80	C	1.363260	1.014472	0.750071
C81	C	0.505123	0.253441	0.000085
C82	C	0.755123	0.503441	0.250085
C83	C	1.005123	0.753441	0.500085
C84	C	1.255123	1.003441	0.750085
C85	C	0.772535	0.198587	0.000065
C86	C	1.022535	0.448587	0.250065
C87	C	1.272535	0.698587	0.500065
C88	C	1.522535	0.948587	0.750065
C89	C	1.312784	0.233806	0.000093
C90	C	1.562784	0.483806	0.250093
C91	C	1.812784	0.733806	0.500093
C92	C	2.062784	0.983806	0.750093
C93	C	1.418927	0.244651	0.000095
C94	C	1.668927	0.494651	0.250095
C95	C	1.918927	0.744651	0.500095
C96	C	2.168927	0.994651	0.750095
C97	C	1.146621	0.399974	0.000053
C98	C	1.396621	0.649974	0.250053
C99	C	1.646621	0.899974	0.500053
C100	C	1.896621	1.149974	0.750053
C101	C	1.157469	0.506116	0.000038
C102	C	1.407469	0.756116	0.250038
C103	C	1.657469	1.006116	0.500038
C104	C	1.907469	1.256116	0.750038
N105	N	1.124476	0.240404	0.254300
N106	N	1.374476	0.490404	0.504300
N107	N	1.624476	0.740404	0.754300
N108	N	1.874476	0.990404	1.004300
N109	N	1.153185	0.211623	-0.254142
N110	N	1.403185	0.461623	-0.004142
N111	N	1.653185	0.711623	0.245858
N112	N	1.903185	0.961623	0.495858
C113	C	1.112141	0.252782	0.473412
C114	C	1.362141	0.502782	0.723412
C115	C	1.612141	0.752782	0.973412
C116	C	1.862141	1.002782	1.223412
C117	C	1.165517	0.199248	0.526753
C118	C	1.415517	0.449248	0.776753
C119	C	1.665517	0.699248	1.026753
C120	C	1.915517	0.949248	1.276753
C121	C	1.158654	0.206136	0.648675
C122	C	1.408654	0.456136	0.898675
C123	C	1.658654	0.706136	1.148675
C124	C	1.908654	0.956136	1.398675
C125	C	1.119003	0.245896	0.351480
C126	C	1.369003	0.495896	0.601480
C127	C	1.619003	0.745896	0.851480
C128	C	1.869003	0.995896	1.101480
H129	H	1.026239	-0.285862	0.000061
H130	H	1.276239	-0.035862	0.250061
H131	H	1.526239	0.214138	0.500061
H132	H	1.776239	0.464138	0.750061
H133	H	1.251413	-0.262101	0.000093
H134	H	1.501413	-0.012101	0.250093
H135	H	1.751413	0.237899	0.500093
H136	H	2.001413	0.487899	0.750093
Cl137	Cl	1.244423	0.120898	0.455893
Cl138	Cl	1.494423	0.370898	0.705893
Cl139	Cl	1.744423	0.620898	0.955893
Cl140	Cl	1.994423	0.870898	1.205893
Cl141	Cl	0.671064	0.378928	0.000047
Cl142	Cl	0.921064	0.628928	0.250047
Cl143	Cl	1.171064	0.878928	0.500047
Cl144	Cl	1.421064	1.128928	0.750047
H145	H	1.061294	0.303783	0.519307
H146	H	1.311294	0.553783	0.769307
H147	H	1.561294	0.803783	1.019307
H148	H	1.811294	1.053783	1.269307
Cl149	Cl	0.606584	0.073108	0.000097
Cl150	Cl	0.856584	0.323108	0.250097
Cl151	Cl	1.106584	0.573108	0.500097
Cl152	Cl	1.356584	0.823108	0.750097
