data_functionalizedCrystal
_audit_creation_method	'MofGen! by Chris Wilmer'
_symmetry_space_group_name_H-M	'P1'
_symmetry_Int_Tables_number	1
_symmetry_cell_setting	triclinic
loop_
_symmetry_equiv_pos_as_xyz
  x,y,z
_cell_length_a	12.759401
_cell_length_b	21.295417
_cell_length_c	12.759393
_cell_angle_alpha	89.960780
_cell_angle_beta	89.980313
_cell_angle_gamma	90.030989
loop_
_atom_site_label
_atom_site_type_symbol
_atom_site_fract_x
_atom_site_fract_y
_atom_site_fract_z
Zn1	Zn	1.606140	-0.250564	-0.593960
Zn2	Zn	1.605986	-0.355848	-0.418257
Zn3	Zn	1.430442	-0.250597	-0.418296
Zn4	Zn	1.430382	-0.355800	-0.593895
O5	O	1.518237	-0.303202	-0.506102
O6	O	1.753140	-0.264536	-0.570664
O7	O	1.582660	-0.341920	-0.271241
O8	O	1.453838	-0.162503	-0.441642
O9	O	1.753027	-0.341888	-0.441576
O10	O	1.582922	-0.162479	-0.570702
O11	O	1.453689	-0.264593	-0.271270
O12	O	1.283413	-0.264547	-0.441578
O13	O	1.453736	-0.341806	-0.740925
O14	O	1.283369	-0.341839	-0.570590
O15	O	1.582864	-0.264489	-0.740973
O16	O	1.582602	-0.443931	-0.441512
O17	O	1.453586	-0.443896	-0.570552
C18	C	1.245270	-0.303191	-0.506082
C19	C	1.128493	-0.303202	-0.506098
C20	C	0.963843	-0.343424	-0.438811
C21	C	1.073567	-0.343415	-0.438791
C22	C	1.073689	-0.262991	-0.573422
C23	C	0.963967	-0.262998	-0.573436
C24	C	1.223443	-0.365810	-0.314797
C25	C	1.278243	-0.406026	-0.247486
C26	C	1.242579	-0.467439	-0.231169
C27	C	1.152118	-0.488649	-0.282179
C28	C	1.097323	-0.448437	-0.349498
C29	C	1.132985	-0.387014	-0.365795
C30	C	0.814090	-0.240610	-0.697431
C31	C	0.759293	-0.200400	-0.764756
C32	C	0.794955	-0.138985	-0.781084
C33	C	0.885420	-0.117778	-0.730092
C34	C	0.940216	-0.157988	-0.662767
C35	C	0.904547	-0.219401	-0.646438
C36	C	1.518099	-0.466754	-0.506044
C37	C	1.518137	-0.536722	-0.506054
C38	C	1.585375	-0.569586	-0.438932
C39	C	1.585424	-0.635328	-0.438955
C40	C	1.518216	-0.668204	-0.506090
C41	C	1.450974	-0.635332	-0.573226
C42	C	1.450934	-0.569591	-0.573208
N43	N	1.426309	-0.771470	-0.514093
N44	N	1.426350	-0.833921	-0.514104
C45	C	1.518334	-0.866279	-0.506151
N46	N	1.610278	-0.833826	-0.498165
N47	N	1.610236	-0.771369	-0.498149
C48	C	1.518253	-0.739490	-0.506118
C49	C	1.585631	-0.970429	-0.439050
C50	C	1.585682	-1.036172	-0.439081
C51	C	1.451222	-1.036175	-0.573346
C52	C	1.451181	-0.970433	-0.573321
C53	C	1.518384	-0.937563	-0.506167
C54	C	1.792270	-0.303213	-0.506123
C55	C	1.909047	-0.303218	-0.506132
C56	C	1.518311	-0.303139	-0.780136
C57	C	1.518342	-0.303111	-0.896912
C58	C	1.518404	-0.139012	-0.506183
C59	C	1.518475	-0.069044	-0.506218
C60	C	1.451211	-0.262840	-0.951789
C61	C	1.451235	-0.262820	-1.061513
C62	C	1.585531	-0.343346	-1.061475
C63	C	1.585500	-0.343368	-0.951752
C64	C	1.327395	-0.240292	-1.211468
C65	C	1.260273	-0.200011	-1.266348
C66	C	1.244197	-0.138595	-1.230772
C67	C	1.295258	-0.117447	-1.140318
C68	C	1.362388	-0.157725	-1.085443
C69	C	1.378444	-0.219150	-1.121018
C70	C	1.709342	-0.365890	-0.801795
C71	C	1.776478	-0.406165	-0.746919
C72	C	1.792565	-0.467582	-0.782493
C73	C	1.741522	-0.488727	-0.872951
C74	C	1.674386	-0.448452	-0.927827
C75	C	1.658297	-0.387035	-0.892246
C76	C	1.518224	-0.303220	-0.233135
C77	C	1.518397	-0.303070	-0.116359
H78	H	0.919130	-0.376174	-0.384007
H79	H	1.640181	-0.662092	-0.384297
H80	H	1.396425	-0.943673	-0.627974
H81	H	1.014016	-0.140762	-0.621439
H82	H	0.914459	-0.067769	-0.743389
H83	H	1.396505	-1.062942	-0.628014
H84	H	1.818051	-0.388940	-0.673271
H85	H	1.189544	-0.105797	-1.275464
H86	H	1.023673	-0.465706	-0.391032
H87	H	1.118419	-0.230247	-0.628220
H88	H	1.396179	-0.542833	-0.627868
H89	H	1.696220	-0.315885	-0.772801
H90	H	1.847243	-0.500372	-0.737808
H91	H	1.640355	-0.943665	-0.384373
H92	H	1.640442	-1.062929	-0.384424
H93	H	1.351912	-0.388756	-0.205975
H94	H	1.287206	-0.500184	-0.176363
H95	H	1.396525	-0.230060	-0.907141
H96	H	1.403966	-0.140506	-1.011800
H97	H	1.282173	-0.067433	-1.111366
H98	H	1.396255	-0.662104	-0.627890
H99	H	1.218699	-0.217235	-1.339997
H100	H	1.640098	-0.542826	-0.384254
H101	H	1.340466	-0.290305	-1.240435
H102	H	1.640210	-0.376121	-1.106139
H103	H	1.123095	-0.538661	-0.268898
H104	H	1.632826	-0.465673	-1.001485
H105	H	1.754625	-0.538738	-0.901920
H106	H	0.785046	-0.290619	-0.684144
H107	H	1.252482	-0.315800	-0.328066
H108	H	0.750334	-0.106248	-0.835914
H109	H	0.685635	-0.217673	-0.806281
