data_functionalizedCrystal
_audit_creation_method	'MofGen! by Chris Wilmer'
_symmetry_space_group_name_H-M	'P1'
_symmetry_Int_Tables_number	1
_symmetry_cell_setting	triclinic
loop_
_symmetry_equiv_pos_as_xyz
  x,y,z
_cell_length_a	6.817900
_cell_length_b	8.749629
_cell_length_c	14.858572
_cell_angle_alpha	93.945660
_cell_angle_beta	104.524003
_cell_angle_gamma	105.181975
loop_
_atom_site_label
_atom_site_type_symbol
_atom_site_fract_x
_atom_site_fract_y
_atom_site_fract_z
V1	V	-4.045983	-0.219796	-0.288748
V2	V	-3.712649	0.113538	0.044586
V3	V	-3.379316	0.446871	0.377919
O4	O	-4.025280	0.009538	-0.284493
O5	O	-3.691947	0.342871	0.048840
O6	O	-3.358613	0.676205	0.382174
O7	O	-4.004918	-0.434833	-0.285579
O8	O	-3.671585	-0.101500	0.047755
O9	O	-3.338252	0.231833	0.381088
O10	O	-4.002521	-0.216864	-0.415226
O11	O	-3.669187	0.116469	-0.081892
O12	O	-3.335854	0.449802	0.251441
O13	O	-4.027694	-0.209940	-0.153949
O14	O	-3.694361	0.123393	0.179385
O15	O	-3.361028	0.456727	0.512718
V16	V	-4.528020	-0.192312	-0.272770
V17	V	-4.194687	0.141022	0.060564
V18	V	-3.861354	0.474355	0.393897
O19	O	-4.310500	-0.280084	-0.323797
O20	O	-3.977166	0.053249	0.009537
O21	O	-3.643833	0.386582	0.342870
O22	O	-4.713701	-0.132023	-0.237721
O23	O	-4.380368	0.201310	0.095613
O24	O	-4.047034	0.534643	0.428946
O25	O	-4.345878	0.022726	-0.275939
O26	O	-4.012545	0.356059	0.057394
O27	O	-3.679211	0.689392	0.390728
O28	O	-4.666120	-0.421646	-0.277024
O29	O	-4.332787	-0.088312	0.056309
O30	O	-3.999453	0.245021	0.389642
O31	O	-4.663706	-0.202168	-0.407569
O32	O	-4.330372	0.131166	-0.074236
O33	O	-3.997039	0.464499	0.259098
O34	O	-4.348276	-0.195243	-0.146292
O35	O	-4.014943	0.138090	0.187041
O36	O	-3.681609	0.471423	0.520375
C37	C	-3.851544	-0.487241	-0.280715
C38	C	-3.518211	-0.153907	0.052618
C39	C	-3.184877	0.179426	0.385951
C40	C	-3.899289	-0.663039	-0.278967
C41	C	-3.565955	-0.329706	0.054366
C42	C	-3.232622	0.003627	0.387700
C43	C	-3.848484	-0.209198	-0.446092
C44	C	-3.515151	0.124136	-0.112758
C45	C	-3.181817	0.457469	0.220575
C46	C	-3.894281	-0.208224	-0.549480
C47	C	-3.560948	0.125110	-0.216147
C48	C	-3.227614	0.458443	0.117186
C49	C	-4.061899	-0.204664	-0.928068
C50	C	-3.728566	0.128669	-0.594735
C51	C	-3.395232	0.462003	-0.261401
C52	C	-4.015254	-0.205655	-0.822733
C53	C	-3.681921	0.127679	-0.489400
C54	C	-3.348588	0.461012	-0.156066
C55	C	-3.978092	-0.206445	-0.738778
C56	C	-3.644758	0.126888	-0.405444
C57	C	-3.311425	0.460221	-0.072111
C58	C	-3.931444	-0.207433	-0.633436
C59	C	-3.598110	0.125900	-0.300102
C60	C	-3.264777	0.459234	0.033231
C61	C	-4.162595	0.075125	-0.280800
C62	C	-3.829261	0.408458	0.052534
C63	C	-3.495928	0.741791	0.385867
C64	C	-4.094088	0.250922	-0.282554
C65	C	-3.760755	0.584255	0.050779
C66	C	-3.427422	0.917589	0.384113
C67	C	-4.165654	-0.202915	-0.115421
C68	C	-3.832321	0.130418	0.217912
C69	C	-3.498988	0.463752	0.551246
C70	C	-4.099096	-0.203881	-0.012032
C71	C	-3.765762	0.129452	0.321302
C72	C	-3.432429	0.462786	0.654635
H73	H	-4.224350	-0.688243	-0.286971
H74	H	-3.891017	-0.354910	0.046363
H75	H	-3.557684	-0.021576	0.379696
H76	H	-3.769039	-0.723870	-0.274560
H77	H	-3.435706	-0.390536	0.058773
H78	H	-3.102373	-0.057203	0.392106
