data_functionalizedCrystal
_audit_creation_method	'MofGen! by Chris Wilmer'
_symmetry_space_group_name_H-M	'P1'
_symmetry_Int_Tables_number	1
_symmetry_cell_setting	triclinic
loop_
_symmetry_equiv_pos_as_xyz
  x,y,z
_cell_length_a	10.654554
_cell_length_b	17.019294
_cell_length_c	15.500369
_cell_angle_alpha	83.293667
_cell_angle_beta	92.855219
_cell_angle_gamma	83.939262
loop_
_atom_site_label
_atom_site_type_symbol
_atom_site_fract_x
_atom_site_fract_y
_atom_site_fract_z
O1	O	1.659575	0.114872	-0.080503
O2	O	1.293868	0.125464	-0.081293
O3	O	1.487618	0.004958	-0.072311
O4	O	1.465825	0.235378	-0.089485
O5	O	1.499313	-0.002330	0.072118
O6	O	1.305563	0.118176	0.063136
O7	O	1.671270	0.107585	0.063926
Cu8	Cu	1.489484	0.112215	0.076719
Cu9	Cu	1.475653	0.120834	-0.094085
O10	O	1.477520	0.228090	0.054944
C11	C	1.252934	0.121042	-0.009020
C12	C	1.113542	0.118713	-0.008847
C13	C	0.932610	0.043381	-0.003240
C14	C	1.063584	0.045569	-0.003397
C15	C	1.032517	0.189673	-0.014132
C16	C	0.901546	0.187484	-0.013969
C17	C	0.882659	-0.029766	0.002202
C18	C	0.963675	-0.100727	0.007489
C19	C	1.094650	-0.098540	0.007333
C20	C	1.144609	-0.025391	0.001889
C21	C	1.492870	-0.028190	0.002101
C22	C	1.491080	-0.116103	0.008648
C23	C	1.483867	-0.153428	-0.067004
C24	C	1.482178	-0.236032	-0.060850
C25	C	1.487710	-0.281309	0.020957
C26	C	1.494920	-0.243979	0.096615
C27	C	1.496600	-0.161376	0.090459
C28	C	1.482947	-0.530914	0.043480
C29	C	1.481270	-0.613523	0.049630
C30	C	1.468525	-0.605570	-0.107835
C31	C	1.470214	-0.522967	-0.113983
C32	C	1.477417	-0.485643	-0.038326
C33	C	1.485987	-0.365744	0.027250
C34	C	1.479131	-0.401209	-0.044619
C35	C	1.712203	0.112007	-0.008348
C36	C	1.851595	0.114336	-0.008527
C37	C	1.472268	0.261239	-0.019469
C38	C	1.474057	0.349152	-0.026022
N39	N	1.499221	0.106153	0.196853
N40	N	1.465926	0.126890	-0.214219
C41	C	1.548039	0.075847	0.744287
C42	C	1.540647	0.080442	0.653373
C43	C	1.451134	0.136075	0.603957
C44	C	1.369017	0.187123	0.645457
C45	C	1.376417	0.182532	0.736369
C46	C	1.424504	0.152609	0.329265
C47	C	1.417108	0.157195	0.238347
C48	C	1.588740	0.050514	0.246270
C49	C	1.596127	0.045925	0.337183
C50	C	1.514015	0.096975	0.378675
C51	C	1.443573	0.140771	0.511029
C52	C	1.521583	0.092283	0.471601
H53	H	1.479369	-0.116569	-0.133620
C54	C	1.270551	0.248320	0.591096
N55	N	1.196381	0.294413	0.550151
H56	H	1.160611	-0.156320	0.011646
C57	C	1.334165	0.208759	0.374895
N58	N	1.266114	0.251052	0.409267
C59	C	1.694561	-0.015300	0.391536
N60	N	1.768687	-0.061425	0.432476
H61	H	1.251259	-0.023616	0.001770
H62	H	1.476309	-0.266418	-0.122453
C63	C	1.087478	0.270131	-0.020128
N64	N	1.128874	0.330733	-0.024647
C65	C	1.286083	0.238680	0.782012
N66	N	1.218042	0.280975	0.816390
C67	C	1.473052	-0.351401	-0.134604
N68	N	1.468483	-0.313880	-0.202381
H69	H	1.490496	-0.402619	0.093857
C70	C	1.318563	0.218354	0.183994
N71	N	1.244315	0.264398	0.143056
H72	H	1.499417	-0.280850	0.163223
H73	H	1.655593	0.008952	0.212478
C74	C	1.620042	0.031086	0.525962
N75	N	1.694197	-0.015010	0.566915
H76	H	0.922989	-0.160282	0.011914
H77	H	1.370687	0.186067	0.470786
H78	H	0.835581	0.245262	-0.018271
C79	C	1.464128	-0.473167	-0.203977
N80	N	1.459548	-0.435658	-0.271762
H81	H	0.776015	-0.031556	0.002328
H82	H	1.462659	-0.635968	-0.169431
C83	C	1.487352	-0.663327	0.139627
N84	N	1.491934	-0.700839	0.207410
H85	H	1.488837	-0.500537	0.105086
H86	H	1.620925	0.030542	0.784516
H87	H	1.502456	-0.130986	0.152063
H88	H	1.607510	0.038880	0.619589
