data_functionalizedCrystal
_audit_creation_method	'MofGen! by Chris Wilmer'
_symmetry_space_group_name_H-M	'P1'
_symmetry_Int_Tables_number	1
_symmetry_cell_setting	triclinic
loop_
_symmetry_equiv_pos_as_xyz
  x,y,z
_cell_length_a	15.995292
_cell_length_b	16.974959
_cell_length_c	16.053802
_cell_angle_alpha	88.925605
_cell_angle_beta	87.423561
_cell_angle_gamma	83.436270
loop_
_atom_site_label
_atom_site_type_symbol
_atom_site_fract_x
_atom_site_fract_y
_atom_site_fract_z
O1	O	1.107722	0.104689	0.062388
O2	O	0.863970	0.117282	0.061535
O3	O	0.992240	-0.003745	0.069698
O4	O	0.979453	0.225716	0.054225
O5	O	0.999292	-0.010386	-0.068713
O6	O	0.871023	0.110640	-0.076876
O7	O	1.114775	0.098048	-0.076023
Zn8	Zn	0.994019	0.103290	-0.098425
Zn9	Zn	0.984727	0.112040	0.083937
O10	O	0.986506	0.219074	-0.084186
C11	C	0.836300	0.113448	-0.007636
C12	C	0.743343	0.111912	-0.007534
C13	C	0.995145	-0.036428	0.002474
C14	C	0.993287	-0.123918	0.008379
C15	C	0.982484	-0.616013	0.049806
C16	C	0.984223	-0.533806	0.044241
C17	C	0.988930	-0.496339	-0.033990
C18	C	0.991907	-0.541084	-0.106660
C19	C	0.990174	-0.623290	-0.101094
C20	C	0.994531	-0.250870	-0.058726
C21	C	0.996261	-0.168657	-0.064286
C22	C	0.988578	-0.161385	0.086615
C23	C	0.986841	-0.243593	0.092174
C24	C	0.989822	-0.288331	0.019504
N25	N	0.990705	-0.412310	-0.039680
N26	N	0.988053	-0.372359	0.025195
C27	C	0.405591	0.106264	-0.007144
C28	C	0.429094	0.193632	-0.012725
C29	C	0.525789	0.195277	-0.013152
C30	C	0.573154	0.109066	-0.007337
C31	C	0.547976	0.061601	-0.083429
C32	C	0.451186	0.060547	-0.083420
C33	C	0.443307	0.066315	0.074099
C34	C	0.539754	0.069602	0.074922
C35	C	0.667854	0.110646	-0.007449
C36	C	0.310892	0.104682	-0.007037
C37	C	1.142445	0.101881	-0.006850
C38	C	1.235401	0.103418	-0.006947
C39	C	0.983600	0.251757	-0.016960
C40	C	0.985458	0.339248	-0.022859
N41	N	0.978386	0.118006	0.208395
N42	N	1.000366	0.097317	-0.222883
C43	C	1.033069	0.066608	0.255556
C44	C	1.028632	0.070780	0.342681
C45	C	0.969506	0.126347	0.382645
C46	C	0.914820	0.177751	0.335478
C47	C	0.919262	0.173582	0.248354
C48	C	0.950122	0.144552	0.642826
C49	C	0.945682	0.148716	0.729957
C50	C	1.059496	0.041745	0.737154
C51	C	1.063930	0.037578	0.650029
C52	C	1.009247	0.088985	0.602869
N53	N	0.964967	0.130611	0.471701
N54	N	1.013790	0.084724	0.513814
H55	H	0.978643	-0.646512	0.113509
H56	H	1.081213	0.021356	0.223024
H57	H	0.874733	0.215437	0.209956
C58	C	0.981754	-0.284812	0.178234
N59	N	0.977954	-0.315862	0.243057
C60	C	0.387474	0.242798	0.060779
N61	N	0.356119	0.279830	0.116145
C62	C	0.997797	-0.300070	-0.138666
N63	N	1.000253	-0.337129	-0.198881
H64	H	0.981802	-0.497383	0.103412
C65	C	0.985312	-0.112168	0.166547
N66	N	0.982858	-0.075099	0.226755
H67	H	0.403026	0.224411	-0.071345
C68	C	1.001447	-0.127446	-0.150350
N69	N	1.005354	-0.096406	-0.215169
C70	C	0.997081	-0.499866	-0.192715
N71	N	1.000973	-0.468821	-0.257533
C72	C	0.993443	-0.672502	-0.181032
N73	N	0.995907	-0.709568	-0.241243
H74	H	0.542009	0.232194	0.041200
H75	H	0.436668	-0.003674	-0.082691
H76	H	0.411992	0.096494	0.132163
C77	C	1.128948	-0.023573	0.606077
N78	N	1.177910	-0.069644	0.572974
C79	C	0.880583	0.209795	0.773918
N80	N	0.831531	0.255779	0.807031
H81	H	0.547166	0.226963	-0.072226
H82	H	0.427451	0.087957	-0.144543
H83	H	0.555419	0.104206	0.131248
C84	C	1.119640	-0.014802	0.789037
N85	N	1.164942	-0.057396	0.828115
H86	H	0.579844	-0.001980	-0.082088
C87	C	0.579210	0.098765	-0.165657
N88	N	0.602731	0.126762	-0.227591
C89	C	0.583757	-0.015103	0.087101
N90	N	0.616898	-0.078908	0.096267
C91	C	0.424158	-0.020513	0.080682
N92	N	0.409730	-0.085909	0.085635
H93	H	1.073160	0.028927	0.381079
H94	H	0.905595	0.186408	0.604436
H95	H	0.866681	0.222998	0.368020
