data_functionalizedCrystal
_audit_creation_method	'MofGen! by Chris Wilmer'
_symmetry_space_group_name_H-M	'P1'
_symmetry_Int_Tables_number	1
_symmetry_cell_setting	triclinic
loop_
_symmetry_equiv_pos_as_xyz
  x,y,z
_cell_length_a	19.188933
_cell_length_b	19.188924
_cell_length_c	16.098538
_cell_angle_alpha	92.711427
_cell_angle_beta	87.271982
_cell_angle_gamma	83.143767
loop_
_atom_site_label
_atom_site_type_symbol
_atom_site_fract_x
_atom_site_fract_y
_atom_site_fract_z
O1	O	0.929277	0.084046	-0.069232
O2	O	1.429277	0.584046	0.430768
O3	O	0.725966	0.095778	-0.069240
O4	O	1.225966	0.595778	0.430760
O5	O	0.833490	-0.011744	-0.069226
O6	O	1.333490	0.488256	0.430774
O7	O	0.821752	0.191567	-0.069246
O8	O	1.321752	0.691567	0.430754
O9	O	0.827209	-0.005487	0.069286
O10	O	1.327209	0.494513	0.569286
O11	O	0.719685	0.102034	0.069272
O12	O	1.219685	0.602034	0.569272
O13	O	0.922996	0.090302	0.069280
O14	O	1.422996	0.590302	0.569280
Zn15	Zn	0.820343	0.097162	0.091268
Zn16	Zn	1.320343	0.597162	0.591268
Zn17	Zn	0.828618	0.088918	-0.091228
Zn18	Zn	1.328618	0.588918	0.408772
O19	O	0.815471	0.197824	0.069266
O20	O	1.315471	0.697824	0.569266
C21	C	0.696814	0.098526	0.000015
C22	C	1.196814	0.598526	0.500015
C23	C	0.619310	0.097385	0.000012
C24	C	1.119310	0.597385	0.500012
C25	C	0.069478	0.085830	-0.075481
C26	C	0.569478	0.585830	0.424519
C27	C	0.142302	0.086897	-0.075484
C28	C	0.642302	0.586897	0.424516
C29	C	0.175296	0.090845	0.000018
C30	C	0.675296	0.590845	0.500018
C31	C	0.135460	0.093707	0.075530
C32	C	0.635460	0.593707	0.575530
C33	C	0.062639	0.092632	0.075531
C34	C	0.562639	0.592632	0.575531
N35	N	0.281766	0.134802	0.056214
N36	N	0.781766	0.634802	0.556214
N37	N	0.350944	0.135825	0.056208
N38	N	0.850944	0.635825	0.556208
C39	C	0.394704	0.094083	0.000019
C40	C	0.894704	0.594083	0.500019
N41	N	0.366672	0.051289	-0.056176
N42	N	0.866672	0.551289	0.443824
N43	N	0.297488	0.050269	-0.056172
N44	N	0.797488	0.550269	0.443828
C45	C	0.254258	0.092011	0.000025
C46	C	0.754258	0.592011	0.500025
C47	C	0.513495	0.092374	-0.075491
C48	C	1.013495	0.592374	0.424509
C49	C	0.586322	0.093438	-0.075491
C50	C	1.086322	0.593438	0.424509
C51	C	0.579477	0.100255	0.075525
C52	C	1.079477	0.600255	0.575525
C53	C	0.506653	0.099184	0.075523
C54	C	1.006653	0.599184	0.575523
C55	C	0.473667	0.095247	0.000013
C56	C	0.973667	0.595247	0.500013
C57	C	0.829970	-0.034627	0.000031
C58	C	1.329970	0.465373	0.500031
C59	C	0.828831	-0.112131	0.000033
C60	C	1.328831	0.387869	0.500033
C61	C	0.831724	-0.151940	-0.075470
C62	C	1.331724	0.348060	0.424530
C63	C	0.830644	-0.224763	-0.075477
C64	C	1.330644	0.275237	0.424523
C65	C	0.826686	-0.257776	0.000024
C66	C	1.326686	0.242224	0.500024
C67	C	0.823789	-0.217957	0.075538
C68	C	1.323789	0.282043	0.575538
C69	C	0.824862	-0.145135	0.075542
C70	C	1.324862	0.354865	0.575542
N71	N	0.862186	-0.374901	0.056220
N72	N	1.362186	0.125099	0.556220
N73	N	0.861168	-0.444080	0.056211
N74	N	1.361168	0.055920	0.556211
C75	C	0.823452	-0.477186	0.000016
C76	C	1.323452	0.022814	0.500016
N77	N	0.786802	-0.438501	-0.056181
N78	N	1.286802	0.061499	0.443819
N79	N	0.787822	-0.369317	-0.056174
N80	N	1.287822	0.130683	0.443826
C81	C	0.825522	-0.336739	0.000028
C82	C	1.325522	0.163261	0.500028
C83	C	0.825173	-0.595958	-0.075499
C84	C	1.325173	-0.095958	0.424501
C85	C	0.824089	-0.668782	-0.075502
C86	C	1.324089	-0.168782	0.424498
C87	C	0.817241	-0.661975	0.075514
C88	C	1.317241	-0.161975	0.575514
C89	C	0.818319	-0.589152	0.075515
C90	C	1.318319	-0.089152	0.575515
C91	C	0.822288	-0.556148	0.000006
C92	C	1.322288	-0.056148	0.500006
C93	C	0.952147	0.087554	0.000023
C94	C	1.452147	0.587554	0.500023
C95	C	1.029652	0.088695	0.000020
C96	C	1.529652	0.588695	0.500020
C97	C	0.818991	0.220706	0.000007
C98	C	1.318991	0.720706	0.500007
C99	C	0.820130	0.298211	-0.000000
C100	C	1.320130	0.798211	0.500000
N101	N	0.814700	0.102787	0.215816
N102	N	1.314700	0.602787	0.715816
N103	N	0.834267	0.083288	-0.215776
N104	N	1.334267	0.583288	0.284224
C105	C	0.860354	0.057166	0.259407
C106	C	1.360354	0.557166	0.759407
C107	C	0.856414	0.061108	0.346596
C108	C	1.356414	0.561108	0.846596
C109	C	0.806821	0.110674	0.390191
C110	C	1.306821	0.610674	0.890191
C111	C	0.761162	0.156296	0.346594
C112	C	1.261162	0.656296	0.846594
C113	C	0.765100	0.152351	0.259407
C114	C	1.265100	0.652351	0.759407
C115	C	0.792545	0.124965	0.653440
C116	C	1.292545	0.624965	1.153440
C117	C	0.788612	0.128908	0.740633
C118	C	1.288612	0.628908	1.240633
C119	C	0.883863	0.033718	0.740628
C120	C	1.383863	0.533718	1.240628
C121	C	0.887800	0.029780	0.653439
C122	C	1.387800	0.529780	1.153439
C123	C	0.842138	0.075400	0.609850
C124	C	1.342138	0.575400	1.109850
C125	C	0.802793	0.114706	0.479312
C126	C	1.302793	0.614706	0.979312
C127	C	0.846163	0.071365	0.520731
C128	C	1.346163	0.571365	1.020731
H129	H	0.474226	0.101520	0.137005
H130	H	0.974226	0.601520	0.637005
H131	H	0.834954	-0.125074	-0.136956
H132	H	1.334954	0.374926	0.363044
O133	O	0.481397	0.088667	-0.148815
O134	O	0.981397	0.588667	0.351185
C135	C	0.431374	0.148290	-0.153326
C136	C	0.931374	0.648290	0.346674
H137	H	0.445725	0.192803	-0.110485
H138	H	0.945725	0.692803	0.389515
H139	H	0.430855	0.165555	-0.220109
H140	H	0.930855	0.665555	0.279891
H141	H	0.377094	0.134727	-0.133035
H142	H	0.877094	0.634727	0.366965
O143	O	0.928112	-0.010665	0.783011
O144	O	1.428112	0.489335	1.283011
C145	C	0.888574	-0.051351	0.833477
C146	C	1.388574	0.448649	1.333477
H147	H	0.834705	-0.053579	0.807214
H148	H	1.334705	0.446421	1.307214
H149	H	0.917185	-0.106874	0.834474
H150	H	1.417185	0.393126	1.334474
H151	H	0.881862	-0.026500	0.899550
H152	H	1.381862	0.473500	1.399550
H153	H	0.820565	-0.244840	0.137011
H154	H	1.320565	0.255160	0.637011
H155	H	0.606340	0.103466	0.137001
H156	H	1.106340	0.603466	0.637001
H157	H	0.720779	0.196652	0.382095
H158	H	1.220779	0.696652	0.882095
H159	H	0.828401	-0.569085	-0.136983
H160	H	1.328401	-0.069085	0.363017
H161	H	0.928182	-0.010580	0.617945
H162	H	1.428182	0.489420	1.117945
O163	O	0.822080	-0.106569	0.148964
O164	O	1.322080	0.393431	0.648964
C165	C	0.818332	-0.151315	0.215605
C166	C	1.318332	0.348685	0.715605
H167	H	0.840670	-0.207183	0.193471
H168	H	1.340670	0.292817	0.693471
H169	H	0.850135	-0.132431	0.268418
H170	H	1.350135	0.367569	0.768418
H171	H	0.761163	-0.150514	0.238814
H172	H	1.261163	0.349486	0.738814
O173	O	0.833542	-0.263521	-0.148778
O174	O	1.333542	0.236479	0.351222
C175	C	0.893590	-0.313931	-0.153315
C176	C	1.393590	0.186069	0.346685
H177	H	0.910611	-0.324596	-0.087761
H178	H	1.410611	0.175404	0.412239
H179	H	0.880687	-0.364754	-0.185288
H180	H	1.380687	0.135246	0.314712
H181	H	0.938027	-0.293206	-0.190565
H182	H	1.438027	0.206794	0.309435
O183	O	0.624903	0.090678	-0.148912
O184	O	1.124903	0.590678	0.351088
C185	C	0.580171	0.086955	-0.215554
C186	C	1.080171	0.586955	0.284446
H187	H	0.524299	0.109290	-0.193418
H188	H	1.024299	0.609290	0.306582
H189	H	0.599068	0.118774	-0.268362
H190	H	1.099068	0.618774	0.231638
H191	H	0.580972	0.029794	-0.238772
H192	H	1.080972	0.529794	0.261228
O193	O	0.826942	-0.707356	-0.148925
O194	O	1.326942	-0.207356	0.351075
C195	C	0.830663	-0.662604	-0.215564
C196	C	1.330663	-0.162604	0.284436
H197	H	0.852516	-0.612653	-0.193419
H198	H	1.352516	-0.112653	0.306581
H199	H	0.866648	-0.690562	-0.268362
H200	H	1.366648	-0.190562	0.231638
H201	H	0.775834	-0.648411	-0.238799
H202	H	1.275834	-0.148411	0.261201
O203	O	0.813291	-0.694092	0.148809
O204	O	1.313291	-0.194092	0.648809
C205	C	0.751993	-0.727892	0.153321
C206	C	1.251993	-0.227892	0.653321
H207	H	0.734662	-0.739065	0.087759
H208	H	1.234662	-0.239065	0.587759
H209	H	0.763370	-0.779476	0.185290
H210	H	1.263370	-0.279476	0.685290
H211	H	0.708382	-0.692468	0.190563
H212	H	1.208382	-0.192468	0.690563
H213	H	0.727922	0.189499	0.223916
H214	H	1.227922	0.689499	0.723916
O215	O	0.815547	-0.550587	0.148934
O216	O	1.315547	-0.050587	0.648934
C217	C	0.811805	-0.595335	0.215575
C218	C	1.311805	-0.095335	0.715575
H219	H	0.834140	-0.651202	0.193436
H220	H	1.334140	-0.151202	0.693436
H221	H	0.843614	-0.576454	0.268382
H222	H	1.343614	-0.076454	0.768382
H223	H	0.754638	-0.594534	0.238792
H224	H	1.254638	-0.094534	0.738792
O225	O	0.740495	0.177037	0.783112
O226	O	1.240495	0.677037	1.283112
C227	C	0.746805	0.170725	0.869412
C228	C	1.246805	0.670725	1.369412
H229	H	0.801858	0.145034	0.881306
H230	H	1.301858	0.645034	1.381306
H231	H	0.737375	0.225119	0.902538
H232	H	1.237375	0.725119	1.402538
H233	H	0.706284	0.136921	0.894177
H234	H	1.206284	0.636921	1.394177
O235	O	0.908550	0.008956	0.217191
O236	O	1.408550	0.508956	0.717191
C237	C	0.948011	-0.030453	0.274367
C238	C	1.448011	0.469547	0.774367
H239	H	0.916581	-0.028357	0.336523
H240	H	1.416581	0.471643	0.836523
H241	H	0.959974	-0.087379	0.249188
H242	H	1.459974	0.412621	0.749188
H243	H	0.999386	-0.007491	0.283622
H244	H	1.499386	0.492509	0.783622
O245	O	0.748163	0.169355	0.611233
O246	O	1.248163	0.669355	1.111233
C247	C	0.703539	0.213938	0.668411
C248	C	1.203539	0.713938	1.168411
H249	H	0.729359	0.217466	0.730551
H250	H	1.229359	0.717466	1.230551
H251	H	0.693850	0.268584	0.643212
H252	H	1.193850	0.768584	1.143212
H253	H	0.651327	0.191814	0.677706
H254	H	1.151327	0.691814	1.177706
H255	H	0.886539	0.031005	0.485233
H256	H	1.386539	0.531005	0.985233
H257	H	0.893588	0.023960	0.382087
H258	H	1.393588	0.523960	0.882087
H259	H	0.762415	0.155064	0.514815
H260	H	1.262415	0.655064	1.014815
H261	H	0.042625	0.082621	-0.136968
H262	H	0.542625	0.582621	0.363032
O263	O	0.180890	0.084149	-0.148905
O264	O	0.680890	0.584149	0.351095
C265	C	0.136161	0.080427	-0.215550
C266	C	0.636161	0.580427	0.284450
H267	H	0.080287	0.102749	-0.193413
H268	H	0.580287	0.602749	0.306587
H269	H	0.155054	0.112257	-0.268349
H270	H	0.655054	0.612257	0.231651
H271	H	0.136975	0.023267	-0.238779
H272	H	0.636975	0.523267	0.261221
H273	H	0.162328	0.096920	0.137004
H274	H	0.662328	0.596920	0.637004
H275	H	0.030211	0.094968	0.137015
H276	H	0.530211	0.594968	0.637015
