data_functionalizedCrystal
_audit_creation_method	'MofGen! by Chris Wilmer'
_symmetry_space_group_name_H-M	'P1'
_symmetry_Int_Tables_number	1
_symmetry_cell_setting	triclinic
loop_
_symmetry_equiv_pos_as_xyz
  x,y,z
_cell_length_a	21.395362
_cell_length_b	18.215405
_cell_length_c	21.395356
_cell_angle_alpha	89.973989
_cell_angle_beta	89.957023
_cell_angle_gamma	90.038610
loop_
_atom_site_label
_atom_site_type_symbol
_atom_site_fract_x
_atom_site_fract_y
_atom_site_fract_z
Zn1	Zn	0.957888	-0.292691	-0.354593
Zn2	Zn	1.291222	0.040642	-0.021260
Zn3	Zn	1.624555	0.373976	0.312074
Zn4	Zn	0.957807	-0.415759	-0.249818
Zn5	Zn	1.291140	-0.082426	0.083515
Zn6	Zn	1.624474	0.250908	0.416848
Zn7	Zn	0.853105	-0.292745	-0.249794
Zn8	Zn	1.186438	0.040588	0.083539
Zn9	Zn	1.519772	0.373922	0.416872
Zn10	Zn	0.853087	-0.415754	-0.354523
Zn11	Zn	1.186420	-0.082421	-0.021190
Zn12	Zn	1.519754	0.250912	0.312143
O13	O	0.905472	-0.354237	-0.302182
O14	O	1.238805	-0.020904	0.031151
O15	O	1.572138	0.312429	0.364484
O16	O	1.045555	-0.308995	-0.340734
O17	O	1.378889	0.024338	-0.007400
O18	O	1.712222	0.357671	0.325933
O19	O	0.943892	-0.399465	-0.162137
O20	O	1.277225	-0.066132	0.171196
O21	O	1.610558	0.267201	0.504529
O22	O	0.867046	-0.189753	-0.263715
O23	O	1.200380	0.143580	0.069618
O24	O	1.533713	0.476913	0.402952
O25	O	1.045496	-0.399413	-0.263756
O26	O	1.378829	-0.066080	0.069577
O27	O	1.712162	0.267254	0.402910
O28	O	0.944030	-0.189714	-0.340710
O29	O	1.277363	0.143620	-0.007377
O30	O	1.610697	0.476953	0.325957
O31	O	0.866967	-0.309087	-0.162119
O32	O	1.200301	0.024246	0.171214
O33	O	1.533634	0.357579	0.504547
O34	O	0.765425	-0.309083	-0.263647
O35	O	1.098758	0.024250	0.069686
O36	O	1.432091	0.357584	0.403019
O37	O	0.867016	-0.399405	-0.442210
O38	O	1.200349	-0.066072	-0.108877
O39	O	1.533682	0.267261	0.224456
O40	O	0.765411	-0.399458	-0.340591
O41	O	1.098745	-0.066124	-0.007258
O42	O	1.432078	0.267209	0.326075
O43	O	0.944013	-0.308991	-0.442262
O44	O	1.277346	0.024342	-0.108928
O45	O	1.610679	0.357676	0.224405
O46	O	0.943874	-0.518743	-0.263689
O47	O	1.277208	-0.185409	0.069645
O48	O	1.610541	0.147924	0.402978
O49	O	0.866937	-0.518739	-0.340615
O50	O	1.200270	-0.185406	-0.007282
O51	O	1.533603	0.147927	0.326052
C52	C	0.742684	-0.354276	-0.302110
C53	C	1.076017	-0.020943	0.031224
C54	C	1.409351	0.312390	0.364557
C55	C	0.673043	-0.354311	-0.302093
C56	C	1.006376	-0.020977	0.031240
C57	C	1.339710	0.312356	0.364573
C58	C	0.905412	-0.545444	-0.302161
C59	C	1.238745	-0.212110	0.031173
C60	C	1.572078	0.121223	0.364506
C61	C	0.905443	-0.627242	-0.302172
C62	C	1.238777	-0.293909	0.031161
C63	C	1.572110	0.039424	0.364494
C64	C	0.640339	-0.401431	-0.342098
C65	C	0.973673	-0.068098	-0.008765
C66	C	1.307006	0.265236	0.324569
C67	C	0.574904	-0.401413	-0.342126
C68	C	0.908237	-0.068080	-0.008793
C69	C	1.241571	0.265254	0.324541
C70	C	0.542175	-0.354282	-0.302138
C71	C	0.875508	-0.020949	0.031195
C72	C	1.208841	0.312384	0.364529
C73	C	0.574886	-0.307153	-0.262130
C74	C	0.908219	0.026181	0.071203
C75	C	1.241553	0.359514	0.404536
C76	C	0.640320	-0.307167	-0.262108
C77	C	0.973654	0.026166	0.071225
C78	C	1.306987	0.359500	0.404559
C79	C	0.438450	-0.348364	-0.245733
C80	C	0.771783	-0.015031	0.087601
C81	C	1.105117	0.318302	0.420934
C82	C	0.373017	-0.348355	-0.245754
C83	C	0.706350	-0.015022	0.087580
C84	C	1.039684	0.318311	0.420913
C85	C	0.340354	-0.354234	-0.302207
C86	C	0.673687	-0.020901	0.031126
C87	C	1.007021	0.312432	0.364460
C88	C	0.373132	-0.360138	-0.358641
C89	C	0.706465	-0.026804	-0.025308
C90	C	1.039798	0.306529	0.308026
C91	C	0.438566	-0.360152	-0.358619
C92	C	0.771899	-0.026819	-0.025285
C93	C	1.105232	0.306515	0.308048
C94	C	0.471222	-0.354261	-0.302158
C95	C	0.804556	-0.020928	0.031175
C96	C	1.137889	0.312405	0.364509
C97	C	0.236698	-0.401338	-0.342245
C98	C	0.570031	-0.068004	-0.008912
C99	C	0.903364	0.265329	0.324421
C100	C	0.171261	-0.401314	-0.342274
C101	C	0.504595	-0.067981	-0.008941
C102	C	0.837928	0.265352	0.324392
C103	C	0.171245	-0.307058	-0.262273
C104	C	0.504578	0.026275	0.071060
C105	C	0.837911	0.359609	0.404393
C106	C	0.236680	-0.307077	-0.262250
C107	C	0.570013	0.026256	0.071083
C108	C	0.903347	0.359589	0.404417
C109	C	0.269403	-0.354221	-0.302235
C110	C	0.602736	-0.020888	0.031098
C111	C	0.936069	0.312446	0.364432
C112	C	0.945548	-0.815355	-0.342318
C113	C	1.278881	-0.482021	-0.008985
C114	C	1.612215	-0.148688	0.324349
C115	C	0.945571	-0.892213	-0.342330
C116	C	1.278904	-0.558880	-0.008996
C117	C	1.612237	-0.225547	0.324337
C118	C	0.865473	-0.892368	-0.262085
C119	C	1.198806	-0.559034	0.071248
C120	C	1.532140	-0.225701	0.404581
C121	C	0.865448	-0.815510	-0.262077
C122	C	1.198781	-0.482177	0.071256
C123	C	1.532114	-0.148844	0.404590
C124	C	0.905489	-0.777006	-0.302193
C125	C	1.238822	-0.443673	0.031141
C126	C	1.572155	-0.110339	0.364474
C127	C	0.905537	-0.930722	-0.302212
C128	C	1.238870	-0.597389	0.031121
C129	C	1.572204	-0.264055	0.364454
C130	C	0.905561	-1.014056	-0.302225
C131	C	1.238895	-0.680722	0.031108
C132	C	1.572228	-0.347389	0.364442
C133	C	0.905464	-0.693667	-0.302181
C134	C	1.238797	-0.360334	0.031152
C135	C	1.572130	-0.027000	0.364486
C136	C	1.068895	-0.354199	-0.302256
C137	C	1.402228	-0.020865	0.031078
C138	C	1.735562	0.312468	0.364411
C139	C	1.138536	-0.354182	-0.302287
C140	C	1.471870	-0.020849	0.031047
C141	C	1.805203	0.312484	0.364380
C142	C	0.905521	-0.354192	-0.465606
C143	C	1.238854	-0.020858	-0.132272
C144	C	1.572188	0.312475	0.201061
C145	C	0.905542	-0.354172	-0.535247
C146	C	1.238875	-0.020839	-0.201914
C147	C	1.572209	0.312494	0.131420
C148	C	0.905549	-0.162284	-0.302218
C149	C	1.238883	0.171049	0.031116
C150	C	1.572216	0.504382	0.364449
C151	C	0.905582	-0.080485	-0.302233
C152	C	1.238915	0.252848	0.031101
C153	C	1.572249	0.586181	0.364434
C154	C	0.865498	-0.307107	-0.567941
C155	C	1.198832	0.026226	-0.234607
C156	C	1.532165	0.359560	0.098726
C157	C	0.865496	-0.307094	-0.633376
C158	C	1.198830	0.026240	-0.300043
C159	C	1.532163	0.359573	0.033290
C160	C	0.905549	-0.354137	-0.666115
C161	C	1.238882	-0.020804	-0.332782
C162	C	1.572216	0.312529	0.000551
C163	C	0.945596	-0.401211	-0.633413
C164	C	1.278929	-0.067878	-0.300080
C165	C	1.612262	0.265455	0.033253
C166	C	0.945592	-0.401229	-0.567979
C167	C	1.278925	-0.067896	-0.234646
C168	C	1.612259	0.265438	0.098687
C169	C	0.962002	-0.359905	-0.769821
C170	C	1.295335	-0.026571	-0.436487
C171	C	1.628668	0.306762	-0.103154
C172	C	0.962006	-0.359882	-0.835254
C173	C	1.295340	-0.026549	-0.501920
C174	C	1.628673	0.306785	-0.168587
C175	C	0.905559	-0.354088	-0.867936
C176	C	1.238893	-0.020754	-0.534603
C177	C	1.572226	0.312579	-0.201269
C178	C	0.849106	-0.348300	-0.835177
C179	C	1.182440	-0.014967	-0.501844
C180	C	1.515773	0.318366	-0.168511
C181	C	0.849103	-0.348318	-0.769743
C182	C	1.182436	-0.014984	-0.436410
C183	C	1.515769	0.318349	-0.103077
C184	C	0.905557	-0.354124	-0.737068
C185	C	1.238890	-0.020790	-0.403734
C186	C	1.572224	0.312543	-0.070401
C187	C	0.865510	-0.307005	-0.971583
C188	C	1.198843	0.026328	-0.638249
C189	C	1.532177	0.359662	-0.304916
C190	C	0.865507	-0.306997	-1.037019
C191	C	1.198840	0.026337	-0.703686
C192	C	1.532173	0.359670	-0.370353
C193	C	0.945612	-0.401111	-1.037055
C194	C	1.278945	-0.067777	-0.703722
C195	C	1.612278	0.265556	-0.370388
C196	C	0.945609	-0.401123	-0.971620
C197	C	1.278943	-0.067790	-0.638286
C198	C	1.612276	0.265544	-0.304953
C199	C	0.905559	-0.354066	-0.938887
C200	C	1.238893	-0.020733	-0.605554
C201	C	1.572226	0.312600	-0.272221
C202	C	0.905459	-0.354230	-0.139395
C203	C	1.238792	-0.020896	0.193939
C204	C	1.572125	0.312437	0.527272
C205	C	0.905559	-0.354042	-0.069754
C206	C	1.238893	-0.020708	0.263580
C207	C	1.572226	0.312625	0.596913
H208	H	0.548271	-0.439784	-0.374705
H209	H	0.881605	-0.106450	-0.041372
H210	H	1.214938	0.226883	0.291962
C211	C	0.474622	-0.366642	-0.420688
C212	C	0.807955	-0.033309	-0.087355
C213	C	1.141289	0.300024	0.245979
H214	H	0.518269	-0.365814	-0.412586
H215	H	0.851602	-0.032481	-0.079253
H216	H	1.184936	0.300852	0.254081
H217	H	0.463959	-0.326649	-0.447110
H218	H	0.797293	0.006684	-0.113777
H219	H	1.130626	0.340018	0.219556
H220	H	0.463889	-0.411479	-0.440656
H221	H	0.797222	-0.078146	-0.107323
H222	H	1.130555	0.255188	0.226010
C223	C	0.989639	-0.934394	-0.386465
C224	C	1.322972	-0.601061	-0.053131
C225	C	1.656306	-0.267727	0.280202
H226	H	1.013484	-0.900452	-0.410349
H227	H	1.346817	-0.567119	-0.077016
H228	H	1.680150	-0.233785	0.256317
H229	H	0.965669	-0.964387	-0.413738
H230	H	1.299003	-0.631054	-0.080405
H231	H	1.632336	-0.297721	0.252928
H232	H	1.016963	-0.964358	-0.362530
H233	H	1.350296	-0.631024	-0.029197
H234	H	1.683629	-0.297691	0.304136
C235	C	0.337214	-0.366598	-0.420745
C236	C	0.670548	-0.033264	-0.087412
C237	C	1.003881	0.300069	0.245922
H238	H	0.366106	-0.370118	-0.454349
H239	H	0.699440	-0.036785	-0.121015
H240	H	1.032773	0.296548	0.212318
H241	H	0.311729	-0.324421	-0.426323
H242	H	0.645062	0.008912	-0.092990
H243	H	0.978396	0.342246	0.240344
H244	H	0.311653	-0.409252	-0.419879
H245	H	0.644986	-0.075919	-0.086546
H246	H	0.978320	0.257415	0.246788
H247	H	0.832874	-0.923728	-0.229424
H248	H	1.166208	-0.590394	0.103910
H249	H	1.499541	-0.257061	0.437243
C250	C	0.821457	-0.255222	-1.072983
C251	C	1.154790	0.078112	-0.739650
C252	C	1.488124	0.411445	-0.406316
H253	H	0.797610	-0.227196	-1.044115
H254	H	1.130944	0.106137	-0.710781
H255	H	1.464277	0.439470	-0.377448
H256	H	0.794144	-0.283369	-1.098484
H257	H	1.127477	0.049965	-0.765150
H258	H	1.460810	0.383298	-0.431817
H259	H	0.845446	-0.223145	-1.098532
H260	H	1.178779	0.110188	-0.765199
H261	H	1.512112	0.443521	-0.431865
H262	H	0.832824	-0.784285	-0.229402
H263	H	1.166157	-0.450951	0.103931
H264	H	1.499490	-0.117618	0.437265
H265	H	0.978225	-0.439413	-1.063711
H266	H	1.311558	-0.106080	-0.730377
H267	H	1.644891	0.227254	-0.397044
C268	C	1.024098	-0.366274	-0.733876
C269	C	1.357431	-0.032941	-0.400543
C270	C	1.690764	0.300392	-0.067210
H271	H	1.057719	-0.369706	-0.762756
H272	H	1.391052	-0.036373	-0.429423
H273	H	1.724385	0.296961	-0.096090
H274	H	1.023270	-0.408938	-0.708339
H275	H	1.356603	-0.075605	-0.375006
H276	H	1.689937	0.257728	-0.041673
H277	H	1.029616	-0.324096	-0.708365
H278	H	1.362950	0.009238	-0.375032
H279	H	1.696283	0.342571	-0.041699
C280	C	0.135250	-0.255206	-0.218295
C281	C	0.468584	0.078128	0.115038
C282	C	0.801917	0.411461	0.448372
H283	H	0.091596	-0.261945	-0.224037
H284	H	0.424929	0.071388	0.109296
H285	H	0.758262	0.404722	0.442629
H286	H	0.146025	-0.205779	-0.227541
H287	H	0.479359	0.127555	0.105792
H288	H	0.812692	0.460888	0.439126
H289	H	0.145916	-0.265911	-0.176173
H290	H	0.479249	0.067422	0.157161
H291	H	0.812582	0.400756	0.490494
C292	C	1.024099	-0.366249	-0.871285
C293	C	1.357432	-0.032915	-0.537952
C294	C	1.690766	0.300418	-0.204619
H295	H	1.016018	-0.365400	-0.914936
H296	H	1.349352	-0.032066	-0.581603
H297	H	1.682685	0.301267	-0.248269
H298	H	1.044111	-0.411052	-0.860568
H299	H	1.377444	-0.077718	-0.527234
H300	H	1.710777	0.255615	-0.193901
H301	H	1.050473	-0.326211	-0.860587
H302	H	1.383807	0.007123	-0.527254
H303	H	1.717140	0.340456	-0.193920
C304	C	0.989666	-0.452886	-0.935655
C305	C	1.322999	-0.119553	-0.602321
C306	C	1.656332	0.213780	-0.268988
H307	H	1.013524	-0.480898	-0.964523
H308	H	1.346857	-0.147565	-0.631189
H309	H	1.680191	0.185769	-0.297856
H310	H	0.965687	-0.484964	-0.910104
H311	H	1.299020	-0.151631	-0.576770
H312	H	1.632353	0.181702	-0.243437
H313	H	1.016977	-0.424727	-0.910156
H314	H	1.350310	-0.091394	-0.576823
H315	H	1.683644	0.241940	-0.243489
H316	H	0.803142	-0.343577	-0.861786
H317	H	1.136475	-0.010243	-0.528452
H318	H	1.469809	0.323090	-0.195119
C319	C	0.538887	-0.255310	-0.218145
C320	C	0.872220	0.078023	0.115189
C321	C	1.205553	0.411356	0.448522
H322	H	0.495232	-0.262055	-0.223883
H323	H	0.828566	0.071278	0.109450
H324	H	1.161899	0.404611	0.442784
H325	H	0.549656	-0.205880	-0.227386
H326	H	0.882989	0.127453	0.105948
H327	H	1.216322	0.460786	0.439281
H328	H	0.549558	-0.266021	-0.176025
H329	H	0.882891	0.067312	0.157308
H330	H	1.216224	0.400645	0.490642
H331	H	0.803137	-0.343607	-0.743074
H332	H	1.136470	-0.010274	-0.409740
H333	H	1.469803	0.323060	-0.076407
H334	H	0.978151	-0.784006	-0.374983
H335	H	1.311484	-0.450673	-0.041650
H336	H	1.644818	-0.117339	0.291683
H337	H	0.978203	-0.439554	-0.541360
H338	H	1.311537	-0.106221	-0.208027
H339	H	1.644870	0.227112	0.125307
H340	H	0.978207	-0.439515	-0.660074
H341	H	1.311540	-0.106182	-0.326740
H342	H	1.644873	0.227152	0.006593
C343	C	0.821442	-0.255350	-0.531939
C344	C	1.154776	0.077983	-0.198605
C345	C	1.488109	0.411316	0.134728
H346	H	0.797590	-0.227322	-0.560786
H347	H	1.130924	0.106012	-0.227452
H348	H	1.464257	0.439345	0.105881
H349	H	0.845422	-0.223288	-0.506435
H350	H	1.178755	0.110045	-0.173102
H351	H	1.512089	0.443379	0.160232
H352	H	0.794125	-0.283517	-0.506390
H353	H	1.127458	0.049816	-0.173056
H354	H	1.460792	0.383149	0.160277
H355	H	0.832889	-0.268764	-0.660001
H356	H	1.166222	0.064570	-0.326668
H357	H	1.499556	0.397903	0.006666
C358	C	0.676296	-0.255336	-0.218098
C359	C	1.009629	0.077997	0.115236
C360	C	1.342962	0.411330	0.448569
H361	H	0.647434	-0.227265	-0.194283
H362	H	0.980767	0.106068	0.139050
H363	H	1.314101	0.439402	0.472384
H364	H	0.701874	-0.223316	-0.242103
H365	H	1.035208	0.110017	0.091230
H366	H	1.368541	0.443351	0.424563
H367	H	0.701768	-0.283458	-0.190743
H368	H	1.035101	0.049875	0.142590
H369	H	1.368434	0.383209	0.475923
C370	C	0.272698	-0.453182	-0.386233
C371	C	0.606032	-0.119848	-0.052900
C372	C	0.939365	0.213485	0.280434
H373	H	0.316353	-0.446448	-0.380485
H374	H	0.649686	-0.113115	-0.047152
H375	H	0.983019	0.220219	0.286182
H376	H	0.262030	-0.442471	-0.428350
H377	H	0.595363	-0.109137	-0.095016
H378	H	0.928696	0.224196	0.238317
H379	H	0.261927	-0.502615	-0.376992
H380	H	0.595261	-0.169282	-0.043659
H381	H	0.928594	0.164051	0.289675
H382	H	0.666978	-0.439818	-0.374658
H383	H	1.000311	-0.106485	-0.041325
H384	H	1.333645	0.226849	0.292009
C385	C	0.821443	-0.255263	-0.935574
C386	C	1.154777	0.078070	-0.602241
C387	C	1.488110	0.411403	-0.268908
H388	H	0.797584	-0.227241	-0.964420
H389	H	1.130917	0.106092	-0.631087
H390	H	1.464251	0.439426	-0.297754
H391	H	0.845414	-0.223194	-0.910068
H392	H	1.178747	0.110140	-0.576735
H393	H	1.512080	0.443473	-0.243402
H394	H	0.794133	-0.283443	-0.910028
H395	H	1.127467	0.049891	-0.576695
H396	H	1.460800	0.383224	-0.243361
C397	C	0.135284	-0.453146	-0.386282
C398	C	0.468617	-0.119813	-0.052949
C399	C	0.801951	0.213520	0.280384
H400	H	0.091627	-0.446381	-0.380576
H401	H	0.424960	-0.113047	-0.047242
H402	H	0.758294	0.220286	0.286091
H403	H	0.145959	-0.502581	-0.377032
H404	H	0.479292	-0.169248	-0.043699
H405	H	0.812625	0.164086	0.289634
H406	H	0.146064	-0.442442	-0.428395
H407	H	0.479398	-0.109109	-0.095062
H408	H	0.812731	0.224224	0.238272
C409	C	0.272656	-0.255254	-0.218236
C410	C	0.605989	0.078080	0.115097
C411	C	0.939322	0.411413	0.448430
H412	H	0.243793	-0.227185	-0.194420
H413	H	0.577127	0.106148	0.138913
H414	H	0.910460	0.439481	0.472247
H415	H	0.298234	-0.223230	-0.242240
H416	H	0.631567	0.110103	0.091093
H417	H	0.964900	0.443436	0.424427
H418	H	0.298128	-0.283377	-0.190884
H419	H	0.631462	0.049957	0.142449
H420	H	0.964795	0.383290	0.475783
H421	H	0.465039	-0.343574	-0.199758
H422	H	0.798372	-0.010240	0.133575
H423	H	1.131706	0.323093	0.466908
C424	C	0.336965	-0.341914	-0.183678
C425	C	0.670298	-0.008580	0.149655
C426	C	1.003631	0.324753	0.482988
H427	H	0.293317	-0.342772	-0.191774
H428	H	0.626650	-0.009439	0.141559
H429	H	0.959984	0.323895	0.474893
H430	H	0.347682	-0.297094	-0.163682
H431	H	0.681015	0.036240	0.169652
H432	H	1.014348	0.369573	0.502985
H433	H	0.347648	-0.381929	-0.157283
H434	H	0.680981	-0.048596	0.176050
H435	H	1.014315	0.284737	0.509383
