data_functionalizedCrystal
_audit_creation_method	'MofGen! by Chris Wilmer'
_symmetry_space_group_name_H-M	'P1'
_symmetry_Int_Tables_number	1
_symmetry_cell_setting	triclinic
loop_
_symmetry_equiv_pos_as_xyz
  x,y,z
_cell_length_a	18.101398
_cell_length_b	18.101395
_cell_length_c	12.759393
_cell_angle_alpha	90.036289
_cell_angle_beta	90.012430
_cell_angle_gamma	90.027508
loop_
_atom_site_label
_atom_site_type_symbol
_atom_site_fract_x
_atom_site_fract_y
_atom_site_fract_z
Zn1	Zn	1.132136	-0.294874	0.593777
Zn2	Zn	1.132024	-0.418735	0.418082
Zn3	Zn	1.008289	-0.294903	0.418135
Zn4	Zn	1.008244	-0.418668	0.593742
O5	O	1.070174	-0.356795	0.505934
O6	O	1.235754	-0.311320	0.570463
O7	O	1.115583	-0.402349	0.271068
O8	O	1.024784	-0.191266	0.441470
O9	O	1.235672	-0.402321	0.441381
O10	O	1.115773	-0.191245	0.570514
O11	O	1.024675	-0.311369	0.271107
O12	O	0.904650	-0.311304	0.441437
O13	O	1.024706	-0.402207	0.740768
O14	O	0.904617	-0.402235	0.570455
O15	O	1.115729	-0.311255	0.740793
O16	O	1.115539	-0.522359	0.441348
O17	O	1.024598	-0.522310	0.570404
C18	C	0.877763	-0.356766	0.505949
C19	C	0.795449	-0.356771	0.505980
C20	C	0.496358	-0.356815	0.505936
C21	C	0.527687	-0.414302	0.586710
C22	C	0.613305	-0.414122	0.587042
C23	C	0.644740	-0.356794	0.505958
C24	C	0.613688	-0.278789	0.536217
C25	C	0.528043	-0.279134	0.536792
C26	C	0.527901	-0.376645	0.394708
C27	C	0.613551	-0.378356	0.395302
C28	C	0.728600	-0.356777	0.505968
C29	C	0.412498	-0.356826	0.505928
C30	C	1.070072	-0.549206	0.505890
C31	C	1.070096	-0.631520	0.505906
C32	C	1.070181	-0.782228	0.505947
C33	C	1.012934	-0.813582	0.587084
C34	C	1.013150	-0.899200	0.587426
C35	C	1.070263	-0.930611	0.505989
C36	C	1.148339	-0.899431	0.535757
C37	C	1.147960	-0.813786	0.536322
C38	C	1.050052	-0.813873	0.394848
C39	C	1.048378	-0.899525	0.395464
C40	C	1.070315	-1.014470	0.506010
C41	C	1.070135	-0.698369	0.505929
C42	C	1.263335	-0.356825	0.505920
C43	C	1.345649	-0.356838	0.505914
C44	C	1.070225	-0.356720	0.779967
C45	C	1.070247	-0.356689	0.896744
C46	C	1.070296	-0.163633	0.506002
C47	C	1.070348	-0.081319	0.506030
C48	C	1.070164	-0.356816	0.232967
C49	C	1.070286	-0.356639	0.116191
C50	C	1.117650	-0.309326	0.951621
C51	C	1.117667	-0.309299	1.061345
C52	C	1.022878	-0.404004	1.061306
C53	C	1.022858	-0.404027	0.951584
C54	C	1.172378	-0.254650	0.951645
C55	C	1.172395	-0.254624	1.061369
H56	H	0.507070	-0.472336	0.567957
H57	H	1.026112	-0.792006	0.668937
C58	C	0.640995	-0.455893	0.364455
N59	N	0.661680	-0.514289	0.341216
H60	H	1.229748	-0.269989	1.091137
C61	C	1.207576	-0.785757	0.459959
N62	N	1.252486	-0.764648	0.402455
C63	C	0.498639	-0.396799	0.697406
N64	N	0.476759	-0.383612	0.780782
C65	C	0.500525	-0.320080	0.313399
N66	N	0.479900	-0.277475	0.252165
H67	H	1.157050	-0.197297	0.921898
H68	H	1.226839	-0.275215	0.917598
H69	H	1.026538	-0.919632	0.669751
C70	C	0.934943	-0.927687	0.562308
N71	N	0.876033	-0.949140	0.543395
C72	C	0.934451	-0.785845	0.562247
N73	N	0.875336	-0.764947	0.543540
C74	C	0.641669	-0.492269	0.561427
N75	N	0.663028	-0.551133	0.542137
H76	H	0.506286	-0.432553	0.367209
C77	C	0.970701	-0.456118	0.891223
N78	N	0.931412	-0.495354	0.845760
C79	C	0.641010	-0.396422	0.698387
N80	N	0.661877	-0.383098	0.782260
H81	H	1.087034	-0.920918	0.331808
C82	C	0.500045	-0.219303	0.460789
N83	N	0.478960	-0.174236	0.403549
C84	C	0.501078	-0.256400	0.646636
N85	N	0.480772	-0.239270	0.729371
C86	C	0.641169	-0.219359	0.459191
N87	N	0.661859	-0.174599	0.401162
H88	H	0.635156	-0.261668	0.616646
H89	H	0.634950	-0.339526	0.331887
C90	C	1.170972	-0.786717	0.646028
N91	N	1.188303	-0.766333	0.728663
H92	H	1.192181	-0.919772	0.478489
H93	H	0.990919	-0.919914	0.373009
H94	H	1.165695	-0.920821	0.616082
C95	C	1.144729	-0.180991	1.107384
N96	N	1.123899	-0.125529	1.142044
H97	H	0.994065	-0.792339	0.367685
C98	C	1.106376	-0.786474	0.313183
N99	N	1.148801	-0.765832	0.251682
H100	H	0.984294	-0.442544	1.105970
