data_functionalizedCrystal
_audit_creation_method	'MofGen! by Chris Wilmer'
_symmetry_space_group_name_H-M	'P1'
_symmetry_Int_Tables_number	1
_symmetry_cell_setting	triclinic
loop_
_symmetry_equiv_pos_as_xyz
  x,y,z
_cell_length_a	11.026660
_cell_length_b	10.065875
_cell_length_c	14.971486
_cell_angle_alpha	98.799645
_cell_angle_beta	83.900518
_cell_angle_gamma	100.697712
loop_
_atom_site_label
_atom_site_type_symbol
_atom_site_fract_x
_atom_site_fract_y
_atom_site_fract_z
O1	O	1.628440	0.113509	-0.364337
O2	O	2.128440	0.613509	0.135663
O3	O	1.275074	0.113508	-0.321679
O4	O	1.775074	0.613508	0.178321
O5	O	1.461227	0.113499	-0.214326
O6	O	1.961227	0.613499	0.285674
O7	O	1.442287	0.113518	-0.471689
O8	O	1.942287	0.613518	0.028311
O9	O	1.425730	-0.113488	-0.234902
O10	O	1.925730	0.386512	0.265098
O11	O	1.239577	-0.113479	-0.342255
O12	O	1.739577	0.386521	0.157745
O13	O	1.592943	-0.113478	-0.384912
O14	O	2.092943	0.386522	0.115088
Zn15	Zn	1.410624	-0.149518	-0.366850
Zn16	Zn	1.910624	0.350482	0.133150
Zn17	Zn	1.457393	0.149547	-0.339741
Zn18	Zn	1.957393	0.649547	0.160259
O19	O	1.406791	-0.113469	-0.492265
O20	O	1.906791	0.386531	0.007735
C21	C	1.212104	0.000015	-0.324097
C22	C	1.712104	0.500015	0.175903
C23	C	1.077356	0.000014	-0.300637
C24	C	1.577356	0.500014	0.199363
N25	N	1.378715	-0.353621	-0.385353
N26	N	1.878715	0.146379	0.114647
C27	C	0.864376	0.000021	-0.341175
C28	C	1.364376	0.500021	0.158825
C29	C	1.003644	0.000020	-0.365424
C30	C	1.503644	0.500020	0.134576
C31	C	1.446283	-0.421404	-0.346172
C32	C	1.946283	0.078596	0.153828
C33	C	1.421734	-0.578570	-0.360420
C34	C	1.921734	-0.078570	0.139580
C35	C	1.655914	0.000018	-0.382494
C36	C	2.155914	0.500018	0.117506
C37	C	1.790663	0.000028	-0.405953
C38	C	2.290663	0.500028	0.094047
C39	C	1.442631	0.000006	-0.191153
C40	C	1.942631	0.500006	0.308847
C41	C	1.440093	0.000007	-0.091450
C42	C	1.940093	0.500007	0.408550
N43	N	1.489312	0.353651	-0.321233
N44	N	1.989312	0.853651	0.178767
C45	C	1.425387	0.000027	-0.515438
C46	C	1.925387	0.500027	-0.015438
C47	C	1.427926	0.000035	-0.615141
C48	C	1.927926	0.500035	-0.115141
C49	C	1.549453	0.000006	-0.051746
C50	C	2.049453	0.500006	0.448254
C51	C	1.547063	0.000020	0.041938
C52	C	2.047063	0.500020	0.541938
C53	C	1.435309	0.000025	0.095916
C54	C	1.935309	0.500025	0.595916
C55	C	1.325941	0.000030	0.056207
C56	C	1.825941	0.500030	0.556207
C57	C	1.328334	0.000026	-0.037475
C58	C	1.828334	0.500026	0.462525
C59	C	1.320960	0.000035	0.251468
C60	C	1.820960	0.500035	0.751468
C61	C	1.318566	0.000036	0.345156
C62	C	1.818566	0.500036	0.845156
C63	C	1.539689	0.000029	0.330881
C64	C	2.039689	0.500029	0.830881
C65	C	1.542082	0.000025	0.237199
C66	C	2.042082	0.500025	0.737199
C67	C	1.432713	0.000027	0.197496
C68	C	1.932713	0.500027	0.697496
H69	H	0.824378	-0.000004	-0.267767
H70	H	1.324378	0.499996	0.232233
H71	H	1.037383	0.000099	-0.227213
H72	H	1.537383	0.500099	0.272787
Cl73	Cl	1.183465	0.000038	0.201558
Cl74	Cl	1.683465	0.500038	0.701558
H75	H	1.633080	0.000011	0.193251
H76	H	2.133080	0.500011	0.693251
H77	H	0.830657	0.000024	-0.479364
H78	H	1.330657	0.500024	0.020636
Cl79	Cl	1.304348	-0.668600	-0.428496
Cl80	Cl	1.804348	-0.168600	0.071504
H81	H	1.636115	0.000016	0.074259
H82	H	2.136115	0.500016	0.574259
H83	H	1.302689	-0.411944	-0.429442
H84	H	1.802689	0.088056	0.070558
Cl85	Cl	1.563384	-0.331369	-0.277849
Cl86	Cl	2.063384	0.168631	0.222151
Cl87	Cl	1.689949	-0.000014	-0.119597
Cl88	Cl	2.189949	0.499986	0.380403
Cl89	Cl	1.065375	0.000017	-0.478774
Cl90	Cl	1.565375	0.500017	0.021226
H91	H	1.565334	-0.588032	-0.277133
H92	H	2.065334	-0.088032	0.222867
Cl93	Cl	1.677182	0.000033	0.380793
Cl94	Cl	2.177182	0.500033	0.880793
Cl95	Cl	1.178074	0.000041	0.413013
Cl96	Cl	1.678074	0.500041	0.913013
H97	H	1.234951	0.000042	0.100164
H98	H	1.734951	0.500042	0.600164
Cl99	Cl	1.190847	0.000032	-0.087387
Cl100	Cl	1.690847	0.500032	0.412613
