data_functionalizedCrystal
_audit_creation_method	'MofGen! by Chris Wilmer'
_symmetry_space_group_name_H-M	'P1'
_symmetry_Int_Tables_number	1
_symmetry_cell_setting	triclinic
loop_
_symmetry_equiv_pos_as_xyz
  x,y,z
_cell_length_a	16.974800
_cell_length_b	19.288865
_cell_length_c	17.766276
_cell_angle_alpha	90.013634
_cell_angle_beta	93.665488
_cell_angle_gamma	96.736285
loop_
_atom_site_label
_atom_site_type_symbol
_atom_site_fract_x
_atom_site_fract_y
_atom_site_fract_z
O1	O	1.048834	-0.088478	0.001312
O2	O	0.818583	-0.099766	-0.012722
O3	O	0.940361	0.006997	-0.005285
O4	O	0.927055	-0.195241	-0.006125
O5	O	0.940383	0.007010	0.119905
O6	O	0.818604	-0.099752	0.112468
O7	O	1.048855	-0.088464	0.126502
Cu8	Cu	0.933731	-0.094107	0.130916
Cu9	Cu	0.933706	-0.094123	-0.017136
O10	O	0.927076	-0.195227	0.119064
C11	C	0.789136	-0.099332	0.048078
C12	C	0.701363	-0.098050	0.042729
C13	C	0.660143	-0.097439	0.108458
C14	C	0.577672	-0.096223	0.103434
C15	C	0.536422	-0.095624	0.032680
C16	C	0.577648	-0.096234	-0.033055
C17	C	0.660118	-0.097444	-0.028030
C18	C	0.289771	-0.092000	0.010335
C19	C	0.207295	-0.090792	0.005315
C20	C	0.207325	-0.090780	0.141804
C21	C	0.289796	-0.091995	0.146823
C22	C	0.331016	-0.092600	0.081088
N23	N	0.452123	-0.094384	0.027543
N24	N	0.415314	-0.093836	0.086226
C25	C	0.939944	0.032881	0.057286
C26	C	0.938659	0.109986	0.057215
C27	C	1.078302	-0.088899	0.065700
C28	C	1.166075	-0.090180	0.071045
C29	C	0.927494	-0.221111	0.056492
C30	C	0.928779	-0.298217	0.056558
C31	C	1.010113	0.154558	0.061574
C32	C	1.008905	0.227008	0.061488
C33	C	0.936240	0.254882	0.057059
C34	C	0.864776	0.210300	0.052695
C35	C	0.865986	0.137852	0.052773
C36	C	0.879123	0.363273	0.097428
C37	C	0.877917	0.435720	0.097355
C38	C	0.932506	0.478334	0.056814
C39	C	0.988315	0.448494	0.016357
C40	C	0.989525	0.376046	0.016435
C41	C	0.934920	0.333438	0.056973
C42	C	1.002656	0.601464	0.061079
C43	C	1.001445	0.673914	0.060989
C44	C	0.857314	0.657205	0.052203
C45	C	0.858527	0.584756	0.052286
C46	C	0.931200	0.556890	0.056728
N47	N	0.933689	-0.094130	-0.121267
C48	C	0.981396	-0.136315	-0.157757
C49	C	0.981401	-0.136315	-0.236559
C50	C	0.933709	-0.094118	-0.278867
C51	C	0.885992	-0.051931	-0.242368
C52	C	0.885983	-0.051937	-0.163568
C53	C	0.931902	-0.031463	-0.403800
C54	C	0.931918	-0.031456	-0.482598
C55	C	0.933734	-0.094101	-0.521911
C56	C	0.935552	-0.156754	-0.482417
C57	C	0.935542	-0.156760	-0.403617
C58	C	0.933714	-0.094107	-0.364312
C59	C	0.981449	-0.136290	-0.643847
C60	C	0.981449	-0.136292	-0.722650
C61	C	0.886044	-0.051901	-0.728457
C62	C	0.886040	-0.051905	-0.649656
C63	C	0.933747	-0.094098	-0.607355
N64	N	0.933755	-0.094095	0.235047
H65	H	0.173711	-0.090306	-0.052305
F66	F	0.703987	-0.098092	-0.097989
F67	F	1.048916	0.344290	-0.026624
H68	H	1.032767	0.483189	-0.016655
F69	F	1.080000	0.571805	0.065810
H70	H	0.323323	-0.092491	-0.043191
H71	H	1.020249	-0.170670	-0.266275
H72	H	1.059634	0.710205	0.064535
H73	H	0.847196	-0.017551	-0.619945
H74	H	1.067094	0.263305	0.065035
H75	H	0.930416	0.019553	-0.371797
H76	H	0.937020	-0.207775	-0.371464
H77	H	0.173756	-0.090286	0.195322
F78	F	0.779977	0.686865	0.047485
H79	H	0.800341	0.548464	0.048741
F80	F	1.032166	-0.181225	-0.112742
H81	H	0.937031	-0.207766	-0.514424
F82	F	0.533747	-0.095575	-0.108357
H83	H	0.847159	-0.017575	-0.276820
F84	F	0.821019	0.317927	0.140581
H85	H	1.069289	0.131875	0.065188
F86	F	0.818523	0.467472	0.140415
H87	H	0.847132	-0.017584	-0.133859
H88	H	1.020291	-0.170649	-0.609404
F89	F	0.835281	-0.006996	-0.773480
H90	H	0.693722	-0.097932	0.166074
F91	F	0.787440	0.239966	0.047976
F92	F	0.533805	-0.095582	0.173393
H93	H	0.807797	0.101561	0.049224
H94	H	1.020296	-0.170648	-0.752359
H95	H	0.323377	-0.092479	0.204439
F96	F	0.929979	0.035224	-0.524624
