data_functionalizedCrystal
_audit_creation_method	'MofGen! by Chris Wilmer'
_symmetry_space_group_name_H-M	'P1'
_symmetry_Int_Tables_number	1
_symmetry_cell_setting	triclinic
loop_
_symmetry_equiv_pos_as_xyz
  x,y,z
_cell_length_a	10.654562
_cell_length_b	14.853559
_cell_length_c	9.130313
_cell_angle_alpha	90.000938
_cell_angle_beta	89.996930
_cell_angle_gamma	84.060779
loop_
_atom_site_label
_atom_site_type_symbol
_atom_site_fract_x
_atom_site_fract_y
_atom_site_fract_z
O1	O	1.666503	0.126677	-0.121888
O2	O	1.300901	0.138729	-0.121869
O3	O	1.493474	0.001525	-0.121877
O4	O	1.473931	0.263881	-0.121879
O5	O	1.493471	0.001529	0.121721
O6	O	1.300899	0.138733	0.121730
O7	O	1.666501	0.126681	0.121711
Cu8	Cu	1.483700	0.132707	0.143963
Cu9	Cu	1.483702	0.132703	-0.144121
O10	O	1.473929	0.263884	0.121719
C11	C	1.254112	0.137844	-0.000067
C12	C	1.114697	0.135189	-0.000060
C13	C	1.049178	0.133953	0.132714
C14	C	0.918181	0.131465	0.132690
C15	C	0.918234	0.131455	-0.132895
C16	C	1.049229	0.133935	-0.132869
C17	C	1.114645	0.135206	0.265523
C18	C	1.049126	0.133971	0.398308
C19	C	0.918130	0.131484	0.398284
C20	C	0.852653	0.130232	0.265474
C21	C	1.492589	-0.032066	-0.000081
C22	C	1.489941	-0.132165	-0.000089
C23	C	1.478710	-0.555402	-0.132874
C24	C	1.478707	-0.555393	0.132707
C25	C	1.481205	-0.461346	0.132708
C26	C	1.482454	-0.414323	-0.000084
C27	C	1.481204	-0.461347	-0.132877
C28	C	1.482442	-0.414315	0.265499
C29	C	1.484939	-0.320262	0.265505
C30	C	1.486197	-0.273238	0.132711
C31	C	1.484948	-0.320267	-0.000087
C32	C	1.486197	-0.273244	-0.132879
C33	C	1.484958	-0.320273	-0.265679
C34	C	1.482462	-0.414322	-0.265671
C35	C	1.488692	-0.179188	0.132703
C36	C	1.488692	-0.179188	-0.132882
C37	C	1.713291	0.127566	-0.000094
C38	C	1.852705	0.130221	-0.000111
C39	C	1.474813	0.297476	-0.000081
C40	C	1.477461	0.397574	-0.000082
N41	N	1.483707	0.132710	0.346586
N42	N	1.483705	0.132693	-0.346744
C43	C	1.569000	0.071977	0.423234
C44	C	1.568996	0.071966	0.576571
C45	C	1.398403	0.193429	0.576598
C46	C	1.398402	0.193435	0.423263
C47	C	1.654305	0.011252	0.346556
C48	C	1.739605	-0.049486	0.423204
C49	C	1.739602	-0.049496	0.576541
C50	C	1.654298	0.011230	0.653230
H51	H	1.221308	0.137234	0.265558
H52	H	1.328947	0.242888	0.360856
C53	C	1.490066	-0.127470	-0.278967
N54	N	1.491099	-0.088517	-0.388999
H55	H	1.102447	0.134983	0.506437
C56	C	1.304577	0.260224	0.660961
N57	N	1.233907	0.310537	0.724503
H58	H	1.477706	-0.593698	-0.240996
H59	H	1.485965	-0.281973	-0.373798
C60	C	0.708553	0.127491	0.265455
N61	N	0.600017	0.125432	0.265443
C62	C	0.846061	0.130128	0.544348
N63	N	0.791781	0.129114	0.654369
C64	C	1.833416	-0.116320	0.660850
N65	N	1.904080	-0.166654	0.724348
C66	C	1.121303	0.135303	-0.278928
N67	N	1.175589	0.136332	-0.388943
H68	H	0.864912	0.130437	-0.241022
C69	C	1.481085	-0.466059	-0.411737
N70	N	1.480042	-0.505031	-0.521753
C71	C	1.486311	-0.268540	0.411586
N72	N	1.487349	-0.229583	0.521616
H73	H	1.477682	-0.593684	0.240820
H74	H	1.481419	-0.452607	0.373610
H75	H	1.489673	-0.140899	0.240827
H76	H	1.654318	0.011257	0.221701
H77	H	1.654294	0.011210	0.778087
H78	H	1.809050	-0.098932	0.360757
