data_functionalizedCrystal
_audit_creation_method	'MofGen! by Chris Wilmer'
_symmetry_space_group_name_H-M	'P1'
_symmetry_Int_Tables_number	1
_symmetry_cell_setting	triclinic
loop_
_symmetry_equiv_pos_as_xyz
  x,y,z
_cell_length_a	17.699097
_cell_length_b	12.376717
_cell_length_c	17.699092
_cell_angle_alpha	77.306940
_cell_angle_beta	83.287399
_cell_angle_gamma	77.326329
loop_
_atom_site_label
_atom_site_type_symbol
_atom_site_fract_x
_atom_site_fract_y
_atom_site_fract_z
O1	O	0.991142	0.094090	0.082810
O2	O	0.770768	0.094071	0.095254
O3	O	0.887178	0.094078	-0.021156
O4	O	0.874731	0.094083	0.199220
O5	O	0.913005	-0.093922	0.004714
O6	O	0.796594	-0.093930	0.121124
O7	O	1.016968	-0.093911	0.108679
Zn8	Zn	0.910882	-0.123769	0.119009
Zn9	Zn	0.876854	0.123930	0.084924
O10	O	0.900558	-0.093918	0.225090
C11	C	0.755484	0.000068	0.107742
C12	C	0.671468	0.000061	0.106400
C13	C	0.141665	0.102586	0.084063
C14	C	0.220610	0.102580	0.085320
C15	C	0.274155	0.000097	0.100052
C16	C	0.248752	-0.102388	0.113519
C17	C	0.169809	-0.102382	0.112257
C18	C	0.567121	-0.102418	0.118611
C19	C	0.646068	-0.102417	0.119875
C20	C	0.617921	0.102544	0.091674
C21	C	0.538978	0.102551	0.090411
C22	C	0.513583	0.000067	0.103875
C23	C	0.427982	0.000074	0.102511
C24	C	0.359754	0.000088	0.101422
N25	N	0.934111	-0.292818	0.142271
C26	C	0.988062	-0.351978	0.196256
C27	C	1.004340	-0.470311	0.212522
C28	C	0.966664	-0.529494	0.174807
C29	C	0.912707	-0.470334	0.120824
C30	C	0.896432	-0.351990	0.104553
C31	C	0.875034	-0.529506	0.083103
C32	C	0.821078	-0.470345	0.029121
C33	C	0.804805	-0.352013	0.012852
C34	C	0.842481	-0.292829	0.050567
C35	C	0.891310	-0.647850	0.099375
C36	C	0.799680	-0.647862	0.007671
C37	C	0.783402	-0.529529	-0.008594
C38	C	1.032251	0.000094	0.096191
C39	C	1.116267	0.000109	0.097532
C40	C	0.899644	0.000080	-0.036419
C41	C	0.898302	0.000085	-0.120437
N42	N	0.853631	0.292978	0.061657
C43	C	0.883596	0.102565	-0.174006
C44	C	0.882330	0.102567	-0.252950
C45	C	0.895778	0.000086	-0.278323
C46	C	0.910483	-0.102402	-0.224746
C47	C	0.911743	-0.102402	-0.145804
C48	C	0.905403	-0.102404	-0.543111
C49	C	0.904145	-0.102396	-0.622061
C50	C	0.875991	0.102565	-0.650257
C51	C	0.877250	0.102565	-0.571315
C52	C	0.891952	0.000077	-0.517745
C53	C	0.893322	0.000077	-0.432146
C54	C	0.894413	0.000085	-0.363921
C55	C	0.888092	0.000083	0.240352
C56	C	0.889432	0.000085	0.324369
H57	H	0.689664	-0.185877	0.131872
Cl58	Cl	1.035425	-0.277571	0.243655
Cl59	Cl	0.736969	-0.277642	-0.055006
H60	H	0.292356	-0.185833	0.125509
Cl61	Cl	0.649851	0.231384	0.074742
H62	H	0.829229	-0.196473	0.037328
H63	H	0.739470	-0.481344	-0.052548
Cl64	Cl	0.752318	-0.722255	-0.039749
H65	H	0.915094	-0.185853	-0.642714
H66	H	0.241285	0.186027	0.074347
H67	H	0.870358	0.186016	-0.296564
Cl68	Cl	0.866695	0.231406	-0.142118
Cl69	Cl	0.923873	-0.231246	-0.475775
Cl70	Cl	0.987126	-0.678258	0.195259
H71	H	0.098072	0.186040	0.072072
Cl72	Cl	0.930231	-0.231240	-0.078459
Cl73	Cl	0.927379	-0.231236	-0.256643
H74	H	0.864016	0.186015	-0.693883
Cl75	Cl	0.959137	-0.722209	0.167237
H76	H	1.048272	-0.518471	0.256473
H77	H	0.495384	0.186004	0.078419
Cl78	Cl	0.137882	-0.231215	0.129183
Cl79	Cl	0.535203	-0.231256	0.135557
H80	H	0.866304	0.186015	-0.550662
