data_functionalizedCrystal
_audit_creation_method	'MofGen! by Chris Wilmer'
_symmetry_space_group_name_H-M	'P1'
_symmetry_Int_Tables_number	1
_symmetry_cell_setting	triclinic
loop_
_symmetry_equiv_pos_as_xyz
  x,y,z
_cell_length_a	19.077115
_cell_length_b	19.076808
_cell_length_c	12.759393
_cell_angle_alpha	92.334138
_cell_angle_beta	92.319420
_cell_angle_gamma	89.927626
loop_
_atom_site_label
_atom_site_type_symbol
_atom_site_fract_x
_atom_site_fract_y
_atom_site_fract_z
Zn1	Zn	1.063027	-0.322959	0.638313
Zn2	Zn	1.058210	-0.440486	0.455279
Zn3	Zn	0.945512	-0.318265	0.455887
Zn4	Zn	0.940766	-0.435708	0.624165
O5	O	1.001879	-0.379354	0.543411
O6	O	1.160720	-0.342513	0.619699
O7	O	1.043231	-0.424308	0.308334
O8	O	0.965102	-0.220551	0.486262
O9	O	1.157181	-0.428860	0.485225
O10	O	1.051441	-0.224000	0.620290
O11	O	0.960432	-0.334513	0.308782
O12	O	0.846550	-0.329879	0.472543
O13	O	0.957014	-0.420716	0.773066
O14	O	0.843064	-0.416164	0.596176
O15	O	1.046839	-0.337880	0.783461
O16	O	1.038629	-0.538188	0.471506
O17	O	0.952343	-0.534677	0.595586
C18	C	0.819311	-0.371994	0.532891
C19	C	0.741207	-0.368863	0.528414
C20	C	0.994467	-0.561931	0.531968
C21	C	0.991361	-0.640040	0.527112
C22	C	1.034820	-0.678470	0.594664
C23	C	1.031898	-0.751862	0.590102
C24	C	0.985521	-0.786823	0.517983
C25	C	0.942057	-0.748388	0.450429
C26	C	0.944976	-0.674997	0.454996
C27	C	0.971972	-1.006133	0.496840
C28	C	0.969058	-1.079529	0.492276
C29	C	1.058899	-1.082998	0.631951
C30	C	1.061816	-1.009606	0.636508
C31	C	1.018350	-0.971177	0.568957
N32	N	0.982535	-0.861842	0.513317
N33	N	1.021333	-0.896159	0.573629
C34	C	0.301757	-0.346371	0.496319
C35	C	0.375144	-0.349318	0.500531
C36	C	0.410036	-0.395789	0.566892
C37	C	0.371536	-0.439311	0.629053
C38	C	0.298151	-0.436361	0.624846
C39	C	0.629322	-0.409435	0.586369
C40	C	0.702712	-0.412383	0.590568
C41	C	0.706316	-0.322389	0.462047
C42	C	0.632928	-0.319445	0.457842
C43	C	0.594435	-0.362965	0.520007
N44	N	0.485049	-0.398803	0.571196
N45	N	0.519424	-0.359947	0.515708
C46	C	1.185160	-0.386743	0.553973
C47	C	1.263263	-0.389892	0.558473
C48	C	1.001934	-0.379289	0.817452
C49	C	1.001958	-0.379261	0.934231
C50	C	1.009338	-0.196066	0.554922
C51	C	1.012517	-0.117959	0.559828
C52	C	1.001866	-0.379370	0.270442
C53	C	1.001987	-0.379206	0.153683
C54	C	1.048733	-0.336121	0.994508
C55	C	1.048746	-0.336091	1.104235
C56	C	0.955206	-0.422347	1.093398
C57	C	0.955190	-0.422373	0.983673
H58	H	1.072588	-0.650010	0.653386
O59	O	0.599149	-0.274238	0.393359
C60	C	0.648862	-0.236469	0.339383
H61	H	0.701286	-0.236174	0.385570
H62	H	0.629901	-0.180241	0.330571
H63	H	0.655598	-0.262448	0.258362
H64	H	1.094285	-1.114295	0.686949
O65	O	0.909685	-0.464150	1.141379
C66	C	0.840272	-0.445987	1.111468
H67	H	0.839004	-0.389711	1.084631
H68	H	0.805321	-0.450626	1.181242
H69	H	0.820362	-0.482934	1.044348
O70	O	1.094182	-0.294174	0.946647
C71	C	1.135480	-0.256104	1.023384
H72	H	1.106808	-0.252494	1.100090
H73	H	1.145224	-0.201047	0.995594
H74	H	1.187803	-0.283985	1.036520
H75	H	1.086835	-0.300962	1.153308
O76	O	0.923904	-1.113459	0.422328
C77	C	0.854572	-1.092752	0.442268
H78	H	0.851799	-1.072393	0.527246
H79	H	0.817946	-1.139660	0.428178
H80	H	0.837907	-1.049461	0.387506
H81	H	0.936582	-0.974850	0.441836
O82	O	0.736497	-0.457542	0.655134
C83	C	0.686787	-0.495332	0.709084
H84	H	0.635643	-0.464451	0.711601
H85	H	0.707715	-0.503743	0.792586
H86	H	0.676805	-0.548360	0.666695
O87	O	0.405509	-0.484359	0.693579
C88	C	0.449591	-0.446115	0.766490
H89	H	0.462736	-0.393271	0.733540
H90	H	0.500039	-0.476825	0.781658
H91	H	0.421648	-0.437322	0.843230
H92	H	0.597989	-0.444874	0.636984
H93	H	1.067292	-0.783149	0.645102
H94	H	0.266809	-0.471798	0.675461
H95	H	0.406483	-0.313882	0.449913
O96	O	0.909822	-0.464386	0.925157
C97	C	0.922318	-0.535037	0.948470
H98	H	0.978313	-0.540844	0.981655
H99	H	0.914842	-0.569523	0.873777
H100	H	0.883904	-0.551873	1.008827
O101	O	0.897068	-0.782458	0.380402
C102	C	0.903800	-0.855476	0.390869
H103	H	0.957620	-0.867618	0.427850
H104	H	0.897952	-0.883218	0.310154
H105	H	0.861271	-0.874636	0.443065
H106	H	1.099580	-0.981142	0.695233
H107	H	0.909586	-0.643708	0.399990
H108	H	0.273355	-0.308530	0.442280
H109	H	0.737664	-0.286956	0.411437
