data_functionalizedCrystal
_audit_creation_method	'MofGen! by Chris Wilmer'
_symmetry_space_group_name_H-M	'P1'
_symmetry_Int_Tables_number	1
_symmetry_cell_setting	triclinic
loop_
_symmetry_equiv_pos_as_xyz
  x,y,z
_cell_length_a	11.026607
_cell_length_b	15.944551
_cell_length_c	10.065875
_cell_angle_alpha	98.788968
_cell_angle_beta	79.302338
_cell_angle_gamma	96.042377
loop_
_atom_site_label
_atom_site_type_symbol
_atom_site_fract_x
_atom_site_fract_y
_atom_site_fract_z
O1	O	1.627949	0.342077	-0.113512
O2	O	1.274640	0.302024	-0.113511
O3	O	1.460941	0.201235	-0.113499
O4	O	1.441648	0.442866	-0.113524
O5	O	1.425416	0.220553	0.113487
O6	O	1.239115	0.321342	0.113475
O7	O	1.592424	0.361394	0.113475
Zn8	Zn	1.410129	0.344435	0.149514
Zn9	Zn	1.456935	0.318983	-0.149550
O10	O	1.406123	0.462183	0.113463
C11	C	1.211666	0.304294	-0.000018
C12	C	1.076950	0.282267	-0.000017
C13	C	1.003150	0.343086	-0.000024
C14	C	0.863914	0.320322	-0.000024
C15	C	1.442377	0.179479	-0.000006
C16	C	1.439975	0.085870	-0.000005
C17	C	1.318759	-0.147313	-0.000024
C18	C	1.357533	-0.190296	0.111894
C19	C	1.435632	-0.085514	-0.000015
C20	C	1.392586	-0.209321	-0.111896
C21	C	1.431429	-0.251063	-0.000031
C22	C	1.474424	-0.127256	0.111995
C23	C	1.509476	-0.146286	-0.111896
C24	C	1.548331	-0.189236	0.000049
C25	C	1.438050	0.009855	-0.000005
C26	C	1.429019	-0.346429	-0.000032
C27	C	1.655399	0.359124	-0.000022
C28	C	1.790116	0.381150	-0.000031
C29	C	1.424687	0.483939	-0.000034
C30	C	1.427090	0.577548	-0.000043
N31	N	1.378194	0.361806	0.353617
N32	N	1.488879	0.301607	-0.353654
C33	C	1.445816	0.325021	0.421401
C34	C	1.421248	0.338398	0.578566
H35	H	1.037057	0.213342	-0.000045
O36	O	0.837482	0.463430	0.000021
C37	C	0.741833	0.515554	-0.000023
H38	H	0.649060	0.482738	0.042952
H39	H	0.758082	0.579116	0.065871
H40	H	0.741012	0.526959	-0.108923
O41	O	1.515587	-0.084758	0.224959
C42	C	1.517328	0.003656	0.223615
H43	H	1.449809	0.016432	0.157287
H44	H	1.488871	0.036607	0.332126
H45	H	1.614710	0.029425	0.180348
H46	H	1.043047	0.412009	-0.000024
H47	H	1.521895	0.283620	0.363081
O48	O	1.287351	0.411083	0.423334
C49	C	1.199413	0.361869	0.505982
H50	H	1.244186	0.305156	0.527241
H51	H	1.164721	0.402575	0.606524
H52	H	1.118224	0.338082	0.451017
H53	H	0.824027	0.251392	-0.000052
H54	H	1.221730	-0.128661	0.000088
H55	H	1.564962	0.260203	0.588030
H56	H	1.293291	-0.209825	0.206512
O57	O	1.664134	-0.211225	0.000360
C58	C	1.706802	-0.168795	0.118494
H59	H	1.624283	-0.150435	0.200595
H60	H	1.763306	-0.212696	0.157556
H61	H	1.767318	-0.108948	0.092861
O62	O	1.330400	0.387678	0.648277
C63	C	1.242461	0.338463	0.730926
H64	H	1.287234	0.281750	0.752185
H65	H	1.207769	0.379169	0.831467
H66	H	1.161272	0.314676	0.675960
H67	H	1.357946	-0.244926	-0.206521
O68	O	1.585911	-0.123023	-0.224915
C69	C	1.542423	-0.165261	-0.342686
H70	H	1.439290	-0.184701	-0.315872
H71	H	1.558099	-0.120799	-0.423900
H72	H	1.594713	-0.224438	-0.383519
