data_functionalizedCrystal
_audit_creation_method	'MofGen! by Chris Wilmer'
_symmetry_space_group_name_H-M	'P1'
_symmetry_Int_Tables_number	1
_symmetry_cell_setting	triclinic
loop_
_symmetry_equiv_pos_as_xyz
  x,y,z
_cell_length_a	19.121102
_cell_length_b	19.120786
_cell_length_c	12.645323
_cell_angle_alpha	92.471912
_cell_angle_beta	92.461268
_cell_angle_gamma	89.915559
loop_
_atom_site_label
_atom_site_type_symbol
_atom_site_fract_x
_atom_site_fract_y
_atom_site_fract_z
Zn1	Zn	1.059885	-0.324914	0.646623
Zn2	Zn	1.054789	-0.442162	0.461463
Zn3	Zn	0.942641	-0.319930	0.462150
Zn4	Zn	0.937613	-0.437111	0.631469
O5	O	0.998732	-0.381029	0.550426
O6	O	1.157314	-0.344667	0.628116
O7	O	1.039883	-0.425976	0.313203
O8	O	0.962430	-0.222482	0.493250
O9	O	1.153570	-0.430808	0.492080
O10	O	1.048569	-0.226144	0.628782
O11	O	0.957488	-0.336172	0.313707
O12	O	0.843868	-0.331275	0.478555
O13	O	0.953862	-0.422200	0.781830
O14	O	0.840175	-0.417367	0.602954
O15	O	1.043694	-0.339769	0.792964
O16	O	1.035008	-0.539601	0.477385
O17	O	0.948920	-0.535891	0.602288
C18	C	0.816584	-0.373233	0.539185
C19	C	0.738659	-0.369914	0.534400
C20	C	0.700143	-0.413247	0.596809
C21	C	0.626925	-0.410119	0.592318
C22	C	0.592225	-0.363663	0.525413
C23	C	0.630747	-0.320325	0.463002
C24	C	0.703963	-0.323450	0.467499
C25	C	0.371253	-0.351980	0.508607
C26	C	0.298031	-0.348860	0.504113
C27	C	0.294215	-0.438654	0.633431
C28	C	0.367433	-0.441777	0.637916
C29	C	0.405948	-0.398437	0.575510
C30	C	0.517384	-0.360466	0.520819
C31	C	0.480788	-0.401630	0.580110
C32	C	0.990885	-0.563186	0.538142
C33	C	0.987592	-0.641116	0.532926
C34	C	1.030860	-0.679572	0.601093
C35	C	1.027763	-0.752795	0.596194
C36	C	0.981402	-0.787561	0.523122
C37	C	0.938129	-0.749099	0.454952
C38	C	0.941223	-0.675877	0.459857
C39	C	0.969815	-1.008552	0.504784
C40	C	0.966726	-1.081780	0.499882
C41	C	1.056359	-1.085470	0.641125
C42	C	1.059452	-1.012247	0.646020
C43	C	1.016177	-0.973791	0.577854
C44	C	0.978237	-0.862407	0.518110
C45	C	1.019339	-0.898947	0.582871
C46	C	1.181591	-0.388857	0.561712
C47	C	1.259515	-0.392193	0.566521
C48	C	0.998786	-0.380977	0.826938
C49	C	0.998809	-0.380955	0.944772
C50	C	1.006629	-0.198163	0.562783
C51	C	1.009994	-0.120236	0.568048
C52	C	0.998721	-0.381032	0.274996
C53	C	0.998842	-0.380863	0.157185
C54	C	0.942139	-0.432550	1.105338
C55	C	0.942270	-0.432823	0.982769
C56	C	1.071820	-0.404163	0.992488
C57	C	1.071508	-0.404489	1.115045
C58	C	0.983178	-0.305881	1.115813
C59	C	0.981511	-0.306255	0.993075
H60	H	0.402604	-0.316695	0.457782
H61	H	0.934580	-0.977247	0.449278
H62	H	1.068615	-0.651271	0.660592
H63	H	1.097203	-0.983942	0.705521
H64	H	0.952115	-0.487723	1.133235
N65	N	0.928243	-0.899908	0.439286
H66	H	0.901302	-0.864438	0.396837
H67	H	0.894500	-0.928911	0.478358
H68	H	0.900378	-0.777411	0.395459
H69	H	0.262848	-0.473937	0.684240
H70	H	1.063001	-0.784103	0.651695
N71	N	0.260614	-0.298762	0.431917
H72	H	0.229011	-0.325933	0.378933
H73	H	0.296177	-0.271805	0.393139
H74	H	1.091590	-1.116788	0.696623
H75	H	0.952352	-0.488345	0.950517
H76	H	0.595568	-0.445406	0.643137
N77	N	0.593324	-0.270231	0.390818
H78	H	0.541096	-0.274833	0.397427
H79	H	0.605641	-0.281642	0.315143
N80	N	0.916722	-1.119280	0.421063
H81	H	0.889775	-1.083808	0.378624
H82	H	0.882983	-1.148286	0.460139
N83	N	1.089584	-0.477216	1.149420
H84	H	1.097679	-0.508763	1.084974
H85	H	1.049704	-0.496236	1.189465
H86	H	1.115018	-0.368647	1.149837
H87	H	0.905989	-0.644567	0.404350
H88	H	0.395680	-0.479608	0.692395
H89	H	1.057084	-0.870638	0.642370
N90	N	1.129104	-0.356055	0.960708
H91	H	1.108228	-0.318666	0.914961
H92	H	1.164566	-0.383988	0.919638
H93	H	0.888030	-0.417935	0.950141
H94	H	0.931033	-0.285342	1.144690
N95	N	0.870064	-0.412973	1.140976
H96	H	0.873465	-0.370411	1.191081
H97	H	0.849611	-0.453321	1.178373
N98	N	1.090295	-0.476156	0.948379
H99	H	1.053505	-0.510801	0.967254
H100	H	1.137374	-0.490564	0.979574
H101	H	0.735323	-0.288160	0.416685
H102	H	0.927797	-0.288811	0.961648
H103	H	1.024517	-0.267333	1.149975
N104	N	0.737567	-0.463359	0.668963
H105	H	0.702054	-0.490334	0.707818
H106	H	0.769189	-0.436159	0.721882
N107	N	0.518207	-0.451739	0.652268
H108	H	0.549827	-0.424587	0.705251
H109	H	0.547133	-0.485473	0.608695
N110	N	0.479948	-0.310383	0.448630
H111	H	0.450972	-0.276633	0.492098
H112	H	0.448375	-0.337616	0.395683
N113	N	1.032553	-0.252206	0.959295
H114	H	1.067772	-0.275481	0.911993
H115	H	1.057690	-0.229895	1.024041
