data_functionalizedCrystal
_audit_creation_method	'MofGen! by Chris Wilmer'
_symmetry_space_group_name_H-M	'P1'
_symmetry_Int_Tables_number	1
_symmetry_cell_setting	triclinic
loop_
_symmetry_equiv_pos_as_xyz
  x,y,z
_cell_length_a	10.686220
_cell_length_b	12.645330
_cell_length_c	10.686551
_cell_angle_alpha	85.595904
_cell_angle_beta	90.308082
_cell_angle_gamma	94.399208
loop_
_atom_site_label
_atom_site_type_symbol
_atom_site_fract_x
_atom_site_fract_y
_atom_site_fract_z
Zn1	Zn	1.972274	-0.258449	-0.562395
Zn2	Zn	1.956034	-0.450325	-0.352642
Zn3	Zn	1.746391	-0.285568	-0.368713
Zn4	Zn	1.762464	-0.448176	-0.578420
O5	O	1.859291	-0.360629	-0.465542
O6	O	2.145662	-0.273452	-0.521138
O7	O	1.914701	-0.440718	-0.179229
O8	O	1.776424	-0.133617	-0.394424
O9	O	2.133731	-0.414422	-0.367034
O10	O	1.942379	-0.113693	-0.536721
O11	O	1.760677	-0.319671	-0.191036
O12	O	1.572980	-0.317588	-0.409963
O13	O	1.803819	-0.410760	-0.751839
O14	O	1.584790	-0.437056	-0.564034
O15	O	1.957965	-0.271369	-0.740065
O16	O	1.930287	-0.598393	-0.382573
O17	O	1.788072	-0.596814	-0.548451
C18	C	1.533369	-0.380032	-0.490482
C19	C	1.393940	-0.388356	-0.501181
C20	C	1.859198	-0.636066	-0.465532
C21	C	1.859276	-0.753889	-0.465560
C22	C	1.770231	-0.920460	-0.570182
C23	C	1.769713	-0.797951	-0.569908
C24	C	1.813339	-0.809805	-0.336095
C25	C	1.812795	-0.932397	-0.336731
C26	C	1.994766	-0.910703	-0.489286
C27	C	1.994173	-0.787944	-0.492239
C28	C	2.186485	-0.341151	-0.440506
C29	C	2.325916	-0.332851	-0.429837
C30	C	1.884497	-0.337800	-0.792742
C31	C	1.895238	-0.328071	-0.932175
C32	C	1.859420	-0.084114	-0.465578
C33	C	1.859475	0.033721	-0.465593
C34	C	1.834255	-0.383289	-0.139610
C35	C	1.823757	-0.392705	-0.000159
H36	H	1.799630	-0.759649	-0.666223
O37	O	1.977953	-0.253196	-0.990192
C38	C	1.970644	-0.259831	-1.121162
H39	H	1.875175	-0.299094	-1.146340
H40	H	1.982983	-0.176475	-1.170406
H41	H	2.047861	-0.309288	-1.152647
O42	O	1.383477	-0.268544	-0.347097
C43	C	1.292244	-0.218589	-0.282934
H44	H	1.198459	-0.267826	-0.285591
H45	H	1.322567	-0.211809	-0.181242
H46	H	1.281931	-0.135737	-0.330081
H47	H	1.345505	-0.442255	-0.570445
H48	H	1.799967	-0.941713	-0.666835
O49	O	1.694385	-0.975844	-0.311599
C50	C	1.611579	-0.936617	-0.404053
H51	H	1.666497	-0.908276	-0.493089
H52	H	1.537615	-1.002568	-0.425592
H53	H	1.563663	-0.867290	-0.368240
H54	H	1.669620	-0.776137	-0.555012
H55	H	1.874426	-0.963244	-0.256692
H56	H	2.028631	-0.750422	-0.587469
H57	H	1.875831	-0.781752	-0.256484
O58	O	1.696171	-0.782618	-0.309809
C59	C	1.656306	-0.833536	-0.193255
H60	H	1.741721	-0.854610	-0.134834
H61	H	1.599626	-0.777917	-0.141232
H62	H	1.595335	-0.909251	-0.209448
O63	O	1.740922	-0.467696	-0.942547
C64	C	1.676598	-0.525821	-1.033748
H65	H	1.735087	-0.519981	-1.123256
H66	H	1.660300	-0.612764	-0.996809
H67	H	1.582396	-0.491721	-1.054926
H68	H	2.034687	-0.933015	-0.581551
O69	O	2.078559	-0.751566	-0.406856
C70	C	2.041656	-0.793522	-0.285451
H71	H	1.978537	-0.869716	-0.292409
H72	H	2.128422	-0.811856	-0.227667
H73	H	1.988171	-0.732924	-0.238107
O74	O	1.651605	-0.966212	-0.552883
C75	C	1.614003	-1.019578	-0.659553
H76	H	1.700584	-1.039876	-0.711952
H77	H	1.554751	-1.095928	-0.629014
H78	H	1.556269	-0.966087	-0.723946
O79	O	2.074089	-0.946184	-0.398209
C80	C	2.007721	-1.020825	-0.313410
H81	H	1.920970	-1.056832	-0.361731
H82	H	2.070689	-1.086524	-0.281402
H83	H	1.977839	-0.979479	-0.228530
