data_functionalizedCrystal
_audit_creation_method	'MofGen! by Chris Wilmer'
_symmetry_space_group_name_H-M	'P1'
_symmetry_Int_Tables_number	1
_symmetry_cell_setting	triclinic
loop_
_symmetry_equiv_pos_as_xyz
  x,y,z
_cell_length_a	12.645331
_cell_length_b	12.645330
_cell_length_c	12.645324
_cell_angle_alpha	90.030867
_cell_angle_beta	89.983975
_cell_angle_gamma	89.974579
loop_
_atom_site_label
_atom_site_type_symbol
_atom_site_fract_x
_atom_site_fract_y
_atom_site_fract_z
Zn1	Zn	1.620672	0.421981	-0.599257
Zn2	Zn	1.620526	0.599290	-0.421999
Zn3	Zn	1.443385	0.422039	-0.422022
Zn4	Zn	1.443342	0.599200	-0.599236
O5	O	1.531981	0.510627	-0.510629
O6	O	1.769000	0.445514	-0.575742
O7	O	1.596985	0.575839	-0.273655
O8	O	1.466982	0.273684	-0.445551
O9	O	1.768893	0.575783	-0.445512
O10	O	1.597233	0.273641	-0.575764
O11	O	1.466841	0.445613	-0.273672
O12	O	1.295032	0.445526	-0.445531
O13	O	1.466908	0.575630	-0.747586
O14	O	1.295000	0.575686	-0.575730
O15	O	1.597191	0.445427	-0.747601
O16	O	1.596943	0.747625	-0.445492
O17	O	1.466766	0.747559	-0.575707
C18	C	1.256551	0.510603	-0.510631
C19	C	1.138721	0.510619	-0.510658
C20	C	0.971173	0.592951	-0.592138
C21	C	1.093733	0.592685	-0.592479
C22	C	1.094260	0.398960	-0.541177
C23	C	0.971662	0.399462	-0.541751
C24	C	0.971471	0.539045	-0.398399
C25	C	1.094077	0.541487	-0.399004
C26	C	1.531863	0.786057	-0.510618
C27	C	1.531909	0.903887	-0.510649
C28	C	1.450328	1.071454	-0.592823
C29	C	1.449929	0.948894	-0.592557
C30	C	1.501657	0.948494	-0.398932
C31	C	1.501141	1.071093	-0.399432
C32	C	1.644186	1.070974	-0.539293
C33	C	1.643516	0.948367	-0.541734
C34	C	1.808486	0.510652	-0.510627
C35	C	1.926316	0.510663	-0.510626
C36	C	1.532091	1.234122	-0.510666
C37	C	1.532043	1.116292	-0.510693
C38	C	1.532061	0.510512	-0.787134
C39	C	1.532095	0.510463	-0.904964
C40	C	1.614375	0.428790	-1.072538
C41	C	1.614111	0.428495	-0.949978
C42	C	1.420417	0.480103	-0.949455
C43	C	1.420917	0.479483	-1.072054
C44	C	1.560585	0.622615	-1.072161
C45	C	1.563029	0.622051	-0.949555
C46	C	1.531963	0.510666	-0.235199
C47	C	1.532135	0.510416	-0.117369
H48	H	0.941669	0.676026	-0.573222
H49	H	1.559296	0.919344	-0.336066
H50	H	1.123402	0.335982	-0.483662
H51	H	1.595781	0.346135	-1.103362
H52	H	1.671772	1.101809	-0.619373
H53	H	1.469074	1.100856	-0.675934
H54	H	0.942463	0.479107	-0.337665
H55	H	1.420544	0.917885	-0.374262
H56	H	1.123147	0.623652	-0.375986
H57	H	1.595275	0.345380	-0.920666
H58	H	1.468858	0.918730	-0.675395
H59	H	0.943091	0.375390	-0.623794
H60	H	1.666330	0.919207	-0.623952
H61	H	1.507482	0.686141	-0.918910
H62	H	1.124989	0.374449	-0.622331
H63	H	1.645214	0.644943	-0.920474
H64	H	0.940537	0.619079	-0.370658
H65	H	1.367711	1.102356	-0.574118
H66	H	1.124701	0.485901	-0.335013
H67	H	1.697461	0.447564	-1.102021
H68	H	1.123793	0.675486	-0.573352
H69	H	1.366801	0.919661	-0.573609
H70	H	1.500691	0.683435	-1.101161
H71	H	1.419165	1.099786	-0.375202
H72	H	1.558076	1.100758	-0.336153
H73	H	1.707614	0.917724	-0.486269
H74	H	1.705066	1.099970	-0.479474
H75	H	1.696923	0.447508	-0.919897
H76	H	0.940385	0.574410	-0.674811
H77	H	1.396798	0.397467	-1.100665
H78	H	1.357556	0.536350	-1.101710
H79	H	1.640597	0.650253	-1.103137
H80	H	1.357474	0.537729	-0.920297
H81	H	1.123085	0.573901	-0.675635
H82	H	1.395856	0.399002	-0.918762
H83	H	0.941990	0.335953	-0.485103
