data_functionalizedCrystal
_audit_creation_method	'MofGen! by Chris Wilmer'
_symmetry_space_group_name_H-M	'P1'
_symmetry_Int_Tables_number	1
_symmetry_cell_setting	triclinic
loop_
_symmetry_equiv_pos_as_xyz
  x,y,z
_cell_length_a	19.121241
_cell_length_b	19.121063
_cell_length_c	18.215399
_cell_angle_alpha	87.590157
_cell_angle_beta	92.463275
_cell_angle_gamma	95.003121
loop_
_atom_site_label
_atom_site_type_symbol
_atom_site_fract_x
_atom_site_fract_y
_atom_site_fract_z
Zn1	Zn	1.063748	-0.234335	0.474205
Zn2	Zn	1.397082	0.098998	0.807538
Zn3	Zn	1.730415	0.432331	1.140872
Zn4	Zn	1.058635	-0.352008	0.356162
Zn5	Zn	1.391968	-0.018675	0.689495
Zn6	Zn	1.725302	0.314659	1.022828
Zn7	Zn	0.946079	-0.239367	0.346108
Zn8	Zn	1.279412	0.093966	0.679441
Zn9	Zn	1.612746	0.427300	1.012775
Zn10	Zn	0.941024	-0.356975	0.474142
Zn11	Zn	1.274357	-0.023642	0.807476
Zn12	Zn	1.607690	0.309692	1.140809
O13	O	1.002372	-0.295671	0.412654
O14	O	1.335705	0.037662	0.745988
O15	O	1.669038	0.370995	1.079321
O16	O	1.161536	-0.245761	0.462780
O17	O	1.494869	0.087573	0.796113
O18	O	1.828202	0.420906	1.129447
O19	O	1.043680	-0.337093	0.251844
O20	O	1.377014	-0.003760	0.585177
O21	O	1.710347	0.329574	0.918511
O22	O	0.965944	-0.140234	0.358919
O23	O	1.299277	0.193100	0.692252
O24	O	1.632610	0.526433	1.025586
O25	O	1.157779	-0.332214	0.376054
O26	O	1.491112	0.001119	0.709387
O27	O	1.824446	0.334452	1.042721
O28	O	1.052395	-0.136537	0.453031
O29	O	1.385728	0.196796	0.786365
O30	O	1.719061	0.530130	1.119698
O31	O	0.960986	-0.254336	0.244458
O32	O	1.294319	0.078997	0.577791
O33	O	1.627652	0.412331	0.911124
O34	O	0.846943	-0.259152	0.358858
O35	O	1.180276	0.074181	0.692192
O36	O	1.513609	0.407514	1.025525
O37	O	0.957327	-0.340680	0.577135
O38	O	1.290661	-0.007346	0.910468
O39	O	1.623994	0.325987	1.243801
O40	O	0.843228	-0.345558	0.452925
O41	O	1.176562	-0.012225	0.786258
O42	O	1.509895	0.321108	1.119591
O43	O	1.047493	-0.250577	0.577181
O44	O	1.380826	0.082756	0.910514
O45	O	1.714159	0.416090	1.243847
O46	O	1.038778	-0.451133	0.375993
O47	O	1.372111	-0.117799	0.709327
O48	O	1.705445	0.215534	1.042660
O49	O	0.952369	-0.454782	0.462673
O50	O	1.285703	-0.121449	0.796007
O51	O	1.619036	0.211885	1.129340
C52	C	0.819555	-0.303441	0.404794
C53	C	1.152888	0.029893	0.738128
C54	C	1.486221	0.363226	1.071461
C55	C	0.741344	-0.306782	0.401450
C56	C	1.074677	0.026552	0.734783
C57	C	1.408011	0.359885	1.068116
C58	C	0.706554	-0.263411	0.445107
C59	C	1.039887	0.069923	0.778440
C60	C	1.373220	0.403256	1.111774
C61	C	0.633067	-0.266546	0.441958
C62	C	0.966400	0.066787	0.775291
C63	C	1.299733	0.400120	1.108625
C64	C	0.594371	-0.313057	0.395155
C65	C	0.927704	0.020277	0.728489
C66	C	1.261038	0.353610	1.061822
C67	C	0.629166	-0.356429	0.351493
C68	C	0.962499	-0.023096	0.684827
C69	C	1.295833	0.310237	1.018160
C70	C	0.702652	-0.353290	0.354639
C71	C	1.035985	-0.019956	0.687972
C72	C	1.369319	0.313377	1.021306
C73	C	0.372393	-0.324782	0.383392
C74	C	0.705727	0.008552	0.716725
C75	C	1.039060	0.341885	1.050058
C76	C	0.298902	-0.327919	0.380251
C77	C	0.632236	0.005414	0.713584
C78	C	0.965569	0.338747	1.046918
C79	C	0.302808	-0.238035	0.470715
C80	C	0.636142	0.095298	0.804048
C81	C	0.969475	0.428632	1.137382
C82	C	0.376295	-0.234902	0.473860
C83	C	0.709629	0.098431	0.807193
C84	C	1.042962	0.431764	1.140526
C85	C	0.411084	-0.278272	0.430195
C86	C	0.744417	0.055061	0.763528
C87	C	1.077751	0.388394	1.096862
C88	C	0.519255	-0.316265	0.391937
C89	C	0.852589	0.017069	0.725271
C90	C	1.185922	0.350402	1.058604
C91	C	0.486199	-0.275061	0.433410
C92	C	0.819532	0.058273	0.766743
C93	C	1.152865	0.391606	1.100076
C94	C	0.994489	-0.478488	0.420434
C95	C	1.327823	-0.145154	0.753768
C96	C	1.661156	0.188179	1.087101
C97	C	0.991182	-0.556694	0.423790
C98	C	1.324515	-0.223361	0.757123
C99	C	1.657849	0.109972	1.090457
C100	C	1.034651	-0.591511	0.380278
C101	C	1.367985	-0.258178	0.713611
C102	C	1.701318	0.075155	1.046944
C103	C	1.031545	-0.664995	0.383438
C104	C	1.364878	-0.331662	0.716771
C105	C	1.698211	0.001672	1.050105
C106	C	0.984965	-0.703660	0.430108
C107	C	1.318298	-0.370327	0.763441
C108	C	1.651631	-0.036994	1.096774
C109	C	0.941493	-0.668838	0.473625
C110	C	1.274827	-0.335505	0.806958
C111	C	1.608160	-0.002172	1.140292
C112	C	0.944604	-0.595356	0.470468
C113	C	1.277937	-0.262023	0.803801
C114	C	1.611271	0.071311	1.137135
C115	C	0.973323	-0.925626	0.441900
C116	C	1.306656	-0.592293	0.775233
C117	C	1.639990	-0.258959	1.108566
C118	C	0.970214	-0.999113	0.445052
C119	C	1.303548	-0.665780	0.778385
C120	C	1.636881	-0.332447	1.111719
C121	C	1.060267	-0.995265	0.354866
C122	C	1.393600	-0.661932	0.688199
C123	C	1.726934	-0.328598	1.021532
C124	C	1.063370	-0.921782	0.351709
C125	C	1.396704	-0.588448	0.685043
C126	C	1.730037	-0.255115	1.018376
C127	C	1.019902	-0.886966	0.395229
C128	C	1.353235	-0.553632	0.728563
C129	C	1.686569	-0.220299	1.061896
C130	C	0.981786	-0.778773	0.433338
C131	C	1.315120	-0.445439	0.766671
C132	C	1.648453	-0.112106	1.100004
C133	C	1.023084	-0.811855	0.392003
C134	C	1.356417	-0.478521	0.725336
C135	C	1.689751	-0.145188	1.058670
C136	C	1.185902	-0.287872	0.420545
C137	C	1.519236	0.045461	0.753879
C138	C	1.852569	0.378795	1.087212
C139	C	1.264112	-0.284549	0.423908
C140	C	1.597446	0.048785	0.757242
C141	C	1.930779	0.382118	1.090575
C142	C	1.002416	-0.295621	0.604607
C143	C	1.335750	0.037712	0.937940
C144	C	1.669083	0.371046	1.271274
C145	C	1.002436	-0.295600	0.686406
C146	C	1.335769	0.037734	1.019739
C147	C	1.669102	0.371067	1.353073
C148	C	1.010304	-0.112140	0.404861
C149	C	1.343637	0.221193	0.738194
C150	C	1.676970	0.554526	1.071527
C151	C	1.013684	-0.033930	0.401540
C152	C	1.347017	0.299403	0.734873
C153	C	1.680350	0.632736	1.068206
C154	C	1.002369	-0.295669	0.221448
C155	C	1.335703	0.037664	0.554781
C156	C	1.669036	0.370998	0.888114
C157	C	1.002495	-0.295486	0.139647
C158	C	1.335828	0.037847	0.472980
C159	C	1.669162	0.371180	0.806313
C160	C	1.049403	-0.248640	0.874624
C161	C	1.382736	0.084693	1.207957
C162	C	1.716069	0.418026	1.541291
C163	C	1.049412	-0.248619	0.951482
C164	C	1.382745	0.084714	1.284815
C165	C	1.716079	0.418047	1.618149
C166	C	0.955523	-0.342448	0.951423
C167	C	1.288856	-0.009115	1.284757
C168	C	1.622190	0.324219	1.618090
C169	C	0.955511	-0.342465	0.874566
C170	C	1.288844	-0.009132	1.207899
C171	C	1.622178	0.324202	1.541233
C172	C	1.002455	-0.295562	0.836169
C173	C	1.335788	0.037771	1.169502
C174	C	1.669121	0.371105	1.502835
C175	C	1.002476	-0.295524	0.989884
C176	C	1.335809	0.037809	1.323217
C177	C	1.669143	0.371143	1.656551
C178	C	1.002486	-0.295502	1.073217
C179	C	1.335819	0.037831	1.406551
C180	C	1.669152	0.371165	1.739884
C181	C	1.002444	-0.295583	0.752830
C182	C	1.335778	0.037750	1.086163
C183	C	1.669111	0.371084	1.419497
H184	H	0.604744	-0.231231	0.477510
H185	H	0.938077	0.102103	0.810843
H186	H	1.271411	0.435436	1.144177
Cl187	Cl	0.896482	-0.401453	0.826218
Cl188	Cl	1.229815	-0.068120	1.159551
Cl189	Cl	1.563148	0.265213	1.492885
Cl190	Cl	1.114914	-1.039037	0.300163
Cl191	Cl	1.448247	-0.705704	0.633497
Cl192	Cl	1.781581	-0.372371	0.966830
H193	H	1.101300	-0.890301	0.313707
H194	H	1.434633	-0.556968	0.647041
H195	H	1.767966	-0.223635	0.980374
H196	H	0.738055	-0.225539	0.483221
H197	H	1.071388	0.107795	0.816554
H198	H	1.404721	0.441128	1.149888
H199	H	0.932292	-1.030593	0.483069
H200	H	1.265625	-0.697259	0.816403
H201	H	1.598958	-0.363926	1.149736
H202	H	0.917305	-0.380636	0.982696
H203	H	1.250638	-0.047303	1.316029
H204	H	1.583971	0.286031	1.649363
H205	H	0.407797	-0.197031	0.511974
H206	H	0.741130	0.136302	0.845308
H207	H	1.074463	0.469635	1.178641
H208	H	0.909208	-0.567009	0.505901
H209	H	1.242541	-0.233675	0.839235
H210	H	1.575874	0.099658	1.172568
H211	H	0.274475	-0.202725	0.506264
H212	H	0.607808	0.130609	0.839597
H213	H	0.941142	0.463942	1.172930
H214	H	1.066942	-0.693340	0.348005
H215	H	1.400275	-0.360006	0.681338
H216	H	1.733608	-0.026673	1.014672
Cl217	Cl	0.918675	-0.881867	0.496610
Cl218	Cl	1.252008	-0.548534	0.829943
Cl219	Cl	1.585342	-0.215201	1.163277
H220	H	1.087625	-0.210447	0.843363
H221	H	1.420959	0.122886	1.176696
H222	H	1.754292	0.456220	1.510029
Cl223	Cl	0.250256	-0.386411	0.321427
Cl224	Cl	0.583589	-0.053077	0.654760
Cl225	Cl	0.916923	0.280256	0.988093
Cl226	Cl	0.882939	-0.717446	0.532301
Cl227	Cl	1.216272	-0.384113	0.865634
Cl228	Cl	1.549606	-0.050780	1.198967
Cl229	Cl	1.081642	-0.763246	0.333337
Cl230	Cl	1.414976	-0.429912	0.666671
Cl231	Cl	1.748309	-0.096579	1.000004
H232	H	0.400709	-0.360097	0.347837
H233	H	0.734043	-0.026764	0.681171
H234	H	1.067376	0.306570	1.014504
H235	H	0.730977	-0.388607	0.319088
H236	H	1.064310	-0.055273	0.652421
H237	H	1.397644	0.278060	0.985755
Cl238	Cl	0.580520	-0.414896	0.292651
Cl239	Cl	0.913853	-0.081563	0.625984
Cl240	Cl	1.247186	0.251770	0.959318
Cl241	Cl	0.534846	-0.216591	0.492243
Cl242	Cl	0.868179	0.116743	0.825576
Cl243	Cl	1.201512	0.450076	1.158910
Cl244	Cl	0.470603	-0.374734	0.333103
Cl245	Cl	0.803936	-0.041401	0.666436
Cl246	Cl	1.137270	0.291932	0.999769
H247	H	0.943859	-0.810262	0.471335
H248	H	1.277193	-0.476929	0.804668
H249	H	1.610526	-0.143596	1.138002
Cl250	Cl	1.108441	-0.189635	0.999823
Cl251	Cl	1.441774	0.143698	1.333157
Cl252	Cl	1.775108	0.477031	1.666490
Cl253	Cl	1.093208	-0.542911	0.321599
Cl254	Cl	1.426541	-0.209578	0.654932
Cl255	Cl	1.759874	0.123756	0.988266
