data_functionalizedCrystal
_audit_creation_method	'MofGen! by Chris Wilmer'
_symmetry_space_group_name_H-M	'P1'
_symmetry_Int_Tables_number	1
_symmetry_cell_setting	triclinic
loop_
_symmetry_equiv_pos_as_xyz
  x,y,z
_cell_length_a	19.077236
_cell_length_b	14.908178
_cell_length_c	19.076919
_cell_angle_alpha	88.840253
_cell_angle_beta	89.887323
_cell_angle_gamma	95.467067
loop_
_atom_site_label
_atom_site_type_symbol
_atom_site_fract_x
_atom_site_fract_y
_atom_site_fract_z
Zn1	Zn	1.044195	-0.327444	-0.425224
Zn2	Zn	1.042613	-0.472002	-0.300956
Zn3	Zn	0.931431	-0.326971	-0.303027
Zn4	Zn	0.919914	-0.484036	-0.413131
O5	O	0.984538	-0.402613	-0.360584
O6	O	1.142528	-0.341781	-0.412934
O7	O	1.032022	-0.447529	-0.203144
O8	O	0.951872	-0.200803	-0.325164
O9	O	1.141364	-0.447988	-0.321635
O10	O	1.034720	-0.201150	-0.414943
O11	O	0.950338	-0.340975	-0.204666
O12	O	0.831362	-0.352644	-0.313438
O13	O	0.932242	-0.468498	-0.512821
O14	O	0.822900	-0.468040	-0.394331
O15	O	1.023552	-0.353450	-0.521706
O16	O	1.020854	-0.599829	-0.309908
O17	O	0.930707	-0.608671	-0.392322
C18	C	0.801580	-0.411597	-0.352797
C19	C	0.723308	-0.415463	-0.349481
C20	C	0.687134	-0.362079	-0.395522
C21	C	0.613590	-0.365706	-0.392401
C22	C	0.576219	-0.422724	-0.343241
C23	C	0.612398	-0.476111	-0.297195
C24	C	0.685941	-0.472478	-0.300314
C25	C	0.356204	-0.439505	-0.328807
C26	C	0.282655	-0.443136	-0.325693
C27	C	0.283852	-0.332730	-0.420898
C28	C	0.357397	-0.329106	-0.424015
C29	C	0.393569	-0.382489	-0.377967
N30	N	0.501045	-0.426436	-0.340051
N31	N	0.468742	-0.378772	-0.381155
C32	C	0.974377	-0.636980	-0.349594
C33	C	0.970094	-0.737241	-0.344919
C34	C	1.048241	-0.925863	-0.429712
C35	C	1.044219	-1.020068	-0.425322
C36	C	0.958023	-1.019857	-0.331751
C37	C	0.962046	-0.925652	-0.336142
C38	C	1.007157	-0.878659	-0.385123
C39	C	1.011183	-0.784452	-0.389510
C40	C	0.924984	-0.784243	-0.295943
C41	C	0.920962	-0.878448	-0.291552
C42	C	1.168211	-0.393595	-0.368402
C43	C	1.246482	-0.389752	-0.371734
C44	C	0.976789	-0.412369	-0.543407
C45	C	0.973486	-0.416527	-0.621315
C46	C	0.994757	-0.167331	-0.371634
C47	C	0.999112	-0.067068	-0.376342
C48	C	1.019472	-0.358584	-0.662544
C49	C	1.016361	-0.362487	-0.735747
C50	C	0.967266	-0.424339	-0.767720
C51	C	0.921276	-0.482285	-0.726486
C52	C	0.924384	-0.478376	-0.653284
C53	C	0.952869	-0.442447	-0.986152
C54	C	0.949765	-0.446353	-1.059359
C55	C	1.044850	-0.326553	-1.068615
C56	C	1.047957	-0.322654	-0.995411
C57	C	1.001964	-0.380597	-0.954184
N58	N	0.964086	-0.428332	-0.842545
N59	N	1.005141	-0.376598	-0.879361
C60	C	0.992301	-0.392828	-0.178477
C61	C	0.995751	-0.388409	-0.100587
H62	H	0.715393	-0.515948	-0.262821
C63	C	0.571294	-0.538831	-0.243116
C64	C	0.576738	-0.641187	-0.244323
C65	C	0.535636	-0.703911	-0.190245
C66	C	0.489091	-0.664280	-0.134959
C67	C	0.483645	-0.561919	-0.133750
C68	C	0.524747	-0.499195	-0.187829
H69	H	0.611195	-0.670529	-0.285251
H70	H	0.539668	-0.779685	-0.191140
H71	H	0.458665	-0.710712	-0.094927
H72	H	0.449188	-0.532577	-0.092823
H73	H	0.520715	-0.423421	-0.186934
C74	C	0.867275	-0.550324	-0.761660
C75	C	0.892586	-0.622329	-0.809955
C76	C	0.838588	-0.690372	-0.845130
C77	C	0.759280	-0.686410	-0.832009
C78	C	0.733965	-0.614402	-0.783711
C79	C	0.787963	-0.546359	-0.748536
H80	H	0.951298	-0.625265	-0.819670
H81	H	0.857328	-0.743678	-0.880883
H82	H	0.719308	-0.736780	-0.858047
H83	H	0.675253	-0.611466	-0.773996
H84	H	0.769223	-0.493054	-0.712783
H85	H	0.921293	-1.058135	-0.291876
H86	H	1.047916	-0.746191	-0.429391
C87	C	0.573806	-0.306995	-0.443063
C88	C	0.519237	-0.351640	-0.494061
C89	C	0.479456	-0.292930	-0.544731
C90	C	0.494245	-0.189575	-0.544403
C91	C	0.548816	-0.144924	-0.493404
C92	C	0.588597	-0.203634	-0.442733
H93	H	0.508287	-0.428155	-0.494305
H94	H	0.439059	-0.325984	-0.582484
H95	H	0.464797	-0.146114	-0.581912
H96	H	0.559766	-0.068409	-0.493159
H97	H	0.628994	-0.170580	-0.404980
H98	H	1.084978	-0.887600	-0.469590
H99	H	1.077670	-1.058498	-0.461634
H100	H	1.087937	-0.272290	-0.969384
C101	C	0.244061	-0.274002	-0.471541
C102	C	0.189482	-0.318622	-0.522541
C103	C	0.149691	-0.259887	-0.573183
C104	C	0.164479	-0.156533	-0.572825
C105	C	0.219061	-0.111907	-0.521824
C106	C	0.258852	-0.170642	-0.471182
H107	H	0.178532	-0.395136	-0.522807
H108	H	0.109285	-0.292922	-0.610937
H109	H	0.135023	-0.113053	-0.610314
H110	H	0.230010	-0.035393	-0.521558
H111	H	0.299257	-0.137607	-0.433428
C112	C	0.871345	-0.930142	-0.237671
C113	C	0.791596	-0.921516	-0.240504
C114	C	0.741981	-0.973207	-0.186618
C115	C	0.772115	-1.033523	-0.129899
C116	C	0.851867	-1.042151	-0.127063
C117	C	0.901483	-0.990461	-0.180949
H118	H	0.769286	-0.876865	-0.282493
H119	H	0.682943	-0.966820	-0.188718
H120	H	0.735386	-1.071788	-0.090009
H121	H	0.874178	-1.086803	-0.085074
H122	H	0.960521	-0.996848	-0.178849
H123	H	0.252230	-0.489571	-0.285660
H124	H	1.082294	-0.279379	-1.102190
H125	H	0.891533	-0.745798	-0.259633
C126	C	0.873803	-0.542123	-0.607933
C127	C	0.903379	-0.608758	-0.555584
C128	C	0.852794	-0.672507	-0.510234
C129	C	0.772633	-0.669621	-0.517233
C130	C	0.743053	-0.602983	-0.569584
C131	C	0.793638	-0.539234	-0.614934
H132	H	0.962722	-0.610897	-0.550401
H133	H	0.874692	-0.721836	-0.471481
H134	H	0.735188	-0.716811	-0.483663
H135	H	0.683709	-0.600844	-0.574768
H136	H	0.771740	-0.489905	-0.653688
C137	C	1.066948	-0.298754	-0.781101
C138	C	1.037376	-0.232114	-0.833449
C139	C	1.087964	-0.168378	-0.878805
C140	C	1.168124	-0.171282	-0.871813
C141	C	1.197700	-0.237925	-0.819463
C142	C	1.147112	-0.301660	-0.774107
H143	H	0.978033	-0.229962	-0.838627
H144	H	1.066070	-0.119045	-0.917559
H145	H	1.205572	-0.124101	-0.905389
H146	H	1.257043	-0.240077	-0.814285
H147	H	1.169006	-0.350994	-0.735354
H148	H	0.717556	-0.315651	-0.435556
H149	H	1.059452	-0.308220	-0.636517
H150	H	0.387819	-0.282680	-0.464049
H151	H	0.385646	-0.482974	-0.291311
C152	C	0.895778	-0.514421	-1.094530
C153	C	0.845203	-0.578177	-1.049184
C154	C	0.791232	-0.646257	-1.084356
C155	C	0.787836	-0.650581	-1.164874
C156	C	0.838413	-0.586823	-1.210226
C157	C	0.892384	-0.518742	-1.175054
H158	H	0.847715	-0.574979	-0.989575
H159	H	0.753791	-0.693456	-1.050783
H160	H	0.747884	-0.700978	-1.190911
H161	H	0.835901	-0.590021	-1.269834
H162	H	0.929825	-0.471544	-1.208626
H163	H	0.915427	-0.489641	-0.952593
