data_functionalizedCrystal
_audit_creation_method	'MofGen! by Chris Wilmer'
_symmetry_space_group_name_H-M	'P1'
_symmetry_Int_Tables_number	1
_symmetry_cell_setting	triclinic
loop_
_symmetry_equiv_pos_as_xyz
  x,y,z
_cell_length_a	14.519709
_cell_length_b	14.519709
_cell_length_c	17.766277
_cell_angle_alpha	90.000159
_cell_angle_beta	89.996257
_cell_angle_gamma	96.319856
loop_
_atom_site_label
_atom_site_type_symbol
_atom_site_fract_x
_atom_site_fract_y
_atom_site_fract_z
O1	O	1.223874	-0.120893	-0.062486
O2	O	0.955397	-0.135129	-0.062507
O3	O	1.096754	0.006228	-0.062503
O4	O	1.082517	-0.262249	-0.062490
O5	O	1.096729	0.006235	0.062686
O6	O	0.955372	-0.135122	0.062681
O7	O	1.223849	-0.120885	0.062703
Cu8	Cu	1.089608	-0.128003	0.074123
Cu9	Cu	1.089638	-0.128012	-0.073927
O10	O	1.082492	-0.262242	0.062698
C11	C	0.921025	-0.134462	0.000084
C12	C	0.818643	-0.132474	0.000075
C13	C	0.443748	-0.125154	0.000109
C14	C	0.548056	-0.127187	0.000099
C15	C	0.631192	-0.128814	0.000091
C16	C	0.735507	-0.130847	0.000083
C17	C	1.083168	-0.296605	0.000106
C18	C	1.085156	-0.398987	0.000111
C19	C	1.092476	-0.773883	0.000082
C20	C	1.090443	-0.669575	0.000090
C21	C	1.088816	-0.586438	0.000097
C22	C	1.086783	-0.482123	0.000104
C23	C	1.258221	-0.121553	0.000110
C24	C	1.360602	-0.123541	0.000114
C25	C	1.096078	0.040591	0.000088
C26	C	1.094090	0.142972	0.000078
N27	N	1.089594	-0.127996	0.178253
N28	N	1.089659	-0.128011	-0.178057
C29	C	1.152207	-0.065434	0.217642
C30	C	1.152213	-0.065430	0.296444
C31	C	1.089614	-0.128004	0.335854
C32	C	1.026989	-0.190570	0.296455
C33	C	1.026979	-0.190567	0.217655
C34	C	1.077669	-0.211975	0.460695
C35	C	1.077685	-0.211980	0.539494
C36	C	1.089638	-0.128015	0.578900
C37	C	1.101595	-0.044042	0.539498
C38	C	1.101586	-0.044038	0.460697
C39	C	1.089617	-0.128014	0.421299
C40	C	1.152261	-0.065443	0.703735
C41	C	1.152260	-0.065438	0.782538
C42	C	1.027040	-0.190586	0.782548
C43	C	1.027037	-0.190584	0.703746
C44	C	1.089652	-0.128013	0.664344
H45	H	1.203190	-0.014484	0.185563
H46	H	1.203243	-0.014492	0.671653
Br47	Br	1.237233	0.019482	0.835999
Br48	Br	0.942061	-0.275496	0.650284
Br49	Br	1.117830	0.069919	0.592967
H50	H	1.067919	-0.280353	0.428617
Br51	Br	1.237194	0.019484	0.349910
Br52	Br	1.117803	0.069919	0.407225
Br53	Br	0.942074	-0.275498	0.836026
Br54	Br	1.061468	-0.325941	0.592960
H55	H	0.976018	-0.241517	0.328547
H56	H	0.975991	-0.241513	0.185584
