data_functionalizedCrystal
_audit_creation_method	'MofGen! by Chris Wilmer'
_symmetry_space_group_name_H-M	'P1'
_symmetry_Int_Tables_number	1
_symmetry_cell_setting	triclinic
loop_
_symmetry_equiv_pos_as_xyz
  x,y,z
_cell_length_a	11.792241
_cell_length_b	11.792241
_cell_length_c	10.268362
_cell_angle_alpha	89.995478
_cell_angle_beta	90.008848
_cell_angle_gamma	84.193416
loop_
_atom_site_label
_atom_site_type_symbol
_atom_site_fract_x
_atom_site_fract_y
_atom_site_fract_z
O1	O	-1.506894	-0.155569	0.108174
O2	O	-1.173560	0.177765	0.441508
O3	O	-0.840227	0.511098	0.774841
O4	O	-1.176553	-0.171602	0.108205
O5	O	-0.843219	0.161732	0.441538
O6	O	-0.509886	0.495065	0.774871
O7	O	-1.349740	0.001585	0.108180
O8	O	-1.016406	0.334919	0.441513
O9	O	-0.683073	0.668252	0.774846
O10	O	-1.333707	-0.328756	0.108199
O11	O	-1.000373	0.004578	0.441533
O12	O	-0.667040	0.337911	0.774866
O13	O	-1.349755	0.001593	-0.108421
O14	O	-1.016421	0.334926	0.224912
O15	O	-0.683088	0.668259	0.558246
O16	O	-1.176568	-0.171594	-0.108396
O17	O	-0.843234	0.161739	0.224937
O18	O	-0.509901	0.495072	0.558271
O19	O	-1.506909	-0.155561	-0.108426
O20	O	-1.173575	0.177772	0.224907
O21	O	-0.840242	0.511105	0.558240
Cu22	Cu	-1.341740	-0.163577	-0.128188
Cu23	Cu	-1.008406	0.169756	0.205145
Cu24	Cu	-0.675073	0.503089	0.538478
Cu25	Cu	-1.341722	-0.163586	0.127967
Cu26	Cu	-1.008388	0.169747	0.461300
Cu27	Cu	-0.675055	0.503081	0.794634
O28	O	-1.333722	-0.328748	-0.108401
O29	O	-1.000388	0.004585	0.224932
O30	O	-0.667055	0.337918	0.558265
C31	C	-1.134269	-0.170591	-0.000092
C32	C	-0.800936	0.162742	0.333242
C33	C	-0.467603	0.496076	0.666575
C34	C	-1.008256	-0.167576	-0.000080
C35	C	-0.674922	0.165757	0.333253
C36	C	-0.341589	0.499090	0.666586
C37	C	-1.348740	0.043880	-0.000120
C38	C	-1.015407	0.377213	0.333213
C39	C	-0.682073	0.710547	0.666546
C40	C	-1.345726	0.169894	-0.000119
C41	C	-1.012392	0.503227	0.333215
C42	C	-0.679059	0.836560	0.666548
C43	C	-1.549192	-0.156572	-0.000127
C44	C	-1.215859	0.176761	0.333206
C45	C	-0.882525	0.510095	0.666540
C46	C	-1.675206	-0.159587	-0.000130
C47	C	-1.341873	0.173747	0.333204
C48	C	-1.008539	0.507080	0.666537
C49	C	-0.777543	-0.162034	-0.000118
C50	C	-0.444210	0.171300	0.333215
C51	C	-0.110877	0.504633	0.666549
C52	C	-0.905928	-0.165113	-0.000097
C53	C	-0.572595	0.168220	0.333236
C54	C	-0.239262	0.501553	0.666569
C55	C	-1.334721	-0.371043	-0.000099
C56	C	-1.001388	-0.037710	0.333235
C57	C	-0.668055	0.295624	0.666568
C58	C	-1.337736	-0.497057	-0.000092
C59	C	-1.004402	-0.163723	0.333242
C60	C	-0.671069	0.169610	0.666575
N61	N	-1.341761	-0.163570	-0.308354
N62	N	-1.008427	0.169763	0.024979
N63	N	-0.675094	0.503096	0.358312
C64	C	-1.340183	0.400606	-0.000096
C65	C	-1.006849	0.733939	0.333237
C66	C	-0.673516	1.067272	0.666570
C67	C	-1.343262	0.272221	-0.000108
C68	C	-1.009929	0.605554	0.333225
C69	C	-0.676596	0.938887	0.666558
N70	N	-1.341710	-0.163584	0.308133
N71	N	-1.008376	0.169750	0.641466
N72	N	-0.675043	0.503083	0.974799
C73	C	-1.341717	-0.163584	0.425975
C74	C	-1.008384	0.169750	0.759308
C75	C	-0.675051	0.503083	1.092642
C76	C	-1.341738	-0.163580	0.573813
C77	C	-1.008404	0.169754	0.907146
C78	C	-0.675071	0.503087	1.240480
