data_functionalizedCrystal
_audit_creation_method	'MofGen! by Chris Wilmer'
_symmetry_space_group_name_H-M	'P1'
_symmetry_Int_Tables_number	1
_symmetry_cell_setting	triclinic
loop_
_symmetry_equiv_pos_as_xyz
  x,y,z
_cell_length_a	11.169417
_cell_length_b	16.959447
_cell_length_c	11.169416
_cell_angle_alpha	89.975335
_cell_angle_beta	90.011219
_cell_angle_gamma	89.987900
loop_
_atom_site_label
_atom_site_type_symbol
_atom_site_fract_x
_atom_site_fract_y
_atom_site_fract_z
Zn1	Zn	1.834871	-0.446893	-0.477755
Zn2	Zn	2.334871	0.053107	0.022245
Zn3	Zn	1.834787	-0.314727	-0.678474
Zn4	Zn	2.334787	0.185273	-0.178474
Zn5	Zn	1.634184	-0.314736	-0.477807
Zn6	Zn	2.134184	0.185264	0.022193
Zn7	Zn	1.634164	-0.446871	-0.678398
Zn8	Zn	2.134164	0.053129	-0.178398
O9	O	1.734502	-0.380807	-0.578109
O10	O	2.234502	0.119193	-0.078109
O11	O	2.002809	-0.429367	-0.504391
O12	O	2.502809	0.070633	-0.004391
O13	O	1.808150	-0.204118	-0.651908
O14	O	2.308150	0.295882	-0.151908
O15	O	1.660848	-0.332279	-0.309850
O16	O	2.160848	0.167721	0.190150
O17	O	2.002748	-0.332265	-0.651859
O18	O	2.502748	0.167735	-0.151859
O19	O	1.808292	-0.429375	-0.309812
O20	O	2.308292	0.070625	0.190188
O21	O	1.660767	-0.204124	-0.504479
O22	O	2.160767	0.295876	-0.004479
O23	O	1.466231	-0.332258	-0.504405
O24	O	1.966231	0.167742	-0.004405
O25	O	1.660815	-0.557485	-0.651729
O26	O	2.160815	-0.057485	-0.151729
O27	O	1.466217	-0.429337	-0.651779
O28	O	1.966217	0.070663	-0.151779
O29	O	1.808273	-0.557501	-0.504318
O30	O	2.308273	-0.057501	-0.004318
O31	O	1.808131	-0.332244	-0.846414
O32	O	2.308131	0.167756	-0.346414
O33	O	1.660734	-0.429329	-0.846358
O34	O	2.160734	0.070671	-0.346358
C35	C	1.422677	-0.380797	-0.578090
C36	C	1.922677	0.119203	-0.078090
C37	C	1.289277	-0.380811	-0.578112
C38	C	1.789277	0.119189	-0.078112
C39	C	1.734551	-0.586975	-0.578009
C40	C	2.234551	-0.086975	-0.078009
C41	C	1.734573	-0.674832	-0.577967
C42	C	2.234573	-0.174832	-0.077967
C43	C	1.657941	-1.046302	-0.654591
C44	C	2.157941	-0.546302	-0.154591
C45	C	1.811491	-1.046313	-0.501090
C46	C	2.311491	-0.546313	-0.001090
C47	C	1.811459	-0.963767	-0.501115
C48	C	2.311459	-0.463767	-0.001115
C49	C	1.734668	-0.922485	-0.577881
C50	C	2.234668	-0.422485	-0.077881
C51	C	1.657909	-0.963748	-0.654621
C52	C	2.157909	-0.463748	-0.154621
C53	C	1.888225	-0.922498	-0.424385
C54	C	2.388225	-0.422498	0.075615
C55	C	1.888197	-0.839947	-0.424409
C56	C	2.388197	-0.339947	0.075591
C57	C	1.811399	-0.798663	-0.501169
C58	C	2.311399	-0.298663	-0.001169
C59	C	1.734636	-0.839931	-0.577911
C60	C	2.234636	-0.339931	-0.077911
C61	C	1.657846	-0.798649	-0.654677
C62	C	2.157846	-0.298649	-0.154677
C63	C	1.581076	-0.839915	-0.731414
C64	C	2.081076	-0.339915	-0.231414
C65	C	1.581112	-0.922464	-0.731381
C66	C	2.081112	-0.422464	-0.231381
C67	C	1.811363	-0.716114	-0.501202
C68	C	2.311363	-0.216114	-0.001202
C69	C	1.657814	-0.716095	-0.654707
C70	C	2.157814	-0.216095	-0.154707
C71	C	2.047544	-0.380817	-0.578128
C72	C	2.547544	0.119183	-0.078128
C73	C	2.180944	-0.380822	-0.578136
C74	C	2.680944	0.119178	-0.078136
C75	C	1.734454	-0.380801	-0.889933
C76	C	2.234454	0.119199	-0.389933
C77	C	1.734543	-0.380825	-1.023333
C78	C	2.234543	0.119175	-0.523333
C79	C	1.734521	-0.175441	-0.578121
C80	C	2.234521	0.324559	-0.078121
C81	C	1.734732	-0.087584	-0.577825
C82	C	2.234732	0.412416	-0.077825
C83	C	1.734582	-0.380830	-0.265066
C84	C	2.234582	0.119170	0.234934
C85	C	1.734616	-0.380840	-0.131666
C86	C	2.234616	0.119160	0.368334
H87	H	1.518558	-0.806292	-0.793921
H88	H	2.018558	-0.306292	-0.293921
C89	C	1.641247	-1.139110	-0.816001
C90	C	2.141247	-0.639110	-0.316001
C91	C	1.573560	-1.091656	-0.738942
C92	C	2.073560	-0.591656	-0.238942
H93	H	1.589152	-1.167105	-0.868079
H94	H	2.089152	-0.667105	-0.368079
H95	H	1.686968	-1.175509	-0.770278
H96	H	2.186968	-0.675509	-0.270278
H97	H	1.693514	-1.106893	-0.861920
H98	H	2.193514	-0.606893	-0.361920
H99	H	1.521300	-1.123874	-0.693016
H100	H	2.021300	-0.623874	-0.193016
H101	H	1.527819	-1.055253	-0.784669
H102	H	2.027819	-0.555253	-0.284669
H103	H	1.873871	-0.682519	-0.438727
H104	H	2.373871	-0.182519	0.061273
H105	H	1.950707	-0.806355	-0.361924
H106	H	2.450707	-0.306355	0.138076
H107	H	1.518614	-0.956071	-0.793860
H108	H	2.018614	-0.456071	-0.293860
H109	H	1.950751	-0.956116	-0.361895
H110	H	2.450751	-0.456116	0.138105
C111	C	1.599303	-0.690656	-0.857946
C112	C	2.099303	-0.190656	-0.357946
C113	C	1.573413	-0.670715	-0.739098
C114	C	2.073413	-0.170715	-0.239098
H115	H	1.547203	-0.662635	-0.910045
H116	H	2.047203	-0.162635	-0.410045
H117	H	1.588322	-0.745717	-0.868899
H118	H	2.088322	-0.245717	-0.368899
H119	H	1.679938	-0.677125	-0.875501
H120	H	2.179938	-0.177125	-0.375501
H121	H	1.492779	-0.684251	-0.721540
H122	H	1.992779	-0.184251	-0.221540
H123	H	1.584383	-0.615641	-0.728140
H124	H	2.084383	-0.115641	-0.228140
C125	C	1.879721	-1.172860	-0.432899
C126	C	2.379721	-0.672860	0.067101
C127	C	1.895900	-1.091689	-0.416717
C128	C	2.395900	-0.591689	0.083283
H129	H	1.931831	-1.200873	-0.380802
H130	H	2.431831	-0.700873	0.119198
H131	H	1.897273	-1.186368	-0.513527
H132	H	2.397273	-0.686368	-0.013527
H133	H	1.799089	-1.186387	-0.415323
H134	H	2.299089	-0.686387	0.084677
H135	H	1.976531	-1.078161	-0.434302
H136	H	2.476531	-0.578161	0.065698
H137	H	1.878357	-1.078175	-0.336071
H138	H	2.378357	-0.578175	0.163929
