data_functionalizedCrystal
_audit_creation_method	'MofGen! by Chris Wilmer'
_symmetry_space_group_name_H-M	'P1'
_symmetry_Int_Tables_number	1
_symmetry_cell_setting	triclinic
loop_
_symmetry_equiv_pos_as_xyz
  x,y,z
_cell_length_a	10.723024
_cell_length_b	10.723024
_cell_length_c	9.798715
_cell_angle_alpha	90.003391
_cell_angle_beta	90.001978
_cell_angle_gamma	84.467869
loop_
_atom_site_label
_atom_site_type_symbol
_atom_site_fract_x
_atom_site_fract_y
_atom_site_fract_z
O1	O	-0.175024	-1.657187	-0.113478
O2	O	0.324976	-1.157187	0.386522
O3	O	-0.191778	-1.294035	-0.113483
O4	O	0.308222	-0.794035	0.386517
O5	O	-0.001825	-1.483988	-0.113475
O6	O	0.498175	-0.983988	0.386525
O7	O	-0.364977	-1.467234	-0.113486
O8	O	0.135023	-0.967234	0.386514
O9	O	-0.001824	-1.483974	0.113507
O10	O	0.498176	-0.983974	0.613507
O11	O	-0.191777	-1.294021	0.113499
O12	O	0.308223	-0.794021	0.613499
O13	O	-0.175024	-1.657173	0.113504
O14	O	0.324976	-1.157173	0.613504
Zn15	Zn	-0.183401	-1.475595	0.149540
Zn16	Zn	0.316599	-0.975595	0.649540
Zn17	Zn	-0.183401	-1.475613	-0.149519
Zn18	Zn	0.316599	-0.975613	0.350481
O19	O	-0.364977	-1.467220	0.113496
O20	O	0.135023	-0.967220	0.613496
C21	C	-0.190558	-1.247528	0.000008
C22	C	0.309442	-0.747528	0.500008
C23	C	-0.186911	-1.108974	0.000006
C24	C	0.313089	-0.608974	0.500006
C25	C	0.044675	-1.482762	0.000014
C26	C	0.544675	-0.982762	0.500014
C27	C	0.183229	-1.479114	0.000009
C28	C	0.683229	-0.979114	0.500009
C29	C	-0.176243	-1.703680	0.000010
C30	C	0.323757	-1.203680	0.500010
C31	C	-0.179891	-1.842234	0.000003
C32	C	0.320109	-1.342234	0.500003
C33	C	-0.411477	-1.468447	0.000004
C34	C	0.088523	-0.968447	0.500004
C35	C	-0.550031	-1.472094	-0.000000
C36	C	-0.050031	-0.972094	0.500000
C37	C	0.258212	-1.585401	0.000009
C38	C	0.758212	-1.085401	0.500009
C39	C	0.401415	-1.581634	0.000004
C40	C	0.901415	-1.081634	0.500004
C41	C	-0.293198	-1.033991	0.000002
C42	C	0.206802	-0.533991	0.500002
C43	C	-0.289431	-0.890788	0.000001
C44	C	0.210569	-0.390788	0.500001
N45	N	-0.183399	-1.475591	0.353640
N46	N	0.316601	-0.975591	0.853640
N47	N	-0.183393	-1.475627	-0.353619
N48	N	0.316607	-0.975627	0.146381
C49	C	-0.103292	-1.555347	0.421420
C50	C	0.396708	-1.055347	0.921420
C51	C	-0.103288	-1.555367	0.578582
C52	C	0.396712	-1.055367	1.078582
H53	H	0.216390	-1.679187	0.000018
H54	H	0.716390	-1.179187	0.500018
F55	F	-0.060950	-0.926441	-0.000003
F56	F	0.439050	-0.426441	0.499997
H57	H	0.465848	-1.672624	0.000009
H58	H	0.965848	-1.172624	0.500009
F59	F	0.365762	-1.353153	0.000010
F60	F	0.865762	-0.853153	0.500010
F61	F	-0.273035	-1.386351	0.429865
F62	F	0.226965	-0.886351	0.929865
F63	F	-0.064321	-1.054316	0.000019
F64	F	0.435679	-0.554316	0.500019
F65	F	-0.408367	-0.806574	-0.000014
F66	F	0.091633	-0.306574	0.499986
F67	F	0.237887	-1.356524	-0.000005
F68	F	0.737887	-0.856524	0.499995
H69	H	-0.386984	-1.075814	0.000007
H70	H	0.113016	-0.575814	0.500007
H71	H	-0.034707	-1.623611	0.363100
H72	H	0.465293	-1.123611	0.863100
H73	H	-0.034709	-1.623654	0.636870
H74	H	0.465291	-1.123654	1.136870
F75	F	-0.273048	-1.386376	0.570207
F76	F	0.226952	-0.886376	1.070207
