data_functionalizedCrystal
_audit_creation_method	'MofGen! by Chris Wilmer'
_symmetry_space_group_name_H-M	'P1'
_symmetry_Int_Tables_number	1
_symmetry_cell_setting	triclinic
loop_
_symmetry_equiv_pos_as_xyz
  x,y,z
_cell_length_a	19.288840
_cell_length_b	19.288855
_cell_length_c	17.766277
_cell_angle_alpha	90.008954
_cell_angle_beta	89.983415
_cell_angle_gamma	96.870871
loop_
_atom_site_label
_atom_site_type_symbol
_atom_site_fract_x
_atom_site_fract_y
_atom_site_fract_z
O1	O	0.921361	-0.086566	-0.062724
O2	O	1.421361	0.413434	0.437276
O3	O	0.719098	-0.098273	-0.062699
O4	O	1.219098	0.401727	0.437301
O5	O	0.826077	0.008712	-0.062702
O6	O	1.326077	0.508712	0.437298
O7	O	0.814381	-0.193551	-0.062721
O8	O	1.314381	0.306449	0.437279
O9	O	0.826059	0.008717	0.062486
O10	O	1.326059	0.508717	0.562486
O11	O	0.719079	-0.098268	0.062490
O12	O	1.219079	0.401732	0.562490
O13	O	0.921342	-0.086561	0.062464
O14	O	1.421342	0.413439	0.562464
Cu15	Cu	0.820209	-0.092414	0.073908
Cu16	Cu	1.320209	0.407586	0.573908
Cu17	Cu	0.820231	-0.092420	-0.074142
Cu18	Cu	1.320231	0.407580	0.425858
O19	O	0.814363	-0.193546	0.062468
O20	O	1.314363	0.306454	0.562468
C21	C	0.693211	-0.097897	-0.000101
C22	C	1.193211	0.402103	0.499899
C23	C	0.616107	-0.096775	-0.000091
C24	C	1.116107	0.403225	0.499909
C25	C	0.579914	-0.096239	-0.068333
C26	C	1.079914	0.403761	0.431667
C27	C	0.507467	-0.095177	-0.068342
C28	C	1.007467	0.404823	0.431658
C29	C	0.471218	-0.094637	-0.000105
C30	C	0.971218	0.405363	0.499895
C31	C	0.507419	-0.095177	0.068146
C32	C	1.007419	0.404823	0.568146
C33	C	0.579864	-0.096246	0.068153
C34	C	1.079864	0.403754	0.568153
C35	C	0.361884	-0.052256	0.052167
C36	C	0.861884	0.447744	0.552167
C37	C	0.289441	-0.051183	0.052157
C38	C	0.789441	0.448817	0.552157
C39	C	0.247774	-0.091343	-0.000125
C40	C	0.747774	0.408657	0.499875
C41	C	0.278560	-0.132566	-0.052409
C42	C	0.778560	0.367434	0.447591
C43	C	0.351005	-0.133635	-0.052402
C44	C	0.851005	0.366365	0.447598
C45	C	0.392664	-0.093478	-0.000105
C46	C	0.892664	0.406522	0.499895
C47	C	0.133026	-0.089656	-0.068381
C48	C	0.633026	0.410344	0.431619
C49	C	0.060577	-0.088598	-0.068388
C50	C	0.560577	0.411402	0.431612
C51	C	0.060532	-0.088591	0.068102
C52	C	0.560532	0.411409	0.568102
C53	C	0.132978	-0.089656	0.068107
C54	C	0.632978	0.410344	0.568107
C55	C	0.169221	-0.090185	-0.000137
C56	C	0.669221	0.409815	0.499863
C57	C	0.825693	0.034591	-0.000107
C58	C	1.325693	0.534591	0.499893
C59	C	0.824566	0.111695	-0.000104
C60	C	1.324566	0.611695	0.499896
C61	C	0.947228	-0.086937	-0.000135
C62	C	1.447228	0.413063	0.499865
C63	C	1.024333	-0.088059	-0.000150
C64	C	1.524333	0.411941	0.499850
N65	N	0.820198	-0.092409	0.178038
N66	N	1.320198	0.407591	0.678038
C67	C	0.824051	0.147902	-0.068344
C68	C	1.324051	0.647902	0.431656
C69	C	0.822983	0.220348	-0.068349
C70	C	1.322983	0.720348	0.431651
C71	C	0.822444	0.256586	-0.000110
C72	C	1.322444	0.756586	0.499890
C73	C	0.822956	0.220369	0.068139
C74	C	1.322956	0.720369	0.568139
C75	C	0.824017	0.147923	0.068142
C76	C	1.324017	0.647923	0.568142
C77	C	0.861439	0.376823	0.052161
C78	C	1.361439	0.876823	0.552161
C79	C	0.860382	0.449268	0.052155
C80	C	1.360382	0.949268	0.552155
C81	C	0.819168	0.480031	-0.000116
C82	C	1.319168	0.980031	0.499884
C83	C	0.779020	0.438343	-0.052395
C84	C	1.279020	0.938343	0.447605
C85	C	0.780081	0.365897	-0.052392
C86	C	1.280081	0.865897	0.447608
C87	C	0.821293	0.335141	-0.000106
C88	C	1.321293	0.835141	0.499894
C89	C	0.817493	0.594793	-0.068366
C90	C	1.317493	1.094793	0.431634
C91	C	0.816421	0.667240	-0.068368
C92	C	1.316421	1.167240	0.431632
C93	C	0.816401	0.667260	0.068122
C94	C	1.316401	1.167260	0.568122
C95	C	0.817466	0.594814	0.068122
C96	C	1.317466	1.094814	0.568122
C97	C	0.818016	0.558585	-0.000124
C98	C	1.318016	1.058585	0.499876
C99	C	0.814749	0.780575	-0.000127
C100	C	1.314749	1.280575	0.499873
C101	C	0.815881	0.703472	-0.000129
C102	C	1.315881	1.203472	0.499871
N103	N	0.820247	-0.092420	-0.178272
N104	N	1.320247	0.407580	0.321728
C105	C	0.867584	-0.045059	0.217423
C106	C	1.367584	0.454941	0.717423
C107	C	0.867588	-0.045056	0.296225
C108	C	1.367588	0.454944	0.796225
C109	C	0.820213	-0.092414	0.335639
C110	C	1.320213	0.407586	0.835639
C111	C	0.772818	-0.139768	0.296244
C112	C	1.272818	0.360232	0.796244
C113	C	0.772811	-0.139765	0.217444
C114	C	1.272811	0.360235	0.717444
C115	C	0.810912	-0.155703	0.460472
C116	C	1.310912	0.344297	0.960472
C117	C	0.810924	-0.155707	0.539271
C118	C	1.310924	0.344293	1.039271
C119	C	0.820232	-0.092423	0.578685
C120	C	1.320232	0.407577	1.078685
C121	C	0.829542	-0.029132	0.539291
C122	C	1.329542	0.470868	1.039291
C123	C	0.829534	-0.029130	0.460491
C124	C	1.329534	0.470870	0.960491
C125	C	0.820215	-0.092422	0.421084
C126	C	1.320215	0.407578	0.921084
C127	C	0.867624	-0.045066	0.703516
C128	C	1.367624	0.454934	1.203516
C129	C	0.867624	-0.045062	0.782320
C130	C	1.367624	0.454938	1.282320
C131	C	0.772857	-0.139779	0.782337
C132	C	1.272857	0.360221	1.282337
C133	C	0.772854	-0.139777	0.703535
C134	C	1.272854	0.360223	1.203535
C135	C	0.820242	-0.092421	0.664129
C136	C	1.320242	0.407579	1.164129
H137	H	0.477901	-0.094739	0.123705
H138	H	0.977901	0.405261	0.623705
C139	C	0.839779	0.040486	0.582641
C140	C	1.339779	0.540486	1.082641
N141	N	0.847490	0.092921	0.615296
N142	N	1.347490	0.592921	1.115296
H143	H	0.906209	-0.006500	0.814388
H144	H	1.406209	0.493500	1.314388
H145	H	0.244636	-0.165271	-0.094979
H146	H	0.744636	0.334729	0.405021
C147	C	0.824588	0.108094	0.143215
C148	C	1.324588	0.608094	0.643215
N149	N	0.825021	0.078094	0.199761
N150	N	1.325021	0.578094	0.699761
C151	C	0.815808	0.707117	0.143186
C152	C	1.315808	1.207117	0.643186
N153	N	0.815361	0.737141	0.199726
N154	N	1.315361	1.237141	0.699726
C155	C	0.172794	-0.090236	0.143180
C156	C	0.672794	0.409764	0.643180
N157	N	0.202783	-0.090673	0.199728
N158	N	0.702783	0.409327	0.699728
H159	H	0.822515	0.249878	0.123700
H160	H	1.322515	0.749878	0.623700
H161	H	0.895000	0.351782	0.094732
H162	H	1.395000	0.851782	0.594732
C163	C	0.919705	0.007041	0.174082
C164	C	1.419705	0.507041	0.674082
N165	N	0.958961	0.046285	0.141436
N166	N	1.458961	0.546285	0.641436
C167	C	0.720776	-0.191917	0.660209
C168	C	1.220776	0.308083	1.160209
N169	N	0.681563	-0.231206	0.627577
N170	N	1.181563	0.268794	1.127577
C171	C	0.720744	-0.191875	0.825687
C172	C	1.220744	0.308125	1.325687
N173	N	0.681490	-0.231115	0.858342
N174	N	1.181490	0.268885	1.358342
H175	H	0.395804	-0.019552	0.094745
H176	H	0.895804	0.480448	0.594745
C177	C	0.839766	0.040489	0.417160
C178	C	1.339766	0.540489	0.917160
N179	N	0.847469	0.092926	0.384524
N180	N	1.347469	0.592926	0.884524
H181	H	0.609332	-0.096683	0.123726
H182	H	1.109332	0.403317	0.623726
C183	C	0.020662	-0.087999	0.143164
C184	C	0.520662	0.412001	0.643164
N185	N	-0.009371	-0.087553	0.199703
N186	N	0.490629	0.412447	0.699703
H187	H	0.803348	-0.207242	0.571339
H188	H	1.303348	0.292758	1.071339
C189	C	0.800673	-0.225325	0.417124
C190	C	1.300673	0.274675	0.917124
N191	N	0.792961	-0.277763	0.384475
N192	N	1.292961	0.222237	0.884475
H193	H	0.906177	-0.006497	0.328299
H194	H	1.406177	0.493503	0.828299
C195	C	0.919745	0.007033	0.660168
C196	C	1.419745	0.507033	1.160168
N197	N	0.959001	0.046275	0.627519
N198	N	1.459001	0.546275	1.127519
H199	H	0.824496	0.118409	-0.123916
H200	H	1.324496	0.618409	0.376084
H201	H	0.734243	-0.178327	0.328338
H202	H	1.234243	0.321673	0.828338
C203	C	0.619777	-0.096819	-0.143404
C204	C	1.119777	0.403181	0.356596
N205	N	0.649803	-0.097255	-0.199948
N206	N	1.149803	0.402745	0.300052
H207	H	0.822559	0.249834	-0.123920
H208	H	1.322559	0.749834	0.376080
C209	C	0.720711	-0.191886	0.174118
C210	C	1.220711	0.308114	0.674118
N211	N	0.681479	-0.231156	0.141485
N212	N	1.181479	0.268844	0.641485
H213	H	0.477992	-0.094741	-0.123915
H214	H	0.977992	0.405259	0.376085
H215	H	0.162535	-0.090094	-0.123950
H216	H	0.662535	0.409906	0.376050
C217	C	0.384862	-0.179018	-0.109880
C218	C	0.884862	0.320982	0.390120
N219	N	0.410361	-0.213214	-0.153160
N220	N	0.910361	0.286786	0.346840
C221	C	0.255583	-0.005843	0.109676
C222	C	0.755583	0.494157	0.609676
N223	N	0.230082	0.028305	0.153005
N224	N	0.730082	0.528305	0.653005
C225	C	0.020765	-0.088005	-0.143463
C226	C	0.520765	0.411995	0.356537
N227	N	-0.009222	-0.087556	-0.200012
N228	N	0.490778	0.412444	0.299988
H229	H	0.747389	0.331957	-0.094957
H230	H	1.247389	0.831957	0.405043
C231	C	0.733678	0.472176	-0.109897
C232	C	1.233678	0.972176	0.390103
N233	N	0.699529	0.497663	-0.153206
N234	N	1.199529	0.997663	0.346794
H235	H	0.817937	0.565294	-0.123936
H236	H	1.317937	1.065294	0.376064
H237	H	0.817892	0.565334	0.123690
H238	H	1.317892	1.065334	0.623690
C239	C	0.815889	0.707073	-0.143442
C240	C	1.315889	1.207073	0.356558
N241	N	0.815503	0.737078	-0.199989
N242	N	1.315503	1.237078	0.300011
H243	H	0.893076	0.483206	0.094721
H244	H	1.393076	0.983206	0.594721
