data_functionalizedCrystal
_audit_creation_method	'MofGen! by Chris Wilmer'
_symmetry_space_group_name_H-M	'P1'
_symmetry_Int_Tables_number	1
_symmetry_cell_setting	triclinic
loop_
_symmetry_equiv_pos_as_xyz
  x,y,z
_cell_length_a	13.033293
_cell_length_b	29.839131
_cell_length_c	13.032268
_cell_angle_alpha	82.859460
_cell_angle_beta	90.920818
_cell_angle_gamma	97.210335
loop_
_atom_site_label
_atom_site_type_symbol
_atom_site_fract_x
_atom_site_fract_y
_atom_site_fract_z
Zn1	Zn	1.498333	-0.139774	0.781438
Zn2	Zn	1.998333	0.360226	1.281438
Zn3	Zn	1.520016	-0.204336	0.609444
Zn4	Zn	2.020016	0.295664	1.109444
Zn5	Zn	1.348195	-0.137401	0.587614
Zn6	Zn	1.848195	0.362599	1.087614
Zn7	Zn	1.326249	-0.223065	0.759478
Zn8	Zn	1.826249	0.276935	1.259478
O9	O	1.423198	-0.176144	0.684494
O10	O	1.923198	0.323856	1.184494
O11	O	1.645134	-0.141493	0.776949
O12	O	2.145134	0.358507	1.276949
O13	O	1.515482	-0.186627	0.462643
O14	O	2.015482	0.313373	0.962643
O15	O	1.368221	-0.074846	0.613380
O16	O	1.868221	0.425154	1.113380
O17	O	1.661065	-0.188927	0.650586
O18	O	2.161065	0.311073	1.150586
O19	O	1.478527	-0.076589	0.755781
O20	O	1.978527	0.423411	1.255781
O21	O	1.389246	-0.137450	0.446605
O22	O	1.889246	0.362550	0.946605
O23	O	1.201359	-0.155610	0.592086
O24	O	1.701359	0.344390	1.092086
O25	O	1.330818	-0.220847	0.906297
O26	O	1.830818	0.279153	1.406297
O27	O	1.185235	-0.218547	0.718354
O28	O	1.685235	0.281453	1.218354
O29	O	1.457247	-0.159654	0.922431
O30	O	1.957247	0.340346	1.422431
O31	O	1.494202	-0.269691	0.629293
O32	O	1.994202	0.230309	1.129293
O33	O	1.351843	-0.283451	0.739522
O34	O	1.851843	0.216549	1.239522
C35	C	1.155979	-0.188854	0.650469
C36	C	1.655979	0.311146	1.150469
C37	C	1.041658	-0.194303	0.635938
C38	C	1.541658	0.305697	1.135938
C39	C	0.982796	-0.173311	0.692078
C40	C	1.482796	0.326689	1.192078
C41	C	0.864639	-0.178943	0.677060
C42	C	1.364639	0.321057	1.177060
C43	C	1.423019	-0.292873	0.684419
C44	C	1.923019	0.207127	1.184419
C45	C	1.423032	-0.342807	0.684434
C46	C	1.923032	0.157193	1.184434
C47	C	1.497432	-0.645267	0.627209
C48	C	1.997432	-0.145267	1.127209
C49	C	1.497554	-0.832937	0.627265
C50	C	1.997554	-0.332937	1.127265
O51	O	1.560669	-0.851099	0.578552
O52	O	2.060669	-0.351099	1.078552
N53	N	1.423402	-0.863581	0.684598
N54	N	1.923402	-0.363581	1.184598
C55	C	1.349218	-0.847305	0.741928
C56	C	1.849218	-0.347305	1.241928
O57	O	1.286156	-0.877676	0.790703
O58	O	1.786156	-0.377676	1.290703
C59	C	1.349101	-0.659637	0.741877
C60	C	1.849101	-0.159637	1.241877
C61	C	1.423252	-0.628994	0.684531
C62	C	1.923252	-0.128994	1.184531
C63	C	1.571578	-0.614626	0.569868
C64	C	2.071578	-0.114626	1.069868
C65	C	1.571543	-0.567711	0.569851
C66	C	2.071543	-0.067711	1.069851
C67	C	1.497363	-0.551438	0.627173
C68	C	1.997363	-0.051438	1.127173
C69	C	1.423217	-0.582080	0.684513
C70	C	1.923217	-0.082080	1.184513
C71	C	1.274923	-0.643362	0.799211
C72	C	1.774923	-0.143362	1.299211
C73	C	1.274902	-0.596441	0.799195
C74	C	1.774902	-0.096441	1.299195
C75	C	1.349052	-0.565799	0.741850
C76	C	1.849052	-0.065799	1.241850
C77	C	1.349002	-0.518892	0.741817
C78	C	1.849002	-0.018892	1.241817
N79	N	1.423155	-0.488248	0.684484
N80	N	1.923155	0.011752	1.184484
C81	C	1.497335	-0.504521	0.627161
C82	C	1.997335	-0.004521	1.127161
C83	C	1.349283	-0.945833	0.741949
C84	C	1.849283	-0.445833	1.241949
C85	C	1.349311	-0.992750	0.741960
C86	C	1.849311	-0.492750	1.241960
C87	C	1.497649	-0.978379	0.627298
C88	C	1.997649	-0.478379	1.127298
C89	C	1.497615	-0.931461	0.627282
C90	C	1.997615	-0.431461	1.127282
C91	C	1.423435	-0.915189	0.684615
C92	C	1.923435	-0.415189	1.184615
C93	C	1.497256	-0.405998	0.627127
C94	C	1.997256	0.094002	1.127127
C95	C	1.497212	-0.359080	0.627111
C96	C	1.997212	0.140920	1.127111
C97	C	1.348878	-0.373456	0.741777
C98	C	1.848878	0.126544	1.241777
C99	C	1.348918	-0.420370	0.741789
C100	C	1.848918	0.079630	1.241789
C101	C	1.423116	-0.436639	0.684462
C102	C	1.923116	0.063361	1.184462
O103	O	1.285927	-0.500698	0.790514
O104	O	1.785927	-0.000698	1.290514
O105	O	1.560402	-0.474144	0.578411
O106	O	2.060402	0.025856	1.078411
C107	C	1.497467	-0.692182	0.627227
C108	C	1.997467	-0.192182	1.127227
C109	C	1.423321	-0.722824	0.684567
C110	C	1.923321	-0.222824	1.184567
C111	C	1.349141	-0.706551	0.741889
C112	C	1.849141	-0.206551	1.241889
C113	C	1.423349	-0.769740	0.684578
C114	C	1.923349	-0.269740	1.184578
C115	C	1.497529	-0.786013	0.627256
C116	C	1.997529	-0.286013	1.127256
C117	C	1.571682	-0.755369	0.569922
C118	C	2.071682	-0.255369	1.069922
C119	C	1.571647	-0.708455	0.569904
C120	C	2.071647	-0.208455	1.069904
C121	C	1.274989	-0.737195	0.799223
C122	C	1.774989	-0.237195	1.299223
C123	C	1.275029	-0.784109	0.799235
C124	C	1.775029	-0.284109	1.299235
C125	C	1.349209	-0.800381	0.741913
C126	C	1.849209	-0.300381	1.241913
C127	C	1.691461	-0.163386	0.718652
C128	C	2.191461	0.336614	1.218652
C129	C	1.805779	-0.157949	0.733208
C130	C	2.305779	0.342051	1.233208
C131	C	1.389165	-0.192604	0.952720
C132	C	1.889165	0.307396	1.452720
C133	C	1.374663	-0.199618	1.067022
C134	C	1.874663	0.300382	1.567022
C135	C	1.423403	-0.058960	0.684595
C136	C	1.923403	0.441040	1.184595
C137	C	1.423491	-0.009023	0.684638
C138	C	1.923491	0.490977	1.184638
C139	C	1.457158	-0.159713	0.417318
C140	C	1.957158	0.340287	0.917318
C141	C	1.471860	-0.152563	0.303042
C142	C	1.971860	0.347437	0.803042
C143	C	1.430751	-0.172468	1.125964
C144	C	1.930751	0.327532	1.625964
C145	C	1.415763	-0.179717	1.244102
C146	C	1.915763	0.320283	1.744102
H147	H	1.557595	-0.334132	0.580410
H148	H	2.057595	0.165868	1.080410
H149	H	0.827563	-0.201084	0.617872
H150	H	1.327563	0.298916	1.117872
Cl151	Cl	1.324480	-0.223891	1.301209
Cl152	Cl	1.824480	0.276109	1.801209
H153	H	1.315540	-0.228227	1.104020
H154	H	1.815540	0.271773	1.604020
Cl155	Cl	1.255633	-0.352989	0.813841
Cl156	Cl	1.755633	0.147011	1.313841
Cl157	Cl	1.521999	-0.128283	1.068848
Cl158	Cl	2.021999	0.371717	1.568848
H159	H	1.558049	-0.991636	0.580625
H160	H	2.058049	-0.491636	1.080625
Cl161	Cl	0.863012	-0.123758	0.824580
Cl162	Cl	1.363012	0.376242	1.324580
H163	H	1.004578	-0.216443	0.576754
H164	H	1.504578	0.283557	1.076754
H165	H	1.557677	-0.419238	0.580449
H166	H	2.057677	0.080762	1.080449
Cl167	Cl	1.563153	-0.108392	1.245939
Cl168	Cl	2.063153	0.391608	1.745939
Cl169	Cl	1.664846	-0.635074	0.497796
Cl170	Cl	2.164846	-0.135074	0.997796
Cl171	Cl	1.664780	-0.529197	0.497772
Cl172	Cl	2.164780	-0.029197	0.997772
Cl173	Cl	1.040036	-0.139125	0.783450
Cl174	Cl	1.540036	0.360875	1.283450
H175	H	1.557996	-0.906514	0.580587
H176	H	2.057996	-0.406514	1.080587
H177	H	1.214583	-0.723950	0.845903
H178	H	1.714583	-0.223950	1.345903
H179	H	1.214637	-0.809055	0.845931
H180	H	1.714637	-0.309055	1.345931
H181	H	1.288874	-0.932589	0.788637
H182	H	1.788874	-0.432589	1.288637
Cl183	Cl	1.181708	-0.681873	0.871322
Cl184	Cl	1.681708	-0.181873	1.371322
Cl185	Cl	1.256078	-1.031266	0.814041
Cl186	Cl	1.756078	-0.531266	1.314041
H187	H	1.214496	-0.583196	0.845886
H188	H	1.714496	-0.083196	1.345886
H189	H	1.288541	-0.445320	0.788488
H190	H	1.788541	0.054680	1.288488
Cl191	Cl	1.664875	-0.669940	0.497813
Cl192	Cl	2.164875	-0.169940	0.997813
H193	H	1.632079	-0.768627	0.523245
H194	H	2.132079	-0.268627	1.023245
