data_functionalizedCrystal
_audit_creation_method	'MofGen! by Chris Wilmer'
_symmetry_space_group_name_H-M	'P1'
_symmetry_Int_Tables_number	1
_symmetry_cell_setting	triclinic
loop_
_symmetry_equiv_pos_as_xyz
  x,y,z
_cell_length_a	14.519709
_cell_length_b	11.026607
_cell_length_c	10.065875
_cell_angle_alpha	100.697662
_cell_angle_beta	98.804604
_cell_angle_gamma	83.866919
loop_
_atom_site_label
_atom_site_type_symbol
_atom_site_fract_x
_atom_site_fract_y
_atom_site_fract_z
O1	O	0.375708	-1.628737	-0.113512
O2	O	0.875708	-1.128737	0.386488
O3	O	0.331718	-1.275335	-0.113511
O4	O	0.831718	-0.775335	0.386489
O5	O	0.221020	-1.461404	-0.113499
O6	O	0.721020	-0.961404	0.386501
O7	O	0.486407	-1.442668	-0.113524
O8	O	0.986407	-0.942668	0.386476
O9	O	0.242237	-1.425923	0.113487
O10	O	0.742237	-0.925923	0.613487
O11	O	0.352935	-1.239855	0.113475
O12	O	0.852935	-0.739855	0.613475
O13	O	0.396926	-1.593256	0.113475
O14	O	0.896926	-1.093256	0.613475
Zn15	Zn	0.378299	-1.410922	0.149514
Zn16	Zn	0.878299	-0.910922	0.649514
Zn17	Zn	0.350345	-1.457669	-0.149550
Zn18	Zn	0.850345	-0.957669	0.350450
O19	O	0.507624	-1.407187	0.113463
O20	O	1.007624	-0.907187	0.613463
C21	C	0.334211	-1.212366	-0.000018
C22	C	0.834211	-0.712366	0.499982
C23	C	0.310019	-1.077600	-0.000017
C24	C	0.810019	-0.577600	0.499983
C25	C	0.197125	-1.442790	-0.000006
C26	C	0.697125	-0.942790	0.499994
C27	C	0.094312	-1.440173	-0.000005
C28	C	0.594312	-0.940173	0.499995
C29	C	0.394432	-1.656225	-0.000022
C30	C	0.894432	-1.156225	0.499978
C31	C	0.418624	-1.790993	-0.000031
C32	C	0.918624	-1.290993	0.499969
C33	C	-0.282174	-1.430544	-0.000040
C34	C	0.217826	-0.930544	0.499960
C35	C	-0.177425	-1.433218	-0.000030
C36	C	0.322575	-0.933218	0.499970
C37	C	-0.093934	-1.435358	-0.000021
C38	C	0.406066	-0.935358	0.499979
C39	C	0.010822	-1.438033	-0.000014
C40	C	0.510822	-0.938033	0.499986
C41	C	0.531519	-1.425802	-0.000034
C42	C	1.031519	-0.925802	0.499966
C43	C	0.634330	-1.428420	-0.000043
C44	C	1.134330	-0.928420	0.499957
N45	N	0.397378	-1.379027	0.353617
N46	N	0.897378	-0.879027	0.853617
C47	C	0.376818	-1.003940	-0.000024
C48	C	0.876818	-0.503940	0.499976
C49	C	0.351815	-0.864652	-0.000024
C50	C	0.851815	-0.364652	0.499976
N51	N	0.331260	-1.489574	-0.353654
N52	N	0.831260	-0.989574	0.146346
C53	C	0.356976	-1.446564	0.421401
C54	C	0.856976	-0.946564	0.921401
C55	C	0.371668	-1.422027	0.578566
C56	C	0.871668	-0.922027	1.078566
H57	H	0.276108	-0.824606	-0.000052
H58	H	0.776108	-0.324606	0.499948
C59	C	0.486094	-1.148196	-0.116716
C60	C	0.986094	-0.648196	0.383284
C61	C	0.479012	-1.058001	-0.000032
C62	C	0.979012	-0.558001	0.499968
H63	H	0.549188	-1.181561	-0.116720
H64	H	1.049188	-0.681561	0.383280
H65	H	0.447430	-1.212448	-0.116700
H66	H	0.947430	-0.712448	0.383300
H67	H	0.466480	-1.111738	-0.195863
H68	H	0.966480	-0.611738	0.304137
H69	H	0.498620	-1.094461	0.079116
H70	H	0.998620	-0.594461	0.579116
H71	H	0.517689	-0.993738	-0.000035
H72	H	1.017689	-0.493738	0.499965
C73	C	0.527896	-0.935220	-0.116761
C74	C	1.027896	-0.435220	0.383239
C75	C	0.520825	-0.845037	-0.000064
C76	C	1.020825	-0.345037	0.499936
H77	H	0.590991	-0.968575	-0.116789
H78	H	1.090991	-0.468575	0.383211
H79	H	0.489243	-0.999482	-0.116737
H80	H	0.989243	-0.499482	0.383263
H81	H	0.508264	-0.898757	-0.195900
H82	H	1.008264	-0.398757	0.304100
H83	H	0.540451	-0.881503	0.079075
H84	H	1.040451	-0.381503	0.579075
H85	H	0.559491	-0.780764	-0.000076
H86	H	1.059491	-0.280764	0.499924
C87	C	0.204826	-1.523859	0.377051
C88	C	0.704826	-1.023859	0.877051
C89	C	0.295611	-1.549152	0.342644
C90	C	0.795611	-1.049152	0.842644
H91	H	0.166947	-1.587193	0.328414
H92	H	0.666947	-1.087193	0.828414
H93	H	0.206634	-1.520857	0.472323
H94	H	0.706634	-1.020857	0.972323
H95	H	0.179322	-1.446379	0.353726
H96	H	0.679322	-0.946379	0.853726
H97	H	0.321117	-1.626628	0.365978
H98	H	0.821117	-1.126628	0.865978
H99	H	0.293807	-1.552167	0.247351
H100	H	0.793807	-1.052167	0.747351
H101	H	0.417134	-1.346030	0.636882
H102	H	0.917134	-0.846030	1.136882
C103	C	0.202836	-0.896019	-0.000020
C104	C	0.702836	-0.396019	0.499980
C105	C	0.207824	-1.023539	-0.000015
C106	C	0.707824	-0.523539	0.499985
H107	H	0.139742	-0.862652	-0.000028
H108	H	0.639742	-0.362652	0.499972
H109	H	0.240077	-0.857089	0.079130
H110	H	0.740077	-0.357089	0.579130
H111	H	0.225293	-0.881838	-0.079181
H112	H	0.725293	-0.381838	0.420819
H113	H	0.185373	-1.037720	0.079152
H114	H	0.685373	-0.537720	0.579152
H115	H	0.170569	-1.062482	-0.079173
H116	H	0.670569	-0.562482	0.420827
C117	C	0.179076	-1.566626	0.602453
C118	C	0.679076	-1.066626	1.102453
C119	C	0.269789	-1.592132	0.567802
C120	C	0.769789	-1.092132	1.067802
H121	H	0.141102	-1.629929	0.554006
H122	H	0.641102	-1.129929	1.054006
H123	H	0.180996	-1.563500	0.697766
H124	H	0.680996	-1.063500	1.197766
H125	H	0.153603	-1.489158	0.579065
H126	H	0.653603	-0.989158	1.079065
H127	H	0.295264	-1.669597	0.591200
H128	H	0.795264	-1.169597	1.091200
H129	H	0.267872	-1.595271	0.472469
H130	H	0.767872	-1.095271	0.972469
H131	H	0.442841	-1.303036	0.411939
H132	H	0.942841	-0.803036	0.911939
