data_functionalizedCrystal
_audit_creation_method	'MofGen! by Chris Wilmer'
_symmetry_space_group_name_H-M	'P1'
_symmetry_Int_Tables_number	1
_symmetry_cell_setting	triclinic
loop_
_symmetry_equiv_pos_as_xyz
  x,y,z
_cell_length_a	14.044220
_cell_length_b	14.044191
_cell_length_c	16.053802
_cell_angle_alpha	87.186691
_cell_angle_beta	87.198230
_cell_angle_gamma	86.809673
loop_
_atom_site_label
_atom_site_type_symbol
_atom_site_fract_x
_atom_site_fract_y
_atom_site_fract_z
O1	O	-0.226523	1.280858	-0.069385
O2	O	-0.218210	1.004186	-0.069396
O3	O	-0.084031	1.138369	-0.069387
O4	O	-0.360702	1.146675	-0.069394
O5	O	-0.091383	1.130980	0.069472
O6	O	-0.225562	0.996797	0.069463
O7	O	-0.233876	1.273469	0.069473
Zn8	Zn	-0.230886	1.133960	0.091515
Zn9	Zn	-0.221199	1.143695	-0.091437
O10	O	-0.368055	1.139286	0.069465
C11	C	-0.218250	0.964870	0.000032
C12	C	-0.207402	0.858727	0.000028
C13	C	-0.264503	0.613268	0.000035
C14	C	-0.187587	0.664394	0.000036
C15	C	-0.198615	0.772531	0.000031
C16	C	-0.253476	0.505121	0.000039
C17	C	-0.400000	1.146616	0.000035
C18	C	-0.506143	1.157461	0.000032
C19	C	-0.700482	1.177287	0.000036
C20	C	-0.751609	1.100373	0.000034
C21	C	-0.859746	1.111404	0.000037
C22	C	-0.592335	1.166257	0.000034
C23	C	-0.052085	1.131039	0.000041
C24	C	0.054058	1.120195	0.000039
C25	C	-0.233836	1.312786	0.000044
C26	C	-0.244683	1.418929	0.000042
N27	N	-0.237497	1.127323	0.216375
N28	N	-0.214581	1.150339	-0.216297
C29	C	-0.180428	1.184443	0.260072
C30	C	-0.185063	1.179810	0.347479
C31	C	-0.246772	1.118062	0.391186
C32	C	-0.303843	1.060936	0.347482
C33	C	-0.299203	1.065565	0.260077
C34	C	-0.267013	1.097841	0.652594
C35	C	-0.271650	1.093219	0.740005
C36	C	-0.152868	1.212093	0.739996
C37	C	-0.148238	1.216720	0.652589
C38	C	-0.205305	1.159590	0.608893
N39	N	-0.251513	1.113327	0.480530
N40	N	-0.200559	1.164321	0.519551
H41	H	-0.338629	0.650710	0.000031
H42	H	-0.130182	1.234729	0.224492
Br43	Br	-0.689211	0.976810	0.000035
Br44	Br	-0.762883	1.300842	0.000044
H45	H	-0.354085	1.010654	0.383074
H46	H	-0.097989	1.267000	0.617005
H47	H	-0.138592	1.226321	0.383057
Br48	Br	-0.075421	1.289620	0.799301
H49	H	-0.321905	1.042934	0.775588
Br50	Br	-0.344461	1.020313	0.593297
Br51	Br	-0.064026	0.601990	0.000041
H52	H	-0.345674	1.019050	0.224500
