data_functionalizedCrystal
_audit_creation_method	'MofGen! by Chris Wilmer'
_symmetry_space_group_name_H-M	'P1'
_symmetry_Int_Tables_number	1
_symmetry_cell_setting	triclinic
loop_
_symmetry_equiv_pos_as_xyz
  x,y,z
_cell_length_a	6.817900
_cell_length_b	11.102188
_cell_length_c	12.200875
_cell_angle_alpha	92.493537
_cell_angle_beta	107.143593
_cell_angle_gamma	108.603886
loop_
_atom_site_label
_atom_site_type_symbol
_atom_site_fract_x
_atom_site_fract_y
_atom_site_fract_z
V1	V	-4.094460	-0.176128	-0.357661
O2	O	-4.053827	0.008167	-0.350852
O3	O	-4.071345	-0.348946	-0.355216
O4	O	-4.063800	-0.173549	-0.513650
O5	O	-4.061424	-0.168445	-0.191322
V6	V	-4.572513	-0.154068	-0.337766
O7	O	-4.367718	-0.224516	-0.401304
O8	O	-4.749453	-0.105680	-0.294123
O9	O	-4.372422	0.018750	-0.340211
O10	O	-4.730543	-0.338363	-0.344574
O11	O	-4.722946	-0.161751	-0.504105
O12	O	-4.379966	-0.156647	-0.181777
C13	C	-3.921922	-0.391071	-0.349573
C14	C	-3.984428	-0.532353	-0.348613
C15	C	-3.912298	-0.167333	-0.551670
C16	C	-3.968681	-0.166368	-0.679191
C17	C	-4.017399	-0.713251	-0.242216
C18	C	-3.958644	-0.580501	-0.243113
C19	C	-4.068952	-0.616963	-0.453223
C20	C	-4.127690	-0.749711	-0.452324
C21	C	-3.991629	-0.761392	-0.136709
C22	C	-3.907105	-0.676790	-0.032099
C23	C	-3.848350	-0.544040	-0.032996
C24	C	-3.874120	-0.495890	-0.138503
C25	C	-4.071870	-0.164603	-0.912666
C26	C	-4.014440	-0.165585	-0.782744
C27	C	-4.185187	0.060868	-0.345850
C28	C	-4.101920	0.202149	-0.346818
C29	C	-4.194811	-0.162867	-0.143751
C30	C	-4.117665	-0.163826	-0.016228
H31	H	-4.039468	-0.869482	-0.135967
F32	F	-3.811563	-0.354602	-0.139452
F33	F	-3.758373	-0.454003	0.078338
F34	F	-4.096375	-0.565714	-0.565503
H35	H	-4.196507	-0.818595	-0.537500
F36	F	-3.879661	-0.728036	0.080183
