data_functionalizedCrystal
_audit_creation_method	'MofGen! by Chris Wilmer'
_symmetry_space_group_name_H-M	'P1'
_symmetry_Int_Tables_number	1
_symmetry_cell_setting	triclinic
loop_
_symmetry_equiv_pos_as_xyz
  x,y,z
_cell_length_a	14.971486
_cell_length_b	8.597304
_cell_length_c	14.048226
_cell_angle_alpha	82.293729
_cell_angle_beta	89.998499
_cell_angle_gamma	84.478986
loop_
_atom_site_label
_atom_site_type_symbol
_atom_site_fract_x
_atom_site_fract_y
_atom_site_fract_z
O1	O	1.188612	0.204533	-0.095822
O2	O	0.928411	0.229026	-0.097856
O3	O	1.063631	-0.011679	-0.078099
O4	O	1.053392	0.445238	-0.115579
O5	O	1.063615	-0.011693	0.080223
O6	O	0.928395	0.229012	0.060466
O7	O	1.188595	0.204519	0.062500
Zn8	Zn	1.058492	0.216763	0.086620
Zn9	Zn	1.058514	0.216782	-0.121976
O10	O	1.053375	0.445224	0.042744
C11	C	0.895069	0.227923	-0.018608
C12	C	0.795746	0.224641	-0.018349
C13	C	0.739671	0.366049	-0.029947
C14	C	0.646347	0.362955	-0.029679
C15	C	0.609098	0.218452	-0.017820
C16	C	0.665179	0.077033	-0.006218
C17	C	0.758502	0.080129	-0.006480
C18	C	0.470665	0.070592	-0.005677
C19	C	0.377335	0.067496	-0.005417
C20	C	0.358509	0.353418	-0.028876
C21	C	0.451832	0.356513	-0.029137
C22	C	0.507907	0.215094	-0.017538
C23	C	1.062523	-0.070160	0.005856
C24	C	1.059234	-0.244394	0.020141
C25	C	1.221937	0.205621	-0.016749
C26	C	1.321261	0.208903	-0.017015
C27	C	1.054484	0.503705	-0.041214
C28	C	1.057773	0.677939	-0.055505
N29	N	1.058484	0.216749	0.228982
N30	N	1.058530	0.216783	-0.264337
C31	C	1.118379	0.110209	0.287545
C32	C	1.118385	0.110208	0.387203
C33	C	1.058500	0.216756	0.428295
C34	C	0.998598	0.323301	0.369725
C35	C	0.998589	0.323293	0.270070
C36	C	0.998624	0.323313	0.577438
C37	C	0.998635	0.323323	0.677100
C38	C	1.118420	0.110227	0.694571
C39	C	1.118411	0.110219	0.594916
C40	C	1.058510	0.216767	0.536353
H41	H	0.769991	0.483720	-0.039605
O42	O	0.940377	0.426942	0.213314
C43	C	0.887508	0.520963	0.270951
H44	H	0.924201	0.522852	0.341829
H45	H	0.874950	0.646262	0.231871
H46	H	0.820621	0.469805	0.285761
H47	H	0.516319	-0.044567	0.003771
O48	O	1.176490	0.006348	0.555180
C49	C	1.160496	-0.148940	0.592454
H50	H	1.088847	-0.149700	0.619856
H51	H	1.170111	-0.227897	0.533491
H52	H	1.209597	-0.194794	0.654153
O53	O	1.059120	-0.242437	-0.145844
C54	C	0.981115	-0.264756	-0.196550
H55	H	0.926262	-0.297530	-0.143391
H56	H	0.957213	-0.151110	-0.244953
H57	H	0.996793	-0.363672	-0.242307
O58	O	1.057683	-0.323828	0.110522
C59	C	1.059727	-0.216642	0.177983
H60	H	1.033695	-0.093445	0.142662
H61	H	1.015513	-0.254181	0.241384
H62	H	1.131623	-0.215627	0.204455
H63	H	0.804158	-0.035020	0.002964
O64	O	1.176585	0.006555	0.247792
C65	C	1.229465	-0.087454	0.320854
H66	H	1.192784	-0.089325	0.392051
H67	H	1.242014	-0.212760	0.302348
H68	H	1.296354	-0.036299	0.327245
O69	O	0.629103	-0.063434	0.005181
C70	C	0.657616	-0.149622	-0.069758
H71	H	0.722697	-0.106725	-0.100615
H72	H	0.669421	-0.280300	-0.040599
H73	H	0.603787	-0.131538	-0.128657
O74	O	1.176608	0.006940	0.444182
C75	C	1.232532	0.091174	0.494887
H76	H	1.197973	0.213882	0.499743
H77	H	1.246117	0.025716	0.570340
H78	H	1.298727	0.102037	0.455583
H79	H	1.167193	0.023473	0.742260
H80	H	0.949869	0.410084	0.710552
O81	O	0.940530	0.427031	0.520572
C82	C	0.956416	0.582440	0.532181
H83	H	1.028035	0.583412	0.559489
H84	H	0.946812	0.661174	0.460181
H85	H	0.907247	0.628404	0.586259
O86	O	0.591917	0.500364	-0.041122
C87	C	0.609007	0.588101	-0.130309
H88	H	0.640162	0.505299	-0.180827
H89	H	0.543364	0.650921	-0.162981
H90	H	0.657313	0.679028	-0.119241
O91	O	0.487870	0.497017	-0.040628
C92	C	0.418367	0.621174	-0.050833
H93	H	0.354603	0.577066	-0.017236
H94	H	0.438753	0.722046	-0.013145
H95	H	0.405546	0.664808	-0.130366
O96	O	0.303914	0.490650	-0.040091
C97	C	0.213557	0.456940	-0.037339
H98	H	0.208902	0.333662	0.002758
H99	H	0.172079	0.547073	0.001227
H100	H	0.186625	0.462828	-0.113776
H101	H	0.347011	-0.050171	0.004241
O102	O	0.940386	0.426585	0.409764
C103	C	0.884468	0.342372	0.474316
H104	H	0.919023	0.219662	0.499312
H105	H	0.870899	0.407845	0.539022
H106	H	0.818265	0.331513	0.436813
