data_functionalizedCrystal
_audit_creation_method	'MofGen! by Chris Wilmer'
_symmetry_space_group_name_H-M	'P1'
_symmetry_Int_Tables_number	1
_symmetry_cell_setting	triclinic
loop_
_symmetry_equiv_pos_as_xyz
  x,y,z
_cell_length_a	14.519709
_cell_length_b	14.519709
_cell_length_c	9.130313
_cell_angle_alpha	89.994534
_cell_angle_beta	90.002092
_cell_angle_gamma	83.680145
loop_
_atom_site_label
_atom_site_type_symbol
_atom_site_fract_x
_atom_site_fract_y
_atom_site_fract_z
O1	O	1.223866	0.120891	-0.121612
O2	O	0.955389	0.135128	-0.121657
O3	O	1.096746	-0.006229	-0.121620
O4	O	1.082509	0.262248	-0.121649
O5	O	1.096736	-0.006233	0.121979
O6	O	0.955380	0.135124	0.121942
O7	O	1.223857	0.120887	0.121987
Cu8	Cu	1.089617	0.128005	0.144207
Cu9	Cu	1.089629	0.128010	-0.143877
O10	O	1.082500	0.262244	0.121950
C11	C	0.921025	0.134462	0.000137
C12	C	0.818643	0.132474	0.000120
C13	C	1.096078	-0.040591	0.000180
C14	C	1.094090	-0.142972	0.000180
C15	C	0.443748	0.125154	0.000187
C16	C	0.548056	0.127187	0.000168
C17	C	0.631192	0.128814	0.000152
C18	C	0.735507	0.130847	0.000136
C19	C	1.086770	-0.517868	0.000141
C20	C	1.088803	-0.413560	0.000152
C21	C	1.090430	-0.330423	0.000162
C22	C	1.092463	-0.226109	0.000170
C23	C	1.258221	0.121553	0.000190
C24	C	1.360602	0.123541	0.000197
C25	C	1.083168	0.296605	0.000147
C26	C	1.085156	0.398987	0.000137
N27	N	1.089616	0.128001	0.346830
N28	N	1.089637	0.128006	-0.346500
C29	C	1.152230	0.065434	0.423498
C30	C	1.152238	0.065435	0.576835
C31	C	1.027017	0.190576	0.576822
C32	C	1.027004	0.190571	0.423487
H33	H	1.203211	0.014485	0.361087
H34	H	1.203223	0.014486	0.639254
C35	C	0.958128	0.259399	0.339147
H36	H	0.920850	0.296673	0.406760
H37	H	0.919685	0.226134	0.279344
H38	H	0.991365	0.297864	0.279318
H39	H	0.976041	0.241520	0.639252
