data_functionalizedCrystal
_audit_creation_method	'MofGen! by Chris Wilmer'
_symmetry_space_group_name_H-M	'P1'
_symmetry_Int_Tables_number	1
_symmetry_cell_setting	triclinic
loop_
_symmetry_equiv_pos_as_xyz
  x,y,z
_cell_length_a	10.654541
_cell_length_b	10.489741
_cell_length_c	9.730217
_cell_angle_alpha	89.997012
_cell_angle_beta	89.999932
_cell_angle_gamma	84.511551
loop_
_atom_site_label
_atom_site_type_symbol
_atom_site_fract_x
_atom_site_fract_y
_atom_site_fract_z
O1	O	1.667922	0.179145	-0.114247
O2	O	1.302451	0.196218	-0.114259
O3	O	1.493503	0.002080	-0.114245
O4	O	1.476871	0.373284	-0.114261
O5	O	1.493497	0.002078	0.114336
O6	O	1.302445	0.196216	0.114321
O7	O	1.667916	0.179143	0.114333
Zn8	Zn	1.485180	0.187679	0.150619
Zn9	Zn	1.485188	0.187682	-0.150545
O10	O	1.476865	0.373282	0.114319
C11	C	1.255650	0.194964	0.000030
C12	C	1.116205	0.191216	0.000025
C13	C	1.492244	-0.045452	0.000045
C14	C	1.488486	-0.187080	0.000042
C15	C	1.088342	0.423360	-0.000003
C16	C	1.008902	0.537667	-0.000022
C17	C	0.877882	0.534137	-0.000023
C18	C	0.826301	0.416288	-0.000001
C19	C	0.905742	0.301982	0.000019
C20	C	1.036763	0.305524	0.000016
C21	C	0.933604	0.069840	0.000056
C22	C	1.064624	0.073367	0.000048
C23	C	0.882024	-0.048009	0.000078
C24	C	0.961465	-0.162318	0.000088
C25	C	1.092492	-0.158783	0.000088
C26	C	1.144065	-0.040939	0.000067
C27	C	1.366925	-0.255160	0.000028
C28	C	1.424346	-0.347312	0.112732
C29	C	1.424381	-0.347285	-0.112630
C30	C	1.545957	-0.277366	0.112839
C31	C	1.545974	-0.277330	-0.112624
C32	C	1.603484	-0.369454	0.000107
C33	C	1.714718	0.180397	0.000041
C34	C	1.854163	0.184146	0.000037
C35	C	1.478124	0.420814	0.000026
C36	C	1.481882	0.562441	0.000020
N37	N	1.485184	0.187677	0.356156
N38	N	1.485194	0.187674	-0.356082
C39	C	1.654430	0.015818	0.356159
C40	C	1.739061	-0.070107	0.428101
C41	C	1.739074	-0.070108	0.571980
C42	C	1.654444	0.015823	0.643922
C43	C	1.569812	0.101749	0.571980
C44	C	1.569811	0.101743	0.428097
C45	C	1.400562	0.273600	0.571977
C46	C	1.400554	0.273609	0.428097
C47	C	1.315932	0.359532	0.643918
C48	C	1.231305	0.445466	0.571977
C49	C	1.231296	0.445464	0.428088
C50	C	1.315922	0.359535	0.356156
H51	H	1.195024	0.426246	-0.000032
C52	C	1.615399	-0.235409	-0.241341
H53	H	1.572092	-0.259087	-0.321347
H54	H	1.698960	-0.276123	-0.242150
H55	H	1.617946	-0.145137	-0.239952
C56	C	0.682184	0.412400	0.000010
H57	H	0.662843	0.325847	0.000032
H58	H	0.647393	0.454466	-0.079701
H59	H	0.647408	0.454470	0.079731
H60	H	1.807984	-0.140081	0.630555
C61	C	1.065642	0.667290	-0.000052
H62	H	1.155050	0.653028	-0.000062
H63	H	1.038446	0.714415	0.079648
H64	H	1.038446	0.714389	-0.079784
C65	C	1.315947	0.359535	0.802182
H66	H	1.378479	0.296064	0.834727
H67	H	1.235530	0.341312	0.834745
H68	H	1.333868	0.441238	0.834713
H69	H	1.372933	-0.378223	-0.207922
H70	H	1.250746	-0.038050	0.000050
H71	H	1.703520	-0.418927	0.000173
H72	H	1.162399	0.515419	0.630560
C73	C	1.654437	0.015810	0.802185
H74	H	1.591911	0.079284	0.834727
H75	H	1.734857	0.034024	0.834746
H76	H	1.636511	-0.065892	0.834722
H77	H	0.813200	0.627215	-0.000029
C78	C	0.737906	-0.051894	0.000075
H79	H	0.697979	0.033059	0.000046
H80	H	0.713405	-0.095555	0.079790
H81	H	0.713421	-0.095570	-0.079642
C82	C	1.354869	-0.389186	0.241444
H83	H	1.410338	-0.445906	0.294508
H84	H	1.283909	-0.431504	0.214353
H85	H	1.327512	-0.315968	0.294890
H86	H	1.597345	-0.246560	0.208228
H87	H	1.162374	0.515430	0.369521
H88	H	1.654438	0.015821	0.239005
H89	H	1.807964	-0.140075	0.369513
H90	H	0.919457	-0.258261	0.000105
C91	C	1.315916	0.359528	0.197892
H92	H	1.378431	0.296039	0.165356
H93	H	1.333822	0.441220	0.165328
H94	H	1.235489	0.341289	0.165354
H95	H	1.157166	-0.251866	0.000109
H96	H	1.266979	-0.205460	0.000138
