data_functionalizedCrystal
_audit_creation_method	'MofGen! by Chris Wilmer'
_symmetry_space_group_name_H-M	'P1'
_symmetry_Int_Tables_number	1
_symmetry_cell_setting	triclinic
loop_
_symmetry_equiv_pos_as_xyz
  x,y,z
_cell_length_a	31.640172
_cell_length_b	21.606444
_cell_length_c	21.606444
_cell_angle_alpha	60.000398
_cell_angle_beta	90.002990
_cell_angle_gamma	59.997094
loop_
_atom_site_label
_atom_site_type_symbol
_atom_site_fract_x
_atom_site_fract_y
_atom_site_fract_z
Zr1	Zr	0.407177	0.677374	-0.081121
O2	O	0.339687	0.806508	-0.179955
O3	O	0.427867	0.548251	-0.050825
O4	O	0.427867	0.677373	-0.179942
O5	O	0.339687	0.677384	0.051015
O6	O	0.497424	0.677360	-0.179929
O7	O	0.339688	0.677386	-0.050838
O8	O	0.497425	0.446385	0.051038
O9	O	0.339687	0.908358	-0.179952
O10	O	0.488600	0.601348	-0.037891
O11	O	0.436690	0.601356	0.038111
O12	O	0.436690	0.753380	-0.113908
O13	O	0.384780	0.753388	-0.037906
Zr14	Zr	0.518112	0.677350	0.081345
Zr15	Zr	0.518113	0.677354	-0.081099
Zr16	Zr	0.407177	0.677370	0.081323
Zr17	Zr	0.407176	0.839815	-0.081115
Zr18	Zr	0.518113	0.514910	0.081340
O19	O	0.497422	0.806473	0.051050
O20	O	0.497423	0.806478	-0.179925
O21	O	0.339686	0.806502	0.051019
O22	O	0.585602	0.548217	0.180180
O23	O	0.585603	0.548222	-0.050795
O24	O	0.427866	0.548246	0.180149
O25	O	0.585602	0.677341	-0.050790
O26	O	0.497423	0.677351	0.180167
O27	O	0.427866	0.677364	0.180153
O28	O	0.585602	0.677338	0.051063
O29	O	0.427865	0.908342	-0.179935
O30	O	0.497424	0.446382	0.180159
O31	O	0.585603	0.446366	0.180177
O32	O	0.585604	0.446369	0.051055
O33	O	0.339686	0.908355	-0.050831
O34	O	0.427865	0.908339	-0.050814
O35	O	0.488600	0.601345	0.114133
O36	O	0.540510	0.601337	0.038131
O37	O	0.488599	0.753368	-0.037886
O38	O	0.436689	0.753376	0.038116
C39	C	0.462646	0.474174	0.000106
C40	C	0.462647	0.405214	0.000103
C41	C	0.489742	0.372812	-0.039570
C42	C	0.489744	0.308012	-0.039565
C43	C	0.462647	0.275620	0.000110
C44	C	0.435551	0.308024	0.039788
C45	C	0.435552	0.372818	0.039787
C46	C	0.435545	0.046715	0.039794
C47	C	0.435544	-0.018082	0.039790
C48	C	0.489736	-0.018091	-0.039557
C49	C	0.489738	0.046703	-0.039558
C50	C	0.462644	0.079098	0.000123
C51	C	0.462643	0.149361	0.000118
C52	C	0.462645	0.205363	0.000111
C53	C	0.323881	0.677388	0.000085
C54	C	0.276786	0.677396	0.000076
C55	C	0.011877	0.597995	0.039808
C56	C	-0.165108	0.597980	0.039823
O57	O	-0.164949	0.530487	0.073597
N58	N	-0.214334	0.677338	0.000142
C59	C	-0.219314	0.756706	-0.039542
O60	O	-0.265245	0.824205	-0.073287
C61	C	-0.042329	0.756720	-0.039552
C62	C	0.006897	0.677357	0.000125
C63	C	0.061101	0.518638	0.079483
C64	C	0.105344	0.518643	0.079475
C65	C	0.100364	0.598004	0.039793
C66	C	0.051140	0.677361	0.000118
C67	C	-0.047309	0.836087	-0.079231
C68	C	-0.003058	0.836084	-0.079228
C69	C	0.046168	0.756720	-0.039551
C70	C	0.090403	0.756728	-0.039572
N71	N	0.139629	0.677369	0.000109
C72	C	0.144610	0.598007	0.039791
C73	C	-0.312231	0.756693	-0.039535
C74	C	-0.356477	0.756690	-0.039534
C75	C	-0.302268	0.597963	0.039832
C76	C	-0.258022	0.597967	0.039826
C77	C	-0.263005	0.677335	0.000146
C78	C	0.237522	0.598023	0.039772
C79	C	0.281767	0.598035	0.039758
C80	C	0.227554	0.756761	-0.039604
C81	C	0.183313	0.756750	-0.039594
C82	C	0.188300	0.677374	0.000100
O83	O	0.090284	0.824184	-0.073322
O84	O	0.190545	0.530519	0.073545
C85	C	-0.032366	0.597990	0.039815
C86	C	-0.081590	0.677347	0.000140
C87	C	-0.086570	0.756709	-0.039542
C88	C	-0.125836	0.677344	0.000142
C89	C	-0.120856	0.597982	0.039824
C90	C	-0.071629	0.518624	0.079505
C91	C	-0.027386	0.518629	0.079498
C92	C	-0.135797	0.836067	-0.079223
C93	C	-0.180038	0.836056	-0.079213
C94	C	-0.175057	0.756695	-0.039531
C95	C	0.601408	0.677337	0.000139
C96	C	0.648503	0.677328	0.000149
C97	C	0.462646	0.677367	-0.203080
C98	C	0.462646	0.677369	-0.272042
C99	C	0.462643	0.880550	0.000119
C100	C	0.462643	0.949510	0.000121
C101	C	0.500965	0.677363	-0.304433
C102	C	0.500967	0.677357	-0.369226
C103	C	0.462647	0.677363	-0.401630
C104	C	0.424325	0.677365	-0.369233
C105	C	0.424326	0.677365	-0.304439
C106	C	0.424321	0.677365	-0.630544
C107	C	0.424322	0.677367	-0.695344
C108	C	0.500962	0.677356	-0.695331
C109	C	0.500963	0.677356	-0.630536
C110	C	0.462643	0.677354	-0.598143
C111	C	0.462642	0.677360	-0.527886
C112	C	0.462645	0.677364	-0.471889
C113	C	0.462644	0.677357	0.203305
C114	C	0.462644	0.677356	0.272267
C115	C	0.601410	0.474149	0.000133
C116	C	0.648505	0.405180	0.000140
C117	C	0.462645	0.474169	0.203298
C118	C	0.462646	0.405207	0.272258
C119	C	0.601409	0.474144	0.203325
C120	C	0.648504	0.405173	0.272294
C121	C	0.323881	0.880581	-0.203101
C122	C	0.276786	0.949551	-0.272070
C123	C	0.323880	0.880576	0.000092
C124	C	0.276785	0.949545	0.000085
C125	C	0.462644	0.880555	-0.203074
C126	C	0.462644	0.949517	-0.272033
C127	C	0.643526	0.372797	-0.039547
C128	C	0.687772	0.308003	-0.039555
C129	C	0.736999	0.275587	0.000127
C130	C	0.741977	0.307976	0.039815
C131	C	0.697731	0.372774	0.039818
C132	C	0.489742	0.372816	0.344331
C133	C	0.489740	0.308029	0.409132
C134	C	0.462645	0.275629	0.401858
C135	C	0.435545	0.308026	0.329777
C136	C	0.435544	0.372817	0.264978
C137	C	0.697721	0.372780	0.265010
C138	C	0.741977	0.307984	0.329808
C139	C	0.737013	0.275578	0.401888
C140	C	0.687791	0.307977	0.409170
C141	C	0.643536	0.372777	0.344373
C142	C	0.227568	0.981952	-0.264786
C143	C	0.183313	1.046769	-0.329583
C144	C	0.188276	1.079178	-0.401663
C145	C	0.237499	1.046774	-0.408945
C146	C	0.281753	0.981963	-0.344149
C147	C	0.281764	0.981934	0.039764
C148	C	0.237517	1.046746	0.039755
C149	C	0.188291	1.079164	0.000070
C150	C	0.183312	1.046772	-0.039614
C151	C	0.227559	0.981965	-0.039609
C152	C	0.489745	0.981896	-0.264735
C153	C	0.489754	1.046685	-0.329523
C154	C	0.462660	1.079097	-0.401610
C155	C	0.435559	1.046711	-0.408907
C156	C	0.435553	0.981919	-0.344119
H157	H	0.511800	0.073078	-0.071868
Br158	Br	0.372320	0.677363	-0.413203
H159	H	0.223517	0.955568	-0.206100
H160	H	0.603447	0.399189	-0.071870
Br161	Br	0.462651	0.187697	0.489809
H162	H	0.413500	1.073111	-0.467608
H163	H	0.143238	1.073141	-0.323639
H164	H	0.701792	0.399132	0.072140
H165	H	0.152238	1.131951	-0.454419
H166	H	0.462670	1.131854	-0.454358
Br167	Br	0.398782	0.416788	0.093636
Br168	Br	0.808788	0.263972	0.093669
H169	H	0.393119	0.677365	-0.604175
Br170	Br	0.372322	0.677364	-0.260475
Br171	Br	0.526522	0.264073	0.506947
Br172	Br	0.128247	1.167117	0.000071
H173	H	0.143227	1.073176	-0.071924
H174	H	0.413485	0.281636	0.323865
H175	H	0.413481	0.399182	0.206294
Br176	Br	0.526521	0.416769	0.354225
Br177	Br	-0.142567	0.943784	-0.133083
Br178	Br	0.526508	-0.062061	-0.093410
H179	H	0.782052	0.281610	0.323865
H180	H	0.241534	1.073170	-0.467641
H181	H	0.321849	0.533405	0.072071
H182	H	0.413482	0.955563	-0.350072
H183	H	0.683709	0.281639	-0.071873
Br184	Br	0.398767	-0.062043	0.093637
Br185	Br	0.797078	0.187635	0.489820
H186	H	0.701773	0.399155	0.206325
H187	H	0.773023	0.222824	0.000119
H188	H	0.683757	0.281583	0.467866
Br189	Br	0.576743	0.416728	0.354272
H190	H	0.511808	0.955516	-0.206044
H191	H	0.321827	0.955583	-0.350089
H192	H	-0.067581	0.454005	0.111811
H193	H	0.321842	0.955544	0.072085
Br194	Br	0.552969	0.677357	-0.739295
H195	H	0.241581	1.073109	0.072074
H196	H	-0.220119	0.900689	-0.111531
H197	H	0.223497	0.955596	-0.071918
H198	H	0.511823	1.073046	-0.323567
H199	H	0.241591	0.533388	0.072095
Br200	Br	0.526506	0.264058	-0.093427
Br201	Br	0.526514	0.416774	-0.093423
H202	H	0.413486	0.073080	0.072108
H203	H	0.413491	0.281640	0.072096
H204	H	0.065165	0.454009	0.111801
Br205	Br	0.172146	0.410929	0.133331
H206	H	-0.217943	0.533342	0.072142
H207	H	-0.298220	0.533344	0.072139
H208	H	-0.396556	0.821315	-0.071853
H209	H	-0.316297	0.821327	-0.071853
H210	H	-0.087384	0.900714	-0.111540
H211	H	-0.007121	0.900715	-0.111531
Br212	Br	0.552972	0.677365	-0.260467
Br213	Br	0.220805	0.864461	-0.093444
Br214	Br	0.039416	0.410915	0.133348
Br215	Br	0.116505	0.864458	-0.093461
H216	H	0.532165	0.677356	-0.604157
Br217	Br	0.552974	0.677345	-0.413185
Br218	Br	0.372311	0.677376	-0.739322
