data_functionalizedCrystal
_audit_creation_method	'MofGen! by Chris Wilmer'
_symmetry_space_group_name_H-M	'P1'
_symmetry_Int_Tables_number	1
_symmetry_cell_setting	triclinic
loop_
_symmetry_equiv_pos_as_xyz
  x,y,z
_cell_length_a	11.169417
_cell_length_b	21.295417
_cell_length_c	11.169417
_cell_angle_alpha	90.016676
_cell_angle_beta	90.000863
_cell_angle_gamma	90.031386
loop_
_atom_site_label
_atom_site_type_symbol
_atom_site_fract_x
_atom_site_fract_y
_atom_site_fract_z
Zn1	Zn	1.834569	-0.250697	0.678466
Zn2	Zn	2.334569	0.249303	1.178466
Zn3	Zn	1.834455	-0.355940	0.477752
Zn4	Zn	2.334455	0.144060	0.977752
Zn5	Zn	1.633922	-0.250690	0.477801
Zn6	Zn	2.133922	0.249310	0.977801
Zn7	Zn	1.633792	-0.355934	0.678396
Zn8	Zn	2.133792	0.144066	1.178396
O9	O	1.734185	-0.303315	0.578104
O10	O	2.234185	0.196685	1.078104
O11	O	2.002504	-0.264663	0.651850
O12	O	2.502504	0.235337	1.151850
O13	O	1.807860	-0.341978	0.309809
O14	O	2.307860	0.158022	0.809809
O15	O	1.660640	-0.162602	0.504470
O16	O	2.160640	0.337398	1.004470
O17	O	2.002420	-0.341985	0.504386
O18	O	2.502420	0.158015	1.004386
O19	O	1.808055	-0.162607	0.651898
O20	O	2.308055	0.337393	1.151898
O21	O	1.660529	-0.264651	0.309845
O22	O	2.160529	0.235349	0.809845
O23	O	1.465955	-0.264645	0.504402
O24	O	1.965955	0.235355	1.004402
O25	O	1.660420	-0.341975	0.846355
O26	O	2.160420	0.158025	1.346355
O27	O	1.465860	-0.341968	0.651778
O28	O	1.965860	0.158032	1.151778
O29	O	1.807930	-0.264658	0.846407
O30	O	2.307930	0.235342	1.346407
O31	O	1.807734	-0.444028	0.504318
O32	O	2.307734	0.055972	1.004318
O33	O	1.660308	-0.444024	0.651731
O34	O	2.160308	0.055976	1.151731
C35	C	1.422360	-0.303306	0.578089
C36	C	1.922360	0.196694	1.078089
C37	C	1.288960	-0.303317	0.578110
C38	C	1.788960	0.196683	1.078110
C39	C	1.734027	-0.466867	0.578038
C40	C	2.234027	0.033133	1.078038
C41	C	1.734070	-0.536835	0.578049
C42	C	2.234070	-0.036835	1.078049
C43	C	1.810902	-0.569683	0.501370
C44	C	2.310902	-0.069683	1.001370
C45	C	1.810959	-0.635425	0.501397
C46	C	2.310959	-0.135425	1.001397
C47	C	1.734161	-0.668317	0.578091
C48	C	2.234161	-0.168317	1.078091
C49	C	1.657323	-0.635462	0.654785
C50	C	2.157323	-0.135462	1.154785
C51	C	1.657277	-0.569720	0.654764
C52	C	2.157277	-0.069720	1.154764
N53	N	1.629168	-0.771585	0.587235
N54	N	2.129168	-0.271585	1.087235
N55	N	1.629214	-0.834037	0.587248
N56	N	2.129214	-0.334037	1.087248
C57	C	1.734295	-0.866392	0.578159
C58	C	2.234295	-0.366392	1.078159
N59	N	1.839330	-0.833937	0.569035
N60	N	2.339330	-0.333937	1.069035
N61	N	1.839282	-0.771480	0.569016
N62	N	2.339282	-0.271480	1.069016
C63	C	1.734202	-0.739603	0.578122
C64	C	2.234202	-0.239603	1.078122
C65	C	1.811195	-0.970526	0.501505
C66	C	2.311195	-0.470526	1.001505
C67	C	1.811254	-1.036269	0.501541
C68	C	2.311254	-0.536269	1.001541
C69	C	1.657607	-1.036304	0.654922
C70	C	2.157607	-0.536304	1.154922
C71	C	1.657559	-0.970562	0.654893
C72	C	2.157559	-0.470562	1.154893
C73	C	1.734352	-0.937676	0.578178
C74	C	2.234352	-0.437676	1.078178
C75	C	2.047227	-0.303325	0.578120
C76	C	2.547227	0.196675	1.078120
C77	C	2.180627	-0.303330	0.578127
C78	C	2.680627	0.196670	1.078127
C79	C	1.734173	-0.303316	0.891146
C80	C	2.234173	0.196684	1.391146
C81	C	1.734168	-0.303317	1.024546
C82	C	2.234168	0.196683	1.524546
C83	C	1.734375	-0.139125	0.578197
C84	C	2.234375	0.360875	1.078197
C85	C	1.734456	-0.069157	0.578237
C86	C	2.234456	0.430843	1.078237
C87	C	1.734182	-0.303326	1.266279
C88	C	2.234182	0.196674	1.766279
C89	C	1.734171	-0.303318	1.132879
C90	C	2.234171	0.196682	1.632879
H91	H	1.873434	-0.542910	0.438907
H92	H	2.373434	-0.042910	0.938907
Cl93	Cl	1.907554	-0.676729	0.404991
Cl94	Cl	2.407554	-0.176729	0.904991
Cl95	Cl	1.907862	-1.077565	0.405143
Cl96	Cl	2.407862	-0.577565	0.905143
H97	H	1.595082	-1.063084	0.717373
H98	H	2.095082	-0.563084	1.217373
H99	H	1.594990	-0.943815	0.717327
H100	H	2.094990	-0.443815	1.217327
Cl101	Cl	1.907732	-0.929181	0.405066
Cl102	Cl	2.407732	-0.429181	0.905066
Cl103	Cl	1.560782	-0.676811	0.751205
Cl104	Cl	2.060782	-0.176811	1.251205
H105	H	1.594709	-0.542975	0.717207
H106	H	2.094709	-0.042975	1.217207
