data_functionalizedCrystal
_audit_creation_method	'MofGen! by Chris Wilmer'
_symmetry_space_group_name_H-M	'P1'
_symmetry_Int_Tables_number	1
_symmetry_cell_setting	triclinic
loop_
_symmetry_equiv_pos_as_xyz
  x,y,z
_cell_length_a	18.101395
_cell_length_b	10.686154
_cell_length_c	10.686551
_cell_angle_alpha	89.693980
_cell_angle_beta	85.593544
_cell_angle_gamma	85.589920
loop_
_atom_site_label
_atom_site_type_symbol
_atom_site_fract_x
_atom_site_fract_y
_atom_site_fract_z
Zn1	Zn	-0.180605	-1.972205	-0.562446
Zn2	Zn	-0.314649	-1.955912	-0.352684
Zn3	Zn	-0.199544	-1.746314	-0.368756
Zn4	Zn	-0.313143	-1.762342	-0.578455
O5	O	-0.251985	-1.859193	-0.465585
O6	O	-0.191091	-2.145590	-0.521194
O7	O	-0.307936	-1.914581	-0.179270
O8	O	-0.093393	-1.776391	-0.394475
O9	O	-0.289572	-2.133619	-0.367083
O10	O	-0.079479	-1.942352	-0.536779
O11	O	-0.223369	-1.760591	-0.191078
O12	O	-0.221909	-1.572895	-0.409999
O13	O	-0.287005	-1.803708	-0.751878
O14	O	-0.305369	-1.584670	-0.564064
O15	O	-0.189631	-1.957893	-0.740116
O16	O	-0.418088	-1.930123	-0.382606
O17	O	-0.416982	-1.787908	-0.548480
C18	C	-0.265531	-1.533265	-0.490513
C19	C	-0.271343	-1.393834	-0.501208
C20	C	-0.444405	-1.859023	-0.465561
C21	C	-0.526716	-1.859068	-0.465584
C22	C	-0.825792	-1.859348	-0.465630
C23	C	-0.793780	-1.770114	-0.570217
C24	C	-0.708196	-1.769631	-0.569948
C25	C	-0.677417	-1.859209	-0.465608
C26	C	-0.716478	-1.813260	-0.336138
C27	C	-0.802121	-1.812681	-0.336767
C28	C	-0.786970	-1.994654	-0.489335
C29	C	-0.701211	-1.994096	-0.492294
C30	C	-0.593562	-1.859132	-0.465588
C31	C	-0.909647	-1.859421	-0.465643
C32	C	-0.058812	-1.859401	-0.465634
C33	C	0.023507	-1.859489	-0.465655
C34	C	-0.236037	-1.884406	-0.792786
C35	C	-0.229241	-1.895150	-0.932220
C36	C	-0.238380	-1.186393	-0.440552
C37	C	-0.232565	-1.325825	-0.429864
C38	C	-0.267815	-1.834151	-0.139651
C39	C	-0.274392	-1.823650	-0.000199
H40	H	-0.681440	-1.799555	-0.666267
H41	H	-0.318249	-1.754220	-0.951728
H42	H	-0.808629	-1.799840	-0.666870
N43	N	-0.171144	-1.987121	-0.996434
H44	H	-0.120134	-1.965957	-0.975199
H45	H	-0.180078	-2.074975	-0.966816
H46	H	-0.194921	-1.374269	-0.360600
N47	N	-0.829174	-1.638351	-0.550798
H48	H	-0.855927	-1.611215	-0.627103
H49	H	-0.865821	-1.636307	-0.474511
N50	N	-0.321222	-1.329672	-0.592949
H51	H	-0.318448	-1.235820	-0.587839
H52	H	-0.304468	-1.359439	-0.680844
H53	H	-0.827592	-1.713471	-0.315507
N54	N	-0.687996	-1.637062	-0.550197
H55	H	-0.706085	-1.581752	-0.620245
H56	H	-0.712123	-1.604524	-0.467129
N57	N	-0.830676	-1.894300	-0.230752
H58	H	-0.787625	-1.930490	-0.183814
H59	H	-0.866679	-1.842145	-0.171562
N60	N	-0.690528	-1.896042	-0.230682
H61	H	-0.653110	-1.964289	-0.265904
H62	H	-0.666688	-1.843861	-0.168750
H63	H	-0.700504	-1.715038	-0.314285
N64	N	-0.807615	-2.047532	-0.611548
H65	H	-0.842349	-1.984306	-0.652789
H66	H	-0.761189	-2.066318	-0.669036
N67	N	-0.666493	-2.039764	-0.618438
H68	H	-0.635479	-1.973366	-0.658141
H69	H	-0.633881	-2.119364	-0.606922
H70	H	-0.807661	-2.061261	-0.413037
N71	N	-0.672888	-2.087913	-0.397687
H72	H	-0.644105	-2.044110	-0.335907
H73	H	-0.716324	-2.126394	-0.351371
