data_functionalizedCrystal
_audit_creation_method	'MofGen! by Chris Wilmer'
_symmetry_space_group_name_H-M	'P1'
_symmetry_Int_Tables_number	1
_symmetry_cell_setting	triclinic
loop_
_symmetry_equiv_pos_as_xyz
  x,y,z
_cell_length_a	10.686285
_cell_length_b	16.959455
_cell_length_c	10.686551
_cell_angle_alpha	85.603811
_cell_angle_beta	80.915481
_cell_angle_gamma	85.628621
loop_
_atom_site_label
_atom_site_type_symbol
_atom_site_fract_x
_atom_site_fract_y
_atom_site_fract_z
Zn1	Zn	-0.450274	1.262787	-0.679005
Zn2	Zn	-0.678854	1.262724	-0.450503
Zn3	Zn	-0.466616	1.121183	-0.466767
Zn4	Zn	-0.662461	1.140023	-0.662706
O5	O	-0.564551	1.196679	-0.564745
O6	O	-0.480618	1.373392	-0.648708
O7	O	-0.664400	1.236036	-0.275030
O8	O	-0.286825	1.132109	-0.508549
O9	O	-0.648554	1.373345	-0.480828
O10	O	-0.274819	1.236145	-0.664479
O11	O	-0.508469	1.132047	-0.286979
O12	O	-0.492573	1.013069	-0.492745
O13	O	-0.620614	1.164220	-0.842499
O14	O	-0.636460	1.026912	-0.636700
O15	O	-0.464722	1.254414	-0.854473
O16	O	-0.854303	1.254305	-0.465024
O17	O	-0.842259	1.164158	-0.620929
C18	C	-0.564511	0.991310	-0.564719
C19	C	-0.564523	0.903455	-0.564736
C20	C	-0.894334	1.211292	-0.539471
C21	C	-1.035414	1.217617	-0.528701
C22	C	-0.489550	0.524753	-0.489962
C23	C	-0.639651	0.539216	-0.639593
C24	C	-0.639634	0.621761	-0.639587
C25	C	-0.564574	0.655806	-0.564766
C26	C	-0.489533	0.607305	-0.489951
C27	C	-0.714684	0.670267	-0.714391
C28	C	-0.714670	0.752817	-0.714386
C29	C	-0.639603	0.786863	-0.639571
C30	C	-0.564557	0.738358	-0.564754
C31	C	-0.489498	0.772402	-0.489933
C32	C	-0.414445	0.723898	-0.415122
C33	C	-0.414466	0.641351	-0.415135
C34	C	-0.639582	0.869410	-0.639557
C35	C	-0.489481	0.854954	-0.489921
C36	C	-0.233478	1.182032	-0.590146
C37	C	-0.092394	1.175791	-0.600971
C38	C	-0.539016	1.211426	-0.895831
C39	C	-0.528135	1.217710	-1.036921
C40	C	-0.564592	1.402851	-0.564772
C41	C	-0.564609	1.490709	-0.564783
C42	C	-0.589895	1.182031	-0.234954
C43	C	-0.600419	1.175884	-0.093893
H44	H	-1.094567	1.258263	-0.458574
H45	H	-1.033249	1.135142	-0.671085
H46	H	-0.670633	1.135271	-1.034732
H47	H	-0.457925	1.258333	-1.096088
H48	H	-0.353363	0.601853	-0.354227
H49	H	-0.428350	0.882667	-0.429000
C50	C	-0.407002	0.471405	-0.407673
H51	H	-0.417762	0.417366	-0.418386
H52	H	-0.320302	0.481986	-0.432917
H53	H	-0.432036	0.481942	-0.320935
H54	H	-0.353338	0.751628	-0.354196
H55	H	-0.775802	0.642541	-0.775296
C56	C	-0.722209	0.501769	-0.721890
H57	H	-0.711466	0.445660	-0.711186
H58	H	-0.808904	0.518249	-0.696646
H59	H	-0.697167	0.518285	-0.808624
H60	H	-0.775782	0.792303	-0.775303
H61	H	-0.700693	0.908898	-0.700463
