data_functionalizedCrystal
_audit_creation_method	'MofGen! by Chris Wilmer'
_symmetry_space_group_name_H-M	'P1'
_symmetry_Int_Tables_number	1
_symmetry_cell_setting	triclinic
loop_
_symmetry_equiv_pos_as_xyz
  x,y,z
_cell_length_a	19.288864
_cell_length_b	13.101039
_cell_length_c	19.288865
_cell_angle_alpha	86.654591
_cell_angle_beta	83.136245
_cell_angle_gamma	93.359745
loop_
_atom_site_label
_atom_site_type_symbol
_atom_site_fract_x
_atom_site_fract_y
_atom_site_fract_z
O1	O	0.925197	0.085556	0.082787
O2	O	0.722933	0.085487	0.094479
O3	O	0.829908	0.085503	-0.012497
O4	O	0.818221	0.085540	0.189762
O5	O	0.822233	-0.084928	-0.004809
O6	O	0.715258	-0.084944	0.102167
O7	O	0.917521	-0.084875	0.090475
Zn8	Zn	0.815171	-0.111969	0.097541
Zn9	Zn	0.825283	0.112581	0.087412
O10	O	0.810546	-0.084891	0.197450
C11	C	0.693218	0.000263	0.097947
C12	C	0.616114	0.000236	0.096819
N13	N	0.808274	-0.265219	0.104454
C14	C	0.571419	0.000263	0.159586
C15	C	0.498972	0.000274	0.158524
C16	C	0.471225	0.000278	0.094692
C17	C	0.515929	0.000245	0.031918
C18	C	0.588374	0.000224	0.032981
C19	C	0.365653	0.060013	0.041818
C20	C	0.293210	0.060041	0.040757
C21	C	0.247782	0.000340	0.091410
C22	C	0.274805	-0.059376	0.143135
C23	C	0.347250	-0.059397	0.144198
C24	C	0.392672	0.000301	0.093532
C25	C	0.124531	0.000378	0.153030
C26	C	0.052083	0.000383	0.151967
C27	C	0.069043	0.000364	0.025357
C28	C	0.141489	0.000349	0.026423
C29	C	0.169228	0.000361	0.090261
C30	C	0.798891	-0.474263	0.113865
C31	C	0.841566	-0.525132	0.071085
C32	C	0.836345	-0.641451	0.076322
C33	C	0.804111	-0.357933	0.108629
C34	C	0.947236	0.000352	0.087006
C35	C	1.024341	0.000385	0.088134
C36	C	0.825694	0.000284	-0.034529
C37	C	0.824565	0.000275	-0.111632
N38	N	0.832186	0.265831	0.080494
C39	C	0.887334	0.000291	-0.156329
C40	C	0.886274	0.000307	-0.228777
C41	C	0.822441	0.000286	-0.256524
C42	C	0.759664	0.000276	-0.211817
C43	C	0.760726	0.000270	-0.139371
C44	C	0.769572	-0.059429	-0.362117
C45	C	0.768512	-0.059430	-0.434562
C46	C	0.819162	0.000308	-0.479970
C47	C	0.870883	0.060033	-0.452926
C48	C	0.871945	0.060028	-0.380481
C49	C	0.821282	0.000293	-0.335078
C50	C	0.880786	0.000343	-0.603224
C51	C	0.879723	0.000365	-0.675673
C52	C	0.753111	0.000323	-0.658711
C53	C	0.754176	0.000311	-0.586264
C54	C	0.818015	0.000316	-0.558525
C55	C	0.814760	0.000330	0.219482
C56	C	0.815890	0.000346	0.296585
H57	H	0.593999	0.000275	0.211567
Cl58	Cl	0.904293	-0.457501	0.008731
H59	H	0.701137	0.000311	-0.681302
H60	H	0.493333	0.000263	-0.020056
H61	H	0.758438	-0.518066	0.154420
Cl62	Cl	0.967589	0.000326	-0.121462
H63	H	0.462574	0.000294	0.209638
H64	H	0.937389	0.000324	-0.265177
Cl65	Cl	0.197680	0.000321	-0.052489
H66	H	0.914057	0.108660	-0.358465
H67	H	0.369249	-0.108023	0.186312
Cl68	Cl	0.934561	0.135140	-0.510004
Cl69	Cl	0.961038	0.000343	-0.568348
H70	H	0.930839	0.000384	-0.712066
Cl71	Cl	0.675262	0.000286	-0.530070
Cl72	Cl	0.159407	0.000383	0.233282
Cl73	Cl	0.644565	0.000190	-0.045933
Cl74	Cl	0.703494	-0.134516	-0.468553
Cl75	Cl	-0.004107	0.000412	0.230881
H76	H	0.271213	0.108669	-0.001357
Cl77	Cl	0.705892	-0.134539	-0.305039
H78	H	0.046455	0.000431	-0.026619
H79	H	0.237819	-0.107991	0.184380
Cl80	Cl	0.422756	0.135074	-0.021866
Cl81	Cl	0.679417	0.000258	-0.246698
H82	H	0.709611	0.000257	-0.102978
