data_functionalizedCrystal
_audit_creation_method	'MofGen! by Chris Wilmer'
_symmetry_space_group_name_H-M	'P1'
_symmetry_Int_Tables_number	1
_symmetry_cell_setting	triclinic
loop_
_symmetry_equiv_pos_as_xyz
  x,y,z
_cell_length_a	13.897449
_cell_length_b	16.625545
_cell_length_c	13.897441
_cell_angle_alpha	90.031284
_cell_angle_beta	89.976606
_cell_angle_gamma	89.975137
loop_
_atom_site_label
_atom_site_type_symbol
_atom_site_fract_x
_atom_site_fract_y
_atom_site_fract_z
Zn1	Zn	1.474660	0.320958	-0.545445
Zn2	Zn	1.807993	0.654291	-0.212112
Zn3	Zn	2.141327	0.987625	0.121222
Zn4	Zn	1.474536	0.455808	-0.384145
Zn5	Zn	1.807870	0.789142	-0.050811
Zn6	Zn	2.141203	1.122475	0.282522
Zn7	Zn	1.313349	0.320995	-0.384156
Zn8	Zn	1.646683	0.654329	-0.050823
Zn9	Zn	1.980016	0.987662	0.282511
Zn10	Zn	1.313313	0.455754	-0.545390
Zn11	Zn	1.646646	0.789088	-0.212056
Zn12	Zn	1.979980	1.122421	0.121277
O13	O	1.393965	0.388379	-0.464784
O14	O	1.727298	0.721712	-0.131450
O15	O	2.060631	1.055046	0.201883
O16	O	1.609625	0.338853	-0.524067
O17	O	1.942959	0.672187	-0.190733
O18	O	2.276292	1.005520	0.142600
O19	O	1.453118	0.437963	-0.249164
O20	O	1.786451	0.771297	0.084169
O21	O	2.119784	1.104630	0.417502
O22	O	1.334814	0.208158	-0.405579
O23	O	1.668148	0.541491	-0.072246
O24	O	2.001481	0.874825	0.261087
O25	O	1.609534	0.437927	-0.405560
O26	O	1.942868	0.771261	-0.072226
O27	O	2.276201	1.104594	0.261107
O28	O	1.453329	0.208131	-0.524078
O29	O	1.786662	0.541464	-0.190744
O30	O	2.119996	0.874797	0.142589
O31	O	1.334694	0.338917	-0.249173
O32	O	1.668028	0.672250	0.084161
O33	O	2.001361	1.005584	0.417494
O34	O	1.178363	0.338864	-0.405526
O35	O	1.511696	0.672198	-0.072192
O36	O	1.845030	1.005531	0.261141
O37	O	1.334753	0.437835	-0.680379
O38	O	1.668086	0.771168	-0.347045
O39	O	2.001420	1.104502	-0.013712
O40	O	1.178336	0.437871	-0.523983
O41	O	1.511670	0.771205	-0.190650
O42	O	1.845003	1.104538	0.142683
O43	O	1.453294	0.338801	-0.680419
O44	O	1.786627	0.672134	-0.347086
O45	O	2.119960	1.005468	-0.013753
O46	O	1.453083	0.568634	-0.405506
O47	O	1.786416	0.901967	-0.072173
O48	O	2.119749	1.235300	0.261161
O49	O	1.334633	0.568594	-0.523972
O50	O	1.667966	0.901927	-0.190639
O51	O	2.001299	1.235261	0.142695
C52	C	1.143350	0.388367	-0.464750
C53	C	1.476684	0.721700	-0.131417
C54	C	1.810017	1.055033	0.201917
C55	C	1.036136	0.388381	-0.464759
C56	C	1.369470	0.721714	-0.131425
C57	C	1.702803	1.055047	0.201908
C58	C	0.949067	0.388383	-0.464775
C59	C	1.282400	0.721717	-0.131441
C60	C	1.615733	1.055050	0.201892
C61	C	0.839834	0.388389	-0.464804
C62	C	1.173167	0.721722	-0.131471
C63	C	1.506501	1.055056	0.201863
C64	C	1.393867	0.597870	-0.464753
C65	C	1.727200	0.931203	-0.131420
C66	C	2.060533	1.264537	0.201914
C67	C	1.393913	0.687491	-0.464772
C68	C	1.727246	1.020824	-0.131439
C69	C	2.060579	1.354158	0.201895
C70	C	1.394070	1.015667	-0.464887
C71	C	1.727404	1.349000	-0.131554
C72	C	2.060737	1.682333	0.201779
C73	C	1.394023	0.924358	-0.464858
C74	C	1.727357	1.257691	-0.131524
C75	C	2.060690	1.591025	0.201809
C76	C	1.393991	0.851582	-0.464829
C77	C	1.727324	1.184915	-0.131496
C78	C	2.060657	1.518248	0.201838
C79	C	1.393945	0.760267	-0.464801
C80	C	1.727279	1.093601	-0.131467
C81	C	2.060612	1.426934	0.201866
C82	C	1.645558	0.388392	-0.464818
C83	C	1.978891	0.721725	-0.131485
C84	C	2.312224	1.055059	0.201849
C85	C	1.752772	0.388398	-0.464833
C86	C	2.086105	0.721731	-0.131499
C87	C	2.419438	1.055064	0.201834
C88	C	1.394033	0.388308	-0.716377
C89	C	1.727366	0.721641	-0.383044
C90	C	2.060700	1.054974	-0.049710
C91	C	1.394062	0.388277	-0.823591
C92	C	1.727396	0.721611	-0.490258
C93	C	2.060729	1.054944	-0.156924
C94	C	1.394081	1.178070	-0.464847
C95	C	1.727415	1.511403	-0.131514
C96	C	2.060748	1.844737	0.201819
C97	C	1.394110	1.088449	-0.464903
C98	C	1.727443	1.421782	-0.131570
C99	C	2.060777	1.755116	0.201763
C100	C	1.394088	0.388223	-1.019886
C101	C	1.727422	0.721556	-0.686553
C102	C	2.060755	1.054890	-0.353220
C103	C	1.394071	0.388255	-0.910654
C104	C	1.727404	0.721589	-0.577320
C105	C	2.060738	1.054922	-0.243987
C106	C	1.393952	0.388392	-0.214169
C107	C	1.727285	0.721725	0.119164
C108	C	2.060619	1.055059	0.452497
C109	C	1.394110	0.388195	-0.106956
C110	C	1.727443	0.721528	0.226377
C111	C	2.060776	1.054862	0.559711
