data_functionalizedCrystal
_audit_creation_method	'MofGen! by Chris Wilmer'
_symmetry_space_group_name_H-M	'P1'
_symmetry_Int_Tables_number	1
_symmetry_cell_setting	triclinic
loop_
_symmetry_equiv_pos_as_xyz
  x,y,z
_cell_length_a	11.026607
_cell_length_b	10.723024
_cell_length_c	9.198806
_cell_angle_alpha	90.002012
_cell_angle_beta	89.997339
_cell_angle_gamma	83.473057
loop_
_atom_site_label
_atom_site_type_symbol
_atom_site_fract_x
_atom_site_fract_y
_atom_site_fract_z
O1	O	1.614521	-0.523503	-0.120860
O2	O	1.260718	-0.463891	-0.120869
O3	O	1.445780	-0.313882	-0.120859
O4	O	1.429459	-0.673512	-0.120870
O5	O	1.445766	-0.313879	0.120926
O6	O	1.260704	-0.463888	0.120916
O7	O	1.614506	-0.523499	0.120925
Cu8	Cu	1.437603	-0.493693	0.142997
Cu9	Cu	1.437621	-0.493698	-0.142941
O10	O	1.429444	-0.673508	0.120915
C11	C	1.215408	-0.452892	0.000023
C12	C	1.080422	-0.420109	0.000019
C13	C	1.444585	-0.267125	0.000032
C14	C	1.441032	-0.127803	0.000027
C15	C	1.659816	-0.534498	0.000030
C16	C	1.794803	-0.567282	0.000024
C17	C	1.867855	-0.476762	0.000025
C18	C	2.007371	-0.510642	0.000018
C19	C	1.430639	-0.720266	0.000021
C20	C	1.434193	-0.859587	0.000017
N21	N	1.437600	-0.493691	0.344111
C22	C	1.544583	-0.075171	0.000027
C23	C	1.540912	0.068824	0.000022
N24	N	1.437634	-0.493692	-0.344055
C25	C	1.515302	-0.430355	0.416313
C26	C	1.515321	-0.430355	0.583725
H27	H	2.048111	-0.613229	0.000021
H28	H	1.581850	-0.376136	0.645815
O29	O	1.358300	-0.558564	0.418052
C30	C	1.289517	-0.760142	0.464988
C31	C	1.379380	-0.686821	0.381141
H32	H	1.306546	-0.863855	0.435200
H33	H	1.191886	-0.722306	0.435137
H34	H	1.303650	-0.748547	0.586796
H35	H	1.365358	-0.698386	0.259314
H36	H	1.476979	-0.724673	0.411113
H37	H	1.349660	-0.066260	0.000015
O38	O	1.843454	-0.689645	-0.000247
C39	C	1.971173	-0.852669	-0.125490
C40	C	1.916141	-0.714072	-0.125376
H41	H	2.029972	-0.872455	-0.226630
H42	H	1.894517	-0.915613	-0.125588
H43	H	2.029839	-0.872525	-0.024262
H44	H	1.857487	-0.694096	-0.226587
H45	H	1.992855	-0.651202	-0.125203
H46	H	1.371111	-0.547925	0.593864
O47	O	1.646708	0.122796	0.000278
C48	C	1.834778	0.145990	0.125491
C49	C	1.714994	0.084807	0.125401
H50	H	1.890033	0.115279	0.226627
H51	H	1.813045	0.252503	0.125581
H52	H	1.889973	0.115413	0.024258
H53	H	1.659741	0.115285	0.226616
H54	H	1.736812	-0.021696	0.125236
H55	H	1.345540	0.095122	0.000026
O56	O	1.819400	-0.354336	-0.000165
C57	C	1.803429	-0.155806	-0.125470
C58	C	1.858404	-0.294422	-0.125418
H59	H	1.834922	-0.107332	-0.226741
H60	H	1.835011	-0.107173	-0.024354
H61	H	1.699571	-0.150320	-0.125395
H62	H	1.962265	-0.300023	-0.125544
H63	H	1.826726	-0.342994	-0.226525
O64	O	2.031978	-0.297674	-0.000169
C65	C	2.016025	-0.099143	-0.125470
C66	C	2.070988	-0.237763	-0.125420
H67	H	2.047522	-0.050671	-0.226740
H68	H	2.047612	-0.050515	-0.024353
H69	H	1.912166	-0.093648	-0.125394
H70	H	2.174850	-0.243374	-0.125547
H71	H	2.039305	-0.286330	-0.226528
O72	O	1.594531	-0.365487	0.342244
C73	C	1.663441	-0.163962	0.295345
C74	C	1.573623	-0.237253	0.379306
H75	H	1.646585	-0.060276	0.325302
H76	H	1.649263	-0.175410	0.173521
H77	H	1.761038	-0.201971	0.325131
H78	H	1.475990	-0.199293	0.349643
H79	H	1.587906	-0.225807	0.501109
H80	H	1.635954	-0.136715	0.000038
