data_functionalizedCrystal
_audit_creation_method	'MofGen! by Chris Wilmer'
_symmetry_space_group_name_H-M	'P1'
_symmetry_Int_Tables_number	1
_symmetry_cell_setting	triclinic
loop_
_symmetry_equiv_pos_as_xyz
  x,y,z
_cell_length_a	17.019311
_cell_length_b	14.044220
_cell_length_c	13.101018
_cell_angle_alpha	93.664400
_cell_angle_beta	97.229490
_cell_angle_gamma	91.718376
loop_
_atom_site_label
_atom_site_type_symbol
_atom_site_fract_x
_atom_site_fract_y
_atom_site_fract_z
O1	O	1.063533	-0.109790	0.179065
O2	O	0.834006	-0.126423	0.158814
O3	O	0.945324	0.019854	0.168625
O4	O	0.952215	-0.256067	0.169253
O5	O	0.937328	0.009350	-0.002510
O6	O	0.826010	-0.136928	-0.012322
O7	O	1.055537	-0.120294	0.007930
Zn8	Zn	0.939504	-0.130279	-0.029367
Zn9	Zn	0.950039	-0.116439	0.196111
O10	O	0.944219	-0.266572	-0.001882
C11	C	0.800456	-0.131251	0.070639
C12	C	0.712400	-0.129974	0.062869
C13	C	0.214152	-0.123070	0.014248
C14	C	0.296890	-0.124269	0.021551
C15	C	0.342619	-0.119136	0.118489
C16	C	0.305605	-0.112812	0.208131
C17	C	0.222868	-0.111619	0.200828
C18	C	0.592649	-0.122457	0.145208
C19	C	0.675391	-0.123647	0.152504
C20	C	0.666671	-0.135106	-0.034077
C21	C	0.583933	-0.133907	-0.041372
C22	C	0.546926	-0.127589	0.048270
C23	C	0.427191	-0.120359	0.125956
C24	C	0.462356	-0.126372	0.040802
C25	C	0.938310	0.049896	0.082791
C26	C	0.929313	0.155061	0.081996
C27	C	1.089087	-0.115467	0.096107
C28	C	1.177144	-0.116743	0.103883
C29	C	0.951234	-0.296614	0.083955
C30	C	0.960231	-0.401778	0.084756
N31	N	0.932319	-0.139724	-0.183249
C32	C	0.912866	0.347613	0.080560
C33	C	0.976674	0.405676	0.086193
C34	C	0.967523	0.512818	0.085393
C35	C	0.922016	0.240460	0.081359
C36	C	0.967000	-0.094133	-0.440102
C37	C	0.922551	-0.152574	-0.393147
C38	C	0.927988	-0.145422	-0.276349
C39	C	0.961564	-0.101283	-0.556911
N40	N	0.957230	-0.106986	0.349993
H41	H	0.327019	-0.129418	-0.051440
C42	C	0.182159	-0.104657	0.299434
N43	N	0.151498	-0.099414	0.373708
C44	C	0.829785	0.389162	0.073216
N45	N	0.767209	0.420467	0.067676
C46	C	0.163858	-0.128719	-0.092393
N47	N	0.125978	-0.132980	-0.172718
H48	H	0.546707	-0.138067	-0.120310
C49	C	0.707385	-0.142096	-0.132677
N50	N	0.738050	-0.147376	-0.206946
H51	H	0.712622	-0.119475	0.231447
C52	C	0.865635	-0.227433	-0.457340
N53	N	0.822771	-0.283819	-0.505694
C54	C	1.023914	-0.019281	-0.375910
N55	N	1.066780	0.037099	-0.327549
H56	H	1.038179	0.374923	0.091688
H57	H	0.464432	-0.116177	0.204884
H58	H	0.562528	-0.117308	0.218201
H59	H	0.342843	-0.108638	0.287061
H60	H	0.425120	-0.130557	-0.038125
