data_functionalizedCrystal
_audit_creation_method	'MofGen! by Chris Wilmer'
_symmetry_space_group_name_H-M	'P1'
_symmetry_Int_Tables_number	1
_symmetry_cell_setting	triclinic
loop_
_symmetry_equiv_pos_as_xyz
  x,y,z
_cell_length_a	13.032831
_cell_length_b	25.639240
_cell_length_c	13.032268
_cell_angle_alpha	82.861728
_cell_angle_beta	90.886977
_cell_angle_gamma	97.152369
loop_
_atom_site_label
_atom_site_type_symbol
_atom_site_fract_x
_atom_site_fract_y
_atom_site_fract_z
Zn1	Zn	1.498174	0.353069	-0.780699
Zn2	Zn	1.998174	0.853069	-0.280699
Zn3	Zn	1.519849	0.430962	-0.608689
Zn4	Zn	2.019849	0.930962	-0.108689
Zn5	Zn	1.348052	0.331229	-0.586948
Zn6	Zn	1.848052	0.831229	-0.086948
Zn7	Zn	1.326100	0.428135	-0.758815
Zn8	Zn	1.826100	0.928135	-0.258815
O9	O	1.423044	0.385849	-0.683788
O10	O	1.923044	0.885849	-0.183788
O11	O	1.644961	0.373724	-0.776138
O12	O	2.144961	0.873724	-0.276138
O13	O	1.515318	0.409775	-0.461891
O14	O	2.015318	0.909775	0.038109
O15	O	1.368082	0.260972	-0.612710
O16	O	1.868082	0.760972	-0.112710
O17	O	1.660886	0.430952	-0.649763
O18	O	2.160886	0.930952	-0.149763
O19	O	1.478376	0.277018	-0.755057
O20	O	1.978376	0.777018	-0.255057
O21	O	1.389099	0.336502	-0.445919
O22	O	1.889099	0.836502	0.054081
O23	O	1.201228	0.333761	-0.591490
O24	O	1.701228	0.833761	-0.091490
O25	O	1.330668	0.426134	-0.905632
O26	O	1.830668	0.926134	-0.405632
O27	O	1.185100	0.404957	-0.717760
O28	O	1.685100	0.904957	-0.217760
O29	O	1.457090	0.370983	-0.921710
O30	O	1.957090	0.870983	-0.421710
O31	O	1.494032	0.503741	-0.628544
O32	O	1.994032	1.003741	-0.128544
O33	O	1.351686	0.501664	-0.738841
O34	O	1.851686	1.001664	-0.238841
C35	C	1.155849	0.366683	-0.649892
C36	C	1.655849	0.866683	-0.149892
C37	C	1.041539	0.358497	-0.635415
C38	C	1.541539	0.858497	-0.135415
C39	C	0.982636	0.390121	-0.691343
C40	C	1.482636	0.890121	-0.191343
C41	C	0.864490	0.381662	-0.676382
C42	C	1.364490	0.881662	-0.176382
C43	C	1.422854	0.521674	-0.683703
C44	C	1.922854	1.021674	-0.183703
C45	C	1.422863	0.579789	-0.683713
C46	C	1.922863	1.079789	-0.183713
C47	C	1.348847	0.829921	-0.741154
C48	C	1.848847	1.329921	-0.241154
C49	C	1.348819	0.775314	-0.741142
C50	C	1.848819	1.275314	-0.241142
O51	O	1.285760	0.746164	-0.789949
O52	O	1.785760	1.246164	-0.289949
N53	N	1.422960	0.749072	-0.683766
N54	N	1.922960	1.249072	-0.183766
C55	C	1.497140	0.777442	-0.626406
C56	C	1.997140	1.277442	-0.126406
O57	O	1.560201	0.750107	-0.577603
O58	O	2.060201	1.250107	-0.077603
C59	C	1.497172	0.832048	-0.626424
C60	C	1.997172	1.332048	-0.126424
C61	C	1.423020	0.858286	-0.683796
C62	C	1.923020	1.358286	-0.183796
C63	C	1.274702	0.856159	-0.798521
C64	C	1.774702	1.356159	-0.298521
C65	C	1.274729	0.910761	-0.798531
C66	C	1.774729	1.410761	-0.298531
C67	C	1.348902	0.939126	-0.741173
C68	C	1.848902	1.439126	-0.241173
C69	C	1.423047	0.912889	-0.683805
C70	C	1.923047	1.412889	-0.183805
C71	C	1.571356	0.860417	-0.569071
C72	C	2.071356	1.360417	-0.069071
C73	C	1.571382	0.915027	-0.569094
C74	C	2.071382	1.415027	-0.069094
C75	C	1.497230	0.941265	-0.626466
C76	C	1.997230	1.441265	-0.126466
C77	C	1.497248	0.995856	-0.626457
C78	C	1.997248	1.495856	-0.126457
N79	N	1.423107	1.022098	-0.683833
N80	N	1.923107	1.522098	-0.183833
C81	C	1.348934	0.993733	-0.741191
C82	C	1.848934	1.493733	-0.241191
C83	C	1.497068	0.662764	-0.626374
C84	C	1.997068	1.162764	-0.126374
C85	C	1.497033	0.608158	-0.626350
C86	C	1.997033	1.108158	-0.126350
C87	C	1.348712	0.606034	-0.741088
C88	C	1.848712	1.106034	-0.241088
C89	C	1.348744	0.660641	-0.741106
C90	C	1.848744	1.160641	-0.241106
C91	C	1.422927	0.689006	-0.683750
C92	C	1.922927	1.189006	-0.183750
C93	C	1.348997	1.108403	-0.741206
C94	C	1.848997	1.608403	-0.241206
C95	C	1.349028	1.163010	-0.741208
C96	C	1.849028	1.663010	-0.241208
C97	C	1.497352	1.165130	-0.626474
C98	C	1.997352	1.665130	-0.126474
C99	C	1.497317	1.110527	-0.626469
C100	C	1.997317	1.610527	-0.126469
C101	C	1.423135	1.082165	-0.683842
C102	C	1.923135	1.582165	-0.183842
O103	O	1.560277	1.025041	-0.577679
O104	O	2.060277	1.525041	-0.077679
O105	O	1.285892	1.021076	-0.789997
O106	O	1.785892	1.521076	-0.289997
C107	C	1.691282	0.405090	-0.717817
C108	C	2.191282	0.905090	-0.217817
C109	C	1.805589	0.413289	-0.732318
C110	C	2.305589	0.913289	-0.232318
C111	C	1.389013	0.400680	-0.952029
C112	C	1.889013	0.900680	-0.452029
C113	C	1.374511	0.407000	-1.066338
C114	C	1.874511	0.907000	-0.566338
C115	C	1.423222	1.249492	-0.683875
C116	C	1.923222	1.749492	-0.183875
C117	C	1.423201	1.191375	-0.683850
C118	C	1.923201	1.691375	-0.183850
C119	C	1.430597	0.382530	-1.125255
C120	C	1.930597	0.882530	-0.625255
C121	C	1.415610	0.389062	-1.243399
C122	C	1.915610	0.889062	-0.743399
C123	C	1.457002	0.371042	-0.416598
C124	C	1.957002	0.871042	0.083402
C125	C	1.471703	0.364588	-0.302315
C126	C	1.971703	0.864588	0.197685
H127	H	0.827457	0.348321	-0.617424
H128	H	1.327457	0.848321	-0.117424
F129	F	1.507842	0.348814	-1.076865
F130	F	2.007842	0.848814	-0.576865
F131	F	1.548985	0.330889	-1.253936
F132	F	2.048985	0.830889	-0.753936
F133	F	1.297239	0.440701	-1.114725
F134	F	1.797239	0.940701	-0.614725
H135	H	1.019673	0.423455	-0.750305
H136	H	1.519673	0.923455	-0.250305
F137	F	0.993134	0.314921	-0.558356
F138	F	1.493134	0.814921	-0.058356
H139	H	1.356486	0.414845	-1.280418
H140	H	1.856486	0.914845	-0.780418
H141	H	0.842619	0.446625	-0.791287
H142	H	1.342619	0.946625	-0.291287
F143	F	1.270102	1.190931	-0.802272
F144	F	1.770102	1.690931	-0.302272
H145	H	1.214301	0.833069	-0.845234
H146	H	1.714301	1.333069	-0.345234
H147	H	1.288592	1.085317	-0.787927
H148	H	1.788592	1.585317	-0.287927
H149	H	1.214345	0.932119	-0.845247
H150	H	1.714345	1.432119	-0.345247
F151	F	1.269769	0.575836	-0.802132
F152	F	1.769769	1.075836	-0.302132
H153	H	1.631796	0.938119	-0.522391
H154	H	2.131796	1.438119	-0.022391
H155	H	1.288368	0.682001	-0.787829
H156	H	1.788368	1.182001	-0.287829
F157	F	1.575945	0.580239	-0.565274
F158	F	2.075945	1.080239	-0.065274
H159	H	1.631738	0.839062	-0.522354
H160	H	2.131738	1.339062	-0.022354
F161	F	1.576024	0.692947	-0.565317
F162	F	2.076024	1.192947	-0.065317
F163	F	1.576290	1.195328	-0.565436
F164	F	2.076290	1.695328	-0.065436
F165	F	1.576221	1.082599	-0.565387
F166	F	2.076221	1.582599	-0.065387
