data_functionalizedCrystal
_audit_creation_method	'MofGen! by Chris Wilmer'
_symmetry_space_group_name_H-M	'P1'
_symmetry_Int_Tables_number	1
_symmetry_cell_setting	triclinic
loop_
_symmetry_equiv_pos_as_xyz
  x,y,z
_cell_length_a	16.109302
_cell_length_b	19.188924
_cell_length_c	15.186229
_cell_angle_alpha	89.994194
_cell_angle_beta	89.994701
_cell_angle_gamma	83.301872
loop_
_atom_site_label
_atom_site_type_symbol
_atom_site_fract_x
_atom_site_fract_y
_atom_site_fract_z
O1	O	1.102830	0.089747	-0.073272
O2	O	1.602830	0.589747	0.426728
O3	O	0.860731	0.100915	-0.073266
O4	O	1.360731	0.600915	0.426734
O5	O	0.988770	-0.006309	-0.073259
O6	O	1.488770	0.493691	0.426741
O7	O	0.974791	0.196970	-0.073279
O8	O	1.474791	0.696970	0.426721
O9	O	0.988762	-0.006311	0.073199
O10	O	1.488762	0.493689	0.573199
O11	O	0.860722	0.100913	0.073192
O12	O	1.360722	0.600913	0.573192
O13	O	1.102822	0.089745	0.073185
O14	O	1.602822	0.589745	0.573185
Zn15	Zn	0.981771	0.095329	0.096442
Zn16	Zn	1.481771	0.595329	0.596442
Zn17	Zn	0.981782	0.095331	-0.096522
Zn18	Zn	1.481782	0.595331	0.403478
O19	O	0.974783	0.196969	0.073178
O20	O	1.474783	0.696969	0.573178
C21	C	0.829753	0.100461	-0.000036
C22	C	1.329753	0.600461	0.499964
C23	C	0.737463	0.099105	-0.000033
C24	C	1.237463	0.599105	0.499967
C25	C	0.525128	0.095967	0.079792
C26	C	1.025128	0.595967	0.579792
C27	C	0.438412	0.094685	0.079789
C28	C	0.938412	0.594685	0.579789
C29	C	0.438432	0.094690	-0.079887
C30	C	0.938432	0.594690	0.420113
C31	C	0.525147	0.095968	-0.079883
C32	C	1.025147	0.595968	0.420117
C33	C	0.568492	0.096609	-0.000041
C34	C	1.068492	0.596609	0.499959
C35	C	0.395061	0.094050	-0.000048
C36	C	0.895061	0.594050	0.499952
C37	C	0.301040	0.092660	-0.000051
C38	C	0.801040	0.592660	0.499949
C39	C	0.662519	0.097998	-0.000037
C40	C	1.162519	0.597998	0.499963
C41	C	0.988314	-0.032322	-0.000029
C42	C	1.488314	0.467678	0.499971
C43	C	0.986958	-0.109830	-0.000027
C44	C	1.486958	0.390170	0.499973
C45	C	0.986330	-0.146229	-0.079861
C46	C	1.486330	0.353771	0.420139
C47	C	0.985044	-0.219055	-0.079868
C48	C	1.485044	0.280945	0.420132
C49	C	0.984403	-0.255480	-0.000036
C50	C	1.484403	0.244520	0.499964
C51	C	0.985027	-0.219071	0.079809
C52	C	1.485027	0.280929	0.579809
C53	C	0.986304	-0.146246	0.079813
C54	C	1.486304	0.353754	0.579813
N55	N	1.029706	-0.375038	0.059380
N56	N	1.529706	0.124962	0.559380
N57	N	1.028494	-0.444219	0.059371
N58	N	1.528494	0.055781	0.559371
C59	C	0.980552	-0.474898	-0.000044
C60	C	1.480552	0.025102	0.499956
N61	N	0.933878	-0.433784	-0.059462
N62	N	1.433878	0.066216	0.440538
N63	N	0.935093	-0.364597	-0.059455
N64	N	1.435093	0.135403	0.440545
C65	C	0.983017	-0.334447	-0.000032
C66	C	1.483017	0.165553	0.499968
C67	C	0.978528	-0.590264	-0.079891
C68	C	1.478528	-0.090264	0.420109
C69	C	0.977237	-0.663090	-0.079894
C70	C	1.477237	-0.163090	0.420106
C71	C	0.977228	-0.663106	0.079785
C72	C	1.477228	-0.163106	0.579785
C73	C	0.978511	-0.590280	0.079786
C74	C	1.478511	-0.090280	0.579786
C75	C	0.979165	-0.553864	-0.000055
C76	C	1.479165	-0.053864	0.499945
C77	C	1.133799	0.090198	-0.000046
C78	C	1.633799	0.590198	0.499954
C79	C	1.226090	0.091555	-0.000055
C80	C	1.726090	0.591555	0.499945
C81	C	0.975239	0.222982	-0.000053
C82	C	1.475239	0.722982	0.499947
C83	C	0.976595	0.300490	-0.000061
C84	C	1.476595	0.800490	0.499939
N85	N	0.981769	0.095327	0.228134
N86	N	1.481769	0.595327	0.728134
N87	N	0.981790	0.095327	-0.228215
N88	N	1.481790	0.595327	0.271785
C89	C	1.038484	0.047864	0.453860
C90	C	1.538484	0.547864	0.953860
C91	C	1.038487	0.047863	0.546050
C92	C	1.538487	0.547863	1.046050
C93	C	0.925069	0.142792	0.546053
C94	C	1.425069	0.642792	1.046053
C95	C	0.925063	0.142790	0.453865
C96	C	1.425063	0.642790	0.953865
C97	C	0.981775	0.095327	0.407771
C98	C	1.481775	0.595327	0.907771
C99	C	0.981784	0.095327	0.592148
C100	C	1.481784	0.595327	1.092148
C101	C	0.981786	0.095326	0.692105
C102	C	1.481786	0.595326	1.192105
C103	C	0.981772	0.095327	0.307808
C104	C	1.481772	0.595327	0.807808
H105	H	0.403129	0.094169	-0.144891
H106	H	0.903129	0.594169	0.355109
H107	H	0.984502	-0.248733	0.144809
H108	H	1.484502	0.251267	0.644809
H109	H	0.986812	-0.116610	0.144826
H110	H	1.486812	0.383390	0.644826
C111	C	0.572850	0.096677	-0.167703
C112	C	1.072850	0.596677	0.332297
H113	H	0.534615	0.096122	-0.215255
H114	H	1.034615	0.596122	0.284745
H115	H	0.613169	0.056484	-0.171018
H116	H	1.113169	0.556484	0.328982
H117	H	0.600185	0.137872	-0.171019
H118	H	1.100185	0.637872	0.328981
C119	C	0.862688	0.195004	0.403159
C120	C	1.362688	0.695004	0.903159
H121	H	0.870804	0.188200	0.341654
H122	H	1.370804	0.688200	0.841654
H123	H	0.871548	0.241605	0.418257
H124	H	1.371548	0.741605	0.918257
H125	H	0.807227	0.187408	0.418274
H126	H	1.307227	0.687408	0.918274
H127	H	0.979029	-0.560644	0.144795
H128	H	1.479029	-0.060644	0.644795
C129	C	1.100857	-0.004348	0.403160
C130	C	1.600857	0.495652	0.903160
H131	H	1.134625	-0.032620	0.443816
H132	H	1.634625	0.467380	0.943816
H133	H	1.135372	0.020772	0.367185
H134	H	1.635372	0.520772	0.867185
H135	H	1.071048	-0.033423	0.367210
H136	H	1.571048	0.466577	0.867210
C137	C	1.100869	-0.004343	0.596744
C138	C	1.600869	0.495657	1.096744
H139	H	1.134645	-0.032605	0.556086
H140	H	1.634645	0.467395	1.056086
H141	H	1.071076	-0.033417	0.632717
H142	H	1.571076	0.466583	1.132717
H143	H	1.135387	0.020788	0.632696
H144	H	1.635387	0.520788	1.132696
C145	C	0.976516	-0.703164	0.167598
C146	C	1.476516	-0.203164	0.667598
H147	H	0.975668	-0.751751	0.156163
H148	H	1.475668	-0.251751	0.656163
H149	H	0.928251	-0.685893	0.200401
H150	H	1.428251	-0.185893	0.700401
H151	H	1.025201	-0.696573	0.200404
H152	H	1.525201	-0.196573	0.700404
H153	H	0.976721	-0.692725	-0.144907
H154	H	1.476721	-0.192725	0.355093
C155	C	0.862699	0.195003	0.596759
C156	C	1.362699	0.695003	1.096759
H157	H	0.870829	0.188213	0.658264
H158	H	1.370829	0.688213	1.158264
H159	H	0.807240	0.187410	0.581664
H160	H	1.307240	0.687410	1.081664
H161	H	0.871563	0.241605	0.581638
H162	H	1.371563	0.741605	1.081638
C163	C	0.987034	-0.106174	-0.167681
C164	C	1.487034	0.393826	0.332319
H165	H	0.986468	-0.138286	-0.215229
H166	H	1.486468	0.361714	0.284771
H167	H	1.036002	-0.083097	-0.171004
H168	H	1.536002	0.416903	0.328996
H169	H	0.939051	-0.072431	-0.170995
H170	H	1.439051	0.427569	0.329005
C171	C	0.979237	-0.550202	-0.167709
C172	C	1.479237	-0.050202	0.332291
H173	H	0.978667	-0.582312	-0.215258
H174	H	1.478667	-0.082312	0.284742
H175	H	1.028210	-0.527131	-0.171029
H176	H	1.528210	-0.027131	0.328971
H177	H	0.931259	-0.516454	-0.171023
H178	H	1.431259	-0.016454	0.328977
H179	H	0.403109	0.094162	0.144797
H180	H	0.903109	0.594162	0.644797
C181	C	0.572808	0.096653	0.167614
C182	C	1.072808	0.596653	0.667614
H183	H	0.534561	0.096077	0.215158
H184	H	1.034561	0.596077	0.715158
H185	H	0.600152	0.137838	0.170947
H186	H	1.100152	0.637838	0.670947
H187	H	0.613120	0.056450	0.170924
H188	H	1.113120	0.556450	0.670924
H189	H	0.984527	-0.248697	-0.144880
H190	H	1.484527	0.251303	0.355120
