data_functionalizedCrystal
_audit_creation_method	'MofGen! by Chris Wilmer'
_symmetry_space_group_name_H-M	'P1'
_symmetry_Int_Tables_number	1
_symmetry_cell_setting	triclinic
loop_
_symmetry_equiv_pos_as_xyz
  x,y,z
_cell_length_a	11.792241
_cell_length_b	27.731996
_cell_length_c	10.868271
_cell_angle_alpha	89.988908
_cell_angle_beta	89.999893
_cell_angle_gamma	83.407402
loop_
_atom_site_label
_atom_site_type_symbol
_atom_site_fract_x
_atom_site_fract_y
_atom_site_fract_z
O1	O	1.504760	0.066250	-0.102220
O2	O	1.174198	0.073077	-0.102251
O3	O	1.349776	-0.000675	-0.102208
O4	O	1.329181	0.140002	-0.102263
O5	O	1.349762	-0.000678	0.102437
O6	O	1.174183	0.073075	0.102394
O7	O	1.504746	0.066247	0.102424
Zn8	Zn	1.339462	0.069660	0.134901
Zn9	Zn	1.339481	0.069664	-0.134727
O10	O	1.329167	0.139999	0.102381
C11	C	1.131913	0.072647	0.000068
C12	C	1.005941	0.071363	0.000057
C13	C	0.775306	0.069003	0.000094
C14	C	0.903648	0.070314	0.000074
C15	C	1.349346	-0.018687	0.000118
C16	C	1.348072	-0.072350	0.000131
C17	C	1.340062	-0.405111	-0.111482
C18	C	1.335223	-0.606798	-0.111504
O19	O	1.334556	-0.632871	-0.206375
N20	N	1.334615	-0.632020	0.000047
C21	C	1.335208	-0.606817	0.111611
O22	O	1.334568	-0.632897	0.206491
C23	C	1.340039	-0.405131	0.111632
C24	C	1.340659	-0.379912	0.000074
C25	C	1.340681	-0.379892	-0.223031
C26	C	1.341897	-0.329474	-0.223024
C27	C	1.342494	-0.304275	-0.111469
C28	C	1.341875	-0.329494	0.000080
C29	C	1.340624	-0.379929	0.223195
C30	C	1.341829	-0.329504	0.223190
C31	C	1.342449	-0.304285	0.111632
C32	C	1.343688	-0.253877	0.111643
N33	N	1.344297	-0.228654	0.000092
C34	C	1.343700	-0.253854	-0.111464
C35	C	1.332674	-0.712705	0.111592
C36	C	1.331469	-0.763126	0.111587
C37	C	1.331482	-0.763104	-0.111528
C38	C	1.332696	-0.712682	-0.111522
C39	C	1.333283	-0.687483	0.000041
C40	C	1.346254	-0.147972	-0.111441
C41	C	1.347475	-0.097549	-0.111425
C42	C	1.347456	-0.097576	0.111690
C43	C	1.346241	-0.147995	0.111674
C44	C	1.345636	-0.173191	0.000098
O45	O	1.344344	-0.227772	0.206464
O46	O	1.344315	-0.227763	-0.206330
C47	C	1.338846	-0.455530	-0.111489
C48	C	1.338227	-0.480749	0.000060
C49	C	1.338824	-0.455550	0.111616
C50	C	1.337022	-0.531170	0.000056
C51	C	1.336425	-0.556369	-0.111500
C52	C	1.337034	-0.531147	-0.223051
C53	C	1.338250	-0.480729	-0.223044
C54	C	1.338216	-0.480772	0.223167
C55	C	1.337001	-0.531190	0.223151
C56	C	1.336404	-0.556389	0.111595
C57	C	1.547030	0.066677	0.000103
C58	C	1.673002	0.067961	0.000105
C59	C	1.329597	0.158011	0.000052
C60	C	1.330872	0.211674	0.000032
N61	N	1.339458	0.069657	0.318915
N62	N	1.339495	0.069663	-0.318742
C63	C	1.339475	0.069663	0.569921
C64	C	1.339462	0.069661	0.430243
H65	H	1.345756	-0.168480	-0.202297
H66	H	1.345746	-0.168530	0.202514
H67	H	1.347947	-0.077050	0.202515
H68	H	1.342398	-0.308945	-0.313866
H69	H	1.336553	-0.551673	-0.313883
O70	O	1.336230	-0.555725	0.331454
C71	C	1.237170	-0.579650	0.338117
H72	H	1.204238	-0.585462	0.241250
H73	H	1.168775	-0.556555	0.393127
C74	C	1.306290	-0.621992	0.520908
C75	C	1.265847	-0.629135	0.401934
H76	H	1.323977	-0.652516	0.560277
H77	H	1.373027	-0.605873	0.516422
H78	H	1.249287	-0.602745	0.566734
H79	H	1.322855	-0.648376	0.356105
H80	H	1.199121	-0.645259	0.406413
H81	H	1.330997	-0.783629	-0.202361
O82	O	1.348225	-0.073028	-0.219750
C83	C	1.447214	-0.049058	-0.226441
H84	H	1.515619	-0.067909	-0.163190
H85	H	1.425888	-0.009673	-0.196421
C86	C	1.407735	-0.027458	-0.437429
C87	C	1.491754	-0.050614	-0.359751
H88	H	1.435207	-0.028415	-0.519661
H89	H	1.341041	-0.043605	-0.432921
H90	H	1.389970	0.005361	-0.412397
H91	H	1.509506	-0.083433	-0.384773
H92	H	1.558452	-0.034472	-0.364266
O93	O	1.340158	-0.404294	-0.331515
C94	C	1.340932	-0.371212	-0.429953
H95	H	1.377726	-0.337182	-0.397218
H96	H	1.249982	-0.361010	-0.464270
C97	C	1.369745	-0.436618	-0.575554
C98	C	1.414945	-0.394824	-0.535349
H99	H	1.415395	-0.451184	-0.640570
H100	H	1.369219	-0.458907	-0.509235
H101	H	1.293954	-0.428111	-0.604142
H102	H	1.490728	-0.403332	-0.506748
H103	H	1.415485	-0.372537	-0.601666
O104	O	1.342199	-0.304992	0.331531
C105	C	1.244586	-0.270597	0.338178
H106	H	1.175504	-0.282137	0.274858
H107	H	1.267740	-0.233562	0.308215
C108	C	1.284847	-0.253293	0.549216
C109	C	1.199996	-0.267468	0.471454
H110	H	1.257344	-0.251360	0.631428
H111	H	1.350613	-0.276464	0.544738
H112	H	1.304134	-0.222431	0.524232
H113	H	1.180721	-0.298331	0.496429
H114	H	1.134225	-0.244302	0.475940
H115	H	1.338754	-0.460200	-0.313886
H116	H	1.333199	-0.692152	-0.202362
O117	O	1.330830	-0.787545	0.220065
C118	C	1.331642	-0.754486	0.318519
H119	H	1.296563	-0.716634	0.285803
H120	H	1.422851	-0.753961	0.352830
C121	C	1.299791	-0.816706	0.464091
C122	C	1.256697	-0.770216	0.423911
H123	H	1.253567	-0.826409	0.529105
H124	H	1.299249	-0.838979	0.397762
H125	H	1.375798	-0.816262	0.492675
H126	H	1.180698	-0.770662	0.395314
H127	H	1.257226	-0.747944	0.490238
H128	H	1.333158	-0.692193	0.202446
H129	H	1.340121	-0.400454	0.314037
H130	H	1.338703	-0.460260	0.314011
