data_functionalizedCrystal
_audit_creation_method	'MofGen! by Chris Wilmer'
_symmetry_space_group_name_H-M	'P1'
_symmetry_Int_Tables_number	1
_symmetry_cell_setting	triclinic
loop_
_symmetry_equiv_pos_as_xyz
  x,y,z
_cell_length_a	16.992694
_cell_length_b	12.837942
_cell_length_c	15.455313
_cell_angle_alpha	92.949088
_cell_angle_beta	87.142206
_cell_angle_gamma	92.748582
loop_
_atom_site_label
_atom_site_type_symbol
_atom_site_fract_x
_atom_site_fract_y
_atom_site_fract_z
O1	O	1.060029	0.216906	-0.072020
O2	O	0.831564	0.214478	-0.072045
O3	O	0.940730	0.064370	-0.072028
O4	O	0.950863	0.367014	-0.072037
O5	O	0.934485	0.072916	0.072233
O6	O	0.825318	0.223024	0.072216
O7	O	1.053784	0.225452	0.072241
Cu8	Cu	0.938981	0.225018	0.085401
Cu9	Cu	0.946367	0.214912	-0.085205
O10	O	0.944617	0.375560	0.072224
C11	C	0.798995	0.215629	0.000082
C12	C	0.711256	0.206315	0.000072
C13	C	0.667730	0.296178	0.000070
C14	C	0.585288	0.287422	0.000082
C15	C	0.546375	0.188801	0.000091
C16	C	0.589907	0.098931	0.000095
C17	C	0.672346	0.107689	0.000089
C18	C	0.300064	0.152503	0.000115
C19	C	0.217618	0.143751	0.000118
C20	C	0.213006	0.332243	0.000107
C21	C	0.295447	0.340992	0.000096
C22	C	0.338972	0.251123	0.000105
N23	N	0.462107	0.179848	0.000100
N24	N	0.423238	0.260077	0.000102
C25	C	0.934185	0.029739	0.000102
C26	C	0.923977	-0.086184	0.000099
C27	C	1.046699	-0.316976	0.000095
C28	C	1.037111	-0.425897	0.000093
C29	C	0.895215	-0.412947	0.000086
C30	C	0.904802	-0.304027	0.000088
C31	C	0.980547	-0.256046	0.000094
C32	C	0.990134	-0.147123	0.000103
C33	C	0.848238	-0.134176	0.000090
C34	C	0.838650	-0.243096	0.000087
C35	C	1.086352	0.224301	0.000112
C36	C	1.174092	0.233614	0.000116
C37	C	0.951163	0.410191	0.000092
C38	C	0.961371	0.526114	0.000089
N39	N	0.933792	0.232127	0.205396
N40	N	0.951562	0.207795	-0.205199
C41	C	0.980189	0.168382	0.250797
C42	C	0.976273	0.173768	0.341604
C43	C	0.925963	0.242905	0.387008
C44	C	0.879560	0.306652	0.341600
C45	C	0.883473	0.301260	0.250795
C46	C	0.909072	0.266151	0.658587
C47	C	0.905164	0.271540	0.749399
C48	C	1.001877	0.138654	0.749397
C49	C	1.005788	0.133273	0.658589
C50	C	0.959383	0.197016	0.613189
N51	N	0.921960	0.248414	0.479828
N52	N	0.963381	0.191501	0.520371
H53	H	0.335492	0.079324	0.000123
O54	O	1.063731	-0.100567	-0.000049
C55	C	1.107780	-0.135563	-0.074755
H56	H	1.065886	-0.164807	-0.126974
H57	H	1.147350	-0.068354	-0.099834
H58	H	1.145723	-0.201825	-0.057865
O59	O	1.021385	0.112005	0.385807
C60	C	1.071975	0.175065	0.438304
H61	H	1.046053	0.254864	0.451898
H62	H	1.078453	0.136366	0.502165
H63	H	1.132325	0.184955	0.403303
H64	H	0.871288	0.318055	0.621630
H65	H	1.090979	-0.475503	0.000090
O66	O	0.551986	0.003208	0.000066
C67	C	0.469888	0.014746	0.000091
H68	H	0.457822	0.092925	-0.027225
H69	H	0.441839	-0.051254	-0.041788
H70	H	0.443615	0.011896	0.069301
O71	O	1.029078	0.101132	0.206830
C72	C	1.069203	0.046042	0.266380
H73	H	1.033977	0.046005	0.331113
H74	H	1.076149	-0.037811	0.240154
H75	H	1.129927	0.085385	0.276025
H76	H	1.046755	0.076976	0.621623
O77	O	1.046903	0.076577	0.793406
C78	C	1.027300	-0.029067	0.771245
H79	H	0.999741	-0.035388	0.705317
H80	H	1.082900	-0.075671	0.768139
H81	H	0.983410	-0.061568	0.822358
H82	H	0.864193	0.327844	0.786363
H83	H	0.833547	-0.452034	0.000071
O84	O	0.765121	-0.289838	-0.000032
C85	C	0.758551	-0.356853	-0.074760
H86	H	0.819790	-0.380263	-0.099671
H87	H	0.721058	-0.429713	-0.057958
H88	H	0.729493	-0.314775	-0.127075
H89	H	0.327125	0.421299	0.000079
H90	H	0.177559	0.405409	0.000101
H91	H	0.838592	0.362941	0.378574
O92	O	0.838376	0.363291	0.206823
C93	C	0.793118	0.425452	0.266367
H94	H	0.822765	0.433181	0.331092
H95	H	0.788431	0.506189	0.240120
H96	H	0.731562	0.387255	0.276039
H97	H	0.707784	0.034513	0.000091
H98	H	0.699407	0.376486	0.000063
H99	H	0.794372	-0.084554	0.000096
H100	H	0.549853	0.360598	0.000080
O101	O	1.120250	-0.270305	0.000258
C102	C	1.126800	-0.203247	0.074963
H103	H	1.081389	-0.229306	0.127178
H104	H	1.188572	-0.206253	0.100049
H105	H	1.115738	-0.119959	0.058069
O106	O	0.179939	0.047867	0.000164
C107	C	0.236033	-0.029579	0.000148
H108	H	0.292943	0.005905	0.027461
H109	H	0.212013	-0.095539	0.042033
H110	H	0.248500	-0.061727	-0.069060
