data_functionalizedCrystal
_audit_creation_method	'MofGen! by Chris Wilmer'
_symmetry_space_group_name_H-M	'P1'
_symmetry_Int_Tables_number	1
_symmetry_cell_setting	triclinic
loop_
_symmetry_equiv_pos_as_xyz
  x,y,z
_cell_length_a	14.853559
_cell_length_b	15.944480
_cell_length_c	13.930277
_cell_angle_alpha	90.006298
_cell_angle_beta	89.997639
_cell_angle_gamma	96.449349
loop_
_atom_site_label
_atom_site_type_symbol
_atom_site_fract_x
_atom_site_fract_y
_atom_site_fract_z
O1	O	0.115970	-1.114690	-0.079806
O2	O	0.130371	-0.870148	-0.079811
O3	O	-0.008070	-0.998955	-0.079807
O4	O	0.254411	-0.985884	-0.079810
O5	O	-0.008073	-0.998937	0.079855
O6	O	0.130369	-0.870130	0.079850
O7	O	0.115967	-1.114673	0.079856
Zn8	Zn	0.123167	-0.992399	0.105203
Zn9	Zn	0.123171	-0.992422	-0.105158
O10	O	0.254408	-0.985866	0.079852
C11	C	0.129783	-0.838844	0.000019
C12	C	0.128025	-0.745593	0.000016
C13	C	0.209522	-0.509920	0.000013
C14	C	0.165581	-0.459305	0.078739
C15	C	0.124766	-0.574867	0.000017
C16	C	0.165564	-0.459327	-0.078675
C17	C	0.121624	-0.409953	0.000013
C18	C	0.080847	-0.525480	0.078808
C19	C	0.080843	-0.525506	-0.078677
C20	C	0.036839	-0.474923	0.000068
C21	C	0.126578	-0.669870	0.000020
C22	C	0.119805	-0.314953	0.000018
C23	C	-0.041659	-0.998355	0.000022
C24	C	-0.141741	-0.996584	0.000016
C25	C	-0.564902	-0.989081	-0.087016
C26	C	-0.564900	-0.989061	0.087054
C27	C	-0.470870	-0.990732	0.087055
C28	C	-0.423851	-0.991576	0.000019
C29	C	-0.470863	-0.990749	-0.087017
C30	C	-0.423850	-0.991551	0.174090
C31	C	-0.329813	-0.993221	0.174094
C32	C	-0.282793	-0.994071	0.087057
C33	C	-0.329811	-0.993245	0.000017
C34	C	-0.282792	-0.994089	-0.087018
C35	C	-0.329809	-0.993269	-0.174059
C36	C	-0.423843	-0.991599	-0.174054
C37	C	-0.188760	-0.995740	0.087052
C38	C	-0.188753	-0.995757	-0.087020
C39	C	0.287997	-0.986466	0.000021
C40	C	0.388079	-0.988237	0.000020
C41	C	0.116567	-0.145976	0.000022
C42	C	0.118362	-0.239222	0.000013
N43	N	0.123164	-0.992389	0.248769
N44	N	0.123167	-0.992439	-0.248724
C45	C	0.184449	-0.935384	0.701037
C46	C	0.061886	-1.049483	0.701010
C47	C	0.061883	-1.049473	0.600514
C48	C	0.123165	-0.992419	0.550275
C49	C	0.184450	-0.935374	0.600532
C50	C	0.000606	-1.106522	0.550250
C51	C	0.000601	-1.106515	0.449748
C52	C	0.061879	-1.049456	0.399507
C53	C	0.123166	-0.992409	0.449770
C54	C	0.184448	-0.935354	0.399531
C55	C	0.245730	-0.878302	0.449792
C56	C	0.245728	-0.878315	0.550291
C57	C	0.061882	-1.049443	0.299008
C58	C	0.184448	-0.935344	0.299026
H59	H	0.282527	-0.525623	0.000086
O60	O	-0.610659	-0.988133	0.171532
C61	C	-0.654807	-0.914467	0.176756
H62	H	-0.665474	-0.889981	0.101192
H63	H	-0.723238	-0.929645	0.213582
H64	H	-0.611411	-0.864209	0.219718
H65	H	0.201374	-0.430398	0.145294
O66	O	-0.469547	-0.990635	-0.258564
C67	C	-0.513718	-0.916981	-0.263725
H68	H	-0.478207	-0.866684	-0.214337
H69	H	-0.511372	-0.892557	-0.340697
H70	H	-0.587292	-0.932142	-0.240315
H71	H	0.045074	-0.554262	0.145431
O72	O	0.002234	-1.104860	0.749708
C73	C	-0.087016	-1.091081	0.725180
H74	H	-0.086917	-1.058704	0.652215
H75	H	-0.131400	-1.154163	0.721739
H76	H	-0.114901	-1.049235	0.781751
H77	H	0.234342	-0.888931	0.741962
H78	H	-0.049284	-1.152979	0.591158
O79	O	-0.050332	-0.456410	0.000288
C80	C	-0.094682	-0.490433	0.083383
H81	H	-0.042332	-0.499709	0.141132
H82	H	-0.143137	-0.445263	0.110862
H83	H	-0.134439	-0.553837	0.065350
H84	H	0.045077	-0.554421	-0.145236
O85	O	-0.059018	-1.161960	0.401078
C86	C	-0.113088	-1.212333	0.466972
H87	H	-0.114116	-1.177905	0.538623
H88	H	-0.185084	-1.225063	0.437940
H89	H	-0.083790	-1.274764	0.477638
O90	O	0.305384	-0.822965	0.401028
C91	C	0.394637	-0.836700	0.425597
H92	H	0.395108	-0.903948	0.453219
H93	H	0.439877	-0.827089	0.359502
H94	H	0.421098	-0.790169	0.483934
H95	H	0.234349	-0.888880	0.258127
H96	H	0.201376	-0.430435	-0.145223
H97	H	-0.150477	-0.996449	-0.157896
H98	H	0.011991	-1.095898	0.258090
H99	H	-0.150480	-0.996389	0.157920
O100	O	-0.469617	-0.990632	0.258563
C101	C	-0.513783	-0.916977	0.263787
H102	H	-0.524445	-0.892487	0.188223
H103	H	-0.582218	-0.932171	0.300601
H104	H	-0.470403	-0.866716	0.306760
O105	O	-0.284019	-0.993969	-0.258545
C106	C	-0.219423	-0.922224	-0.263757
H107	H	-0.201934	-0.898235	-0.188188
H108	H	-0.155592	-0.939737	-0.300592
H109	H	-0.248507	-0.870686	-0.306704
H110	H	-0.603188	-0.988416	-0.157882
O111	O	-0.284232	-0.993913	0.258703
C112	C	-0.296957	-0.920800	0.311646
H113	H	-0.361817	-0.895347	0.286897
H114	H	-0.302482	-0.937088	0.391265
H115	H	-0.236864	-0.870843	0.299586
O116	O	0.305133	-0.822870	0.599223
C117	C	0.256828	-0.770995	0.657359
H118	H	0.186292	-0.804373	0.672403
H119	H	0.294449	-0.757765	0.728036
H120	H	0.250681	-0.708902	0.618652
