data_functionalizedCrystal
_audit_creation_method	'MofGen! by Chris Wilmer'
_symmetry_space_group_name_H-M	'P1'
_symmetry_Int_Tables_number	1
_symmetry_cell_setting	triclinic
loop_
_symmetry_equiv_pos_as_xyz
  x,y,z
_cell_length_a	19.902436
_cell_length_b	14.560438
_cell_length_c	14.560438
_cell_angle_alpha	59.997697
_cell_angle_beta	59.998271
_cell_angle_gamma	90.002062
loop_
_atom_site_label
_atom_site_type_symbol
_atom_site_fract_x
_atom_site_fract_y
_atom_site_fract_z
Zr1	Zr	0.647325	-0.120517	1.005207
O2	O	0.540034	-0.267187	1.196830
O3	O	0.680215	-0.075546	0.813595
O4	O	0.680216	-0.267159	1.005200
O5	O	0.540034	0.075564	1.005228
O6	O	0.790795	-0.267147	1.005182
O7	O	0.540033	-0.075574	1.005226
O8	O	0.790794	0.075614	0.662436
O9	O	0.540035	-0.267197	1.347974
O10	O	0.776767	-0.056368	0.892391
O11	O	0.694244	0.056416	0.892406
O12	O	0.694244	-0.169184	1.117996
O13	O	0.611721	-0.056400	1.118011
Zr14	Zr	0.823687	0.120551	1.005183
Zr15	Zr	0.823686	-0.120497	1.005179
Zr16	Zr	0.647326	0.120531	1.005212
Zr17	Zr	0.647327	-0.120532	1.246264
Zr18	Zr	0.823686	0.120566	0.764126
O19	O	0.790797	0.075580	1.196796
O20	O	0.790796	-0.267159	1.196790
O21	O	0.540035	0.075552	1.196836
O22	O	0.930979	0.267221	0.813560
O23	O	0.930977	-0.075518	0.813554
O24	O	0.680217	0.267193	0.813601
O25	O	0.930978	-0.075530	1.005163
O26	O	0.790797	0.267193	1.005191
O27	O	0.680218	0.267181	1.005209
O28	O	0.930979	0.075608	1.005165
O29	O	0.680218	-0.267181	1.347952
O30	O	0.790795	0.267215	0.662439
O31	O	0.930978	0.267231	0.662416
O32	O	0.930977	0.075630	0.662413
O33	O	0.540035	-0.075596	1.347977
O34	O	0.680218	-0.075580	1.347955
O35	O	0.776768	0.169218	0.892395
O36	O	0.859291	0.056434	0.892379
O37	O	0.776768	-0.056382	1.117985
O38	O	0.694245	0.056402	1.118000
C39	C	0.514906	-0.000007	1.005231
C40	C	0.440037	-0.000016	1.005243
C41	C	0.735505	0.000036	0.703670
C42	C	0.735504	0.000043	0.601335
C43	C	0.735507	0.301531	1.005200
C44	C	0.735508	0.403863	1.005202
C45	C	0.168035	0.000028	1.005179
C46	C	0.144468	-0.070798	1.147495
C47	C	0.222306	-0.071191	1.147584
C48	C	0.302978	0.000006	1.005212
C49	C	0.300566	-0.051876	0.934533
C50	C	0.222338	-0.052400	0.935443
C51	C	0.223326	0.122768	0.932523
C52	C	0.300247	0.122579	0.935198
C53	C	0.379244	-0.000005	1.005222
C54	C	0.091769	0.000035	1.005164
C55	C	0.956106	0.000042	1.005160
C56	C	1.030976	0.000050	1.005148
C57	C	0.735505	-0.301497	1.005190
C58	C	0.735505	-0.403829	1.005189
C59	C	0.692433	0.393052	1.122964
C60	C	0.692429	0.489207	1.122957
C61	C	0.778581	0.606980	0.887418
C62	C	0.778580	0.510826	0.887425
C63	C	0.674583	-0.083245	0.636557
C64	C	0.674587	-0.083274	0.540417
C65	C	0.796435	0.083283	0.373834
C66	C	0.796434	0.083307	0.469973
C67	C	0.735508	-0.000002	1.306721
C68	C	0.735508	-0.000009	1.409056
C69	C	0.956105	0.000061	0.703634
C70	C	1.030974	0.000076	0.601287
C71	C	0.735506	0.301551	0.703675
C72	C	0.735506	0.403889	0.601342
C73	C	0.956106	0.301575	0.703639
C74	C	1.030975	0.403921	0.601294
C75	C	0.514907	-0.301541	1.306751
C76	C	0.440037	-0.403887	1.409097
C77	C	0.514908	-0.000027	1.306756
C78	C	0.440039	-0.000042	1.409103
C79	C	0.735507	-0.301517	1.306716
C80	C	0.735507	-0.403855	1.409049
C81	C	1.023056	-0.058809	0.553230
C82	C	1.093397	-0.058817	0.457077
C83	C	1.171654	0.000066	0.408977
C84	C	1.179570	0.058952	0.457044
C85	C	1.109230	0.058954	0.553201
C86	C	1.109218	0.393112	0.553224
C87	C	1.179573	0.489268	0.457073
C88	C	1.171682	0.596232	0.408987
C89	C	1.093431	0.607039	0.457067
C90	C	1.023078	0.510884	0.553223
C91	C	0.361794	-0.393078	1.457179
C92	C	0.291439	-0.489234	1.553359
C93	C	0.299330	-0.596198	1.601450
C94	C	0.377581	-0.607005	1.553364
C95	C	0.447934	-0.510850	1.457191
C96	C	0.447956	0.058833	1.457171
C97	C	0.377615	0.058815	1.553350
C98	C	0.299358	-0.000072	1.601453
C99	C	0.291442	-0.058954	1.553382
C100	C	0.361782	-0.058942	1.457211
C101	C	0.778581	0.510849	0.553257
C102	C	0.778572	0.607002	0.457113
C103	C	0.692409	0.489222	0.457143
C104	C	0.692415	0.393071	0.553291
H105	H	0.221028	-0.036662	1.203320
H106	H	0.813666	0.519663	0.592381
N107	N	0.822572	0.716250	0.408018
N108	N	0.861036	0.725886	0.450940
H109	H	0.892113	0.803045	0.416270
H110	H	1.243282	0.480449	0.417936
H111	H	0.813650	0.694079	0.791528
N112	N	0.612355	-0.168363	0.576419
N113	N	0.557965	-0.242698	0.693710
H114	H	0.514011	-0.302799	0.719143
H115	H	0.624966	-0.151037	0.743515
N116	N	0.353707	-0.283834	1.408097
N117	N	0.317011	-0.255167	1.483244
H118	H	0.311292	-0.178015	1.448592
N119	N	0.943118	-0.118972	0.602381
N120	N	0.880313	-0.118980	0.688241
H121	H	0.823857	-0.161479	0.722957
N122	N	0.858656	0.168351	0.239653
N123	N	0.866132	0.269640	0.194619
H124	H	0.910075	0.329725	0.099853
N125	N	0.648400	0.478196	0.408044
N126	N	0.648401	0.564051	0.322196
H127	H	0.617320	0.556264	0.287518
N128	N	0.648416	0.283812	0.602388
N129	N	0.666679	0.255129	0.527260
H130	H	0.635605	0.177967	0.561935
N131	N	1.117289	0.283859	0.602316
N132	N	1.153994	0.255183	0.527180
H133	H	1.159700	0.178024	0.561849
H134	H	0.657351	0.480395	1.218851
H135	H	1.087019	0.694142	0.417902
N136	N	0.822580	0.521886	0.767116
N137	N	0.861037	0.617392	0.661969
H138	H	0.892108	0.625202	0.577003
H139	H	0.105302	-0.036176	1.203356
N140	N	0.648419	0.283803	1.243277
N141	N	0.572466	0.255114	1.322133
H142	H	0.541377	0.177958	1.407110
H143	H	0.846047	0.151132	0.441282
N144	N	1.085285	-0.118977	0.408005
N145	N	1.015405	-0.171532	0.450958
H146	H	1.009672	-0.214019	0.416304
H147	H	0.104556	-0.160793	1.203077
H148	H	0.243243	0.175789	0.827686
H149	H	0.511641	-0.519664	1.418044
N150	N	0.220069	-0.184777	1.217575
N151	N	0.218142	-0.245021	1.180298
H152	H	0.216559	-0.325248	1.229731
N153	N	0.176502	-0.165707	0.998446
N154	N	0.202397	-0.243848	1.041442
H155	H	0.170028	-0.323875	1.085941
H156	H	0.241685	-0.004148	0.831027
N157	N	0.211500	-0.119067	1.602497
N158	N	0.190507	-0.094075	1.527373
H159	H	0.134045	-0.136520	1.562054
N160	N	0.177774	0.177118	0.989685
N161	N	0.147056	0.136043	1.106351
H162	H	0.114879	0.174417	1.146737
H163	H	1.228923	0.000057	0.330679
N164	N	1.259517	0.119093	0.407888
N165	N	1.322306	0.119081	0.322026
H166	H	1.378772	0.161562	0.287300
N167	N	1.243559	0.694435	0.310767
N168	N	1.313412	0.684755	0.267863
H169	H	1.364179	0.754107	0.198492
H170	H	0.355324	-0.106881	1.418077
H171	H	0.959372	0.519701	0.592349
H172	H	0.357379	-0.002770	0.829851
N173	N	0.211521	-0.478159	1.602452
N174	N	0.204495	-0.382646	1.559485
H175	H	0.148055	-0.374820	1.594153
N176	N	0.227453	-0.694401	1.699691
N177	N	0.157600	-0.684721	1.742600
H178	H	0.106834	-0.754073	1.811982
N179	N	0.385619	-0.716278	1.602513
N180	N	0.322792	-0.802111	1.688377
H181	H	0.328465	-0.879289	1.723089
H182	H	0.299871	0.161338	0.986732
N183	N	0.302515	-0.164100	0.996112
N184	N	0.305677	-0.206088	1.092036
H185	H	0.307051	-0.285347	1.135533
H186	H	0.357707	0.179791	0.831328
N187	N	0.385727	0.118968	1.602428
N188	N	0.455608	0.171548	1.559450
H189	H	0.461340	0.214032	1.594108
H190	H	1.115688	0.106911	0.592317
H191	H	0.511671	0.106793	1.418012
H192	H	0.242090	-0.000073	1.679762
