data_functionalizedCrystal
_audit_creation_method	'MofGen! by Chris Wilmer'
_symmetry_space_group_name_H-M	'P1'
_symmetry_Int_Tables_number	1
_symmetry_cell_setting	triclinic
loop_
_symmetry_equiv_pos_as_xyz
  x,y,z
_cell_length_a	8.559649
_cell_length_b	26.210047
_cell_length_c	8.559649
_cell_angle_alpha	89.994567
_cell_angle_beta	110.221336
_cell_angle_gamma	89.991709
loop_
_atom_site_label
_atom_site_type_symbol
_atom_site_fract_x
_atom_site_fract_y
_atom_site_fract_z
O1	O	-2.126898	0.042429	-0.055060
O2	O	-1.651413	0.042429	0.028721
O3	O	-1.931046	0.042429	-0.250912
O4	O	-1.847265	0.042430	0.224573
O5	O	-1.930993	-0.042429	-0.250867
O6	O	-1.651360	-0.042429	0.028766
O7	O	-2.126845	-0.042429	-0.055015
Cu8	Cu	-1.889097	-0.050177	-0.013121
Cu9	Cu	-1.889160	0.050178	-0.013173
O10	O	-1.847212	-0.042428	0.224618
C11	C	-1.591077	0.000000	0.035093
C12	C	-1.411378	0.000001	0.053992
N13	N	-1.889065	-0.120761	-0.013086
C14	C	-2.012967	-0.473275	-0.136969
C15	C	-2.013006	-0.686934	-0.136995
O16	O	-2.118288	-0.714556	-0.242311
N17	N	-1.889173	-0.713655	-0.013210
C18	C	-1.765316	-0.686958	0.110585
O19	O	-1.659979	-0.714588	0.215861
C20	C	-1.765272	-0.473300	0.110603
C21	C	-1.889122	-0.446582	-0.013181
C22	C	-2.136807	-0.446557	-0.260743
C23	C	-2.136801	-0.393145	-0.260730
C24	C	-2.012956	-0.366452	-0.136942
C25	C	-1.889117	-0.393170	-0.013167
C26	C	-1.641409	-0.446604	0.234390
C27	C	-1.641407	-0.393186	0.234381
C28	C	-1.765257	-0.366468	0.110597
C29	C	-1.765266	-0.313066	0.110634
N30	N	-1.889099	-0.286345	-0.013152
C31	C	-2.012944	-0.313038	-0.136940
C32	C	-1.765349	-0.799131	0.110568
C33	C	-1.765362	-0.852545	0.110565
C34	C	-2.013050	-0.852517	-0.137017
C35	C	-2.013043	-0.799102	-0.137006
C36	C	-1.889182	-0.772410	-0.013217
C37	C	-2.012923	-0.200870	-0.136902
C38	C	-2.012910	-0.147454	-0.136874
C39	C	-1.765218	-0.147486	0.110703
C40	C	-1.765234	-0.200898	0.110681
C41	C	-1.889095	-0.227588	-0.013136
O42	O	-1.660028	-0.285411	0.215883
O43	O	-2.118243	-0.285398	-0.242222
C44	C	-2.012973	-0.526687	-0.136982
C45	C	-1.889134	-0.553405	-0.013207
C46	C	-1.765289	-0.526712	0.110581
C47	C	-1.889146	-0.606819	-0.013210
C48	C	-2.012991	-0.633512	-0.136998
C49	C	-2.136824	-0.606791	-0.260783
C50	C	-2.136818	-0.553380	-0.260770
C51	C	-1.641456	-0.553433	0.234366
C52	C	-1.641473	-0.606844	0.234344
C53	C	-1.765318	-0.633537	0.110556
C54	C	-1.187180	0.000000	-0.061387
C55	C	-1.366879	0.000001	-0.080286
C56	C	-1.937369	0.000001	-0.311198
C57	C	-1.956268	0.000004	-0.490898
N58	N	-1.889206	0.120762	-0.013223
C59	C	-1.840889	0.000001	0.284904
C60	C	-1.821990	0.000002	0.464604
H61	H	-1.311990	0.000003	0.183420
C62	C	-2.273021	-0.363762	-0.396910
H63	H	-2.346758	-0.387316	-0.470636
H64	H	-2.333391	-0.342921	-0.346820
H65	H	-2.222945	-0.342929	-0.457322
H66	H	-1.692570	0.000000	-0.436018
C67	C	-2.131116	0.000004	-0.625149
H68	H	-2.121314	0.000005	-0.732369
H69	H	-2.189938	-0.029585	-0.612940
H70	H	-2.189955	0.029602	-0.612976
C71	C	-2.149166	-0.118064	-0.273019
H72	H	-2.131449	-0.082429	-0.255277
H73	H	-2.144870	-0.126810	-0.379155
H74	H	-2.255249	-0.126819	-0.268586
C75	C	-1.501122	-0.000001	-0.255125
H76	H	-1.608341	-0.000005	-0.245319
H77	H	-1.488954	0.029590	-0.313978
H78	H	-1.488912	-0.029597	-0.313935
H79	H	-2.237657	-0.468286	-0.361554
H80	H	-2.113780	-0.222596	-0.237726
H81	H	-2.113892	-0.777351	-0.237802
C82	C	-2.149265	-0.881886	-0.273192
H83	H	-2.131514	-0.917524	-0.255463
H84	H	-2.255372	-0.873130	-0.268824
H85	H	-2.144910	-0.873131	-0.379311
H86	H	-1.664526	-0.874296	0.211376
H87	H	-1.664483	-0.777402	0.211376
C88	C	-1.505228	-0.524077	0.370550
H89	H	-1.431496	-0.547645	0.444268
H90	H	-1.444853	-0.503239	0.320465
H91	H	-1.555298	-0.503244	0.430969
C92	C	-1.628950	-0.230289	0.246784
H93	H	-1.555171	-0.206739	0.320486
H94	H	-1.678926	-0.251142	0.307223
H95	H	-1.568623	-0.251110	0.196578
C96	C	-1.505164	-0.363826	0.370553
H97	H	-1.522880	-0.328187	0.352834
H98	H	-1.509483	-0.372586	0.476673
H99	H	-1.399071	-0.372586	0.366137
C100	C	-1.628989	-0.118117	0.246849
H101	H	-1.646721	-0.082480	0.229104
H102	H	-1.633286	-0.126870	0.352983
H103	H	-1.522899	-0.126877	0.242422
H104	H	-1.540558	-0.468351	0.335185
H105	H	-2.237668	-0.531629	-0.361566
H106	H	-1.540620	-0.628595	0.335158
C107	C	-2.273044	-0.636160	-0.396952
H108	H	-2.255288	-0.671798	-0.379225
H109	H	-2.379146	-0.627406	-0.392571
H110	H	-2.268701	-0.627404	-0.503075
