data_functionalizedCrystal
_audit_creation_method	'MofGen! by Chris Wilmer'
_symmetry_space_group_name_H-M	'P1'
_symmetry_Int_Tables_number	1
_symmetry_cell_setting	triclinic
loop_
_symmetry_equiv_pos_as_xyz
  x,y,z
_cell_length_a	12.759401
_cell_length_b	13.897447
_cell_length_c	12.759393
_cell_angle_alpha	89.968720
_cell_angle_beta	89.981295
_cell_angle_gamma	90.019691
loop_
_atom_site_label
_atom_site_type_symbol
_atom_site_fract_x
_atom_site_fract_y
_atom_site_fract_z
Zn1	Zn	1.606222	-0.383961	-0.593978
Zn2	Zn	1.606101	-0.545289	-0.418296
Zn3	Zn	1.430524	-0.384010	-0.418317
Zn4	Zn	1.430498	-0.545217	-0.593938
O5	O	1.518336	-0.464619	-0.506132
O6	O	1.753227	-0.405372	-0.570681
O7	O	1.582770	-0.523945	-0.271278
O8	O	1.453892	-0.249022	-0.441644
O9	O	1.753138	-0.523898	-0.441609
O10	O	1.582977	-0.248986	-0.570701
O11	O	1.453774	-0.405454	-0.271293
O12	O	1.283499	-0.405384	-0.441605
O13	O	1.453848	-0.523775	-0.740964
O14	O	1.283480	-0.523822	-0.570633
O15	O	1.582952	-0.405302	-0.740993
O16	O	1.582746	-0.680261	-0.441570
O17	O	1.453731	-0.680208	-0.570613
C18	C	1.245369	-0.464601	-0.506118
C19	C	1.128592	-0.464617	-0.506137
C20	C	1.518251	-0.715233	-0.506108
C21	C	1.518310	-0.822447	-0.506132
C22	C	1.073748	-0.526386	-0.573210
C23	C	0.964024	-0.526399	-0.573222
C24	C	0.963998	-0.402869	-0.439077
C25	C	1.073720	-0.402853	-0.439072
C26	C	1.128620	-0.588150	-0.640275
C27	C	1.073776	-0.649926	-0.707354
C28	C	0.964052	-0.649938	-0.707365
C29	C	0.909172	-0.588175	-0.640298
C30	C	1.518361	-0.909517	-0.506156
C31	C	1.518435	-1.018750	-0.506183
C32	C	1.792370	-0.464638	-0.506147
C33	C	1.909146	-0.464646	-0.506153
C34	C	1.518411	-0.464525	-0.780166
C35	C	1.518443	-0.464485	-0.896942
C36	C	1.518451	-0.213026	-0.506180
C37	C	1.518499	-0.105812	-0.506200
C38	C	1.451319	-0.402741	-1.061537
C39	C	1.451295	-0.402775	-0.951813
C40	C	1.585626	-0.526159	-0.951802
C41	C	1.585654	-0.526119	-1.061524
C42	C	1.384159	-0.341033	-1.116401
C43	C	1.316977	-0.279358	-1.061549
C44	C	1.316953	-0.279392	-0.951825
C45	C	1.384112	-0.341102	-0.896953
C46	C	1.518322	-0.464643	-0.233165
C47	C	1.518494	-0.464411	-0.116389
H48	H	1.217963	-0.588149	-0.640272
O49	O	1.651049	-0.585979	-1.114701
C50	C	1.755766	-0.564901	-1.087926
H51	H	1.757946	-0.527855	-1.008264
H52	H	1.802844	-0.634520	-1.084173
H53	H	1.791186	-0.515284	-1.149688
O54	O	1.126960	-0.342963	-0.373760
C55	C	1.100089	-0.363921	-0.269011
H56	H	1.069899	-0.440975	-0.263566
H57	H	1.172234	-0.355556	-0.217122
H58	H	1.036409	-0.312180	-0.241641
H59	H	1.118466	-0.700205	-0.761963
H60	H	0.919400	-0.700231	-0.761991
H61	H	0.819827	-0.588182	-0.640322
H62	H	1.640302	-0.576400	-0.907116
O63	O	0.910647	-0.343023	-0.373810
C64	C	0.847129	-0.397882	-0.305871
H65	H	0.880180	-0.473840	-0.299244
H66	H	0.845863	-0.362913	-0.225080
H67	H	0.763982	-0.401252	-0.338348
H68	H	1.384169	-0.341000	-1.205744
H69	H	1.262306	-0.229111	-1.106233
O70	O	1.251602	-0.219452	-0.898703
C71	C	1.192356	-0.164964	-0.970661
H72	H	1.188722	-0.204448	-1.048866
H73	H	1.109574	-0.154684	-0.938954
H74	H	1.230861	-0.091702	-0.982349
H75	H	1.384094	-0.341118	-0.807608
