data_functionalizedCrystal
_audit_creation_method	'MofGen! by Chris Wilmer'
_symmetry_space_group_name_H-M	'P1'
_symmetry_Int_Tables_number	1
_symmetry_cell_setting	triclinic
loop_
_symmetry_equiv_pos_as_xyz
  x,y,z
_cell_length_a	18.215407
_cell_length_b	13.032721
_cell_length_c	18.215399
_cell_angle_alpha	97.154261
_cell_angle_beta	89.980650
_cell_angle_gamma	97.205008
loop_
_atom_site_label
_atom_site_type_symbol
_atom_site_fract_x
_atom_site_fract_y
_atom_site_fract_z
Zn1	Zn	1.087877	-0.416036	-0.453320
Zn2	Zn	1.072164	-0.590801	-0.345882
Zn3	Zn	0.964808	-0.416072	-0.330270
Zn4	Zn	0.949158	-0.590741	-0.468902
O5	O	1.018502	-0.503413	-0.399593
O6	O	1.188776	-0.439229	-0.439081
O7	O	1.057896	-0.567662	-0.240830
O8	O	0.994259	-0.269828	-0.333539
O9	O	1.177232	-0.567628	-0.360146
O10	O	1.084677	-0.269802	-0.423943
O11	O	0.979022	-0.439290	-0.229361
O12	O	0.859749	-0.439232	-0.348648
O13	O	0.967586	-0.567527	-0.569815
O14	O	0.848251	-0.567561	-0.450499
O15	O	1.069503	-0.439172	-0.558368
O16	O	1.042722	-0.737032	-0.375255
O17	O	0.952350	-0.736989	-0.465637
C18	C	0.827297	-0.503395	-0.399571
C19	C	0.745497	-0.503412	-0.399581
C20	C	0.551326	-0.570338	-0.452565
C21	C	0.474467	-0.570341	-0.452575
C22	C	0.486428	-0.436506	-0.346639
C23	C	0.563286	-0.436498	-0.346634
C24	C	0.595733	-0.503420	-0.399596
C25	C	0.442016	-0.503431	-0.399611
C26	C	0.358682	-0.503434	-0.399621
C27	C	0.679072	-0.503416	-0.399587
C28	C	0.994152	-0.774929	-0.423847
C29	C	0.983803	-0.891084	-0.434247
C30	C	1.023943	-0.942857	-0.394199
C31	C	1.013247	-1.062910	-0.404947
C32	C	1.210453	-0.503431	-0.399617
C33	C	1.292251	-0.503439	-0.399627
C34	C	1.018552	-0.503339	-0.591540
C35	C	1.018573	-0.503307	-0.673336
C36	C	1.042967	-0.230836	-0.375261
C37	C	1.053392	-0.114680	-0.364892
C38	C	1.071676	-0.436382	-0.932426
C39	C	1.071665	-0.436411	-0.855570
C40	C	0.965543	-0.570080	-0.867481
C41	C	0.965558	-0.570056	-0.944336
C42	C	1.018624	-0.503202	-0.976806
C43	C	1.018598	-0.503254	-0.823095
C44	C	1.018585	-0.503285	-0.739764
C45	C	1.018638	-0.503171	-1.060143
C46	C	1.018501	-0.503411	-0.208387
C47	C	1.018649	-0.503148	-0.126565
H48	H	0.599444	-0.381999	-0.303499
H49	H	0.922338	-0.624509	-0.841034
H50	H	1.114885	-0.381944	-0.958860
Br51	Br	0.893560	-0.660757	-1.004573
Br52	Br	0.414203	-0.661158	-0.524468
H53	H	0.577741	-0.624828	-0.495692
H54	H	1.095681	-1.070132	-0.322647
H55	H	0.941523	-0.935638	-0.476495
H56	H	1.114866	-0.382001	-0.819438
H57	H	0.460001	-0.382022	-0.303518
Br58	Br	1.094428	-0.868609	-0.323792
Br59	Br	0.942772	-1.137155	-0.475370
