data_functionalizedCrystal
_audit_creation_method	'MofGen! by Chris Wilmer'
_symmetry_space_group_name_H-M	'P1'
_symmetry_Int_Tables_number	1
_symmetry_cell_setting	triclinic
loop_
_symmetry_equiv_pos_as_xyz
  x,y,z
_cell_length_a	8.497365
_cell_length_b	19.805407
_cell_length_c	19.805405
_cell_angle_alpha	89.976273
_cell_angle_beta	90.057082
_cell_angle_gamma	89.966432
loop_
_atom_site_label
_atom_site_type_symbol
_atom_site_fract_x
_atom_site_fract_y
_atom_site_fract_z
Zn1	Zn	-0.891938	1.034841	0.269342
Zn2	Zn	-0.628114	1.034725	0.382585
Zn3	Zn	-0.628160	0.921624	0.269410
Zn4	Zn	-0.891842	0.921619	0.382489
O5	O	-0.760014	0.978202	0.325956
O6	O	-0.856963	1.129542	0.284375
O7	O	-0.407358	1.019675	0.367641
O8	O	-0.663211	0.936694	0.174684
O9	O	-0.663132	1.129457	0.367575
O10	O	-0.857007	1.019874	0.174634
O11	O	-0.407392	0.936581	0.284492
O12	O	-0.663117	0.826907	0.284398
O13	O	-1.112617	0.936685	0.367411
O14	O	-0.856843	0.826903	0.367477
O15	O	-1.112688	1.019868	0.284282
O16	O	-0.663039	1.019670	0.477289
O17	O	-0.856798	0.936572	0.477218
C18	C	-0.759975	0.802346	0.325935
C19	C	-0.759996	0.727114	0.325942
C20	C	-0.861077	0.691815	0.282697
C21	C	-0.861083	0.621127	0.282701
C22	C	-0.760015	0.585739	0.325953
C23	C	-0.658923	0.621043	0.369201
C24	C	-0.658911	0.691730	0.369193
C25	C	-0.658972	0.335969	0.369231
C26	C	-0.658996	0.265277	0.369237
C27	C	-0.861145	0.265366	0.282739
C28	C	-0.861132	0.336054	0.282731
C29	C	-0.760035	0.371351	0.325975
C30	C	-0.760027	0.448000	0.325970
C31	C	-0.760030	0.509092	0.325963
C32	C	-0.759937	0.978126	0.501812
C33	C	-0.759958	0.978156	0.577044
C34	C	-0.350134	0.978153	0.326030
C35	C	-0.171490	0.978250	0.325891
C36	C	-0.760053	1.154745	0.325978
C37	C	-0.760070	1.229977	0.325987
C38	C	-0.760125	0.978297	0.149414
C39	C	-0.760172	0.978338	0.074182
C40	C	-0.659173	1.021467	0.612403
C41	C	-0.659208	1.021496	0.683091
C42	C	-0.760020	0.978209	0.718420
C43	C	-0.860816	0.934896	0.683057
C44	C	-0.860788	0.934871	0.612369
C45	C	-0.860933	0.934996	0.968130
C46	C	-0.860950	0.935023	1.038822
C47	C	-0.659353	1.021620	1.038852
C48	C	-0.659324	1.021595	0.968165
C49	C	-0.760126	0.978285	0.932807
C50	C	-0.760089	0.978255	0.856159
C51	C	-0.760051	0.978235	0.795067
H52	H	-0.576688	0.236466	0.404460
H53	H	-0.942907	0.899654	0.711827
H54	H	-0.577072	1.056713	0.583643
H55	H	-0.943006	0.899730	0.939347
C56	C	-0.446646	0.771155	0.378514
C57	C	-0.547800	0.730532	0.416732
H58	H	-0.378040	0.795105	0.407863
H59	H	-0.506835	0.802344	0.352760
H60	H	-0.386441	0.743563	0.349007
H61	H	-0.608013	0.758125	0.446235
H62	H	-0.487604	0.699339	0.442497
C63	C	-0.950269	0.896384	0.503995
C64	C	-0.971573	0.887262	0.573500
H65	H	-1.018677	0.866996	0.480001
H66	H	-0.844261	0.886486	0.492474
H67	H	-0.973447	0.941857	0.492373
H68	H	-0.948384	0.841791	0.585123
H69	H	-1.077605	0.897156	0.585026
H70	H	-0.943437	0.364863	0.247512
H71	H	-0.577137	1.056763	0.711877
C72	C	-0.950929	0.157047	0.244328
C73	C	-0.972260	0.226565	0.235195
H74	H	-1.019522	0.133096	0.214975
H75	H	-0.973826	0.145456	0.289809
H76	H	-0.844972	0.145443	0.234382
H77	H	-1.078214	0.238170	0.245146
H78	H	-0.949375	0.238161	0.189704
H79	H	-0.576654	0.364700	0.404444
C80	C	-0.569190	0.512646	0.407625
C81	C	-0.547828	0.582145	0.416747
H82	H	-0.500611	0.488635	0.436984
H83	H	-0.546294	0.501072	0.362147
H84	H	-0.675153	0.501097	0.417571
H85	H	-0.441868	0.593695	0.406796
H86	H	-0.570714	0.593725	0.462235
C87	C	-0.637574	1.112609	0.888606
C88	C	-0.548511	1.069176	0.929329
H89	H	-0.569160	1.141982	0.864629
H90	H	-0.706356	1.138499	0.916129
H91	H	-0.697588	1.086801	0.857435
H92	H	-0.488505	1.094984	0.960504
H93	H	-0.479701	1.043284	0.901805
H94	H	-0.577281	1.056888	1.067648
H95	H	-0.943383	0.720623	0.247477
C96	C	-1.060917	0.628315	0.197205
C97	C	-0.972199	0.582326	0.235166
H98	H	-1.129522	0.604360	0.167860
H99	H	-0.992292	0.655874	0.171288
H100	H	-1.121125	0.655893	0.226724
H101	H	-0.911982	0.554752	0.205647
H102	H	-1.040833	0.554756	0.261084
C103	C	-1.060267	0.849427	1.031696
C104	C	-0.971787	0.887444	1.077657
H105	H	-1.128693	0.820060	1.055673
H106	H	-0.991480	0.823532	1.004181
H107	H	-1.120654	0.878909	1.004072
H108	H	-0.911390	0.857963	1.105278
H109	H	-1.040582	0.913341	1.105184
