data_functionalizedCrystal
_audit_creation_method	'MofGen! by Chris Wilmer'
_symmetry_space_group_name_H-M	'P1'
_symmetry_Int_Tables_number	1
_symmetry_cell_setting	triclinic
loop_
_symmetry_equiv_pos_as_xyz
  x,y,z
_cell_length_a	6.394989
_cell_length_b	11.026660
_cell_length_c	10.065875
_cell_angle_alpha	79.302288
_cell_angle_beta	80.951547
_cell_angle_gamma	82.458727
loop_
_atom_site_label
_atom_site_type_symbol
_atom_site_fract_x
_atom_site_fract_y
_atom_site_fract_z
O1	O	-0.855536	1.640991	-0.113479
O2	O	-0.755367	1.286155	-0.113482
O3	O	-0.503281	1.468610	-0.113481
O4	O	-1.107622	1.458536	-0.113479
O5	O	-0.551597	1.433822	0.113508
O6	O	-0.803683	1.251367	0.113507
O7	O	-0.903852	1.606203	0.113510
Zn8	Zn	-0.861439	1.423262	0.149548
Zn9	Zn	-0.797780	1.469096	-0.149519
O10	O	-1.155938	1.423748	0.113509
C11	C	-0.761046	1.223268	0.000012
C12	C	-0.705957	1.087713	0.000011
C13	C	-0.801149	0.876129	0.000007
C14	C	-0.858090	1.016233	0.000010
C15	C	-0.448868	1.449225	0.000008
C16	C	-0.210344	1.443138	0.000007
C17	C	-0.898173	1.669090	0.000013
C18	C	-0.953260	1.804647	0.000006
N19	N	-0.904886	1.391990	0.353653
N20	N	-0.754320	1.500378	-0.353625
C21	C	-0.812881	1.458208	0.421432
C22	C	-0.846339	1.434150	0.578600
H23	H	-1.125644	0.847170	0.000015
H24	H	-0.628770	0.833602	0.000026
Cl25	Cl	-0.439792	1.022077	0.000020
Cl26	Cl	-1.006194	1.319109	0.668635
H27	H	-1.030486	1.058750	0.000019
Cl28	Cl	-0.594995	1.615680	0.556343
H29	H	-0.709331	1.532707	0.363108
Cl30	Cl	-1.064735	1.276954	0.443694
