data_functionalizedCrystal
_audit_creation_method	'MofGen! by Chris Wilmer'
_symmetry_space_group_name_H-M	'P1'
_symmetry_Int_Tables_number	1
_symmetry_cell_setting	triclinic
loop_
_symmetry_equiv_pos_as_xyz
  x,y,z
_cell_length_a	19.805407
_cell_length_b	19.805405
_cell_length_c	19.805399
_cell_angle_alpha	90.030709
_cell_angle_beta	89.989546
_cell_angle_gamma	89.967368
loop_
_atom_site_label
_atom_site_type_symbol
_atom_site_fract_x
_atom_site_fract_y
_atom_site_fract_z
Zn1	Zn	1.034718	0.269357	-0.382595
Zn2	Zn	1.284718	0.519357	-0.132595
Zn3	Zn	1.534718	0.769357	0.117405
Zn4	Zn	1.784718	1.019357	0.367405
Zn5	Zn	1.034638	0.382548	-0.269404
Zn6	Zn	1.284638	0.632548	-0.019404
Zn7	Zn	1.534638	0.882548	0.230596
Zn8	Zn	1.784638	1.132548	0.480596
Zn9	Zn	0.921538	0.269391	-0.269433
Zn10	Zn	1.171538	0.519391	-0.019433
Zn11	Zn	1.421538	0.769391	0.230567
Zn12	Zn	1.671538	1.019391	0.480567
Zn13	Zn	0.921496	0.382522	-0.382563
Zn14	Zn	1.171496	0.632522	-0.132563
Zn15	Zn	1.421496	0.882522	0.117437
Zn16	Zn	1.671496	1.132522	0.367437
O17	O	0.978097	0.325955	-0.325999
O18	O	1.228097	0.575955	-0.075999
O19	O	1.478097	0.825955	0.174001
O20	O	1.728097	1.075955	0.424001
O21	O	1.129424	0.284369	-0.367582
O22	O	1.379424	0.534369	-0.117582
O23	O	1.629424	0.784369	0.132418
O24	O	1.879424	1.034369	0.382418
O25	O	1.019619	0.367563	-0.174691
O26	O	1.269619	0.617563	0.075309
O27	O	1.519619	0.867563	0.325309
O28	O	1.769619	1.117563	0.575309
O29	O	0.936602	0.174670	-0.284470
O30	O	1.186602	0.424670	-0.034470
O31	O	1.436602	0.674670	0.215530
O32	O	1.686602	0.924670	0.465530
O33	O	1.129365	0.367530	-0.284420
O34	O	1.379365	0.617530	-0.034420
O35	O	1.629365	0.867530	0.215580
O36	O	1.879365	1.117530	0.465580
O37	O	1.019755	0.174645	-0.367610
O38	O	1.269755	0.424645	-0.117610
O39	O	1.519755	0.674645	0.132390
O40	O	1.769755	0.924645	0.382390
O41	O	0.936525	0.284427	-0.174712
O42	O	1.186525	0.534427	0.075288
O43	O	1.436525	0.784427	0.325288
O44	O	1.686525	1.034427	0.575288
O45	O	0.826816	0.284401	-0.284438
O46	O	1.076816	0.534401	-0.034438
O47	O	1.326816	0.784401	0.215562
O48	O	1.576816	1.034401	0.465562
O49	O	0.936531	0.367485	-0.477284
O50	O	1.186531	0.617485	-0.227284
O51	O	1.436531	0.867485	0.022716
O52	O	1.686531	1.117485	0.272716
O53	O	0.826785	0.367518	-0.367555
O54	O	1.076785	0.617518	-0.117555
O55	O	1.326785	0.867518	0.132445
O56	O	1.576785	1.117518	0.382445
O57	O	1.019715	0.284344	-0.477308
O58	O	1.269715	0.534344	-0.227308
O59	O	1.519715	0.784344	0.022692
O60	O	1.769715	1.034344	0.272692
O61	O	1.019578	0.477261	-0.284389
O62	O	1.269578	0.727261	-0.034389
O63	O	1.519578	0.977261	0.215611
O64	O	1.769578	1.227261	0.465611
O65	O	0.936454	0.477242	-0.367527
O66	O	1.186454	0.727242	-0.117527
O67	O	1.436454	0.977242	0.132473
O68	O	1.686454	1.227242	0.382473
C69	C	0.802241	0.325961	-0.325997
C70	C	1.052241	0.575961	-0.075997
C71	C	1.302241	0.825961	0.174003
C72	C	1.552241	1.075961	0.424003
C73	C	0.727009	0.325980	-0.326012
C74	C	0.977009	0.575980	-0.076012
C75	C	1.227009	0.825980	0.173988
C76	C	1.477009	1.075980	0.423988
C77	C	0.978021	0.501811	-0.325966
C78	C	1.228021	0.751811	-0.075966
C79	C	1.478021	1.001811	0.174034
C80	C	1.728021	1.251811	0.424034
C81	C	0.978051	0.577043	-0.325975
C82	C	1.228051	0.827043	-0.075975
C83	C	1.478051	1.077043	0.174025
C84	C	1.728051	1.327043	0.424025
C85	C	0.978127	0.325908	-0.502542
C86	C	1.228127	0.575908	-0.252542
C87	C	1.478127	0.825908	-0.002542
C88	C	1.728127	1.075908	0.247458
C89	C	0.978140	0.325888	-0.577774
C90	C	1.228140	0.575888	-0.327774
C91	C	1.478140	0.825888	-0.077774
C92	C	1.728140	1.075888	0.172226
C93	C	1.154640	0.325949	-0.326001
C94	C	1.404640	0.575949	-0.076001
C95	C	1.654640	0.825949	0.173999
C96	C	1.904640	1.075949	0.423999
C97	C	1.229872	0.325946	-0.326002
C98	C	1.479872	0.575946	-0.076002
C99	C	1.729872	0.825946	0.173998
C100	C	1.979872	1.075946	0.423998
C101	C	1.265248	0.282650	-0.369299
C102	C	1.515248	0.532650	-0.119299
C103	C	1.765248	0.782650	0.130701
C104	C	2.015248	1.032650	0.380701
C105	C	1.335936	0.282657	-0.369303
C106	C	1.585936	0.532657	-0.119303
C107	C	1.835936	0.782657	0.130697
C108	C	2.085936	1.032657	0.380697
C109	C	1.371248	0.325957	-0.326007
C110	C	1.621248	0.575957	-0.076007
C111	C	1.871248	0.825957	0.173993
C112	C	2.121248	1.075957	0.423993
C113	C	1.335867	0.369258	-0.282708
C114	C	1.585867	0.619258	-0.032708
C115	C	1.835867	0.869258	0.217292
C116	C	2.085867	1.119258	0.467292
C117	C	1.265180	0.369254	-0.282708
C118	C	1.515180	0.619254	-0.032708
C119	C	1.765180	0.869254	0.217292
C120	C	2.015180	1.119254	0.467292
C121	C	1.620940	0.369274	-0.282709
C122	C	1.870940	0.619274	-0.032709
C123	C	2.120940	0.869274	0.217291
C124	C	2.370940	1.119274	0.467291
C125	C	1.691632	0.369273	-0.282711
C126	C	1.941632	0.619273	-0.032711
C127	C	2.191632	0.869273	0.217289
C128	C	2.441632	1.119273	0.467289
C129	C	1.691697	0.282677	-0.369304
C130	C	1.941697	0.532677	-0.119304
C131	C	2.191697	0.782677	0.130696
C132	C	2.441697	1.032677	0.380696
C133	C	1.621010	0.282673	-0.369304
C134	C	1.871010	0.532673	-0.119304
C135	C	2.121010	0.782673	0.130696
C136	C	2.371010	1.032673	0.380696
C137	C	1.585635	0.325976	-0.326008
C138	C	1.835635	0.575976	-0.076008
C139	C	2.085635	0.825976	0.173992
C140	C	2.335635	1.075976	0.423992
C141	C	1.508987	0.325970	-0.326005
C142	C	1.758987	0.575970	-0.076005
C143	C	2.008987	0.825970	0.173995
C144	C	2.258987	1.075970	0.423995
C145	C	1.447895	0.325961	-0.326006
C146	C	1.697895	0.575961	-0.076006
C147	C	1.947895	0.825961	0.173994
C148	C	2.197895	1.075961	0.423994
C149	C	0.978192	0.149412	-0.326046
C150	C	1.228192	0.399412	-0.076046
C151	C	1.478192	0.649412	0.173954
C152	C	1.728192	0.899412	0.423954
C153	C	0.978233	0.074180	-0.326067
C154	C	1.228233	0.324180	-0.076067
C155	C	1.478233	0.574180	0.173933
C156	C	1.728233	0.824180	0.423933
C157	C	1.021376	0.612374	-0.282730
C158	C	1.271376	0.862374	-0.032730
C159	C	1.521376	1.112374	0.217270
C160	C	1.771376	1.362374	0.467270
C161	C	1.021404	0.683063	-0.282745
C162	C	1.271404	0.933063	-0.032745
C163	C	1.521404	1.183063	0.217255
C164	C	1.771404	1.433063	0.467255
C165	C	0.978104	0.718418	-0.326002
C166	C	1.228104	0.968418	-0.076002
C167	C	1.478104	1.218418	0.173998
C168	C	1.728104	1.468418	0.423998
C169	C	0.934777	0.683081	-0.369251
C170	C	1.184777	0.933081	-0.119251
C171	C	1.434777	1.183081	0.130749
C172	C	1.684777	1.433081	0.380749
C173	C	0.934752	0.612394	-0.369239
C174	C	1.184752	0.862394	-0.119239
C175	C	1.434752	1.112394	0.130761
C176	C	1.684752	1.362394	0.380761
C177	C	0.934877	0.968155	-0.369301
C178	C	1.184877	1.218155	-0.119301
C179	C	1.434877	1.468155	0.130699
C180	C	1.684877	1.718155	0.380699
C181	C	0.934904	1.038847	-0.369308
C182	C	1.184904	1.288847	-0.119308
C183	C	1.434904	1.538847	0.130692
C184	C	1.684904	1.788847	0.380692
C185	C	1.021529	1.038823	-0.282807
C186	C	1.271529	1.288823	-0.032807
C187	C	1.521529	1.538823	0.217193
C188	C	1.771529	1.788823	0.467193
C189	C	1.021504	0.968136	-0.282795
C190	C	1.271504	1.218136	-0.032795
C191	C	1.521504	1.468136	0.217205
C192	C	1.771504	1.718136	0.467205
C193	C	0.978180	0.932805	-0.326047
C194	C	1.228180	1.182805	-0.076047
C195	C	1.478180	1.432805	0.173953
C196	C	1.728180	1.682805	0.423953
C197	C	0.978150	0.856157	-0.326031
C198	C	1.228150	1.106157	-0.076031
C199	C	1.478150	1.356157	0.173969
C200	C	1.728150	1.606157	0.423969
C201	C	0.978130	0.795065	-0.326015
C202	C	1.228130	1.045065	-0.076015
C203	C	1.478130	1.295065	0.173985
C204	C	1.728130	1.545065	0.423985
C205	C	0.934885	0.282594	-0.613128
C206	C	1.184885	0.532594	-0.363128
C207	C	1.434885	0.782594	-0.113128
C208	C	1.684885	1.032594	0.136872
C209	C	0.934894	0.282581	-0.683817
C210	C	1.184894	0.532581	-0.433817
C211	C	1.434894	0.782581	-0.183817
C212	C	1.684894	1.032581	0.066183
C213	C	0.978162	0.325858	-0.719149
C214	C	1.228162	0.575858	-0.469149
C215	C	1.478162	0.825858	-0.219149
C216	C	1.728162	1.075858	0.030851
C217	C	1.021419	0.369156	-0.683790
C218	C	1.271419	0.619156	-0.433790
C219	C	1.521419	0.869156	-0.183790
C220	C	1.771419	1.119156	0.066210
C221	C	1.021406	0.369172	-0.613102
C222	C	1.271406	0.619172	-0.363102
C223	C	1.521406	0.869172	-0.113102
C224	C	1.771406	1.119172	0.136898
C225	C	1.021473	0.369093	-0.968863
C226	C	1.271473	0.619093	-0.718863
C227	C	1.521473	0.869093	-0.468863
C228	C	1.771473	1.119093	-0.218863
C229	C	1.021484	0.369072	-1.039555
C230	C	1.271484	0.619072	-0.789555
C231	C	1.521484	0.869072	-0.539555
C232	C	1.771484	1.119072	-0.289555
C233	C	0.934961	0.282502	-1.039577
C234	C	1.184961	0.532502	-0.789577
C235	C	1.434961	0.782502	-0.539577
C236	C	1.684961	1.032502	-0.289577
C237	C	0.934948	0.282518	-0.968890
C238	C	1.184948	0.532518	-0.718890
C239	C	1.434948	0.782518	-0.468890
C240	C	1.684948	1.032518	-0.218890
C241	C	0.978202	0.325818	-0.933537
C242	C	1.228202	0.575818	-0.683537
C243	C	1.478202	0.825818	-0.433537
C244	C	1.728202	1.075818	-0.183537
C245	C	0.978190	0.325833	-0.856888
C246	C	1.228190	0.575833	-0.606888
C247	C	1.478190	0.825833	-0.356888
C248	C	1.728190	1.075833	-0.106888
C249	C	0.978178	0.325841	-0.795796
C250	C	1.228178	0.575841	-0.545796
C251	C	1.478178	0.825841	-0.295796
C252	C	1.728178	1.075841	-0.045796
C253	C	0.978107	0.325953	-0.150143
C254	C	1.228107	0.575953	0.099857
C255	C	1.478107	0.825953	0.349857
C256	C	1.728107	1.075953	0.599857
C257	C	0.978225	0.325782	-0.074911
C258	C	1.228225	0.575782	0.175089
C259	C	1.478225	0.825782	0.425089
C260	C	1.728225	1.075782	0.675089
H261	H	1.236502	0.247386	-0.404552
H262	H	1.486502	0.497386	-0.154552
H263	H	1.736502	0.747386	0.095448
H264	H	1.986502	0.997386	0.345448
H265	H	0.899717	0.247275	-0.940126
H266	H	1.149717	0.497275	-0.690126
H267	H	1.399717	0.747275	-0.440126
H268	H	1.649717	0.997275	-0.190126
O269	O	1.068091	0.574247	-0.236082
O270	O	1.318091	0.824247	0.013918
O271	O	1.568091	1.074247	0.263918
O272	O	1.818091	1.324247	0.513918
H273	H	1.060796	0.519158	-0.243337
H274	H	1.310796	0.769158	0.006663
H275	H	1.560796	1.019158	0.256663
H276	H	1.810796	1.269158	0.506663
O277	O	1.068132	0.721172	-0.236101
O278	O	1.318132	0.971172	0.013899
O279	O	1.568132	1.221172	0.263899
O280	O	1.818132	1.471172	0.513899
H281	H	1.056543	0.707658	-0.182968
H282	H	1.306543	0.957658	0.067032
H283	H	1.556543	1.207658	0.317032
H284	H	1.806543	1.457658	0.567032
H285	H	0.899669	0.247330	-0.712599
H286	H	1.149669	0.497330	-0.462599
H287	H	1.399669	0.747330	-0.212599
H288	H	1.649669	0.997330	0.037401
H289	H	1.364736	0.247403	-0.404562
H290	H	1.614736	0.497403	-0.154562
H291	H	1.864736	0.747403	0.095438
H292	H	2.114736	0.997403	0.345438
H293	H	1.720381	0.404536	-0.247453
H294	H	1.970381	0.654536	0.002547
H295	H	2.220381	0.904536	0.252547
H296	H	2.470381	1.154536	0.502547
O297	O	1.373954	0.415956	-0.236008
O298	O	1.623954	0.665956	0.013992
O299	O	1.873954	0.915956	0.263992
O300	O	2.123954	1.165956	0.513992
H301	H	1.360364	0.469076	-0.247605
H302	H	1.610364	0.719076	0.002395
H303	H	1.860364	0.969076	0.252395
H304	H	2.110364	1.219076	0.502395
H305	H	0.899740	0.247247	-1.068371
H306	H	1.149740	0.497247	-0.818371
H307	H	1.399740	0.747247	-0.568371
H308	H	1.649740	0.997247	-0.318371
O309	O	0.888136	0.930065	-0.415945
O310	O	1.138136	1.180065	-0.165945
O311	O	1.388136	1.430065	0.084055
O312	O	1.638136	1.680065	0.334055
H313	H	0.918387	0.897813	-0.450414
H314	H	1.168387	1.147813	-0.200414
H315	H	1.418387	1.397813	0.049586
H316	H	1.668387	1.647813	0.299586
H317	H	1.592147	0.404532	-0.247453
H318	H	1.842147	0.654532	0.002547
H319	H	2.092147	0.904532	0.252547
H320	H	2.342147	1.154532	0.502547
O321	O	0.888202	1.076987	-0.415966
O322	O	1.138202	1.326987	-0.165966
O323	O	1.388202	1.576987	0.084034
O324	O	1.638202	1.826987	0.334034
H325	H	0.899779	1.063383	-0.469097
H326	H	1.149779	1.313383	-0.219097
H327	H	1.399779	1.563383	0.030903
H328	H	1.649779	1.813383	0.280903
O329	O	1.227019	0.415947	-0.236005
O330	O	1.477019	0.665947	0.013995
O331	O	1.727019	0.915947	0.263995
O332	O	1.977019	1.165947	0.513995
H333	H	1.263447	0.446051	-0.205893
H334	H	1.513447	0.696051	0.044107
H335	H	1.763447	0.946051	0.294107
H336	H	2.013447	1.196051	0.544107
O337	O	1.582922	0.235972	-0.416001
O338	O	1.832922	0.485972	-0.166001
O339	O	2.082922	0.735972	0.083999
O340	O	2.332922	0.985972	0.333999
H341	H	1.619397	0.205870	-0.446114
H342	H	1.869397	0.455870	-0.196114
H343	H	2.119397	0.705870	0.053886
H344	H	2.369397	0.955870	0.303886
O345	O	1.729849	0.235974	-0.416010
O346	O	1.979849	0.485974	-0.166010
O347	O	2.229849	0.735974	0.083990
O348	O	2.479849	0.985974	0.333990
H349	H	1.784935	0.243253	-0.408745
H350	H	2.034935	0.493253	-0.158745
H351	H	2.284935	0.743253	0.091255
H352	H	2.534935	0.993253	0.341255
H353	H	0.899524	0.711873	-0.404474
H354	H	1.149524	0.961873	-0.154474
H355	H	1.399524	1.211873	0.095526
H356	H	1.649524	1.461873	0.345526
O357	O	0.888216	0.235914	-0.575025
O358	O	1.138216	0.485914	-0.325025
O359	O	1.388216	0.735914	-0.075025
O360	O	1.638216	0.985914	0.174975
H361	H	0.918525	0.201480	-0.542836
H362	H	1.168525	0.451480	-0.292836
H363	H	1.418525	0.701480	-0.042836
H364	H	1.668525	0.951480	0.207164
O365	O	0.888016	0.574289	-0.415880
O366	O	1.138016	0.824289	-0.165880
O367	O	1.388016	1.074289	0.084120
O368	O	1.638016	1.324289	0.334120
H369	H	0.918276	0.542037	-0.450342
H370	H	1.168276	0.792037	-0.200342
H371	H	1.418276	1.042037	0.049658
H372	H	1.668276	1.292037	0.299658
H373	H	1.056720	0.404316	-1.068321
H374	H	1.306720	0.654316	-0.818321
H375	H	1.556720	0.904316	-0.568321
H376	H	1.806720	1.154316	-0.318321
O377	O	1.068210	0.930001	-0.236145
O378	O	1.318210	1.180001	0.013855
O379	O	1.568210	1.430001	0.263855
O380	O	1.818210	1.680001	0.513855
H381	H	1.098348	0.966446	-0.206081
H382	H	1.348348	1.216446	0.043919
H383	H	1.598348	1.466446	0.293919
H384	H	1.848348	1.716446	0.543919
H385	H	1.056808	1.067598	-0.247592
H386	H	1.306808	1.317598	0.002408
H387	H	1.556808	1.567598	0.252408
H388	H	1.806808	1.817598	0.502408
H389	H	1.056685	0.404358	-0.940087
H390	H	1.306685	0.654358	-0.690087
H391	H	1.556685	0.904358	-0.440087
H392	H	1.806685	1.154358	-0.190087
H393	H	1.056633	0.404421	-0.584318
H394	H	1.306633	0.654421	-0.334318
H395	H	1.556633	0.904421	-0.084318
H396	H	1.806633	1.154421	0.165682
H397	H	1.056645	0.404397	-0.712563
H398	H	1.306645	0.654397	-0.462563
H399	H	1.556645	0.904397	-0.212563
H400	H	1.806645	1.154397	0.037437
