data_functionalizedCrystal
_audit_creation_method	'MofGen! by Chris Wilmer'
_symmetry_space_group_name_H-M	'P1'
_symmetry_Int_Tables_number	1
_symmetry_cell_setting	triclinic
loop_
_symmetry_equiv_pos_as_xyz
  x,y,z
_cell_length_a	14.908571
_cell_length_b	18.101397
_cell_length_c	14.908308
_cell_angle_alpha	93.262730
_cell_angle_beta	90.175053
_cell_angle_gamma	86.716412
loop_
_atom_site_label
_atom_site_type_symbol
_atom_site_fract_x
_atom_site_fract_y
_atom_site_fract_z
Zn1	Zn	1.345297	-0.386471	-0.587546
Zn2	Zn	1.845297	0.113529	-0.087546
Zn3	Zn	1.353878	-0.503607	-0.437175
Zn4	Zn	1.853878	-0.003607	0.062825
Zn5	Zn	1.203612	-0.372247	-0.428545
Zn6	Zn	1.703612	0.127753	0.071455
Zn7	Zn	1.194906	-0.502728	-0.578827
Zn8	Zn	1.694906	-0.002728	-0.078827
O9	O	1.274423	-0.441263	-0.508023
O10	O	1.774423	0.058737	-0.008023
O11	O	1.472262	-0.408331	-0.574859
O12	O	1.972262	0.091669	-0.074859
O13	O	1.341180	-0.480597	-0.310206
O14	O	1.841180	0.019403	0.189794
O15	O	1.222460	-0.270505	-0.449674
O16	O	1.722460	0.229495	0.050326
O17	O	1.478566	-0.494390	-0.464383
O18	O	1.978566	0.005610	0.035617
O19	O	1.326555	-0.280955	-0.566491
O20	O	1.826555	0.219045	-0.066491
O21	O	1.230780	-0.384087	-0.303865
O22	O	1.730780	0.115913	0.196135
O23	O	1.076631	-0.383234	-0.441219
O24	O	1.576631	0.116766	0.058781
O25	O	1.207621	-0.492891	-0.705807
O26	O	1.707621	0.007109	-0.205807
O27	O	1.070235	-0.479098	-0.551631
O28	O	1.570235	0.020902	-0.051631
O29	O	1.318113	-0.407477	-0.712213
O30	O	1.818113	0.092523	-0.212213
O31	O	1.332737	-0.607119	-0.455928
O32	O	1.832737	-0.107119	0.044072
O33	O	1.215941	-0.606473	-0.559999
O34	O	1.715941	-0.106473	-0.059999
C35	C	1.040808	-0.429528	-0.494543
C36	C	1.540808	0.070472	0.005457
C37	C	0.940865	-0.424526	-0.488797
C38	C	1.440865	0.075474	0.011203
C39	C	1.274349	-0.633668	-0.507975
C40	C	1.774349	-0.133668	-0.007975
C41	C	1.274398	-0.715985	-0.507989
C42	C	1.774398	-0.215985	-0.007989
C43	C	0.746458	-0.515090	-0.592818
C44	C	1.246458	-0.015090	-0.092818
C45	C	0.652552	-0.510393	-0.587423
C46	C	1.152552	-0.010393	-0.087423
C47	C	0.659146	-0.410431	-0.472617
C48	C	1.159146	0.089569	0.027383
C49	C	0.753052	-0.415128	-0.478012
C50	C	1.253052	0.084872	0.021988
C51	C	0.796704	-0.467460	-0.538114
C52	C	1.296704	0.032540	-0.038114
C53	C	0.890612	-0.472160	-0.543504
C54	C	1.390612	0.027840	-0.043504
C55	C	0.897204	-0.372196	-0.428703
C56	C	1.397204	0.127804	0.071297
C57	C	0.803298	-0.367499	-0.423308
C58	C	1.303298	0.132501	0.076692
C59	C	1.274508	-1.015085	-0.508078
C60	C	1.774508	-0.515085	-0.008078
C61	C	1.347810	-0.984118	-0.442402
C62	C	1.847810	-0.484118	0.057598
C63	C	1.348039	-0.898520	-0.442596
C64	C	1.848039	-0.398520	0.057404
C65	C	1.274453	-0.866698	-0.508033
C66	C	1.774453	-0.366698	-0.008033
C67	C	1.294669	-0.903220	-0.604287
C68	C	1.794669	-0.403220	-0.104287
C69	C	1.295227	-0.988875	-0.603939
C70	C	1.795227	-0.488875	-0.103939
C71	C	1.180758	-0.977738	-0.478309
C72	C	1.680758	-0.477738	0.021691
C73	C	1.181350	-0.892017	-0.476221
C74	C	1.681350	-0.392017	0.023779
C75	C	1.274421	-0.782836	-0.508014
C76	C	1.774421	-0.282836	-0.008014
C77	C	1.274542	-1.098948	-0.508104
C78	C	1.774542	-0.598948	-0.008104
C79	C	1.508951	-0.453045	-0.521556
C80	C	2.008951	0.046955	-0.021556
C81	C	1.608893	-0.458066	-0.527323
C82	C	2.108893	0.041934	-0.027323
C83	C	1.260938	-0.451673	-0.742547
C84	C	1.760938	0.048327	-0.242547
C85	C	1.255192	-0.456108	-0.842488
C86	C	1.755192	0.043892	-0.342488
C87	C	1.274521	-0.248109	-0.508092
C88	C	1.774521	0.251891	-0.008092
C89	C	1.274563	-0.165798	-0.508122
C90	C	1.774563	0.334202	-0.008122
C91	C	1.359446	-0.375486	-1.036958
C92	C	1.859446	0.124514	-0.536958
C93	C	1.354049	-0.379651	-1.130861
C94	C	1.854049	0.120349	-0.630861
C95	C	1.238998	-0.468600	-1.124198
C96	C	1.738998	0.031400	-0.624198
C97	C	1.244395	-0.464435	-1.030295
C98	C	1.744395	0.035565	-0.530295
C99	C	1.304622	-0.417877	-0.986678
C100	C	1.804622	0.082123	-0.486678
C101	C	1.310022	-0.413716	-0.892774
C102	C	1.810022	0.086284	-0.392774
C103	C	1.194967	-0.502661	-0.886113
C104	C	1.694967	-0.002661	-0.386113
C105	C	1.189570	-0.506826	-0.980016
C106	C	1.689570	-0.006826	-0.480016
C107	C	1.287908	-0.430843	-0.274414
C108	C	1.787908	0.069157	0.225586
C109	C	1.293829	-0.426208	-0.174484
C110	C	1.793829	0.073792	0.325516
H111	H	0.926152	-0.514773	-0.592440
H112	H	1.426152	-0.014773	-0.092440
H113	H	1.336026	-0.873618	-0.371397
H114	H	1.836026	-0.373618	0.128603
H115	H	1.189964	-0.506505	-1.159727
H116	H	1.689964	-0.006505	-0.659727
C117	C	1.123330	-0.558038	-1.027999
C118	C	1.623330	-0.058038	-0.527999
H119	H	1.127971	-0.554452	-1.091126
H120	H	1.627971	-0.054452	-0.591126
H121	H	1.063804	-0.543491	-1.009128
H122	H	1.563804	-0.043491	-0.509128
H123	H	1.137363	-0.607775	-1.013354
H124	H	1.637363	-0.107775	-0.513354
C125	C	1.441271	-1.018816	-0.469318
C126	C	1.941271	-0.518816	0.030682
H127	H	1.435813	-1.052091	-0.520408
H128	H	1.935813	-0.552091	-0.020408
H129	H	1.466262	-1.044975	-0.420845
H130	H	1.966262	-0.544975	0.079155
H131	H	1.479392	-0.980783	-0.483326
H132	H	1.979392	-0.480783	0.016674
H133	H	1.417595	-0.882229	-0.462726
H134	H	1.917595	-0.382229	0.037274
C135	C	1.376261	-0.362499	-0.844796
C136	C	1.876261	0.137501	-0.344796
H137	H	1.408131	-0.337843	-0.888193
H138	H	1.908131	0.162157	-0.388193
H139	H	1.417536	-0.391162	-0.810412
H140	H	1.917536	0.108838	-0.310412
H141	H	1.343973	-0.326881	-0.806194
H142	H	1.843973	0.173119	-0.306194
C143	C	1.225847	-1.016843	-0.672705
C144	C	1.725847	-0.516843	-0.172705
H145	H	1.197451	-0.975854	-0.700734
H146	H	1.697451	-0.475854	-0.200734
H147	H	1.181976	-1.042557	-0.642880
H148	H	1.681976	-0.542557	-0.142880
H149	H	1.255326	-1.049361	-0.716940
H150	H	1.755326	-0.549361	-0.216940
C151	C	1.387583	-1.021741	-0.637132
C152	C	1.887583	-0.521741	-0.137132
H153	H	1.424409	-0.982721	-0.650697
H154	H	1.924409	-0.482721	-0.150697
H155	H	1.379967	-1.053062	-0.689592
H156	H	1.879967	-0.553062	-0.189592
H157	H	1.415359	-1.049703	-0.591568
H158	H	1.915359	-0.549703	-0.091568
C159	C	1.224419	-0.875637	-0.672490
C160	C	1.724419	-0.375637	-0.172490
H161	H	1.237905	-0.898420	-0.730227
H162	H	1.737905	-0.398420	-0.230227
H163	H	1.225630	-0.823368	-0.674798
H164	H	1.725630	-0.323368	-0.174798
H165	H	1.166371	-0.888126	-0.654524
H166	H	1.666371	-0.388126	-0.154524
H167	H	1.161309	-0.995197	-0.409052
H168	H	1.661309	-0.495197	0.090948
H169	H	1.408490	-0.337580	-1.001445
H170	H	1.908490	0.162420	-0.501445
H171	H	1.398691	-0.345130	-1.171795
H172	H	1.898691	0.154870	-0.671795
H173	H	0.938125	-0.333414	-0.384157
H174	H	1.438125	0.166586	0.115843
H175	H	1.336002	-1.000822	-0.371003
H176	H	1.836002	-0.500822	0.128997
C177	C	1.134657	-0.549292	-0.830803
C178	C	1.634657	-0.049292	-0.330803
H179	H	1.146491	-0.540142	-0.768631
H180	H	1.646491	-0.040142	-0.268631
H181	H	1.146908	-0.600391	-0.846939
H182	H	1.646908	-0.100391	-0.346939
H183	H	1.073359	-0.536099	-0.842709
H184	H	1.573359	-0.036099	-0.342709
H185	H	1.362235	-0.886096	-0.629170
H186	H	1.862235	-0.386096	-0.129170
C187	C	1.160600	-0.859120	-0.380505
C188	C	1.660600	-0.359120	0.119495
H189	H	1.104195	-0.874633	-0.361642
H190	H	1.604195	-0.374633	0.138358
H191	H	1.158571	-0.806558	-0.380187
H192	H	1.658571	-0.306558	0.119813
H193	H	1.206228	-0.875878	-0.340634
H194	H	1.706228	-0.375878	0.159366
C195	C	0.794478	-0.572653	-0.658922
C196	C	1.294478	-0.072653	-0.158922
H197	H	0.751103	-0.600346	-0.690732
H198	H	1.251103	-0.100346	-0.190732
H199	H	0.833079	-0.605176	-0.626559
H200	H	1.333079	-0.105176	-0.126559
H201	H	0.828868	-0.547943	-0.700270
H202	H	1.328868	-0.047943	-0.200270
H203	H	1.124239	-0.870000	-0.520113
H204	H	1.624239	-0.370000	-0.020113
H205	H	0.623588	-0.367821	-0.423691
H206	H	1.123588	0.132179	0.076309
H207	H	0.611645	-0.549176	-0.631970
H208	H	1.111645	-0.049176	-0.131970
C209	C	0.755276	-0.309943	-0.357197
C210	C	1.255276	0.190057	0.142803
H211	H	0.692153	-0.313970	-0.361813
H212	H	1.192153	0.186030	0.138187
H213	H	0.769917	-0.261558	-0.371339
H214	H	1.269917	0.238442	0.128661
H215	H	0.774124	-0.318804	-0.297642
H216	H	1.274124	0.181196	0.202358
H217	H	1.126209	-0.997676	-0.526077
H218	H	1.626209	-0.497676	-0.026077
