data_functionalizedCrystal
_audit_creation_method	'MofGen! by Chris Wilmer'
_symmetry_space_group_name_H-M	'P1'
_symmetry_Int_Tables_number	1
_symmetry_cell_setting	triclinic
loop_
_symmetry_equiv_pos_as_xyz
  x,y,z
_cell_length_a	11.792241
_cell_length_b	26.210047
_cell_length_c	11.792241
_cell_angle_alpha	89.995333
_cell_angle_beta	95.806584
_cell_angle_gamma	90.012238
loop_
_atom_site_label
_atom_site_type_symbol
_atom_site_fract_x
_atom_site_fract_y
_atom_site_fract_z
O1	O	1.506929	0.042380	-0.155565
O2	O	1.176588	0.042392	-0.171598
O3	O	1.349775	0.042382	0.001589
O4	O	1.333742	0.042389	-0.328752
O5	O	1.349720	-0.042476	0.001589
O6	O	1.176533	-0.042466	-0.171598
O7	O	1.506874	-0.042478	-0.155565
Cu8	Cu	1.341698	-0.050221	-0.163581
Cu9	Cu	1.341763	0.050134	-0.163582
O10	O	1.333687	-0.042469	-0.328752
C11	C	1.134269	-0.000036	-0.170591
C12	C	1.008255	-0.000032	-0.167576
N13	N	1.341661	-0.120805	-0.163580
C14	C	0.777543	-0.000046	-0.162034
C15	C	0.905928	-0.000038	-0.165113
C16	C	1.411010	-0.473320	-0.232872
C17	C	1.411044	-0.686978	-0.232872
O18	O	1.469981	-0.714601	-0.291774
N19	N	1.341790	-0.713698	-0.163571
C20	C	1.272529	-0.687001	-0.094259
O21	O	1.213634	-0.714631	-0.035305
C22	C	1.272502	-0.473343	-0.094254
C23	C	1.341751	-0.446626	-0.163569
C24	C	1.480255	-0.446602	-0.302180
C25	C	1.480241	-0.393191	-0.302184
C26	C	1.410983	-0.366497	-0.232881
C27	C	1.341738	-0.393214	-0.163573
C28	C	1.203247	-0.446647	-0.024938
C29	C	1.203249	-0.393229	-0.024940
C30	C	1.272498	-0.366511	-0.094255
C31	C	1.272465	-0.313109	-0.094273
N32	N	1.341719	-0.286389	-0.163574
C33	C	1.410978	-0.313083	-0.232878
C34	C	1.272546	-0.799174	-0.094268
C35	C	1.272551	-0.852588	-0.094271
C36	C	1.411068	-0.852562	-0.232882
C37	C	1.411056	-0.799147	-0.232885
C38	C	1.341799	-0.772454	-0.163569
C39	C	1.410943	-0.200915	-0.232882
C40	C	1.410919	-0.147498	-0.232884
C41	C	1.272407	-0.147529	-0.094268
C42	C	1.272426	-0.200941	-0.094271
C43	C	1.341703	-0.227632	-0.163581
O44	O	1.213569	-0.285453	-0.035392
O45	O	1.469883	-0.285444	-0.291804
C46	C	1.411024	-0.526731	-0.232868
C47	C	1.341779	-0.553449	-0.163561
C48	C	1.272520	-0.526755	-0.094257
C49	C	1.341784	-0.606863	-0.163563
C50	C	1.411042	-0.633557	-0.232867
C51	C	1.480296	-0.606836	-0.302168
C52	C	1.480282	-0.553425	-0.302172
C53	C	1.203266	-0.553475	-0.024956
C54	C	1.203285	-0.606887	-0.024958
C55	C	1.272544	-0.633580	-0.094262
C56	C	1.549192	-0.000050	-0.156572
C57	C	1.675206	-0.000051	-0.159587
C58	C	1.348740	-0.000047	0.043880
C59	C	1.345726	-0.000046	0.169894
N60	N	1.341809	0.120718	-0.163574
C61	C	1.334721	-0.000039	-0.371043
C62	C	1.337736	-0.000036	-0.497057
C63	C	1.340183	-0.000038	0.400606
C64	C	1.343262	-0.000042	0.272221
H65	H	1.467311	-0.125747	-0.289333
H66	H	1.146869	-0.531746	0.031483
H67	H	1.536673	-0.531676	-0.358615
H68	H	1.536683	-0.628580	-0.358603
H69	H	1.146858	-0.468391	0.031507
H70	H	1.467355	-0.222640	-0.289321
H71	H	1.146882	-0.628635	0.031483
H72	H	1.216147	-0.874337	-0.037841
H73	H	1.216146	-0.777446	-0.037820
H74	H	1.536636	-0.371442	-0.358622
H75	H	1.216023	-0.222696	-0.037844
H76	H	1.467444	-0.777397	-0.289327
H77	H	1.467456	-0.874305	-0.289316
H78	H	1.536660	-0.468331	-0.358616
H79	H	1.146851	-0.371498	0.031507
H80	H	1.216016	-0.125786	-0.037846
