data_functionalizedCrystal
_audit_creation_method	'MofGen! by Chris Wilmer'
_symmetry_space_group_name_H-M	'P1'
_symmetry_Int_Tables_number	1
_symmetry_cell_setting	triclinic
loop_
_symmetry_equiv_pos_as_xyz
  x,y,z
_cell_length_a	19.077105
_cell_length_b	25.639239
_cell_length_c	19.077174
_cell_angle_alpha	92.270789
_cell_angle_beta	85.483752
_cell_angle_gamma	87.734929
loop_
_atom_site_label
_atom_site_type_symbol
_atom_site_fract_x
_atom_site_fract_y
_atom_site_fract_z
Zn1	Zn	1.093621	-0.254037	-0.441824
Zn2	Zn	1.426954	0.079297	-0.108491
Zn3	Zn	1.760288	0.412630	0.224843
Zn4	Zn	1.088778	-0.337809	-0.323930
Zn5	Zn	1.422111	-0.004475	0.009403
Zn6	Zn	1.755445	0.328858	0.342737
Zn7	Zn	0.971008	-0.246728	-0.319222
Zn8	Zn	1.304342	0.086605	0.014111
Zn9	Zn	1.637675	0.419939	0.347444
Zn10	Zn	0.975672	-0.337775	-0.437048
Zn11	Zn	1.309005	-0.004441	-0.103715
Zn12	Zn	1.642338	0.328892	0.229619
O13	O	1.032270	-0.294087	-0.380506
O14	O	1.365603	0.039246	-0.047173
O15	O	1.698936	0.372580	0.286161
O16	O	1.191628	-0.268222	-0.430154
O17	O	1.524961	0.065111	-0.096821
O18	O	1.858294	0.398444	0.236512
O19	O	1.069177	-0.322682	-0.224656
O20	O	1.402510	0.010651	0.108677
O21	O	1.735844	0.343984	0.442011
O22	O	0.987348	-0.174535	-0.335514
O23	O	1.320682	0.158798	-0.002181
O24	O	1.654015	0.492131	0.331152
O25	O	1.188069	-0.329769	-0.343538
O26	O	1.521403	0.003564	-0.010205
O27	O	1.854736	0.336897	0.323129
O28	O	1.077431	-0.179905	-0.425589
O29	O	1.410765	0.153428	-0.092256
O30	O	1.744098	0.486762	0.241077
O31	O	0.982652	-0.255766	-0.221197
O32	O	1.315986	0.077568	0.112136
O33	O	1.649319	0.410901	0.445469
O34	O	0.872978	-0.255733	-0.330883
O35	O	1.206311	0.077601	0.002450
O36	O	1.539645	0.410934	0.335784
O37	O	0.995296	-0.329711	-0.536331
O38	O	1.328630	0.003622	-0.202998
O39	O	1.661963	0.336956	0.130336
O40	O	0.876404	-0.322624	-0.417449
O41	O	1.209737	0.010709	-0.084116
O42	O	1.543071	0.344043	0.249218
O43	O	1.081953	-0.268189	-0.539840
O44	O	1.415287	0.065144	-0.206507
O45	O	1.748620	0.398478	0.126827
O46	O	1.073699	-0.410966	-0.338907
O47	O	1.407032	-0.077633	-0.005573
O48	O	1.740366	0.255700	0.327760
O49	O	0.990600	-0.410941	-0.422014
O50	O	1.323934	-0.077608	-0.088681
O51	O	1.657267	0.255726	0.244653
C52	C	0.849112	-0.288382	-0.373137
C53	C	1.182446	0.044951	-0.039804
C54	C	1.515779	0.378285	0.293529
C55	C	0.770758	-0.285954	-0.370001
C56	C	1.104091	0.047379	-0.036668
C57	C	1.437424	0.380712	0.296665
C58	C	0.735746	-0.319689	-0.413528
C59	C	1.069079	0.013644	-0.080194
C60	C	1.402412	0.346978	0.253139
C61	C	0.662123	-0.317401	-0.410585
C62	C	0.995456	0.015932	-0.077251
C63	C	1.328790	0.349266	0.256082
C64	C	0.623514	-0.281381	-0.364112
C65	C	0.956847	0.051952	-0.030778
C66	C	1.290180	0.385286	0.302555
C67	C	0.658531	-0.247643	-0.320584
C68	C	0.991864	0.085690	0.012750
C69	C	1.325197	0.419024	0.346083
C70	C	0.732152	-0.249928	-0.323531
C71	C	1.065485	0.083405	0.009803
C72	C	1.398819	0.416738	0.343136
C73	C	0.403136	-0.270803	-0.350476
C74	C	0.736470	0.062530	-0.017142
C75	C	1.069803	0.395864	0.316191
C76	C	0.329510	-0.268521	-0.347530
C77	C	0.662843	0.064812	-0.014197
C78	C	0.996176	0.398146	0.319136
C79	C	0.333107	-0.338279	-0.437533
C80	C	0.666441	-0.004946	-0.104200
C81	C	0.999774	0.328388	0.229134
C82	C	0.406730	-0.340563	-0.440473
C83	C	0.740063	-0.007230	-0.107140
C84	C	1.073397	0.326103	0.226194
C85	C	0.441741	-0.306824	-0.396948
C86	C	0.775074	0.026510	-0.063614
C87	C	1.108407	0.359843	0.269719
N88	N	0.548259	-0.279043	-0.361101
N89	N	0.881593	0.054291	-0.027767
N90	N	1.214926	0.387624	0.305566
N91	N	0.516994	-0.309160	-0.399962
N92	N	0.850327	0.024174	-0.066629
N93	N	1.183660	0.357507	0.266704
C94	C	1.032150	-0.429925	-0.380469
C95	C	1.365483	-0.096592	-0.047136
C96	C	1.698817	0.236742	0.286198
C97	C	1.032164	-0.488040	-0.380479
C98	C	1.365497	-0.154706	-0.047146
C99	C	1.698831	0.178627	0.286187
C100	C	1.075660	-0.848413	-0.337314
C101	C	1.408993	-0.515080	-0.003980
C102	C	1.742327	-0.181747	0.329353
C103	C	1.075688	-0.903019	-0.337324
C104	C	1.409021	-0.569685	-0.003991
C105	C	1.742354	-0.236352	0.329342
O106	O	1.112545	-0.931259	-0.300583
O107	O	1.445878	-0.597926	0.032750
O108	O	1.779212	-0.264593	0.366084
N109	N	1.032395	-0.930331	-0.380558
N110	N	1.365729	-0.596998	-0.047224
N111	N	1.699062	-0.263665	0.286109
C112	C	0.989078	-0.903036	-0.423789
C113	C	1.322411	-0.569703	-0.090455
C114	C	1.655745	-0.236369	0.242878
O115	O	0.952258	-0.931282	-0.460564
O116	O	1.285591	-0.597948	-0.127230
O117	O	1.618925	-0.264615	0.206103
C118	C	0.989055	-0.848432	-0.423781
C119	C	1.322388	-0.515098	-0.090448
C120	C	1.655721	-0.181765	0.242885
C121	C	1.032344	-0.821122	-0.380540
C122	C	1.365678	-0.487788	-0.047207
C123	C	1.699011	-0.154455	0.286127
C124	C	1.118947	-0.821103	-0.294076
C125	C	1.452280	-0.487770	0.039257
C126	C	1.785613	-0.154436	0.372590
C127	C	1.118918	-0.766501	-0.294065
C128	C	1.452251	-0.433168	0.039268
C129	C	1.785584	-0.099835	0.372602
C130	C	1.075602	-0.739210	-0.337291
C131	C	1.408936	-0.405876	-0.003958
C132	C	1.742269	-0.072543	0.329376
C133	C	1.032315	-0.766520	-0.380529
C134	C	1.365649	-0.433187	-0.047195
C135	C	1.698982	-0.099853	0.286138
C136	C	0.945742	-0.821138	-0.467016
C137	C	1.279075	-0.487804	-0.133682
C138	C	1.612408	-0.154471	0.199651
C139	C	0.945722	-0.766530	-0.467005
C140	C	1.279055	-0.433197	-0.133672
C141	C	1.612389	-0.099863	0.199662
C142	C	0.989012	-0.739220	-0.423764
C143	C	1.322345	-0.405886	-0.090430
C144	C	1.655678	-0.072553	0.242903
C145	C	0.988971	-0.684627	-0.423743
C146	C	1.322304	-0.351293	-0.090410
C147	C	1.655638	-0.017960	0.242923
N148	N	1.032263	-0.657314	-0.380510
N149	N	1.365596	-0.323981	-0.047177
N150	N	1.698930	0.009353	0.286157
C151	C	1.075579	-0.684606	-0.337284
C152	C	1.408912	-0.351272	-0.003950
C153	C	1.742245	-0.017939	0.329383
C154	C	0.989132	-1.017709	-0.423802
C155	C	1.322465	-0.684375	-0.090468
C156	C	1.655798	-0.351042	0.242865
C157	C	0.989151	-1.072312	-0.423806
C158	C	1.322484	-0.738978	-0.090473
C159	C	1.655818	-0.405645	0.242861
C160	C	1.075762	-1.072291	-0.337342
C161	C	1.409095	-0.738957	-0.004009
C162	C	1.742428	-0.405624	0.329325
C163	C	1.075738	-1.017686	-0.337335
C164	C	1.409071	-0.684353	-0.004001
C165	C	1.742405	-0.351020	0.329332
C166	C	1.032424	-0.990396	-0.380568
C167	C	1.365757	-0.657063	-0.047235
C168	C	1.699090	-0.323729	0.286098
C169	C	1.075514	-0.569938	-0.337263
C170	C	1.408848	-0.236605	-0.003929
C171	C	1.742181	0.096729	0.329404
C172	C	1.075480	-0.515331	-0.337253
C173	C	1.408813	-0.181998	-0.003920
C174	C	1.742146	0.151335	0.329414
C175	C	0.988872	-0.515357	-0.423719
C176	C	1.322205	-0.182024	-0.090386
C177	C	1.655539	0.151309	0.242947
C178	C	0.988904	-0.569959	-0.423727
C179	C	1.322237	-0.236626	-0.090393
C180	C	1.655571	0.096708	0.242940
C181	C	1.032231	-0.597248	-0.380496
C182	C	1.365564	-0.263915	-0.047163
C183	C	1.698897	0.069419	0.286170
O184	O	0.952135	-0.656351	-0.460468
O185	O	1.285468	-0.323018	-0.127135
O186	O	1.618801	0.010315	0.206199
O187	O	1.112400	-0.656354	-0.300522
O188	O	1.445733	-0.323020	0.032812
O189	O	1.779066	0.010313	0.366145
C190	C	1.216142	-0.299815	-0.387904
C191	C	1.549476	0.033519	-0.054571
C192	C	1.882809	0.366852	0.278763
C193	C	1.294498	-0.302256	-0.391057
C194	C	1.627831	0.031078	-0.057723
C195	C	1.961164	0.364411	0.275610
C196	C	1.032410	-0.157720	-0.380559
C197	C	1.365743	0.175614	-0.047226
C198	C	1.699077	0.508947	0.286107
C199	C	1.032470	-0.099608	-0.380582
C200	C	1.365803	0.233725	-0.047249
C201	C	1.699136	0.567059	0.286084
C202	C	1.039685	-0.299761	-0.564379
C203	C	1.373019	0.033572	-0.231046
C204	C	1.706352	0.366905	0.102287
C205	C	1.042845	-0.302179	-0.642735
C206	C	1.376179	0.031154	-0.309402
C207	C	1.709512	0.364487	0.023931
C208	C	0.999283	-0.268476	-0.677746
C209	C	1.332616	0.064857	-0.344412
C210	C	1.665950	0.398190	-0.011079
C211	C	1.002250	-0.270753	-0.751369
C212	C	1.335583	0.062581	-0.418036
C213	C	1.668916	0.395914	-0.084703
C214	C	1.048782	-0.306730	-0.789981
C215	C	1.382116	0.026603	-0.456648
C216	C	1.715449	0.359937	-0.123315
C217	C	1.092346	-0.340437	-0.754966
C218	C	1.425680	-0.007103	-0.421632
C219	C	1.759013	0.326230	-0.088299
C220	C	1.089376	-0.338163	-0.681343
C221	C	1.422709	-0.004829	-0.348010
C222	C	1.756042	0.328504	-0.014677
C223	C	1.062494	-0.317270	-1.010362
C224	C	1.395827	0.016064	-0.677028
C225	C	1.729160	0.349397	-0.343695
C226	C	1.065462	-0.319540	-1.083989
C227	C	1.398796	0.013793	-0.750656
C228	C	1.732129	0.347126	-0.417323
C229	C	0.975364	-0.249857	-1.080388
C230	C	1.308698	0.083477	-0.747054
C231	C	1.642031	0.416810	-0.413721
C232	C	0.972401	-0.247584	-1.006764
C233	C	1.305734	0.085750	-0.673431
C234	C	1.639068	0.419083	-0.340098
C235	C	1.015962	-0.281292	-0.971755
C236	C	1.349296	0.052041	-0.638422
C237	C	1.682629	0.385375	-0.305088
N238	N	1.051817	-0.309056	-0.865236
N239	N	1.385151	0.024277	-0.531903
N240	N	1.718484	0.357610	-0.198570
N241	N	1.012923	-0.278968	-0.896501
N242	N	1.346257	0.054366	-0.563168
N243	N	1.679590	0.387699	-0.229834
C244	C	1.024924	-0.288398	-0.197350
C245	C	1.358257	0.044935	0.135984
C246	C	1.691590	0.378268	0.469317
C247	C	1.021900	-0.285837	-0.119000
C248	C	1.355234	0.047496	0.214334
C249	C	1.688567	0.380830	0.547667
H250	H	1.110731	-0.493097	-0.302038
H251	H	1.444064	-0.159764	0.031295
H252	H	1.777398	0.173570	0.364628
H253	H	0.760658	-0.222456	-0.288090
H254	H	1.093991	0.110878	0.045243
H255	H	1.427324	0.444211	0.378576
C256	C	1.123167	-0.599948	-0.289705
C257	C	1.456500	-0.266615	0.043628
C258	C	1.789834	0.066719	0.376962
H259	H	1.148934	-0.575856	-0.263951
H260	H	1.482268	-0.242523	0.069382
H261	H	1.815601	0.090811	0.402716
H262	H	1.154965	-0.623007	-0.317927
H263	H	1.488298	-0.289673	0.015406
H264	H	1.821632	0.043660	0.348740
H265	H	1.094991	-0.619489	-0.257883
H266	H	1.428324	-0.286156	0.075450
H267	H	1.761657	0.047177	0.408784
H268	H	0.939899	-0.222414	-1.108900
H269	H	1.273232	0.110920	-0.775567
H270	H	1.606565	0.444253	-0.442234
H271	H	1.130231	-0.369733	-0.786409
H272	H	1.463564	-0.036399	-0.453076
H273	H	1.796897	0.296934	-0.119743
H274	H	0.953656	-0.592196	-0.458940
H275	H	1.286990	-0.258863	-0.125606
H276	H	1.620323	0.074470	0.207727
C277	C	1.166546	-0.736467	-0.246508
C278	C	1.499879	-0.403134	0.086826
C279	C	1.833212	-0.069801	0.420159
H280	H	1.192349	-0.760549	-0.220775
H281	H	1.525682	-0.427215	0.112558
H282	H	1.859016	-0.093882	0.445892
H283	H	1.138364	-0.713406	-0.214678
H284	H	1.471698	-0.380073	0.118656
H285	H	1.805031	-0.046740	0.451989
H286	H	1.198323	-0.716927	-0.274738
H287	H	1.531656	-0.383594	0.058596
H288	H	1.864989	-0.050260	0.391929
H289	H	0.438161	-0.369896	-0.478315
H290	H	0.771494	-0.036563	-0.144981
H291	H	1.104828	0.296771	0.188352
C292	C	0.954335	-0.233676	-0.789878
C293	C	1.287669	0.099657	-0.456545
C294	C	1.621002	0.432991	-0.123211
H295	H	0.926204	-0.211919	-0.756338
H296	H	1.259537	0.121414	-0.423005
H297	H	1.592871	0.454748	-0.089672
H298	H	0.924754	-0.253602	-0.817354
H299	H	1.258088	0.079731	-0.484021
H300	H	1.591421	0.413064	-0.150687
H301	H	0.982492	-0.212624	-0.819692
H302	H	1.315825	0.120710	-0.486359
H303	H	1.649158	0.454043	-0.153026
H304	H	1.103358	-0.348838	-1.115425
H305	H	1.436691	-0.015505	-0.782092
H306	H	1.770025	0.317829	-0.448759
H307	H	0.633620	-0.344872	-0.446028
H308	H	0.966953	-0.011538	-0.112694
H309	H	1.300286	0.321795	0.220639
C310	C	1.137293	-0.375235	-0.642828
C311	C	1.470626	-0.041901	-0.309495
C312	C	1.803959	0.291432	0.023838
H313	H	1.128854	-0.368732	-0.593452
H314	H	1.462188	-0.035398	-0.260118
H315	H	1.795521	0.297935	0.073215
H316	H	1.185154	-0.369434	-0.656800
H317	H	1.518487	-0.036101	-0.323467
H318	H	1.851820	0.297232	0.009866
H319	H	1.127419	-0.410415	-0.654465
H320	H	1.460752	-0.077082	-0.321132
H321	H	1.794085	0.256252	0.012202
H322	H	1.110989	-0.995454	-0.302124
H323	H	1.444322	-0.662120	0.031209
H324	H	1.777655	-0.328787	0.364542
C325	C	1.110410	-0.354345	-0.971857
C326	C	1.443743	-0.021011	-0.638524
C327	C	1.777077	0.312322	-0.305191
H328	H	1.101974	-0.347845	-0.922480
H329	H	1.435307	-0.014511	-0.589147
H330	H	1.768641	0.318822	-0.255813
H331	H	1.158270	-0.348543	-0.985831
H332	H	1.491604	-0.015210	-0.652497
H333	H	1.824937	0.318124	-0.319164
H334	H	1.100537	-0.389525	-0.983497
H335	H	1.433870	-0.056191	-0.650164
H336	H	1.767203	0.277142	-0.316830
C337	C	0.778210	-0.359311	-0.464650
C338	C	1.111543	-0.025977	-0.131316
C339	C	1.444876	0.307356	0.202017
H340	H	0.746811	-0.379070	-0.490155
H341	H	1.080144	-0.045737	-0.156822
H342	H	1.413478	0.287597	0.176511
H343	H	0.805817	-0.382118	-0.438779
H344	H	1.139150	-0.048785	-0.105446
H345	H	1.472483	0.284548	0.227888
H346	H	0.808191	-0.341183	-0.496567
H347	H	1.141525	-0.007850	-0.163234
H348	H	1.474858	0.325484	0.170099
H349	H	1.154223	-0.843318	-0.258876
H350	H	1.487556	-0.509985	0.074457
H351	H	1.820890	-0.176651	0.407791
C352	C	1.123406	-1.102318	-0.289791
C353	C	1.456740	-0.768985	0.043542
C354	C	1.790073	-0.435651	0.376875
H355	H	1.117220	-1.138749	-0.295996
H356	H	1.450554	-0.805416	0.037338
H357	H	1.783887	-0.472083	0.370671
H358	H	1.111212	-1.091610	-0.242003
H359	H	1.444546	-0.758276	0.091331
H360	H	1.777879	-0.424943	0.424664
H361	H	1.171182	-1.095127	-0.302052
H362	H	1.504515	-0.761794	0.031282
H363	H	1.837848	-0.428461	0.364615
C364	C	0.941528	-1.102347	-0.471367
C365	C	1.274861	-0.769013	-0.138034
C366	C	1.608195	-0.435680	0.195300
H367	H	0.915733	-1.078268	-0.497111
H368	H	1.249066	-0.744934	-0.163777
H369	H	1.582400	-0.411601	0.169556
H370	H	0.909755	-1.121894	-0.443149
H371	H	1.243088	-0.788560	-0.109816
H372	H	1.576421	-0.455227	0.223517
H373	H	0.969724	-1.125402	-0.503199
H374	H	1.303057	-0.792069	-0.169865
H375	H	1.636391	-0.458736	0.163468
H376	H	0.953854	-0.995491	-0.459005
H377	H	1.287187	-0.662158	-0.125672
H378	H	1.620521	-0.328825	0.207661
C379	C	0.898127	-0.851167	-0.514588
C380	C	1.231461	-0.517834	-0.181254
C381	C	1.564794	-0.184501	0.152079
H382	H	0.872338	-0.827086	-0.540333
H383	H	1.205672	-0.493753	-0.207000
H384	H	1.539005	-0.160419	0.126333
H385	H	0.866348	-0.870714	-0.486376
H386	H	1.199682	-0.537381	-0.153043
H387	H	1.533015	-0.204048	0.180291
H388	H	0.926326	-0.874223	-0.546417
H389	H	1.259659	-0.540890	-0.213084
H390	H	1.592992	-0.207556	0.120249
C391	C	0.616062	-0.208023	-0.269462
C392	C	0.949395	0.125310	0.063872
C393	C	1.282729	0.458643	0.397205
H394	H	0.567201	-0.211497	-0.273934
H395	H	0.900534	0.121836	0.059399
H396	H	1.233867	0.455170	0.392733
H397	H	0.628576	-0.173601	-0.280346
H398	H	0.961909	0.159732	0.052988
H399	H	1.295242	0.493065	0.386321
H400	H	0.626203	-0.214537	-0.222559
H401	H	0.959537	0.118796	0.110775
H402	H	1.292870	0.452129	0.444108
H403	H	0.910451	-0.744313	-0.502213
H404	H	1.243785	-0.410979	-0.168880
H405	H	1.577118	-0.077646	0.164453
H406	H	0.934507	-0.218288	-0.975331
H407	H	1.267840	0.115045	-0.641998
H408	H	1.601174	0.448378	-0.308664
H409	H	0.304594	-0.365747	-0.472970
H410	H	0.637927	-0.032414	-0.139637
H411	H	0.971260	0.300919	0.193697
H412	H	0.961395	-0.239177	-0.646313
H413	H	1.294728	0.094156	-0.312980
H414	H	1.628062	0.427490	0.020353
C415	C	0.287040	-0.228894	-0.296412
C416	C	0.620374	0.104439	0.036921
C417	C	0.953707	0.437773	0.370254
H418	H	0.318435	-0.209123	-0.270917
H419	H	0.651769	0.124210	0.062416
H420	H	0.985102	0.457543	0.395750
H421	H	0.257057	-0.247016	-0.264496
H422	H	0.590390	0.086318	0.068838
H423	H	0.923724	0.419651	0.402171
H424	H	0.259435	-0.206090	-0.322296
H425	H	0.592769	0.127244	0.011038
H426	H	0.926102	0.460577	0.344371
C427	C	0.441638	-0.233699	-0.302587
C428	C	0.774972	0.099634	0.030746
C429	C	1.108305	0.432967	0.364079
H430	H	0.408098	-0.211927	-0.274481
H431	H	0.741431	0.121407	0.058852
H432	H	1.074764	0.454740	0.392185
H433	H	0.471475	-0.212672	-0.330751
H434	H	0.804809	0.120661	0.002582
H435	H	1.138142	0.453995	0.335916
H436	H	0.469090	-0.253613	-0.272970
H437	H	0.802423	0.079720	0.060363
H438	H	1.135757	0.413053	0.393696
H439	H	0.953603	-0.493128	-0.458912
H440	H	1.286936	-0.159795	-0.125578
H441	H	1.620269	0.173539	0.207755
