data_functionalizedCrystal
_audit_creation_method	'MofGen! by Chris Wilmer'
_symmetry_space_group_name_H-M	'P1'
_symmetry_Int_Tables_number	1
_symmetry_cell_setting	triclinic
loop_
_symmetry_equiv_pos_as_xyz
  x,y,z
_cell_length_a	19.288840
_cell_length_b	19.288865
_cell_length_c	18.366186
_cell_angle_alpha	89.988521
_cell_angle_beta	89.983729
_cell_angle_gamma	83.131131
loop_
_atom_site_label
_atom_site_type_symbol
_atom_site_fract_x
_atom_site_fract_y
_atom_site_fract_z
O1	O	0.921364	0.086566	-0.060680
O2	O	1.421364	0.586566	0.439320
O3	O	0.719101	0.098273	-0.060655
O4	O	1.219101	0.598273	0.439345
O5	O	0.826077	-0.008712	-0.060654
O6	O	1.326077	0.491288	0.439346
O7	O	0.814388	0.193550	-0.060681
O8	O	1.314388	0.693550	0.439319
O9	O	0.826059	-0.008717	0.060446
O10	O	1.326059	0.491283	0.560446
O11	O	0.719083	0.098268	0.060444
O12	O	1.219083	0.598268	0.560444
O13	O	0.921346	0.086561	0.060420
O14	O	1.421346	0.586561	0.560420
Zn15	Zn	0.820211	0.092413	0.079659
Zn16	Zn	1.320211	0.592413	0.579659
Zn17	Zn	0.820235	0.092420	-0.079895
Zn18	Zn	1.320235	0.592420	0.420105
O19	O	0.814370	0.193545	0.060418
O20	O	1.314370	0.693545	0.560418
C21	C	0.825692	-0.034591	-0.000102
C22	C	1.325692	0.465409	0.499898
C23	C	0.824563	-0.111694	-0.000095
C24	C	1.324563	0.388306	0.499905
C25	C	0.693215	0.097896	-0.000102
C26	C	1.193215	0.597896	0.499898
C27	C	0.616110	0.096774	-0.000093
C28	C	1.116110	0.596774	0.499907
C29	C	0.887331	-0.156396	-0.000099
C30	C	1.387331	0.343604	0.499901
C31	C	0.886270	-0.228843	-0.000111
C32	C	1.386270	0.271157	0.499889
C33	C	0.822438	-0.256585	-0.000103
C34	C	1.322438	0.243415	0.499897
C35	C	0.759661	-0.211873	-0.000104
C36	C	1.259661	0.288127	0.499896
C37	C	0.760723	-0.139428	-0.000100
C38	C	1.260723	0.360572	0.499900
C39	C	0.772251	-0.364870	0.042321
C40	C	1.272251	0.135130	0.542321
C41	C	0.771191	-0.437314	0.042321
C42	C	1.271191	0.062686	0.542321
C43	C	0.819158	-0.480030	-0.000119
C44	C	1.319158	0.019970	0.499881
C45	C	0.868196	-0.450295	-0.042551
C46	C	1.368196	0.049705	0.457449
C47	C	0.869259	-0.377849	-0.042547
C48	C	1.369259	0.122151	0.457453
C49	C	0.821278	-0.335139	-0.000108
C50	C	1.321278	0.164861	0.499892
C51	C	0.880781	-0.603288	-0.000137
C52	C	1.380781	-0.103288	0.499863
C53	C	0.879717	-0.675736	-0.000153
C54	C	1.379717	-0.175736	0.499847
C55	C	0.753106	-0.658764	-0.000138
C56	C	1.253106	-0.158764	0.499862
C57	C	0.754171	-0.586318	-0.000130
C58	C	1.254171	-0.086318	0.499870
C59	C	0.818010	-0.558584	-0.000125
C60	C	1.318010	-0.058584	0.499875
C61	C	0.579917	0.096238	-0.066106
C62	C	1.079917	0.596238	0.433894
C63	C	0.507470	0.095176	-0.066114
C64	C	1.007470	0.595176	0.433886
C65	C	0.471221	0.094636	-0.000106
C66	C	0.971221	0.594636	0.499894
C67	C	0.507423	0.095176	0.065915
C68	C	1.007423	0.595176	0.565915
C69	C	0.579868	0.096245	0.065922
C70	C	1.079868	0.596245	0.565922
C71	C	0.361886	0.052256	0.050461
C72	C	0.861886	0.552256	0.550461
C73	C	0.289443	0.051183	0.050451
C74	C	0.789443	0.551183	0.550451
C75	C	0.247778	0.091342	-0.000125
C76	C	0.747778	0.591342	0.499875
C77	C	0.278565	0.132566	-0.050703
C78	C	0.778565	0.632566	0.449297
C79	C	0.351009	0.133635	-0.050697
C80	C	0.851009	0.633635	0.449303
C81	C	0.392667	0.093477	-0.000107
C82	C	0.892667	0.593477	0.499893
C83	C	0.133029	0.089655	-0.066152
C84	C	0.633029	0.589655	0.433848
C85	C	0.060580	0.088598	-0.066158
C86	C	0.560580	0.588598	0.433842
C87	C	0.060535	0.088591	0.065874
C88	C	0.560535	0.588591	0.565874
C89	C	0.132982	0.089656	0.065878
C90	C	0.632982	0.589656	0.565878
C91	C	0.169225	0.090185	-0.000137
C92	C	0.669225	0.590185	0.499863
C93	C	0.947232	0.086937	-0.000135
C94	C	1.447232	0.586937	0.499865
C95	C	1.024336	0.088059	-0.000149
C96	C	1.524336	0.588059	0.499851
C97	C	0.814755	0.219424	-0.000135
C98	C	1.314755	0.719424	0.499865
C99	C	0.815884	0.296527	-0.000147
C100	C	1.315884	0.796527	0.499853
N101	N	0.820200	0.092408	0.188550
N102	N	1.320200	0.592408	0.688550
N103	N	0.820252	0.092420	-0.188786
N104	N	1.320252	0.592420	0.311214
C105	C	0.867584	0.045059	0.226651
C106	C	1.367584	0.545059	0.726651
C107	C	0.867589	0.045055	0.302879
C108	C	1.367589	0.545055	0.802879
C109	C	0.820215	0.092414	0.341003
C110	C	1.320215	0.592414	0.841003
C111	C	0.772822	0.139767	0.302893
C112	C	1.272822	0.639767	0.802893
C113	C	0.772814	0.139764	0.226666
C114	C	1.272814	0.639764	0.726666
C115	C	0.810917	0.155702	0.461755
C116	C	1.310917	0.655702	0.961755
C117	C	0.810930	0.155706	0.537980
C118	C	1.310930	0.655706	1.037980
C119	C	0.820235	0.092422	0.576110
C120	C	1.320235	0.592422	1.076110
C121	C	0.829543	0.029132	0.538006
C122	C	1.329543	0.529132	1.038006
C123	C	0.829535	0.029129	0.461780
C124	C	1.329535	0.529129	0.961780
C125	C	0.820218	0.092422	0.423658
C126	C	1.320218	0.592422	0.923658
C127	C	0.867627	0.045066	0.696866
C128	C	1.367627	0.545066	1.196866
C129	C	0.867627	0.045062	0.773096
C130	C	1.367627	0.545062	1.273096
C131	C	0.772863	0.139779	0.773108
C132	C	1.272863	0.639779	1.273108
C133	C	0.772860	0.139777	0.696880
C134	C	1.272860	0.639777	1.196880
C135	C	0.820246	0.092421	0.658764
C136	C	1.320246	0.592421	1.158764
H137	H	0.939314	-0.133820	-0.000098
H138	H	1.439314	0.366180	0.499902
H139	H	0.906209	0.006503	0.665831
H140	H	1.406209	0.506503	1.165831
H141	H	0.031112	0.088165	-0.119916
H142	H	0.531112	0.588165	0.380084
H143	H	0.703058	-0.549920	-0.000122
H144	H	1.203058	-0.049920	0.499878
H145	H	0.477995	0.094741	-0.119872
H146	H	0.977995	0.594741	0.380128
Br147	Br	0.182106	0.090382	0.155472
Br148	Br	0.682106	0.590382	0.655472
Br149	Br	0.798306	0.241599	0.589685
Br150	Br	1.298306	0.741599	1.089685
H151	H	0.731258	-0.461518	0.076868
H152	H	1.231258	0.038482	0.576868
Br153	Br	0.707148	-0.306904	0.099925
Br154	Br	1.207148	0.193096	0.599925
H155	H	0.906176	0.006496	0.333907
H156	H	1.406176	0.506496	0.833907
Br157	Br	0.842181	-0.056759	0.589744
Br158	Br	1.342181	0.443241	1.089744
Br159	Br	0.673029	-0.249520	-0.000103
Br160	Br	1.173029	0.250480	0.499897
Br161	Br	0.222027	0.187073	-0.119346
Br162	Br	0.722027	0.687073	0.380654
H163	H	0.937386	-0.265246	-0.000117
H164	H	1.437386	0.234754	0.499883
H165	H	0.701132	-0.681351	-0.000136
H166	H	1.201132	-0.181351	0.499864
Br167	Br	0.629100	0.096957	-0.155697
Br168	Br	1.129100	0.596957	0.344303
H169	H	0.909186	-0.353642	-0.077098
H170	H	1.409186	0.146358	0.422902
Br171	Br	0.842160	-0.056760	0.410069
Br172	Br	1.342160	0.443240	0.910069
Br173	Br	0.798357	0.241597	0.410015
Br174	Br	1.298357	0.741597	0.910015
Br175	Br	0.931889	-0.019210	0.174922
Br176	Br	1.431889	0.480790	0.674922
H177	H	0.734288	0.178336	0.804147
H178	H	1.234288	0.678336	1.304147
H179	H	0.906211	0.006500	0.804118
H180	H	1.406211	0.506500	1.304118
H181	H	0.031022	0.088156	0.119619
H182	H	0.531022	0.588156	0.619619
H183	H	0.930833	-0.712132	-0.000160
H184	H	1.430833	-0.212132	0.499840
H185	H	0.609336	0.096683	0.119680
H186	H	1.109336	0.596683	0.619680
Br187	Br	0.933300	-0.508258	-0.100153
Br188	Br	1.433300	-0.008258	0.399847
Br189	Br	0.675530	-0.078756	-0.000096
Br190	Br	1.175530	0.421244	0.499904
Br191	Br	0.392790	0.189580	-0.119333
Br192	Br	0.892790	0.689580	0.380667
H193	H	0.932763	-0.580706	-0.000137
H194	H	1.432763	-0.080706	0.499863
Br195	Br	0.182219	0.090378	-0.155741
Br196	Br	0.682219	0.590378	0.344259
H197	H	0.264383	0.017613	0.091632
H198	H	0.764383	0.517613	0.591632
H199	H	0.734228	0.178322	0.195644
H200	H	1.234228	0.678322	0.695644
H201	H	0.395805	0.019552	0.091649
H202	H	0.895805	0.519552	0.591649
H203	H	0.477905	0.094739	0.119660
H204	H	0.977905	0.594739	0.619660
Br205	Br	0.708552	0.204042	0.645165
Br206	Br	1.208552	0.704042	1.145165
Br207	Br	0.708524	0.204035	0.354629
Br208	Br	1.208524	0.704035	0.854629
