data_functionalizedCrystal
_audit_creation_method	'MofGen! by Chris Wilmer'
_symmetry_space_group_name_H-M	'P1'
_symmetry_Int_Tables_number	1
_symmetry_cell_setting	triclinic
loop_
_symmetry_equiv_pos_as_xyz
  x,y,z
_cell_length_a	21.295420
_cell_length_b	21.295417
_cell_length_c	16.959447
_cell_angle_alpha	89.964807
_cell_angle_beta	89.984500
_cell_angle_gamma	90.026289
loop_
_atom_site_label
_atom_site_type_symbol
_atom_site_fract_x
_atom_site_fract_y
_atom_site_fract_z
Zn1	Zn	0.962299	-0.250668	-0.446907
Zn2	Zn	1.462299	0.249332	0.053093
Zn3	Zn	0.962218	-0.355944	-0.314717
Zn4	Zn	1.462218	0.144056	0.185283
Zn5	Zn	0.857039	-0.250685	-0.314742
Zn6	Zn	1.357039	0.249315	0.185258
Zn7	Zn	0.856991	-0.355895	-0.446853
Zn8	Zn	1.356991	0.144105	0.053147
O9	O	0.909637	-0.303298	-0.380804
O10	O	1.409637	0.196702	0.119196
O11	O	1.050377	-0.264646	-0.429384
O12	O	1.550377	0.235354	0.070616
O13	O	0.948252	-0.342009	-0.204109
O14	O	1.448252	0.157991	0.295891
O15	O	0.871055	-0.162594	-0.332306
O16	O	1.371055	0.337406	0.167694
O17	O	1.050318	-0.341992	-0.332264
O18	O	1.550318	0.158008	0.167736
O19	O	0.948390	-0.162581	-0.429408
O20	O	1.448390	0.337419	0.070592
O21	O	0.870977	-0.264676	-0.204127
O22	O	1.370977	0.235324	0.295873
O23	O	0.768943	-0.264628	-0.332254
O24	O	1.268943	0.235372	0.167746
O25	O	0.870975	-0.341909	-0.557471
O26	O	1.370975	0.158091	-0.057471
O27	O	0.768908	-0.341926	-0.429316
O28	O	1.268908	0.158074	0.070684
O29	O	0.948344	-0.264598	-0.557511
O30	O	1.448344	0.235402	-0.057511
O31	O	0.948206	-0.444027	-0.332212
O32	O	1.448206	0.055973	0.167788
O33	O	0.870896	-0.443991	-0.429292
O34	O	1.370896	0.056009	0.070708
C35	C	0.746085	-0.303274	-0.380782
C36	C	1.246085	0.196726	0.119218
C37	C	0.676117	-0.303279	-0.380791
C38	C	1.176117	0.196721	0.119209
C39	C	0.176689	-0.263119	-0.431469
C40	C	0.676689	0.236881	0.068531
C41	C	0.242432	-0.263114	-0.431468
C42	C	0.742432	0.236886	0.068532
C43	C	0.275278	-0.303317	-0.380823
C44	C	0.775278	0.196683	0.119177
C45	C	0.242375	-0.343540	-0.330188
C46	C	0.742375	0.156460	0.169812
C47	C	0.176634	-0.343548	-0.330195
C48	C	0.676634	0.156452	0.169805
N49	N	0.378476	-0.308066	-0.311611
N50	N	0.878476	0.191934	0.188389
N51	N	0.440928	-0.308055	-0.311606
N52	N	0.940928	0.191945	0.188394
C53	C	0.473352	-0.303297	-0.380800
C54	C	0.973352	0.196703	0.119200
N55	N	0.440966	-0.298538	-0.449999
N56	N	0.940966	0.201462	0.050001
N57	N	0.378509	-0.298546	-0.450003
N58	N	0.878509	0.201454	0.049997
C59	C	0.346563	-0.303313	-0.380810
C60	C	0.846563	0.196687	0.119190
C61	C	0.577532	-0.263075	-0.431435
C62	C	1.077532	0.236925	0.068565
C63	C	0.643276	-0.263075	-0.431436
C64	C	1.143276	0.236925	0.068564
C65	C	0.643218	-0.343497	-0.330149
C66	C	1.143218	0.156503	0.169851
C67	C	0.577476	-0.343500	-0.330155
C68	C	1.077476	0.156500	0.169845
C69	C	0.544637	-0.303286	-0.380797
C70	C	1.044637	0.196714	0.119203
C71	C	0.909554	-0.466850	-0.380761
C72	C	1.409554	0.033150	0.119239
C73	C	0.909577	-0.536818	-0.380768
C74	C	1.409577	-0.036818	0.119232
C75	C	0.949867	-0.569682	-0.330271
C76	C	1.449867	-0.069682	0.169729
C77	C	0.949897	-0.635425	-0.330289
C78	C	1.449897	-0.135425	0.169711
C79	C	0.909624	-0.668300	-0.380796
C80	C	1.409624	-0.168300	0.119204
C81	C	0.869331	-0.635428	-0.431303
C82	C	1.369331	-0.135428	0.068697
C83	C	0.869307	-0.569687	-0.431289
C84	C	1.369307	-0.069687	0.068711
N85	N	0.854557	-0.771562	-0.386814
N86	N	1.354557	-0.271562	0.113186
N87	N	0.854581	-0.834013	-0.386822
N88	N	1.354581	-0.334013	0.113178
C89	C	0.909695	-0.866375	-0.380841
C90	C	1.409695	-0.366375	0.119159
N91	N	0.964784	-0.833926	-0.374836
N92	N	1.464784	-0.333926	0.125164
N93	N	0.964759	-0.771469	-0.374823
N94	N	1.464759	-0.271469	0.125177
C95	C	0.909646	-0.739586	-0.380816
C96	C	1.409646	-0.239586	0.119184
C97	C	0.950021	-0.970525	-0.330360
C98	C	1.450021	-0.470525	0.169640
C99	C	0.950052	-1.036269	-0.330383
C100	C	1.450052	-0.536269	0.169617
C101	C	0.869480	-1.036270	-0.431394
C102	C	1.369480	-0.536270	0.068606
C103	C	0.869455	-0.970528	-0.431374
C104	C	1.369455	-0.470528	0.068626
C105	C	0.909725	-0.937659	-0.380853
C106	C	1.409725	-0.437659	0.119147
C107	C	1.073827	-0.303323	-0.380827
C108	C	1.573827	0.196677	0.119173
C109	C	1.143795	-0.303333	-0.380837
C110	C	1.643795	0.196667	0.119163
C111	C	0.909663	-0.303246	-0.586973
C112	C	1.409663	0.196754	-0.086973
C113	C	0.909674	-0.303224	-0.674829
C114	C	1.409674	0.196776	-0.174829
C115	C	0.909737	-0.139108	-0.380866
C116	C	1.409737	0.360892	0.119134
C117	C	0.909779	-0.069140	-0.380892
C118	C	1.409779	0.430860	0.119108
C119	C	0.869467	-0.343409	-1.046287
C120	C	1.369467	0.156591	-0.546287
C121	C	0.950032	-0.262906	-1.046323
C122	C	1.450032	0.237094	-0.546323
C123	C	0.950015	-0.262919	-0.963778
C124	C	1.450015	0.237081	-0.463778
C125	C	0.909724	-0.303179	-0.922483
C126	C	1.409724	0.196821	-0.422483
C127	C	0.869450	-0.343425	-0.963734
C128	C	1.369450	0.156575	-0.463734
C129	C	0.990293	-0.222678	-0.922520
C130	C	1.490293	0.277322	-0.422520
C131	C	0.990278	-0.222690	-0.839969
C132	C	1.490278	0.277310	-0.339969
C133	C	0.949984	-0.262947	-0.798673
C134	C	1.449984	0.237053	-0.298673
C135	C	0.909708	-0.303195	-0.839929
C136	C	1.409708	0.196805	-0.339929
C137	C	0.869417	-0.343454	-0.798634
C138	C	1.369417	0.156546	-0.298634
C139	C	0.829137	-0.383699	-0.839889
C140	C	1.329137	0.116301	-0.339889
C141	C	0.829156	-0.383682	-0.922437
C142	C	1.329156	0.116318	-0.422437
C143	C	0.949965	-0.262964	-0.716124
C144	C	1.449965	0.237036	-0.216124
C145	C	0.869400	-0.343470	-0.716080
C146	C	1.369400	0.156530	-0.216080
C147	C	0.909647	-0.303305	-0.175438
C148	C	1.409647	0.196695	0.324562
C149	C	0.909758	-0.303149	-0.087582
C150	C	1.409758	0.196851	0.412418
H151	H	0.670057	-0.230329	-0.472672
H152	H	1.170057	0.269671	0.027328
H153	H	0.836670	-0.376174	-1.079880
H154	H	1.336670	0.123826	-0.579880
H155	H	0.982813	-0.943762	-0.289225
H156	H	1.482813	-0.443762	0.210775
H157	H	0.269220	-0.230364	-0.472698
H158	H	0.769220	0.269636	0.027302
H159	H	0.836692	-1.063037	-0.472521
H160	H	1.336692	-0.563037	0.027479
F161	F	0.992781	-0.670409	-0.276539
F162	F	1.492781	-0.170409	0.223461
H163	H	0.836644	-0.943768	-0.472491
H164	H	1.336644	-0.443768	0.027509
H165	H	0.982838	-0.230131	-1.079951
H166	H	1.482838	0.269869	-0.579951
F167	F	0.542580	-0.220278	-0.485334
F168	F	1.042580	0.279722	0.014666
F169	F	0.786293	-0.426512	-0.966348
F170	F	1.286293	0.073488	-0.466348
F171	F	0.826422	-0.534709	-0.485038
F172	F	1.326422	-0.034709	0.014962
F173	F	0.826472	-0.670417	-0.485059
F174	F	1.326472	-0.170417	0.014941
F175	F	0.678171	-0.386289	-0.276253
F176	F	1.178171	0.113711	0.223747
H177	H	0.550693	-0.376245	-0.288922
H178	H	1.050693	0.123755	0.211078
F179	F	0.992733	-0.534705	-0.276510
F180	F	1.492733	-0.034705	0.223490
H181	H	0.982865	-1.063026	-0.289264
H182	H	1.482865	-0.563026	0.210736
F183	F	1.033174	-0.179838	-0.966473
F184	F	1.533174	0.320162	-0.466473
F185	F	0.826513	-0.386318	-0.672138
F186	F	1.326513	0.113682	-0.172138
H187	H	1.023076	-0.189920	-0.806387
H188	H	1.523076	0.310080	-0.306387
H189	H	0.796335	-0.416482	-0.806255
H190	H	1.296335	0.083518	-0.306255
H191	H	0.149956	-0.230376	-0.472709
H192	H	0.649956	0.269624	0.027291
F193	F	0.277333	-0.386329	-0.276290
F194	F	0.777333	0.113671	0.223710
H195	H	0.149852	-0.376296	-0.288964
H196	H	0.649852	0.123704	0.211036
F197	F	0.992834	-0.220140	-0.672222
F198	F	1.492834	0.279860	-0.172222
