data_functionalizedCrystal
_audit_creation_method	'MofGen! by Chris Wilmer'
_symmetry_space_group_name_H-M	'P1'
_symmetry_Int_Tables_number	1
_symmetry_cell_setting	triclinic
loop_
_symmetry_equiv_pos_as_xyz
  x,y,z
_cell_length_a	9.065218
_cell_length_b	17.699083
_cell_length_c	8.140239
_cell_angle_alpha	89.995596
_cell_angle_beta	89.997198
_cell_angle_gamma	84.149450
loop_
_atom_site_label
_atom_site_type_symbol
_atom_site_fract_x
_atom_site_fract_y
_atom_site_fract_z
O1	O	1.957109	0.110973	-0.136622
O2	O	1.527555	0.120075	-0.136624
O3	O	1.754468	0.005429	-0.136608
O4	O	1.730196	0.225619	-0.136637
O5	O	1.754455	0.005428	0.136619
O6	O	1.527542	0.120074	0.136603
O7	O	1.957097	0.110971	0.136605
Zn8	Zn	1.742317	0.115522	0.179985
Zn9	Zn	1.742334	0.115524	-0.180004
O10	O	1.730183	0.225617	0.136590
C11	C	1.472588	0.119200	-0.000011
C12	C	1.308822	0.116584	-0.000011
C13	C	1.753592	-0.022775	0.000005
C14	C	1.750983	-0.106813	0.000006
C15	C	1.884176	-0.154396	0.000009
C16	C	1.881716	-0.233358	-0.000005
C17	C	1.746060	-0.264737	-0.000011
C18	C	1.612857	-0.217149	-0.000019
C19	C	1.615319	-0.138188	-0.000017
C20	C	1.602925	-0.535589	-0.000033
C21	C	1.600474	-0.614556	-0.000031
C22	C	1.869322	-0.630760	-0.000022
C23	C	1.871784	-0.551799	-0.000019
C24	C	1.738581	-0.504217	-0.000036
C25	C	1.741251	-0.418597	-0.000023
C26	C	1.743390	-0.350355	-0.000012
C27	C	2.012064	0.111847	-0.000012
C28	C	2.175829	0.114463	-0.000022
C29	C	1.731059	0.253822	-0.000028
C30	C	1.733669	0.337860	-0.000039
N31	N	1.742317	0.115521	0.425667
N32	N	1.742346	0.115520	-0.425686
H33	H	1.990175	-0.272097	0.000001
H34	H	1.982248	-0.526255	-0.000006
H35	H	1.977782	-0.669510	-0.000016
H36	H	1.994642	-0.128854	0.000024
H37	H	1.502404	-0.242703	-0.000035
C38	C	1.451244	-0.649075	-0.000050
C39	C	1.412611	-0.701131	-0.141930
C40	C	1.263390	-0.735650	-0.141947
C41	C	1.152803	-0.718114	-0.000084
C42	C	1.191434	-0.666055	0.141806
C43	C	1.340654	-0.631535	0.141823
H44	H	1.494476	-0.714115	-0.246954
H45	H	1.234794	-0.774188	-0.246984
H46	H	1.042342	-0.743667	-0.000097
H47	H	1.109568	-0.653071	0.246830
H48	H	1.369250	-0.592998	0.246860
C49	C	1.456401	-0.483260	-0.000021
C50	C	1.345156	-0.487432	-0.141887
C51	C	1.198622	-0.435101	-0.141867
C52	C	1.163334	-0.378597	0.000019
C53	C	1.274582	-0.374422	0.141896
C54	C	1.421116	-0.426754	0.141876
H55	H	1.371275	-0.529262	-0.246929
H56	H	1.116268	-0.438192	-0.246894
H57	H	1.054860	-0.339858	0.000034
H58	H	1.248463	-0.332592	0.246938
H59	H	1.503470	-0.423663	0.246903
H60	H	1.506859	-0.099446	-0.000019
