data_functionalizedCrystal
_audit_creation_method	'MofGen! by Chris Wilmer'
_symmetry_space_group_name_H-M	'P1'
_symmetry_Int_Tables_number	1
_symmetry_cell_setting	triclinic
loop_
_symmetry_equiv_pos_as_xyz
  x,y,z
_cell_length_a	12.759395
_cell_length_b	25.639240
_cell_length_c	12.759387
_cell_angle_alpha	89.956399
_cell_angle_beta	89.978972
_cell_angle_gamma	90.033519
loop_
_atom_site_label
_atom_site_type_symbol
_atom_site_fract_x
_atom_site_fract_y
_atom_site_fract_z
Zn1	Zn	1.606137	-0.208113	-0.593926
Zn2	Zn	1.605972	-0.295558	-0.418207
Zn3	Zn	1.430435	-0.208140	-0.418261
Zn4	Zn	1.430372	-0.295520	-0.593845
O5	O	1.518229	-0.251833	-0.506060
O6	O	1.753136	-0.219717	-0.570628
O7	O	1.582644	-0.283990	-0.271193
O8	O	1.453838	-0.134971	-0.441620
O9	O	1.753015	-0.283963	-0.441528
O10	O	1.582925	-0.134951	-0.570681
O11	O	1.453678	-0.219764	-0.271233
O12	O	1.283406	-0.219726	-0.441542
O13	O	1.453730	-0.283898	-0.740877
O14	O	1.283359	-0.283924	-0.570542
O15	O	1.582864	-0.219680	-0.740937
O16	O	1.582583	-0.368719	-0.441449
O17	O	1.453570	-0.368690	-0.570489
C18	C	1.245262	-0.251825	-0.506039
C19	C	1.128485	-0.251834	-0.506056
C20	C	1.518081	-0.387675	-0.505978
C21	C	1.518113	-0.445789	-0.505978
C22	C	0.909176	-0.185054	-0.640739
C23	C	0.964105	-0.151653	-0.708051
C24	C	1.073827	-0.151644	-0.708033
C25	C	1.128622	-0.185041	-0.640698
C26	C	1.073692	-0.218442	-0.573386
C27	C	0.963968	-0.218446	-0.573409
C28	C	1.073556	-0.285235	-0.438744
C29	C	0.963834	-0.285242	-0.438755
C30	C	1.128350	-0.318631	-0.371408
C31	C	1.073421	-0.352031	-0.304090
C32	C	0.963693	-0.352038	-0.304110
C33	C	0.908905	-0.318643	-0.371443
C34	C	1.585478	-0.806103	-0.573383
C35	C	1.585509	-0.860708	-0.573404
O36	O	1.642609	-0.888903	-0.630630
N37	N	1.518375	-0.888072	-0.506161
C38	C	1.451197	-0.860829	-0.438901
O39	O	1.394097	-0.889118	-0.381708
C40	C	1.451162	-0.806225	-0.438885
C41	C	1.518308	-0.778864	-0.506125
C42	C	1.652618	-0.778742	-0.640618
C43	C	1.652588	-0.724142	-0.640595
C44	C	1.585418	-0.696902	-0.573337
C45	C	1.518278	-0.724264	-0.506102
C46	C	1.383980	-0.778983	-0.371631
C47	C	1.383950	-0.724376	-0.371622
C48	C	1.451096	-0.697015	-0.438861
C49	C	1.451079	-0.642424	-0.438821
N50	N	1.518213	-0.615060	-0.506064
C51	C	1.585383	-0.642299	-0.573322
C52	C	1.451276	-0.975499	-0.438939
C53	C	1.451316	-1.030102	-0.438948
C54	C	1.585626	-1.029977	-0.573453
C55	C	1.585591	-0.975374	-0.573438
C56	C	1.518410	-0.948135	-0.506182
C57	C	1.585316	-0.527634	-0.573267
C58	C	1.585283	-0.473029	-0.573235
C59	C	1.450969	-0.473158	-0.438735
C60	C	1.451005	-0.527759	-0.438762
C61	C	1.518182	-0.554995	-0.506037
O62	O	1.394005	-0.614194	-0.381627
O63	O	1.642464	-0.614003	-0.630514
C64	C	1.792262	-0.251841	-0.506081
C65	C	1.909039	-0.251845	-0.506090
C66	C	1.518308	-0.251781	-0.780094
C67	C	1.518342	-0.251760	-0.896870
C68	C	1.518407	-0.115460	-0.506166
C69	C	1.518482	-0.057346	-0.506211
C70	C	1.652818	-0.184894	-0.896952
C71	C	1.720071	-0.151453	-0.951854
C72	C	1.720096	-0.151434	-1.061576
C73	C	1.652860	-0.184858	-1.116398
C74	C	1.585607	-0.218299	-1.061496
C75	C	1.585591	-0.218316	-0.951772
C76	C	1.451128	-0.285161	-1.061414
C77	C	1.451106	-0.285184	-0.951693
C78	C	1.383891	-0.318585	-1.116237
C79	C	1.316642	-0.352029	-1.061335
C80	C	1.316620	-0.352048	-0.951607
C81	C	1.383853	-0.318624	-0.896791
C82	C	1.518210	-0.251846	-0.233092
C83	C	1.518380	-0.251721	-0.116316
H84	H	0.819835	-0.185046	-0.640738
N85	N	1.132521	-0.388044	-0.231466
H86	H	1.081078	-0.409203	-0.188820
H87	H	1.178043	-0.412264	-0.274129
H88	H	1.396283	-0.450971	-0.383971
N89	N	1.652870	-0.184841	-1.234740
H90	H	1.580812	-0.175222	-1.261153
H91	H	1.705715	-0.158589	-1.261128
N92	N	1.383893	-0.318556	-1.234579
H93	H	1.436695	-0.292299	-1.261042
H94	H	1.403115	-0.354437	-1.260912
H95	H	1.217692	-0.318625	-0.371405
N96	N	1.652804	-0.184922	-0.778611
H97	H	1.705603	-0.158676	-0.752212
H98	H	1.580708	-0.175325	-0.752253
N99	N	1.311500	-0.694996	-0.299071
H100	H	1.262777	-0.672341	-0.341713
H101	H	1.269044	-0.720649	-0.256494
H102	H	1.261898	-0.379238	-1.105980
H103	H	0.918976	-0.379239	-0.249301
H104	H	1.640010	-0.549804	-0.628056
N105	N	1.133076	-0.115625	-0.780645
H106	H	1.210897	-0.120692	-0.770417
H107	H	1.113926	-0.123818	-0.855645
H108	H	1.261843	-0.379273	-0.906912
H109	H	1.383846	-0.318638	-0.807450
N110	N	1.792636	-0.115366	-1.120788
H111	H	1.841299	-0.136611	-1.166301
H112	H	1.749910	-0.091133	-1.166266
H113	H	1.640267	-0.953099	-0.628191
N114	N	0.905013	-0.115632	-0.780676
H115	H	0.859495	-0.136910	-0.829288
H116	H	0.859550	-0.091386	-0.738009
N117	N	1.246963	-0.185041	-0.640740
H118	H	1.273443	-0.149163	-0.621586
H119	H	1.273282	-0.211289	-0.587897
N120	N	0.790563	-0.318644	-0.371466
H121	H	0.764167	-0.328298	-0.443507
H122	H	0.764157	-0.344866	-0.318563
H123	H	1.640318	-1.052165	-0.628220
H124	H	1.707316	-0.800915	-0.695393
N125	N	1.657709	-0.443518	-0.645759
H126	H	1.700260	-0.469063	-0.688371
H127	H	1.614906	-0.420858	-0.694333
N128	N	1.724998	-0.694633	-0.713128
H129	H	1.800079	-0.704112	-0.696888
H130	H	1.708545	-0.704125	-0.788149
N131	N	1.378911	-1.059610	-0.366410
H132	H	1.336360	-1.034063	-0.323802
H133	H	1.330275	-1.082266	-0.409135
N134	N	1.792614	-0.115417	-0.892727
H135	H	1.782408	-0.120507	-0.814887
H136	H	1.867628	-0.123574	-0.911929
N137	N	1.378821	-0.946122	-0.366385
H138	H	1.336305	-0.971747	-0.323792
H139	H	1.421599	-0.923471	-0.317794
H140	H	1.396338	-0.550037	-0.384002
N141	N	1.311559	-0.808485	-0.299105
H142	H	1.269005	-0.782936	-0.256506
H143	H	1.262927	-0.831141	-0.341835
