data_functionalizedCrystal
_audit_creation_method	'MofGen! by Chris Wilmer'
_symmetry_space_group_name_H-M	'P1'
_symmetry_Int_Tables_number	1
_symmetry_cell_setting	triclinic
loop_
_symmetry_equiv_pos_as_xyz
  x,y,z
_cell_length_a	17.077402
_cell_length_b	17.077404
_cell_length_c	17.077396
_cell_angle_alpha	89.979055
_cell_angle_beta	90.029784
_cell_angle_gamma	89.983638
loop_
_atom_site_label
_atom_site_type_symbol
_atom_site_fract_x
_atom_site_fract_y
_atom_site_fract_z
Zn1	Zn	-0.312645	-1.200055	0.443866
Zn2	Zn	0.187355	-0.700055	0.943866
Zn3	Zn	-0.443920	-1.199962	0.312597
Zn4	Zn	0.056080	-0.699962	0.812597
Zn5	Zn	-0.312657	-1.068786	0.312610
Zn6	Zn	0.187343	-0.568786	0.812610
Zn7	Zn	-0.443858	-1.068754	0.443817
Zn8	Zn	0.056142	-0.568754	0.943817
O9	O	-0.378270	-1.134389	0.378223
O10	O	0.121730	-0.634389	0.878223
O11	O	-0.330079	-1.309889	0.426467
O12	O	0.169921	-0.809889	0.926467
O13	O	-0.426538	-1.182536	0.202752
O14	O	0.073462	-0.682536	0.702752
O15	O	-0.202808	-1.086252	0.330048
O16	O	0.297192	-0.586252	0.830048
O17	O	-0.426527	-1.309821	0.330025
O18	O	0.073473	-0.809821	0.830025
O19	O	-0.202799	-1.182694	0.426481
O20	O	0.297201	-0.682694	0.926481
O21	O	-0.330100	-1.086162	0.202762
O22	O	0.169900	-0.586162	0.702762
O23	O	-0.330040	-0.958935	0.330001
O24	O	0.169960	-0.458935	0.830001
O25	O	-0.426421	-1.086197	0.553671
O26	O	0.073579	-0.586197	1.053671
O27	O	-0.426433	-0.958912	0.426398
O28	O	0.073567	-0.458912	0.926398
O29	O	-0.330019	-1.182663	0.553706
O30	O	0.169981	-0.682663	1.053706
O31	O	-0.553758	-1.182504	0.329977
O32	O	-0.053758	-0.682504	0.829977
O33	O	-0.553713	-1.086107	0.426384
O34	O	-0.053713	-0.586107	0.926384
C35	C	-0.378231	-0.930441	0.378196
C36	C	0.121769	-0.430441	0.878196
C37	C	-0.378234	-0.843192	0.378203
C38	C	0.121766	-0.343192	0.878203
C39	C	-0.428551	-0.467386	0.428346
C40	C	0.071449	0.032614	0.928346
C41	C	-0.428544	-0.549366	0.428336
C42	C	0.071456	-0.049366	0.928336
C43	C	-0.378272	-0.590343	0.378224
C44	C	0.121728	-0.090343	0.878224
C45	C	-0.328011	-0.549335	0.328113
C46	C	0.171989	-0.049335	0.828113
C47	C	-0.328023	-0.467356	0.328120
C48	C	0.171977	0.032644	0.828120
C49	C	-0.327988	-0.720205	0.328104
C50	C	0.172012	-0.220205	0.828104
C51	C	-0.327974	-0.802189	0.328098
C52	C	0.172026	-0.302189	0.828098
C53	C	-0.428509	-0.802215	0.428320
C54	C	0.071491	-0.302215	0.928320
C55	C	-0.428521	-0.720236	0.428327
C56	C	0.071479	-0.220236	0.928327
C57	C	-0.378258	-0.679234	0.378217
C58	C	0.121742	-0.179234	0.878217
C59	C	-0.582218	-1.134314	0.378191
C60	C	-0.082218	-0.634314	0.878191
C61	C	-0.669467	-1.134353	0.378204
C62	C	-0.169467	-0.634353	0.878204
C63	C	-0.710455	-1.184598	0.328059
C64	C	-0.210455	-0.684598	0.828059
C65	C	-0.792436	-1.184637	0.328079
C66	C	-0.292436	-0.684637	0.828079
C67	C	-0.833427	-1.134425	0.378241
C68	C	-0.333427	-0.634425	0.878241
C69	C	-0.792433	-1.084178	0.428391
C70	C	-0.292433	-0.584178	0.928391
C71	C	-0.710454	-1.084144	0.428375
C72	C	-0.210454	-0.584144	0.928375
C73	C	-0.963303	-1.084250	0.428421
C74	C	-0.463303	-0.584250	0.928421
C75	C	-1.045288	-1.084283	0.428437
C76	C	-0.545288	-0.584283	0.928437
C77	C	-1.045285	-1.184743	0.328125
C78	C	-0.545285	-0.684743	0.828125
C79	C	-0.963306	-1.184709	0.328109
C80	C	-0.463306	-0.684709	0.828109
C81	C	-0.922318	-1.134461	0.378259
C82	C	-0.422318	-0.634461	0.878259
C83	C	-0.173525	-1.134487	0.378271
C84	C	0.326475	-0.634487	0.878271
C85	C	-0.086276	-1.134528	0.378292
C86	C	0.413724	-0.634528	0.878292
C87	C	-0.378212	-1.134437	0.582967
C88	C	0.121788	-0.634437	1.082967
C89	C	-0.378187	-1.134457	0.670217
C90	C	0.121813	-0.634457	1.170217
C91	C	-0.378300	-0.339134	0.378245
C92	C	0.121700	0.160866	0.878245
C93	C	-0.378292	-0.426383	0.378241
C94	C	0.121708	0.073617	0.878241
C95	C	-0.378271	-1.134387	0.174275
C96	C	0.121729	-0.634387	0.674275
C97	C	-0.378074	-1.134519	0.087025
C98	C	0.121926	-0.634519	0.587025
C99	C	-0.327987	-1.184689	0.711227
C100	C	0.172013	-0.684689	1.211227
C101	C	-0.327961	-1.184698	0.793207
C102	C	0.172039	-0.684698	1.293207
C103	C	-0.378139	-1.134479	0.834176
C104	C	0.121861	-0.634479	1.334176
C105	C	-0.428342	-1.084242	0.793160
C106	C	0.071658	-0.584242	1.293160
C107	C	-0.428364	-1.084229	0.711181
C108	C	0.071636	-0.584229	1.211181
C109	C	-0.428295	-1.084274	0.964031
C110	C	0.071705	-0.584274	1.464031
C111	C	-0.428275	-1.084288	1.046015
C112	C	0.071725	-0.584288	1.546015
C113	C	-0.327892	-1.184742	1.046056
C114	C	0.172108	-0.684742	1.546056
C115	C	-0.327913	-1.184730	0.964077
C116	C	0.172087	-0.684730	1.464077
C117	C	-0.378117	-1.134493	0.923067
C118	C	0.121883	-0.634493	1.423067
H119	H	-0.287031	-0.835551	0.287300
H120	H	0.212969	-0.335551	0.787300
H121	H	-0.287128	-1.225585	0.677876
H122	H	0.212872	-0.725585	1.177876
H123	H	-0.287084	-1.225603	0.826594
H124	H	0.212916	-0.725603	1.326594
F125	F	-1.088907	-1.238216	0.274746
F126	F	-0.588907	-0.738216	0.774746
H127	H	-0.469196	-1.043350	0.826524
H128	H	0.030804	-0.543350	1.326524
H129	H	-0.469484	-0.434028	0.469158
H130	H	0.030516	0.065972	0.969158
F131	F	-0.274496	-0.676569	0.274767
F132	F	0.225504	-0.176569	0.774767
H133	H	-0.287013	-1.225645	1.079451
H134	H	0.212987	-0.725645	1.579451
F135	F	-0.836054	-1.238117	0.274710
F136	F	-0.336054	-0.738117	0.774710
F137	F	-0.481726	-1.030805	0.920386
F138	F	0.018274	-0.530805	1.420386
H139	H	-0.287082	-0.582705	0.287307
H140	H	0.212918	-0.082705	0.787307
H141	H	-0.287058	-1.225626	0.930723
H142	H	0.212942	-0.725626	1.430723
F143	F	-0.481792	-1.030764	0.667536
F144	F	0.018208	-0.530764	1.167536
H145	H	-0.287094	-0.433973	0.287321
H146	H	0.212906	0.066027	0.787321
H147	H	-0.469472	-0.582746	0.469135
H148	H	0.030528	-0.082746	0.969135
F149	F	-0.666837	-1.238037	0.274664
F150	F	-0.166837	-0.738037	0.774664
H151	H	-0.469433	-0.835603	0.469123
H152	H	0.030567	-0.335603	0.969123
F153	F	-0.482021	-0.676627	0.481666
F154	F	0.017979	-0.176627	0.981666
H155	H	-0.929931	-1.225591	0.287259
H156	H	-0.429931	-0.725591	0.787259
F157	F	-0.481674	-1.030833	1.089616
F158	F	0.018326	-0.530833	1.589616
H159	H	-1.078661	-1.043411	0.469298
H160	H	-0.578661	-0.543411	0.969298
H161	H	-0.929933	-1.043335	0.469261
H162	H	-0.429933	-0.543335	0.969261
H163	H	-0.825815	-1.043298	0.469238
H164	H	-0.325815	-0.543298	0.969238
H165	H	-0.677083	-1.043230	0.469209
H166	H	-0.177083	-0.543230	0.969209
