data_functionalizedCrystal
_audit_creation_method	'MofGen! by Chris Wilmer'
_symmetry_space_group_name_H-M	'P1'
_symmetry_Int_Tables_number	1
_symmetry_cell_setting	triclinic
loop_
_symmetry_equiv_pos_as_xyz
  x,y,z
_cell_length_a	6.394989
_cell_length_b	10.654550
_cell_length_c	9.730223
_cell_angle_alpha	89.995798
_cell_angle_beta	89.997621
_cell_angle_gamma	85.491307
loop_
_atom_site_label
_atom_site_type_symbol
_atom_site_fract_x
_atom_site_fract_y
_atom_site_fract_z
O1	O	-0.293444	-1.670942	0.114394
O2	O	-0.321402	-1.305760	0.114371
O3	O	-0.003434	-1.493534	0.114383
O4	O	-0.611412	-1.483167	0.114381
O5	O	-0.003418	-1.493532	-0.114197
O6	O	-0.321386	-1.305757	-0.114209
O7	O	-0.293429	-1.670939	-0.114186
Zn8	Zn	-0.307405	-1.488348	-0.150490
Zn9	Zn	-0.307425	-1.488351	0.150674
O10	O	-0.611396	-1.483165	-0.114199
C11	C	-0.319341	-1.258939	0.000078
C12	C	-0.313199	-1.119430	0.000069
N13	N	-0.307424	-1.488354	0.356210
C14	C	-0.295489	-1.717760	0.000109
C15	C	-0.301631	-1.857269	0.000127
C16	C	0.074425	-1.491483	0.000098
C17	C	0.310751	-1.485219	0.000099
N18	N	-0.307389	-1.488355	-0.356026
C19	C	-0.500414	-1.041927	0.000089
C20	C	-0.494630	-0.910845	0.000112
C21	C	-0.114402	-0.934782	0.000103
C22	C	-0.120188	-1.065861	0.000070
C23	C	-0.719936	-1.028107	0.000100
C24	C	-0.714152	-0.897025	0.000124
C25	C	-0.166905	-1.571663	0.428142
C26	C	-0.166892	-1.571667	0.572025
C27	C	-0.447924	-1.405042	0.572032
C28	C	-0.447945	-1.405045	0.428152
C29	C	-0.004647	-1.667859	0.428139
C30	C	-0.004634	-1.667862	0.572022
H31	H	0.032261	-1.128960	0.000034
H32	H	-0.562385	-1.337220	0.369586
H33	H	-0.805784	-1.058346	-0.095566
O34	O	-0.599439	-1.315163	0.649623
H35	H	-0.575802	-1.329143	0.761758
H36	H	0.147198	-1.635904	0.383494
H37	H	-0.789842	-1.064504	0.098787
H38	H	0.156050	-1.644891	0.611055
O39	O	-0.823727	-0.842888	0.126833
H40	H	-0.881934	-0.920340	0.188857
O41	O	-0.072345	-1.789285	0.631156
H42	H	-0.233797	-1.803619	0.595884
O43	O	0.093771	-0.877006	0.000110
H44	H	0.066346	-0.772837	0.000141
H45	H	-0.780488	-0.852055	-0.098561
O46	O	-0.052478	-1.796121	0.376417
H47	H	-0.075900	-1.858911	0.465203
