data_functionalizedCrystal
_audit_creation_method	'MofGen! by Chris Wilmer'
_symmetry_space_group_name_H-M	'P1'
_symmetry_Int_Tables_number	1
_symmetry_cell_setting	triclinic
loop_
_symmetry_equiv_pos_as_xyz
  x,y,z
_cell_length_a	15.297475
_cell_length_b	16.120484
_cell_length_c	15.296720
_cell_angle_alpha	101.986518
_cell_angle_beta	91.617114
_cell_angle_gamma	83.687474
loop_
_atom_site_label
_atom_site_type_symbol
_atom_site_fract_x
_atom_site_fract_y
_atom_site_fract_z
Zn1	Zn	1.212936	-0.646916	-0.755054
Zn2	Zn	1.230712	-0.766607	-0.613834
Zn3	Zn	1.094735	-0.600220	-0.581241
Zn4	Zn	1.059450	-0.758436	-0.734603
O5	O	1.149458	-0.693045	-0.671183
O6	O	1.336436	-0.685755	-0.758520
O7	O	1.234881	-0.728412	-0.486227
O8	O	1.117742	-0.490110	-0.599215
O9	O	1.349496	-0.773691	-0.654766
O10	O	1.204584	-0.524417	-0.726915
O11	O	1.134979	-0.606169	-0.462280
O12	O	0.968913	-0.598246	-0.579385
O13	O	1.057604	-0.759766	-0.860600
O14	O	0.942989	-0.714486	-0.692060
O15	O	1.170370	-0.677833	-0.875625
O16	O	1.200666	-0.881827	-0.634936
O17	O	1.074840	-0.875825	-0.723665
C18	C	0.924540	-0.650413	-0.629967
C19	C	0.828314	-0.632198	-0.612357
C20	C	0.503218	-0.823238	-0.797050
C21	C	0.593627	-0.840358	-0.813594
C22	C	0.652303	-0.788320	-0.763286
C23	C	0.620561	-0.719158	-0.696432
C24	C	0.530143	-0.702040	-0.679882
C25	C	0.679229	-0.667122	-0.646118
C26	C	0.647487	-0.597960	-0.579263
C27	C	0.557078	-0.580845	-0.562717
C28	C	0.498402	-0.632884	-0.613024
C29	C	0.769646	-0.684239	-0.662668
C30	C	0.796572	-0.563041	-0.545499
C31	C	0.706162	-0.545921	-0.528956
C32	C	1.135873	-0.908989	-0.680642
C33	C	1.130135	-1.001390	-0.684732
C34	C	1.119661	-1.170572	-0.692219
C35	C	1.179408	-1.214709	-0.650189
C36	C	1.173580	-1.308847	-0.654355
C37	C	1.125488	-1.076425	-0.688054
C38	C	1.375255	-0.735844	-0.712560
C39	C	1.471476	-0.754082	-0.730193
C40	C	1.108068	-0.723097	-0.900972
C41	C	1.090430	-0.735903	-0.998895
C42	C	1.163116	-0.476264	-0.661711
C43	C	1.168937	-0.383885	-0.657674
C44	C	1.275562	-0.601377	-1.306214
C45	C	1.292140	-0.589347	-1.214212
C46	C	1.241714	-0.625985	-1.160378
C47	C	1.174707	-0.674655	-1.198556
C48	C	1.158133	-0.686691	-1.290568
C49	C	1.124284	-0.711299	-1.144732
C50	C	1.057278	-0.759969	-1.182909
C51	C	1.040706	-0.772003	-1.274912
C52	C	1.091132	-0.735365	-1.328746
C53	C	1.140858	-0.699263	-1.052720
C54	C	1.023429	-0.784577	-1.037073
C55	C	1.006852	-0.796607	-1.129075
C56	C	1.190741	-0.663059	-0.442294
C57	C	1.208562	-0.650051	-0.344393
H58	H	0.680305	-0.489610	-0.474522
C59	C	1.080256	-1.281513	-0.812721
C60	C	1.044701	-1.214997	-0.745009
H61	H	1.033977	-1.308948	-0.845303
H62	H	1.113913	-1.259140	-0.851891
H63	H	1.116982	-1.321567	-0.786888
H64	H	1.007980	-1.174939	-0.770843
H65	H	1.011029	-1.237369	-0.705833
H66	H	0.986152	-0.811641	-1.305994
C67	C	1.250187	-1.176321	-0.507618
C68	C	1.254367	-1.170286	-0.597380
H69	H	1.296464	-1.148897	-0.475018
H70	H	1.195225	-1.149484	-0.483420
H71	H	1.256054	-1.234677	-0.503541
H72	H	1.248494	-1.111929	-0.601458
H73	H	1.309343	-1.197120	-0.621584
C74	C	0.720264	-0.920407	-0.890984
C75	C	0.628517	-0.916370	-0.887083
H76	H	0.741802	-0.967338	-0.936355
H77	H	0.736244	-0.869090	-0.904239
H78	H	0.744970	-0.927546	-0.835006
H79	H	0.603811	-0.909225	-0.943059
H80	H	0.612529	-0.967700	-0.873833
H81	H	1.077639	-0.745157	-1.403662
C82	C	0.445984	-0.878168	-0.942846
C83	C	0.438719	-0.880427	-0.852345
H84	H	0.406165	-0.913479	-0.976985
H85	H	0.432339	-0.821239	-0.950667
H86	H	0.504373	-0.898267	-0.962265
H87	H	0.380331	-0.860322	-0.832924
H88	H	0.452358	-0.937368	-0.844519
H89	H	0.952294	-0.836234	-1.160172
H90	H	1.195415	-0.659634	-1.021645
C91	C	0.996685	-0.804003	-0.889087
C92	C	0.967992	-0.824850	-0.977906
H93	H	0.962460	-0.828862	-0.852557
H94	H	1.056791	-0.825221	-0.885202
H95	H	0.990248	-0.743785	-0.869260
H96	H	0.974435	-0.885068	-0.997735
H97	H	0.907871	-0.803636	-0.981795
C98	C	0.947120	-0.535458	-0.518846
C99	C	0.861060	-0.505832	-0.490198
H100	H	0.986934	-0.500139	-0.484709
H101	H	0.960764	-0.592382	-0.511009
H102	H	0.952029	-0.533929	-0.580246
H103	H	0.856149	-0.507366	-0.428798
H104	H	0.847412	-0.448893	-0.498026
H105	H	0.424782	-0.618947	-0.599559
C106	C	1.329384	-0.562294	-1.037104
C107	C	1.259927	-0.612754	-1.059246
H108	H	1.340623	-0.554119	-0.974665
H109	H	1.380586	-0.589985	-1.068775
H110	H	1.314041	-0.508550	-1.052843
H111	H	1.275273	-0.666500	-1.043513
H112	H	1.208715	-0.585064	-1.027564
H113	H	1.346698	-0.549722	-1.183136
H114	H	0.725918	-0.802263	-0.776760
C115	C	0.768091	-0.749716	-0.818656
C116	C	0.804532	-0.760252	-0.736157
H117	H	0.789633	-0.796643	-0.864029
H118	H	0.705857	-0.746972	-0.815993
H119	H	0.784085	-0.698392	-0.831903
H120	H	0.788533	-0.811573	-0.722908
H121	H	0.866780	-0.763005	-0.738820
C122	C	0.558670	-0.515378	-0.406725
C123	C	0.522209	-0.504828	-0.489212
H124	H	0.537154	-0.468446	-0.361345
H125	H	0.542673	-0.566691	-0.393475
H126	H	0.620913	-0.518138	-0.409410
H127	H	0.459966	-0.502075	-0.486528
H128	H	0.538201	-0.453502	-0.502464
C129	C	1.302290	-0.581960	-1.454207
C130	C	1.330988	-0.561113	-1.365389
H131	H	1.336510	-0.557097	-1.490738
H132	H	1.308724	-0.642169	-1.474033
H133	H	1.242176	-0.560736	-1.458087
H134	H	1.391101	-0.582342	-1.361509
H135	H	1.324562	-0.500891	-1.345558
