data_functionalizedCrystal
_audit_creation_method	'MofGen! by Chris Wilmer'
_symmetry_space_group_name_H-M	'P1'
_symmetry_Int_Tables_number	1
_symmetry_cell_setting	triclinic
loop_
_symmetry_equiv_pos_as_xyz
  x,y,z
_cell_length_a	14.519731
_cell_length_b	14.519731
_cell_length_c	14.048226
_cell_angle_alpha	90.004594
_cell_angle_beta	89.994041
_cell_angle_gamma	96.311147
loop_
_atom_site_label
_atom_site_type_symbol
_atom_site_fract_x
_atom_site_fract_y
_atom_site_fract_z
O1	O	-1.223865	0.120982	0.079187
O2	O	-0.890532	0.454315	0.412521
O3	O	-0.557199	0.787649	0.745854
O4	O	-0.955392	0.135198	0.079184
O5	O	-0.622059	0.468531	0.412517
O6	O	-0.288725	0.801865	0.745851
O7	O	-1.096737	-0.006147	0.079177
O8	O	-0.763403	0.327187	0.412510
O9	O	-0.430070	0.660520	0.745844
O10	O	-1.082521	0.262327	0.079194
O11	O	-0.749187	0.595660	0.412528
O12	O	-0.415854	0.928993	0.745861
O13	O	-1.096723	-0.006148	-0.079144
O14	O	-0.763390	0.327185	0.254189
O15	O	-0.430056	0.660519	0.587522
O16	O	-0.955379	0.135197	-0.079137
O17	O	-0.622045	0.468530	0.254196
O18	O	-0.288712	0.801863	0.587529
O19	O	-1.223852	0.120981	-0.079134
O20	O	-0.890518	0.454314	0.254199
O21	O	-0.557185	0.787647	0.587533
Zn22	Zn	-1.089613	0.128089	-0.104273
Zn23	Zn	-0.756280	0.461422	0.229061
Zn24	Zn	-0.422946	0.794755	0.562394
Zn25	Zn	-1.089631	0.128090	0.104323
Zn26	Zn	-0.756298	0.461423	0.437656
Zn27	Zn	-0.422964	0.794757	0.770989
O28	O	-1.082507	0.262325	-0.079127
O29	O	-0.749174	0.595659	0.254206
O30	O	-0.415841	0.928992	0.587540
C31	C	-0.921026	0.134531	0.000023
C32	C	-0.587693	0.467864	0.333356
C33	C	-0.254359	0.801198	0.666690
C34	C	-0.818645	0.132535	0.000021
C35	C	-0.485312	0.465868	0.333355
C36	C	-0.151979	0.799202	0.666688
C37	C	-1.096064	-0.040507	0.000016
C38	C	-0.762730	0.292827	0.333350
C39	C	-0.429397	0.626160	0.666683
C40	C	-1.094068	-0.142887	0.000016
C41	C	-0.760734	0.190446	0.333349
C42	C	-0.427401	0.523780	0.666682
C43	C	-0.735501	0.130913	0.000024
C44	C	-0.402168	0.464247	0.333357
C45	C	-0.068835	0.797580	0.666690
C46	C	-0.631192	0.128887	0.000022
C47	C	-0.297859	0.462220	0.333355
C48	C	0.035474	0.795553	0.666689
C49	C	-0.548053	0.127278	0.000020
C50	C	-0.214720	0.460612	0.333354
C51	C	0.118614	0.793945	0.666687
C52	C	-0.443738	0.125252	0.000020
C53	C	-0.110404	0.458585	0.333354
C54	C	0.222929	0.791919	0.666687
C55	C	-1.092446	-0.226031	0.000018
C56	C	-0.759113	0.107302	0.333351
C57	C	-0.425779	0.440635	0.666684
C58	C	-1.090419	-0.330340	0.000025
C59	C	-0.757086	0.002993	0.333358
C60	C	-0.423753	0.336326	0.666692
C61	C	-1.088811	-0.413479	0.000031
C62	C	-0.755478	-0.080146	0.333365
C63	C	-0.422144	0.253187	0.666698
C64	C	-1.086785	-0.517795	0.000037
C65	C	-0.753451	-0.184462	0.333370
C66	C	-0.420118	0.148872	0.666703
C67	C	-0.258218	0.121648	0.000025
C68	C	0.075115	0.454981	0.333358
C69	C	0.408449	0.788314	0.666691
C70	C	-0.360598	0.123643	0.000019
C71	C	-0.027265	0.456977	0.333352
C72	C	0.306068	0.790310	0.666685
C73	C	-1.083180	0.296685	0.000036
C74	C	-0.749847	0.630019	0.333369
C75	C	-0.416513	0.963352	0.666703
C76	C	-1.085176	0.399066	0.000043
C77	C	-0.751843	0.732399	0.333376
C78	C	-0.418509	1.065732	0.666709
N79	N	-1.089608	0.128087	-0.246633
N80	N	-0.756274	0.461420	0.086700
N81	N	-0.422941	0.794754	0.420033
C82	C	-1.145632	0.184151	-0.296443
C83	C	-0.812299	0.517485	0.036891
C84	C	-0.478966	0.850818	0.370224
C85	C	-1.145644	0.184147	-0.396100
C86	C	-0.812311	0.517481	-0.062767
C87	C	-0.478978	0.850814	0.270566
C88	C	-1.089626	0.128083	-0.445947
C89	C	-0.756292	0.461417	-0.112613
C90	C	-0.422959	0.794750	0.220720
C91	C	-1.033599	0.072012	-0.396130
C92	C	-0.700265	0.405346	-0.062797
C93	C	-0.366932	0.738679	0.270536
C94	C	-1.033593	0.072012	-0.296475
C95	C	-0.700259	0.405345	0.036859
C96	C	-0.366926	0.738679	0.370192
C97	C	-1.033614	0.072019	-0.603845
C98	C	-0.700281	0.405352	-0.270511
C99	C	-0.366947	0.738685	0.062822
C100	C	-1.033619	0.072020	-0.703507
C101	C	-0.700286	0.405353	-0.370174
C102	C	-0.366952	0.738687	-0.036841
C103	C	-1.145666	0.184154	-0.703470
C104	C	-0.812332	0.517487	-0.370137
C105	C	-0.478999	0.850821	-0.036804
C106	C	-1.145660	0.184154	-0.603815
C107	C	-0.812326	0.517487	-0.270481
C108	C	-0.478993	0.850820	0.062852
C109	C	-1.089631	0.128084	-0.554005
C110	C	-0.756298	0.461417	-0.220672
C111	C	-0.422964	0.794751	0.112662
N112	N	-1.089644	0.128084	0.246683
N113	N	-0.756310	0.461418	0.580017
N114	N	-0.422977	0.794751	0.913350
H115	H	-1.191244	0.229811	-0.255865
H116	H	-0.857910	0.563144	0.077468
H117	H	-0.524577	0.896478	0.410802
F118	F	-0.973995	0.012330	-0.550836
F119	F	-0.640661	0.345663	-0.217503
F120	F	-0.307328	0.678996	0.115831
F121	F	-0.974002	0.012346	-0.756556
F122	F	-0.640669	0.345679	-0.423222
F123	F	-0.307335	0.679013	-0.089889
F124	F	-0.973982	0.012342	-0.449183
F125	F	-0.640648	0.345675	-0.115850
F126	F	-0.307315	0.679009	0.217483
F127	F	-1.205299	0.243825	-0.756482
F128	F	-0.871966	0.577158	-0.423149
F129	F	-0.538632	0.910492	-0.089815
F130	F	-0.973971	0.012333	-0.243464
F131	F	-0.640638	0.345666	0.089869
F132	F	-0.307304	0.678999	0.423203
H133	H	-1.191270	0.229811	-0.563232
H134	H	-0.857937	0.563144	-0.229899
H135	H	-0.524604	0.896477	0.103434
F136	F	-1.205272	0.243820	-0.449107
F137	F	-0.871939	0.577154	-0.115774
F138	F	-0.538606	0.910487	0.217560
