data_functionalizedCrystal
_audit_creation_method	'MofGen! by Chris Wilmer'
_symmetry_space_group_name_H-M	'P1'
_symmetry_Int_Tables_number	1
_symmetry_cell_setting	triclinic
loop_
_symmetry_equiv_pos_as_xyz
  x,y,z
_cell_length_a	23.532407
_cell_length_b	27.731996
_cell_length_c	22.610064
_cell_angle_alpha	89.998076
_cell_angle_beta	89.997161
_cell_angle_gamma	82.735033
loop_
_atom_site_label
_atom_site_type_symbol
_atom_site_fract_x
_atom_site_fract_y
_atom_site_fract_z
O1	O	0.755125	0.058674	-0.049118
O2	O	1.255125	0.558674	0.450882
O3	O	0.589242	0.067164	-0.049137
O4	O	1.089242	0.567164	0.450863
O5	O	0.677351	-0.007472	-0.049114
O6	O	1.177351	0.492528	0.450886
O7	O	0.667016	0.133309	-0.049141
O8	O	1.167016	0.633309	0.450859
O9	O	0.677335	-0.007461	0.049255
O10	O	1.177335	0.492539	0.549255
O11	O	0.589226	0.067175	0.049232
O12	O	1.089226	0.567175	0.549232
O13	O	0.755110	0.058684	0.049251
O14	O	1.255110	0.558684	0.549251
Zn15	Zn	0.672166	0.062931	0.064860
Zn16	Zn	1.172166	0.562931	0.564860
Zn17	Zn	0.672186	0.062917	-0.064746
Zn18	Zn	1.172186	0.562917	0.435254
O19	O	0.667001	0.133320	0.049228
O20	O	1.167001	0.633320	0.549228
C21	C	0.568019	0.066953	0.000046
C22	C	1.068019	0.566953	0.500046
C23	C	0.504803	0.066303	0.000039
C24	C	1.004803	0.566303	0.500039
C25	C	0.677131	-0.025474	0.000072
C26	C	1.177131	0.474526	0.500072
C27	C	0.676491	-0.079131	0.000078
C28	C	1.176491	0.420869	0.500078
C29	C	0.105606	0.106394	0.000058
C30	C	0.605606	0.606394	0.500058
C31	C	0.046207	0.105790	0.000062
C32	C	0.546207	0.605790	0.500062
O33	O	0.009375	0.142955	0.000077
O34	O	0.509375	0.642955	0.500077
N35	N	0.023685	0.061419	0.000070
N36	N	0.523685	0.561419	0.500070
C37	C	0.060566	0.017649	0.000079
C38	C	0.560566	0.517649	0.500079
O39	O	0.035955	-0.020147	0.000086
O40	O	0.535955	0.479853	0.500086
C41	C	0.119963	0.018253	0.000080
C42	C	0.619963	0.518253	0.500080
C43	C	0.142482	0.062627	0.000066
C44	C	0.642482	0.562627	0.500066
C45	C	0.128124	0.150764	0.000046
C46	C	0.628124	0.650764	0.500046
C47	C	0.187519	0.151368	0.000041
C48	C	0.687519	0.651368	0.500041
C49	C	0.224395	0.107601	0.000049
C50	C	0.724395	0.607601	0.500049
C51	C	0.201876	0.063231	0.000061
C52	C	0.701876	0.563231	0.500061
C53	C	0.156843	-0.025516	0.000094
C54	C	0.656843	0.474484	0.500094
C55	C	0.216244	-0.024908	0.000095
C56	C	0.716244	0.475092	0.500095
C57	C	0.238762	0.019466	0.000081
C58	C	0.738762	0.519466	0.500081
C59	C	0.298147	0.020068	0.000065
C60	C	0.798147	0.520068	0.500065
N61	N	0.320669	0.064439	0.000057
N62	N	0.820669	0.564439	0.500057
C63	C	0.283793	0.108206	0.000049
C64	C	0.783793	0.608206	0.500049
C65	C	-0.064174	0.016383	0.000079
C66	C	0.435826	0.516383	0.500079
C67	C	-0.123570	0.015778	0.000075
C68	C	0.376430	0.515778	0.500075
C69	C	-0.137925	0.103920	0.000058
C70	C	0.362075	0.603920	0.500058
C71	C	-0.078528	0.104524	0.000059
C72	C	0.421472	0.604524	0.500059
C73	C	-0.041652	0.060754	0.000072
C74	C	0.458348	0.560754	0.500072
C75	C	0.408526	0.109470	0.000039
C76	C	0.908526	0.609470	0.500039
C77	C	0.467927	0.110070	0.000031
C78	C	0.967927	0.610070	0.500031
C79	C	0.482277	0.021929	0.000050
C80	C	0.982277	0.521929	0.500050
C81	C	0.422881	0.021329	0.000055
C82	C	0.922881	0.521329	0.500055
C83	C	0.386007	0.065103	0.000051
C84	C	0.886007	0.565103	0.500051
O85	O	0.335014	-0.017077	0.000053
O86	O	0.835014	0.482923	0.500053
O87	O	0.308412	0.145996	0.000050
O88	O	0.808412	0.645996	0.500050
C89	C	0.672477	-0.411860	-0.053572
C90	C	1.172477	0.088140	0.446428
C91	C	0.670048	-0.613522	-0.053583
C92	C	1.170048	-0.113522	0.446417
O93	O	0.669717	-0.639598	-0.099186
O94	O	1.169717	-0.139598	0.400814
N95	N	0.669738	-0.638733	0.000038
N96	N	1.169738	-0.138733	0.500038
C97	C	0.670032	-0.613526	0.053665
C98	C	1.170032	-0.113526	0.553665
O99	O	0.669706	-0.639597	0.099272
O100	O	1.169706	-0.139597	0.599272
C101	C	0.672456	-0.411864	0.053675
C102	C	1.172456	0.088136	0.553675
C103	C	0.672772	-0.386656	0.000051
C104	C	1.172772	0.113344	0.500051
C105	C	0.672792	-0.386651	-0.107192
C106	C	1.172792	0.113349	0.392808
C107	C	0.673402	-0.336239	-0.107188
C108	C	1.173402	0.163761	0.392812
C109	C	0.673697	-0.311036	-0.053566
C110	C	1.173697	0.188964	0.446434
C111	C	0.673382	-0.336244	0.000054
C112	C	1.173382	0.163756	0.500054
C113	C	0.672745	-0.386658	0.107301
C114	C	1.172745	0.113342	0.607301
C115	C	0.673350	-0.336239	0.107299
C116	C	1.173350	0.163761	0.607299
C117	C	0.673665	-0.311030	0.053675
C118	C	1.173665	0.188970	0.553675
C119	C	0.674287	-0.260628	0.053680
C120	C	1.174287	0.239372	0.553680
N121	N	0.674597	-0.235417	0.000060
N122	N	1.174597	0.264583	0.500060
C123	C	0.674302	-0.260620	-0.053563
C124	C	1.174302	0.239380	0.446437
C125	C	0.668760	-0.719401	0.053656
C126	C	1.168760	-0.219401	0.553656
C127	C	0.668155	-0.769817	0.053653
C128	C	1.168155	-0.269817	0.553653
C129	C	0.668171	-0.769809	-0.053594
C130	C	1.168171	-0.269809	0.446406
C131	C	0.668780	-0.719393	-0.053591
C132	C	1.168780	-0.219393	0.446409
C133	C	0.669070	-0.694190	0.000035
C134	C	1.169070	-0.194190	0.500035
C135	C	0.675584	-0.154751	-0.053552
C136	C	1.175584	0.345249	0.446448
C137	C	0.676197	-0.104335	-0.053545
C138	C	1.176197	0.395665	0.446455
C139	C	0.676178	-0.104347	0.053703
C140	C	1.176178	0.395653	0.553703
C141	C	0.675568	-0.154759	0.053695
C142	C	1.175568	0.345241	0.553695
C143	C	0.675269	-0.179960	0.000063
C144	C	1.175269	0.320040	0.500063
O145	O	0.674612	-0.234520	0.099259
O146	O	1.174612	0.265480	0.599259
O147	O	0.674615	-0.234539	-0.099164
O148	O	1.174615	0.265461	0.400836
C149	C	0.671867	-0.462272	-0.053575
C150	C	1.171867	0.037728	0.446425
C151	C	0.671551	-0.487480	0.000044
C152	C	1.171551	0.012520	0.500044
C153	C	0.671846	-0.462277	0.053667
C154	C	1.171846	0.037723	0.553667
C155	C	0.670946	-0.537896	0.000042
C156	C	1.170946	-0.037896	0.500042
C157	C	0.670651	-0.563099	-0.053581
C158	C	1.170651	-0.063099	0.446419
C159	C	0.670961	-0.537888	-0.107201
C160	C	1.170961	-0.037888	0.392799
C161	C	0.671572	-0.487475	-0.107198
C162	C	1.171572	0.012525	0.392802
C163	C	0.671536	-0.487488	0.107288
C164	C	1.171536	0.012512	0.607288
C165	C	0.670927	-0.537901	0.107280
C166	C	1.170927	-0.037901	0.607280
C167	C	0.670632	-0.563104	0.053657
C168	C	1.170632	-0.063104	0.553657
C169	C	0.776333	0.058895	0.000067
C170	C	1.276333	0.558895	0.500067
C171	C	0.839549	0.059545	0.000070
C172	C	1.339549	0.559545	0.500070
C173	C	0.667221	0.151323	0.000040
C174	C	1.167221	0.651323	0.500040
C175	C	0.667860	0.204980	0.000031
C176	C	1.167860	0.704980	0.500031
N177	N	0.672156	0.062941	0.153312
N178	N	1.172156	0.562941	0.653312
N179	N	0.672200	0.062904	-0.153198
N180	N	1.172200	0.562904	0.346802
C181	C	0.711202	0.029873	0.561964
C182	C	1.211202	0.529873	1.061964
C183	C	0.711205	0.029870	0.623884
C184	C	1.211205	0.529870	1.123884
O185	O	0.744380	0.001762	0.655911
O186	O	1.244380	0.501762	1.155911
N187	N	0.672186	0.062907	0.654849
N188	N	1.172186	0.562907	1.154849
C189	C	0.633157	0.095947	0.623892
C190	C	1.133157	0.595947	1.123892
O191	O	0.599967	0.124047	0.655917
O192	O	1.099967	0.624047	1.155917
C193	C	0.633151	0.095947	0.561973
C194	C	1.133151	0.595947	1.061973
C195	C	0.672178	0.062911	0.531011
C196	C	1.172178	0.562911	1.031011
C197	C	0.750225	-0.003160	0.531001
C198	C	1.250225	0.496840	1.031001
C199	C	0.750223	-0.003156	0.469085
C200	C	1.250223	0.496844	0.969085
C201	C	0.711198	0.029882	0.438132
C202	C	1.211198	0.529882	0.938132
C203	C	0.672175	0.062916	0.469095
C204	C	1.172175	0.562916	0.969095
C205	C	0.594120	0.128984	0.531017
C206	C	1.094120	0.628984	1.031017
C207	C	0.594118	0.128982	0.469094
C208	C	1.094118	0.628982	0.969094
C209	C	0.633144	0.095946	0.438132
C210	C	1.133144	0.595946	0.938132
C211	C	0.633148	0.095958	0.376227
C212	C	1.133148	0.595958	0.876227
N213	N	0.672168	0.062921	0.345261
N214	N	1.172168	0.562921	0.845261
C215	C	0.711193	0.029883	0.376214
C216	C	1.211193	0.529883	0.876214
C217	C	0.633170	0.095942	0.753926
C218	C	1.133170	0.595942	1.253926
C219	C	0.633177	0.095944	0.815843
C220	C	1.133177	0.595944	1.315843
C221	C	0.711225	0.029866	0.815831
C222	C	1.211225	0.529866	1.315831
C223	C	0.711220	0.029867	0.753912
C224	C	1.211220	0.529867	1.253912
C225	C	0.672190	0.062905	0.722960
C226	C	1.172190	0.562905	1.222960
C227	C	0.711185	0.029894	0.246186
C228	C	1.211185	0.529894	0.746186
C229	C	0.711181	0.029903	0.184265
C230	C	1.211181	0.529903	0.684265
C231	C	0.633131	0.095978	0.184283
C232	C	1.133131	0.595978	0.684283
C233	C	0.633137	0.095972	0.246199
C234	C	1.133137	0.595972	0.746199
C235	C	0.672166	0.062926	0.277149
C236	C	1.172166	0.562926	0.777149
O237	O	0.599989	0.124050	0.344160
O238	O	1.099989	0.624050	0.844160
O239	O	0.744371	0.001783	0.344182
O240	O	1.244371	0.501783	0.844182
H241	H	0.378510	0.145116	0.000037
H242	H	0.878510	0.645116	0.500037
H243	H	0.486258	0.146206	0.000020
H244	H	0.986258	0.646206	0.500020
H245	H	0.670724	-0.558417	-0.150863
H246	H	1.170724	-0.058417	0.349137
H247	H	0.672489	-0.407174	0.150968
H248	H	1.172489	0.092826	0.650968
H249	H	0.601364	0.122878	0.271409
H250	H	1.101364	0.622878	0.771409
H251	H	0.670674	-0.558421	0.150951
H252	H	1.170674	-0.058421	0.650951
O253	O	-0.145509	-0.027296	0.000159
O254	O	0.354491	0.472704	0.500159
C255	C	-0.179425	-0.030287	0.051115
C256	C	0.320575	0.469713	0.551115
H257	H	-0.194562	0.007886	0.068094
H258	H	0.305438	0.507886	0.568094
H259	H	-0.218152	-0.049368	0.039662
H260	H	0.281848	0.450632	0.539662
H261	H	-0.152989	-0.051797	0.086791
H262	H	0.347011	0.448203	0.586791
O263	O	0.401099	-0.021817	0.000086
O264	O	0.901099	0.478183	0.500086
C265	C	0.446387	-0.060317	0.000071
C266	C	0.946387	0.439683	0.500071
H267	H	0.486623	-0.046964	0.018687
H268	H	0.986623	0.453036	0.518687
H269	H	0.434249	-0.091312	0.028637
H270	H	0.934249	0.408688	0.528637
H271	H	0.454909	-0.073806	-0.047120
H272	H	0.954909	0.426194	0.452880
H273	H	0.671829	-0.466955	-0.150864
H274	H	1.171829	0.033045	0.349136
H275	H	0.669036	-0.698872	-0.097257
H276	H	1.169036	-0.198872	0.402743
O277	O	0.595244	0.128022	0.154118
O278	O	1.095244	0.628022	0.654118
C279	C	0.603622	0.120943	0.092829
C280	C	1.103622	0.620943	0.592829
H281	H	0.625263	0.082420	0.084376
H282	H	1.125263	0.582420	0.584376
H283	H	0.560445	0.126500	0.069298
H284	H	1.060445	0.626500	0.569298
H285	H	0.631931	0.148185	0.075252
H286	H	1.131931	0.648185	0.575252
H287	H	0.138520	-0.061650	0.000105
H288	H	0.638520	0.438350	0.500105
O289	O	0.209294	0.194516	0.000061
O290	O	0.709294	0.694516	0.500061
C291	C	0.164000	0.233010	0.000042
C292	C	0.664000	0.733010	0.500042
H293	H	0.123766	0.219654	0.018666
H294	H	0.623766	0.719654	0.518666
H295	H	0.176132	0.264010	0.028599
H296	H	0.676132	0.764010	0.528599
H297	H	0.155476	0.246494	-0.047152
H298	H	0.655476	0.746494	0.452848
O299	O	0.518185	-0.020540	0.000086
O300	O	1.018185	0.479460	0.500086
C301	C	0.575437	-0.010486	0.000068
C302	C	1.075437	0.489514	0.500068
H303	H	0.577372	0.027476	0.018678
H304	H	1.077372	0.527476	0.518678
H305	H	0.602598	-0.038392	0.028637
H306	H	1.102598	0.461608	0.528637
H307	H	0.592637	-0.012412	-0.047124
H308	H	1.092637	0.487588	0.452876
H309	H	0.668999	-0.698886	0.097327
H310	H	1.168999	-0.198886	0.597327
O311	O	0.252041	-0.067440	-0.000001
O312	O	0.752041	0.432560	0.499999
C313	C	0.241882	-0.094409	-0.050932
C314	C	0.741882	0.405591	0.449068
H315	H	0.221354	-0.068793	-0.086545
H316	H	0.721354	0.431207	0.413455
H317	H	0.284199	-0.114006	-0.068032
H318	H	0.784199	0.385994	0.431968
H319	H	0.211878	-0.122235	-0.039405
H320	H	0.711878	0.377765	0.460595
O321	O	0.092284	0.193270	0.000139
O322	O	0.592284	0.693270	0.500139
C323	C	0.057477	0.195570	0.051073
C324	C	0.557477	0.695570	0.551073
H325	H	0.079440	0.170749	0.086693
H326	H	0.579440	0.670749	0.586693
H327	H	0.050460	0.234545	0.068159
H328	H	0.550460	0.734545	0.568159
H329	H	0.014388	0.183277	0.039555
H330	H	0.514388	0.683277	0.539555
H331	H	0.675338	-0.175263	-0.097225
H332	H	1.175338	0.324737	0.402775
O333	O	-0.056751	0.147671	0.000076
O334	O	0.443249	0.647671	0.500076
C335	C	-0.102043	0.186167	0.000051
C336	C	0.397957	0.686167	0.500051
H337	H	-0.142278	0.172815	0.018675
H338	H	0.357722	0.672815	0.518675
H339	H	-0.089910	0.217169	0.028605
H340	H	0.410090	0.717169	0.528605
H341	H	-0.110563	0.199647	-0.047145
H342	H	0.389437	0.699647	0.452855
O343	O	-0.173834	0.146392	0.000080
O344	O	0.326166	0.646392	0.500080
C345	C	-0.231086	0.136338	0.000069
C346	C	0.268914	0.636338	0.500069
H347	H	-0.233023	0.098382	0.018699
H348	H	0.266977	0.598382	0.518699
H349	H	-0.258250	0.164253	0.028623
H350	H	0.241750	0.664253	0.528623
H351	H	-0.248281	0.138249	-0.047124
H352	H	0.251719	0.638249	0.452876
O353	O	-0.028435	-0.026182	0.000056
O354	O	0.471565	0.473818	0.500056
C355	C	-0.061057	-0.065470	0.000076
C356	C	0.438943	0.434530	0.500076
H357	H	-0.105501	-0.052977	-0.018547
H358	H	0.394499	0.447023	0.481453
H359	H	-0.038878	-0.096121	-0.028480
H360	H	0.461122	0.403879	0.471520
H361	H	-0.065170	-0.079082	0.047271
H362	H	0.434830	0.420918	0.547271
H363	H	0.676455	-0.083813	-0.097214
H364	H	1.176455	0.416187	0.402786
O365	O	0.673676	-0.311826	-0.159332
O366	O	1.173676	0.188174	0.340668
C367	C	0.673297	-0.344892	-0.206655
C368	C	1.173297	0.155108	0.293345
H369	H	0.654828	-0.378740	-0.190929
H370	H	1.154828	0.121260	0.309071
H371	H	0.645814	-0.327126	-0.244162
H372	H	1.145814	0.172874	0.255838
H373	H	0.718942	-0.355548	-0.223141
H374	H	1.218942	0.144452	0.276859
H375	H	0.782004	-0.030066	0.556197
H376	H	1.282004	0.469934	1.056197
H377	H	0.672550	-0.407166	-0.150860
H378	H	1.172550	0.092834	0.349140
H379	H	0.667931	-0.790338	-0.097256
H380	H	1.167931	-0.290338	0.402744
H381	H	0.675316	-0.175285	0.097360
H382	H	1.175316	0.324715	0.597360
H383	H	0.673577	-0.315720	0.150969
H384	H	1.173577	0.184280	0.650969
O385	O	0.667830	-0.794224	0.105797
O386	O	1.167830	-0.294224	0.605797
C387	C	0.668234	-0.761163	0.153122
C388	C	1.168234	-0.261163	0.653122
H389	H	0.650632	-0.723137	0.137395
H390	H	1.150632	-0.223137	0.637395
H391	H	0.640391	-0.772524	0.190623
H392	H	1.140391	-0.272524	0.690623
H393	H	0.714003	-0.761094	0.169616
H394	H	1.214003	-0.261094	0.669616
O395	O	0.749071	-0.002305	0.723881
O396	O	1.249071	0.497695	1.223881
C397	C	0.740239	-0.050107	0.739057
C398	C	1.240239	0.449893	1.239057
H399	H	0.694639	-0.050129	0.756071
H400	H	1.194639	0.449871	1.256071
H401	H	0.747013	-0.074417	0.698356
H402	H	1.247013	0.425583	1.198356
H403	H	0.771920	-0.064430	0.775013
H404	H	1.271920	0.435570	1.275013
O405	O	0.676359	-0.079821	0.105772
O406	O	1.176359	0.420179	0.605772
C407	C	0.627371	-0.044937	0.108950
C408	C	1.127371	0.455063	0.608950
H409	H	0.592711	-0.056144	0.078514
H410	H	1.092711	0.443856	0.578514
H411	H	0.610799	-0.042438	0.156371
H412	H	1.110799	0.457562	0.656371
H413	H	0.638989	-0.008023	0.094536
H414	H	1.138989	0.491977	0.594536
O415	O	0.671853	-0.463088	0.159433
O416	O	1.171853	0.036912	0.659433
C417	C	0.671435	-0.496155	0.206753
C418	C	1.171435	0.003845	0.706753
H419	H	0.689034	-0.534180	0.191022
H420	H	1.189034	-0.034180	0.691022
H421	H	0.699273	-0.484803	0.244259
H422	H	1.199273	0.015197	0.744259
H423	H	0.625662	-0.496221	0.223241
H424	H	1.125662	0.003779	0.723241
H425	H	0.742965	0.002985	0.271379
H426	H	1.242965	0.502985	0.771379
O427	O	0.749113	-0.002238	0.154280
O428	O	1.249113	0.497762	0.654280
C429	C	0.783565	-0.031391	0.194883
C430	C	1.283565	0.468609	0.694883
H431	H	0.760220	-0.031837	0.239022
H432	H	1.260220	0.468163	0.739022
H433	H	0.792603	-0.070033	0.176993
H434	H	1.292603	0.429967	0.676993
H435	H	0.825728	-0.015877	0.201467
H436	H	1.325728	0.484123	0.701467
H437	H	0.743001	0.002964	0.841044
H438	H	1.243001	0.502964	1.341044
H439	H	0.781999	-0.030058	0.443879
H440	H	1.281999	0.469942	0.943879
H441	H	0.601405	0.122850	0.841049
H442	H	1.101405	0.622850	1.341049
H443	H	0.601388	0.122849	0.728728
H444	H	1.101388	0.622849	1.228728
H445	H	0.562341	0.155885	0.556218
H446	H	1.062341	0.655885	1.056218
H447	H	0.562333	0.155885	0.443896
H448	H	1.062333	0.655885	0.943896
