data_functionalizedCrystal
_audit_creation_method	'MofGen! by Chris Wilmer'
_symmetry_space_group_name_H-M	'P1'
_symmetry_Int_Tables_number	1
_symmetry_cell_setting	triclinic
loop_
_symmetry_equiv_pos_as_xyz
  x,y,z
_cell_length_a	15.944545
_cell_length_b	15.944551
_cell_length_c	14.472310
_cell_angle_alpha	89.997979
_cell_angle_beta	89.989758
_cell_angle_gamma	83.497455
loop_
_atom_site_label
_atom_site_type_symbol
_atom_site_fract_x
_atom_site_fract_y
_atom_site_fract_z
O1	O	1.114538	0.108301	-0.076783
O2	O	1.614538	0.608301	0.423217
O3	O	0.869988	0.121663	-0.076798
O4	O	1.369988	0.621663	0.423202
O5	O	0.998941	-0.007293	-0.076782
O6	O	1.498941	0.492707	0.423218
O7	O	0.985585	0.237257	-0.076799
O8	O	1.485585	0.737257	0.423201
O9	O	0.998908	-0.007285	0.076900
O10	O	1.498908	0.492715	0.576900
O11	O	0.869955	0.121670	0.076884
O12	O	1.369955	0.621670	0.576884
O13	O	1.114505	0.108309	0.076899
O14	O	1.614505	0.608309	0.576899
Cu15	Cu	0.992227	0.114990	0.090924
Cu16	Cu	1.492227	0.614990	0.590924
Cu17	Cu	0.992266	0.114981	-0.090823
Cu18	Cu	1.492266	0.614981	0.409177
O19	O	0.985552	0.237265	0.076883
O20	O	1.485552	0.737265	0.576883
C21	C	0.838677	0.121113	0.000041
C22	C	1.338677	0.621113	0.500041
C23	C	0.745431	0.119453	0.000035
C24	C	1.245431	0.619453	0.500035
C25	C	0.474798	0.034559	0.000051
C26	C	0.974798	0.534559	0.500051
C27	C	0.525364	0.075492	0.075824
C28	C	1.025364	0.575492	0.575824
C29	C	0.409787	0.113532	0.000051
C30	C	0.909787	0.613532	0.500051
C31	C	0.525377	0.075505	-0.075695
C32	C	1.025377	0.575505	0.424305
C33	C	0.574701	0.116437	0.000042
C34	C	1.074701	0.616437	0.500042
C35	C	0.459124	0.154444	0.075887
C36	C	0.959124	0.654444	0.575887
C37	C	0.459134	0.154446	-0.075700
C38	C	0.959134	0.654446	0.424300
C39	C	0.509667	0.195436	0.000091
C40	C	1.009667	0.695436	0.500091
C41	C	0.314785	0.111856	0.000058
C42	C	0.814785	0.611856	0.500058
C43	C	0.669700	0.118119	0.000042
C44	C	1.169700	0.618119	0.500042
C45	C	0.998370	-0.038583	0.000059
C46	C	1.498370	0.461417	0.500059
C47	C	0.996708	-0.131829	0.000060
C48	C	1.496708	0.368171	0.500060
C49	C	0.912803	-0.346684	0.000042
C50	C	1.412803	0.153316	0.500042
C51	C	0.951750	-0.407698	0.075819
C52	C	1.451750	0.092302	0.575819
C53	C	0.993701	-0.302555	0.000052
C54	C	1.493701	0.197445	0.500052
C55	C	0.951801	-0.407689	-0.075700
C56	C	1.451801	0.092311	0.424300
C57	C	0.990790	-0.467468	0.000041
C58	C	1.490790	0.032532	0.500041
C59	C	1.032669	-0.362341	0.075892
C60	C	1.532669	0.137659	0.575892
C61	C	1.032710	-0.362326	-0.075695
C62	C	1.532710	0.137674	0.424305
C63	C	1.071715	-0.423322	0.000101
C64	C	1.571715	0.076678	0.500101
C65	C	0.995375	-0.207553	0.000059
C66	C	1.495375	0.292447	0.500059
C67	C	0.989122	-0.562469	0.000041
C68	C	1.489122	-0.062469	0.500041
C69	C	1.145816	0.108859	0.000058
C70	C	1.645816	0.608859	0.500058
C71	C	1.239062	0.110519	0.000057
C72	C	1.739062	0.610519	0.500057
C73	C	0.986123	0.268555	0.000039
C74	C	1.486123	0.768555	0.500039
C75	C	0.987785	0.361801	0.000033
C76	C	1.487785	0.861801	0.500033
N77	N	0.992206	0.114996	0.218755
N78	N	1.492206	0.614996	0.718755
N79	N	0.992294	0.114969	-0.218654
N80	N	1.492294	0.614969	0.281346
C81	C	0.992265	0.114978	0.592846
C82	C	1.492265	0.614978	1.092846
C83	C	0.923033	0.183748	0.553671
C84	C	1.423033	0.683748	1.053671
C85	C	0.923193	0.183999	0.446583
C86	C	1.423193	0.683999	0.946583
C87	C	0.992235	0.114987	0.407255
C88	C	1.492235	0.614987	0.907255
C89	C	1.079879	0.134132	0.446096
C90	C	1.579879	0.634132	0.946096
C91	C	1.079490	0.134621	0.553217
C92	C	1.579490	0.634621	1.053217
C93	C	0.974635	0.026859	0.553380
C94	C	1.474635	0.526859	1.053380
C95	C	0.972625	0.027446	0.446252
C96	C	1.472625	0.527446	0.946252
C97	C	0.992223	0.114990	0.302367
C98	C	1.492223	0.614990	0.802367
C99	C	0.992283	0.114976	0.697734
C100	C	1.492283	0.614976	1.197734
H101	H	0.554281	0.042142	0.139888
H102	H	1.054281	0.542142	0.639888
H103	H	0.525158	0.263501	0.000131
H104	H	1.025158	0.763501	0.500131
N105	N	1.041507	-0.040935	0.586931
N106	N	1.541507	0.459065	1.086931
H107	H	1.083026	-0.014744	0.627496
H108	H	1.583026	0.485256	1.127496
H109	H	1.014009	-0.084306	0.623560
H110	H	1.514009	0.415694	1.123560
N111	N	0.937944	0.270694	0.412719
N112	N	1.437944	0.770694	0.912719
H113	H	0.994150	0.285205	0.436289
H114	H	1.494150	0.785205	0.936289
H115	H	0.938025	0.271270	0.342937
H116	H	1.438025	0.771270	0.842937
N117	N	0.836896	0.168897	0.411803
N118	N	1.336896	0.668897	0.911803
H119	H	0.793482	0.215070	0.435177
H120	H	1.293482	0.715070	0.935177
H121	H	0.836905	0.169014	0.342017
H122	H	1.336905	0.669014	0.842017
H123	H	0.917519	-0.427803	0.139878
H124	H	1.417519	0.072197	0.639878
N125	N	0.836456	0.168894	0.587825
N126	N	1.336456	0.668894	1.087825
H127	H	0.811078	0.219731	0.623971
H128	H	1.311078	0.719731	1.123971
H129	H	0.799081	0.159532	0.533317
H130	H	1.299081	0.659532	1.033317
H131	H	1.138922	-0.456483	0.000148
H132	H	1.638922	0.043517	0.500148
N133	N	0.454059	-0.055528	0.000145
N134	N	0.954059	0.444472	0.500145
H135	H	0.478284	-0.085259	0.057440
H136	H	0.978284	0.414741	0.557440
H137	H	0.390768	-0.055940	-0.000478
H138	H	0.890768	0.444060	0.499522
N139	N	0.937761	0.269889	0.589262
N140	N	1.437761	0.769889	1.089262
H141	H	0.989080	0.264559	0.630657
H142	H	1.489080	0.764559	1.130657
H143	H	0.947234	0.307963	0.535385
H144	H	1.447234	0.807963	1.035385
H145	H	0.845655	-0.313375	0.000113
H146	H	1.345655	0.186625	0.500113
H147	H	0.430301	0.187774	0.140015
H148	H	0.930301	0.687774	0.640015
H149	H	1.019775	-0.026128	0.419485
H150	H	1.519775	0.473872	0.919485
N151	N	0.420804	0.198587	-0.160558
N152	N	0.920804	0.698587	0.339442
H153	H	0.445022	0.168686	-0.217767
H154	H	0.945022	0.668686	0.282233
H155	H	0.357587	0.197611	-0.159516
H156	H	0.857587	0.697611	0.340484
N157	N	1.077941	-0.335869	0.160844
N158	N	1.577941	0.164131	0.660844
H159	H	1.078759	-0.272625	0.160339
H160	H	1.578759	0.227375	0.660339
H161	H	1.047577	-0.352810	0.217958
H162	H	1.547577	0.147190	0.717958
N163	N	0.563706	0.031312	-0.160543
N164	N	1.063706	0.531312	0.339457
H165	H	0.551310	-0.029420	-0.160468
H166	H	1.051310	0.470580	0.339532
H167	H	0.538663	0.060575	-0.217731
H168	H	1.038663	0.560575	0.282269
H169	H	1.066910	-0.342199	-0.139757
H170	H	1.566910	0.157801	0.360243
N171	N	1.100067	0.219744	0.586305
N172	N	1.600067	0.719744	1.086305
H173	H	1.109304	0.256597	0.531305
H174	H	1.609304	0.756597	1.031305
H175	H	1.051662	0.247352	0.624632
H176	H	1.551662	0.747352	1.124632
N177	N	1.149751	0.070772	0.587551
N178	N	1.649751	0.570772	1.087551
H179	H	1.180844	0.042439	0.533097
H180	H	1.680844	0.542439	1.033097
H181	H	1.190226	0.100270	0.626235
H182	H	1.690226	0.600270	1.126235
N183	N	0.906483	-0.434309	-0.160553
N184	N	1.406483	0.065691	0.339447
H185	H	0.846467	-0.406142	-0.160485
H186	H	1.346467	0.093858	0.339515
H187	H	0.936507	-0.417000	-0.217738
H188	H	1.436507	0.083000	0.282262
H189	H	1.132627	0.085376	0.420619
H190	H	1.632627	0.585376	0.920619
N191	N	1.100951	0.218286	0.410543
N192	N	1.600951	0.718286	0.910543
H193	H	1.056011	0.264263	0.431073
H194	H	1.556011	0.764263	0.931073
H195	H	1.157475	0.229965	0.435930
H196	H	1.657475	0.729965	0.935930
N197	N	0.891803	0.002487	0.589202
N198	N	1.391803	0.502487	1.089202
H199	H	0.844399	0.046341	0.569718
H200	H	1.344399	0.546341	1.069718
H201	H	0.881816	-0.054248	0.563011
H202	H	1.381816	0.445752	1.063011
N203	N	0.887197	0.008224	0.412694
N204	N	1.387197	0.508224	0.912694
H205	H	0.861303	0.056011	0.372388
H206	H	1.361303	0.556011	0.872388
H207	H	0.893888	-0.045887	0.375799
H208	H	1.393888	0.454113	0.875799
