data_functionalizedCrystal
_audit_creation_method	'MofGen! by Chris Wilmer'
_symmetry_space_group_name_H-M	'P1'
_symmetry_Int_Tables_number	1
_symmetry_cell_setting	triclinic
loop_
_symmetry_equiv_pos_as_xyz
  x,y,z
_cell_length_a	16.109301
_cell_length_b	17.766277
_cell_length_c	19.288865
_cell_angle_alpha	89.988397
_cell_angle_beta	83.298864
_cell_angle_gamma	89.993359
loop_
_atom_site_label
_atom_site_type_symbol
_atom_site_fract_x
_atom_site_fract_y
_atom_site_fract_z
O1	O	1.102832	-0.062555	0.089282
O2	O	0.860732	-0.062569	0.100392
O3	O	0.988778	-0.062547	-0.006277
O4	O	0.974787	-0.062577	0.195951
O5	O	0.988755	0.062642	-0.006282
O6	O	0.860710	0.062620	0.100387
O7	O	1.102810	0.062633	0.089276
Cu8	Cu	0.981758	0.074057	0.094831
Cu9	Cu	0.981784	-0.073993	0.094838
O10	O	0.974764	0.062611	0.195945
C11	C	0.829748	0.000024	0.099940
C12	C	0.737457	0.000020	0.098590
N13	N	0.981745	0.178188	0.094826
N14	N	0.981803	-0.178123	0.094837
C15	C	0.514979	0.000020	0.158748
C16	C	0.428263	0.000025	0.157475
C17	C	0.448570	0.000041	0.030916
C18	C	0.535284	0.000041	0.032190
C19	C	0.568486	0.000027	0.096108
C20	C	0.395056	0.000031	0.093561
C21	C	0.301034	0.000037	0.092180
C22	C	0.662513	0.000023	0.097489
C23	C	1.133794	0.000039	0.089729
C24	C	1.226085	0.000038	0.091078
C25	C	0.988316	0.000050	-0.032157
C26	C	0.986965	0.000056	-0.109264
C27	C	1.038462	0.217584	0.047616
C28	C	1.038467	0.296386	0.047613
C29	C	0.981763	0.335788	0.094832
C30	C	0.925035	0.296382	0.142045
C31	C	0.925026	0.217582	0.142042
C32	C	0.970632	0.460616	0.158093
C33	C	0.970647	0.539415	0.158096
C34	C	0.981785	0.578834	0.094840
C35	C	0.992926	0.539445	0.031577
C36	C	0.992917	0.460645	0.031575
C37	C	0.981765	0.421234	0.094840
C38	C	1.038510	0.703677	0.047623
C39	C	1.038509	0.782480	0.047619
C40	C	0.925081	0.782475	0.142057
C41	C	0.925078	0.703673	0.142055
C42	C	0.981797	0.664279	0.094839
C43	C	1.062096	0.000064	-0.153781
C44	C	1.060827	0.000052	-0.226231
C45	C	0.984421	0.000047	-0.254161
C46	C	0.909280	0.000036	-0.209634
C47	C	0.910552	0.000040	-0.137185
C48	C	0.924350	0.043895	-0.362593
C49	C	0.923082	0.043895	-0.435041
C50	C	0.980496	0.000030	-0.477616
C51	C	1.039193	-0.043825	-0.447735
C52	C	1.040465	-0.043821	-0.375287
C53	C	0.983034	0.000042	-0.332718
C54	C	1.054256	0.000024	-0.600692
C55	C	1.052983	0.000007	-0.673143
C56	C	0.901434	-0.000002	-0.656544
C57	C	0.902709	0.000008	-0.584095
C58	C	0.979122	0.000024	-0.556173
C59	C	0.975226	0.000013	0.221825
C60	C	0.976577	0.000002	0.298932
H61	H	0.384700	0.000020	0.208483
H62	H	0.961580	0.571480	0.209609
H63	H	0.421526	0.000057	-0.021124
O64	O	0.550785	0.000017	0.227689
H65	H	0.589806	-0.051011	0.231310
H66	H	1.001995	0.571539	-0.019932
H67	H	0.578853	0.000049	-0.018823
H68	H	0.839224	-0.000009	-0.679284
H69	H	1.084691	0.671601	0.009174
H70	H	1.084644	0.185512	0.009169
O71	O	1.141867	0.000071	-0.274254
H72	H	1.128143	0.000064	-0.329323
H73	H	1.084692	0.814558	0.009171
H74	H	1.088256	-0.079530	-0.350962
H75	H	0.878909	0.814555	0.180500
O76	O	0.863887	0.338882	0.192979
H77	H	0.874276	0.323732	0.247126
O78	O	1.099650	0.338893	-0.003300
H79	H	1.139092	0.298261	-0.036128
H80	H	1.001986	0.428578	-0.019936
O81	O	1.144513	0.000076	-0.123669
H82	H	1.132778	0.000084	-0.065811
H83	H	0.878898	0.671594	0.180500
O84	O	0.821671	0.000018	-0.536077
H85	H	0.785094	-0.051004	-0.545994
O86	O	0.958625	0.418101	0.226323
H87	H	0.950895	0.458726	0.270312
H88	H	0.878840	0.185504	0.180487
O89	O	1.101121	-0.091147	-0.493642
H90	H	1.090371	-0.083794	-0.549039
H91	H	1.116476	0.000034	-0.577957
O92	O	0.859779	0.091195	-0.467269
H93	H	0.820059	0.121687	-0.425493
O94	O	1.134021	0.000022	-0.721164
H95	H	1.187365	0.000044	-0.689573
H96	H	0.877594	0.079619	-0.327934
H97	H	0.847071	0.000030	-0.232379
O98	O	0.829515	0.000045	-0.089163
H99	H	0.776170	0.000045	-0.120753
