data_functionalizedCrystal
_audit_creation_method	'MofGen! by Chris Wilmer'
_symmetry_space_group_name_H-M	'P1'
_symmetry_Int_Tables_number	1
_symmetry_cell_setting	triclinic
loop_
_symmetry_equiv_pos_as_xyz
  x,y,z
_cell_length_a	19.077212
_cell_length_b	17.638516
_cell_length_c	19.076919
_cell_angle_alpha	77.040002
_cell_angle_beta	90.114942
_cell_angle_gamma	103.941131
loop_
_atom_site_label
_atom_site_type_symbol
_atom_site_fract_x
_atom_site_fract_y
_atom_site_fract_z
Zn1	Zn	1.003732	-0.291675	0.490846
Zn2	Zn	1.337065	0.041658	0.824179
Zn3	Zn	1.670398	0.374991	1.157512
Zn4	Zn	0.984286	-0.420436	0.395527
Zn5	Zn	1.317619	-0.087103	0.728861
Zn6	Zn	1.650952	0.246230	1.062194
Zn7	Zn	0.891026	-0.291252	0.368548
Zn8	Zn	1.224360	0.042081	0.701882
Zn9	Zn	1.557693	0.375414	1.035215
Zn10	Zn	0.860100	-0.431153	0.510107
Zn11	Zn	1.193434	-0.097820	0.843441
Zn12	Zn	1.526767	0.235513	1.176774
O13	O	0.934786	-0.358629	0.441257
O14	O	1.268119	-0.025296	0.774591
O15	O	1.601453	0.308037	1.107924
O16	O	1.100292	-0.304448	0.481431
O17	O	1.433625	0.028886	0.814765
O18	O	1.766958	0.362219	1.148098
O19	O	0.976719	-0.398637	0.292815
O20	O	1.310053	-0.065304	0.626148
O21	O	1.643386	0.268029	0.959481
O22	O	0.927058	-0.178873	0.365420
O23	O	1.260391	0.154461	0.698753
O24	O	1.593724	0.487794	1.032086
O25	O	1.086005	-0.399048	0.411401
O26	O	1.419338	-0.065714	0.744735
O27	O	1.752672	0.267619	1.078068
O28	O	1.009862	-0.179184	0.455271
O29	O	1.343195	0.154150	0.788604
O30	O	1.676528	0.487483	1.121938
O31	O	0.908202	-0.303727	0.272993
O32	O	1.241535	0.029607	0.606327
O33	O	1.574868	0.362940	0.939660
O34	O	0.787784	-0.314119	0.384097
O35	O	1.121117	0.019215	0.717430
O36	O	1.454451	0.352548	1.050763
O37	O	0.874349	-0.417314	0.606686
O38	O	1.207682	-0.083980	0.940020
O39	O	1.541015	0.249353	1.273353
O40	O	0.765063	-0.416903	0.488100
O41	O	1.098396	-0.083570	0.821433
O42	O	1.431730	0.249763	1.154766
O43	O	0.979874	-0.314840	0.592535
O44	O	1.313207	0.018494	0.925868
O45	O	1.646541	0.351827	1.259202
O46	O	0.946731	-0.534294	0.430079
O47	O	1.280065	-0.200960	0.763412
O48	O	1.613398	0.132373	1.096745
O49	O	0.855493	-0.542168	0.514260
O50	O	1.188826	-0.208834	0.847593
O51	O	1.522160	0.124499	1.180927
C52	C	0.750718	-0.366629	0.435261
C53	C	1.084051	-0.033295	0.768595
C54	C	1.417384	0.300038	1.101928
C55	C	0.671968	-0.370071	0.432716
C56	C	1.005301	-0.036738	0.766050
C57	C	1.338635	0.296596	1.099383
C58	C	0.227892	-0.394727	0.414490
C59	C	0.561226	-0.061394	0.747824
C60	C	0.894559	0.271939	1.081157
C61	C	0.301887	-0.391488	0.416876
C62	C	0.635220	-0.058155	0.750209
C63	C	0.968554	0.275178	1.083542
C64	C	0.346306	-0.340703	0.454617
C65	C	0.679639	-0.007370	0.787951
C66	C	1.012972	0.325963	1.121284
C67	C	0.316727	-0.293148	0.489970
C68	C	0.650061	0.040185	0.823304
C69	C	0.983394	0.373519	1.156637
C70	C	0.242735	-0.296383	0.487580
C71	C	0.576068	0.036950	0.820914
C72	C	0.909401	0.370283	1.154247
C73	C	0.568397	-0.325751	0.465679
C74	C	0.901730	0.007582	0.799013
C75	C	1.235064	0.340916	1.132346
C76	C	0.642394	-0.322521	0.468068
C77	C	0.975727	0.010812	0.801402
C78	C	1.309060	0.344145	1.134735
C79	C	0.627549	-0.420861	0.394972
C80	C	0.960882	-0.087528	0.728306
C81	C	1.294215	0.245806	1.061639
C82	C	0.553555	-0.424095	0.392589
C83	C	0.886888	-0.090762	0.725923
C84	C	1.220221	0.242572	1.059256
C85	C	0.523983	-0.376537	0.427939
C86	C	0.857317	-0.043204	0.761272
C87	C	1.190650	0.290130	1.094606
N88	N	0.421940	-0.337393	0.457058
N89	N	0.755273	-0.004060	0.790391
N90	N	1.088607	0.329274	1.123725
N91	N	0.448351	-0.379843	0.425494
N92	N	0.781685	-0.046510	0.758827
N93	N	1.115018	0.286823	1.092160
C94	C	0.895665	-0.567384	0.477203
C95	C	1.228998	-0.234051	0.810536
C96	C	1.562331	0.099283	1.143870
C97	C	0.878992	-0.656688	0.492607
C98	C	1.212325	-0.323355	0.825940
C99	C	1.545659	0.009978	1.159273
C100	C	1.061869	-0.929763	0.324305
C101	C	1.395202	-0.596430	0.657639
C102	C	1.728536	-0.263097	0.990972
C103	C	1.046190	-1.013679	0.338791
C104	C	1.379523	-0.680346	0.672124
C105	C	1.712856	-0.347013	1.005457
C106	C	0.951110	-1.021923	0.426374
C107	C	1.284444	-0.688590	0.759708
C108	C	1.617777	-0.355256	1.093041
C109	C	0.966779	-0.938006	0.411894
C110	C	1.300113	-0.604672	0.745227
C111	C	1.633446	-0.271339	1.078561
C112	C	1.022160	-0.891932	0.360859
C113	C	1.355493	-0.558599	0.694193
C114	C	1.688827	-0.225266	1.027526
C115	C	0.927070	-0.900175	0.448448
C116	C	1.260404	-0.566842	0.781781
C117	C	1.593737	-0.233508	1.115115
C118	C	0.942741	-0.816265	0.433971
C119	C	1.276074	-0.482932	0.767305
C120	C	1.609407	-0.149599	1.100638
C121	C	0.998120	-0.770186	0.382941
C122	C	1.331454	-0.436853	0.716274
C123	C	1.664787	-0.103520	1.049607
C124	C	1.037831	-0.808023	0.346383
C125	C	1.371164	-0.474689	0.679716
C126	C	1.704497	-0.141356	1.013049
C127	C	0.871693	-0.946250	0.499486
C128	C	1.205027	-0.612917	0.832820
C129	C	1.538360	-0.279583	1.166153
C130	C	0.831984	-0.908419	0.536040
C131	C	1.165318	-0.575086	0.869374
C132	C	1.498651	-0.241752	1.202707
C133	C	0.847651	-0.824508	0.521560
C134	C	1.180984	-0.491174	0.854893
C135	C	1.514318	-0.157841	1.188227
C136	C	0.903031	-0.778429	0.470529
C137	C	1.236364	-0.445096	0.803863
C138	C	1.569697	-0.111762	1.137196
C139	C	0.807941	-0.786671	0.558118
C140	C	1.141274	-0.453338	0.891451
C141	C	1.474608	-0.120005	1.224785
C142	C	0.823611	-0.702762	0.543641
C143	C	1.156945	-0.369428	0.876975
C144	C	1.490278	-0.036095	1.210308
C145	C	0.918701	-0.694519	0.456053
C146	C	1.252034	-0.361186	0.789386
C147	C	1.585368	-0.027852	1.122719
C148	C	1.119573	-0.350599	0.447277
C149	C	1.452906	-0.017266	0.780610
C150	C	1.786240	0.316067	1.113944
C151	C	1.198318	-0.347177	0.449842
C152	C	1.531651	-0.013844	0.783176
C153	C	1.864985	0.319489	1.116509
C154	C	0.925831	-0.367319	0.626034
C155	C	1.259164	-0.033986	0.959367
C156	C	1.592497	0.299347	1.292700
C157	C	0.922015	-0.371022	0.704774
C158	C	1.255348	-0.037689	1.038108
C159	C	1.588681	0.295644	1.371441
C160	C	0.974079	-0.149060	0.405187
C161	C	1.307412	0.184274	0.738521
C162	C	1.640745	0.517607	1.071854
C163	C	0.990823	-0.059753	0.389816
C164	C	1.324156	0.273580	0.723150
C165	C	1.657489	0.606913	1.056483
C166	C	0.943758	-0.349914	0.257191
C167	C	1.277091	-0.016580	0.590524
C168	C	1.610425	0.316753	0.923858
C169	C	0.947754	-0.345978	0.178416
C170	C	1.281087	-0.012645	0.511749
C171	C	1.614420	0.320689	0.845083
C172	C	0.975161	-0.319412	0.734401
C173	C	1.308494	0.013921	1.067734
C174	C	1.641827	0.347255	1.401067
C175	C	0.971567	-0.322889	0.808385
C176	C	1.304900	0.010445	1.141718
C177	C	1.638233	0.343778	1.475052
C178	C	0.914829	-0.377981	0.852743
C179	C	1.248163	-0.044647	1.186076
C180	C	1.581496	0.288686	1.519410
C181	C	0.861678	-0.429593	0.823112
C182	C	1.195012	-0.096260	1.156445
C183	C	1.528345	0.237073	1.489778
C184	C	0.865270	-0.426112	0.749128
C185	C	1.198603	-0.092779	1.082461
C186	C	1.531937	0.240555	1.415794
C187	C	0.898194	-0.394109	1.074801
C188	C	1.231527	-0.060776	1.408134
C189	C	1.564861	0.272557	1.741468
C190	C	0.894608	-0.397589	1.148790
C191	C	1.227941	-0.064255	1.482123
C192	C	1.561274	0.269078	1.815457
C193	C	1.004496	-0.290883	1.134058
C194	C	1.337829	0.042451	1.467391
C195	C	1.671163	0.375784	1.800725
C196	C	1.008085	-0.287410	1.060074
C197	C	1.341418	0.045924	1.393407
C198	C	1.674751	0.379257	1.726740
C199	C	0.954932	-0.339019	1.030449
C200	C	1.288265	-0.005686	1.363782
C201	C	1.621598	0.327647	1.697115
N202	N	0.911156	-0.381537	0.928367
N203	N	1.244489	-0.048204	1.261701
N204	N	1.577823	0.285129	1.595034
N205	N	0.958603	-0.335458	0.954824
N206	N	1.291936	-0.002125	1.288158
N207	N	1.625270	0.331209	1.621491
H208	H	0.678559	-0.281160	0.498800
H209	H	1.011893	0.052173	0.832134
H210	H	1.345226	0.385506	1.165467
N211	N	0.833412	-0.456999	1.196648
N212	N	1.166745	-0.123666	1.529982
N213	N	1.500079	0.209668	1.863315
H214	H	0.834263	-0.513329	1.194021
H215	H	1.167596	-0.179996	1.527354
H216	H	1.500930	0.153337	1.860688
H217	H	0.785790	-0.446038	1.179955
H218	H	1.119123	-0.112705	1.513288
H219	H	1.452456	0.220628	1.846622
H220	H	0.651634	-0.459580	0.366192
H221	H	0.984967	-0.126246	0.699525
H222	H	1.318301	0.207087	1.032859
H223	H	1.082922	-0.770508	0.304819
H224	H	1.416256	-0.437174	0.638153
H225	H	1.749589	-0.103841	0.971486
H226	H	0.762855	-0.824197	0.599675
H227	H	1.096188	-0.490863	0.933009
H228	H	1.429521	-0.157530	1.266342
H229	H	0.821987	-0.468131	0.725006
H230	H	1.155321	-0.134798	1.058340
H231	H	1.488654	0.198536	1.391673
H232	H	0.963793	-0.657004	0.414489
H233	H	1.297126	-0.323671	0.747823
H234	H	1.630459	0.009663	1.081156
N235	N	1.036363	-0.260000	0.686562
N236	N	1.369696	0.073333	1.019895
N237	N	1.703030	0.406666	1.353228
H238	H	1.016050	-0.222572	0.648512
H239	H	1.349384	0.110761	0.981845
H240	H	1.682717	0.444095	1.315178
H241	H	1.064534	-0.289853	0.662615
H242	H	1.397867	0.043480	0.995948
H243	H	1.731200	0.376814	1.329282
H244	H	1.014845	-0.280864	0.832503
H245	H	1.348178	0.052469	1.165836
H246	H	1.681512	0.385803	1.499170
N247	N	0.772249	-0.958112	0.591077
N248	N	1.105582	-0.624779	0.924411
N249	N	1.438916	-0.291445	1.257744
H250	H	0.783485	-0.945379	0.639535
H251	H	1.116819	-0.612045	0.972869
H252	H	1.450152	-0.278712	1.306202
H253	H	0.768373	-1.016992	0.594641
H254	H	1.101707	-0.683658	0.927975
H255	H	1.435040	-0.350325	1.261308
H256	H	0.218658	-0.257660	0.516365
H257	H	0.551991	0.075673	0.849698
H258	H	0.885324	0.409006	1.183032
H259	H	1.106961	-0.892248	0.282742
H260	H	1.440294	-0.558915	0.616075
H261	H	1.773627	-0.225581	0.949409
H262	H	1.047769	-0.248864	1.158187
H263	H	1.381103	0.084469	1.491520
H264	H	1.714436	0.417803	1.824853
H265	H	1.054288	-0.242550	1.023962
H266	H	1.387621	0.090783	1.357296
H267	H	1.720954	0.424117	1.690629
N268	N	0.840849	-0.449746	1.042848
N269	N	1.174183	-0.116413	1.376181
N270	N	1.507516	0.216920	1.709514
H271	H	0.804359	-0.485167	1.082175
H272	H	1.137692	-0.151833	1.415509
H273	H	1.471026	0.181500	1.748842
H274	H	0.864177	-0.484243	1.019478
H275	H	1.197511	-0.150910	1.352811
H276	H	1.530844	0.182423	1.686144
N277	N	1.089021	-1.054472	0.299347
N278	N	1.422354	-0.721138	0.632680
N279	N	1.755687	-0.387805	0.966013
H280	H	1.055337	-1.089032	0.271569
H281	H	1.388671	-0.755698	0.604902
H282	H	1.722004	-0.422365	0.938236
H283	H	1.113940	-1.089128	0.335265
H284	H	1.447273	-0.755795	0.668598
H285	H	1.780607	-0.422461	1.001931
N286	N	0.179985	-0.449508	0.373787
N287	N	0.513318	-0.116174	0.707121
N288	N	0.846652	0.217159	1.040454
H289	H	0.209951	-0.479137	0.351753
H290	H	0.543285	-0.145804	0.685086
H291	H	0.876618	0.187530	1.018420
H292	H	0.157000	-0.416546	0.334419
H293	H	0.490333	-0.083212	0.667752
H294	H	0.823667	0.250121	1.001085
N295	N	0.333787	-0.442768	0.378740
N296	N	0.667120	-0.109435	0.712074
N297	N	1.000454	0.223898	1.045407
H298	H	0.294420	-0.475433	0.354471
H299	H	0.627753	-0.142100	0.687805
H300	H	0.961087	0.191233	1.021138
H301	H	0.356129	-0.480013	0.414922
H302	H	0.689463	-0.146680	0.748255
H303	H	1.022796	0.186654	1.081589
N304	N	0.780788	-0.661951	0.583068
N305	N	1.114122	-0.328618	0.916401
N306	N	1.447455	0.004716	1.249735
H307	H	0.743326	-0.703870	0.617594
H308	H	1.076660	-0.370537	0.950927
H309	H	1.409993	-0.037204	1.284260
H310	H	0.755920	-0.627247	0.547138
H311	H	1.089254	-0.293913	0.880471
H312	H	1.422587	0.039420	1.213805
N313	N	0.536522	-0.274445	0.503801
N314	N	0.869856	0.058889	0.837135
N315	N	1.203189	0.392222	1.170468
H316	H	0.544606	-0.288826	0.556980
H317	H	0.877939	0.044508	0.890313
H318	H	1.211272	0.377841	1.223646
H319	H	0.482920	-0.284204	0.496507
H320	H	0.816254	0.049129	0.829841
H321	H	1.149587	0.382463	1.163174
N322	N	1.015030	-0.679683	0.367319
N323	N	1.348363	-0.346349	0.700652
N324	N	1.681697	-0.013016	1.033985
H325	H	1.029439	-0.661152	0.412854
H326	H	1.362772	-0.327818	0.746187
H327	H	1.696106	0.005515	1.079521
H328	H	0.970820	-0.661083	0.349174
H329	H	1.304153	-0.327749	0.682507
H330	H	1.637486	0.005584	1.015840
N331	N	0.800469	-0.488997	0.870947
N332	N	1.133803	-0.155664	1.204281
N333	N	1.467136	0.177669	1.537614
H334	H	0.806255	-0.483370	0.922311
H335	H	1.139589	-0.150036	1.255645
H336	H	1.472922	0.183297	1.588978
H337	H	0.801350	-0.545299	0.868257
H338	H	1.134683	-0.211965	1.201590
H339	H	1.468017	0.121368	1.534924
N340	N	0.854782	-1.036753	0.515092
N341	N	1.188115	-0.703420	0.848425
N342	N	1.521449	-0.370086	1.181758
H343	H	0.813676	-1.060200	0.552969
H344	H	1.147009	-0.726866	0.886303
H345	H	1.480342	-0.393533	1.219636
H346	H	0.899008	-1.055356	0.533178
H347	H	1.232341	-0.722023	0.866511
H348	H	1.565675	-0.388690	1.199844
N349	N	0.505648	-0.478868	0.351879
N350	N	0.838981	-0.145534	0.685213
N351	N	1.172315	0.187799	1.018546
H352	H	0.535612	-0.508498	0.329843
H353	H	0.868945	-0.175164	0.663177
H354	H	1.202279	0.158169	0.996510
H355	H	0.482665	-0.445901	0.312512
H356	H	0.815999	-0.112568	0.645845
H357	H	1.149332	0.220766	0.979178
H358	H	0.352900	-0.251794	0.520697
H359	H	0.686233	0.081539	0.854030
H360	H	1.019566	0.414873	1.187363
H361	H	0.906021	-1.059447	0.467929
H362	H	1.239355	-0.726114	0.801262
H363	H	1.572688	-0.392780	1.134596
