data_functionalizedCrystal
_audit_creation_method	'MofGen! by Chris Wilmer'
_symmetry_space_group_name_H-M	'P1'
_symmetry_Int_Tables_number	1
_symmetry_cell_setting	triclinic
loop_
_symmetry_equiv_pos_as_xyz
  x,y,z
_cell_length_a	17.640112
_cell_length_b	19.121063
_cell_length_c	17.640968
_cell_angle_alpha	81.648500
_cell_angle_beta	92.139080
_cell_angle_gamma	103.148881
loop_
_atom_site_label
_atom_site_type_symbol
_atom_site_fract_x
_atom_site_fract_y
_atom_site_fract_z
Zn1	Zn	1.247036	-0.020114	-0.196194
Zn2	Zn	1.215936	-0.164540	-0.077209
Zn3	Zn	1.092687	-0.065650	-0.097361
Zn4	Zn	1.115017	-0.155325	-0.229281
O5	O	1.167669	-0.101407	-0.150011
O6	O	1.349741	-0.024071	-0.158129
O7	O	1.177226	-0.174335	0.025122
O8	O	1.116833	0.038363	-0.105059
O9	O	1.326892	-0.130180	-0.070712
O10	O	1.230232	0.071818	-0.177670
O11	O	1.086676	-0.101681	0.010316
O12	O	0.988819	-0.092746	-0.137142
O13	O	1.154890	-0.114475	-0.329896
O14	O	1.005224	-0.158630	-0.234062
O15	O	1.251884	-0.015136	-0.305587
O16	O	1.198878	-0.261289	-0.102795
O17	O	1.124733	-0.254519	-0.214521
C18	C	0.969322	-0.129630	-0.191380
C19	C	0.884471	-0.141717	-0.209096
C20	C	1.160878	-0.283301	-0.160074
C21	C	1.158048	-0.361101	-0.164389
C22	C	0.562686	-0.009571	-0.015428
C23	C	0.482957	-0.020940	-0.032086
C24	C	0.500055	-0.089704	-0.132851
C25	C	0.579787	-0.078338	-0.116204
C26	C	0.611096	-0.038271	-0.057491
C27	C	0.628197	-0.107038	-0.158266
C28	C	0.707921	-0.095675	-0.141618
C29	C	0.739236	-0.055612	-0.082906
C30	C	0.690820	-0.026908	-0.040842
C31	C	0.596886	-0.147109	-0.216975
C32	C	0.645295	-0.175809	-0.259038
C33	C	0.725022	-0.164442	-0.242393
C34	C	0.756337	-0.124379	-0.183682
C35	C	0.773438	-0.193146	-0.284457
C36	C	0.853163	-0.181784	-0.267809
C37	C	0.836061	-0.113017	-0.167033
C38	C	1.195368	-0.401138	-0.108278
C39	C	1.192712	-0.474238	-0.112340
C40	C	1.152731	-0.507299	-0.172510
C41	C	1.115410	-0.467255	-0.228626
C42	C	1.118071	-0.394156	-0.224567
C43	C	1.142766	-0.727835	-0.187679
C44	C	1.140106	-0.800941	-0.191733
C45	C	1.217410	-0.807918	-0.075447
C46	C	1.220063	-0.734818	-0.071390
C47	C	1.182746	-0.694779	-0.127508
C48	C	1.150013	-0.582019	-0.176662
C49	C	1.185469	-0.620060	-0.123359
C50	C	1.366791	-0.073074	-0.108482
C51	C	1.451644	-0.061001	-0.090784
C52	C	1.209347	-0.058698	-0.345729
C53	C	1.227107	-0.040499	-0.429132
C54	C	1.174511	0.081204	-0.139922
C55	C	1.177426	0.159022	-0.135622
C56	C	1.033051	-0.239247	-0.766711
C57	C	1.049756	-0.222134	-0.845077
C58	C	1.150747	-0.118701	-0.819756
C59	C	1.134048	-0.135803	-0.741387
C60	C	1.075199	-0.196077	-0.714871
C61	C	1.176197	-0.092633	-0.689546
C62	C	1.159501	-0.109736	-0.611183
C63	C	1.100657	-0.170009	-0.584660
C64	C	1.058504	-0.213180	-0.636508
C65	C	1.235048	-0.032362	-0.716063
C66	C	1.277197	0.010807	-0.664223
C67	C	1.260498	-0.006292	-0.585859
C68	C	1.201654	-0.066565	-0.559336
C69	C	1.302651	0.036879	-0.534012
C70	C	1.285956	0.019776	-0.455648
C71	C	1.184959	-0.083668	-0.480973
C72	C	1.126199	-0.143893	0.044957
C73	C	1.108594	-0.161874	0.128402
H74	H	0.861557	-0.080377	-0.119234
H75	H	1.218025	-0.593138	-0.074370
H76	H	1.248641	-0.018440	-0.779872
H77	H	1.252619	-0.707901	-0.022394
F78	F	1.004889	-0.268085	-0.900249
F79	F	1.257127	-0.850533	-0.015728
F80	F	1.078352	-0.351544	-0.284290
F81	F	1.107462	-0.617212	-0.240698
H82	H	1.325113	0.059881	-0.685823
F83	F	1.122319	-0.147815	-0.452750
F84	F	0.824086	-0.043523	-0.065183
F85	F	0.724146	0.015741	0.021642
F86	F	1.232436	-0.516845	-0.052620
H87	H	1.107560	-0.827852	-0.240742
F88	F	1.237916	-0.365961	-0.044232
H89	H	1.087068	-0.183935	-0.520851
H90	H	1.350570	0.085950	-0.555613
F91	F	0.512033	-0.159210	-0.234686
H92	H	0.747933	-0.225774	-0.332256
H93	H	1.010566	-0.262247	-0.614920
F94	F	0.611964	-0.218458	-0.321515
H95	H	1.320276	0.054930	-0.413438
H96	H	0.474551	-0.122329	-0.180653
F97	F	1.103048	-0.685233	-0.247405
H98	H	0.588182	0.023068	0.032371
F99	F	0.431436	0.009605	0.012692
F100	F	1.072864	-0.502442	-0.292668
H101	H	1.198664	-0.069627	-0.841357
F102	F	0.904686	-0.212331	-0.312575
F103	F	0.970411	-0.303393	-0.738488
