data_functionalizedCrystal
_audit_creation_method	'MofGen! by Chris Wilmer'
_symmetry_space_group_name_H-M	'P1'
_symmetry_Int_Tables_number	1
_symmetry_cell_setting	triclinic
loop_
_symmetry_equiv_pos_as_xyz
  x,y,z
_cell_length_a	19.902436
_cell_length_b	14.628931
_cell_length_c	14.628931
_cell_angle_alpha	60.000000
_cell_angle_beta	90.001278
_cell_angle_gamma	59.996936
loop_
_atom_site_label
_atom_site_type_symbol
_atom_site_fract_x
_atom_site_fract_y
_atom_site_fract_z
Zr1	Zr	0.647322	1.000474	-0.119891
O2	O	0.540030	1.191197	-0.265863
O3	O	0.680212	0.809764	-0.075142
O4	O	0.680213	1.000469	-0.265847
O5	O	0.540029	1.000492	0.075274
O6	O	0.790791	1.000451	-0.265835
O7	O	0.540029	1.000492	-0.075158
O8	O	0.790791	0.659314	0.075302
O9	O	0.540030	1.341629	-0.265863
O10	O	0.776764	0.888188	-0.056048
O11	O	0.694240	0.888202	0.056208
O12	O	0.694240	1.112732	-0.168323
O13	O	0.611716	1.112746	-0.056067
Zr14	Zr	0.823682	1.000447	0.120050
Zr15	Zr	0.823682	1.000446	-0.119871
Zr16	Zr	0.647321	1.000475	0.120031
Zr17	Zr	0.647322	1.240396	-0.119891
Zr18	Zr	0.823682	0.760525	0.120051
O19	O	0.790791	1.191158	0.075301
O20	O	0.790792	1.191157	-0.265836
O21	O	0.540029	1.191198	0.075274
O22	O	0.930974	0.809724	0.266023
O23	O	0.930974	0.809723	-0.075114
O24	O	0.680212	0.809765	0.265995
O25	O	0.930974	1.000429	-0.075114
O26	O	0.790791	1.000452	0.266007
O27	O	0.680212	1.000470	0.265995
O28	O	0.930974	1.000429	0.075317
O29	O	0.680213	1.341606	-0.265848
O30	O	0.790791	0.659315	0.266008
O31	O	0.930974	0.659292	0.266023
O32	O	0.930974	0.659292	0.075318
O33	O	0.540030	1.341629	-0.075158
O34	O	0.680213	1.341607	-0.075143
O35	O	0.776763	0.888189	0.168483
O36	O	0.859287	0.888175	0.056226
O37	O	0.776764	1.112719	-0.056049
O38	O	0.694240	1.112733	0.056208
C39	C	0.735501	0.700355	0.000080
C40	C	0.735501	0.598502	0.000080
C41	C	0.776439	0.553086	-0.055606
C42	C	0.776440	0.447816	-0.055607
C43	C	0.514902	1.000496	0.000055
C44	C	0.440032	1.000508	0.000047
C45	C	0.168030	1.000444	0.000091
C46	C	0.144463	1.142091	-0.070395
C47	C	0.222301	1.142180	-0.070787
C48	C	0.302973	1.000477	0.000069
C49	C	0.300562	0.930132	-0.051575
C50	C	0.222334	0.931037	-0.052096
C51	C	0.223322	0.928129	0.122252
C52	C	0.300243	0.930791	0.122065
C53	C	0.379240	1.000488	0.000058
C54	C	0.091765	1.000429	0.000098
C55	C	0.956102	1.000425	0.000104
C56	C	1.030971	1.000413	0.000112
C57	C	0.735502	1.000460	-0.300025
C58	C	0.735502	1.000459	-0.401878
C59	C	0.735502	1.300566	0.000079
C60	C	0.735502	1.402419	0.000079
C61	C	0.694565	1.111848	-0.502983
C62	C	0.694564	1.111851	-0.608254
C63	C	0.735501	1.000461	0.300185
C64	C	0.735501	1.000462	0.402037
C65	C	0.956101	0.700320	0.000105
C66	C	1.030971	0.598455	0.000113
C67	C	0.735501	0.700356	0.300185
C68	C	0.735501	0.598504	0.402038
C69	C	0.956101	0.700321	0.300209
C70	C	1.030971	0.598456	0.402071
C71	C	0.514902	1.300600	-0.300050
C72	C	0.440033	1.402465	-0.401911
C73	C	0.514902	1.300601	0.000055
C74	C	0.440033	1.402466	0.000047
C75	C	0.735502	1.300565	-0.300025
C76	C	0.735503	1.402418	-0.401878
C77	C	1.023054	0.550625	-0.058499
C78	C	1.093395	0.454925	-0.058514
C79	C	1.171652	0.407051	0.000091
C80	C	1.179568	0.454890	0.058705
C81	C	1.109227	0.550595	0.058713
C82	C	1.109214	0.550612	0.391309
C83	C	1.179569	0.454913	0.487009
C84	C	1.171678	0.407053	0.593470
C85	C	1.093426	0.454906	0.604230
C86	C	1.023073	0.550610	0.508530
C87	C	0.361790	1.450320	-0.391149
C88	C	0.291435	1.546049	-0.486850
C89	C	0.299326	1.593915	-0.593311
C90	C	0.377578	1.546055	-0.604070
C91	C	0.447930	1.450335	-0.508371
C92	C	0.447950	1.450306	0.058649
C93	C	0.377608	1.546032	0.058637
C94	C	0.299351	1.593910	0.000029
C95	C	0.291436	1.546066	-0.058581
C96	C	0.361776	1.450348	-0.058575
C97	C	0.776438	0.553088	0.503143
C98	C	0.776439	0.447818	0.608415
H99	H	0.700456	0.559447	0.047758
O100	O	1.255651	0.408191	0.115620
C101	C	1.316028	0.313483	0.103017
H102	H	1.288594	0.271665	0.081417
H103	H	1.370277	0.232940	0.184586
H104	H	1.338035	0.359259	0.032860
O105	O	0.693626	0.449223	0.056797
C106	C	0.633189	0.583330	-0.018499
H107	H	0.651303	0.623824	-0.095643
H108	H	0.628017	0.632964	0.023951
H109	H	0.571377	0.601644	-0.044689
O110	O	1.116958	0.596839	0.287939
C111	C	1.160319	0.494663	0.275724
H112	H	1.199182	0.398955	0.361893
H113	H	1.202099	0.509085	0.225317
H114	H	1.114742	0.493327	0.230086
H115	H	0.811482	0.592145	0.511767
H116	H	0.811488	0.408760	0.695149
H117	H	0.221023	1.197653	-0.036415
H118	H	1.243278	0.415961	0.478229
H119	H	0.227726	1.585000	-0.478067
H120	H	1.228970	0.329124	0.671386
O121	O	0.693806	0.448978	0.494598
C122	C	0.749149	0.425559	0.435796
H123	H	0.805858	0.413543	0.472452
H124	H	0.717946	0.510613	0.343709
H125	H	0.768396	0.333588	0.443677
O126	O	0.097709	1.208262	-0.029182
C127	C	0.085638	1.127433	0.064070
H128	H	0.093963	1.047185	0.059211
H129	H	0.020762	1.186711	0.064091
H130	H	0.132425	1.083043	0.144314
H131	H	0.302113	0.978986	-0.140614
O132	O	1.085915	0.408219	0.707733
C133	C	1.164794	0.313508	0.789878
H134	H	1.211412	0.271679	0.752562
H135	H	1.164038	0.232973	0.863680
H136	H	1.182715	0.359284	0.819820
H137	H	0.959367	0.589552	0.517308
O138	O	1.116778	0.597214	0.115574
C139	C	1.037920	0.691920	0.103058
H140	H	0.991276	0.733823	0.023897
H141	H	1.038711	0.772405	0.096381
H142	H	1.020005	0.646118	0.178773
H143	H	0.104552	1.197413	-0.159966
H144	H	0.220526	1.197704	-0.160899
H145	H	0.185792	0.981026	-0.141990
O146	O	0.353966	1.404030	-0.287825
C147	C	0.269814	1.466797	-0.298871
H148	H	0.232303	1.563798	-0.384280
H149	H	0.260013	1.483305	-0.230244
H150	H	0.249077	1.404047	-0.291021
H151	H	0.511664	1.411331	0.106382
O152	O	0.215353	1.592676	-0.115406
C153	C	0.154976	1.687433	-0.102852
H154	H	0.182410	1.671704	-0.023705
H155	H	0.100726	1.679681	-0.096126
H156	H	0.132969	1.787535	-0.178573
H157	H	0.357375	0.825942	-0.002705
O158	O	0.818180	0.599849	-0.112468
C159	C	0.808898	0.694531	-0.099792
H160	H	0.750710	0.736301	-0.078204
H161	H	0.803938	0.775112	-0.181327
H162	H	0.864538	0.648743	-0.029600
H163	H	0.242033	1.671856	-0.671226
H164	H	0.241682	0.827113	-0.004077
H165	H	0.700450	0.559456	0.393414
H166	H	0.357702	0.827410	0.179002
O167	O	0.179901	0.982161	0.173689
C168	C	0.112123	0.974178	0.179184
H169	H	0.095976	0.964589	0.111106
H170	H	0.057076	1.065349	0.166135
H171	H	0.128507	0.886145	0.264752
O172	O	0.354182	1.403645	-0.115327
C173	C	0.392264	1.269552	-0.040077
H174	H	0.440218	1.228948	0.037051
H175	H	0.423482	1.219951	-0.082586
H176	H	0.343889	1.251326	-0.013849
H177	H	0.243239	0.823784	0.175019
O178	O	0.818242	0.401047	-0.112388
C179	C	0.808925	0.306368	-0.099764
H180	H	0.793051	0.264608	-0.020607
H181	H	0.868860	0.225778	-0.093010
H182	H	0.757334	0.352154	-0.175464
H183	H	0.383993	1.585040	-0.690762
H184	H	0.770547	0.905093	-0.511232
H185	H	0.511638	1.411372	-0.517146
H186	H	0.299866	0.982082	0.160645
O187	O	0.652679	1.225742	-0.711639
C188	C	0.614635	1.329309	-0.700761
H189	H	0.606060	1.295074	-0.615394
H190	H	0.552079	1.411246	-0.769455
H191	H	0.655001	1.365356	-0.708638
H192	H	0.659522	1.207211	-0.511607
H193	H	0.770552	0.905097	-0.393254
H194	H	0.959339	0.589603	-0.106236
O195	O	0.385353	1.592280	0.115763
C196	C	0.428764	1.490121	0.230152
H197	H	0.422873	1.408804	0.250879
H198	H	0.402056	1.526620	0.283174
H199	H	0.496463	1.452333	0.248901
O200	O	1.085549	0.408558	-0.115463
C201	C	1.001392	0.471352	-0.167191
H202	H	0.963893	0.510782	-0.121214
H203	H	0.991580	0.399568	-0.164033
H204	H	0.980651	0.554481	-0.258154
H205	H	1.228921	0.329121	0.000077
H206	H	0.242082	1.671850	0.000033
