data_functionalizedCrystal
_audit_creation_method	'MofGen! by Chris Wilmer'
_symmetry_space_group_name_H-M	'P1'
_symmetry_Int_Tables_number	1
_symmetry_cell_setting	triclinic
loop_
_symmetry_equiv_pos_as_xyz
  x,y,z
_cell_length_a	21.295417
_cell_length_b	21.295420
_cell_length_c	21.295411
_cell_angle_alpha	90.025571
_cell_angle_beta	89.978356
_cell_angle_gamma	89.972078
loop_
_atom_site_label
_atom_site_type_symbol
_atom_site_fract_x
_atom_site_fract_y
_atom_site_fract_z
Zn1	Zn	-0.250724	-0.962355	-0.355928
Zn2	Zn	0.249276	-0.462355	0.144072
Zn3	Zn	-0.355976	-0.962258	-0.250654
Zn4	Zn	0.144024	-0.462258	0.249346
Zn5	Zn	-0.250720	-0.857079	-0.250672
Zn6	Zn	0.249280	-0.357079	0.249328
Zn7	Zn	-0.355955	-0.857048	-0.355884
Zn8	Zn	0.144045	-0.357048	0.144116
O9	O	-0.303344	-0.909685	-0.303284
O10	O	0.196656	-0.409685	0.196716
O11	O	-0.264697	-1.050432	-0.341975
O12	O	0.235303	-0.550432	0.158025
O13	O	-0.342021	-0.948277	-0.162567
O14	O	0.157979	-0.448277	0.337433
O15	O	-0.162631	-0.871097	-0.264660
O16	O	0.337369	-0.371097	0.235340
O17	O	-0.342025	-1.050360	-0.264630
O18	O	0.157975	-0.550360	0.235370
O19	O	-0.162634	-0.948444	-0.341992
O20	O	0.337366	-0.448444	0.158008
O21	O	-0.264690	-0.871003	-0.162580
O22	O	0.235310	-0.371003	0.337420
O23	O	-0.264669	-0.768985	-0.264617
O24	O	0.235331	-0.268985	0.235383
O25	O	-0.341989	-0.871045	-0.443979
O26	O	0.158011	-0.371045	0.056021
O27	O	-0.341985	-0.768963	-0.341916
O28	O	0.158015	-0.268963	0.158084
O29	O	-0.264676	-0.948414	-0.444012
O30	O	0.235324	-0.448414	0.055988
O31	O	-0.444063	-0.948248	-0.264587
O32	O	0.055937	-0.448248	0.235413
O33	O	-0.444047	-0.870951	-0.341898
O34	O	0.055953	-0.370951	0.158102
C35	C	-0.303324	-0.746133	-0.303264
C36	C	0.196676	-0.246133	0.196736
C37	C	-0.303331	-0.676165	-0.303270
C38	C	0.196669	-0.176165	0.196730
C39	C	-0.466895	-0.909602	-0.303249
C40	C	0.033105	-0.409602	0.196751
C41	C	-0.536864	-0.909625	-0.303256
C42	C	-0.036864	-0.409625	0.196744
C43	C	-0.343665	-0.176712	-0.343484
C44	C	0.156335	0.323288	0.156516
C45	C	-0.343667	-0.242454	-0.343478
C46	C	0.156333	0.257546	0.156522
C47	C	-0.303349	-0.275326	-0.303294
C48	C	0.196651	0.224674	0.196706
C49	C	-0.263038	-0.242449	-0.263102
C50	C	0.236962	0.257551	0.236898
C51	C	-0.263043	-0.176708	-0.263104
C52	C	0.236957	0.323292	0.236896
N53	N	-0.248233	-0.378566	-0.298563
N54	N	0.251767	0.121434	0.201437
N55	N	-0.248231	-0.441018	-0.298565
N56	N	0.251769	0.058982	0.201435
C57	C	-0.303334	-0.473400	-0.303284
C58	C	0.196666	0.026600	0.196716
N59	N	-0.358441	-0.440972	-0.308014
N60	N	0.141559	0.059028	0.191986
N61	N	-0.358443	-0.378515	-0.308016
N62	N	0.141557	0.121485	0.191984
C63	C	-0.303340	-0.346611	-0.303287
C64	C	0.196660	0.153389	0.196713
C65	C	-0.343646	-0.577555	-0.343465
C66	C	0.156354	-0.077555	0.156535
C67	C	-0.343649	-0.643298	-0.343455
C68	C	0.156351	-0.143298	0.156545
C69	C	-0.263015	-0.643292	-0.263082
C70	C	0.236985	-0.143292	0.236918
C71	C	-0.263018	-0.577549	-0.263089
C72	C	0.236982	-0.077549	0.236911
C73	C	-0.303333	-0.544685	-0.303283
C74	C	0.196667	-0.044685	0.196717
C75	C	-0.569717	-0.949909	-0.263041
C76	C	-0.069717	-0.449909	0.236959
C77	C	-0.635460	-0.949939	-0.263055
C78	C	-0.135460	-0.449939	0.236945
C79	C	-0.668346	-0.909672	-0.303277
C80	C	-0.168346	-0.409672	0.196723
C81	C	-0.635484	-0.869385	-0.343500
C82	C	-0.135484	-0.369385	0.156500
C83	C	-0.569743	-0.869361	-0.343489
C84	C	-0.069743	-0.369361	0.156511
N85	N	-0.771610	-0.854605	-0.308069
N86	N	-0.271610	-0.354605	0.191931
N87	N	-0.834062	-0.854630	-0.308076
N88	N	-0.334062	-0.354630	0.191924
C89	C	-0.866421	-0.909743	-0.303313
C90	C	-0.366421	-0.409743	0.196687
N91	N	-0.833969	-0.964832	-0.298532
N92	N	-0.333969	-0.464832	0.201468
N93	N	-0.771512	-0.964807	-0.298522
N94	N	-0.271512	-0.464807	0.201478
C95	C	-0.739631	-0.909694	-0.303294
C96	C	-0.239631	-0.409694	0.196706
C97	C	-0.970560	-0.950063	-0.263112
C98	C	-0.470560	-0.450063	0.236888
C99	C	-1.036304	-0.950093	-0.263130
C100	C	-0.536304	-0.450093	0.236870
C101	C	-1.036327	-0.869534	-0.343572
C102	C	-0.536327	-0.369534	0.156428
C103	C	-0.970584	-0.869509	-0.343557
C104	C	-0.470584	-0.369509	0.156443
C105	C	-0.937705	-0.909773	-0.303323
C106	C	-0.437705	-0.409773	0.196677
C107	C	-0.139154	-0.909785	-0.303333
C108	C	0.360846	-0.409785	0.196667
C109	C	-0.069185	-0.909827	-0.303354
C110	C	0.430815	-0.409827	0.196646
C111	C	-0.303331	-0.909737	-0.467475
C112	C	0.196669	-0.409737	0.032525
C113	C	-0.303325	-0.909759	-0.537443
C114	C	0.196675	-0.409759	-0.037443
C115	C	-0.303360	-0.073875	-0.303302
C116	C	0.196640	0.426125	0.196698
C117	C	-0.303358	-0.143843	-0.303299
C118	C	0.196642	0.356157	0.196701
C119	C	-0.263067	-0.950044	-0.570328
C120	C	0.236933	-0.450044	-0.070328
C121	C	-0.263039	-0.950043	-0.636070
C122	C	0.236961	-0.450043	-0.136070
C123	C	-0.303282	-0.909764	-0.668925
C124	C	0.196718	-0.409764	-0.168925
C125	C	-0.343543	-0.869472	-0.636033
C126	C	0.156457	-0.369472	-0.136033
C127	C	-0.343564	-0.869470	-0.570291
C128	C	0.156436	-0.369470	-0.070291
N129	N	-0.358349	-0.904908	-0.772141
N130	N	0.141651	-0.404908	-0.272141
N131	N	-0.358327	-0.904914	-0.834592
N132	N	0.141673	-0.404914	-0.334592
C133	C	-0.303218	-0.909768	-0.867000
C134	C	0.196782	-0.409768	-0.367000
N135	N	-0.248131	-0.914629	-0.834598
N136	N	0.251869	-0.414629	-0.334598
N137	N	-0.248154	-0.914626	-0.772140
N138	N	0.251846	-0.414626	-0.272140
C139	C	-0.303262	-0.909762	-0.740211
C140	C	0.196738	-0.409762	-0.240211
C141	C	-0.262926	-0.950054	-0.971171
C142	C	0.237074	-0.450054	-0.471171
C143	C	-0.262898	-0.950048	-1.036914
C144	C	0.237102	-0.450048	-0.536914
C145	C	-0.343407	-0.869481	-1.036876
C146	C	0.156593	-0.369481	-0.536876
C147	C	-0.343430	-0.869483	-0.971133
C148	C	0.156570	-0.369483	-0.471133
C149	C	-0.303190	-0.909773	-0.938285
C150	C	0.196810	-0.409773	-0.438285
C151	C	-0.303312	-0.909669	-0.139733
C152	C	0.196688	-0.409669	0.360267
C153	C	-0.303140	-0.909769	-0.069765
C154	C	0.196860	-0.409769	0.430235
H155	H	-0.376490	-0.269221	-0.376203
H156	H	0.123510	0.230779	0.123797
N157	N	-0.937023	-0.828363	-0.384642
N158	N	-0.437023	-0.328363	0.115358
N159	N	-0.944333	-0.832516	-0.442733
N160	N	-0.444333	-0.332516	0.057267
H161	H	-0.920631	-0.803456	-0.471754
H162	H	-0.420631	-0.303456	0.028246
N163	N	-0.221832	-0.676851	-0.222025
N164	N	0.278168	-0.176851	0.277975
N165	N	-0.225926	-0.669475	-0.163933
N166	N	0.274074	-0.169475	0.336067
H167	H	-0.196841	-0.693178	-0.134933
H168	H	0.303159	-0.193178	0.365067
N169	N	-0.221948	-0.991182	-0.536777
N170	N	0.278052	-0.491182	-0.036777
N171	N	-0.181840	-0.969055	-0.500092
N172	N	0.318160	-0.469055	-0.000092
H173	H	-0.152797	-0.998108	-0.476396
H174	H	0.347203	-0.498108	0.023604
N175	N	-0.221862	-0.276033	-0.222055
N176	N	0.278138	0.223967	0.277945
N177	N	-0.221863	-0.334730	-0.222059
N178	N	0.278137	0.165270	0.277941
H179	H	-0.192784	-0.358449	-0.193066
H180	H	0.307216	0.141551	0.306934
N181	N	-0.536170	-0.828208	-0.384561
N182	N	-0.036170	-0.328208	0.115439
N183	N	-0.477474	-0.828191	-0.384543
N184	N	0.022526	-0.328191	0.115457
H185	H	-0.453761	-0.799127	-0.413550
H186	H	0.046239	-0.299127	0.086450
H187	H	-1.063102	-0.836752	-0.376325
H188	H	-0.563102	-0.336752	0.123675
N189	N	-0.384700	-0.828329	-0.536696
N190	N	0.115300	-0.328329	-0.036696
N191	N	-0.424829	-0.850454	-0.500022
N192	N	0.075171	-0.350454	-0.000022
H193	H	-0.453883	-0.821399	-0.476294
H194	H	0.046117	-0.321399	0.023706
N195	N	-0.221906	-0.991193	-0.669661
N196	N	0.278094	-0.491193	-0.169661
N197	N	-0.185979	-1.027158	-0.640324
N198	N	0.314021	-0.527158	-0.140324
H199	H	-0.156927	-1.056220	-0.664045
H200	H	0.343073	-0.556220	-0.164045
N201	N	-0.221840	-0.543981	-0.222037
N202	N	0.278160	-0.043981	0.277963
N203	N	-0.185846	-0.573335	-0.186158
N204	N	0.314154	-0.073335	0.313842
H205	H	-0.156764	-0.549627	-0.157161
H206	H	0.343236	-0.049627	0.342839
N207	N	-0.669084	-0.828253	-0.384577
N208	N	-0.169084	-0.328253	0.115423
N209	N	-0.705813	-0.788164	-0.362394
N210	N	-0.205813	-0.288164	0.137606
H211	H	-0.729544	-0.759114	-0.391407
H212	H	-0.229544	-0.259114	0.108593
N213	N	-0.936980	-0.991193	-0.222012
N214	N	-0.436980	-0.491193	0.277988
N215	N	-0.966325	-1.027163	-0.186111
N216	N	-0.466325	-0.527163	0.313889
H217	H	-0.942611	-1.056212	-0.157084
H218	H	-0.442611	-0.556212	0.342916
N219	N	-0.384643	-0.828317	-0.669584
N220	N	0.115357	-0.328317	-0.169584
N221	N	-0.380453	-0.770234	-0.662218
N222	N	0.119547	-0.270234	-0.162218
H223	H	-0.409477	-0.741162	-0.685914
H224	H	0.090523	-0.241162	-0.185914
H225	H	-0.376216	-0.836683	-0.944358
H226	H	0.123784	-0.336683	-0.444358
N227	N	-0.221818	-0.991207	-0.937622
N228	N	0.278182	-0.491207	-0.437622
N229	N	-0.185869	-1.027169	-0.966994
N230	N	0.314131	-0.527169	-0.466994
H231	H	-0.156835	-1.056234	-0.943303
H232	H	0.343165	-0.556234	-0.443303
N233	N	-1.069854	-0.991248	-0.222042
N234	N	-0.569854	-0.491248	0.277958
N235	N	-1.062547	-0.987094	-0.163951
N236	N	-0.562547	-0.487094	0.336049
H237	H	-1.086241	-1.016161	-0.134931
H238	H	-0.586241	-0.516161	0.365069
N239	N	-0.221865	-0.143139	-0.222049
N240	N	0.278135	0.356861	0.277951
N241	N	-0.185873	-0.172492	-0.186169
N242	N	0.314127	0.327508	0.313831
H243	H	-0.156790	-0.148784	-0.157173
H244	H	0.343210	0.351216	0.342827
H245	H	-0.542949	-0.982695	-0.230281
H246	H	-0.042949	-0.482695	0.269719
N247	N	-0.221780	-0.991200	-1.070517
N248	N	0.278220	-0.491200	-0.570517
N249	N	-0.221764	-0.991195	-1.129214
N250	N	0.278236	-0.491195	-0.629214
H251	H	-0.192724	-1.020259	-1.152948
H252	H	0.307276	-0.520259	-0.652948
H253	H	-0.376495	-0.149958	-0.376211
H254	H	0.123505	0.350042	0.123789
H255	H	-0.662215	-0.982745	-0.230307
H256	H	-0.162215	-0.482745	0.269693
N257	N	-0.384504	-0.828335	-1.070438
N258	N	0.115496	-0.328335	-0.570438
N259	N	-0.384477	-0.828338	-1.129135
N260	N	0.115523	-0.328338	-0.629135
H261	H	-0.413501	-0.799276	-1.152842
H262	H	0.086499	-0.299276	-0.652842
H263	H	-0.376477	-0.670059	-0.376176
H264	H	0.123523	-0.170059	0.123824
N265	N	-0.384830	-0.543989	-0.384523
N266	N	0.115170	-0.043989	0.115477
N267	N	-0.420823	-0.573348	-0.420396
N268	N	0.079177	-0.073348	0.079604
H269	H	-0.449910	-0.549645	-0.449394
H270	H	0.050090	-0.049645	0.050606
