data_functionalizedCrystal
_audit_creation_method	'MofGen! by Chris Wilmer'
_symmetry_space_group_name_H-M	'P1'
_symmetry_Int_Tables_number	1
_symmetry_cell_setting	triclinic
loop_
_symmetry_equiv_pos_as_xyz
  x,y,z
_cell_length_a	16.974800
_cell_length_b	14.519731
_cell_length_c	15.455313
_cell_angle_alpha	92.669259
_cell_angle_beta	90.973911
_cell_angle_gamma	83.539176
loop_
_atom_site_label
_atom_site_type_symbol
_atom_site_fract_x
_atom_site_fract_y
_atom_site_fract_z
O1	O	1.049248	0.117561	0.001549
O2	O	1.382581	0.450894	0.334882
O3	O	1.715915	0.784227	0.668216
O4	O	0.819836	0.131644	-0.014563
O5	O	1.153169	0.464978	0.318770
O6	O	1.486503	0.798311	0.652104
O7	O	0.940615	-0.009630	-0.006073
O8	O	1.273949	0.323703	0.327261
O9	O	1.607282	0.657037	0.660594
O10	O	0.928469	0.258835	-0.006941
O11	O	1.261802	0.592169	0.326392
O12	O	1.595135	0.925502	0.659725
O13	O	0.933709	-0.001585	0.137704
O14	O	1.267042	0.331749	0.471037
O15	O	1.600375	0.665082	0.804371
O16	O	0.812929	0.139690	0.129214
O17	O	1.146263	0.473023	0.462547
O18	O	1.479596	0.806357	0.795880
O19	O	1.042341	0.125606	0.145326
O20	O	1.375675	0.458940	0.478659
O21	O	1.709008	0.792273	0.811992
Cu22	Cu	0.927005	0.133383	0.150397
Cu23	Cu	1.260338	0.466716	0.483731
Cu24	Cu	1.593671	0.800049	0.817064
Cu25	Cu	0.935173	0.123868	-0.019635
Cu26	Cu	1.268506	0.457201	0.313698
Cu27	Cu	1.601839	0.790535	0.647032
O28	O	0.921562	0.266881	0.136835
O29	O	1.254895	0.600214	0.470168
O30	O	1.588229	0.933547	0.803502
C31	C	0.787022	0.134984	0.055263
C32	C	1.120356	0.468317	0.388597
C33	C	1.453689	0.801651	0.721930
C34	C	0.699538	0.132938	0.049119
C35	C	1.032871	0.466271	0.382453
C36	C	1.366204	0.799604	0.715786
C37	C	0.654677	0.136360	0.124607
C38	C	0.988010	0.469693	0.457941
C39	C	1.321344	0.803026	0.791274
C40	C	0.572477	0.134422	0.118837
C41	C	0.905811	0.467756	0.452170
C42	C	1.239144	0.801089	0.785504
C43	C	0.535139	0.129070	0.037578
C44	C	0.868473	0.462403	0.370911
C45	C	1.201806	0.795736	0.704244
C46	C	0.580006	0.125645	-0.037916
C47	C	0.913340	0.458978	0.295417
C48	C	1.246673	0.792311	0.628751
C49	C	0.662205	0.127575	-0.032145
C50	C	0.995538	0.460909	0.301188
C51	C	1.328872	0.794242	0.634522
C52	C	0.289706	0.122818	0.011913
C53	C	0.623039	0.456152	0.345246
C54	C	0.956372	0.789485	0.678580
C55	C	0.207501	0.120891	0.006147
C56	C	0.540834	0.454224	0.339481
C57	C	0.874167	0.787557	0.672814
C58	C	0.199978	0.129667	0.162901
C59	C	0.533311	0.463000	0.496235
C60	C	0.866644	0.796333	0.829568
C61	C	0.282178	0.131603	0.168665
C62	C	0.615511	0.464936	0.501999
C63	C	0.948844	0.798269	0.835332
C64	C	0.327038	0.128173	0.093172
C65	C	0.660371	0.461506	0.426505
C66	C	0.993705	0.794839	0.759838
N67	N	0.451118	0.127092	0.031677
N68	N	0.784451	0.460425	0.365011
N69	N	1.117785	0.793759	0.698344
N70	N	0.411059	0.130144	0.099073
N71	N	0.744392	0.463477	0.432406
N72	N	1.077725	0.796810	0.765740
C73	C	0.936593	-0.039967	0.065776
C74	C	1.269926	0.293366	0.399109
C75	C	1.603259	0.626700	0.732443
C76	C	0.934887	-0.142348	0.065657
C77	C	1.268221	0.190985	0.398990
C78	C	1.601554	0.524318	0.732323
C79	C	0.933501	-0.225494	0.065557
C80	C	1.266835	0.107840	0.398891
C81	C	1.600168	0.441173	0.732224
C82	C	0.931770	-0.329804	0.065429
C83	C	1.265103	0.003529	0.398762
C84	C	1.598437	0.336863	0.732096
C85	C	0.930396	-0.412944	0.065327
C86	C	1.263729	-0.079611	0.398660
C87	C	1.597063	0.253722	0.731994
C88	C	0.928665	-0.517261	0.065200
C89	C	1.261998	-0.183928	0.398534
C90	C	1.595331	0.149406	0.731867
C91	C	1.075155	0.122266	0.075497
C92	C	1.408488	0.455600	0.408831
C93	C	1.741822	0.788933	0.742164
C94	C	1.162640	0.124313	0.081636
C95	C	1.495973	0.457646	0.414969
C96	C	1.829307	0.790979	0.748302
C97	C	0.925585	0.297218	0.064985
C98	C	1.258918	0.630551	0.398318
C99	C	1.592251	0.963884	0.731651
C100	C	0.927290	0.399599	0.065098
C101	C	1.260624	0.732932	0.398432
C102	C	1.593957	1.066265	0.731765
N103	N	0.921265	0.140074	0.269990
N104	N	1.254599	0.473407	0.603323
N105	N	1.587932	0.806741	0.936656
N106	N	0.940918	0.117169	-0.139227
N107	N	1.274251	0.450503	0.194107
N108	N	1.607585	0.783836	0.527440
C109	C	0.972595	0.080078	0.318992
C110	C	1.305928	0.413411	0.652325
C111	C	1.639261	0.746745	0.985659
C112	C	0.968262	0.085147	0.409495
C113	C	1.301595	0.418480	0.742829
C114	C	1.634928	0.751814	1.076162
C115	C	0.912603	0.150217	0.450995
C116	C	1.245936	0.483551	0.784328
C117	C	1.579269	0.816884	1.117661
C118	C	0.861268	0.210216	0.401986
C119	C	1.194601	0.543549	0.735319
C120	C	1.527935	0.876883	1.068652
C121	C	0.865598	0.205142	0.311484
C122	C	1.198931	0.538475	0.644817
C123	C	1.532264	0.871809	0.978150
C124	C	0.893913	0.172094	0.721262
C125	C	1.227247	0.505427	1.054596
C126	C	1.560580	0.838761	1.387929
C127	C	0.889589	0.177165	0.811771
C128	C	1.222922	0.510499	1.145104
C129	C	1.556256	0.843832	1.478438
C130	C	0.996582	0.052095	0.819274
C131	C	1.329915	0.385428	1.152608
C132	C	1.663249	0.718761	1.485941
C133	C	1.000910	0.047030	0.728771
C134	C	1.334244	0.380363	1.062104
C135	C	1.667577	0.713697	1.395437
C136	C	0.949573	0.107026	0.679769
C137	C	1.282906	0.440359	1.013103
C138	C	1.616239	0.773692	1.346436
N139	N	0.908174	0.155402	0.543504
N140	N	1.241507	0.488735	0.876837
N141	N	1.574840	0.822069	1.210170
N142	N	0.953998	0.101836	0.587262
N143	N	1.287332	0.435169	0.920595
N144	N	1.620665	0.768502	1.253928
H145	H	0.535957	0.137193	0.180308
H146	H	0.869290	0.470527	0.513641
H147	H	1.202624	0.803860	0.846974
H148	H	1.010057	0.036293	0.449393
H149	H	1.343391	0.369626	0.782726
H150	H	1.676724	0.702959	1.116060
H151	H	0.815945	0.263195	0.435779
H152	H	1.149278	0.596528	0.769113
H153	H	1.482612	0.929861	1.102446
H154	H	0.852114	0.220947	0.681372
H155	H	1.185447	0.554280	1.014706
H156	H	1.518780	0.887613	1.348039
C157	C	1.062169	-0.024505	0.683126
C158	C	1.395502	0.308829	1.016459
C159	C	1.728835	0.642162	1.349792
H160	H	1.057412	-0.018914	0.622209
H161	H	1.390745	0.314419	0.955542
H162	H	1.724078	0.647752	1.288876
H163	H	1.052855	-0.085271	0.697342
H164	H	1.386188	0.248062	1.030675
H165	H	1.719522	0.581396	1.364009
H166	H	1.114051	-0.013432	0.701659
H167	H	1.447384	0.319901	1.034992
H168	H	1.780718	0.653235	1.368325
C169	C	1.053040	-0.013903	0.873177
C170	C	1.386374	0.319431	1.206510
C171	C	1.719707	0.652764	1.539843
H172	H	1.042488	-0.001570	0.933020
H173	H	1.375821	0.331764	1.266353
H174	H	1.709155	0.665097	1.599686
H175	H	1.106357	-0.004552	0.862025
H176	H	1.439690	0.328782	1.195358
H177	H	1.773024	0.662115	1.528691
H178	H	1.045095	-0.076313	0.857747
H179	H	1.378428	0.257021	1.191080
H180	H	1.711761	0.590354	1.524414
H181	H	0.844262	0.230157	0.845555
H182	H	1.177596	0.563491	1.178888
H183	H	1.510929	0.896824	1.512222
C184	C	0.711551	0.123818	-0.115182
C185	C	1.044884	0.457151	0.218152
C186	C	1.378218	0.790484	0.551485
H187	H	0.677542	0.120362	-0.164404
H188	H	1.010875	0.453696	0.168929
H189	H	1.344208	0.787029	0.502263
H190	H	0.749708	0.070660	-0.115770
H191	H	1.083041	0.403993	0.217563
H192	H	1.416374	0.737327	0.550897
H193	H	0.737837	0.178125	-0.116607
H194	H	1.071171	0.511459	0.216727
H195	H	1.404504	0.844792	0.550060
H196	H	0.549600	0.121280	-0.104079
H197	H	0.882933	0.454613	0.229254
H198	H	1.216267	0.787946	0.562587
C199	C	0.695744	0.142231	0.213994
C200	C	1.029077	0.475564	0.547327
C201	C	1.362410	0.808898	0.880660
H202	H	0.657252	0.143978	0.258125
H203	H	0.990585	0.477311	0.591458
H204	H	1.323919	0.810644	0.924791
H205	H	0.721726	0.196891	0.219097
H206	H	1.055059	0.530224	0.552430
H207	H	1.388392	0.863557	0.885763
H208	H	0.733582	0.089424	0.219912
H209	H	1.066915	0.422757	0.553245
H210	H	1.400248	0.756091	0.886579
C211	C	0.323242	0.137513	0.258051
C212	C	0.656575	0.470846	0.591384
C213	C	0.989908	0.804180	0.924717
H214	H	0.284751	0.139274	0.302184
H215	H	0.618084	0.472608	0.635517
H216	H	0.951417	0.805941	0.968850
H217	H	0.349210	0.192184	0.263123
H218	H	0.682543	0.525518	0.596456
H219	H	1.015876	0.858851	0.929789
H220	H	0.361091	0.084721	0.263995
H221	H	0.694424	0.418055	0.597329
H222	H	1.027757	0.751388	0.930662
C223	C	0.809139	0.271141	0.257581
C224	C	1.142472	0.604475	0.590915
C225	C	1.475806	0.937808	0.924248
H226	H	0.775375	0.310628	0.295257
H227	H	1.108708	0.643961	0.628591
H228	H	1.442042	0.977295	0.961924
H229	H	0.777978	0.235880	0.219983
H230	H	1.111311	0.569214	0.553316
H231	H	1.444645	0.902547	0.886649
H232	H	0.839235	0.307648	0.224259
H233	H	1.172568	0.640981	0.557592
H234	H	1.505902	0.974314	0.890926
H235	H	0.163444	0.132458	0.224364
H236	H	0.496777	0.465791	0.557697
H237	H	0.830110	0.799124	0.891031
C238	C	0.166427	0.114999	-0.083240
C239	C	0.499760	0.448332	0.250094
C240	C	0.833093	0.781666	0.583427
H241	H	0.111046	0.114352	-0.075861
H242	H	0.444379	0.447685	0.257472
H243	H	0.777713	0.781018	0.590805
H244	H	0.187372	0.059782	-0.114077
H245	H	0.520705	0.393115	0.219256
H246	H	0.854039	0.726448	0.552590
H247	H	0.175511	0.167247	-0.114919
H248	H	0.508844	0.500580	0.218415
H249	H	0.842178	0.833914	0.551748
C250	C	0.339041	0.119056	-0.071127
C251	C	0.672374	0.452389	0.262206
C252	C	1.005707	0.785723	0.595540
H253	H	0.305027	0.115603	-0.120346
H254	H	0.638360	0.448936	0.212987
H255	H	0.971694	0.782270	0.546321
H256	H	0.377196	0.065898	-0.071719
H257	H	0.710530	0.399231	0.261614
H258	H	1.043863	0.732564	0.594947
H259	H	0.365328	0.173363	-0.072554
H260	H	0.698661	0.506697	0.260780
H261	H	1.031994	0.840030	0.594113
C262	C	1.033819	0.008499	0.273350
C263	C	1.367152	0.341832	0.606684
C264	C	1.700486	0.675165	0.940017
H265	H	1.063762	-0.026512	0.315500
H266	H	1.397096	0.306821	0.648833
H267	H	1.730429	0.640154	0.982166
H268	H	1.068360	0.039798	0.240337
H269	H	1.401693	0.373131	0.573670
H270	H	1.735026	0.706464	0.907004
H271	H	1.007100	-0.031966	0.236067
H272	H	1.340433	0.301367	0.569400
H273	H	1.673766	0.634700	0.902734
