data_functionalizedCrystal
_audit_creation_method	'MofGen! by Chris Wilmer'
_symmetry_space_group_name_H-M	'P1'
_symmetry_Int_Tables_number	1
_symmetry_cell_setting	triclinic
loop_
_symmetry_equiv_pos_as_xyz
  x,y,z
_cell_length_a	12.827893
_cell_length_b	16.120444
_cell_length_c	12.827885
_cell_angle_alpha	92.864681
_cell_angle_beta	89.980538
_cell_angle_gamma	92.926466
loop_
_atom_site_label
_atom_site_type_symbol
_atom_site_fract_x
_atom_site_fract_y
_atom_site_fract_z
Zn1	Zn	1.576498	-0.331868	-0.611901
Zn2	Zn	1.567496	-0.471303	-0.446006
Zn3	Zn	1.401736	-0.331908	-0.437177
Zn4	Zn	1.392833	-0.471241	-0.620702
O5	O	1.484641	-0.401580	-0.528946
O6	O	1.721539	-0.350373	-0.589906
O7	O	1.545466	-0.452855	-0.298601
O8	O	1.432413	-0.215237	-0.452976
O9	O	1.714925	-0.452816	-0.468024
O10	O	1.560809	-0.215207	-0.581345
O11	O	1.423683	-0.350442	-0.292115
O12	O	1.254320	-0.350382	-0.461510
O13	O	1.417238	-0.452710	-0.765768
O14	O	1.247778	-0.452750	-0.596346
O15	O	1.552176	-0.350313	-0.759302
O16	O	1.536832	-0.587961	-0.476558
O17	O	1.408508	-0.587915	-0.604907
C18	C	1.213132	-0.401564	-0.528926
C19	C	1.096978	-0.401577	-0.528943
C20	C	1.470756	-0.618188	-0.542669
C21	C	1.464911	-0.710854	-0.548574
C22	C	1.041979	-0.452311	-0.595570
C23	C	0.921927	-0.452326	-0.595590
C24	C	1.515215	-0.921799	-0.498537
C25	C	1.454260	-0.880510	-0.559367
C26	C	1.460188	-0.786105	-0.553360
C27	C	1.509288	-1.016213	-0.504543
C28	C	1.757210	-0.401597	-0.528968
C29	C	1.873362	-0.401604	-0.528977
C30	C	1.484718	-0.401500	-0.801512
C31	C	1.484751	-0.401466	-0.917663
C32	C	1.498608	-0.184126	-0.515194
C33	C	1.504561	-0.091460	-0.509333
C34	C	1.424510	-0.350779	-0.966237
C35	C	1.424542	-0.350742	-1.086285
C36	C	1.484628	-0.401600	-0.257438
C37	C	1.484812	-0.401399	-0.141272
H38	H	1.083770	-0.495732	-0.652602
H39	H	1.536394	-0.444793	-1.099494
C40	C	0.858050	-0.511007	-0.672655
N41	N	0.809934	-0.555207	-0.730704
H42	H	1.372907	-0.307414	-0.918948
H43	H	1.536348	-0.444835	-0.964952
H44	H	0.920641	-0.358170	-0.471928
C45	C	1.040526	-0.342910	-0.451898
N46	N	0.998007	-0.298721	-0.393864
H47	H	1.372973	-0.307344	-1.128070
C48	C	1.591717	-0.873770	-0.422084
N49	N	1.649333	-0.837586	-0.364496
C50	C	1.377737	-0.928539	-0.635809
N51	N	1.320098	-0.964718	-0.693380
