data_functionalizedCrystal
_audit_creation_method	'MofGen! by Chris Wilmer'
_symmetry_space_group_name_H-M	'P1'
_symmetry_Int_Tables_number	1
_symmetry_cell_setting	triclinic
loop_
_symmetry_equiv_pos_as_xyz
  x,y,z
_cell_length_a	16.120484
_cell_length_b	16.120566
_cell_length_c	16.625539
_cell_angle_alpha	92.920705
_cell_angle_beta	92.868615
_cell_angle_gamma	89.831930
loop_
_atom_site_label
_atom_site_type_symbol
_atom_site_fract_x
_atom_site_fract_y
_atom_site_fract_z
Zn1	Zn	-0.395590	-1.254482	-0.536801
Zn2	Zn	-0.145590	-1.004482	-0.286801
Zn3	Zn	0.104410	-0.754482	-0.036801
Zn4	Zn	0.354410	-0.504482	0.213199
Zn5	Zn	-0.534650	-1.247323	-0.408429
Zn6	Zn	-0.284650	-0.997323	-0.158429
Zn7	Zn	-0.034650	-0.747323	0.091571
Zn8	Zn	0.215350	-0.497323	0.341571
Zn9	Zn	-0.388559	-1.115420	-0.394818
Zn10	Zn	-0.138559	-0.865420	-0.144818
Zn11	Zn	0.111441	-0.615420	0.105182
Zn12	Zn	0.361441	-0.365420	0.355182
Zn13	Zn	-0.527544	-1.108334	-0.536055
Zn14	Zn	-0.277544	-0.858334	-0.286055
Zn15	Zn	-0.027544	-0.608334	-0.036055
Zn16	Zn	0.222456	-0.358334	0.213945
O17	O	-0.461586	-1.181390	-0.469026
O18	O	-0.211586	-0.931390	-0.219026
O19	O	0.038414	-0.681390	0.030974
O20	O	0.288414	-0.431390	0.280974
O21	O	-0.419952	-1.369898	-0.525780
O22	O	-0.169952	-1.119898	-0.275780
O23	O	0.080048	-0.869898	-0.025780
O24	O	0.330048	-0.619898	0.224220
O25	O	-0.515303	-1.229795	-0.293791
O26	O	-0.265303	-0.979795	-0.043791
O27	O	-0.015303	-0.729795	0.206209
O28	O	0.234697	-0.479795	0.456209
O29	O	-0.273129	-1.139828	-0.408268
O30	O	-0.023129	-0.889828	-0.158268
O31	O	0.226871	-0.639828	0.091732
O32	O	0.476871	-0.389828	0.341732
O33	O	-0.522120	-1.364639	-0.431466
O34	O	-0.272120	-1.114639	-0.181466
O35	O	-0.022120	-0.864639	0.068534
O36	O	0.227880	-0.614639	0.318534
O37	O	-0.278294	-1.241996	-0.512582
O38	O	-0.028294	-0.991996	-0.262582
O39	O	0.221706	-0.741996	-0.012582
O40	O	0.471706	-0.491996	0.237418
O41	O	-0.407970	-1.132886	-0.283791
O42	O	-0.157970	-0.882886	-0.033791
O43	O	0.092030	-0.632886	0.216209
O44	O	0.342030	-0.382886	0.466209
O45	O	-0.401080	-0.998114	-0.407545
O46	O	-0.151080	-0.748114	-0.157545
O47	O	0.098920	-0.498114	0.092455
O48	O	0.348920	-0.248114	0.342455
O49	O	-0.510008	-1.127752	-0.648987
O50	O	-0.260008	-0.877752	-0.398987
O51	O	-0.010008	-0.627752	-0.148987
O52	O	0.239992	-0.377752	0.101013
O53	O	-0.503191	-0.992908	-0.511312
O54	O	-0.253191	-0.742908	-0.261312
O55	O	-0.003191	-0.492908	-0.011312
O56	O	0.246809	-0.242908	0.238688
O57	O	-0.413062	-1.235126	-0.649534
O58	O	-0.163062	-0.985126	-0.399534
O59	O	0.086938	-0.735126	-0.149534
O60	O	0.336938	-0.485126	0.100466
O61	O	-0.650071	-1.222925	-0.430743
O62	O	-0.400071	-0.972925	-0.180743
O63	O	-0.150071	-0.722925	0.069257
O64	O	0.099929	-0.472925	0.319257
O65	O	-0.644850	-1.120810	-0.524510
O66	O	-0.394850	-0.870810	-0.274510
O67	O	-0.144850	-0.620810	-0.024510
O68	O	0.105150	-0.370810	0.225490
C69	C	-0.450602	-0.965339	-0.457871
C70	C	-0.200602	-0.715339	-0.207871
C71	C	0.049398	-0.465339	0.042129
C72	C	0.299398	-0.215339	0.292129
C73	C	-0.445923	-0.872910	-0.453119
C74	C	-0.195923	-0.622910	-0.203119
C75	C	0.054077	-0.372910	0.046881
C76	C	0.304077	-0.122910	0.296881
C77	C	-0.437361	-0.703683	-0.444450
C78	C	-0.187361	-0.453683	-0.194450
C79	C	0.062639	-0.203683	0.055550
C80	C	0.312639	0.046317	0.305550
C81	C	-0.485882	-0.659934	-0.493612
C82	C	-0.235882	-0.409934	-0.243612
C83	C	0.014118	-0.159934	0.006388
C84	C	0.264118	0.090066	0.256388
C85	C	-0.481118	-0.565770	-0.488788
C86	C	-0.231118	-0.315770	-0.238788
C87	C	0.018882	-0.065770	0.011212
C88	C	0.268882	0.184230	0.261212
C89	C	-0.442124	-0.797855	-0.449272
C90	C	-0.192124	-0.547855	-0.199272
C91	C	0.057876	-0.297855	0.050728
C92	C	0.307876	-0.047855	0.300728
C93	C	-0.677633	-1.170345	-0.479041
C94	C	-0.427633	-0.920345	-0.229041
C95	C	-0.177633	-0.670345	0.020959
C96	C	0.072367	-0.420345	0.270959
C97	C	-0.770063	-1.165695	-0.483357
C98	C	-0.520063	-0.915695	-0.233357
C99	C	-0.270063	-0.665695	0.016643
C100	C	-0.020063	-0.415695	0.266643
C101	C	-0.939294	-1.157212	-0.491253
C102	C	-0.689294	-0.907212	-0.241253
C103	C	-0.439294	-0.657212	0.008747
C104	C	-0.189294	-0.407212	0.258747
C105	C	-0.983045	-1.205716	-0.446820
C106	C	-0.733045	-0.955716	-0.196820
C107	C	-0.483045	-0.705716	0.053180
C108	C	-0.233045	-0.455716	0.303180
C109	C	-1.077210	-1.200996	-0.451213
C110	C	-0.827210	-0.950996	-0.201213
C111	C	-0.577210	-0.700996	0.048787
C112	C	-0.327210	-0.450996	0.298787
C113	C	-0.845120	-1.161931	-0.486861
C114	C	-0.595120	-0.911931	-0.236861
C115	C	-0.345120	-0.661931	0.013139
C116	C	-0.095120	-0.411931	0.263139
C117	C	-0.244696	-1.192501	-0.458990
C118	C	0.005304	-0.942501	-0.208990
C119	C	0.255304	-0.692501	0.041010
C120	C	0.505304	-0.442501	0.291010
C121	C	-0.152270	-1.197236	-0.454713
C122	C	0.097730	-0.947236	-0.204713
C123	C	0.347730	-0.697236	0.045287
C124	C	0.597730	-0.447236	0.295287
C125	C	-0.461527	-1.181447	-0.679335
C126	C	-0.211527	-0.931447	-0.429335
C127	C	0.038473	-0.681447	-0.179335
C128	C	0.288473	-0.431447	0.070665
C129	C	-0.461501	-1.181471	-0.768956
C130	C	-0.211501	-0.931471	-0.518956
C131	C	0.038499	-0.681471	-0.268956
C132	C	0.288499	-0.431471	-0.018956
C133	C	-0.472616	-0.398284	-0.480211
C134	C	-0.222616	-0.148284	-0.230211
C135	C	0.027384	0.101716	0.019789
C136	C	0.277384	0.351716	0.269789
C137	C	-0.477323	-0.490711	-0.484945
C138	C	-0.227323	-0.240711	-0.234945
C139	C	0.022677	0.009289	0.015055
C140	C	0.272677	0.259289	0.265055
C141	C	-0.461410	-1.181514	-1.097129
C142	C	-0.211410	-0.931514	-0.847129
C143	C	0.038590	-0.681514	-0.597129
C144	C	0.288590	-0.431514	-0.347129
C145	C	-0.461438	-1.181500	-1.005822
C146	C	-0.211438	-0.931500	-0.755822
C147	C	0.038562	-0.681500	-0.505822
C148	C	0.288562	-0.431500	-0.255822
C149	C	-0.461456	-1.181493	-0.933046
C150	C	-0.211456	-0.931493	-0.683046
C151	C	0.038544	-0.681493	-0.433046
C152	C	0.288544	-0.431493	-0.183046
C153	C	-0.461483	-1.181478	-0.841732
C154	C	-0.211483	-0.931478	-0.591732
C155	C	0.038517	-0.681478	-0.341732
C156	C	0.288517	-0.431478	-0.091732
C157	C	-0.461587	-1.181384	-0.259535
C158	C	-0.211587	-0.931384	-0.009535
C159	C	0.038413	-0.681384	0.240465
C160	C	0.288413	-0.431384	0.490465
C161	C	-0.461386	-1.181532	-0.169912
C162	C	-0.211386	-0.931532	0.080088
C163	C	0.038614	-0.681532	0.330088
C164	C	0.288614	-0.431532	0.580088
H165	H	-0.530998	-0.693198	-0.539325
H166	H	-0.280998	-0.443198	-0.289325
H167	H	-0.030998	-0.193198	-0.039325
H168	H	0.219002	0.056802	0.210675
H169	H	-0.972557	-1.112144	-0.532589
H170	H	-0.722557	-0.862144	-0.282589
H171	H	-0.472557	-0.612144	-0.032589
H172	H	-0.222557	-0.362144	0.217411
H173	H	-0.392248	-0.670421	-0.398741
H174	H	-0.142248	-0.420421	-0.148741
H175	H	0.107752	-0.170421	0.101259
H176	H	0.357752	0.079579	0.351259
H177	H	-0.949779	-1.250787	-0.405479
H178	H	-0.699779	-1.000787	-0.155479
H179	H	-0.449779	-0.750787	0.094521
H180	H	-0.199779	-0.500787	0.344521
