data_functionalizedCrystal
_audit_creation_method	'MofGen! by Chris Wilmer'
_symmetry_space_group_name_H-M	'P1'
_symmetry_Int_Tables_number	1
_symmetry_cell_setting	triclinic
loop_
_symmetry_equiv_pos_as_xyz
  x,y,z
_cell_length_a	10.967926
_cell_length_b	12.811415
_cell_length_c	9.482900
_cell_angle_alpha	94.039455
_cell_angle_beta	92.549900
_cell_angle_gamma	85.527577
loop_
_atom_site_label
_atom_site_type_symbol
_atom_site_fract_x
_atom_site_fract_y
_atom_site_fract_z
O1	O	1.614832	0.182203	0.259655
O2	O	1.265676	0.184467	0.171879
O3	O	1.445995	0.033466	0.236970
O4	O	1.434513	0.333204	0.194564
O5	O	1.409371	0.064267	0.465525
O6	O	1.229052	0.215268	0.400434
O7	O	1.578208	0.213004	0.488210
Cu8	Cu	1.400286	0.216948	0.465191
Cu9	Cu	1.443598	0.180523	0.194898
O10	O	1.397889	0.364005	0.423119
C11	C	1.202614	0.197375	0.275273
C12	C	1.069271	0.189937	0.242846
C13	C	0.990851	0.202577	0.346787
C14	C	0.853034	0.194890	0.313275
C15	C	1.425917	0.010379	0.355878
C16	C	1.420641	-0.104302	0.369671
C17	C	1.450636	-0.353373	0.146385
C18	C	1.445679	-0.461127	0.159339
C19	C	1.405763	-0.427566	0.408527
C20	C	1.410719	-0.319812	0.395574
C21	C	1.433158	-0.282720	0.264499
C22	C	1.438123	-0.174964	0.251549
C23	C	1.398198	-0.141405	0.500735
C24	C	1.393242	-0.249159	0.513688
C25	C	1.641271	0.200095	0.384813
C26	C	1.774615	0.207532	0.417231
C27	C	1.417967	0.387092	0.304208
C28	C	1.423245	0.501772	0.290406
N29	N	1.369832	0.242568	0.655302
N30	N	1.474062	0.154895	0.004790
C31	C	1.434607	0.188074	0.750917
C32	C	1.409277	0.209398	0.909176
H33	H	1.456398	-0.144767	0.144823
O34	O	1.027870	0.170189	0.107011
C35	C	1.080413	0.137673	-0.137028
C36	C	1.127462	0.160007	0.016749
H37	H	1.160906	0.129456	-0.210051
H38	H	1.031939	0.061801	-0.145770
H39	H	1.013535	0.205310	-0.169116
H40	H	1.194384	0.092434	0.048937
H41	H	1.175863	0.235914	0.025407
O42	O	0.816180	0.227052	0.553057
C43	C	0.831891	0.169117	0.789926
C44	C	0.784779	0.146874	0.636154
H45	H	0.806499	0.104319	0.857160
H46	H	0.935636	0.171753	0.792868
H47	H	0.788339	0.247802	0.833610
H48	H	0.828240	0.068186	0.592376
H49	H	0.681029	0.144306	0.633304
H50	H	1.335059	0.271839	0.944471
O51	O	1.562365	0.080269	0.962431
C52	C	1.667716	-0.009379	0.766018
C53	C	1.567848	0.075308	0.813818
H54	H	1.672164	-0.013434	0.645860
H55	H	1.760002	0.011246	0.815912
H56	H	1.644856	-0.088706	0.800904
H57	H	1.590592	0.154667	0.778944
H58	H	1.475592	0.054592	0.763936
H59	H	1.025743	0.219084	0.460586
O60	O	1.381046	-0.072865	0.615544
C61	C	1.244782	-0.003685	0.797584
C62	C	1.264045	-0.081367	0.667602
H63	H	1.150181	-0.010517	0.839694
H64	H	1.317634	-0.022657	0.883413
H65	H	1.252249	0.079690	0.765807
H66	H	1.256555	-0.164769	0.699245
H67	H	1.191197	-0.062304	0.581807
H68	H	0.818150	0.178374	0.199470
H69	H	1.387484	-0.457786	0.515240
O70	O	1.472398	-0.317507	0.018952
C71	C	1.511561	-0.362169	-0.226818
C72	C	1.486895	-0.402924	-0.082591
H73	H	1.523314	-0.431209	-0.308948
H74	H	1.431139	-0.306557	-0.260986
H75	H	1.598584	-0.318562	-0.217263
H76	H	1.399911	-0.446578	-0.092032
H77	H	1.567384	-0.458482	-0.048475
O78	O	1.281380	0.317055	0.697651
C79	C	1.175400	0.406149	0.893985
C80	C	1.275629	0.321778	0.846228
H81	H	1.170700	0.409979	1.014109
H82	H	1.197888	0.485667	0.859399
H83	H	1.083341	0.385208	0.843774
H84	H	1.367727	0.342619	0.896416
H85	H	1.253035	0.242283	0.880791
H86	H	1.508811	0.125628	0.715615
H87	H	1.374968	-0.279375	0.620404
H88	H	1.459907	-0.518650	0.063157
