data_functionalizedCrystal
_audit_creation_method	'MofGen! by Chris Wilmer'
_symmetry_space_group_name_H-M	'P1'
_symmetry_Int_Tables_number	1
_symmetry_cell_setting	triclinic
loop_
_symmetry_equiv_pos_as_xyz
  x,y,z
_cell_length_a	12.827893
_cell_length_b	13.897448
_cell_length_c	12.827885
_cell_angle_alpha	89.967724
_cell_angle_beta	89.980538
_cell_angle_gamma	90.017663
loop_
_atom_site_label
_atom_site_type_symbol
_atom_site_fract_x
_atom_site_fract_y
_atom_site_fract_z
Zn1	Zn	1.597655	-0.383969	-0.590831
Zn2	Zn	1.597541	-0.545295	-0.416083
Zn3	Zn	1.422896	-0.384016	-0.416104
Zn4	Zn	1.422875	-0.545224	-0.590783
O5	O	1.510242	-0.464626	-0.503450
O6	O	1.743876	-0.405380	-0.567661
O7	O	1.574336	-0.523951	-0.269850
O8	O	1.446134	-0.249028	-0.439311
O9	O	1.743792	-0.523905	-0.439275
O10	O	1.574529	-0.248994	-0.567681
O11	O	1.446024	-0.405460	-0.269865
O12	O	1.276657	-0.405390	-0.439265
O13	O	1.446098	-0.523783	-0.737026
O14	O	1.276641	-0.523829	-0.567601
O15	O	1.574509	-0.405310	-0.737060
O16	O	1.574315	-0.680267	-0.439229
O17	O	1.445988	-0.680215	-0.567580
C18	C	1.238732	-0.464607	-0.503430
C19	C	1.122579	-0.464623	-0.503447
C20	C	1.070814	-0.523321	-0.566853
C21	C	0.950763	-0.523338	-0.566872
C22	C	1.510165	-0.715240	-0.503420
C23	C	1.510228	-0.822454	-0.503442
C24	C	1.510338	-1.018749	-0.503508
C25	C	1.510274	-0.909517	-0.503474
C26	C	1.782812	-0.464645	-0.503471
C27	C	1.898965	-0.464654	-0.503480
C28	C	1.510314	-0.464533	-0.776021
C29	C	1.510344	-0.464494	-0.892174
C30	C	1.510347	-0.213033	-0.503504
C31	C	1.510391	-0.105819	-0.503526
C32	C	1.446872	-0.405849	-0.943966
C33	C	1.446902	-0.405807	-1.064017
C34	C	1.510230	-0.464649	-0.231940
C35	C	1.510402	-0.464416	-0.115788
H36	H	1.115373	-0.573559	-0.621128
C37	C	1.374569	-0.338697	-1.123344
C38	C	1.397346	-0.243246	-1.096912
C39	C	1.330741	-0.181396	-1.151557
H40	H	1.304291	-0.352674	-1.105545
H41	H	1.384230	-0.347503	-1.196148
H42	H	1.387676	-0.234444	-1.024124
H43	H	1.467612	-0.229239	-1.114713
H44	H	1.340403	-0.190202	-1.224361
H45	H	1.260467	-0.195381	-1.133754
H46	H	1.346193	-0.116625	-1.133638
C47	C	1.582877	-0.531509	-0.951357
C48	C	1.641411	-0.585637	-0.880310
C49	C	1.708231	-0.647392	-0.934788
H50	H	1.628488	-0.494670	-0.993953
H51	H	1.542879	-0.573537	-0.993901
H52	H	1.681406	-0.543614	-0.837784
H53	H	1.595828	-0.622495	-0.837712
H54	H	1.668233	-0.689420	-0.977331
H55	H	1.753835	-0.610546	-0.977382
H56	H	1.747948	-0.684131	-0.886591
C57	C	0.891227	-0.590246	-0.639220
C58	C	0.783992	-0.576938	-0.624880
C59	C	0.729113	-0.638549	-0.691522
H60	H	0.908919	-0.655091	-0.623886
H61	H	0.909039	-0.576206	-0.709497
H62	H	0.766187	-0.590984	-0.554620
H63	H	0.766268	-0.512106	-0.640222
H64	H	0.746924	-0.624509	-0.761798
H65	H	0.746813	-0.703390	-0.676181
H66	H	0.656348	-0.629521	-0.681808
H67	H	0.943475	-0.414400	-0.449188
H68	H	1.392505	-0.355676	-0.899431
C69	C	1.063127	-0.397794	-0.430935
C70	C	1.000450	-0.452408	-0.363902
C71	C	0.945686	-0.390880	-0.297073
H72	H	1.020485	-0.355825	-0.470900
H73	H	1.111144	-0.360987	-0.391090
H74	H	0.952439	-0.489198	-0.403743
H75	H	1.043066	-0.494374	-0.323914
H76	H	0.993703	-0.354074	-0.257228
H77	H	0.903050	-0.348914	-0.337047
H78	H	0.903160	-0.427927	-0.251577
H79	H	1.564750	-0.514623	-1.071254
