data_functionalizedCrystal
_audit_creation_method	'MofGen! by Chris Wilmer'
_symmetry_space_group_name_H-M	'P1'
_symmetry_Int_Tables_number	1
_symmetry_cell_setting	triclinic
loop_
_symmetry_equiv_pos_as_xyz
  x,y,z
_cell_length_a	21.295417
_cell_length_b	19.121102
_cell_length_c	19.120904
_cell_angle_alpha	89.911827
_cell_angle_beta	87.591662
_cell_angle_gamma	87.584620
loop_
_atom_site_label
_atom_site_type_symbol
_atom_site_fract_x
_atom_site_fract_y
_atom_site_fract_z
Zn1	Zn	-0.307921	1.054814	0.442032
Zn2	Zn	-0.057921	1.304814	0.692032
Zn3	Zn	0.192079	1.554814	0.942032
Zn4	Zn	0.442079	1.804814	1.192032
Zn5	Zn	-0.408895	1.059724	0.324785
Zn6	Zn	-0.158895	1.309724	0.574785
Zn7	Zn	0.091105	1.559724	0.824785
Zn8	Zn	0.341105	1.809724	1.074785
Zn9	Zn	-0.298967	0.942584	0.319816
Zn10	Zn	-0.048967	1.192584	0.569816
Zn11	Zn	0.201033	1.442584	0.819816
Zn12	Zn	0.451033	1.692584	1.069816
Zn13	Zn	-0.408472	0.937535	0.436987
Zn14	Zn	-0.158472	1.187535	0.686987
Zn15	Zn	0.091528	1.437535	0.936987
Zn16	Zn	0.341528	1.687535	1.186987
O17	O	-0.356064	0.998664	0.380905
O18	O	-0.106064	1.248664	0.630905
O19	O	0.143936	1.498664	0.880905
O20	O	0.393936	1.748664	1.130905
O21	O	-0.325239	1.153571	0.430669
O22	O	-0.075239	1.403571	0.680669
O23	O	0.174761	1.653571	0.930669
O24	O	0.424761	1.903571	1.180669
O25	O	-0.390743	1.048352	0.226021
O26	O	-0.140743	1.298352	0.476021
O27	O	0.109257	1.548352	0.726021
O28	O	0.359257	1.798352	0.976021
O29	O	-0.212069	0.957530	0.336060
O30	O	0.037931	1.207530	0.586060
O31	O	0.287931	1.457530	0.836060
O32	O	0.537931	1.707530	1.086060
O33	O	-0.399425	1.157177	0.344528
O34	O	-0.149425	1.407177	0.594528
O35	O	0.100575	1.657177	0.844528
O36	O	0.350575	1.907177	1.094528
O37	O	-0.218647	1.039985	0.425851
O38	O	0.031353	1.289985	0.675851
O39	O	0.281353	1.539985	0.925851
O40	O	0.531353	1.789985	1.175851
O41	O	-0.309980	0.962291	0.222371
O42	O	-0.059980	1.212291	0.472371
O43	O	0.190020	1.462291	0.722371
O44	O	0.440020	1.712291	0.972371
O45	O	-0.309569	0.843809	0.331169
O46	O	-0.059569	1.093809	0.581169
O47	O	0.190431	1.343809	0.831169
O48	O	0.440431	1.593809	1.081169
O49	O	-0.398703	0.948925	0.535761
O50	O	-0.148703	1.198925	0.785761
O51	O	0.101297	1.448925	1.035761
O52	O	0.351297	1.698925	1.285761
O53	O	-0.390022	0.840100	0.417254
O54	O	-0.140022	1.090100	0.667254
O55	O	0.109978	1.340100	0.917254
O56	O	0.359978	1.590100	1.167254
O57	O	-0.324829	1.035089	0.539467
O58	O	-0.074829	1.285089	0.789467
O59	O	0.175171	1.535089	1.039467
O60	O	0.425171	1.785089	1.289467
O61	O	-0.496925	1.043456	0.339637
O62	O	-0.246925	1.293456	0.589637
O63	O	0.003075	1.543456	0.839637
O64	O	0.253075	1.793456	1.089637
O65	O	-0.496614	0.953685	0.422072
O66	O	-0.246614	1.203685	0.672072
O67	O	0.003386	1.453685	0.922072
O68	O	0.253386	1.703685	1.172072
C69	C	-0.348778	0.816517	0.373125
C70	C	-0.098778	1.066517	0.623125
C71	C	0.151222	1.316517	0.873125
C72	C	0.401222	1.566517	1.123125
C73	C	-0.345677	0.738593	0.369814
C74	C	-0.095677	0.988593	0.619814
C75	C	0.154323	1.238593	0.869814
C76	C	0.404323	1.488593	1.119814
C77	C	-0.386166	0.700074	0.413007
C78	C	-0.136166	0.950074	0.663007
C79	C	0.113834	1.200074	0.913007
C80	C	0.363834	1.450074	1.163007
C81	C	-0.383244	0.626856	0.409899
C82	C	-0.133244	0.876856	0.659899
C83	C	0.116756	1.126856	0.909899
C84	C	0.366756	1.376856	1.159899
C85	C	-0.339836	0.592158	0.363593
C86	C	-0.089836	0.842158	0.613593
C87	C	0.160164	1.092158	0.863593
C88	C	0.410164	1.342158	1.113593
C89	C	-0.299344	0.630682	0.320398
C90	C	-0.049344	0.880682	0.570398
C91	C	0.200656	1.130682	0.820398
C92	C	0.450656	1.380682	1.070398
C93	C	-0.302263	0.703899	0.323510
C94	C	-0.052263	0.953899	0.573510
C95	C	0.197737	1.203899	0.823510
C96	C	0.447737	1.453899	1.073510
C97	C	-0.328921	0.371187	0.351961
C98	C	-0.078921	0.621187	0.601961
C99	C	0.171079	0.871187	0.851961
C100	C	0.421079	1.121187	1.101961
C101	C	-0.326006	0.297965	0.348850
C102	C	-0.076006	0.547965	0.598850
C103	C	0.173994	0.797965	0.848850
C104	C	0.423994	1.047965	1.098850
C105	C	-0.409906	0.294144	0.438353
C106	C	-0.159906	0.544144	0.688353
C107	C	0.090094	0.794144	0.938353
C108	C	0.340094	1.044144	1.188353
C109	C	-0.412824	0.367362	0.441458
C110	C	-0.162824	0.617362	0.691458
C111	C	0.087176	0.867362	0.941458
C112	C	0.337176	1.117362	1.191458
C113	C	-0.372329	0.405880	0.398265
C114	C	-0.122329	0.655880	0.648265
C115	C	0.127671	0.905880	0.898265
C116	C	0.377671	1.155880	1.148265
C117	C	-0.336850	0.517318	0.360413
C118	C	-0.086850	0.767318	0.610413
C119	C	0.163150	1.017318	0.860413
C120	C	0.413150	1.267318	1.110413
C121	C	-0.375313	0.480719	0.401449
C122	C	-0.125313	0.730719	0.651449
C123	C	0.124687	0.980719	0.901449
C124	C	0.374687	1.230719	1.151449
C125	C	-0.519610	0.998574	0.380862
C126	C	-0.269610	1.248574	0.630862
C127	C	-0.019610	1.498574	0.880862
C128	C	0.230390	1.748574	1.130862
C129	C	-0.589580	0.998599	0.380870
C130	C	-0.339580	1.248599	0.630870
C131	C	-0.089580	1.498599	0.880870
C132	C	0.160420	1.748599	1.130870
C133	C	-0.622590	1.045380	0.337994
C134	C	-0.372590	1.295380	0.587994
C135	C	-0.122590	1.545380	0.837994
C136	C	0.127410	1.795380	1.087994
C137	C	-0.688335	1.045413	0.338011
C138	C	-0.438335	1.295413	0.588011
C139	C	-0.188335	1.545413	0.838011
C140	C	0.061665	1.795413	1.088011
C141	C	-0.721065	0.998651	0.380897
C142	C	-0.471065	1.248651	0.630897
C143	C	-0.221065	1.498651	0.880897
C144	C	0.028935	1.748651	1.130897
C145	C	-0.688046	0.951865	0.423781
C146	C	-0.438046	1.201865	0.673781
C147	C	-0.188046	1.451865	0.923781
C148	C	0.061954	1.701865	1.173781
C149	C	-0.622304	0.951839	0.423768
C150	C	-0.372304	1.201839	0.673768
C151	C	-0.122304	1.451839	0.923768
C152	C	0.127696	1.701839	1.173768
N153	N	-0.822078	0.937094	0.383622
N154	N	-0.572078	1.187094	0.633622
N155	N	-0.322078	1.437094	0.883622
N156	N	-0.072078	1.687094	1.133622
N157	N	-0.884530	0.937121	0.383630
N158	N	-0.634530	1.187121	0.633630
N159	N	-0.384530	1.437121	0.883630
N160	N	-0.134530	1.687121	1.133630
C161	C	-0.919144	0.998728	0.380940
C162	C	-0.669144	1.248728	0.630940
C163	C	-0.419144	1.498728	0.880940
C164	C	-0.169144	1.748728	1.130940
N165	N	-0.888946	1.060308	0.378228
N166	N	-0.638946	1.310308	0.628228
N167	N	-0.388946	1.560308	0.878228
N168	N	-0.138946	1.810308	1.128228
N169	N	-0.826487	1.060281	0.378215
N170	N	-0.576487	1.310281	0.628215
N171	N	-0.326487	1.560281	0.878215
N172	N	-0.076487	1.810281	1.128215
C173	C	-0.792352	0.998674	0.380916
C174	C	-0.542352	1.248674	0.630916
C175	C	-0.292352	1.498674	0.880916
C176	C	-0.042352	1.748674	1.130916
C177	C	-1.023443	1.045548	0.338080
C178	C	-0.773443	1.295548	0.588080
C179	C	-0.523443	1.545548	0.838080
C180	C	-0.273443	1.795548	1.088080
C181	C	-1.089189	1.045581	0.338103
C182	C	-0.839189	1.295581	0.588103
C183	C	-0.589189	1.545581	0.838103
C184	C	-0.339189	1.795581	1.088103
C185	C	-1.088899	0.952028	0.423869
C186	C	-0.838899	1.202028	0.673869
C187	C	-0.588899	1.452028	0.923869
C188	C	-0.338899	1.702028	1.173869
C189	C	-1.023154	0.952001	0.423850
C190	C	-0.773154	1.202001	0.673850
C191	C	-0.523154	1.452001	0.923850
C192	C	-0.273154	1.702001	1.173850
C193	C	-0.990430	0.998760	0.380953
C194	C	-0.740430	1.248760	0.630953
C195	C	-0.490430	1.498760	0.880953
C196	C	-0.240430	1.748760	1.130953
C197	C	-0.191880	0.998773	0.380964
C198	C	0.058120	1.248773	0.630964
C199	C	0.308120	1.498773	0.880964
C200	C	0.558120	1.748773	1.130964
C201	C	-0.121914	0.998820	0.380989
C202	C	0.128086	1.248820	0.630989
C203	C	0.378086	1.498820	0.880989
C204	C	0.628086	1.748820	1.130989
C205	C	-0.362718	0.990896	0.563763
C206	C	-0.112718	1.240896	0.813763
C207	C	0.137282	1.490896	1.063763
C208	C	0.387282	1.740896	1.313763
C209	C	-0.365553	0.987586	0.641686
C210	C	-0.115553	1.237586	0.891686
C211	C	0.134447	1.487586	1.141686
C212	C	0.384447	1.737586	1.391686
C213	C	-0.363378	1.181523	0.388716
C214	C	-0.113378	1.431523	0.638716
C215	C	0.136622	1.681523	0.888716
C216	C	0.386622	1.931523	1.138716
C217	C	-0.366495	1.259446	0.392044
C218	C	-0.116495	1.509446	0.642044
C219	C	0.133505	1.759446	0.892044
C220	C	0.383505	2.009446	1.142044
C221	C	-0.349392	1.006442	0.198761
C222	C	-0.099392	1.256442	0.448761
C223	C	0.150608	1.506442	0.698761
C224	C	0.400608	1.756442	0.948761
C225	C	-0.346384	1.009889	0.120844
C226	C	-0.096384	1.259889	0.370844
C227	C	0.153616	1.509889	0.620844
C228	C	0.403616	1.759889	0.870844
C229	C	-0.328425	1.030890	0.680225
C230	C	-0.078425	1.280890	0.930225
C231	C	0.171575	1.530890	1.180225
C232	C	0.421575	1.780890	1.430225
C233	C	-0.331086	1.027771	0.753441
C234	C	-0.081086	1.277771	1.003441
C235	C	0.168914	1.527771	1.253441
C236	C	0.418914	1.777771	1.503441
C237	C	-0.370880	0.981351	0.788118
C238	C	-0.120880	1.231351	1.038118
C239	C	0.129120	1.481351	1.288118
C240	C	0.379120	1.731351	1.538118
C241	C	-0.408010	0.938043	0.749573
C242	C	-0.158010	1.188043	0.999573
C243	C	0.091990	1.438043	1.249573
C244	C	0.341990	1.688043	1.499573
C245	C	-0.405345	0.941159	0.676358
C246	C	-0.155345	1.191159	0.926358
C247	C	0.094655	1.441159	1.176358
C248	C	0.344655	1.691159	1.426358
C249	C	-0.380849	0.969696	1.009084
C250	C	-0.130849	1.219696	1.259084
C251	C	0.119151	1.469696	1.509084
C252	C	0.369151	1.719696	1.759084
C253	C	-0.383513	0.966585	1.082305
C254	C	-0.133513	1.216585	1.332305
C255	C	0.116487	1.466585	1.582305
C256	C	0.366487	1.716585	1.832305
C257	C	-0.306588	1.056312	1.086168
C258	C	-0.056588	1.306312	1.336168
C259	C	0.193412	1.556312	1.586168
C260	C	0.443412	1.806312	1.836168
C261	C	-0.303929	1.059427	1.012951
C262	C	-0.053929	1.309427	1.262951
C263	C	0.196071	1.559427	1.512951
C264	C	0.446071	1.809427	1.762951
C265	C	-0.341056	1.016116	0.974413
C266	C	-0.091056	1.266116	1.224413
C267	C	0.158944	1.516116	1.474413
C268	C	0.408944	1.766116	1.724413
C269	C	-0.373603	0.978164	0.862957
C270	C	-0.123603	1.228164	1.112957
C271	C	0.126397	1.478164	1.362957
C272	C	0.376397	1.728164	1.612957
C273	C	-0.338330	1.019300	0.899575
C274	C	-0.088330	1.269300	1.149575
C275	C	0.161670	1.519300	1.399575
C276	C	0.411670	1.769300	1.649575
H277	H	-0.263997	0.602426	0.282698
H278	H	-0.013997	0.852426	0.532698
H279	H	0.236003	1.102426	0.782698
H280	H	0.486003	1.352426	1.032698
H281	H	-0.290651	0.269716	0.311147
H282	H	-0.040651	0.519716	0.561147
H283	H	0.209349	0.769716	0.811147
H284	H	0.459349	1.019716	1.061147
Cl285	Cl	-0.251359	0.752323	0.269209
Cl286	Cl	-0.001359	1.002323	0.519209
Cl287	Cl	0.248641	1.252323	0.769209
Cl288	Cl	0.498641	1.502323	1.019209
H289	H	-0.996275	0.913904	0.458761
H290	H	-0.746275	1.163904	0.708761
H291	H	-0.496275	1.413904	0.958761
H292	H	-0.246275	1.663904	1.208761
H293	H	-0.595949	1.083456	0.303066
H294	H	-0.345949	1.333456	0.553066
H295	H	-0.095949	1.583456	0.803066
H296	H	0.154051	1.833456	1.053066
Cl297	Cl	-0.729843	1.104227	0.284104
Cl298	Cl	-0.479843	1.354227	0.534104
Cl299	Cl	-0.229843	1.604227	0.784104
Cl300	Cl	0.020157	1.854227	1.034104
Cl301	Cl	-0.259914	1.110754	1.134619
Cl302	Cl	-0.009914	1.360754	1.384619
Cl303	Cl	0.240086	1.610754	1.634619
Cl304	Cl	0.490086	1.860754	1.884619
Cl305	Cl	-0.580802	0.893022	0.477673
Cl306	Cl	-0.330802	1.143022	0.727673
Cl307	Cl	-0.080802	1.393022	0.977673
Cl308	Cl	0.169198	1.643022	1.227673
H309	H	-0.996798	1.083625	0.303153
H310	H	-0.746798	1.333625	0.553153
H311	H	-0.496798	1.583625	0.803153
H312	H	-0.246798	1.833625	1.053153
Cl313	Cl	-0.284437	1.082244	0.801889
Cl314	Cl	-0.034437	1.332244	1.051889
Cl315	Cl	0.215563	1.582244	1.301889
Cl316	Cl	0.465563	1.832244	1.551889
Cl317	Cl	-0.729192	0.893082	0.477698
Cl318	Cl	-0.479192	1.143082	0.727698
Cl319	Cl	-0.229192	1.393082	0.977698
Cl320	Cl	0.020808	1.643082	1.227698
Cl321	Cl	-0.253901	1.117786	0.969363
Cl322	Cl	-0.003901	1.367786	1.219363
Cl323	Cl	0.246099	1.617786	1.469363
Cl324	Cl	0.496099	1.867786	1.719363
H325	H	-1.116065	1.083681	0.303189
H326	H	-0.866065	1.333681	0.553189
H327	H	-0.616065	1.583681	0.803189
H328	H	-0.366065	1.833681	1.053189
Cl329	Cl	-0.429881	0.524340	0.459660
Cl330	Cl	-0.179881	0.774340	0.709660
Cl331	Cl	0.070119	1.024340	0.959660
Cl332	Cl	0.320119	1.274340	1.209660
Cl333	Cl	-0.433539	0.908220	1.125897
Cl334	Cl	-0.183539	1.158220	1.375897
Cl335	Cl	0.066461	1.408220	1.625897
Cl336	Cl	0.316461	1.658220	1.875897
H337	H	-1.115547	0.913957	0.458790
H338	H	-0.865547	1.163957	0.708790
H339	H	-0.615547	1.413957	0.958790
H340	H	-0.365547	1.663957	1.208790
H341	H	-0.301509	0.489059	0.322710
H342	H	-0.051509	0.739059	0.572710
H343	H	0.198491	0.989059	0.822710
H344	H	0.448491	1.239059	1.072710
H345	H	-0.296022	1.068692	0.651997
H346	H	-0.046022	1.318692	0.901997
H347	H	0.203978	1.568692	1.151997
H348	H	0.453978	1.818692	1.401997
Cl349	Cl	-0.278011	0.419599	0.297663
Cl350	Cl	-0.028011	0.669599	0.547663
Cl351	Cl	0.221989	0.919599	0.797663
Cl352	Cl	0.471989	1.169599	1.047663
Cl353	Cl	-0.434147	0.578435	0.464202
Cl354	Cl	-0.184147	0.828435	0.714202
Cl355	Cl	0.065853	1.078435	0.964202
Cl356	Cl	0.315853	1.328435	1.214202
Cl357	Cl	-0.427524	0.915247	0.960646
Cl358	Cl	-0.177524	1.165247	1.210646
Cl359	Cl	0.072476	1.415247	1.460646
Cl360	Cl	0.322476	1.665247	1.710646
H361	H	-0.440409	0.900244	0.777813
H362	H	-0.190409	1.150244	1.027813
H363	H	0.059591	1.400244	1.277813
H364	H	0.309591	1.650244	1.527813
H365	H	-0.435572	0.905889	0.644980
H366	H	-0.185572	1.155889	0.894980
H367	H	0.064428	1.405889	1.144980
H368	H	0.314428	1.655889	1.394980
Cl369	Cl	-0.460812	0.245718	0.492648
Cl370	Cl	-0.210812	0.495718	0.742648
Cl371	Cl	0.039188	0.745718	0.992648
Cl372	Cl	0.289188	0.995718	1.242648
Cl373	Cl	-0.288298	1.077647	0.855980
Cl374	Cl	-0.038298	1.327647	1.105980
Cl375	Cl	0.211702	1.577647	1.355980
Cl376	Cl	0.461702	1.827647	1.605980
Cl377	Cl	-0.423631	0.919812	0.906556
Cl378	Cl	-0.173631	1.169812	1.156556
Cl379	Cl	0.076369	1.419812	1.406556
Cl380	Cl	0.326369	1.669812	1.656556
H381	H	-0.421515	0.728320	0.450712
H382	H	-0.171515	0.978320	0.700712
H383	H	0.078485	1.228320	0.950712
H384	H	0.328485	1.478320	1.200712
H385	H	-0.448173	0.395608	0.479164
H386	H	-0.198173	0.645608	0.729164
H387	H	0.051827	0.895608	0.979164
H388	H	0.301827	1.145608	1.229164
