data_functionalizedCrystal
_audit_creation_method	'MofGen! by Chris Wilmer'
_symmetry_space_group_name_H-M	'P1'
_symmetry_Int_Tables_number	1
_symmetry_cell_setting	triclinic
loop_
_symmetry_equiv_pos_as_xyz
  x,y,z
_cell_length_a	12.759395
_cell_length_b	12.759399
_cell_length_c	12.759393
_cell_angle_alpha	90.030906
_cell_angle_beta	89.979644
_cell_angle_gamma	89.983347
loop_
_atom_site_label
_atom_site_type_symbol
_atom_site_fract_x
_atom_site_fract_y
_atom_site_fract_z
Zn1	Zn	1.606264	0.418172	-0.594001
Zn2	Zn	1.606154	0.593888	-0.418320
Zn3	Zn	1.430563	0.418228	-0.418338
Zn4	Zn	1.430553	0.593815	-0.593959
O5	O	1.518383	0.506026	-0.506154
O6	O	1.753271	0.441489	-0.570706
O7	O	1.582819	0.570640	-0.271301
O8	O	1.453920	0.271200	-0.441665
O9	O	1.753190	0.570586	-0.441634
O10	O	1.583007	0.271159	-0.570724
O11	O	1.453813	0.441584	-0.271314
O12	O	1.283540	0.441513	-0.441624
O13	O	1.453904	0.570461	-0.740985
O14	O	1.283533	0.570515	-0.570652
O15	O	1.582998	0.441418	-0.741016
O16	O	1.582810	0.740899	-0.441593
O17	O	1.453797	0.740845	-0.570635
C18	C	1.245416	0.506013	-0.506136
C19	C	1.128639	0.506033	-0.506153
C20	C	1.518319	0.778993	-0.506130
C21	C	1.518388	0.895770	-0.506155
C22	C	1.518462	0.505925	-0.780188
C23	C	1.518496	0.505882	-0.896964
C24	C	1.128671	0.640580	-0.640293
C25	C	1.073826	0.707862	-0.707365
C26	C	0.964104	0.707875	-0.707378
C27	C	0.909225	0.640596	-0.640314
C28	C	0.964070	0.573314	-0.573241
C29	C	1.073794	0.573311	-0.573233
C30	C	0.964039	0.438763	-0.439108
C31	C	1.073760	0.438754	-0.439088
C32	C	0.909160	0.371484	-0.372043
C33	C	0.964005	0.304206	-0.304964
C34	C	1.073733	0.304197	-0.304953
C35	C	1.128605	0.371472	-0.372016
C36	C	1.792417	0.506039	-0.506173
C37	C	1.909194	0.506045	-0.506181
C38	C	1.518477	0.231993	-0.506201
C39	C	1.518517	0.115216	-0.506221
C40	C	1.585641	0.950625	-0.439040
C41	C	1.585709	1.060349	-0.439075
C42	C	1.451260	1.060353	-0.573344
C43	C	1.451198	0.950631	-0.573313
C44	C	1.585720	0.438678	-0.951844
C45	C	1.585738	0.438633	-1.061568
C46	C	1.451304	0.573004	-1.061523
C47	C	1.451282	0.573043	-0.951801
C48	C	1.518366	0.506050	-0.233187
C49	C	1.518536	0.505797	-0.116411
H50	H	1.218012	0.640585	-0.640281
H51	H	1.396555	1.105034	-0.628020
H52	H	1.640447	0.383988	-0.907199
H53	H	1.118520	0.762638	-0.761970
H54	H	0.919449	0.762657	-0.762000
O55	O	0.802642	0.640602	-0.640524
C56	C	0.645242	0.613688	-0.741301
C57	C	0.765946	0.613667	-0.741217
H58	H	0.615536	0.591892	-0.822697
H59	H	0.615367	0.695027	-0.719428
H60	H	0.615462	0.554082	-0.681805
H61	H	0.795815	0.673221	-0.800713
H62	H	0.795749	0.532290	-0.763043
O63	O	1.385765	0.897500	-0.638547
C64	C	1.252463	0.909074	-0.771774
C65	C	1.326486	0.969375	-0.697935
H66	H	1.204533	0.967158	-0.819824
H67	H	1.197455	0.857817	-0.723529
H68	H	1.300665	0.857592	-0.826688
H69	H	1.278369	1.020913	-0.643006
H70	H	1.381498	1.020565	-0.746246
H71	H	1.640477	0.383907	-1.106247
H72	H	1.396583	0.627687	-1.106185
O73	O	0.910813	0.238910	-0.239678
C74	C	0.877106	0.187731	-0.061061
C75	C	0.937432	0.261727	-0.134881
H76	H	0.898588	0.206167	0.023684
H77	H	0.898730	0.103019	-0.079571
H78	H	0.789270	0.199273	-0.072652
H79	H	1.025282	0.250279	-0.123331
H80	H	0.915721	0.346412	-0.116353
H81	H	1.396532	0.627768	-0.907117
H82	H	0.819819	0.371495	-0.372063
O83	O	1.651070	1.113472	-0.373777
C84	C	1.784459	1.101882	-0.240639
C85	C	1.710469	1.041590	-0.314519
H86	H	1.832518	1.043791	-0.192725
H87	H	1.736331	1.153311	-0.185608
H88	H	1.839358	1.153190	-0.288952
H89	H	1.655555	0.990225	-0.266291
H90	H	1.758662	0.990227	-0.369552
O91	O	1.127169	0.238872	-0.239895
C92	C	1.296182	0.179265	-0.180374
C93	C	1.235803	0.253282	-0.254123
H94	H	1.384023	0.190906	-0.191836
H95	H	1.274713	0.094552	-0.198986
H96	H	1.274497	0.197594	-0.095639
H97	H	1.257455	0.235048	-0.338883
H98	H	1.257276	0.337973	-0.235421
O99	O	1.650762	0.897284	-0.373700
C100	C	1.664906	0.773463	-0.231873
C101	C	1.591033	0.833820	-0.305786
H102	H	1.616646	0.722121	-0.176960
H103	H	1.712969	0.831473	-0.183834
H104	H	1.719807	0.722054	-0.280164
H105	H	1.536068	0.885231	-0.257575
H106	H	1.543044	0.775753	-0.353828
H107	H	1.217947	0.371474	-0.372010
