data_functionalizedCrystal
_audit_creation_method	'MofGen! by Chris Wilmer'
_symmetry_space_group_name_H-M	'P1'
_symmetry_Int_Tables_number	1
_symmetry_cell_setting	triclinic
loop_
_symmetry_equiv_pos_as_xyz
  x,y,z
_cell_length_a	17.699097
_cell_length_b	17.699092
_cell_length_c	18.366186
_cell_angle_alpha	89.995439
_cell_angle_beta	89.987358
_cell_angle_gamma	83.287399
loop_
_atom_site_label
_atom_site_type_symbol
_atom_site_fract_x
_atom_site_fract_y
_atom_site_fract_z
O1	O	1.004077	0.095760	-0.060607
O2	O	1.504077	0.595760	0.439393
O3	O	0.783701	0.108202	-0.060595
O4	O	1.283701	0.608202	0.439405
O5	O	0.900112	-0.008208	-0.060600
O6	O	1.400112	0.491792	0.439400
O7	O	0.887666	0.212169	-0.060603
O8	O	1.387666	0.712169	0.439397
O9	O	0.900092	-0.008214	0.060499
O10	O	1.400092	0.491786	0.560499
O11	O	0.783681	0.108196	0.060504
O12	O	1.283681	0.608196	0.560504
O13	O	1.004057	0.095754	0.060492
O14	O	1.504057	0.595754	0.560492
Zn15	Zn	0.893866	0.101974	0.079725
Zn16	Zn	1.393866	0.601974	0.579725
Zn17	Zn	0.893892	0.101982	-0.079828
Zn18	Zn	1.393892	0.601982	0.420172
O19	O	0.887646	0.212163	0.060497
O20	O	1.387646	0.712163	0.560497
C21	C	0.755494	0.107751	-0.000044
C22	C	1.255494	0.607751	0.499956
C23	C	0.671476	0.106409	-0.000039
C24	C	1.171476	0.606409	0.499961
C25	C	0.899655	-0.036408	-0.000051
C26	C	1.399655	0.463592	0.499949
C27	C	0.898314	-0.120425	-0.000055
C28	C	1.398314	0.379575	0.499945
C29	C	0.155768	0.098182	-0.066080
C30	C	0.655768	0.598182	0.433920
C31	C	0.234713	0.099439	-0.066076
C32	C	0.734713	0.599439	0.433924
C33	C	0.274168	0.100065	-0.000062
C34	C	0.774168	0.600065	0.499938
C35	C	0.234676	0.099427	0.065953
C36	C	0.734676	0.599427	0.565953
C37	C	0.155734	0.098165	0.065948
C38	C	0.655734	0.598165	0.565948
C39	C	0.553040	0.104515	0.065972
C40	C	1.053040	0.604515	0.565972
C41	C	0.631987	0.105779	0.065971
C42	C	1.131987	0.605779	0.565971
C43	C	0.632019	0.105788	-0.066053
C44	C	1.132019	0.605788	0.433947
C45	C	0.553077	0.104526	-0.066057
C46	C	1.053077	0.604526	0.433943
C47	C	0.513592	0.103884	-0.000043
C48	C	1.013592	0.603884	0.499957
C49	C	0.427992	0.102521	-0.000048
C50	C	0.927992	0.602521	0.499952
C51	C	0.359766	0.101434	-0.000057
C52	C	0.859766	0.601434	0.499943
C53	C	0.897696	-0.159890	-0.066067
C54	C	1.397696	0.340110	0.433933
C55	C	0.896431	-0.238833	-0.066068
C56	C	1.396431	0.261167	0.433932
C57	C	0.895789	-0.278311	-0.000055
C58	C	1.395789	0.221689	0.499945
C59	C	0.896405	-0.238841	0.065962
C60	C	1.396405	0.261159	0.565962
C61	C	0.897664	-0.159898	0.065962
C62	C	1.397664	0.340102	0.565962
C63	C	0.891324	-0.557206	0.065963
C64	C	1.391324	-0.057206	0.565963
C65	C	0.890067	-0.636154	0.065958
C66	C	1.390067	-0.136154	0.565958
C67	C	0.890092	-0.636140	-0.066066
C68	C	1.390092	-0.136140	0.433934
C69	C	0.891351	-0.557198	-0.066066
C70	C	1.391351	-0.057198	0.433934
C71	C	0.891962	-0.517734	-0.000050
C72	C	1.391962	-0.017734	0.499950
C73	C	0.893332	-0.432135	-0.000049
C74	C	1.393332	0.067865	0.499951
C75	C	0.894425	-0.363909	-0.000055
C76	C	1.394425	0.136091	0.499945
C77	C	1.032264	0.096204	-0.000061
C78	C	1.532264	0.596204	0.499939
C79	C	1.116282	0.097547	-0.000070
C80	C	1.616282	0.597547	0.499930
C81	C	0.888103	0.240363	-0.000053
C82	C	1.388103	0.740363	0.499947
C83	C	0.889444	0.324381	-0.000055
C84	C	1.389444	0.824381	0.499945
N85	N	0.893854	0.101968	0.188616
N86	N	1.393854	0.601968	0.688616
N87	N	0.893910	0.101981	-0.188720
N88	N	1.393910	0.601981	0.311280
C89	C	0.945417	0.050448	0.226715
C90	C	1.445417	0.550448	0.726715
C91	C	0.945422	0.050444	0.302942
C92	C	1.445422	0.550444	0.802942
C93	C	0.893871	0.101975	0.341069
C94	C	1.393871	0.601975	0.841069
C95	C	0.842297	0.153499	0.302962
C96	C	1.342297	0.653499	0.802962
C97	C	0.842289	0.153496	0.226735
C98	C	1.342289	0.653496	0.726735
C99	C	0.883830	0.170923	0.461829
C100	C	1.383830	0.670923	0.961829
C101	C	0.883843	0.170927	0.538054
C102	C	1.383843	0.670927	1.038054
C103	C	0.893892	0.101984	0.576177
C104	C	1.393892	0.601984	1.076177
C105	C	0.903943	0.033034	0.538065
C106	C	1.403943	0.533034	1.038065
C107	C	0.903935	0.033031	0.461839
C108	C	1.403935	0.533031	0.961839
C109	C	0.893874	0.101983	0.423724
C110	C	1.393874	0.601983	0.923724
C111	C	0.945464	0.050455	0.696930
C112	C	1.445464	0.550455	1.196930
C113	C	0.945463	0.050451	0.773159
C114	C	1.445463	0.550451	1.273159
C115	C	0.842342	0.153513	0.773177
C116	C	1.342342	0.653513	1.273177
C117	C	0.842339	0.153511	0.696949
C118	C	1.342339	0.653511	1.196949
C119	C	0.893904	0.101983	0.658830
C120	C	1.393904	0.601983	1.158830
H121	H	0.123649	0.097678	-0.119837
H122	H	0.623649	0.597678	0.380163
H123	H	0.891837	-0.525086	0.119718
H124	H	1.391837	-0.025086	0.619718
H125	H	0.800322	0.195455	0.334008
H126	H	1.300322	0.695455	0.834008
H127	H	0.520956	0.104020	-0.119813
H128	H	1.020956	0.604020	0.380187
Br129	Br	1.015441	-0.019482	0.824868
Br130	Br	1.515441	0.480518	1.324868
H131	H	0.800364	0.195467	0.804219
H132	H	1.300364	0.695467	1.304219
H133	H	0.266807	0.099932	0.119703
H134	H	0.766807	0.599932	0.619703
H135	H	0.800354	0.195467	0.665927
H136	H	1.300354	0.695467	1.165927
Br137	Br	0.917591	-0.060538	0.589793
Br138	Br	1.417591	0.439462	1.089793
Br139	Br	0.499461	0.103664	0.155563
Br140	Br	0.999461	0.603664	0.655563
Br141	Br	0.288300	0.100294	-0.155665
Br142	Br	0.788300	0.600294	0.344335
Br143	Br	0.102145	0.097292	0.155537
Br144	Br	0.602145	0.597292	0.655537
H145	H	0.895877	-0.270989	0.119710
H146	H	1.395877	0.229011	0.619710
Br147	Br	0.889262	-0.689702	-0.155662
Br148	Br	1.389262	-0.189702	0.344338
Br149	Br	0.685610	0.106655	-0.155646
Br150	Br	1.185610	0.606655	0.344354
Br151	Br	0.898576	-0.106321	-0.155660
Br152	Br	1.398576	0.393679	0.344340
H153	H	0.664110	0.106288	0.119731
H154	H	1.164110	0.606288	0.619731
H155	H	0.875664	0.227070	0.569078
H156	H	1.375664	0.727070	1.069078
H157	H	0.889542	-0.668294	0.119716
H158	H	1.389542	-0.168294	0.619716
Br159	Br	1.015407	-0.019484	0.354657
Br160	Br	1.515407	0.480516	0.854657
Br161	Br	0.917567	-0.060539	0.410117
Br162	Br	1.417567	0.439461	0.910117
Br163	Br	0.895592	-0.292389	-0.155659
Br164	Br	1.395592	0.207611	0.344341
H165	H	0.891877	-0.525059	-0.119820
H166	H	1.391877	-0.025059	0.380180
Br167	Br	0.898498	-0.106338	0.155553
Br168	Br	1.398498	0.393662	0.655553
H169	H	0.987403	0.008489	0.195680
H170	H	1.487403	0.508489	0.695680
Br171	Br	0.870267	0.264499	0.410099
Br172	Br	1.370267	0.764499	0.910099
H173	H	0.987449	0.008496	0.665892
H174	H	1.487449	0.508496	1.165892
H175	H	0.800298	0.195451	0.195715
H176	H	1.300298	0.695451	0.695715
