data_functionalizedCrystal
_audit_creation_method	'MofGen! by Chris Wilmer'
_symmetry_space_group_name_H-M	'P1'
_symmetry_Int_Tables_number	1
_symmetry_cell_setting	triclinic
loop_
_symmetry_equiv_pos_as_xyz
  x,y,z
_cell_length_a	14.853567
_cell_length_b	15.995350
_cell_length_c	13.330367
_cell_angle_alpha	89.997588
_cell_angle_beta	89.995418
_cell_angle_gamma	83.563653
loop_
_atom_site_label
_atom_site_type_symbol
_atom_site_fract_x
_atom_site_fract_y
_atom_site_fract_z
O1	O	1.196221	0.109317	-0.083349
O2	O	1.696221	0.609317	0.416651
O3	O	0.933744	0.122339	-0.083366
O4	O	1.433744	0.622339	0.416634
O5	O	1.072158	-0.006051	-0.083356
O6	O	1.572158	0.493949	0.416644
O7	O	1.057808	0.237707	-0.083359
O8	O	1.557808	0.737707	0.416641
O9	O	1.072138	-0.006054	0.083491
O10	O	1.572138	0.493946	0.583491
O11	O	0.933724	0.122336	0.083481
O12	O	1.433724	0.622336	0.583481
O13	O	1.196201	0.109314	0.083498
O14	O	1.696201	0.609314	0.583498
Cu15	Cu	1.064961	0.115825	0.098724
Cu16	Cu	1.564961	0.615825	0.598724
Cu17	Cu	1.064985	0.115828	-0.098592
Cu18	Cu	1.564985	0.615828	0.401408
O19	O	1.057788	0.237704	0.083488
O20	O	1.557788	0.737704	0.583488
C21	C	0.900146	0.121748	0.000056
C22	C	1.400146	0.621748	0.500056
C23	C	0.800065	0.119980	0.000049
C24	C	1.300065	0.619980	0.500049
C25	C	1.071555	-0.037248	0.000065
C26	C	1.571555	0.462752	0.500065
C27	C	1.069776	-0.130201	0.000060
C28	C	1.569776	0.369799	0.500060
C29	C	0.387644	0.036238	0.000072
C30	C	0.887644	0.536238	0.500072
C31	C	0.366158	0.188769	0.000070
C32	C	0.866158	0.688769	0.500070
C33	C	0.460189	0.190432	0.000067
C34	C	0.960189	0.690432	0.500067
C35	C	0.517953	0.114996	0.000065
C36	C	1.017953	0.614996	0.500065
C37	C	0.481685	0.037899	0.000066
C38	C	0.981685	0.537899	0.500066
C39	C	0.496464	0.267528	0.000055
C40	C	0.996464	0.767528	0.500055
C41	C	0.590501	0.269194	0.000051
C42	C	1.090501	0.769194	0.500051
C43	C	0.648266	0.193758	0.000056
C44	C	1.148266	0.693758	0.500056
C45	C	0.611993	0.116657	0.000059
C46	C	1.111993	0.616657	0.500059
C47	C	0.669757	0.041221	0.000057
C48	C	1.169757	0.541221	0.500057
C49	C	0.633485	-0.035880	0.000067
C50	C	1.133485	0.464120	0.500067
C51	C	0.539450	-0.037538	0.000072
C52	C	1.039450	0.462462	0.500072
C53	C	0.742302	0.195415	0.000051
C54	C	1.242302	0.695415	0.500051
C55	C	0.763797	0.042882	0.000051
C56	C	1.263797	0.542882	0.500051
C57	C	1.063389	-0.467956	0.000063
C58	C	1.563389	0.032044	0.500063
C59	C	0.964813	-0.420636	-0.000318
C60	C	1.464813	0.079364	0.499682
C61	C	0.966592	-0.323944	0.000058
C62	C	1.466592	0.176056	0.500058
C63	C	1.066557	-0.300391	0.000061
C64	C	1.566557	0.199609	0.500061
C65	C	1.115167	-0.341414	0.095340
C66	C	1.615167	0.158586	0.595340
C67	C	1.112690	-0.438053	0.095419
C68	C	1.612690	0.061947	0.595419
C69	C	1.114749	-0.438405	-0.094317
C70	C	1.614749	0.061595	0.405683
C71	C	1.114726	-0.341460	-0.095576
C72	C	1.614726	0.158540	0.404424
C73	C	1.068353	-0.205692	0.000063
C74	C	1.568353	0.294308	0.500063
C75	C	1.061596	-0.562655	0.000067
C76	C	1.561596	-0.062655	0.500067
C77	C	1.229799	0.109906	0.000074
C78	C	1.729799	0.609906	0.500074
C79	C	1.329881	0.111674	0.000074
C80	C	1.829881	0.611674	0.500074
C81	C	1.058391	0.268901	0.000064
C82	C	1.558391	0.768901	0.500064
C83	C	1.060170	0.361854	0.000064
C84	C	1.560170	0.861854	0.500064
N85	N	1.064951	0.115822	0.237506
N86	N	1.564951	0.615822	0.737506
N87	N	1.065002	0.115825	-0.237374
N88	N	1.565002	0.615825	0.262626
C89	C	1.003693	0.172657	0.710124
C90	C	1.503693	0.672657	1.210124
C91	C	1.126301	0.058993	0.710101
C92	C	1.626301	0.558993	1.210101
C93	C	1.126291	0.058990	0.605082
C94	C	1.626291	0.558990	1.105082
C95	C	1.064982	0.115823	0.552580
C96	C	1.564982	0.615823	1.052580
C97	C	1.003682	0.172658	0.605096
C98	C	1.503682	0.672658	1.105096
C99	C	1.187595	0.002162	0.552559
C100	C	1.687595	0.502162	1.052559
C101	C	1.187588	0.002158	0.447534
C102	C	1.687588	0.502158	0.947534
C103	C	1.126274	0.058987	0.395030
C104	C	1.626274	0.558987	0.895030
C105	C	1.064971	0.115824	0.447552
C106	C	1.564971	0.615824	0.947552
C107	C	1.003662	0.172656	0.395050
C108	C	1.503662	0.672656	0.895050
C109	C	0.942354	0.229490	0.447570
C110	C	1.442354	0.729490	0.947570
C111	C	0.942368	0.229487	0.552592
C112	C	1.442368	0.729487	1.052592
C113	C	1.126260	0.058989	0.290008
C114	C	1.626260	0.558989	0.790008
C115	C	1.003652	0.172657	0.290022
C116	C	1.503652	0.672657	0.790022
H117	H	0.810823	-0.018548	0.000053
H118	H	1.310823	0.481452	0.500053
N119	N	0.348521	-0.046914	0.000092
N120	N	0.848521	0.453086	0.500092
H121	H	0.309982	-0.051006	-0.061751
H122	H	0.809982	0.448994	0.438249
H123	H	0.399432	-0.094401	0.000130
H124	H	0.899432	0.405599	0.500130
N125	N	1.192414	-0.002309	0.766726
N126	N	1.692414	0.497691	1.266726
H127	H	1.231242	-0.038316	0.717519
H128	H	1.731242	0.461684	1.217519
H129	H	1.232274	0.029809	0.810291
H130	H	1.732274	0.529809	1.310291
N131	N	0.303862	0.270128	0.000061
N132	N	0.803862	0.770128	0.500061
H133	H	0.238787	0.257377	0.000062
H134	H	0.738787	0.757377	0.500062
H135	H	0.315601	0.303721	0.061913
H136	H	0.815601	0.803721	0.561913
H137	H	0.509909	-0.100310	0.000103
H138	H	1.009909	0.399690	0.500103
N139	N	1.067705	-0.305354	-0.188941
N140	N	1.567705	0.194646	0.311059
H141	H	1.070257	-0.242540	-0.190845
H142	H	1.570257	0.257460	0.309155
H143	H	1.099009	-0.332063	-0.250155
H144	H	1.599009	0.167937	0.249845
N145	N	1.192355	-0.002310	0.233346
N146	N	1.692355	0.497690	0.733346
H147	H	1.232261	0.029750	0.189751
H148	H	1.732261	0.529750	0.689751
H149	H	1.231139	-0.038305	0.282594
H150	H	1.731139	0.461695	0.782594
N151	N	1.072078	-0.465659	-0.189979
N152	N	1.572078	0.034341	0.310021
H153	H	1.019016	-0.497444	-0.173102
H154	H	1.519016	0.002556	0.326898
H155	H	1.050367	-0.414428	-0.231324
H156	H	1.550367	0.085572	0.268676
N157	N	1.211292	-0.321006	-0.103202
N158	N	1.711292	0.178994	0.396798
H159	H	1.225247	-0.284668	-0.044506
H160	H	1.725247	0.215332	0.455494
H161	H	1.253816	-0.374895	-0.102383
H162	H	1.753816	0.125105	0.397617
H163	H	0.771830	0.258190	0.000045
H164	H	1.271830	0.758190	0.500045
N165	N	1.065706	-0.462350	0.189753
N166	N	1.565706	0.037650	0.689753
H167	H	1.010338	-0.490345	0.171287
H168	H	1.510338	0.009655	0.671287
H169	H	1.108565	-0.502643	0.230243
H170	H	1.608565	-0.002643	0.730243
H171	H	1.081388	-0.313073	0.166242
H172	H	1.581388	0.186927	0.666242
N173	N	0.629620	0.352348	0.000033
N174	N	1.129620	0.852348	0.500033
H175	H	0.578757	0.399883	0.000032
H176	H	1.078757	0.899883	0.500032
H177	H	0.668166	0.356363	0.061883
H178	H	1.168166	0.856363	0.561883
H179	H	0.928381	-0.295565	-0.068242
H180	H	1.428381	0.204435	0.431758
N181	N	0.695790	-0.117241	0.000057
N182	N	1.195790	0.382759	0.500057
H183	H	0.760863	-0.104484	0.000047
H184	H	1.260863	0.395516	0.500047
H185	H	0.684053	-0.150836	0.061914
H186	H	1.184053	0.349164	0.561914
N187	N	0.434156	0.348879	0.000040
N188	N	0.934156	0.848879	0.500040
H189	H	0.394665	0.351570	-0.061809
H190	H	0.894665	0.851570	0.438191
H191	H	0.394717	0.351539	0.061933
H192	H	0.894717	0.851539	0.561933
H193	H	1.237516	-0.044106	0.595309
H194	H	1.737516	0.455894	1.095309
N195	N	1.253704	-0.059148	0.390899
N196	N	1.753704	0.440852	0.890899
H197	H	1.219249	-0.096280	0.347339
H198	H	1.719249	0.403720	0.847339
H199	H	1.293599	-0.027028	0.347369
H200	H	1.793599	0.472972	0.847369
H201	H	0.925422	-0.439212	-0.068644
H202	H	1.425422	0.060788	0.431356
N203	N	1.211022	-0.480358	-0.095170
N204	N	1.711022	0.019642	0.404830
H205	H	1.221356	-0.518324	-0.034753
H206	H	1.721356	-0.018324	0.465247
H207	H	1.221797	-0.514788	-0.158419
H208	H	1.721797	-0.014788	0.341581
N209	N	0.912837	-0.446644	0.089675
N210	N	1.412837	0.053356	0.589675
H211	H	0.952867	-0.488945	0.130690
H212	H	1.452867	0.011055	0.630690
H213	H	0.893174	-0.395558	0.132143
H214	H	1.393174	0.104442	0.632143
N215	N	1.212453	-0.322604	0.100009
N216	N	1.712453	0.177396	0.600009
H217	H	1.214331	-0.259731	0.103037
H218	H	1.714331	0.240269	0.603037
H219	H	1.242336	-0.349632	0.161828
H220	H	1.742336	0.150368	0.661828
H221	H	0.928108	-0.296125	0.068470
H222	H	1.428108	0.203875	0.568470
H223	H	1.185062	-0.470217	0.099744
H224	H	1.685062	0.029783	0.599744
H225	H	0.953723	0.218935	0.247280
H226	H	1.453723	0.718935	0.747280
N227	N	0.876234	0.290791	0.390939
N228	N	1.376234	0.790791	0.890939
H229	H	0.885537	0.282166	0.316440
H230	H	1.385537	0.782166	0.816440
H231	H	0.812282	0.281008	0.409300
H232	H	1.312282	0.781008	0.909300
N233	N	0.876248	0.290781	0.609237
N234	N	1.376248	0.790781	1.109237
H235	H	0.885562	0.282158	0.683734
H236	H	1.385562	0.782158	1.183734
H237	H	0.886656	0.350199	0.590873
H238	H	1.386656	0.850199	1.090873
N239	N	0.937565	0.233949	0.766762
N240	N	1.437565	0.733949	1.266762
H241	H	0.946868	0.225327	0.841260
H242	H	1.446868	0.725327	1.341260
H243	H	0.947972	0.293368	0.748401
H244	H	1.447972	0.793368	1.248401
