data_functionalizedCrystal
_audit_creation_method	'MofGen! by Chris Wilmer'
_symmetry_space_group_name_H-M	'P1'
_symmetry_Int_Tables_number	1
_symmetry_cell_setting	triclinic
loop_
_symmetry_equiv_pos_as_xyz
  x,y,z
_cell_length_a	15.944551
_cell_length_b	26.210047
_cell_length_c	15.944551
_cell_angle_alpha	90.003550
_cell_angle_beta	96.501262
_cell_angle_gamma	90.004547
loop_
_atom_site_label
_atom_site_type_symbol
_atom_site_fract_x
_atom_site_fract_y
_atom_site_fract_z
O1	O	1.114531	0.042377	-0.108320
O2	O	1.614531	0.542377	0.391680
O3	O	0.869981	0.042390	-0.121676
O4	O	1.369981	0.542390	0.378324
O5	O	0.998934	0.042378	0.007277
O6	O	1.498934	0.542378	0.507277
O7	O	0.985578	0.042388	-0.237273
O8	O	1.485578	0.542388	0.262727
O9	O	0.998909	-0.042480	0.007257
O10	O	1.498909	0.457520	0.507257
O11	O	0.869956	-0.042468	-0.121696
O12	O	1.369956	0.457532	0.378304
O13	O	1.114506	-0.042481	-0.108340
O14	O	1.614506	0.457519	0.391660
Cu15	Cu	0.992229	-0.050223	-0.115020
Cu16	Cu	1.492229	0.449777	0.384980
Cu17	Cu	0.992258	0.050132	-0.114996
Cu18	Cu	1.492258	0.550132	0.385004
O19	O	0.985553	-0.042470	-0.237293
O20	O	1.485553	0.457530	0.262707
C21	C	0.838675	-0.000038	-0.121132
C22	C	1.338675	0.499962	0.378868
C23	C	0.745429	-0.000033	-0.119470
C24	C	1.245429	0.499967	0.380530
N25	N	0.992214	-0.120807	-0.115036
N26	N	1.492214	0.379193	0.384964
C27	C	0.530572	-0.000046	-0.035565
C28	C	1.030572	0.499954	0.464435
C29	C	0.469564	0.041795	-0.074518
C30	C	0.969564	0.541795	0.425482
C31	C	0.574703	-0.000039	-0.116462
C32	C	1.074703	0.499961	0.383538
C33	C	0.469562	-0.041869	-0.074557
C34	C	0.969562	0.458131	0.425443
C35	C	0.409790	-0.000047	-0.113551
C36	C	0.909790	0.499953	0.386449
C37	C	0.514923	0.041837	-0.155437
C38	C	1.014923	0.541837	0.344563
C39	C	0.514927	-0.041864	-0.155465
C40	C	1.014927	0.458136	0.344535
C41	C	0.453937	-0.000013	-0.194476
C42	C	0.953937	0.499987	0.305524
C43	C	0.669705	-0.000034	-0.118137
C44	C	1.169705	0.499966	0.381863
C45	C	0.314789	-0.000049	-0.111883
C46	C	0.814789	0.499951	0.388117
C47	C	1.049353	-0.473326	-0.057909
C48	C	1.549353	0.026674	0.442091
C49	C	1.049372	-0.686985	-0.057897
C50	C	1.549372	-0.186985	0.442103
O51	O	1.097920	-0.714611	-0.009329
O52	O	1.597920	-0.214611	0.490671
N53	N	0.992263	-0.713701	-0.114978
N54	N	1.492263	-0.213701	0.385022
C55	C	0.935142	-0.686999	-0.172062
C56	C	1.435142	-0.186999	0.327938
O57	O	0.886562	-0.714625	-0.220606
O58	O	1.386562	-0.214625	0.279394
C59	C	0.935120	-0.473342	-0.172069
C60	C	1.435120	0.026658	0.327931
C61	C	0.992238	-0.446628	-0.114990
C62	C	1.492238	0.053372	0.385010
C63	C	1.106466	-0.446612	-0.000834
C64	C	1.606466	0.053388	0.499166
C65	C	1.106464	-0.393201	-0.000841
C66	C	1.606464	0.106799	0.499159
C67	C	1.049349	-0.366503	-0.057922
C68	C	1.549349	0.133497	0.442078
C69	C	0.992236	-0.393217	-0.114997
C70	C	1.492236	0.106783	0.385003
C71	C	0.877996	-0.446641	-0.229148
C72	C	1.377996	0.053359	0.270852
C73	C	0.877994	-0.393223	-0.229143
C74	C	1.377994	0.106777	0.270857
C75	C	0.935112	-0.366510	-0.172065
C76	C	1.435112	0.133490	0.327935
C77	C	0.935119	-0.313107	-0.172084
C78	C	1.435119	0.186893	0.327916
N79	N	0.992228	-0.286391	-0.115004
N80	N	1.492228	0.213609	0.384996
C81	C	1.049342	-0.313089	-0.057923
C82	C	1.549342	0.186911	0.442077
C83	C	0.935159	-0.799172	-0.172055
C84	C	1.435159	-0.299172	0.327945
C85	C	0.935165	-0.852587	-0.172055
C86	C	1.435165	-0.352587	0.327945
C87	C	1.049394	-0.852568	-0.057889
C88	C	1.549394	-0.352568	0.442111
C89	C	1.049391	-0.799153	-0.057894
C90	C	1.549391	-0.299153	0.442106
C91	C	0.992267	-0.772456	-0.114975
C92	C	1.492267	-0.272456	0.385025
C93	C	1.049334	-0.200921	-0.057941
C94	C	1.549334	0.299079	0.442059
C95	C	1.049329	-0.147505	-0.057955
C96	C	1.549329	0.352495	0.442045
C97	C	0.935098	-0.147528	-0.172118
C98	C	1.435098	0.352472	0.327882
C99	C	0.935105	-0.200939	-0.172107
C100	C	1.435105	0.299061	0.327893
C101	C	0.992227	-0.227635	-0.115012
C102	C	1.492227	0.272365	0.384988
O103	O	0.886589	-0.285448	-0.220621
O104	O	1.386589	0.214552	0.279379
O105	O	1.097902	-0.285453	-0.009373
O106	O	1.597902	0.214547	0.490627
C107	C	1.049355	-0.526737	-0.057902
C108	C	1.549355	-0.026737	0.442098
C109	C	0.992242	-0.553451	-0.114977
C110	C	1.492242	-0.053451	0.385023
C111	C	0.935128	-0.526753	-0.172058
C112	C	1.435128	-0.026753	0.327942
C113	C	0.992249	-0.606865	-0.114976
C114	C	1.492249	-0.106865	0.385024
C115	C	1.049364	-0.633563	-0.057895
C116	C	1.549364	-0.133563	0.442105
C117	C	1.106472	-0.606847	-0.000814
C118	C	1.606472	-0.106847	0.499186
C119	C	1.106470	-0.553435	-0.000821
C120	C	1.606470	-0.053435	0.499179
C121	C	0.878019	-0.553469	-0.229139
C122	C	1.378019	-0.053469	0.270861
C123	C	0.878026	-0.606881	-0.229128
C124	C	1.378026	-0.106881	0.270872
C125	C	0.935141	-0.633579	-0.172047
C126	C	1.435141	-0.133579	0.327953
C127	C	1.145813	-0.000053	-0.108885
C128	C	1.645813	0.499947	0.391115
C129	C	1.239059	-0.000054	-0.110547
C130	C	1.739059	0.499946	0.389453
C131	C	0.998367	-0.000051	0.038561
C132	C	1.498367	0.499949	0.538561
C133	C	0.996705	-0.000051	0.131807
C134	C	1.496705	0.499949	0.631807
N135	N	0.992280	0.120715	-0.114973
N136	N	1.492280	0.620715	0.385027
C137	C	0.986120	-0.000040	-0.268577
C138	C	1.486120	0.499960	0.231423
C139	C	0.987782	-0.000036	-0.361823
C140	C	1.487782	0.499964	0.138177
C141	C	0.912801	-0.000039	0.346663
C142	C	1.412801	0.499961	0.846663
C143	C	0.951751	-0.041882	0.407671
C144	C	1.451751	0.458118	0.907671
C145	C	0.993698	-0.000047	0.302533
C146	C	1.493698	0.499953	0.802533
C147	C	0.951794	0.041782	0.407674
C148	C	1.451794	0.541782	0.907674
C149	C	0.990787	-0.000041	0.467445
C150	C	1.490787	0.499959	0.967445
C151	C	1.032670	-0.041924	0.362312
C152	C	1.532670	0.458076	0.862312
C153	C	1.032702	0.041777	0.362309
C154	C	1.532702	0.541777	0.862309
C155	C	1.071711	-0.000075	0.423298
C156	C	1.571711	0.499925	0.923298
C157	C	0.995372	-0.000051	0.207530
C158	C	1.495372	0.499949	0.707530
C159	C	0.989119	-0.000040	0.562446
C160	C	1.489119	0.499960	1.062446
H161	H	0.563905	0.000003	0.031573
H162	H	1.063905	0.500003	0.531573
H163	H	1.066847	-0.077337	0.342313
H164	H	1.566847	0.422663	0.842313
H165	H	0.449465	0.077166	-0.040293
H166	H	0.949465	0.577166	0.459707
H167	H	0.888663	-0.874333	-0.218542
H168	H	1.388663	-0.374333	0.281458
H169	H	0.831508	-0.531736	-0.275620
H170	H	1.331508	-0.031736	0.224380
C171	C	1.169284	-0.363823	0.061956
C172	C	1.669284	0.136177	0.561956
H173	H	1.203289	-0.387379	0.095954
H174	H	1.703289	0.112621	0.595954
H175	H	1.204253	-0.342983	0.031728
H176	H	1.704253	0.157017	0.531728
H177	H	1.139061	-0.342990	0.096946
H178	H	1.639061	0.157010	0.596946
H179	H	1.138919	-0.000102	0.456457
H180	H	1.638919	0.499898	0.956457
H181	H	1.152975	-0.468345	0.045652
H182	H	1.652975	0.031655	0.545652
C183	C	0.872271	-0.118153	-0.234896
C184	C	1.372271	0.381847	0.265104
H185	H	0.880447	-0.082517	-0.226712
H186	H	1.380447	0.417483	0.273288
H187	H	0.881380	-0.126905	-0.290967
H188	H	1.381380	0.373095	0.209033
H189	H	0.816215	-0.126910	-0.225722
H190	H	1.316215	0.373090	0.274278
H191	H	0.534922	0.077248	-0.189619
H192	H	1.034922	0.577248	0.310381
C193	C	0.409134	0.000021	-0.285261
C194	C	0.909134	0.500021	0.214739
H195	H	0.424653	0.029770	-0.313852
H196	H	0.924653	0.529770	0.186148
H197	H	0.425352	-0.029417	-0.314217
H198	H	0.925352	0.470583	0.185783
H199	H	0.349749	-0.000257	-0.283719
H200	H	0.849749	0.499743	0.216281
H201	H	1.066900	0.077150	0.342187
H202	H	1.566900	0.577150	0.842187
H203	H	1.152981	-0.531689	0.045658
H204	H	1.652981	-0.031689	0.545658
C205	C	1.112212	-0.881942	0.004906
C206	C	1.612212	-0.381942	0.504906
H207	H	1.104024	-0.917579	-0.003268
H208	H	1.604024	-0.417579	0.496732
H209	H	1.168272	-0.873189	-0.004238
H210	H	1.668272	-0.373189	0.495762
H211	H	1.103073	-0.873188	0.060972
H212	H	1.603073	-0.373188	0.560972
H213	H	0.917578	0.077159	0.427759
H214	H	1.417578	0.577159	0.927759
H215	H	1.095900	-0.777406	-0.011415
H216	H	1.595900	-0.277406	0.488585
H217	H	1.152980	-0.628593	0.045661
H218	H	1.652980	-0.128593	0.545661
C219	C	0.542120	-0.089648	-0.201657
C220	C	1.042120	0.410352	0.298343
H221	H	0.526771	-0.119350	-0.172840
H222	H	1.026771	0.380650	0.327160
H223	H	0.514824	-0.089947	-0.257792
H224	H	1.014824	0.410053	0.242208
H225	H	0.601553	-0.089133	-0.202818
H226	H	1.101553	0.410867	0.297182
C227	C	0.442415	-0.089654	-0.028331
C228	C	0.942415	0.410346	0.471669
H229	H	0.468931	-0.089601	0.028114
H230	H	0.968931	0.410399	0.528114
H231	H	0.382871	-0.089478	-0.028054
H232	H	0.882871	0.410522	0.471946
H233	H	0.458715	-0.119365	-0.056527
H234	H	0.958715	0.380635	0.443473
H235	H	0.888641	-0.777439	-0.218539
H236	H	1.388641	-0.277439	0.281461
H237	H	1.095845	-0.125756	-0.011475
H238	H	1.595845	0.374244	0.488525
H239	H	1.095847	-0.222650	-0.011448
H240	H	1.595847	0.277350	0.488552
H241	H	0.831485	-0.468384	-0.275626
H242	H	1.331485	0.031616	0.224374
H243	H	0.831475	-0.371489	-0.275624
H244	H	1.331475	0.128511	0.224376
H245	H	0.888603	-0.222690	-0.218594
H246	H	1.388603	0.277310	0.281406
C247	C	0.815189	-0.636260	-0.291916
C248	C	1.315189	-0.136260	0.208084
H249	H	0.781169	-0.612705	-0.325902
H250	H	1.281169	-0.112705	0.174098
H251	H	0.845389	-0.657101	-0.326906
H252	H	1.345389	-0.157101	0.173094
H253	H	0.780223	-0.657092	-0.261662
H254	H	1.280223	-0.157092	0.238338
H255	H	0.845652	-0.000078	0.313356
H256	H	1.345652	0.499922	0.813356
C257	C	0.905517	-0.089663	0.434830
C258	C	1.405517	0.410337	0.934830
H259	H	0.849067	-0.089610	0.408329
H260	H	1.349067	0.410390	0.908329
H261	H	0.933703	-0.119375	0.418540
H262	H	1.433703	0.380625	0.918540
H263	H	0.905243	-0.089473	0.494379
H264	H	1.405243	0.410527	0.994379
