data_functionalizedCrystal
_audit_creation_method	'MofGen! by Chris Wilmer'
_symmetry_space_group_name_H-M	'P1'
_symmetry_Int_Tables_number	1
_symmetry_cell_setting	triclinic
loop_
_symmetry_equiv_pos_as_xyz
  x,y,z
_cell_length_a	16.109301
_cell_length_b	19.188930
_cell_length_c	15.186229
_cell_angle_alpha	89.991143
_cell_angle_beta	89.999362
_cell_angle_gamma	83.303131
loop_
_atom_site_label
_atom_site_type_symbol
_atom_site_fract_x
_atom_site_fract_y
_atom_site_fract_z
O1	O	1.102833	0.089744	-0.073183
O2	O	1.602833	0.589744	0.426817
O3	O	0.860734	0.100912	-0.073198
O4	O	1.360734	0.600912	0.426802
O5	O	0.988770	-0.006311	-0.073173
O6	O	1.488770	0.493689	0.426827
O7	O	0.974797	0.196967	-0.073208
O8	O	1.474797	0.696967	0.426792
O9	O	0.988762	-0.006313	0.073284
O10	O	1.488762	0.493687	0.573284
O11	O	0.860726	0.100911	0.073259
O12	O	1.360726	0.600911	0.573259
O13	O	1.102825	0.089742	0.073274
O14	O	1.602825	0.589742	0.573274
Zn15	Zn	0.981774	0.095326	0.096520
Zn16	Zn	1.481774	0.595326	0.596520
Zn17	Zn	0.981785	0.095328	-0.096444
Zn18	Zn	1.481785	0.595328	0.403556
O19	O	0.974789	0.196966	0.073249
O20	O	1.474789	0.696966	0.573249
C21	C	0.829757	0.100459	0.000029
C22	C	1.329757	0.600459	0.500029
C23	C	0.737466	0.099103	0.000024
C24	C	1.237466	0.599103	0.500024
C25	C	0.514993	0.159573	0.000023
C26	C	1.014993	0.659573	0.500023
C27	C	0.428277	0.158294	0.000029
C28	C	0.928277	0.658294	0.500029
C29	C	0.448573	0.031076	0.000048
C30	C	0.948573	0.531076	0.500048
C31	C	0.535287	0.032357	0.000048
C32	C	1.035287	0.532357	0.500048
C33	C	0.568495	0.096608	0.000031
C34	C	1.068495	0.596608	0.500031
C35	C	0.395064	0.094047	0.000037
C36	C	0.895064	0.594047	0.500037
C37	C	0.301043	0.092659	0.000043
C38	C	0.801043	0.592659	0.500043
C39	C	0.662522	0.097996	0.000027
C40	C	1.162522	0.597996	0.500027
C41	C	0.988313	-0.032324	0.000058
C42	C	1.488313	0.467676	0.500058
C43	C	0.986955	-0.109832	0.000066
C44	C	1.486955	0.390168	0.500066
C45	C	1.062082	-0.154580	0.000075
C46	C	1.562082	0.345420	0.500075
C47	C	1.060806	-0.227407	0.000060
C48	C	1.560806	0.272593	0.500060
C49	C	0.984399	-0.255482	0.000055
C50	C	1.484399	0.244518	0.500055
C51	C	0.909261	-0.210724	0.000041
C52	C	1.409261	0.289276	0.500041
C53	C	0.910540	-0.137899	0.000046
C54	C	1.410540	0.362101	0.500046
N55	N	0.925991	-0.363624	0.049893
N56	N	1.425991	0.136376	0.549893
N57	N	0.924782	-0.432805	0.049890
N58	N	1.424782	0.067195	0.549890
C59	C	0.980543	-0.474900	0.000037
C60	C	1.480543	0.025100	0.500037
N61	N	1.037571	-0.445200	-0.049802
N62	N	1.537571	0.054800	0.450198
N63	N	1.038783	-0.376013	-0.049795
N64	N	1.538783	0.123987	0.450205
C65	C	0.983004	-0.334448	0.000049
C66	C	1.483004	0.165552	0.500049
C67	C	1.054292	-0.598616	0.000029
C68	C	1.554292	-0.098616	0.500029
C69	C	1.053012	-0.671443	0.000010
C70	C	1.553012	-0.171443	0.500010
C71	C	0.901465	-0.654759	-0.000001
C72	C	1.401465	-0.154759	0.499999
C73	C	0.902747	-0.581933	0.000010
C74	C	1.402747	-0.081933	0.500010
C75	C	0.979162	-0.553866	0.000029
C76	C	1.479162	-0.053866	0.500029
C77	C	1.133802	0.090196	0.000045
C78	C	1.633802	0.590196	0.500045
C79	C	1.226093	0.091552	0.000045
C80	C	1.726093	0.591552	0.500045
C81	C	0.975246	0.222979	0.000016
C82	C	1.475246	0.722979	0.500016
C83	C	0.976604	0.300486	0.000003
C84	C	1.476604	0.800486	0.500003
N85	N	0.981772	0.095325	0.228213
N86	N	1.481772	0.595325	0.728213
N87	N	0.981793	0.095325	-0.228137
N88	N	1.481793	0.595325	0.271863
C89	C	1.038486	0.047862	0.453947
C90	C	1.538486	0.547862	0.953947
C91	C	1.038488	0.047860	0.546136
C92	C	1.538488	0.547860	1.046136
C93	C	0.925074	0.142790	0.546123
C94	C	1.425074	0.642790	1.046123
C95	C	0.925068	0.142787	0.453935
C96	C	1.425068	0.642787	0.953935
C97	C	0.981779	0.095324	0.407849
C98	C	1.481779	0.595324	0.907849
C99	C	0.981787	0.095325	0.592227
C100	C	1.481787	0.595325	1.092227
C101	C	0.981790	0.095323	0.692183
C102	C	1.481790	0.595323	1.192183
C103	C	0.981775	0.095325	0.307887
C104	C	1.481775	0.595325	0.807887
H105	H	0.578851	-0.018920	0.000057
H106	H	1.078851	0.481080	0.500057
H107	H	0.878902	0.181434	0.583655
H108	H	1.378902	0.681434	1.083655
H109	H	1.121986	-0.263848	0.000064
H110	H	1.621986	0.236152	0.500064
H111	H	1.084662	0.009214	0.416426
H112	H	1.584662	0.509214	0.916426
C113	C	1.145131	-0.124243	0.000044
C114	C	1.645131	0.375757	0.500044
C115	C	1.210652	-0.179026	0.000027
C116	C	1.710652	0.320974	0.500027
C117	C	1.287167	-0.151105	-0.000014
C118	C	1.787167	0.348895	0.499986
H119	H	1.148894	-0.096199	0.051105
H120	H	1.648894	0.403801	0.551105
H121	H	1.148831	-0.096194	-0.051047
H122	H	1.648831	0.403806	0.448953
H123	H	1.206953	-0.207064	0.051113
H124	H	1.706953	0.292936	0.551113
H125	H	1.206916	-0.207075	-0.051030
H126	H	1.706916	0.292925	0.448970
H127	H	1.290867	-0.123056	-0.051105
H128	H	1.790867	0.376944	0.448895
H129	H	1.290921	-0.123061	0.051048
H130	H	1.790921	0.376939	0.551048
H131	H	1.331632	-0.188270	-0.000034
H132	H	1.831632	0.311730	0.499966
H133	H	0.878886	0.181437	0.416400
H134	H	1.378886	0.681437	0.916400
H135	H	1.084664	0.009211	0.583666
H136	H	1.584664	0.509211	1.083666
H137	H	0.542027	0.211890	0.000016
H138	H	1.042027	0.711890	0.500016
H139	H	0.384719	0.209567	0.000024
H140	H	0.884719	0.709567	0.500024
C141	C	1.134560	-0.720063	-0.000167
C142	C	1.634560	-0.220063	0.499833
C143	C	1.138274	-0.762330	-0.075534
C144	C	1.638274	-0.262330	0.424466
C145	C	1.213390	-0.807121	-0.075734
C146	C	1.713390	-0.307121	0.424266
H147	H	1.137287	-0.748897	0.050841
H148	H	1.637287	-0.248897	0.550841
H149	H	1.180272	-0.692937	-0.000202
H150	H	1.680272	-0.192937	0.499798
H151	H	1.092575	-0.789454	-0.075491
H152	H	1.592575	-0.289454	0.424509
H153	H	1.135561	-0.733516	-0.126554
H154	H	1.635561	-0.233516	0.373446
H155	H	1.259102	-0.779995	-0.075769
H156	H	1.759102	-0.279995	0.424231
H157	H	1.216110	-0.835949	-0.024722
H158	H	1.716110	-0.335949	0.475278
H159	H	1.215923	-0.835799	-0.126873
H160	H	1.715923	-0.335799	0.373127
C161	C	0.826364	-0.241298	-0.000101
C162	C	1.326364	0.258702	0.499899
C163	C	0.821219	-0.282625	-0.075440
C164	C	1.321219	0.217375	0.424560
C165	C	0.744869	-0.310807	-0.075600
C166	C	1.244869	0.189193	0.424400
H167	H	0.781729	-0.204287	-0.000151
H168	H	1.281729	0.295713	0.499849
H169	H	0.822704	-0.269407	0.050945
H170	H	1.322704	0.230593	0.550945
H171	H	0.824871	-0.254518	-0.126472
H172	H	1.324871	0.245482	0.373528
H173	H	0.865836	-0.319647	-0.075406
H174	H	1.365836	0.180353	0.424594
H175	H	0.741209	-0.338916	-0.024554
H176	H	1.241209	0.161084	0.475446
H177	H	0.700241	-0.273792	-0.075647
H178	H	1.200241	0.226208	0.424353
H179	H	0.741372	-0.338855	-0.126712
H180	H	1.241372	0.161145	0.373288
C181	C	0.412678	-0.038749	0.000097
C182	C	0.912678	0.461251	0.500097
C183	C	0.478096	-0.093619	0.000127
C184	C	0.978096	0.406381	0.500127
C185	C	0.445064	-0.157953	0.000180
C186	C	0.945064	0.342047	0.500180
H187	H	0.379288	-0.041989	-0.050964
H188	H	0.879288	0.458011	0.449036
H189	H	0.379294	-0.041936	0.051189
H190	H	0.879294	0.458064	0.551189
H191	H	0.511466	-0.090434	-0.050959
H192	H	1.011466	0.409566	0.449041
H193	H	0.511491	-0.090402	0.051184
H194	H	1.011491	0.409598	0.551184
H195	H	0.411680	-0.161139	0.051272
H196	H	0.911680	0.338861	0.551272
H197	H	0.411674	-0.161185	-0.050882
H198	H	0.911674	0.338815	0.449118
H199	H	0.489444	-0.195189	0.000209
H200	H	0.989444	0.304811	0.500209
C201	C	0.828879	-0.089426	0.000087
C202	C	1.328879	0.410574	0.500087
C203	C	0.761687	-0.129596	0.000097
C204	C	1.261687	0.370404	0.500097
C205	C	0.686449	-0.084965	0.000149
C206	C	1.186449	0.415035	0.500149
H207	H	0.826113	-0.060643	-0.050968
H208	H	1.326113	0.439357	0.449032
H209	H	0.826179	-0.060691	0.051185
H210	H	1.326179	0.439309	0.551185
H211	H	0.764386	-0.158318	-0.050995
H212	H	1.264386	0.341682	0.449005
H213	H	0.764425	-0.158376	0.051148
H214	H	1.264425	0.341624	0.551148
H215	H	0.683749	-0.056230	0.051246
H216	H	1.183749	0.443770	0.551246
H217	H	0.683692	-0.056185	-0.050907
H218	H	1.183692	0.443815	0.449093
H219	H	0.640851	-0.112214	0.000164
H220	H	1.140851	0.387786	0.500164
C221	C	1.137276	-0.568174	-0.000148
C222	C	1.637276	-0.068174	0.499852
C223	C	1.182668	-0.590890	-0.075512
C224	C	1.682668	-0.090890	0.424488
C225	C	1.259111	-0.562855	-0.075714
C226	C	1.759111	-0.062855	0.424286
H227	H	1.168303	-0.583525	0.050863
H228	H	1.668303	-0.083525	0.550863
H229	H	1.127311	-0.518390	-0.000190
H230	H	1.627311	-0.018390	0.499810
H231	H	1.192636	-0.640663	-0.075462
H232	H	1.692636	-0.140663	0.424538
H233	H	1.151666	-0.575539	-0.126535
H234	H	1.651666	-0.075539	0.373465
H235	H	1.249145	-0.513071	-0.075755
H236	H	1.749145	-0.013071	0.424245
H237	H	1.290130	-0.578208	-0.024700
H238	H	1.790130	-0.078208	0.475300
H239	H	1.289915	-0.578258	-0.126851
H240	H	1.789915	-0.078258	0.373149
C241	C	0.818591	-0.685366	0.000032
C242	C	1.318591	-0.185366	0.500032
C243	C	0.833549	-0.758722	0.000047
C244	C	1.333549	-0.258722	0.500047
C245	C	0.757224	-0.786945	0.000084
C246	C	1.257224	-0.286945	0.500084
H247	H	0.787610	-0.670071	-0.051029
H248	H	1.287610	-0.170071	0.448971
H249	H	0.787655	-0.670054	0.051124
H250	H	1.287655	-0.170054	0.551124
H251	H	0.864472	-0.774028	-0.051039
H252	H	1.364472	-0.274028	0.448961
H253	H	0.864518	-0.774037	0.051104
H254	H	1.364518	-0.274037	0.551104
H255	H	0.726287	-0.771632	0.051175
H256	H	1.226287	-0.271632	0.551175
H257	H	0.726248	-0.771644	-0.050978
H258	H	1.226248	-0.271644	0.449022
H259	H	0.767362	-0.836719	0.000102
H260	H	1.267362	-0.336719	0.500102
H261	H	0.841570	-0.545497	0.000008
H262	H	1.341570	-0.045497	0.500008
