data_functionalizedCrystal
_audit_creation_method	'MofGen! by Chris Wilmer'
_symmetry_space_group_name_H-M	'P1'
_symmetry_Int_Tables_number	1
_symmetry_cell_setting	triclinic
loop_
_symmetry_equiv_pos_as_xyz
  x,y,z
_cell_length_a	19.805407
_cell_length_b	10.686285
_cell_length_c	19.805399
_cell_angle_alpha	94.389466
_cell_angle_beta	90.019573
_cell_angle_gamma	85.631507
loop_
_atom_site_label
_atom_site_type_symbol
_atom_site_fract_x
_atom_site_fract_y
_atom_site_fract_z
Zn1	Zn	1.055500	-0.502374	0.362110
Zn2	Zn	1.064136	-0.713385	0.240266
Zn3	Zn	0.942316	-0.502409	0.248934
Zn4	Zn	0.950997	-0.713318	0.353415
O5	O	1.003237	-0.607872	0.301181
O6	O	1.151363	-0.530379	0.345959
O7	O	1.047958	-0.685441	0.146697
O8	O	0.950083	-0.325830	0.271213
O9	O	1.157708	-0.685408	0.256440
O10	O	1.033239	-0.325804	0.354364
O11	O	0.958457	-0.530438	0.153065
O12	O	0.848750	-0.530373	0.262782
O13	O	0.964878	-0.685293	0.449287
O14	O	0.855128	-0.685327	0.339544
O15	O	1.041656	-0.530314	0.455675
O16	O	1.056375	-0.889951	0.248009
O17	O	0.973252	-0.889902	0.331139
C18	C	0.827380	-0.607847	0.301160
C19	C	0.752149	-0.607868	0.301166
C20	C	0.720149	-0.688673	0.341061
C21	C	0.649460	-0.688676	0.341071
C22	C	0.610774	-0.607877	0.301181
C23	C	0.642779	-0.527063	0.261284
C24	C	0.713466	-0.527055	0.261279
C25	C	0.357707	-0.527090	0.261306
C26	C	0.287015	-0.527107	0.261312
C27	C	0.293701	-0.688711	0.341097
C28	C	0.364388	-0.688704	0.341092
C29	C	0.396387	-0.607885	0.301198
C30	C	0.473035	-0.607882	0.301190
C31	C	0.534127	-0.607886	0.301186
C32	C	1.016711	-0.935710	0.287705
C33	C	1.022538	-1.075961	0.281962
C34	C	1.179781	-0.607897	0.301203
C35	C	1.255013	-0.607907	0.301212
C36	C	1.003272	-0.607792	0.477727
C37	C	1.003287	-0.607758	0.552961
C38	C	0.989729	-0.278753	0.314725
C39	C	0.983973	-0.138502	0.320497
C40	C	1.003238	-0.607860	0.125326
C41	C	1.003340	-0.607538	0.050107
C42	C	1.043266	-0.527056	0.591633
C43	C	1.043271	-0.527020	0.662323
C44	C	1.003301	-0.607692	0.694339
C45	C	0.963317	-0.688398	0.655662
C46	C	0.963308	-0.688427	0.584974
C47	C	0.963350	-0.688280	0.940740
C48	C	0.963364	-0.688247	1.011434
C49	C	1.043313	-0.526873	1.018089
C50	C	1.043305	-0.526902	0.947401
C51	C	1.003318	-0.607602	0.908730
C52	C	1.003312	-0.607639	0.832080
C53	C	1.003310	-0.607663	0.770988
H54	H	0.623409	-0.754477	0.373557
C55	C	1.133593	-0.509456	0.742573
C56	C	1.087209	-0.438306	0.704839
H57	H	1.160713	-0.454679	0.768825
H58	H	1.161743	-0.564431	0.712744
H59	H	1.109779	-0.557497	0.771749
H60	H	1.111023	-0.390272	0.675659
H61	H	1.059056	-0.383309	0.734671
C62	C	0.927829	-0.759986	0.829431
C63	C	0.919404	-0.776993	0.898239
H64	H	0.900694	-0.814753	0.803192
H65	H	0.974057	-0.778465	0.817097
H66	H	0.914438	-0.675206	0.821341
H67	H	0.932799	-0.861770	0.906330
H68	H	0.873166	-0.758522	0.910578
H69	H	1.075817	-0.461367	0.565570
C70	C	0.949257	-1.097624	0.436735
C71	C	0.933386	-1.065950	0.370974
H72	H	0.918024	-1.052832	0.467896
H73	H	0.993836	-1.076003	0.447552
H74	H	0.946663	-1.185520	0.439356
H75	H	0.935985	-0.978055	0.368351
H76	H	0.888797	-1.087562	0.360154
C77	C	0.363895	-0.848438	0.419966
C78	C	0.406911	-0.777515	0.384942
H79	H	0.390147	-0.903258	0.447042
H80	H	0.338296	-0.896638	0.388456
H81	H	0.334074	-0.793514	0.448161
H82	H	0.436729	-0.832439	0.356743
H83	H	0.432521	-0.729311	0.416456
H84	H	0.267639	-0.754513	0.373583
C85	C	0.531454	-0.455313	0.225866
C86	C	0.600256	-0.438241	0.217439
H87	H	0.505205	-0.400482	0.198793
H88	H	0.519138	-0.436962	0.272109
H89	H	0.523357	-0.540073	0.212397
H90	H	0.608354	-0.353483	0.230912
H91	H	0.612576	-0.456584	0.171185
H92	H	0.255518	-0.461303	0.228830
C93	C	0.744501	-0.750406	0.453080
C94	C	0.762671	-0.777486	0.384912
H95	H	0.770755	-0.805231	0.480152
H96	H	0.697828	-0.761980	0.458787
H97	H	0.752608	-0.665645	0.466532
H98	H	0.754559	-0.862245	0.371457
H99	H	0.809354	-0.765923	0.379201
C100	C	1.107631	-1.062964	0.196990
C101	C	1.073127	-1.148519	0.231483
H102	H	1.138858	-1.107761	0.165824
H103	H	1.131391	-1.011496	0.228589
H104	H	1.076042	-1.011626	0.173153
H105	H	1.104715	-1.199851	0.255323
H106	H	1.049366	-1.200009	0.199878
C107	C	1.122329	-0.367370	0.961082
C108	C	1.087239	-0.438220	0.912209
H109	H	1.149447	-0.312614	0.939356
H110	H	1.150481	-0.422336	0.986392
H111	H	1.090854	-0.319095	0.990636
H112	H	1.118714	-0.486503	0.882658
H113	H	1.059085	-0.383248	0.886888
C114	C	0.884284	-0.847912	0.641978
C115	C	0.919379	-0.777075	0.690852
H116	H	0.857156	-0.902655	0.663704
H117	H	0.915751	-0.896191	0.612427
H118	H	0.856134	-0.792928	0.616666
H119	H	0.947533	-0.832059	0.716162
H120	H	0.887908	-0.728793	0.720415
H121	H	0.383752	-0.461292	0.228816
C122	C	1.078825	-0.455142	1.129406
C123	C	1.087259	-0.438148	1.060599
H124	H	1.105952	-0.400363	1.155647
H125	H	1.092213	-0.539907	1.137504
H126	H	1.032588	-0.436660	1.141734
H127	H	1.133495	-0.456639	1.048270
H128	H	1.073875	-0.353363	1.052498
C129	C	0.927792	-0.760121	0.473656
C130	C	0.919363	-0.777136	0.542462
H131	H	0.900655	-0.814881	0.447413
H132	H	0.974020	-0.778606	0.461323
H133	H	0.914405	-0.675339	0.465568
H134	H	0.932754	-0.861917	0.550551
H135	H	0.873125	-0.758661	0.554800
C136	C	0.699762	-0.367331	0.182402
C137	C	0.748644	-0.438242	0.217419
H138	H	0.721481	-0.312505	0.155322
H139	H	0.670226	-0.319137	0.213916
H140	H	0.674437	-0.422263	0.154212
H141	H	0.773966	-0.383310	0.245613
H142	H	0.778192	-0.486439	0.185901
H143	H	0.930812	-0.753943	1.037499
