data_functionalizedCrystal
_audit_creation_method	'MofGen! by Chris Wilmer'
_symmetry_space_group_name_H-M	'P1'
_symmetry_Int_Tables_number	1
_symmetry_cell_setting	triclinic
loop_
_symmetry_equiv_pos_as_xyz
  x,y,z
_cell_length_a	9.065215
_cell_length_b	16.109301
_cell_length_c	14.586319
_cell_angle_alpha	90.000787
_cell_angle_beta	90.002835
_cell_angle_gamma	84.238089
loop_
_atom_site_label
_atom_site_type_symbol
_atom_site_fract_x
_atom_site_fract_y
_atom_site_fract_z
O1	O	0.189629	1.104587	0.076180
O2	O	0.689629	1.604587	0.576180
O3	O	0.213228	0.862706	0.076195
O4	O	0.713228	1.362706	0.576195
O5	O	-0.013335	0.988647	0.076183
O6	O	0.486665	1.488647	0.576183
O7	O	0.416192	0.978645	0.076192
O8	O	0.916192	1.478645	0.576192
O9	O	-0.013339	0.988638	-0.076297
O10	O	0.486661	1.488638	0.423703
O11	O	0.213224	0.862697	-0.076286
O12	O	0.713224	1.362697	0.423714
O13	O	0.189625	1.104578	-0.076300
O14	O	0.689625	1.604578	0.423700
Cu15	Cu	0.201425	0.983637	-0.090216
Cu16	Cu	0.701425	1.483637	0.409784
Cu17	Cu	0.201429	0.983647	0.090110
Cu18	Cu	0.701429	1.483647	0.590110
O19	O	0.416189	0.978636	-0.076289
O20	O	0.916189	1.478636	0.423711
C21	C	-0.068301	0.987682	-0.000056
C22	C	0.431699	1.487682	0.499944
C23	C	-0.232074	0.984810	-0.000053
C24	C	0.267926	1.484810	0.499947
C25	C	0.212270	0.831719	-0.000044
C26	C	0.712270	1.331719	0.499956
C27	C	0.209404	0.739402	-0.000038
C28	C	0.709404	1.239402	0.499962
C29	C	0.337178	0.518110	-0.000046
C30	C	0.837178	1.018110	0.499954
C31	C	0.334474	0.431369	-0.000052
C32	C	0.834474	0.931369	0.499948
C33	C	0.065665	0.449180	-0.000054
C34	C	0.565665	0.949180	0.499946
C35	C	0.068370	0.535919	-0.000054
C36	C	0.568370	1.035919	0.499946
C37	C	0.204132	0.570382	-0.000046
C38	C	0.704132	1.070382	0.499954
C39	C	0.198721	0.396901	-0.000051
C40	C	0.698721	0.896901	0.499949
C41	C	0.195788	0.302853	-0.000058
C42	C	0.695788	0.802853	0.499942
C43	C	0.207066	0.664437	-0.000041
C44	C	0.707066	1.164437	0.499959
C45	C	0.471154	0.979602	-0.000048
C46	C	0.971154	1.479602	0.499952
C47	C	0.634927	0.982474	-0.000045
C48	C	1.134927	1.482474	0.499955
C49	C	0.190583	1.135564	-0.000060
C50	C	0.690583	1.635564	0.499940
C51	C	0.193449	1.227882	-0.000059
C52	C	0.693449	1.727882	0.499941
N53	N	0.201421	0.983635	-0.217048
N54	N	0.701421	1.483635	0.282952
C55	C	0.101132	1.039421	-0.452059
C56	C	0.601132	1.539421	0.047941
C57	C	0.101129	1.039423	-0.548040
C58	C	0.601129	1.539423	-0.048040
C59	C	0.301714	0.927863	-0.548040
C60	C	0.801714	1.427863	-0.048040
C61	C	0.301709	0.927857	-0.452060
C62	C	0.801709	1.427857	0.047940
C63	C	0.201420	0.983641	-0.404072
C64	C	0.701420	1.483641	0.095928
C65	C	0.201421	0.983649	-0.596033
C66	C	0.701421	1.483649	-0.096033
C67	C	0.201418	0.983651	-0.700100
C68	C	0.701418	1.483651	-0.200100
C69	C	0.201421	0.983638	-0.299999
C70	C	0.701421	1.483638	0.200001
N71	N	0.201421	0.983655	0.216942
N72	N	0.701421	1.483655	0.716942
H73	H	0.447724	0.546167	-0.000047
H74	H	0.947724	1.046167	0.499953
C75	C	0.480821	0.373870	-0.000048
C76	C	0.980821	0.873870	0.499952
H77	H	0.459772	0.317275	-0.000058
H78	H	0.959772	0.817275	0.499942
H79	H	0.536490	0.384426	0.053127
H80	H	1.036490	0.884426	0.553127
H81	H	0.536484	0.384429	-0.053227
H82	H	1.036484	0.884429	0.446773
C83	C	0.412039	0.866504	-0.399267
C84	C	0.912039	1.366504	0.100733
H85	H	0.397662	0.874487	-0.335233
H86	H	0.897662	1.374487	0.164767
H87	H	0.510504	0.876276	-0.414990
H88	H	1.010504	1.376276	0.085010
H89	H	0.395988	0.810894	-0.414998
H90	H	0.895988	1.310894	0.085002
H91	H	-0.044868	0.421109	-0.000066
H92	H	0.455132	0.921109	0.499934
C93	C	-0.077988	0.593422	-0.000050
C94	C	0.422012	1.093422	0.499950
H95	H	-0.159230	0.560476	-0.000041
H96	H	0.340770	1.060476	0.499959
H97	H	-0.082524	0.627630	-0.053223
H98	H	0.417476	1.127630	0.446777
H99	H	-0.082508	0.627628	0.053131
H100	H	0.417492	1.127628	0.553131
H101	H	0.019469	1.084842	-0.412990
H102	H	0.519469	1.584842	0.087010
C103	C	-0.009182	1.100785	-0.600822
C104	C	0.490818	1.600785	-0.100822
H105	H	-0.068899	1.134008	-0.558493
H106	H	0.431101	1.634008	-0.058493
H107	H	-0.070614	1.070422	-0.638269
H108	H	0.429386	1.570422	-0.138269
H109	H	0.043919	1.135794	-0.638257
H110	H	0.543919	1.635794	-0.138257
H111	H	0.383369	0.882446	-0.587121
H112	H	0.883369	1.382446	-0.087121
