data_functionalizedCrystal
_audit_creation_method	'MofGen! by Chris Wilmer'
_symmetry_space_group_name_H-M	'P1'
_symmetry_Int_Tables_number	1
_symmetry_cell_setting	triclinic
loop_
_symmetry_equiv_pos_as_xyz
  x,y,z
_cell_length_a	17.038272
_cell_length_b	11.026607
_cell_length_c	9.483290
_cell_angle_alpha	81.820647
_cell_angle_beta	80.231524
_cell_angle_gamma	99.848786
loop_
_atom_site_label
_atom_site_type_symbol
_atom_site_fract_x
_atom_site_fract_y
_atom_site_fract_z
O1	O	0.318777	1.626112	0.120872
O2	O	0.818777	2.126112	0.620872
O3	O	0.280946	1.268899	0.120879
O4	O	0.780946	1.768899	0.620879
O5	O	0.185748	1.445384	0.120864
O6	O	0.685748	1.945384	0.620864
O7	O	0.413975	1.449627	0.120887
O8	O	0.913975	1.949627	0.620887
O9	O	0.212649	1.482072	-0.120910
O10	O	0.712649	1.982072	0.379090
O11	O	0.307846	1.305587	-0.120896
O12	O	0.807846	1.805587	0.379104
O13	O	0.345678	1.662800	-0.120902
O14	O	0.845678	2.162800	0.379098
Cu15	Cu	0.329218	1.487543	-0.142975
Cu16	Cu	0.829218	1.987543	0.357025
Cu17	Cu	0.297405	1.444155	0.142951
Cu18	Cu	0.797405	1.944155	0.642951
O19	O	0.440875	1.486315	-0.120887
O20	O	0.940875	1.986315	0.379113
C21	C	0.169526	1.459866	-0.000023
C22	C	0.669526	1.959866	0.499977
C23	C	0.081109	1.448344	-0.000022
C24	C	0.581109	1.948344	0.499978
C25	C	0.339206	1.690387	-0.000013
C26	C	0.839206	2.190387	0.499987
C27	C	0.360010	1.827248	-0.000006
C28	C	0.860010	2.327248	0.499994
C29	C	0.287417	1.241312	-0.000008
C30	C	0.787417	1.741312	0.499992
C31	C	0.266611	1.104449	-0.000005
C32	C	0.766611	1.604449	0.499995
C33	C	0.045902	1.554129	-0.000026
C34	C	0.545902	2.054129	0.499974
C35	C	-0.037177	1.543293	-0.000012
C36	C	0.462823	2.043293	0.499988
C37	C	-0.085045	1.426674	-0.000005
C38	C	0.414955	1.926674	0.499995
C39	C	-0.049833	1.320881	0.000003
C40	C	0.450167	1.820881	0.500003
C41	C	0.033243	1.331716	-0.000001
C42	C	0.533243	1.831716	0.499999
C43	C	-0.336199	1.388395	0.000016
C44	C	0.163801	1.888395	0.500016
C45	C	-0.419280	1.377568	0.000015
C46	C	0.080720	1.877568	0.500015
C47	C	-0.406618	1.599981	0.000003
C48	C	0.093382	2.099981	0.500003
C49	C	-0.323540	1.610807	-0.000010
C50	C	0.176460	2.110807	0.499990
C51	C	-0.288336	1.505013	0.000006
C52	C	0.211664	2.005013	0.500006
C53	C	-0.169965	1.415596	0.000005
C54	C	0.330035	1.915596	0.500005
C55	C	-0.203419	1.516090	0.000007
C56	C	0.296581	2.016090	0.500007
C57	C	0.457097	1.471832	0.000003
C58	C	0.957097	1.971832	0.500003
C59	C	0.545512	1.483353	0.000012
C60	C	1.045512	1.983353	0.500012
N61	N	0.351594	1.518069	-0.344080
N62	N	0.851594	2.018069	0.155920
C63	C	0.302565	1.895123	-0.000009
C64	C	0.802565	2.395123	0.499991
C65	C	0.324066	2.036576	-0.000002
C66	C	0.824066	2.536576	0.499998
C67	C	0.303999	1.453144	-0.416311
C68	C	0.803999	1.953144	0.083689
C69	C	0.322626	1.478573	-0.583716
C70	C	0.822626	1.978573	-0.083716
N71	N	0.275024	1.413639	0.344056
N72	N	0.775024	1.913639	0.844056
H73	H	0.084872	1.649094	-0.000041
H74	H	0.584872	2.149094	0.499959
H75	H	0.425110	1.873860	-0.000005
H76	H	0.925110	2.373860	0.499995
H77	H	-0.164445	1.611037	0.000033
H78	H	0.335555	2.111037	0.500033
H79	H	0.377171	1.552982	-0.645805
H80	H	0.877171	2.052982	-0.145805
H81	H	0.201497	2.057831	0.000081
H82	H	0.701497	2.557831	0.500081
H83	H	0.220487	1.339217	-0.593857
H84	H	0.720487	1.839217	-0.093857
H85	H	0.249464	1.378730	-0.354217
H86	H	0.749464	1.878730	0.145783
H87	H	0.406135	1.592473	-0.406174
H88	H	0.906135	2.092473	0.093826
H89	H	-0.065838	1.629435	-0.000018
H90	H	0.434162	2.129435	0.499982
H91	H	0.237468	1.848516	-0.000040
H92	H	0.737468	2.348516	0.499960
H93	H	0.061908	1.245574	0.000003
H94	H	0.561908	1.745574	0.500003
H95	H	-0.284571	1.705771	-0.000016
H96	H	0.215429	2.205771	0.499984
H97	H	-0.435291	1.686112	-0.000007
H98	H	0.064709	2.186112	0.499993
H99	H	-0.458251	1.282602	-0.000003
H100	H	0.041749	1.782602	0.499997
H101	H	-0.208948	1.320644	0.000007
H102	H	0.291052	1.820644	0.500007
H103	H	-0.088815	1.225925	0.000018
H104	H	0.411185	1.725925	0.500018
H105	H	-0.307546	1.302249	0.000028
H106	H	0.192454	1.802249	0.500028
H107	H	0.389170	2.083183	-0.000001
H108	H	0.889170	2.583183	0.499999
