data_functionalizedCrystal
_audit_creation_method	'MofGen! by Chris Wilmer'
_symmetry_space_group_name_H-M	'P1'
_symmetry_Int_Tables_number	1
_symmetry_cell_setting	triclinic
loop_
_symmetry_equiv_pos_as_xyz
  x,y,z
_cell_length_a	13.262522
_cell_length_b	16.109301
_cell_length_c	14.586319
_cell_angle_alpha	90.005214
_cell_angle_beta	74.080741
_cell_angle_gamma	96.034924
loop_
_atom_site_label
_atom_site_type_symbol
_atom_site_fract_x
_atom_site_fract_y
_atom_site_fract_z
O1	O	1.392633	-0.111969	-0.423477
O2	O	1.087045	-0.124149	-0.347285
O3	O	1.248234	0.002941	-0.387465
O4	O	1.231444	-0.239059	-0.383298
O5	O	1.248223	0.002943	-0.234982
O6	O	1.087034	-0.124147	-0.194802
O7	O	1.392622	-0.111967	-0.270994
Cu8	Cu	1.239827	-0.118057	-0.218975
Cu9	Cu	1.239840	-0.118059	-0.399304
O10	O	1.231433	-0.239057	-0.230814
C11	C	1.047936	-0.123466	-0.261294
C12	C	0.931419	-0.121424	-0.232242
C13	C	0.876680	-0.120465	-0.135470
C14	C	0.767208	-0.118538	-0.108168
C15	C	0.712462	-0.117577	-0.177635
C16	C	0.767200	-0.118542	-0.274409
C17	C	0.876684	-0.120462	-0.301714
C18	C	0.712467	-0.117574	-0.343879
C19	C	0.767204	-0.118539	-0.440653
C20	C	0.876678	-0.120460	-0.467953
C21	C	0.931423	-0.121421	-0.398486
C22	C	0.602983	-0.115654	-0.316573
C23	C	0.602987	-0.115652	-0.482817
C24	C	0.712459	-0.117578	-0.510119
C25	C	1.247548	0.033920	-0.311053
C26	C	1.245509	0.126222	-0.310544
C27	C	1.431731	-0.112650	-0.356987
C28	C	1.548248	-0.114692	-0.386045
C29	C	1.232119	-0.270036	-0.307228
C30	C	1.234158	-0.362338	-0.307744
N31	N	1.239825	-0.118055	-0.092143
C32	C	1.336414	0.348162	-0.333223
C33	C	1.334490	0.434889	-0.332751
C34	C	1.143245	0.415715	-0.285065
C35	C	1.145170	0.328990	-0.285544
C36	C	1.241758	0.295215	-0.309619
C37	C	1.237909	0.468669	-0.308668
C38	C	1.235822	0.562702	-0.308156
C39	C	1.243845	0.201176	-0.310133
N40	N	1.239850	-0.118055	-0.526139
C41	C	1.311223	-0.061798	0.125066
C42	C	1.311226	-0.061796	0.221047
C43	C	1.168444	-0.174314	0.256648
C44	C	1.168437	-0.174311	0.160670
C45	C	1.239832	-0.118054	0.094880
C46	C	1.239843	-0.118055	0.286838
C47	C	1.239845	-0.118053	0.390905
C48	C	1.239829	-0.118055	-0.009193
H49	H	0.921265	-0.121241	-0.078921
C50	C	1.441247	0.311445	-0.359177
C51	C	1.447958	0.262241	-0.282391
C52	C	1.544523	0.228418	-0.306264
H53	H	1.446077	0.277950	-0.413492
H54	H	1.497375	0.355380	-0.373127
H55	H	1.391846	0.218312	-0.268452
H56	H	1.443146	0.295718	-0.228067
H57	H	1.600651	0.272353	-0.320214
H58	H	1.549344	0.194926	-0.360580
H59	H	1.549093	0.195035	-0.254166
C60	C	1.437375	0.492235	-0.358358
C61	C	1.522368	0.444090	-0.379521
C62	C	1.617165	0.496888	-0.403103
H63	H	1.440755	0.526477	-0.412361
H64	H	1.440654	0.526460	-0.305982
H65	H	1.519091	0.409880	-0.431891
H66	H	1.519023	0.409850	-0.325530
H67	H	1.620444	0.531113	-0.350727
H68	H	1.620534	0.531128	-0.457105
H69	H	1.674844	0.464230	-0.417456
H70	H	0.722650	-0.117741	-0.029375
H71	H	1.064607	0.443225	-0.265461
C72	C	0.772092	-0.118581	-0.615140
C73	C	0.879686	-0.120448	-0.624177
C74	C	0.934654	-0.121362	-0.720906
H75	H	0.746260	-0.166679	-0.642926
H76	H	0.762240	-0.069822	-0.646837
H77	H	0.889532	-0.169202	-0.592492
H78	H	0.905548	-0.072354	-0.596412
H79	H	0.924801	-0.072602	-0.752604
H80	H	0.908814	-0.169460	-0.748684
H81	H	1.007663	-0.122621	-0.727051
C82	C	1.042475	0.271399	-0.259793
C83	C	1.038004	0.221038	-0.180244
C84	C	0.943429	0.167968	-0.156509
H85	H	0.984588	0.303828	-0.245312
H86	H	1.039251	0.237117	-0.312136
H87	H	1.041218	0.255316	-0.127912
H88	H	1.095869	0.188592	-0.194703
H89	H	0.940205	0.133687	-0.208853
H90	H	0.885549	0.200404	-0.142032
H91	H	0.940387	0.133787	-0.102539
H92	H	1.110297	-0.220122	0.136093
C93	C	1.090986	-0.235527	0.327944
C94	C	1.107954	-0.317293	0.300333
C95	C	1.036609	-0.373706	0.365978
H96	H	1.101136	-0.227592	0.389463
H97	H	1.020922	-0.226272	0.329672
H98	H	1.178001	-0.326544	0.298616
H99	H	1.097795	-0.325254	0.238825
H100	H	0.966545	-0.364452	0.367705
H101	H	1.046765	-0.365764	0.427493
H102	H	1.048105	-0.429190	0.347248
H103	H	0.921244	-0.121235	-0.546753
C104	C	1.388775	-0.000623	0.053793
C105	C	1.451275	0.048660	0.100782
C106	C	1.522717	0.105035	0.035162
H107	H	1.432553	-0.030600	0.005423
H108	H	1.351054	0.034180	0.025786
H109	H	1.488993	0.013862	0.128774
H110	H	1.407526	0.078655	0.149147
H111	H	1.484997	0.139837	0.007155
H112	H	1.566489	0.075050	-0.013205
H113	H	1.565126	0.138484	0.067036
C114	C	1.388571	-0.000623	0.253910
C115	C	1.332688	0.050507	0.322937
C116	C	1.403905	0.106880	0.353221
H117	H	1.432279	-0.030603	0.280522
H118	H	1.431072	0.032928	0.201012
H119	H	1.290206	0.016960	0.375825
H120	H	1.288985	0.080506	0.296346
H121	H	1.446405	0.140431	0.300324
H122	H	1.447608	0.076893	0.379829
H123	H	1.365999	0.141584	0.400053
H124	H	0.623325	-0.116009	-0.155399
H125	H	0.558425	-0.114875	-0.237779
H126	H	0.558413	-0.114870	-0.539383
H127	H	1.020564	-0.122993	-0.420711
