data_functionalizedCrystal
_audit_creation_method	'MofGen! by Chris Wilmer'
_symmetry_space_group_name_H-M	'P1'
_symmetry_Int_Tables_number	1
_symmetry_cell_setting	triclinic
loop_
_symmetry_equiv_pos_as_xyz
  x,y,z
_cell_length_a	6.817900
_cell_length_b	19.551136
_cell_length_c	10.992410
_cell_angle_alpha	94.498803
_cell_angle_beta	108.764651
_cell_angle_gamma	101.650842
loop_
_atom_site_label
_atom_site_type_symbol
_atom_site_fract_x
_atom_site_fract_y
_atom_site_fract_z
V1	V	-4.078377	-0.096677	-0.401226
O2	O	-4.074100	0.004646	-0.392937
O3	O	-4.020700	-0.191693	-0.399108
O4	O	-4.056521	-0.095190	-0.575929
O5	O	-4.038031	-0.092526	-0.214892
V6	V	-4.559767	-0.084557	-0.378863
O7	O	-4.344313	-0.123261	-0.450281
O8	O	-4.744028	-0.057973	-0.329808
O9	O	-4.394237	0.010460	-0.380981
O10	O	-4.681441	-0.185880	-0.387152
O11	O	-4.717510	-0.088708	-0.565196
O12	O	-4.358417	-0.086044	-0.204160
C13	C	-3.862585	-0.214857	-0.392940
C14	C	-3.896891	-0.292534	-0.392373
C15	C	-3.855901	-0.319024	-0.274366
C16	C	-3.888201	-0.392009	-0.273793
C17	C	-3.961452	-0.438500	-0.391234
C18	C	-4.002457	-0.412002	-0.509257
C19	C	-3.970177	-0.339019	-0.509826
C20	C	-3.938901	-0.559511	-0.476387
C21	C	-3.971166	-0.632492	-0.475812
C22	C	-4.061027	-0.663604	-0.389482
C23	C	-4.118582	-0.621724	-0.303704
C24	C	-4.086302	-0.548741	-0.304274
C25	C	-3.996462	-0.517639	-0.390629
C26	C	-4.055059	-0.769232	-0.270846
C27	C	-4.087374	-0.842218	-0.270279
C28	C	-4.201611	-0.862210	-0.505745
C29	C	-4.169315	-0.789225	-0.506309
C30	C	-4.096030	-0.742740	-0.388856
C31	C	-3.908277	-0.091755	-0.618491
C32	C	-3.971629	-0.091168	-0.761315
C33	C	-3.840737	-0.085818	-0.956404
C34	C	-3.774853	-0.086719	-0.807926
C35	C	-4.144081	-0.160064	-0.838870
C36	C	-4.208621	-0.159455	-0.987433
C37	C	-4.135887	-0.026047	-0.948528
C38	C	-4.065299	-0.025721	-0.799513
C39	C	-4.215693	0.033619	-0.387145
C40	C	-4.160627	0.111296	-0.387721
C41	C	-4.170001	-0.089481	-0.161591
C42	C	-4.085888	-0.090065	-0.018765
H43	H	-3.796242	-0.281180	-0.178726
H44	H	-4.003565	-0.317453	-0.605925
N45	N	-3.847087	-0.527722	-0.564559
N46	N	-3.818270	-0.462559	-0.565055
H47	H	-3.753430	-0.440107	-0.627324
H48	H	-4.191735	-0.647053	-0.233397
N49	N	-4.166538	-0.220267	-1.045867
N50	N	-4.089795	-0.262860	-0.976856
H51	H	-4.060067	-0.305810	-1.018118
N52	N	-3.846353	-0.419093	-0.153261
N53	N	-3.992932	-0.460328	-0.131653
H54	H	-3.963378	-0.479457	-0.046529
N55	N	-4.211110	-0.762163	-0.626852
N56	N	-4.064511	-0.720936	-0.648456
H57	H	-4.094030	-0.701824	-0.733596
N58	N	-4.077253	-0.459499	-0.629205
N59	N	-3.966684	-0.499716	-0.650173
H60	H	-4.019515	-0.533262	-0.734890
N61	N	-3.716798	-0.023283	-0.979650
N62	N	-3.587138	0.021284	-0.886046
H63	H	-3.499574	0.065438	-0.902489
H64	H	-4.133171	-0.514646	-0.234432
H65	H	-3.995384	-0.731381	-0.175208
H66	H	-4.054004	-0.863784	-0.174180
N67	N	-4.359255	-0.029193	-0.999793
N68	N	-4.481294	-0.078319	-1.087666
H69	H	-4.639047	-0.080546	-1.123880
N70	N	-4.276454	-0.909701	-0.625699
N71	N	-4.305280	-0.974862	-0.625177
H72	H	-4.358149	-1.008407	-0.709898
H73	H	-3.924293	-0.666585	-0.545655
H74	H	-3.940957	0.025246	-0.746821
H75	H	-3.644779	-0.037179	-0.754261
N76	N	-3.788058	-0.143521	-1.016997
N77	N	-3.930279	-0.187758	-1.105909
H78	H	-3.893083	-0.228512	-1.148706
H79	H	-4.052386	0.026271	-0.968544
H80	H	-3.700369	-0.133354	-0.783417
H81	H	-4.207713	-0.024911	-0.766996
N82	N	-4.064093	-0.221033	-0.807187
N83	N	-4.178076	-0.281428	-0.859146
H84	H	-4.121577	-0.324487	-0.836774
N85	N	-4.434151	-0.166985	-1.040999
N86	N	-4.521958	-0.167887	-1.160175
H87	H	-4.681239	-0.173214	-1.198006
H88	H	-4.292326	-0.165808	-0.810104
