data_functionalizedCrystal
_audit_creation_method	'MofGen! by Chris Wilmer'
_symmetry_space_group_name_H-M	'P1'
_symmetry_Int_Tables_number	1
_symmetry_cell_setting	triclinic
loop_
_symmetry_equiv_pos_as_xyz
  x,y,z
_cell_length_a	13.339070
_cell_length_b	13.262508
_cell_length_c	11.892095
_cell_angle_alpha	109.778227
_cell_angle_beta	85.042766
_cell_angle_gamma	99.430496
loop_
_atom_site_label
_atom_site_type_symbol
_atom_site_fract_x
_atom_site_fract_y
_atom_site_fract_z
O1	O	1.339757	0.530370	0.069032
O2	O	1.839757	1.030370	0.569032
O3	O	1.046421	0.460112	0.047436
O4	O	1.546421	0.960112	0.547436
O5	O	1.203736	0.342195	0.011183
O6	O	1.703736	0.842195	0.511183
O7	O	1.182442	0.648287	0.105284
O8	O	1.682442	1.148287	0.605284
O9	O	1.190619	0.352006	0.202207
O10	O	1.690619	0.852006	0.702207
O11	O	1.033305	0.469922	0.238459
O12	O	1.533305	0.969922	0.738459
O13	O	1.326640	0.540181	0.260055
O14	O	1.826640	1.040181	0.760055
Zn15	Zn	1.177890	0.506609	0.279587
Zn16	Zn	1.677890	1.006609	0.779587
Zn17	Zn	1.195171	0.493683	0.027905
Zn18	Zn	1.695171	0.993683	0.527905
O19	O	1.169326	0.658097	0.296308
O20	O	1.669326	1.158097	0.796308
C21	C	1.002375	0.453149	0.139299
C22	C	1.502375	0.953149	0.639299
C23	C	0.890673	0.417773	0.128425
C24	C	1.390673	0.917773	0.628425
C25	C	1.197190	0.307124	0.094402
C26	C	1.697190	0.807124	0.594402
C27	C	1.197215	0.188002	0.057774
C28	C	1.697215	0.688002	0.557774
C29	C	1.168681	-0.126405	0.371045
C30	C	1.668681	0.373595	0.871045
C31	C	1.168650	-0.014486	0.405460
C32	C	1.668650	0.485514	0.905460
C33	C	1.175791	0.036142	0.318541
C34	C	1.675791	0.536142	0.818541
C35	C	1.182964	-0.025162	0.197202
C36	C	1.682964	0.474838	0.697202
C37	C	1.182988	-0.137093	0.162783
C38	C	1.682988	0.362907	0.662783
C39	C	1.190098	0.025454	0.110279
C40	C	1.690098	0.525454	0.610279
C41	C	1.197271	-0.035850	-0.011060
C42	C	1.697271	0.464150	0.488940
C43	C	1.197295	-0.147770	-0.045473
C44	C	1.697295	0.352230	0.454527
C45	C	1.190153	-0.198398	0.041445
C46	C	1.690153	0.301602	0.541445
C47	C	1.190074	0.137386	0.144698
C48	C	1.690074	0.637386	0.644698
C49	C	1.204380	0.126698	-0.063564
C50	C	1.704380	0.626698	0.436436
C51	C	1.204412	0.014778	-0.097979
C52	C	1.704412	0.514778	0.402021
C53	C	0.521216	0.692837	0.212969
C54	C	1.021216	1.192837	0.712969
C55	C	0.626165	0.726077	0.223184
C56	C	1.126165	1.226077	0.723184
C57	C	0.692297	0.649004	0.199495
C58	C	1.192297	1.149004	0.699495
C59	C	0.653470	0.538685	0.165590
C60	C	1.153470	1.038685	0.665590
C61	C	0.548511	0.505440	0.155365
C62	C	1.048511	1.005440	0.655365
C63	C	0.719592	0.461608	0.141891
C64	C	1.219592	0.961608	0.641891
C65	C	0.680765	0.351288	0.107986
C66	C	1.180765	0.851288	0.607986
C67	C	0.575816	0.318049	0.097764
C68	C	1.075816	0.818049	0.597764
C69	C	0.509684	0.395123	0.121452
C70	C	1.009684	0.895123	0.621452
C71	C	0.824551	0.494852	0.152116
C72	C	1.324551	0.994852	0.652116
C73	C	0.851846	0.307455	0.094512
C74	C	1.351846	0.807455	0.594512
C75	C	0.746897	0.274215	0.084297
C76	C	1.246897	0.774215	0.584297
C77	C	1.370687	0.547144	0.168189
C78	C	1.870687	1.047144	0.668189
C79	C	1.482389	0.582519	0.179056
C80	C	1.982389	1.082519	0.679056
C81	C	1.175871	0.693169	0.213086
C82	C	1.675871	1.193169	0.713086
C83	C	1.175847	0.812290	0.249707
C84	C	1.675847	1.312290	0.749707
N85	N	1.166103	0.515432	0.451353
N86	N	1.666103	1.015432	0.951353
N87	N	1.206966	0.484854	-0.143864
N88	N	1.706966	0.984854	0.356136
C89	C	1.288984	0.423398	0.659706
C90	C	1.788984	0.923398	1.159706
C91	C	1.280752	0.429575	0.779947
C92	C	1.780752	0.929575	1.279947
C93	C	1.141405	0.533957	0.812076
C94	C	1.641405	1.033957	1.312076
C95	C	1.149636	0.527780	0.691835
C96	C	1.649636	1.027780	1.191835
C97	C	1.223429	0.472500	0.615654
C98	C	1.723429	0.972500	1.115654
C99	C	1.231665	0.466330	0.495413
C100	C	1.731665	0.966330	0.995413
C101	C	1.092313	0.570705	0.527543
C102	C	1.592313	1.070705	1.027543
C103	C	1.084082	0.576882	0.647784
C104	C	1.584082	1.076882	1.147784
H105	H	1.184225	0.187287	0.243493
H106	H	1.684225	0.687287	0.743493
H107	H	1.038937	0.610691	0.491664
H108	H	1.538937	1.110691	0.991664
H109	H	0.715269	0.184390	0.056681
H110	H	1.215269	0.684390	0.556681
H111	H	0.777751	0.676075	0.207812
H112	H	1.277751	1.176075	0.707812
H113	H	1.023998	0.621887	0.709823
H114	H	1.523998	1.121887	1.209823
H115	H	1.190184	-0.289531	0.013431
H116	H	1.690184	0.210469	0.513431
H117	H	1.081318	0.578956	0.874115
H118	H	1.581318	1.078956	1.374115
H119	H	0.467364	0.755577	0.232243
H120	H	0.967364	1.255577	0.732243
H121	H	0.657771	0.815899	0.250781
H122	H	1.157771	1.315899	0.750781
H123	H	1.210188	0.167917	-0.134341
H124	H	1.710188	0.667917	0.365659
H125	H	0.905691	0.244695	0.075217
H126	H	1.405691	0.744695	0.575217
H127	H	1.210251	-0.035151	-0.196775
H128	H	1.710251	0.464849	0.303225
H129	H	1.175764	0.127272	0.346570
H130	H	1.675764	0.627272	0.846570
H131	H	1.203126	-0.197682	-0.144276
H132	H	1.703126	0.302318	0.355724
H133	H	0.424224	0.368063	0.113137
H134	H	0.924224	0.868063	0.613137
H135	H	0.544207	0.228220	0.070143
H136	H	1.044207	0.728220	0.570143
H137	H	1.291753	0.421321	0.433387
H138	H	1.791753	0.921321	0.933387
H139	H	1.162820	0.035421	0.504255
H140	H	1.662820	0.535421	1.004255
H141	H	1.162860	-0.167638	0.441800
H142	H	1.662860	0.332362	0.941800
H143	H	0.856153	0.584675	0.179727
H144	H	1.356153	1.084675	0.679727
H145	H	1.349075	0.378396	0.597680
H146	H	1.849075	0.878396	1.097680
H147	H	1.334132	0.389590	0.815808
H148	H	1.834132	0.889590	1.315808
