data_functionalizedCrystal
_audit_creation_method	'MofGen! by Chris Wilmer'
_symmetry_space_group_name_H-M	'P1'
_symmetry_Int_Tables_number	1
_symmetry_cell_setting	triclinic
loop_
_symmetry_equiv_pos_as_xyz
  x,y,z
_cell_length_a	11.169417
_cell_length_b	19.805405
_cell_length_c	11.169409
_cell_angle_alpha	89.962829
_cell_angle_beta	89.980487
_cell_angle_gamma	90.027975
loop_
_atom_site_label
_atom_site_type_symbol
_atom_site_fract_x
_atom_site_fract_y
_atom_site_fract_z
Zn1	Zn	1.834826	-0.269386	-0.678492
Zn2	Zn	1.834658	-0.382595	-0.477792
Zn3	Zn	1.634112	-0.269428	-0.477828
Zn4	Zn	1.634062	-0.382541	-0.678438
O5	O	1.734414	-0.325987	-0.578138
O6	O	2.002753	-0.284408	-0.651877
O7	O	1.808005	-0.367623	-0.309847
O8	O	1.660828	-0.174706	-0.504484
O9	O	2.002630	-0.367583	-0.504423
O10	O	1.808292	-0.174675	-0.651911
O11	O	1.660665	-0.284480	-0.309873
O12	O	1.466155	-0.284427	-0.504432
O13	O	1.660743	-0.367490	-0.846395
O14	O	1.466119	-0.367531	-0.651819
O15	O	1.808243	-0.284356	-0.846435
O16	O	1.807957	-0.477304	-0.504371
O17	O	1.660580	-0.477264	-0.651785
C18	C	1.422589	-0.325978	-0.578124
C19	C	1.289189	-0.325991	-0.578147
C20	C	1.734277	-0.501843	-0.578094
C21	C	1.734329	-0.577075	-0.578116
C22	C	1.811068	-0.612345	-0.654942
C23	C	1.811111	-0.683034	-0.654964
C24	C	1.734420	-0.718451	-0.578154
C25	C	1.657673	-0.683176	-0.501325
C26	C	1.657625	-0.612489	-0.501309
C27	C	1.657866	-0.968249	-0.501386
C28	C	1.657923	-1.038941	-0.501405
C29	C	1.811352	-1.038794	-0.655041
C30	C	1.811304	-0.968107	-0.655025
C31	C	1.734552	-0.932838	-0.578201
C32	C	1.734505	-0.856190	-0.578180
C33	C	1.734473	-0.795098	-0.578168
C34	C	2.047456	-0.325997	-0.578152
C35	C	2.180856	-0.326001	-0.578158
C36	C	1.734506	-0.325912	-0.891180
C37	C	1.734546	-0.325880	-1.024580
C38	C	1.734584	-0.149445	-0.578208
C39	C	1.734657	-0.074213	-0.578237
C40	C	1.734391	-0.326013	-0.266313
C41	C	1.734585	-0.325855	-0.132914
H42	H	1.873523	-0.583513	-0.717484
F43	F	1.576171	-0.930723	-0.419632
H44	H	1.873843	-1.067518	-0.717599
F45	F	1.892932	-0.930417	-0.736773
H46	H	1.873609	-0.711747	-0.717514
F47	F	1.576293	-1.076634	-0.419650
H48	H	1.595225	-0.712018	-0.438789
F49	F	1.575947	-0.574953	-0.419542
