data_functionalizedCrystal
_audit_creation_method	'MofGen! by Chris Wilmer'
_symmetry_space_group_name_H-M	'P1'
_symmetry_Int_Tables_number	1
_symmetry_cell_setting	triclinic
loop_
_symmetry_equiv_pos_as_xyz
  x,y,z
_cell_length_a	18.101395
_cell_length_b	12.759401
_cell_length_c	12.759393
_cell_angle_alpha	90.023845
_cell_angle_beta	89.966555
_cell_angle_gamma	89.969802
loop_
_atom_site_label
_atom_site_type_symbol
_atom_site_fract_x
_atom_site_fract_y
_atom_site_fract_z
Zn1	Zn	-0.294804	-1.606136	-0.594117
Zn2	Zn	-0.418665	-1.605980	-0.418432
Zn3	Zn	-0.294840	-1.430438	-0.418441
Zn4	Zn	-0.418606	-1.430376	-0.594057
O5	O	-0.356729	-1.518232	-0.506262
O6	O	-0.311244	-1.753136	-0.570834
O7	O	-0.402280	-1.582654	-0.271412
O8	O	-0.191203	-1.453835	-0.441773
O9	O	-0.402244	-1.753021	-0.441759
O10	O	-0.191176	-1.582920	-0.570843
O11	O	-0.311306	-1.453684	-0.271418
O12	O	-0.311249	-1.283408	-0.441715
O13	O	-0.402143	-1.453730	-0.741086
O14	O	-0.402179	-1.283363	-0.570739
O15	O	-0.311186	-1.582860	-0.741131
O16	O	-0.522290	-1.582594	-0.441700
O17	O	-0.522247	-1.453579	-0.570731
C18	C	-0.356712	-1.245265	-0.506222
C19	C	-0.356722	-1.128488	-0.506230
C20	C	-0.404045	-0.963833	-0.438959
C21	C	-0.404033	-1.073557	-0.438934
C22	C	-0.309416	-1.073690	-0.573547
C23	C	-0.309425	-0.963968	-0.573566
C24	C	-0.458674	-0.963756	-0.361244
C25	C	-0.458661	-1.073481	-0.361219
C26	C	-0.549139	-1.518092	-0.506231
C27	C	-0.631454	-1.518128	-0.506253
C28	C	-0.930544	-1.518358	-0.506309
C29	C	-0.899223	-1.437374	-0.587694
C30	C	-0.813605	-1.436989	-0.587439
C31	C	-0.782162	-1.518244	-0.506282
C32	C	-0.813321	-1.488263	-0.395554
C33	C	-0.898966	-1.487741	-0.396041
C34	C	-0.898887	-1.629501	-0.534678
C35	C	-0.813236	-1.628847	-0.537106
C36	C	-0.698302	-1.518181	-0.506260
C37	C	-1.014404	-1.518418	-0.506324
C38	C	-0.163567	-1.518402	-0.506316
C39	C	-0.081253	-1.518474	-0.506339
C40	C	-0.356654	-1.518306	-0.780295
C41	C	-0.356622	-1.518337	-0.897072
C42	C	-0.356744	-0.792266	-0.506291
C43	C	-0.356744	-0.909042	-0.506273
C44	C	-0.309257	-1.585584	-0.951959
C45	C	-0.309230	-1.585609	-1.061683
C46	C	-0.403941	-1.451137	-1.061624
C47	C	-0.403963	-1.451108	-0.951901
C48	C	-0.254578	-1.663224	-0.951994
C49	C	-0.254551	-1.663249	-1.061718
C50	C	-0.356750	-1.518219	-0.233294
C51	C	-0.356573	-1.518392	-0.116518
H52	H	-0.443250	-0.933942	-0.279916
H53	H	-0.438053	-1.107477	-0.283965
H54	H	-0.513183	-0.929709	-0.390262
O55	O	-0.789147	-1.556370	-0.321118
C56	C	-0.818136	-1.527174	-0.222755
H57	H	-0.870374	-1.478672	-0.234603
H58	H	-0.831983	-1.600546	-0.175744
H59	H	-0.775494	-1.478697	-0.178380
H60	H	-0.919142	-1.689837	-0.475403
H61	H	-0.792535	-1.455746	-0.669542
H62	H	-0.791828	-1.692377	-0.482151
H63	H	-0.516033	-1.103240	-0.382870
O64	O	-0.923825	-1.459635	-0.685888
C65	C	-0.969708	-1.548831	-0.682487
H66	H	-0.993017	-1.558425	-0.600031
H67	H	-1.017061	-1.538887	-0.740509
H68	H	-0.936148	-1.621305	-0.704172
O69	O	-0.189540	-1.628407	-1.102217
C70	C	-0.176547	-1.524966	-1.067995
H71	H	-0.208667	-1.509925	-0.992592
H72	H	-0.114999	-1.513795	-1.052789
H73	H	-0.195470	-1.467533	-1.130930
O74	O	-0.925009	-1.339748	-0.565387
C75	C	-0.971277	-1.344320	-0.476576
H76	H	-0.956940	-1.416656	-0.428268
H77	H	-0.962910	-1.271004	-0.426896
H78	H	-1.031393	-1.348996	-0.502749
H79	H	-0.270902	-0.919362	-0.628372
O80	O	-0.263388	-1.126885	-0.638953
C81	C	-0.221656	-1.054993	-0.698393
H82	H	-0.219063	-0.976755	-0.655381
H83	H	-0.163314	-1.086734	-0.709743
H84	H	-0.248844	-1.043356	-0.778119
H85	H	-0.442483	-1.396399	-1.106279
H86	H	-0.793182	-1.354607	-0.568647
O87	O	-0.272830	-1.760265	-1.097438
C88	C	-0.272778	-1.760102	-1.207940
H89	H	-0.236155	-1.693766	-1.237588
H90	H	-0.250582	-1.838211	-1.237870
H91	H	-0.331554	-1.748199	-1.237717
H92	H	-0.792867	-1.651456	-0.618596
O93	O	-0.450033	-1.385734	-0.898746
C94	C	-0.491794	-1.326383	-0.970672
H95	H	-0.494358	-1.369440	-1.048887
H96	H	-0.550144	-1.315087	-0.938939
H97	H	-0.464649	-1.246630	-0.982350
H98	H	-0.197225	-1.641479	-0.922239
H99	H	-0.791937	-1.407879	-0.371093
O100	O	-0.922923	-1.390887	-0.367211
C101	C	-0.966345	-1.399064	-0.275808
H102	H	-0.951284	-1.474026	-0.232168
H103	H	-0.955578	-1.328527	-0.223130
H104	H	-1.027284	-1.401249	-0.298215
H105	H	-0.919689	-1.544168	-0.333336
H106	H	-0.275139	-1.740488	-0.917964
H107	H	-0.920430	-1.656833	-0.614045
