data_functionalizedCrystal
_audit_creation_method	'MofGen! by Chris Wilmer'
_symmetry_space_group_name_H-M	'P1'
_symmetry_Int_Tables_number	1
_symmetry_cell_setting	triclinic
loop_
_symmetry_equiv_pos_as_xyz
  x,y,z
_cell_length_a	19.077236
_cell_length_b	12.759394
_cell_length_c	19.076919
_cell_angle_alpha	92.275853
_cell_angle_beta	89.887323
_cell_angle_gamma	92.306804
loop_
_atom_site_label
_atom_site_type_symbol
_atom_site_fract_x
_atom_site_fract_y
_atom_site_fract_z
Zn1	Zn	1.058338	-0.381376	-0.440561
Zn2	Zn	1.558338	0.118624	0.059439
Zn3	Zn	1.062998	-0.549744	-0.323063
Zn4	Zn	1.562998	-0.049744	0.176937
Zn5	Zn	0.945553	-0.380825	-0.318341
Zn6	Zn	1.445553	0.119175	0.181659
Zn7	Zn	0.940819	-0.563761	-0.435801
Zn8	Zn	1.440819	-0.063761	0.064199
O9	O	1.001927	-0.468927	-0.379441
O10	O	1.501927	0.031073	0.120559
O11	O	1.157289	-0.398075	-0.428942
O12	O	1.657289	0.101925	0.071058
O13	O	1.051351	-0.521241	-0.224105
O14	O	1.551351	-0.021241	0.275895
O15	O	0.960545	-0.233876	-0.334569
O16	O	1.460545	0.266124	0.165431
O17	O	1.160713	-0.521775	-0.342617
O18	O	1.660713	-0.021775	0.157383
O19	O	1.043407	-0.234281	-0.424364
O20	O	1.543407	0.265719	0.075636
O21	O	0.965064	-0.397136	-0.220636
O22	O	1.465064	0.102864	0.279364
O23	O	0.846592	-0.410727	-0.329954
O24	O	1.346592	0.089273	0.170046
O25	O	0.952477	-0.545664	-0.534764
O26	O	1.452477	-0.045664	-0.034764
O27	O	0.843114	-0.545129	-0.416252
O28	O	1.343114	-0.045129	0.083748
O29	O	1.038817	-0.411666	-0.538261
O30	O	1.538817	0.088334	-0.038261
O31	O	1.046760	-0.698626	-0.338002
O32	O	1.546760	-0.198626	0.161998
O33	O	0.956996	-0.708924	-0.420831
O34	O	1.456996	-0.208924	0.079169
C35	C	0.819357	-0.479390	-0.372075
C36	C	1.319357	0.020610	0.127925
C37	C	0.741252	-0.483893	-0.368940
C38	C	1.241252	0.016107	0.131060
C39	C	0.702773	-0.421716	-0.412481
C40	C	1.202773	0.078284	0.087519
C41	C	0.629385	-0.425941	-0.409529
C42	C	1.129385	0.074059	0.090471
C43	C	0.594477	-0.492350	-0.363040
C44	C	1.094477	0.007650	0.136960
C45	C	0.632961	-0.554530	-0.319494
C46	C	1.132961	-0.054530	0.180506
C47	C	0.706348	-0.550298	-0.322443
C48	C	1.206348	-0.050298	0.177557
C49	C	0.375186	-0.511895	-0.349392
C50	C	0.875186	-0.011895	0.150608
C51	C	0.301794	-0.516124	-0.346448
C52	C	0.801794	-0.016124	0.153552
C53	C	0.298223	-0.387533	-0.436482
C54	C	0.798223	0.112467	0.063518
C55	C	0.371611	-0.383312	-0.439430
C56	C	0.871611	0.116688	0.060570
C57	C	0.410089	-0.445488	-0.395882
C58	C	0.910089	0.054512	0.104118
N59	N	0.519463	-0.496673	-0.360024
N60	N	1.019463	0.003327	0.139976
N61	N	0.485102	-0.441159	-0.398895
N62	N	0.985102	0.058841	0.101105
C63	C	1.001889	-0.741896	-0.379428
C64	C	1.501889	-0.241896	0.120572
C65	C	1.001936	-0.858671	-0.379449
C66	C	1.501936	-0.358671	0.120551
C67	C	1.088150	-0.858942	-0.473016
C68	C	1.588150	-0.358942	0.026984
C69	C	1.131279	-0.913938	-0.519806
C70	C	1.631279	-0.413938	-0.019806
C71	C	1.131320	-1.023658	-0.519823
C72	C	1.631320	-0.523658	-0.019823
C73	C	1.088226	-1.078385	-0.473046
C74	C	1.588226	-0.578385	0.026954
C75	C	1.045097	-1.023390	-0.426256
C76	C	1.545097	-0.523390	0.073744
C77	C	1.045062	-0.913667	-0.426243
C78	C	1.545062	-0.413667	0.073757
C79	C	0.958880	-1.023119	-0.332693
C80	C	1.458880	-0.523119	0.167307
C81	C	0.958841	-0.913398	-0.332672
C82	C	1.458841	-0.413398	0.167328
C83	C	0.915786	-1.077846	-0.285916
C84	C	1.415786	-0.577846	0.214084
C85	C	0.872659	-1.022850	-0.239122
C86	C	1.372659	-0.522850	0.260878
C87	C	0.872620	-0.913123	-0.239106
C88	C	1.372620	-0.413123	0.260894
C89	C	0.915712	-0.858403	-0.285882
C90	C	1.415712	-0.358403	0.214118
C91	C	1.185211	-0.458423	-0.386837
C92	C	1.685211	0.041577	0.113163
C93	C	1.263315	-0.453947	-0.389989
C94	C	1.763315	0.046053	0.110011
C95	C	0.994599	-0.480290	-0.562721
C96	C	1.494599	0.019710	-0.062721
C97	C	0.991476	-0.485132	-0.640824
C98	C	1.491476	0.014868	-0.140824
C99	C	1.001985	-0.194892	-0.379471
C100	C	1.501985	0.305108	0.120529
C101	C	1.002009	-0.078114	-0.379483
C102	C	1.502009	0.421886	0.120517
C103	C	1.034960	-0.417645	-0.679339
C104	C	1.534960	0.082355	-0.179339
C105	C	1.032017	-0.422191	-0.752724
C106	C	1.532017	0.077809	-0.252724
C107	C	0.985594	-0.494231	-0.787594
C108	C	1.485594	0.005769	-0.287594
C109	C	0.942106	-0.561721	-0.749075
C110	C	1.442106	-0.061721	-0.249075
C111	C	0.945045	-0.557169	-0.675690
C112	C	1.445045	-0.057169	-0.175690
C113	C	0.971978	-0.515321	-1.006875
C114	C	1.471978	-0.015321	-0.506875
C115	C	0.969043	-0.519871	-1.080265
C116	C	1.469043	-0.019871	-0.580265
C117	C	1.058954	-0.380339	-1.083909
C118	C	1.558954	0.119661	-0.583909
C119	C	1.061892	-0.375798	-1.010524
C120	C	1.561892	0.124202	-0.510524
C121	C	1.018402	-0.443284	-0.972010
C122	C	1.518402	0.056716	-0.472010
N123	N	0.982586	-0.498882	-0.862606
N124	N	1.482586	0.001118	-0.362606
N125	N	1.021406	-0.438627	-0.896999
N126	N	1.521406	0.061373	-0.396999
C127	C	1.009267	-0.457530	-0.196876
C128	C	1.509267	0.042470	0.303124
C129	C	1.012526	-0.452383	-0.118779
C130	C	1.512526	0.047617	0.381221
H131	H	0.273374	-0.570208	-0.308590
H132	H	0.773374	-0.070208	0.191410
H133	H	1.166365	-0.869369	-0.557893
H134	H	1.666365	-0.369369	-0.057893
N135	N	0.892031	-0.639428	-0.786671
N136	N	1.392031	-0.139428	-0.286671
H137	H	0.842341	-0.625188	-0.771869
H138	H	1.342341	-0.125188	-0.271869
H139	H	0.896821	-0.632047	-0.838996
H140	H	1.396821	-0.132047	-0.338996
N141	N	0.740421	-0.350098	-0.462629
N142	N	1.240421	0.149902	0.037371
H143	H	0.728090	-0.275068	-0.451291
H144	H	1.228090	0.224932	0.048709
H145	H	0.792738	-0.356946	-0.457869
H146	H	1.292738	0.143054	0.042131
N147	N	0.826189	-1.081877	-0.188672
N148	N	1.326189	-0.581877	0.311328
H149	H	0.798863	-1.030391	-0.159024
H150	H	1.298863	-0.530391	0.340976
H151	H	0.792521	-1.131060	-0.215946
H152	H	1.292521	-0.631060	0.284054
H153	H	0.598058	-0.375312	-0.444986
H154	H	1.098058	0.124688	0.055014
N155	N	0.747848	-0.617365	-0.275480
N156	N	1.247848	-0.117365	0.224520
H157	H	0.777161	-0.666130	-0.305201
H158	H	1.277161	-0.166130	0.194799
H159	H	0.779550	-0.570747	-0.244195
H160	H	1.279550	-0.070747	0.255805
N161	N	1.177827	-1.082983	-0.570296
N162	N	1.677827	-0.582983	-0.070296
H163	H	1.205118	-1.031670	-0.599930
H164	H	1.705118	-0.531670	-0.099930
H165	H	1.211526	-1.124847	-0.543040
H166	H	1.711526	-0.624847	-0.043040
N167	N	0.409245	-0.311651	-0.489561
N168	N	0.909245	0.188349	0.010439
H169	H	0.440823	-0.259376	-0.462274
H170	H	0.940823	0.240624	0.037726
H171	H	0.438362	-0.354731	-0.523299
H172	H	0.938362	0.145269	-0.023299
N173	N	0.925083	-0.588100	-0.965325
N174	N	1.425083	-0.088100	-0.465325
H175	H	0.893752	-0.545366	-0.933571
H176	H	1.393752	-0.045366	-0.433571
H177	H	0.895268	-0.634424	-0.998585
H178	H	1.395268	-0.134424	-0.498585
N179	N	0.826103	-0.853803	-0.188641
N180	N	1.326103	-0.353803	0.311359
H181	H	0.775460	-0.876508	-0.197496
H182	H	1.275460	-0.376508	0.302504
H183	H	0.839124	-0.869193	-0.138909
H184	H	1.339124	-0.369193	0.361091
N185	N	1.088273	-1.196725	-0.473059
N186	N	1.588273	-0.696725	0.026941
H187	H	1.122135	-1.223259	-0.509796
H188	H	1.622135	-0.723259	-0.009796
H189	H	1.103145	-1.219331	-0.425363
H190	H	1.603145	-0.719331	0.074637
N191	N	0.416682	-0.578950	-0.302422
N192	N	0.916682	-0.078950	0.197578
H193	H	0.383430	-0.621661	-0.272527
H194	H	0.883430	-0.121661	0.227473
H195	H	0.445994	-0.627652	-0.332188
H196	H	0.945994	-0.127652	0.167812
N197	N	0.915676	-0.740062	-0.285859
N198	N	1.415676	-0.240062	0.214141
H199	H	0.949520	-0.713742	-0.322590
H200	H	1.449520	-0.213742	0.177410
H201	H	0.866917	-0.717327	-0.296771
H202	H	1.366917	-0.217327	0.203229
H203	H	1.088128	-0.769601	-0.473001
H204	H	1.588128	-0.269601	0.026999
H205	H	0.909629	-0.612114	-0.644332
H206	H	1.409629	-0.112114	-0.144332
H207	H	1.072765	-0.358986	-0.650953
H208	H	1.572765	0.141014	-0.150953
N209	N	1.078903	-0.349382	-0.794265
N210	N	1.578903	0.150618	-0.294265
H211	H	1.108756	-0.303054	-0.761040
H212	H	1.608756	0.196946	-0.261040
H213	H	1.110195	-0.392156	-0.826032
H214	H	1.610195	0.107844	-0.326032
N215	N	1.111965	-0.298102	-0.972915
N216	N	1.611965	0.201898	-0.472915
H217	H	1.139066	-0.256037	-1.008450
H218	H	1.639066	0.243963	-0.508450
H219	H	1.084593	-0.249231	-0.941315
H220	H	1.584593	0.250769	-0.441315
H221	H	0.915819	-1.167186	-0.285936
H222	H	1.415819	-0.667186	0.214064
N223	N	1.105858	-0.307552	-1.125448
N224	N	1.605858	0.192448	-0.625448
H225	H	1.096953	-0.321363	-1.177228
H226	H	1.596953	0.178637	-0.677228
H227	H	1.095449	-0.232350	-1.112186
H228	H	1.595449	0.267650	-0.612186
H229	H	0.266886	-0.336912	-0.471936
H230	H	0.766886	0.163088	0.028064
H231	H	0.604533	-0.608596	-0.281638
H232	H	1.104533	-0.108596	0.218362
N233	N	0.918973	-0.597577	-1.117877
N234	N	1.418973	-0.097577	-0.617877
H235	H	0.891867	-0.639638	-1.082344
H236	H	1.391867	-0.139638	-0.582344
H237	H	0.885247	-0.558560	-1.147019
H238	H	1.385247	-0.058560	-0.647019
