data_functionalizedCrystal
_audit_creation_method	'MofGen! by Chris Wilmer'
_symmetry_space_group_name_H-M	'P1'
_symmetry_Int_Tables_number	1
_symmetry_cell_setting	triclinic
loop_
_symmetry_equiv_pos_as_xyz
  x,y,z
_cell_length_a	21.606444
_cell_length_b	14.560438
_cell_length_c	14.560438
_cell_angle_alpha	119.999504
_cell_angle_beta	89.999151
_cell_angle_gamma	60.000721
loop_
_atom_site_label
_atom_site_type_symbol
_atom_site_fract_x
_atom_site_fract_y
_atom_site_fract_z
Zr1	Zr	0.596218	1.005318	0.120541
O2	O	0.497391	1.196918	0.267182
O3	O	0.626514	0.813717	0.075590
O4	O	0.626508	1.005326	0.267193
O5	O	0.497402	1.005303	-0.075563
O6	O	0.728358	1.005332	0.267198
O7	O	0.497397	1.005310	0.075579
O8	O	0.728369	0.662579	-0.075545
O9	O	0.497391	1.348056	0.267179
O10	O	0.715444	0.892530	0.056420
O11	O	0.639439	0.892521	-0.056380
O12	O	0.639431	1.118115	0.169208
O13	O	0.563426	1.118106	0.056407
Zr14	Zr	0.758665	1.005318	-0.120506
Zr15	Zr	0.758657	1.005328	0.120549
Zr16	Zr	0.596227	1.005308	-0.120514
Zr17	Zr	0.596219	1.246365	0.120536
Zr18	Zr	0.758665	0.764271	-0.120501
O19	O	0.728369	1.196919	-0.075555
O20	O	0.728358	1.196933	0.267195
O21	O	0.497403	1.196904	-0.075567
O22	O	0.857492	0.813718	-0.267147
O23	O	0.857481	0.813732	0.075602
O24	O	0.626526	0.813703	-0.267160
O25	O	0.857481	1.005333	0.075599
O26	O	0.728376	1.005310	-0.267158
O27	O	0.626526	1.005304	-0.267163
O28	O	0.857486	1.005326	-0.075544
O29	O	0.626508	1.348065	0.267186
O30	O	0.728375	0.662571	-0.267151
O31	O	0.857492	0.662580	-0.267144
O32	O	0.857486	0.662588	-0.075538
O33	O	0.497398	1.348048	0.075573
O34	O	0.626515	1.348057	0.075580
O35	O	0.715452	0.892521	-0.169172
O36	O	0.791457	0.892530	-0.056372
O37	O	0.715445	1.118115	0.056415
O38	O	0.639439	1.118106	-0.056385
C39	C	0.677441	0.703804	0.000023
C40	C	0.677441	0.601473	0.000025
C41	C	0.717114	0.553402	0.058906
C42	C	0.717117	0.457243	0.058895
C43	C	0.637769	0.457238	-0.058878
C44	C	0.637770	0.553389	-0.058873
C45	C	0.474256	1.005305	0.000007
C46	C	0.405296	1.005301	0.000003
C47	C	0.412575	0.887548	-0.058867
C48	C	0.347778	0.887552	-0.058868
C49	C	0.275703	1.005309	0.000008
C50	C	0.268425	1.123070	0.058880
C51	C	0.333222	1.123065	0.058874
C52	C	0.007107	1.123093	0.058905
C53	C	-0.057691	1.123089	0.058909
C54	C	0.021663	0.887580	-0.058837
C55	C	0.086460	0.887575	-0.058843
C56	C	0.079177	1.005335	0.000023
C57	C	0.149438	1.005330	0.000022
C58	C	0.205442	1.005316	0.000017
C59	C	0.880628	1.005331	0.000028
C60	C	0.949587	1.005335	0.000032
C61	C	0.677431	1.005331	0.301541
C62	C	0.677428	1.005335	0.403875
C63	C	0.677442	1.306832	0.000012
C64	C	0.677442	1.409163	0.000010
C65	C	0.637750	1.123087	0.510826
C66	C	0.637757	1.123083	0.606976
C67	C	0.717121	0.887565	0.489210
C68	C	0.717118	0.887570	0.393063
C69	C	0.677448	1.005312	0.698497
C70	C	0.677439	1.005326	0.596173
C71	C	0.880627	0.703817	0.000034
C72	C	0.949587	0.601491	0.000040
C73	C	0.677452	0.703792	-0.301500
C74	C	0.677455	0.601456	-0.403832
C75	C	0.880637	0.703805	-0.301489
C76	C	0.949600	0.601474	-0.403818
C77	C	0.474246	1.306831	0.301524
C78	C	0.405283	1.409162	0.403853
C79	C	0.474256	1.306819	0.000001
C80	C	0.405297	1.409145	-0.000005
C81	C	0.677432	1.306844	0.301535
C82	C	0.677429	1.409180	0.403867
C83	C	0.942292	0.553437	0.058929
C84	C	1.007081	0.457303	0.058957
C85	C	1.079163	0.409219	0.000088
C86	C	1.086455	0.457282	-0.058803
C87	C	1.021667	0.553420	-0.058823
C88	C	1.021667	0.553423	-0.392992
C89	C	1.086471	0.457286	-0.489131
C90	C	1.079207	0.409194	-0.596095
C91	C	1.007133	0.457254	-0.606919
C92	C	0.942330	0.553396	-0.510781
C93	C	0.333217	1.457225	0.393027
C94	C	0.268413	1.553392	0.489166
C95	C	0.275677	1.601488	0.596130
C96	C	0.347751	1.553422	0.606954
C97	C	0.412553	1.457263	0.510816
C98	C	0.412591	1.457209	-0.058884
C99	C	0.347803	1.553369	-0.058885
C100	C	0.275721	1.601457	-0.000013
C101	C	0.268428	1.553389	0.058873
C102	C	0.333216	1.457238	0.058880
C103	C	0.717134	0.553377	-0.510785
C104	C	0.717128	0.457231	-0.606933
C105	C	0.637764	0.457248	-0.489163
C106	C	0.637766	0.553399	-0.393017
H107	H	0.471259	0.791657	-0.106816
H108	H	0.327266	1.418107	0.106823
H109	H	1.145153	0.418118	-0.106731
O110	O	0.759920	0.760549	0.477548
H111	H	0.753250	0.780326	0.562373
O112	O	0.355579	1.605305	0.722327
H113	H	0.387036	1.524603	0.732121
H114	H	0.749417	0.592548	0.106863
O115	O	0.205776	1.705217	0.699814
H116	H	0.171559	1.668314	0.699747
O117	O	0.355625	0.760549	-0.122346
H118	H	0.416629	0.678666	-0.163269
O119	O	0.595079	0.605102	-0.277648
H120	H	0.567530	0.555459	-0.286278
O121	O	0.594963	0.405403	-0.477508
H122	H	0.567365	0.455002	-0.386981
O123	O	0.490283	1.405409	0.522498
H124	H	0.484439	1.455004	0.613030
H125	H	1.027617	0.592533	-0.106784
O126	O	0.759899	0.405402	0.122412
H127	H	0.787477	0.455003	0.163374
H128	H	1.001128	0.418182	0.106912
O129	O	1.029511	0.605298	-0.277629
H130	H	1.090515	0.555736	-0.286271
H131	H	0.145144	0.791685	-0.106782
H132	H	0.749432	0.791676	0.305972
H133	H	0.027587	0.791693	-0.106771
H134	H	0.605469	0.418077	-0.106830
O135	O	0.999309	0.405367	-0.722295
H136	H	0.938310	0.454929	-0.713685
H137	H	0.001167	1.218981	0.106858
O138	O	-0.135435	1.250103	0.122405
H139	H	-0.129614	1.331990	0.163329
O140	O	0.190680	1.605258	0.122361
H141	H	0.184073	1.649081	0.212860
O142	O	1.149108	0.305482	-0.699779
H143	H	1.131956	0.280107	-0.775984
H144	H	0.222973	1.679750	-0.000028
H145	H	0.605432	1.218979	0.519636
O146	O	0.594976	0.605253	-0.122378
H147	H	0.567379	0.555681	-0.163319
O148	O	0.490333	1.405372	-0.122366
H149	H	0.484508	1.454977	-0.163287
H150	H	0.749449	0.592507	-0.519597
O151	O	0.190690	1.250086	0.122397
H152	H	0.146854	1.230310	0.112526
H153	H	1.131911	0.330936	0.000113
O154	O	0.864551	0.605302	0.122439
H155	H	0.870376	0.555737	0.163401
H156	H	0.327291	1.218951	0.106798
H157	H	0.883653	0.592507	-0.519611
O158	O	0.594959	1.250086	0.722333
H159	H	0.567357	1.331970	0.713692
O160	O	1.164203	0.405444	-0.477446
H161	H	1.158360	0.455023	-0.386913
O162	O	0.325373	1.405366	0.277664
H163	H	0.264368	1.454968	0.286306
O164	O	0.190681	1.605202	0.477481
H165	H	0.196523	1.555573	0.386948
H166	H	0.353755	1.592490	-0.106841
H167	H	0.749438	0.418091	-0.694015
