data_functionalizedCrystal
_audit_creation_method	'MofGen! by Chris Wilmer'
_symmetry_space_group_name_H-M	'P1'
_symmetry_Int_Tables_number	1
_symmetry_cell_setting	triclinic
loop_
_symmetry_equiv_pos_as_xyz
  x,y,z
_cell_length_a	12.759401
_cell_length_b	18.101397
_cell_length_c	12.759393
_cell_angle_alpha	90.037652
_cell_angle_beta	90.018567
_cell_angle_gamma	90.019510
loop_
_atom_site_label
_atom_site_type_symbol
_atom_site_fract_x
_atom_site_fract_y
_atom_site_fract_z
Zn1	Zn	1.606213	-0.294805	0.593939
Zn2	Zn	1.606090	-0.418666	0.418240
Zn3	Zn	1.430515	-0.294841	0.418278
Zn4	Zn	1.430486	-0.418607	0.593882
O5	O	1.518326	-0.356730	0.506085
O6	O	1.753218	-0.311245	0.570640
O7	O	1.582760	-0.402281	0.271224
O8	O	1.453886	-0.191203	0.441620
O9	O	1.753127	-0.402246	0.441555
O10	O	1.582970	-0.191177	0.570677
O11	O	1.453766	-0.311307	0.271252
O12	O	1.283490	-0.311249	0.441564
O13	O	1.453836	-0.402144	0.740910
O14	O	1.283469	-0.402180	0.570579
O15	O	1.582942	-0.311187	0.740952
O16	O	1.582732	-0.522291	0.441500
O17	O	1.453717	-0.522248	0.570543
C18	C	1.245359	-0.356712	0.506070
C19	C	1.128582	-0.356723	0.506089
C20	C	1.073760	-0.309428	0.573407
C21	C	0.964036	-0.309442	0.573414
C22	C	0.963966	-0.404052	0.438780
C23	C	1.073688	-0.404034	0.438769
C24	C	1.073800	-0.254808	0.651140
C25	C	0.964076	-0.254822	0.651147
C26	C	1.518236	-0.549140	0.506034
C27	C	1.518294	-0.631454	0.506047
C28	C	1.518428	-0.930545	0.506143
C29	C	1.599375	-0.899217	0.424735
C30	C	1.599655	-0.813598	0.424946
C31	C	1.518362	-0.782163	0.506095
C32	C	1.548380	-0.813161	0.616835
C33	C	1.549006	-0.898806	0.616392
C34	C	1.407247	-0.899056	0.477768
C35	C	1.407796	-0.813406	0.475296
C36	C	1.518322	-0.698303	0.506074
C37	C	1.518470	-1.014405	0.506171
C38	C	1.792359	-0.356748	0.506100
C39	C	1.909136	-0.356755	0.506106
C40	C	1.518400	-0.356655	0.780118
C41	C	1.518431	-0.356623	0.896895
C42	C	1.518445	-0.163568	0.506159
C43	C	1.518496	-0.081254	0.506190
C44	C	1.518313	-0.356751	0.233117
C45	C	1.518486	-0.356574	0.116341
C46	C	1.585666	-0.309257	0.951781
C47	C	1.585691	-0.309231	1.061505
C48	C	1.451243	-0.403942	1.061448
C49	C	1.451214	-0.403964	0.951726
C50	C	1.663291	-0.254579	0.951814
C51	C	1.663316	-0.254552	1.061538
H52	H	1.118319	-0.442538	0.383942
H53	H	1.634210	-0.200058	1.095594
C54	C	1.377192	-0.786032	0.365219
H55	H	1.310236	-0.805116	0.347037
H56	H	1.374809	-0.733582	0.364984
H57	H	1.427646	-0.802518	0.315721
C58	C	1.325803	-0.926317	0.557969
H59	H	1.359331	-0.956756	0.608490
H60	H	1.294820	-0.885067	0.592008
H61	H	1.273036	-0.953933	0.522917
C62	C	0.903578	-0.456095	0.364743
H63	H	0.830380	-0.449336	0.374394
H64	H	0.921533	-0.445198	0.294179
H65	H	0.921558	-0.505866	0.379997
H66	H	1.492631	-0.919526	0.679137
C67	C	1.377237	-0.456052	0.891355
H68	H	1.337214	-0.484244	0.939727
H69	H	1.331475	-0.427718	0.848570
H70	H	1.417383	-0.488341	0.848533
H71	H	1.396515	-0.442484	1.106104
H72	H	1.379939	-0.920723	0.398417
H73	H	1.641531	-0.197226	0.922067
C74	C	1.767675	-0.282345	0.905822
H75	H	1.814181	-0.294691	0.961267
H76	H	1.755154	-0.324826	0.863893
H77	H	1.798097	-0.244638	0.863943
C78	C	1.119829	-0.282650	0.755467
H79	H	1.194188	-0.281697	0.751897
H80	H	1.096874	-0.251650	0.810994
H81	H	1.096835	-0.331795	0.767858
H82	H	1.103575	-0.197429	0.629495
H83	H	0.930043	-0.200315	0.622156
C84	C	0.923882	-0.275696	0.761005
H85	H	0.981810	-0.284277	0.806179
H86	H	0.882535	-0.236481	0.788165
H87	H	0.882517	-0.319228	0.756441
C88	C	1.574297	-0.785286	0.314019
H89	H	1.563735	-0.826128	0.268419
H90	H	1.512514	-0.756059	0.316159
H91	H	1.631021	-0.756215	0.289032
C92	C	1.574422	-0.927212	0.313500
H93	H	1.514408	-0.958251	0.315703
H94	H	1.560995	-0.886323	0.268847
H95	H	1.632497	-0.954377	0.287338
H96	H	1.681281	-0.920684	0.443293
C97	C	1.710907	-0.785839	0.450314
H98	H	1.756104	-0.826906	0.460541
H99	H	1.736103	-0.756721	0.393762
H100	H	1.709152	-0.756774	0.512310
C101	C	1.658793	-0.925717	0.648848
H102	H	1.702593	-0.884308	0.662174
H103	H	1.653454	-0.954912	0.710455
H104	H	1.688075	-0.954524	0.593920
C105	C	1.773224	-0.275322	1.101772
H106	H	1.818406	-0.283888	1.043860
H107	H	1.800308	-0.236067	1.143156
H108	H	1.768760	-0.318840	1.143108
H109	H	1.628739	-0.791652	0.641278
C110	C	1.471180	-0.785647	0.700984
H111	H	1.419836	-0.754934	0.669252
H112	H	1.437829	-0.826765	0.733014
H113	H	1.508252	-0.758252	0.752595
C114	C	1.321933	-0.784512	0.549527
H115	H	1.352529	-0.752879	0.600506
H116	H	1.271242	-0.757814	0.510328
H117	H	1.289070	-0.825022	0.583567
