data_functionalizedCrystal
_audit_creation_method	'MofGen! by Chris Wilmer'
_symmetry_space_group_name_H-M	'P1'
_symmetry_Int_Tables_number	1
_symmetry_cell_setting	triclinic
loop_
_symmetry_equiv_pos_as_xyz
  x,y,z
_cell_length_a	14.395555
_cell_length_b	14.446369
_cell_length_c	14.446369
_cell_angle_alpha	90.000000
_cell_angle_beta	59.999014
_cell_angle_gamma	59.995380
loop_
_atom_site_label
_atom_site_type_symbol
_atom_site_fract_x
_atom_site_fract_y
_atom_site_fract_z
Zr1	Zr	1.016787	0.891706	-0.121445
O2	O	1.210607	0.743882	-0.269259
O3	O	0.822979	0.937030	-0.076132
O4	O	1.016793	0.937015	-0.269253
O5	O	1.016785	0.743900	0.076198
O6	O	1.016785	1.089352	-0.269247
O7	O	1.016793	0.743897	-0.076139
O8	O	0.670087	1.089379	0.076210
O9	O	1.363482	0.743872	-0.269259
O10	O	0.902685	1.070038	-0.056802
O11	O	0.902685	0.956352	0.056881
O12	O	1.130876	0.956334	-0.170493
O13	O	1.130876	0.842649	-0.056810
Zr14	Zr	1.016761	1.134670	0.121524
Zr15	Zr	1.016774	1.134666	-0.121436
Zr16	Zr	1.016774	0.891710	0.121515
Zr17	Zr	1.260606	0.891691	-0.121444
Zr18	Zr	0.772942	1.134685	0.121524
O19	O	1.210569	1.089346	0.076211
O20	O	1.210588	1.089340	-0.269247
O21	O	1.210588	0.743888	0.076199
O22	O	0.822941	1.282494	0.269338
O23	O	0.822960	1.282488	-0.076120
O24	O	0.822960	0.937036	0.269326
O25	O	1.016763	1.282476	-0.076119
O26	O	1.016755	1.089361	0.269332
O27	O	1.016763	0.937024	0.269326
O28	O	1.016755	1.282479	0.076218
O29	O	1.363471	0.936993	-0.269252
O30	O	0.670077	1.089383	0.269331
O31	O	0.670066	1.282504	0.269338
O32	O	0.670077	1.282500	0.076217
O33	O	1.363471	0.743876	-0.076138
O34	O	1.363461	0.936997	-0.076131
O35	O	0.902673	1.070042	0.170573
O36	O	0.902673	1.183727	0.056889
O37	O	1.130863	1.070024	-0.056802
O38	O	1.130863	0.956338	0.056881
C39	C	0.711795	1.013207	0.000039
C40	C	0.608287	1.013213	0.000039
C41	C	0.485802	1.075174	-0.061949
C42	C	0.623938	0.968288	-0.106889
C43	C	0.471563	1.120079	0.044927
C44	C	0.562096	0.906213	-0.044962
C45	C	0.409647	1.058082	0.106913
C46	C	0.547774	0.951132	0.062000
C47	C	1.016791	0.709282	0.000028
C48	C	1.016797	0.606139	0.000025
C49	C	1.016791	1.013182	-0.303866
C50	C	1.016797	1.013181	-0.407009
C51	C	1.321754	1.013169	0.000040
C52	C	1.425261	1.013163	0.000040
C53	C	1.160701	0.387760	-0.071319
C54	C	1.160798	0.494992	-0.071720
C55	C	0.945315	0.602819	-0.052277
C56	C	0.946229	0.495050	-0.052800
C57	C	0.943256	0.496417	0.123760
C58	C	0.945968	0.602386	0.123566
C59	C	1.016757	1.317094	0.000051
C60	C	1.016752	1.420237	0.000055
C61	C	1.160701	0.941121	-0.625381
C62	C	1.160798	0.941426	-0.518149
C63	C	0.945306	1.136719	-0.410329
C64	C	0.946219	1.136331	-0.518098
C65	C	0.943265	0.962724	-0.516740
C66	C	0.945977	0.960217	-0.410771
C67	C	1.016757	1.013193	0.303946
C68	C	1.016752	1.013195	0.407089
C69	C	0.711778	1.317113	0.000050
C70	C	0.608265	1.420262	0.000054
C71	C	0.711778	1.013212	0.303945
C72	C	0.608265	1.013221	0.407088
C73	C	0.711761	1.317118	0.303956
C74	C	0.608242	1.420270	0.407103
C75	C	1.321787	0.709258	-0.303877
C76	C	1.425306	0.606106	-0.407023
C77	C	1.321770	0.709263	0.000029
C78	C	1.425283	0.606114	0.000026
C79	C	1.321770	1.013164	-0.303866
C80	C	1.425283	1.013155	-0.407009
C81	C	0.461417	1.638641	0.071389
C82	C	0.568725	1.531403	0.071796
C83	C	0.480954	1.423599	0.052352
C84	C	0.373191	1.531375	0.052870
C85	C	0.548799	1.529988	-0.123690
C86	C	0.657661	1.424012	-0.123490
C87	C	0.461428	0.941182	0.482071
C88	C	0.568739	0.941478	0.374737
C89	C	0.480948	1.136763	0.481650
C90	C	0.373181	1.136384	0.588514
C91	C	0.548783	0.962766	0.590094
C92	C	0.657649	0.960250	0.481417
C93	C	0.461366	1.495269	0.625474
C94	C	0.568700	1.387926	0.518238
C95	C	0.480940	1.494821	0.410416
C96	C	0.373150	1.601694	0.518189
C97	C	0.548714	1.603298	0.516850
C98	C	0.657602	1.494612	0.410878
H99	H	0.458689	1.127506	-0.114432
Cl100	Cl	0.414094	1.259644	0.103540
H101	H	0.658364	1.333659	0.519862
H102	H	0.689884	1.007281	0.506942
Cl103	Cl	0.707386	1.534021	0.288668
H104	H	0.371424	1.693635	0.162092
Cl105	Cl	0.765392	0.909647	-0.246434
H106	H	0.282104	1.176798	0.588241
Cl107	Cl	0.779628	1.043230	-0.474575
H108	H	0.371385	1.494231	0.680446
Cl109	Cl	0.781834	1.223229	-0.289487
H110	H	0.343110	1.192998	0.667100
Cl111	Cl	0.232561	1.609125	0.193411
Cl112	Cl	0.515402	1.223260	0.523699
H113	H	0.840909	0.681552	0.181219
H114	H	1.217232	0.492540	-0.162974
H115	H	0.840616	0.521711	-0.004176
H116	H	0.498719	1.492943	0.679443
H117	H	0.318003	1.096084	0.197276
Cl118	Cl	0.510673	1.535198	0.212690
Cl119	Cl	0.610103	0.824441	0.596447
Cl120	Cl	0.797801	1.415235	0.411696
H121	H	0.523828	1.681518	0.489407
H122	H	0.343135	1.504722	0.004239
Cl123	Cl	0.707192	0.801023	0.290934
H124	H	0.503286	1.345329	0.002871
H125	H	0.442253	1.421470	0.142520
Cl126	Cl	0.797879	1.424789	-0.183819
H127	H	0.599510	0.815774	-0.083033
H128	H	0.658393	1.533010	0.036720
H129	H	0.531120	1.334128	0.520681
Cl130	Cl	0.797843	0.819715	0.402038
H131	H	0.989329	0.873134	-0.566766
Cl132	Cl	0.610124	1.607200	-0.191140
H133	H	0.574834	0.898639	0.114408
Cl134	Cl	1.024682	0.417304	-0.193345
Cl135	Cl	1.014348	0.419178	0.191224
H136	H	0.994950	1.177409	-0.408186
Cl137	Cl	0.707443	1.301795	-0.212503
H138	H	0.998104	0.869204	-0.411293
H139	H	1.217168	0.493229	-0.036911
Cl140	Cl	0.510359	1.043408	0.710869
H141	H	1.217239	0.976433	-0.520601
H142	H	0.840919	1.007257	-0.331612
H143	H	0.282076	1.601419	0.568521
Cl144	Cl	1.024654	1.198709	-0.595830
H145	H	0.523926	1.502540	-0.177120
H146	H	1.217193	0.333801	-0.036414
Cl147	Cl	0.326717	1.723025	0.477048
Cl148	Cl	1.247512	0.302864	-0.211361
H149	H	0.839436	0.681094	-0.002794
H150	H	0.498804	0.849982	0.479733
H151	H	0.442254	1.177455	0.430041
Cl152	Cl	0.519120	1.721944	0.017505
Cl153	Cl	0.322501	0.994735	0.480470
H154	H	0.531142	0.976492	0.320949
Cl155	Cl	0.515413	1.536861	0.289578
H156	H	0.994971	0.604949	-0.142444
Cl157	Cl	1.026412	0.601611	0.183906
Cl158	Cl	0.421220	1.415132	0.407106
Cl159	Cl	0.609996	1.609673	0.594092
H160	H	0.837215	0.523863	0.177191
H161	H	1.217198	0.849917	-0.679336
Cl162	Cl	1.247503	0.994658	-0.710270
Cl163	Cl	0.783165	1.223754	-0.476951
Cl164	Cl	1.247292	0.800981	-0.520593
