data_functionalizedCrystal
_audit_creation_method	'MofGen! by Chris Wilmer'
_symmetry_space_group_name_H-M	'P1'
_symmetry_Int_Tables_number	1
_symmetry_cell_setting	triclinic
loop_
_symmetry_equiv_pos_as_xyz
  x,y,z
_cell_length_a	10.654550
_cell_length_b	10.540539
_cell_length_c	9.130313
_cell_angle_alpha	90.000859
_cell_angle_beta	89.996220
_cell_angle_gamma	84.505197
loop_
_atom_site_label
_atom_site_type_symbol
_atom_site_fract_x
_atom_site_fract_y
_atom_site_fract_z
O1	O	1.667897	0.178295	-0.121912
O2	O	1.302424	0.195282	-0.121888
O3	O	1.493499	0.002079	-0.121899
O4	O	1.476823	0.371498	-0.121902
O5	O	1.493496	0.002084	0.121700
O6	O	1.302422	0.195287	0.121711
O7	O	1.667894	0.178300	0.121686
Cu8	Cu	1.485158	0.186794	0.143941
Cu9	Cu	1.485161	0.186788	-0.144143
O10	O	1.476820	0.371503	0.121697
C11	C	1.255625	0.194038	-0.000086
C12	C	1.116180	0.190306	-0.000077
C13	C	1.036734	0.304061	-0.000099
C14	C	0.905712	0.300547	-0.000124
C15	C	0.933595	0.069513	-0.000111
C16	C	1.064614	0.073028	-0.000075
C17	C	1.088301	0.421338	-0.000100
C18	C	1.008854	0.535103	-0.000124
C19	C	0.877832	0.531589	-0.000149
C20	C	0.826256	0.414310	-0.000151
C21	C	1.492247	-0.045221	-0.000102
C22	C	1.488505	-0.186168	-0.000110
C23	C	1.345134	-0.369543	-0.000647
C24	C	1.348927	-0.222926	-0.000099
C25	C	1.555675	-0.247846	0.138993
C26	C	1.550912	-0.394389	0.139110
C27	C	1.553753	-0.394914	-0.137907
C28	C	1.555039	-0.247933	-0.139747
C29	C	1.714694	0.179545	-0.000119
C30	C	1.854139	0.183276	-0.000138
C31	C	1.478072	0.418803	-0.000103
C32	C	1.481813	0.559750	-0.000105
N33	N	1.485165	0.186798	0.346564
N34	N	1.485163	0.186774	-0.346765
C35	C	1.569795	0.101277	0.423211
C36	C	1.569791	0.101262	0.576548
C37	C	1.400525	0.272300	0.576577
C38	C	1.400523	0.272308	0.423243
C39	C	1.654437	0.015767	0.346532
C40	C	1.739074	-0.069760	0.423179
C41	C	1.739071	-0.069775	0.576516
C42	C	1.654430	0.015736	0.653206
H43	H	1.129301	-0.019601	-0.000061
H44	H	1.654426	0.015708	0.778063
C45	C	1.832176	-0.163810	0.338828
H46	H	1.820069	-0.151544	0.236530
H47	H	1.817795	-0.248669	0.363940
H48	H	1.916114	-0.149217	0.363963
C49	C	0.790439	0.656717	-0.000170
H50	H	0.705021	0.637832	-0.000177
H51	H	0.806203	0.704750	-0.085117
H52	H	0.806165	0.704760	0.084790
C53	C	1.277511	-0.165341	-0.134786
H54	H	1.245910	-0.231549	-0.190328
H55	H	1.333236	-0.121962	-0.193650
H56	H	1.209299	-0.107000	-0.103465
H57	H	1.505891	-0.207059	-0.242651
C58	C	1.492632	-0.190296	0.278845
H59	H	1.425387	-0.128696	0.252761
H60	H	1.552959	-0.150743	0.335127
H61	H	1.460626	-0.255954	0.334915
C62	C	1.065575	0.664101	-0.000117
H63	H	0.999491	0.731346	-0.000119
H64	H	1.116125	0.670272	-0.085055
H65	H	1.116087	0.670277	0.084853
C66	C	1.270636	-0.408166	-0.135387
H67	H	1.322213	-0.467765	-0.192519
H68	H	1.246041	-0.334743	-0.192672
H69	H	1.197695	-0.445851	-0.104090
H70	H	1.807977	-0.139423	0.638921
C71	C	1.492726	-0.437509	-0.280337
H72	H	1.422794	-0.483343	-0.257088
H73	H	1.552840	-0.490761	-0.334658
H74	H	1.464863	-0.364686	-0.337120
H75	H	0.719568	0.411458	-0.000148
H76	H	1.651295	-0.442394	0.145414
H77	H	0.891591	-0.025970	-0.000137
C78	C	1.270950	-0.410302	0.133369
H79	H	1.322913	-0.470219	0.189654
H80	H	1.198321	-0.448152	0.101393
H81	H	1.245870	-0.337672	0.191761
H82	H	1.295701	-0.181149	0.099788
C83	C	1.654442	0.015787	0.177868
H84	H	1.591922	0.078975	0.143200
H85	H	1.636544	-0.065509	0.143160
H86	H	1.734868	0.033939	0.143189
C87	C	1.307440	0.366364	0.660931
H88	H	1.319571	0.354119	0.763229
H89	H	1.223499	0.351796	0.635814
H90	H	1.321845	0.451221	0.635806
C91	C	1.232420	0.425202	-0.000087
H92	H	1.272350	0.340655	-0.000088
H93	H	1.256908	0.468670	0.084854
H94	H	1.256915	0.468647	-0.085053
C95	C	1.307439	0.366385	0.338925
H96	H	1.257043	0.417323	0.406551
H97	H	1.254757	0.320230	0.279107
H98	H	1.353097	0.419660	0.279114
H99	H	1.501268	-0.422569	0.243099
H100	H	1.658178	-0.225529	0.144158
H101	H	1.656802	-0.223748	-0.148154
H102	H	1.654570	-0.442177	-0.138850
