data_functionalizedCrystal
_audit_creation_method	'MofGen! by Chris Wilmer'
_symmetry_space_group_name_H-M	'P1'
_symmetry_Int_Tables_number	1
_symmetry_cell_setting	triclinic
loop_
_symmetry_equiv_pos_as_xyz
  x,y,z
_cell_length_a	13.262533
_cell_length_b	13.339070
_cell_length_c	18.366186
_cell_angle_alpha	89.997828
_cell_angle_beta	105.907768
_cell_angle_gamma	99.431353
loop_
_atom_site_label
_atom_site_type_symbol
_atom_site_fract_x
_atom_site_fract_y
_atom_site_fract_z
O1	O	1.432326	0.136435	0.223103
O2	O	1.131080	0.151268	0.163444
O3	O	1.247130	-0.003558	0.186429
O4	O	1.316277	0.291261	0.200118
O5	O	1.247100	-0.003566	0.307522
O6	O	1.131050	0.151260	0.284538
O7	O	1.432297	0.136428	0.344196
Zn8	Zn	1.281669	0.143843	0.333593
Zn9	Zn	1.281708	0.143853	0.174047
O10	O	1.316247	0.291253	0.321212
C11	C	1.091721	0.150432	0.216199
C12	C	0.974486	0.147942	0.192982
C13	C	0.643948	0.140920	0.391571
C14	C	0.754098	0.143265	0.413388
C15	C	0.809200	0.144434	0.358288
C16	C	0.754142	0.143259	0.281368
C17	C	0.643983	0.140923	0.259548
C18	C	0.809235	0.144436	0.226266
C19	C	0.754177	0.143261	0.149345
C20	C	0.644028	0.140924	0.127530
C21	C	0.588926	0.139755	0.182629
C22	C	0.919394	0.146773	0.248086
C23	C	0.919429	0.146775	0.116063
C24	C	0.809279	0.144431	0.094246
C25	C	1.235435	-0.041300	0.244661
C26	C	1.200619	-0.153749	0.237763
C27	C	1.471329	-0.517400	0.291375
C28	C	1.504044	-0.411750	0.297861
C29	C	1.428191	-0.347244	0.282837
C30	C	1.319617	-0.388400	0.261326
C31	C	1.286899	-0.494061	0.254846
C32	C	1.243760	-0.323905	0.246308
C33	C	1.135186	-0.365060	0.224797
C34	C	1.102474	-0.470711	0.218317
C35	C	1.178327	-0.535216	0.233341
C36	C	1.276478	-0.218244	0.252788
C37	C	1.092047	-0.194904	0.216259
C38	C	1.059333	-0.300555	0.209773
C39	C	1.471655	0.137263	0.291439
C40	C	1.588891	0.139753	0.314652
C41	C	1.327942	0.328995	0.262977
C42	C	1.362758	0.441444	0.269870
N43	N	1.281650	0.143835	0.442480
N44	N	1.281733	0.143852	0.065161
C45	C	1.333070	0.075312	0.490765
C46	C	1.333075	0.075308	0.566994
C47	C	1.281675	0.143843	0.594938
C48	C	1.230243	0.212371	0.546642
C49	C	1.230231	0.212367	0.470413
C50	C	1.294770	0.236031	0.718291
C51	C	1.294791	0.236037	0.794520
C52	C	1.281709	0.143856	0.830052
C53	C	1.268628	0.051666	0.789351
C54	C	1.268615	0.051662	0.713122
C55	C	1.281683	0.143855	0.677595
C56	C	1.333137	0.075323	0.960993
C57	C	1.333135	0.075317	1.037222
C58	C	1.230311	0.212390	1.016871
C59	C	1.230306	0.212387	0.940642
C60	C	1.281725	0.143855	0.912709
H61	H	0.764436	0.143475	0.031616
H62	H	1.454834	-0.261219	0.288119
H63	H	0.599075	0.139976	0.436424
C64	C	1.173698	0.287757	0.577381
N65	N	1.131101	0.344535	0.600533
H66	H	1.305449	0.311103	0.827654
C67	C	1.309163	0.337444	0.679212
N68	N	1.320003	0.413825	0.649780
H69	H	0.599205	0.139979	0.064896
C70	C	0.467755	0.137181	0.158634
N71	N	0.376487	0.135245	0.140563
C72	C	0.980036	0.148058	0.055449
N73	N	1.025693	0.149025	0.009799
H74	H	1.375002	0.019517	0.938249
C75	C	0.979944	0.148057	0.332696
N76	N	1.025548	0.149020	0.396430
H77	H	0.970930	-0.334079	0.192260
H78	H	1.014066	-0.504216	0.200808
C79	C	1.389681	-0.000085	1.090332
N80	N	1.432268	-0.056883	1.130334
C81	C	0.814652	0.144551	0.497998
N82	N	0.860262	0.145516	0.561730
H83	H	1.188357	0.268167	0.431098
H84	H	1.257961	-0.023402	0.679986
C85	C	1.395906	-0.172985	0.276444
N86	N	1.485866	-0.138898	0.294260
H87	H	1.592444	-0.378249	0.315375
C88	C	1.554755	-0.588361	0.307904
N89	N	1.617597	-0.641811	0.320355
C90	C	1.173836	0.287842	0.887546
N91	N	1.131330	0.344701	0.847559
H92	H	0.898889	0.146343	0.376057
H93	H	1.030281	-0.142384	0.204029
C94	C	1.142346	-0.651440	0.226217
N95	N	1.115248	-0.738982	0.220855
H96	H	1.374935	0.019507	0.468024
C97	C	1.389657	-0.000065	0.620119
N98	N	1.432280	-0.056833	0.660132
C99	C	1.254233	-0.049741	0.828431
N100	N	1.243393	-0.126118	0.857869
H101	H	1.188455	0.268189	1.039621
