data_functionalizedCrystal
_audit_creation_method	'MofGen! by Chris Wilmer'
_symmetry_space_group_name_H-M	'P1'
_symmetry_Int_Tables_number	1
_symmetry_cell_setting	triclinic
loop_
_symmetry_equiv_pos_as_xyz
  x,y,z
_cell_length_a	12.759401
_cell_length_b	12.759400
_cell_length_c	12.759401
_cell_angle_alpha	90.007905
_cell_angle_beta	90.006940
_cell_angle_gamma	90.016209
loop_
_atom_site_label
_atom_site_type_symbol
_atom_site_fract_x
_atom_site_fract_y
_atom_site_fract_z
Zn1	Zn	1.606121	-0.418407	0.594020
Zn2	Zn	1.606055	-0.594053	0.418340
Zn3	Zn	1.430463	-0.418394	0.418355
Zn4	Zn	1.430412	-0.594049	0.593977
O5	O	1.518263	-0.506226	0.506173
O6	O	1.753134	-0.441714	0.570727
O7	O	1.582756	-0.570748	0.271321
O8	O	1.453813	-0.271374	0.441681
O9	O	1.753085	-0.570761	0.441656
O10	O	1.582869	-0.271384	0.570742
O11	O	1.453749	-0.441691	0.271332
O12	O	1.283435	-0.441687	0.441640
O13	O	1.453726	-0.570754	0.741004
O14	O	1.283398	-0.570741	0.570669
O15	O	1.582819	-0.441710	0.741035
O16	O	1.582707	-0.741074	0.441614
O17	O	1.453663	-0.741071	0.570654
C18	C	1.245296	-0.506213	0.506152
C19	C	1.128519	-0.506233	0.506168
C20	C	1.073665	-0.573533	0.573248
C21	C	0.963941	-0.573537	0.573268
C22	C	0.963934	-0.438937	0.439121
C23	C	1.073656	-0.438929	0.439106
C24	C	1.518201	-0.779193	0.506151
C25	C	1.518270	-0.895970	0.506177
C26	C	1.585538	-0.950798	0.439060
C27	C	1.585602	-1.060522	0.439092
C28	C	1.451122	-1.060579	0.573361
C29	C	1.451064	-0.950857	0.573333
C30	C	1.663176	-0.950766	0.361538
C31	C	1.663241	-1.060491	0.361570
C32	C	1.792296	-0.506239	0.506194
C33	C	1.909073	-0.506245	0.506204
C34	C	1.518275	-0.506233	0.780206
C35	C	1.518279	-0.506236	0.896983
C36	C	1.518354	-0.232192	0.506218
C37	C	1.518393	-0.115416	0.506237
C38	C	1.585490	-0.439054	0.951863
C39	C	1.585481	-0.439052	1.061587
C40	C	1.451048	-0.573423	1.061541
C41	C	1.451053	-0.573419	0.951819
C42	C	1.518250	-0.506242	1.233206
C43	C	1.518266	-0.506238	1.116429
H44	H	1.118320	-0.384118	0.384482
C45	C	1.659422	-0.365165	1.121955
H46	H	1.649789	-0.374782	1.195156
H47	H	1.730004	-0.380556	1.103979
H48	H	1.644076	-0.294566	1.103984
C49	C	1.659422	-0.365143	0.891546
H50	H	1.699440	-0.325124	0.939949
H51	H	1.705190	-0.405326	0.848740
H52	H	1.619238	-0.319360	0.848749
H53	H	1.396317	-0.628123	1.106203
C54	C	1.377125	-0.647330	0.891447
H55	H	1.337098	-0.687354	0.939819
H56	H	1.331365	-0.607139	0.848641
H57	H	1.417313	-0.693108	0.848647
C58	C	1.377196	-1.120959	0.647222
H59	H	1.386860	-1.194159	0.637624
H60	H	1.392507	-1.102934	0.717821
H61	H	1.306603	-1.103043	0.631772
H62	H	0.919284	-0.628338	0.627893
C63	C	1.134010	-0.647553	0.647022
H64	H	1.085622	-0.687628	0.686981
H65	H	1.176795	-0.693265	0.606752
H66	H	1.176830	-0.607424	0.692865
H67	H	1.634068	-0.916788	0.284211
C68	C	1.767656	-1.106369	0.401035
H69	H	1.814113	-1.050874	0.418581
H70	H	1.755154	-1.148259	0.461293
H71	H	1.798125	-1.148268	0.347564
C72	C	0.903582	-0.364921	0.365348
H73	H	0.830379	-0.374573	0.374954
H74	H	0.921579	-0.294352	0.380838
H75	H	0.921547	-0.380195	0.294727
H76	H	1.641522	-1.090320	0.280189
H77	H	1.396298	-0.906217	0.627994
H78	H	1.744514	-0.920916	0.383391
