data_functionalizedCrystal
_audit_creation_method	'MofGen! by Chris Wilmer'
_symmetry_space_group_name_H-M	'P1'
_symmetry_Int_Tables_number	1
_symmetry_cell_setting	triclinic
loop_
_symmetry_equiv_pos_as_xyz
  x,y,z
_cell_length_a	26.374263
_cell_length_b	26.373608
_cell_length_c	26.370205
_cell_angle_alpha	60.005297
_cell_angle_beta	60.010839
_cell_angle_gamma	59.993700
loop_
_atom_site_label
_atom_site_type_symbol
_atom_site_fract_x
_atom_site_fract_y
_atom_site_fract_z
O1	O	0.070152	-0.740800	0.619517
O2	O	0.026377	-0.576764	0.499159
O3	O	0.130245	-0.680560	0.499088
O4	O	-0.033715	-0.637003	0.619589
O5	O	0.164701	-0.646107	0.533470
O6	O	0.060833	-0.542310	0.533541
O7	O	0.104608	-0.706346	0.653899
Cu8	Cu	0.085867	-0.621182	0.596859
Cu9	Cu	0.045119	-0.661927	0.556199
O10	O	0.000741	-0.602549	0.653971
N11	N	0.114528	-0.592529	0.625461
N12	N	0.016463	-0.690587	0.527598
C13	C	0.181428	-0.355400	0.692330
C14	C	0.181530	-0.525690	0.862573
C15	C	0.181440	-0.525667	0.692313
C16	C	0.351736	-0.525673	0.692271
C17	C	0.200174	-0.411588	0.711047
C18	C	0.200232	-0.506954	0.806384
C19	C	0.295546	-0.506943	0.711016
C20	C	0.200182	-0.506940	0.711037
C21	C	0.157567	-0.283881	0.668507
C22	C	0.157587	-0.549500	0.668479
C23	C	0.224035	-0.483107	0.734871
C24	C	0.455739	-0.507754	0.637520
C25	C	0.520749	-0.529425	0.615835
C26	C	0.520768	-0.634611	0.655947
C27	C	0.455759	-0.612939	0.677633
C28	C	0.173240	-0.251367	0.604595
C29	C	0.151546	-0.186351	0.582941
C30	C	0.098512	-0.186369	0.689113
C31	C	0.120206	-0.251385	0.710768
C32	C	0.093669	-0.533798	0.684205
C33	C	0.071992	-0.555464	0.662532
C34	C	0.178144	-0.608536	0.609422
C35	C	0.199825	-0.586869	0.631088
C36	C	0.093821	-0.533842	0.966616
C37	C	0.072187	-0.555526	1.031630
C38	C	0.178370	-0.608608	1.031591
C39	C	0.200004	-0.586926	0.966576
C40	C	0.157728	-0.549541	0.934090
C41	C	0.423247	-0.549509	0.668416
C42	C	-0.097522	-0.709158	0.508557
C43	C	-0.002050	-0.709295	0.413344
C44	C	-0.002241	-0.804604	0.508735
C45	C	-0.002225	-0.709288	0.508793
C46	C	-0.026009	-0.733087	0.484858
N47	N	0.552340	-0.592538	0.625346
O48	O	0.750867	-0.598274	0.477076
O49	O	0.751048	-0.718989	0.640960
O50	O	0.750981	-0.718715	0.537020
O51	O	0.750934	-0.598547	0.581017
O52	O	0.647701	-0.684348	0.571512
O53	O	0.647768	-0.684622	0.675452
O54	O	0.647587	-0.563907	0.511569
Cu55	Cu	0.638247	-0.621127	0.596660
Cu56	Cu	0.760388	-0.661769	0.555869
O57	O	0.647654	-0.564181	0.615509
N58	N	0.846295	-0.690358	0.527176
N59	N	0.114503	-0.154778	0.625499
O60	O	-0.033701	0.043855	0.619632
O61	O	0.130190	0.043858	0.498933
O62	O	0.026233	0.043841	0.499224
O63	O	0.070257	0.043872	0.619341
O64	O	0.060690	-0.059448	0.533654
O65	O	0.164647	-0.059431	0.533363
O66	O	0.000756	-0.059434	0.654062
Cu67	Cu	0.085848	-0.068863	0.596857
Cu68	Cu	0.045099	0.053287	0.556138
O69	O	0.104714	-0.059417	0.653771
N70	N	0.016435	0.139202	0.527497
N71	N	0.114760	-0.592585	1.063190
O72	O	0.108896	-0.740779	1.261808
O73	O	-0.011787	-0.576838	1.261822
O74	O	-0.011509	-0.680779	1.261780
O75	O	0.108618	-0.636838	1.261850
O76	O	0.022916	-0.646341	1.158496
O77	O	0.022638	-0.542399	1.158538
O78	O	0.143321	-0.706341	1.158524
Cu79	Cu	0.086123	-0.621225	1.149100
Cu80	Cu	0.045411	-0.661953	1.271246
O81	O	0.143044	-0.602399	1.158566
N82	N	0.016774	-0.690600	1.357156
C83	C	0.039504	-0.538867	0.499769
C84	C	0.168130	-0.667407	0.499680
C85	C	0.091482	-0.744243	0.653289
C86	C	-0.037145	-0.615703	0.653378
C87	C	0.699429	-0.718429	0.678853
C88	C	0.699348	-0.718091	0.550135
C89	C	0.699202	-0.564465	0.473677
C90	C	0.699287	-0.564805	0.602393
C91	C	0.168023	-0.007659	0.499484
C92	C	0.039327	-0.007807	0.499887
C93	C	-0.037119	-0.007789	0.653468
C94	C	0.091620	-0.007770	0.653109
C95	C	-0.011194	-0.538964	1.210181
C96	C	-0.010843	-0.667676	1.210109
C97	C	0.142729	-0.744214	1.210165
C98	C	0.142386	-0.615494	1.210214
H99	H	0.020147	-0.542732	1.058106
C100	C	0.699124	-0.513262	0.410100
H101	H	0.699097	-0.477201	0.410051
H102	H	0.735127	-0.527476	0.378482
H103	H	0.663090	-0.503510	0.402549
C104	C	-0.100702	-0.007790	0.704661
H105	H	-0.126805	-0.007793	0.689666
H106	H	-0.095249	-0.043804	0.739954
H107	H	-0.119282	0.028238	0.715936
H108	H	0.214995	-0.007372	0.461496
H109	H	0.100832	-0.791364	0.691090
C110	C	-0.061808	-0.680346	1.210022
H111	H	-0.097948	-0.644437	1.210012
H112	H	-0.047436	-0.690193	1.173986
H113	H	-0.071489	-0.714221	1.246025
H114	H	0.215222	-0.676694	0.461838
C115	C	0.193916	-0.807818	1.210159
H116	H	0.178917	-0.833908	1.210145
H117	H	0.229206	-0.802384	1.174149
H118	H	0.205195	-0.826407	1.246189
H119	H	-0.084239	-0.606419	0.691217
C120	C	0.026601	-0.007823	0.448910
H121	H	-0.014519	-0.007832	0.464093
H122	H	0.031219	0.028192	0.413586
H123	H	0.055251	-0.043851	0.437609
C124	C	0.699265	-0.513807	0.615109
H125	H	0.699298	-0.528986	0.656228
H126	H	0.735255	-0.502471	0.586447
H127	H	0.663219	-0.478503	0.610507
H128	H	0.699474	-0.756325	0.725922
H129	H	0.059391	-0.503396	0.940172
C130	C	0.104348	-0.007762	0.704088
H131	H	0.145472	-0.007763	0.688908
H132	H	0.075700	0.028257	0.715399
H133	H	0.099735	-0.043785	0.739408
H134	H	-0.049082	-0.491880	1.210184
H135	H	0.180125	-0.606093	1.210228
C136	C	0.224874	-0.649688	1.067323
H137	H	0.266034	-0.655924	1.038640
H138	H	0.218618	-0.629816	1.092674
H139	H	0.218665	-0.688669	1.092692
C140	C	0.270304	-0.604193	0.930801
H141	H	0.292380	-0.629556	0.959461
H142	H	0.280957	-0.626246	0.905434
H143	H	0.280944	-0.567425	0.905445
H144	H	0.059274	-0.503369	0.714648
H145	H	0.212545	-0.638970	0.578981
C146	C	0.001683	-0.538199	0.679830
H147	H	-0.020368	-0.512849	0.705211
H148	H	-0.009003	-0.516134	0.643080
H149	H	-0.008955	-0.574969	0.701884
H150	H	0.251872	-0.599651	0.618278
C151	C	0.699369	-0.769091	0.537423
H152	H	0.699418	-0.805245	0.573311
H153	H	0.663338	-0.754763	0.527587
H154	H	0.735374	-0.778736	0.503532
C155	C	0.420020	-0.658871	0.711622
H156	H	0.376645	-0.636884	0.723224
H157	H	0.430662	-0.679425	0.684873
H158	H	0.430697	-0.688641	0.747748
C159	C	0.556531	-0.704381	0.666081
H160	H	0.527869	-0.726147	0.687592
H161	H	0.581877	-0.710410	0.627017
H162	H	0.581907	-0.719631	0.689897
H163	H	0.547206	-0.495421	0.590679
H164	H	0.429268	-0.456103	0.630015
H165	H	0.164306	-0.159876	0.530897
C166	C	0.214332	-0.287109	0.558108
H167	H	0.220550	-0.258431	0.516941
H168	H	0.253309	-0.312470	0.564337
H169	H	0.194479	-0.312471	0.564361
C170	C	0.057419	-0.150619	0.735596
H171	H	0.046744	-0.107242	0.713546
H172	H	0.020670	-0.161282	0.760970
H173	H	0.079497	-0.161274	0.760945
C174	C	0.102988	-0.287147	0.781071
H175	H	0.077640	-0.258479	0.803135
H176	H	0.080940	-0.312522	0.791753
H177	H	0.139773	-0.312497	0.791699
H178	H	0.030155	-0.491745	0.461969
