data_functionalizedCrystal
_audit_creation_method	'MofGen! by Chris Wilmer'
_symmetry_space_group_name_H-M	'P1'
_symmetry_Int_Tables_number	1
_symmetry_cell_setting	triclinic
loop_
_symmetry_equiv_pos_as_xyz
  x,y,z
_cell_length_a	25.639239
_cell_length_b	19.805384
_cell_length_c	19.805407
_cell_angle_alpha	90.068308
_cell_angle_beta	89.961314
_cell_angle_gamma	89.900224
loop_
_atom_site_label
_atom_site_type_symbol
_atom_site_fract_x
_atom_site_fract_y
_atom_site_fract_z
Zn1	Zn	-0.207796	-0.382715	-1.035004
Zn2	Zn	-0.295339	-0.269524	-1.034798
Zn3	Zn	-0.207919	-0.269540	-0.921722
Zn4	Zn	-0.295202	-0.382672	-0.921758
O5	O	-0.251564	-0.326113	-0.978320
O6	O	-0.219414	-0.367712	-1.129693
O7	O	-0.283851	-0.174810	-1.019697
O8	O	-0.134737	-0.284577	-0.936820
O9	O	-0.283732	-0.284551	-1.129542
O10	O	-0.134647	-0.367727	-1.020048
O11	O	-0.219624	-0.174821	-0.936621
O12	O	-0.219492	-0.284535	-0.827010
O13	O	-0.283499	-0.477394	-0.936881
O14	O	-0.283619	-0.367652	-0.827036
O15	O	-0.219282	-0.477426	-1.020082
O16	O	-0.368486	-0.284509	-1.019732
O17	O	-0.368386	-0.367638	-0.936681
C18	C	-0.387407	-0.326082	-0.978207
C19	C	-0.445521	-0.326091	-0.978220
C20	C	-0.251554	-0.326091	-0.802464
C21	C	-0.251562	-0.326098	-0.727232
C22	C	-0.251362	-0.502656	-0.978509
C23	C	-0.251276	-0.577888	-0.978589
C24	C	-0.805923	-0.282901	-1.021678
C25	C	-0.860527	-0.282910	-1.021704
O26	O	-0.888798	-0.246155	-1.058535
N27	N	-0.887803	-0.326158	-0.978439
C28	C	-0.860471	-0.369403	-0.935151
O29	O	-0.888685	-0.406190	-0.898354
C30	C	-0.805868	-0.369397	-0.935128
C31	C	-0.778595	-0.326142	-0.978391
C32	C	-0.778650	-0.239651	-1.064937
C33	C	-0.724050	-0.239641	-1.064910
C34	C	-0.696722	-0.282882	-1.021623
C35	C	-0.723995	-0.326133	-0.978364
C36	C	-0.778538	-0.412646	-0.891844
C37	C	-0.723931	-0.412636	-0.891825
C38	C	-0.696658	-0.369382	-0.935088
C39	C	-0.642067	-0.369364	-0.935049
N40	N	-0.614791	-0.326117	-0.978314
C41	C	-0.642119	-0.282876	-1.021601
C42	C	-0.975142	-0.369414	-0.935202
C43	C	-1.029744	-0.369417	-0.935220
C44	C	-1.029797	-0.282925	-1.021774
C45	C	-0.975193	-0.282919	-1.021752
C46	C	-0.947866	-0.326167	-0.978466
C47	C	-0.527454	-0.282858	-1.021540
C48	C	-0.472848	-0.282850	-1.021507
C49	C	-0.472801	-0.369344	-0.934955
C50	C	-0.527402	-0.369350	-0.934985
C51	C	-0.554727	-0.326105	-0.978283
O52	O	-0.613762	-0.406102	-0.898239
O53	O	-0.613898	-0.246102	-1.058398
C54	C	-0.115191	-0.326159	-0.978453
C55	C	-0.057077	-0.326178	-0.978510
C56	C	-0.251728	-0.150256	-0.978172
C57	C	-0.251666	-0.075024	-0.978223
C58	C	-0.218444	-0.039718	-0.934681
C59	C	-0.218387	0.030970	-0.934735
C60	C	-0.251554	0.066351	-0.978328
C61	C	-0.284778	0.031039	-1.021874
C62	C	-0.284832	-0.039648	-1.021823
C63	C	-0.284557	0.316112	-1.022082
C64	C	-0.284501	0.386804	-1.022128
C65	C	-0.218111	0.386730	-0.934993
C66	C	-0.218166	0.316043	-0.934942
C67	C	-0.251388	0.280738	-0.978491
C68	C	-0.251449	0.204089	-0.978433
C69	C	-0.251496	0.142998	-0.978383
C70	C	-0.251574	-0.326135	-1.154863
C71	C	-0.251579	-0.326145	-1.230095
C72	C	-0.285004	-0.369307	-0.691919
C73	C	-0.285004	-0.369316	-0.621231
C74	C	-0.251566	-0.326113	-0.585857
C75	C	-0.218122	-0.282902	-0.621175
C76	C	-0.218118	-0.282896	-0.691862
C77	C	-0.218133	-0.282924	-0.336101
C78	C	-0.218140	-0.282931	-0.265409
C79	C	-0.285019	-0.369344	-0.265471
C80	C	-0.285016	-0.369339	-0.336158
C81	C	-0.251569	-0.326130	-0.371469
C82	C	-0.251568	-0.326121	-0.448118
C83	C	-0.251570	-0.326118	-0.509210
H84	H	-0.450645	-0.247625	-1.056736
H85	H	-0.312234	-0.404486	-0.720716
H86	H	-0.311610	0.287375	-1.057540
C87	C	-0.862207	-0.451088	-0.853446
C88	C	-0.808507	-0.460200	-0.844294
H89	H	-0.880707	-0.480447	-0.824087
H90	H	-0.871104	-0.461032	-0.898925
H91	H	-0.871230	-0.405605	-0.843520
H92	H	-0.799483	-0.505682	-0.854224
H93	H	-0.799606	-0.450261	-0.798804
C94	C	-0.211570	0.110613	-0.843688
C95	C	-0.181870	0.069778	-0.886869
H96	H	-0.189024	0.134573	-0.814139
H97	H	-0.234513	0.083169	-0.817975
H98	H	-0.231310	0.141800	-0.869666
H99	H	-0.162133	0.038588	-0.860890
H100	H	-0.158918	0.097225	-0.912583
C101	C	-0.193349	0.294417	-0.820101
C102	C	-0.181706	0.277158	-0.887022
H103	H	-0.170836	0.270415	-0.790518
H104	H	-0.228536	0.282970	-0.810487
H105	H	-0.188562	0.341570	-0.813910
H106	H	-0.186497	0.230005	-0.893214
H107	H	-0.146510	0.288600	-0.896639
H108	H	-1.052057	-0.247718	-1.057023
H109	H	-0.312251	-0.404529	-0.236711
H110	H	-0.312246	-0.404517	-0.364956
C111	C	-0.210848	-0.191866	-0.771252
C112	C	-0.181362	-0.235399	-0.730684
H113	H	-0.188153	-0.162547	-0.795222
H114	H	-0.233621	-0.165924	-0.743625
H115	H	-0.230760	-0.217605	-0.802430
H116	H	-0.161452	-0.209659	-0.699503
H117	H	-0.158579	-0.261343	-0.758314
H118	H	-0.190903	-0.247736	-0.364844
H119	H	-0.190893	-0.247727	-0.592367
C120	C	-0.522006	-0.197355	-1.107085
C121	C	-0.557484	-0.235317	-1.069128
H122	H	-0.540546	-0.168001	-1.136457
H123	H	-0.500648	-0.226867	-1.132971
H124	H	-0.500768	-0.171442	-1.077565
H125	H	-0.578719	-0.261234	-1.098647
H126	H	-0.578851	-0.205801	-1.043239
C127	C	-0.729603	-0.154161	-1.150475
C128	C	-0.694076	-0.192103	-1.112476
H129	H	-0.711100	-0.124818	-1.179847
H130	H	-0.750956	-0.128244	-1.120987
H131	H	-0.750841	-0.183692	-1.176371
H132	H	-0.672841	-0.162573	-1.086576
H133	H	-0.672714	-0.218022	-1.141968
H134	H	-0.311781	0.059852	-1.057371
H135	H	-0.311509	0.415609	-1.057632
C136	C	-0.913913	-0.191868	-1.031113
C137	C	-0.945218	-0.235375	-1.069310
H138	H	-0.895413	-0.162514	-1.060476
H139	H	-0.889821	-0.217620	-1.005341
H140	H	-0.935278	-0.165957	-1.001624
H141	H	-0.923852	-0.261290	-1.098795
H142	H	-0.969313	-0.209621	-1.095093
C143	C	-0.129743	0.408234	-0.901279
C144	C	-0.181588	0.425537	-0.887125
H145	H	-0.107199	0.432188	-0.871723
H146	H	-0.121830	0.419709	-0.946692
H147	H	-0.125039	0.361071	-0.895011
H148	H	-0.186294	0.472700	-0.893398
H149	H	-0.189504	0.414067	-0.841701
C150	C	-1.024194	-0.454909	-0.849665
C151	C	-1.059719	-0.416960	-0.887661
H152	H	-1.042699	-0.484266	-0.820309
H153	H	-1.002963	-0.425389	-0.823760
H154	H	-1.002834	-0.480819	-0.879161
H155	H	-1.081077	-0.391047	-0.858164
H156	H	-1.080959	-0.446484	-0.913568
C157	C	-0.729368	-0.498141	-0.806280
C158	C	-0.693894	-0.460178	-0.844243
H159	H	-0.710824	-0.527487	-0.776903
H160	H	-0.750603	-0.524056	-0.835791
H161	H	-0.750729	-0.468623	-0.780392
H162	H	-0.672536	-0.489695	-0.870136
H163	H	-0.672650	-0.434261	-0.814729
C164	C	-0.839946	-0.230384	-1.156066
C165	C	-0.808662	-0.192139	-1.112571
H166	H	-0.858462	-0.201054	-1.185488
H167	H	-0.864025	-0.256106	-1.130310
H168	H	-0.818565	-0.259921	-1.181904
H169	H	-0.830043	-0.162605	-1.086728
H170	H	-0.784580	-0.166405	-1.138329
H171	H	-0.190907	-0.247750	-0.236610
C172	C	-0.350456	-0.032479	-1.107955
C173	C	-0.321353	-0.078459	-1.069683
H174	H	-0.373004	-0.056441	-1.137501
H175	H	-0.327512	-0.005040	-1.133671
H176	H	-0.370597	-0.004780	-1.078647
H177	H	-0.301209	-0.106155	-1.098991
H178	H	-0.344300	-0.105910	-1.043966
C179	C	-0.310500	-0.483865	-0.599605
C180	C	-0.321772	-0.416808	-0.582421
H181	H	-0.333204	-0.513183	-0.575649
H182	H	-0.275379	-0.493859	-0.588053
H183	H	-0.315281	-0.490031	-0.646769
H184	H	-0.316987	-0.410640	-0.535258
H185	H	-0.356902	-0.406810	-0.593968
C186	C	-0.521862	-0.454847	-0.849432
C187	C	-0.557383	-0.416896	-0.887431
H188	H	-0.540370	-0.484206	-0.820081
H189	H	-0.500635	-0.425328	-0.823520
H190	H	-0.500498	-0.480754	-0.878926
H191	H	-0.578745	-0.390985	-0.857938
H192	H	-0.578620	-0.446419	-0.913345
C193	C	-0.411269	-0.460364	-0.925569
C194	C	-0.442754	-0.416878	-0.887381
H195	H	-0.392720	-0.489714	-0.896201
H196	H	-0.387219	-0.434597	-0.951326
H197	H	-0.432517	-0.486281	-0.955072
H198	H	-0.421504	-0.390957	-0.857881
H199	H	-0.466806	-0.442647	-0.861613
C200	C	-0.152810	-0.032683	-0.848559
C201	C	-0.181984	-0.078605	-0.886763
H202	H	-0.130297	-0.056691	-0.818980
H203	H	-0.175711	-0.004984	-0.822882
H204	H	-0.132628	-0.005239	-0.877909
H205	H	-0.202169	-0.106046	-0.857413
H206	H	-0.159080	-0.106315	-0.912442
H207	H	-0.952895	-0.404629	-0.899948
