data_functionalizedCrystal
_audit_creation_method	'MofGen! by Chris Wilmer'
_symmetry_space_group_name_H-M	'P1'
_symmetry_Int_Tables_number	1
_symmetry_cell_setting	triclinic
loop_
_symmetry_equiv_pos_as_xyz
  x,y,z
_cell_length_a	14.395555
_cell_length_b	14.395555
_cell_length_c	14.395555
_cell_angle_alpha	59.997670
_cell_angle_beta	60.001260
_cell_angle_gamma	90.002465
loop_
_atom_site_label
_atom_site_type_symbol
_atom_site_fract_x
_atom_site_fract_y
_atom_site_fract_z
Zr1	Zr	0.894940	-0.121876	1.016757
O2	O	0.746611	-0.270217	1.210566
O3	O	0.940407	-0.076399	0.822957
O4	O	0.940407	-0.270204	1.016762
O5	O	0.746617	0.076461	1.016755
O6	O	1.093281	-0.270196	1.016755
O7	O	0.746612	-0.076413	1.016762
O8	O	1.093282	0.076485	0.670074
O9	O	0.746615	-0.270220	1.363436
O10	O	1.073892	-0.057001	0.902661
O11	O	0.959807	0.057082	0.902661
O12	O	0.959806	-0.171098	1.130841
O13	O	0.845722	-0.057016	1.130841
Zr14	Zr	1.138766	0.121953	1.016735
Zr15	Zr	1.138757	-0.121863	1.016746
Zr16	Zr	0.894949	0.121941	1.016746
Zr17	Zr	0.894948	-0.121880	1.260566
Zr18	Zr	1.138758	0.121957	0.772926
O19	O	1.093299	0.076477	1.210535
O20	O	1.093286	-0.270199	1.210551
O21	O	0.746623	0.076458	1.210551
O22	O	1.287095	0.270295	0.822926
O23	O	1.287083	-0.076381	0.822941
O24	O	0.940420	0.270276	0.822941
O25	O	1.287089	-0.076384	1.016737
O26	O	1.093300	0.270281	1.016730
O27	O	0.940425	0.270273	1.016737
O28	O	1.287094	0.076490	1.016730
O29	O	0.940417	-0.270209	1.363427
O30	O	1.093289	0.270287	0.670065
O31	O	1.287091	0.270297	0.670056
O32	O	1.287084	0.076495	0.670065
O33	O	0.746622	-0.076418	1.363427
O34	O	0.940424	-0.076408	1.363418
O35	O	1.073900	0.171176	0.902651
O36	O	1.187984	0.057094	0.902651
O37	O	1.073899	-0.057004	1.130831
O38	O	0.959814	0.057078	1.130831
C39	C	0.711876	0.000023	1.016760
C40	C	0.608369	0.000017	1.016764
C41	C	1.016844	0.000043	0.711778
C42	C	1.016841	0.000045	0.608274
C43	C	1.016864	0.305016	1.016732
C44	C	1.016867	0.408523	1.016728
C45	C	0.485576	-0.062184	1.141178
C46	C	0.454737	-0.107260	1.078987
C47	C	0.454785	0.045084	1.078951
C48	C	0.578894	-0.045121	0.954572
C49	C	0.578938	0.107282	0.954554
C50	C	0.548173	0.062233	0.892272
C51	C	1.321830	0.000055	1.016732
C52	C	1.425337	0.000060	1.016728
C53	C	1.016842	-0.304939	1.016760
C54	C	1.016839	-0.408445	1.016764
C55	C	1.079067	0.531323	0.892314
C56	C	1.124151	0.562152	0.954505
C57	C	0.971807	0.562116	0.954541
C58	C	1.062014	0.437988	1.078920
C59	C	0.909610	0.437956	1.078938
C60	C	0.954668	0.468712	1.141220
C61	C	0.954641	0.062251	0.547682
C62	C	0.909554	-0.045031	0.561945
C63	C	1.061899	0.107294	0.409615
C64	C	0.971692	-0.107300	0.623964
C65	C	1.124097	0.045102	0.471571
C66	C	1.079037	-0.062244	0.485881
C67	C	1.016862	0.000034	1.321714
C68	C	1.016865	0.000033	1.425218
C69	C	1.321821	0.000060	0.711764
C70	C	1.425325	0.000067	0.608256
C71	C	1.016855	0.305021	0.711764
C72	C	1.016855	0.408529	0.608256
C73	C	1.321832	0.305037	0.711750
C74	C	1.425339	0.408550	0.608238
C75	C	0.711874	-0.304959	1.321742
C76	C	0.608367	-0.408473	1.425254
C77	C	0.711885	0.000018	1.321728
C78	C	0.608381	0.000011	1.425236
C79	C	1.016852	-0.304943	1.321728
C80	C	1.016851	-0.408451	1.425236
C81	C	1.548120	0.062246	0.547691
C82	C	1.578978	0.107304	0.409580
C83	C	1.578884	-0.045042	0.561992
C84	C	1.454820	0.045188	0.471444
C85	C	1.454728	-0.107219	0.623930
C86	C	1.485514	-0.062187	0.485828
C87	C	0.954645	0.406912	0.547674
C88	C	1.061924	0.499942	0.409564
C89	C	0.909614	0.499939	0.561903
C90	C	1.124197	0.500195	0.471446
C91	C	0.971809	0.500178	0.623859
C92	C	1.079153	0.593225	0.485759
C93	C	1.423727	0.531346	0.547623
C94	C	1.516715	0.562148	0.409522
C95	C	1.516788	0.562185	0.561793
C96	C	1.516964	0.437988	0.471438
C97	C	1.517023	0.438029	0.623783
C98	C	1.610028	0.468757	0.485691
H99	H	0.460134	-0.114866	1.246382
Br100	Br	0.908305	0.651302	0.866870
H101	H	0.902118	0.327147	0.574764
H102	H	1.343968	0.556782	0.574720
Br103	Br	1.590524	0.150058	0.592815
H104	H	1.632358	-0.083156	0.599232
H105	H	1.131636	-0.114928	0.458938
Br106	Br	0.758476	0.348757	1.166511
H107	H	0.933489	-0.198048	0.715536
H108	H	0.901969	0.114778	0.574908
Br109	Br	0.758391	-0.108573	0.623934
H110	H	0.401282	0.083181	1.131554
Br111	Br	1.442751	-0.149888	0.440806
H112	H	1.517783	0.615816	0.598820
H113	H	0.401218	-0.197955	1.131572
H114	H	0.632250	-0.083322	0.902031
Br115	Br	1.125399	0.258472	0.256917
Br116	Br	1.518222	0.651290	0.256832
H117	H	0.573829	0.114841	0.786983
H118	H	1.214940	0.499376	0.434067
Br119	Br	1.668209	0.258454	0.256830
Br120	Br	1.166853	0.573730	0.716972
Br121	Br	1.125451	0.501500	0.256850
Br122	Br	1.515551	0.349003	0.409200
H123	H	0.632454	0.197958	0.902014
Br124	Br	1.275313	0.651347	0.866866
H125	H	1.131843	0.672860	0.458723
Br126	Br	1.125689	0.349053	1.166493
H127	H	0.818917	0.500849	0.599080
Br128	Br	0.867000	0.425957	1.316702
H129	H	1.214772	0.083250	0.434399
H130	H	1.401482	0.083398	0.434027
Br131	Br	1.365488	-0.258337	0.776727
H132	H	0.933666	0.499189	0.715515
H133	H	1.689658	0.443104	0.458648
H134	H	1.516077	0.384547	0.715416
