data_functionalizedCrystal
_audit_creation_method	'MofGen! by Chris Wilmer'
_symmetry_space_group_name_H-M	'P1'
_symmetry_Int_Tables_number	1
_symmetry_cell_setting	triclinic
loop_
_symmetry_equiv_pos_as_xyz
  x,y,z
_cell_length_a	11.792254
_cell_length_b	16.109301
_cell_length_c	14.586319
_cell_angle_alpha	90.005214
_cell_angle_beta	89.996545
_cell_angle_gamma	96.169961
loop_
_atom_site_label
_atom_site_type_symbol
_atom_site_fract_x
_atom_site_fract_y
_atom_site_fract_z
O1	O	1.505899	-0.114003	-0.076243
O2	O	1.839232	0.219330	0.257091
O3	O	2.172565	0.552663	0.590424
O4	O	1.175457	-0.125737	-0.076245
O5	O	1.508790	0.207597	0.257088
O6	O	1.842123	0.540930	0.590422
O7	O	1.349755	0.001118	-0.076234
O8	O	1.683089	0.334451	0.257099
O9	O	2.016422	0.667785	0.590432
O10	O	1.331600	-0.240858	-0.076253
O11	O	1.664934	0.092475	0.257080
O12	O	1.998267	0.425809	0.590413
O13	O	1.349743	0.001120	0.076246
O14	O	1.683077	0.334453	0.409580
O15	O	2.016410	0.667787	0.742913
O16	O	1.175445	-0.125735	0.076236
O17	O	1.508778	0.207599	0.409569
O18	O	1.842111	0.540932	0.742902
O19	O	1.505887	-0.114001	0.076238
O20	O	1.839220	0.219332	0.409571
O21	O	2.172553	0.552665	0.742905
Cu22	Cu	1.340665	-0.119868	0.090160
Cu23	Cu	1.673998	0.213466	0.423493
Cu24	Cu	2.007331	0.546799	0.756826
Cu25	Cu	1.340679	-0.119870	-0.090167
Cu26	Cu	1.674012	0.213463	0.243167
Cu27	Cu	2.007346	0.546797	0.576500
O28	O	1.331588	-0.240856	0.076228
O29	O	1.664921	0.092477	0.409561
O30	O	1.998255	0.425811	0.742894
C31	C	1.133166	-0.124996	-0.000005
C32	C	1.466500	0.208337	0.333328
C33	C	1.799833	0.541670	0.666662
C34	C	1.007173	-0.122784	-0.000005
C35	C	1.340506	0.210549	0.333328
C36	C	1.673840	0.543883	0.666661
C37	C	0.904852	-0.120987	-0.000009
C38	C	1.238185	0.212347	0.333324
C39	C	1.571519	0.545680	0.666657
C40	C	0.776485	-0.118739	-0.000010
C41	C	1.109819	0.214594	0.333324
C42	C	1.443152	0.547928	0.666657
C43	C	1.349014	0.032097	0.000006
C44	C	1.682347	0.365431	0.333340
C45	C	2.015681	0.698764	0.666673
C46	C	1.346809	0.124403	0.000008
C47	C	1.680142	0.457736	0.333341
C48	C	2.013476	0.791070	0.666674
C49	C	1.548177	-0.114741	-0.000004
C50	C	1.881510	0.218592	0.333329
C51	C	2.214844	0.551925	0.666663
C52	C	1.674171	-0.116954	-0.000010
C53	C	2.007504	0.216380	0.333324
C54	C	2.340837	0.549713	0.666657
C55	C	1.332330	-0.271835	-0.000015
C56	C	1.665663	0.061498	0.333318
C57	C	1.998996	0.394831	0.666651
C58	C	1.334534	-0.364141	-0.000023
C59	C	1.667868	-0.030808	0.333311
C60	C	2.001201	0.302526	0.666644
N61	N	1.340663	-0.119866	0.216991
N62	N	1.673996	0.213468	0.550325
N63	N	2.007329	0.546801	0.883658
C64	C	1.445108	0.346210	-0.000006
C65	C	1.778441	0.679543	0.333327
C66	C	2.111774	1.012876	0.666661
C67	C	1.443027	0.432940	-0.000014
C68	C	1.776361	0.766273	0.333320
C69	C	2.109694	1.099607	0.666653
C70	C	1.236228	0.414046	-0.000012
C71	C	1.569561	0.747379	0.333322
C72	C	1.902895	1.080712	0.666655
C73	C	1.238310	0.327317	-0.000011
C74	C	1.571643	0.660650	0.333323
C75	C	1.904976	0.993984	0.666656
C76	C	1.342753	0.293402	-0.000003
C77	C	1.676086	0.626735	0.333330
C78	C	2.009420	0.960068	0.666663
C79	C	1.338591	0.466860	-0.000012
C80	C	1.671924	0.800194	0.333322
C81	C	2.005257	1.133527	0.666655
C82	C	1.336334	0.560897	-0.000020
C83	C	1.669667	0.894231	0.333313
C84	C	2.003001	1.227564	0.666647
C85	C	1.345010	0.199359	0.000003
C86	C	1.678343	0.532692	0.333337
C87	C	2.011677	0.866026	0.666670
N88	N	1.340690	-0.119866	-0.216998
N89	N	1.674023	0.213468	0.116335
N90	N	2.007356	0.546801	0.449668
C91	C	1.417868	-0.063714	0.452002
C92	C	1.751201	0.269620	0.785336
C93	C	2.084534	0.602953	1.118669
C94	C	1.417871	-0.063712	0.547984
C95	C	1.751204	0.269622	0.881317
C96	C	2.084538	0.602955	1.214650
C97	C	1.263477	-0.176020	0.547984
C98	C	1.596810	0.157313	0.881317
C99	C	1.930143	0.490646	1.214650
C100	C	1.263469	-0.176018	0.452004
C101	C	1.596802	0.157316	0.785338
C102	C	1.930135	0.490649	1.118671
C103	C	1.340671	-0.119865	0.404016
C104	C	1.674004	0.213468	0.737349
C105	C	2.007337	0.546801	1.070683
C106	C	1.340682	-0.119866	0.595977
C107	C	1.674015	0.213467	0.929310
C108	C	2.007348	0.546801	1.262644
C109	C	1.340685	-0.119864	0.700044
C110	C	1.674018	0.213469	1.033377
C111	C	2.007351	0.546802	1.366711
C112	C	1.340667	-0.119866	0.299942
C113	C	1.674000	0.213468	0.633276
C114	C	2.007333	0.546801	0.966609
H115	H	1.526375	0.475933	-0.000018
H116	H	1.859708	0.809267	0.333315
H117	H	2.193042	1.142600	0.666649
H118	H	1.530152	0.318599	-0.000002
H119	H	1.863485	0.651932	0.333331
H120	H	2.196819	0.985265	0.666665
H121	H	1.480729	-0.017990	0.412933
H122	H	1.814062	0.315344	0.746266
H123	H	2.147395	0.648677	1.079599
O124	O	1.501147	-0.003159	0.599744
O125	O	1.834480	0.330174	0.933078
O126	O	2.167813	0.663508	1.266411
H127	H	1.554834	0.035878	0.550247
H128	H	1.888167	0.369212	0.883580
H129	H	2.221500	0.702545	1.216914
H130	H	1.154955	0.284318	-0.000011
H131	H	1.488288	0.617652	0.333322
H132	H	1.821621	0.950985	0.666656
H133	H	1.200622	-0.221740	0.587065
H134	H	1.533955	0.111594	0.920399
H135	H	1.867289	0.444927	1.253732
H136	H	1.200600	-0.221744	0.412931
H137	H	1.533933	0.111590	0.746265
H138	H	1.867267	0.444923	1.079598
H139	H	1.151194	0.441671	-0.000016
H140	H	1.484527	0.775004	0.333318
H141	H	1.817860	1.108337	0.666651
