data_functionalizedCrystal
_audit_creation_method	'MofGen! by Chris Wilmer'
_symmetry_space_group_name_H-M	'P1'
_symmetry_Int_Tables_number	1
_symmetry_cell_setting	triclinic
loop_
_symmetry_equiv_pos_as_xyz
  x,y,z
_cell_length_a	10.654545
_cell_length_b	14.519731
_cell_length_c	9.130313
_cell_angle_alpha	89.994496
_cell_angle_beta	89.996934
_cell_angle_gamma	84.085966
loop_
_atom_site_label
_atom_site_type_symbol
_atom_site_fract_x
_atom_site_fract_y
_atom_site_fract_z
O1	O	1.666611	0.129511	-0.121788
O2	O	2.166611	0.629511	0.378212
O3	O	1.301014	0.141856	-0.121795
O4	O	1.801014	0.641856	0.378205
O5	O	1.493492	0.001497	-0.121778
O6	O	1.993492	0.501497	0.378222
O7	O	1.474133	0.269871	-0.121805
O8	O	1.974133	0.769871	0.378195
O9	O	1.493479	0.001493	0.121821
O10	O	1.993479	0.501493	0.621821
O11	O	1.301001	0.141852	0.121804
O12	O	1.801001	0.641852	0.621804
O13	O	1.666598	0.129507	0.121810
O14	O	2.166598	0.629507	0.621810
Cu15	Cu	1.483798	0.135679	0.144050
Cu16	Cu	1.983798	0.635679	0.644050
Cu17	Cu	1.483814	0.135684	-0.144034
Cu18	Cu	1.983814	0.635684	0.355966
O19	O	1.474120	0.269867	0.121794
O20	O	1.974120	0.769867	0.621794
C21	C	1.254218	0.140949	0.000004
C22	C	1.754218	0.640949	0.500004
C23	C	1.114801	0.138239	0.000002
C24	C	1.614801	0.638239	0.500002
C25	C	1.049301	0.136962	0.132788
C26	C	1.549301	0.636962	0.632788
C27	C	0.918306	0.134401	0.132789
C28	C	1.418306	0.634401	0.632789
C29	C	0.918321	0.134399	-0.132796
C30	C	1.418321	0.634399	0.367204
C31	C	1.049315	0.136953	-0.132795
C32	C	1.549315	0.636953	0.367205
C33	C	1.492578	-0.032869	0.000022
C34	C	1.992578	0.467131	0.500022
C35	C	1.489860	-0.135264	0.000022
C36	C	1.989860	0.364736	0.500022
C37	C	1.487652	-0.218419	0.000019
C38	C	1.987652	0.281581	0.500019
C39	C	1.484892	-0.322742	0.000008
C40	C	1.984892	0.177258	0.500008
C41	C	1.482702	-0.405893	-0.000002
C42	C	1.982702	0.094107	0.499998
C43	C	1.479942	-0.510222	-0.000010
C44	C	1.979942	-0.010222	0.499990
C45	C	1.713394	0.130415	0.000008
C46	C	2.213394	0.630415	0.500008
C47	C	1.852812	0.133124	0.000001
C48	C	2.352812	0.633124	0.500001
C49	C	1.475034	0.304233	-0.000009
C50	C	1.975034	0.804233	0.499991
C51	C	1.477752	0.406627	-0.000020
C52	C	1.977752	0.906627	0.499980
N53	N	1.483796	0.135675	0.346672
N54	N	1.983796	0.635675	0.846672
N55	N	1.483826	0.135681	-0.346657
N56	N	1.983826	0.635681	0.153343
C57	C	1.569054	0.073550	0.423332
C58	C	2.069054	0.573550	0.923332
C59	C	1.569066	0.073551	0.576668
C60	C	2.069066	0.573551	1.076668
C61	C	1.398559	0.197809	0.576673
C62	C	1.898559	0.697809	1.076673
C63	C	1.398542	0.197803	0.423339
C64	C	1.898542	0.697803	0.923339
H65	H	0.864982	0.133361	0.240917
H66	H	1.364982	0.633361	0.740917
H67	H	1.638472	0.022961	0.360913
H68	H	2.138472	0.522961	0.860913
F69	F	0.848618	0.133012	-0.274119
F70	F	1.348618	0.633012	0.225881
H71	H	1.102616	0.138009	0.240920
H72	H	1.602616	0.638009	0.740920
F73	F	1.119029	0.138307	-0.274132
F74	F	1.619029	0.638307	0.225868
H75	H	1.638489	0.022962	0.639080
H76	H	2.138489	0.522962	1.139080
H77	H	1.329148	0.248393	0.639111
H78	H	1.829148	0.748393	1.139111
H79	H	1.329109	0.248393	0.360919
H80	H	1.829109	0.748393	0.860919
