data_functionalizedCrystal
_audit_creation_method	'MofGen! by Chris Wilmer'
_symmetry_space_group_name_H-M	'P1'
_symmetry_Int_Tables_number	1
_symmetry_cell_setting	triclinic
loop_
_symmetry_equiv_pos_as_xyz
  x,y,z
_cell_length_a	6.817900
_cell_length_b	16.417825
_cell_length_c	11.102193
_cell_angle_alpha	93.888633
_cell_angle_beta	108.604059
_cell_angle_gamma	103.385495
loop_
_atom_site_label
_atom_site_type_symbol
_atom_site_fract_x
_atom_site_fract_y
_atom_site_fract_z
V1	V	-4.084990	-0.115891	-0.396703
O2	O	-4.071821	0.005563	-0.388693
O3	O	-4.035699	-0.229787	-0.394430
O4	O	-4.062172	-0.114111	-0.569518
O5	O	-4.045165	-0.110914	-0.212394
V6	V	-4.565419	-0.101364	-0.374604
O7	O	-4.353036	-0.147759	-0.445177
O8	O	-4.747570	-0.069496	-0.326130
O9	O	-4.391503	0.012532	-0.376877
O10	O	-4.695985	-0.222818	-0.382614
O11	O	-4.722640	-0.106342	-0.558914
O12	O	-4.365030	-0.103144	-0.201790
C13	C	-3.879656	-0.257552	-0.388286
C14	C	-3.920812	-0.350664	-0.387580
C15	C	-3.958125	-0.552926	-0.269549
C16	C	-3.996820	-0.640415	-0.268896
C17	C	-4.111665	-0.664329	-0.501772
C18	C	-4.072985	-0.576842	-0.502424
C19	C	-3.996204	-0.521142	-0.386309
C20	C	-4.073579	-0.696119	-0.385003
C21	C	-4.115534	-0.790979	-0.384296
C22	C	-3.954250	-0.426276	-0.387016
C23	C	-3.913423	-0.109996	-0.611625
C24	C	-3.976044	-0.109294	-0.752905
C25	C	-4.061261	-0.262705	-0.789822
C26	C	-4.133281	-0.339077	-0.874651
C27	C	-4.192119	-0.338413	-1.007395
C28	C	-4.178940	-0.261368	-1.055310
C29	C	-4.106920	-0.184996	-0.970480
C30	C	-4.048079	-0.185668	-0.837736
C31	C	-4.021718	-0.031588	-0.933565
C32	C	-3.962865	-0.032249	-0.800820
C33	C	-4.008539	0.045457	-0.981480
C34	C	-3.936504	0.121831	-0.896649
C35	C	-3.877662	0.121164	-0.763899
C36	C	-3.890845	0.044123	-0.715991
C37	C	-4.210888	0.040293	-0.383018
C38	C	-4.148971	0.133403	-0.383732
C39	C	-4.177121	-0.107262	-0.159675
C40	C	-4.093738	-0.107960	-0.018394
H41	H	-4.144010	-0.401805	-0.835624
H42	H	-3.895606	-0.507577	-0.175001
C43	C	-4.114868	-0.541872	-0.630868
C44	C	-4.278435	-0.489077	-0.669396
C45	C	-4.320322	-0.454106	-0.797832
C46	C	-4.198641	-0.471930	-0.887740
C47	C	-4.035063	-0.524727	-0.849214
C48	C	-3.993176	-0.559698	-0.720778
H49	H	-4.368520	-0.475880	-0.602839
H50	H	-4.441414	-0.415022	-0.826351
H51	H	-4.229648	-0.446042	-0.982817
H52	H	-3.944977	-0.537924	-0.915771
H53	H	-3.872084	-0.598783	-0.692259
H54	H	-4.226879	-0.260835	-1.163399
H55	H	-4.013325	-0.263252	-0.681736
H56	H	-3.842924	0.043573	-0.607906
H57	H	-4.056468	0.045992	-1.089568
H58	H	-3.965812	-0.666289	-0.173819
H59	H	-4.174180	-0.709690	-0.596309
C60	C	-4.271338	-0.422418	-1.100721
C61	C	-4.472785	-0.489786	-1.103896
C62	C	-4.552002	-0.573789	-1.197225
C63	C	-4.429771	-0.590424	-1.287378
C64	C	-4.228312	-0.523054	-1.284206
C65	C	-4.149095	-0.439051	-1.190877
H66	H	-4.563278	-0.477473	-1.037156
H67	H	-4.701136	-0.623660	-1.199572
H68	H	-4.488412	-0.652608	-1.356466
H69	H	-4.137818	-0.535367	-1.350946
H70	H	-3.999961	-0.389180	-1.188530
C71	C	-3.922014	0.206571	-0.949358
C72	C	-3.704394	0.273750	-0.909717
C73	C	-3.689903	0.358492	-0.962431
C74	C	-3.893030	0.376054	-1.054787
C75	C	-4.110665	0.308873	-1.094434
C76	C	-4.125157	0.224132	-1.041719
H77	H	-3.554013	0.260751	-0.841344
H78	H	-3.528794	0.408223	-0.933082
H79	H	-3.882302	0.438785	-1.093810
H80	H	-4.261046	0.321872	-1.162806
H81	H	-4.286266	0.174400	-1.071069
C82	C	-3.798428	0.205177	-0.670589
C83	C	-3.783930	0.289915	-0.723300
C84	C	-3.704693	0.373930	-0.629996
C85	C	-3.639954	0.373207	-0.483981
C86	C	-3.654450	0.288465	-0.431263
C87	C	-3.733688	0.204451	-0.524567
H88	H	-3.831855	0.290454	-0.831396
H89	H	-3.693962	0.436661	-0.669023
H90	H	-3.581298	0.435399	-0.414912
H91	H	-3.606525	0.287927	-0.323167
H92	H	-3.744418	0.141719	-0.485540
