data_functionalizedCrystal
_audit_creation_method	'MofGen! by Chris Wilmer'
_symmetry_space_group_name_H-M	'P1'
_symmetry_Int_Tables_number	1
_symmetry_cell_setting	triclinic
loop_
_symmetry_equiv_pos_as_xyz
  x,y,z
_cell_length_a	27.440280
_cell_length_b	17.917559
_cell_length_c	17.917559
_cell_angle_alpha	60.143536
_cell_angle_beta	90.007230
_cell_angle_gamma	63.038640
loop_
_atom_site_label
_atom_site_type_symbol
_atom_site_fract_x
_atom_site_fract_y
_atom_site_fract_z
Zr1	Zr	0.497381	0.806669	-0.128856
O2	O	0.427466	0.951692	-0.249385
O3	O	0.515462	0.654459	-0.087221
O4	O	0.524305	0.796288	-0.242607
O5	O	0.415460	0.820559	0.023243
O6	O	0.604507	0.796274	-0.242592
O7	O	0.418623	0.809863	-0.093998
O8	O	0.588688	0.542569	0.035367
O9	O	0.431279	1.074264	-0.254716
O10	O	0.587077	0.719718	-0.075114
O11	O	0.524863	0.727710	0.012370
O12	O	0.535275	0.894694	-0.170578
O13	O	0.473061	0.902686	-0.083094
Zr14	Zr	0.620250	0.823707	0.058156
Zr15	Zr	0.625294	0.806648	-0.128830
Zr16	Zr	0.492338	0.823728	0.058131
Zr17	Zr	0.503463	1.002158	-0.137357
Zr18	Zr	0.614169	0.628218	0.066657
O19	O	0.602170	0.975917	0.016521
O20	O	0.609341	0.951662	-0.249349
O21	O	0.420294	0.975947	0.016485
O22	O	0.690166	0.678685	0.178685
O23	O	0.697338	0.654430	-0.087185
O24	O	0.508291	0.678714	0.178649
O25	O	0.702172	0.809817	-0.093942
O26	O	0.593327	0.834089	0.171908
O27	O	0.513125	0.834102	0.171892
O28	O	0.699009	0.820513	0.023299
O29	O	0.532953	1.074248	-0.254696
O30	O	0.584679	0.556129	0.183996
O31	O	0.686353	0.556112	0.184016
O32	O	0.690362	0.542553	0.035387
O33	O	0.427270	1.087823	-0.106087
O34	O	0.528943	1.087807	-0.106066
O35	O	0.582357	0.735682	0.099878
O36	O	0.644571	0.727690	0.012394
O37	O	0.592769	0.902667	-0.083070
O38	O	0.530555	0.910659	0.004414
C39	C	0.551209	0.570661	-0.024716
C40	C	0.548627	0.487671	-0.021107
C41	C	0.573680	0.294710	-0.056242
C42	C	0.543954	0.335671	-0.014460
C43	C	0.546555	0.420252	-0.018159
C44	C	0.571079	0.210122	-0.052543
C45	C	0.398816	0.815214	-0.035381
C46	C	0.344514	0.815223	-0.035392
C47	C	0.082778	0.906542	-0.085181
C48	C	0.133797	0.906547	-0.085187
O49	O	0.137187	0.984227	-0.127543
N50	N	0.186354	0.815211	-0.035362
C51	C	0.187891	0.723865	0.014479
O52	O	0.237280	0.646178	0.056858
C53	C	0.136873	0.723862	0.014489
C54	C	0.084317	0.815202	-0.035346
C55	C	0.030224	0.997875	-0.135012
C56	C	-0.020791	0.997869	-0.135007
C57	C	-0.019252	0.906530	-0.085172
C58	C	0.033302	0.815196	-0.035342
C59	C	0.138411	0.632517	0.064334
C60	C	0.087387	0.632521	0.064341
C61	C	0.034830	0.723862	0.014506
C62	C	-0.016175	0.723851	0.014498
N63	N	-0.068732	0.815187	-0.035327
C64	C	-0.070271	0.906526	-0.085162
C65	C	0.295031	0.723881	0.014454
C66	C	0.346049	0.723883	0.014439
C67	C	0.291951	0.906565	-0.085225
C68	C	0.240932	0.906561	-0.085215
C69	C	0.242474	0.815216	-0.035370
C70	C	-0.177404	0.906507	-0.085149
C71	C	-0.228421	0.906493	-0.085143
C72	C	-0.174319	0.723811	0.014525
C73	C	-0.123306	0.723825	0.014516
C74	C	-0.124852	0.815181	-0.035323
O75	O	-0.019609	0.646211	0.056836
O76	O	-0.119662	0.984201	-0.127525
C77	C	0.718815	0.815162	-0.035318
C78	C	0.773118	0.815153	-0.035308
C79	C	0.565125	0.793851	-0.269241
C80	C	0.567266	0.786609	-0.348622
C81	C	0.566423	1.059715	-0.045984
C82	C	0.569005	1.142705	-0.049593
C83	C	0.546443	0.856984	-0.576717
C84	C	0.571187	0.773397	-0.493980
C85	C	0.569005	0.780750	-0.413096
C86	C	0.548625	0.849632	-0.657610
C87	C	0.552507	0.836526	0.198541
C88	C	0.550366	0.843768	0.277922
C89	C	0.711208	0.570635	-0.024684
C90	C	0.762929	0.487636	-0.021064
C91	C	0.544900	0.591999	0.209175
C92	C	0.540177	0.516251	0.292165
C93	C	0.704899	0.591973	0.209207
C94	C	0.754479	0.516216	0.292207
C95	C	0.412733	1.038403	-0.279907
C96	C	0.363153	1.114161	-0.362907
C97	C	0.406424	1.059741	-0.046016
C98	C	0.354703	1.142740	-0.049635
C99	C	0.572732	1.038377	-0.279875
C100	C	0.577455	1.114126	-0.362865
C101	C	0.757206	0.444497	-0.065050
C102	C	0.805799	0.366520	-0.061667
C103	C	0.860114	0.331678	-0.014292
C104	C	0.865835	0.374826	0.029695
C105	C	0.817243	0.452806	0.026306
C106	C	0.567970	0.484841	0.376824
C107	C	0.563530	0.413679	0.454808
C108	C	0.531300	0.373922	0.448132
C109	C	0.503504	0.405339	0.363464
C110	C	0.507941	0.476505	0.285482
C111	C	0.810242	0.476468	0.285520
C112	C	0.856832	0.405296	0.363500
C113	C	0.847658	0.373868	0.448167
C114	C	0.791889	0.413624	0.454853
C115	C	0.745300	0.484800	0.376873
C116	C	0.307390	1.153918	-0.356220
C117	C	0.260800	1.225114	-0.434201
C118	C	0.269975	1.256546	-0.518868
C119	C	0.325744	1.216785	-0.525554
C120	C	0.372332	1.145596	-0.447574
C121	C	0.360426	1.185887	-0.005658
C122	C	0.311834	1.263884	-0.009062
C123	C	0.257520	1.298727	-0.056440
C124	C	0.251798	1.255577	-0.100424
C125	C	0.300390	1.177586	-0.097024
C126	C	0.609689	1.153860	-0.356160
C127	C	0.614138	1.225024	-0.434130
C128	C	0.586349	1.256458	-0.518804
C129	C	0.554114	1.216716	-0.525507
C130	C	0.549668	1.145548	-0.447538
H131	H	-0.178672	0.980898	-0.125723
H132	H	0.217958	1.362233	-0.059202
H133	H	0.404647	1.157524	0.032928
C134	C	0.645041	0.597593	0.297916
C135	C	0.684004	0.528481	0.384233
H136	H	0.607201	0.624562	0.302466
H137	H	0.649405	0.564347	0.268255
H138	H	0.652089	0.650753	0.264492
H139	H	0.676959	0.475317	0.417655
H140	H	0.679638	0.561727	0.413907
C141	C	0.063039	0.520965	0.061271
C142	C	0.089082	0.532110	0.119131
H143	H	0.064084	0.458978	0.095097
H144	H	0.082930	0.520990	0.017887
H145	H	0.024437	0.575362	0.031600
H146	H	0.127686	0.477716	0.148796
H147	H	0.069192	0.532076	0.162531
H148	H	-0.271214	0.980876	-0.125728
H149	H	0.910064	0.346447	0.068267
C150	C	0.598145	0.682100	-0.564288
C151	C	0.601992	0.669333	-0.480355
H152	H	0.617157	0.617857	-0.555878
H153	H	0.615593	0.718564	-0.597011
H154	H	0.559074	0.718524	-0.596892
H155	H	0.641063	0.632916	-0.447754
H156	H	0.584546	0.632853	-0.447619
C157	C	0.525877	0.260503	0.128102
C158	C	0.506946	0.297290	0.037562
H159	H	0.503028	0.236809	0.160210
H160	H	0.522798	0.313123	0.132406
H161	H	0.564643	0.206615	0.153095
H162	H	0.468181	0.351183	0.012567
H163	H	0.510020	0.244664	0.033253
H164	H	0.821910	0.487921	0.062130
C165	C	0.829219	0.332133	-0.174547
C166	C	0.799501	0.319093	-0.110011
H167	H	0.825326	0.302859	-0.204393
H168	H	0.868517	0.300225	-0.145856
H169	H	0.813960	0.402163	-0.217168
H170	H	0.814763	0.249063	-0.067386
H171	H	0.760195	0.350999	-0.138703
H172	H	0.817723	0.502045	0.216586
H173	H	0.601080	0.323162	-0.094789
C174	C	0.517803	0.487982	0.147585
C175	C	0.477395	0.511016	0.192425
H176	H	0.498943	0.509291	0.090135
H177	H	0.544238	0.417194	0.181801
H178	H	0.537626	0.521856	0.140398
H179	H	0.457575	0.477136	0.199618
H180	H	0.450950	0.581818	0.158201
H181	H	0.417736	1.113225	-0.453029
H182	H	0.299909	1.128330	-0.287286
C183	C	0.376067	1.264222	0.081612
C184	C	0.318132	1.311294	0.039299
H185	H	0.379954	1.293486	0.111473
H186	H	0.396232	1.273057	0.037844
H187	H	0.391303	1.194198	0.124229
H188	H	0.302897	1.381317	-0.003322
H189	H	0.297960	1.302468	0.083072
H190	H	0.523622	0.934062	-0.586804
C191	C	0.949754	0.267371	0.510118
C192	C	0.898874	0.295621	0.533879
H193	H	0.981373	0.219058	0.563032
H194	H	0.952547	0.325134	0.473737
H195	H	0.949853	0.238746	0.477481
H196	H	0.898773	0.324254	0.566510
H197	H	0.896081	0.237847	0.570274
H198	H	0.215395	1.257476	-0.428740
C199	C	0.626835	0.485949	0.474961
C200	C	0.603389	0.528548	0.384178
H201	H	0.648695	0.512941	0.479504
H202	H	0.650783	0.414817	0.505362
H203	H	0.596923	0.501216	0.501581
H204	H	0.633301	0.513274	0.357560
H205	H	0.579439	0.599696	0.353765
H206	H	0.712986	0.472862	-0.103639
C207	C	0.909743	0.159582	0.029379
C208	C	0.913523	0.245951	-0.010562
H209	H	0.942716	0.106656	0.031685
H210	H	0.876578	0.174170	-0.005134
H211	H	0.907380	0.139338	0.088681
H212	H	0.915882	0.266200	-0.069868
H213	H	0.946697	0.231363	0.023951
C214	C	-0.069123	1.178439	-0.233498
C215	C	-0.078558	1.098277	-0.189770
H216	H	-0.104785	1.240429	-0.267299
H217	H	-0.046995	1.170877	-0.272754
H218	H	-0.049197	1.178382	-0.190094
H219	H	-0.098480	1.098328	-0.233175
H220	H	-0.100695	1.105840	-0.150511
H221	H	0.232034	1.314513	-0.582358
H222	H	0.640387	1.257375	-0.428654
C223	C	0.457441	1.180318	-0.504233
C224	C	0.514219	1.101907	-0.454934
H225	H	0.435553	1.153380	-0.508803
H226	H	0.456127	1.227189	-0.562768
H227	H	0.442133	1.213550	-0.474550
H228	H	0.529527	1.068679	-0.484620
H229	H	0.515535	1.055018	-0.396388
C230	C	0.834483	0.308188	0.614948
C231	C	0.781810	0.379062	0.547925
H232	H	0.828261	0.286842	0.672407
H233	H	0.856794	0.338021	0.607080
H234	H	0.854113	0.251625	0.610817
H235	H	0.762182	0.435628	0.552051
H236	H	0.759491	0.349229	0.555795
H237	H	0.207569	1.283959	-0.138998
H238	H	0.028961	1.072259	-0.175592
C239	C	0.283149	1.322205	-0.685648
C240	C	0.335822	1.251333	-0.618626
H241	H	0.289371	1.343524	-0.743107
H242	H	0.263527	1.378774	-0.681537
H243	H	0.260831	1.292373	-0.677762
H244	H	0.358139	1.281168	-0.626508
H245	H	0.355453	1.194754	-0.622740
H246	H	0.527692	0.315975	0.511638
C247	C	0.192597	1.087130	-0.183734
C248	C	0.183165	1.006965	-0.139991
H249	H	0.156933	1.149117	-0.217547
H250	H	0.214730	1.079555	-0.222979
H251	H	0.212515	1.087092	-0.140336
H252	H	0.163250	1.006998	-0.183389
H253	H	0.161022	1.014542	-0.100742
H254	H	0.586168	0.388108	0.523740
H255	H	0.290705	0.980939	-0.125802
H256	H	0.295722	1.142458	-0.132834
C257	C	0.669476	1.169222	-0.273690
C258	C	0.640243	1.119313	-0.263091
H259	H	0.688344	1.147888	-0.216233
H260	H	0.643040	1.240009	-0.307883
H261	H	0.696878	1.153600	-0.304128
H262	H	0.612838	1.134940	-0.232659
H263	H	0.666682	1.048509	-0.228883
H264	H	0.388839	0.649503	0.055012
C265	C	0.353638	0.543305	0.112956
C266	C	0.296731	0.623463	0.069235
H267	H	0.354688	0.481314	0.146770
H268	H	0.371299	0.550876	0.152199
H269	H	0.373518	0.543356	0.069547
H270	H	0.276852	0.623417	0.112645
H271	H	0.279062	0.615890	0.029989
C272	C	0.625397	1.362928	-0.580727
C273	C	0.591236	1.334693	-0.604505
H274	H	0.628410	1.411233	-0.633634
H275	H	0.662392	1.305158	-0.544337
H276	H	0.608548	1.391559	-0.548095
H277	H	0.608087	1.306055	-0.637131
H278	H	0.554233	1.392475	-0.640910
H279	H	0.531489	1.242321	-0.594460
H280	H	0.181196	0.558137	0.104908
H281	H	0.477262	0.372959	0.358042
C282	C	-0.036188	0.623413	0.133239
C283	C	-0.065531	0.623427	0.069286
H284	H	-0.000521	0.561433	0.167052
H285	H	-0.058327	0.630970	0.172483
H286	H	-0.029807	0.677818	0.103550
H287	H	-0.071916	0.569025	0.098975
H288	H	-0.043386	0.615858	0.030037
C289	C	-0.228516	0.642711	0.058787
C290	C	-0.172635	0.623415	0.069307
H291	H	-0.227476	0.580729	0.092616
H292	H	-0.246872	0.676458	-0.003001
H293	H	-0.249096	0.684020	0.079628
H294	H	-0.152057	0.582112	0.048459
H295	H	-0.154272	0.589652	0.131108
H296	H	0.902238	0.372933	0.358040
