data_functionalizedCrystal
_audit_creation_method	'MofGen! by Chris Wilmer'
_symmetry_space_group_name_H-M	'P1'
_symmetry_Int_Tables_number	1
_symmetry_cell_setting	triclinic
loop_
_symmetry_equiv_pos_as_xyz
  x,y,z
_cell_length_a	25.639239
_cell_length_b	21.295418
_cell_length_c	21.295412
_cell_angle_alpha	89.964379
_cell_angle_beta	89.970930
_cell_angle_gamma	90.054499
loop_
_atom_site_label
_atom_site_type_symbol
_atom_site_fract_x
_atom_site_fract_y
_atom_site_fract_z
Zn1	Zn	-0.207940	0.962270	-0.356243
Zn2	Zn	0.292060	1.462270	0.143757
Zn3	Zn	-0.295375	0.962172	-0.250972
Zn4	Zn	0.204625	1.462172	0.249028
Zn5	Zn	-0.207980	0.857008	-0.250953
Zn6	Zn	0.292020	1.357008	0.249047
Zn7	Zn	-0.295371	0.856947	-0.356169
Zn8	Zn	0.204629	1.356947	0.143831
O9	O	-0.251666	0.909599	-0.303584
O10	O	0.248334	1.409599	0.196416
O11	O	-0.219524	1.050346	-0.342318
O12	O	0.280476	1.550346	0.157682
O13	O	-0.283800	0.948206	-0.162880
O14	O	0.216200	1.448206	0.337120
O15	O	-0.134809	0.871037	-0.264943
O16	O	0.365191	1.371037	0.235057
O17	O	-0.283762	1.050274	-0.264976
O18	O	0.216238	1.550274	0.235024
O19	O	-0.134780	0.948373	-0.342299
O20	O	0.365220	1.448373	0.157701
O21	O	-0.219591	0.870942	-0.162866
O22	O	0.280409	1.370942	0.337134
O23	O	-0.219587	0.768910	-0.264871
O24	O	0.280413	1.268910	0.235129
O25	O	-0.283755	0.870934	-0.444268
O26	O	0.216245	1.370934	0.055732
O27	O	-0.283793	0.768866	-0.342172
O28	O	0.216207	1.268866	0.157828
O29	O	-0.219520	0.948314	-0.444322
O30	O	0.280480	1.448314	0.055678
O31	O	-0.368540	0.948147	-0.264904
O32	O	0.131460	1.448147	0.235096
O33	O	-0.368537	0.870839	-0.342191
O34	O	0.131463	1.370839	0.157809
C35	C	-0.251694	0.746047	-0.303512
C36	C	0.248306	1.246047	0.196488
C37	C	-0.251718	0.676079	-0.303495
C38	C	0.248282	1.176079	0.196505
C39	C	-0.285195	0.643206	-0.343686
C40	C	0.214805	1.143206	0.156314
C41	C	-0.285182	0.577463	-0.343715
C42	C	0.214818	1.077463	0.156285
C43	C	-0.251698	0.544597	-0.303541
C44	C	0.248302	1.044597	0.196459
C45	C	-0.218215	0.577478	-0.263347
C46	C	0.281785	1.077478	0.236653
C47	C	-0.218225	0.643219	-0.263325
C48	C	0.281775	1.143219	0.236675
N49	N	-0.247613	0.441329	-0.248483
N50	N	0.252387	0.941329	0.251517
N51	N	-0.247607	0.378878	-0.248506
N52	N	0.252393	0.878878	0.251494
C53	C	-0.251665	0.346522	-0.303608
C54	C	0.248335	0.846522	0.196392
N55	N	-0.255740	0.378977	-0.358686
N56	N	0.244260	0.878977	0.141314
N57	N	-0.255749	0.441434	-0.358662
N58	N	0.244251	0.941434	0.141338
C59	C	-0.251683	0.473311	-0.303561
C60	C	0.248317	0.973311	0.196439
C61	C	-0.285129	0.242363	-0.343832
C62	C	0.214871	0.742363	0.156168
C63	C	-0.285112	0.176620	-0.343862
C64	C	0.214888	0.676620	0.156138
C65	C	-0.218148	0.176636	-0.263489
C66	C	0.281852	0.676636	0.236511
C67	C	-0.218162	0.242378	-0.263465
C68	C	0.281838	0.742378	0.236535
C69	C	-0.251655	0.275238	-0.303636
C70	C	0.248345	0.775238	0.196364
C71	C	-0.387509	0.909493	-0.303555
C72	C	0.112491	1.409493	0.196445
C73	C	-0.445623	0.909506	-0.303564
C74	C	0.054377	1.409506	0.196436
C75	C	-0.805975	0.949958	-0.263409
C76	C	-0.305975	1.449958	0.236591
C77	C	-0.860579	0.949983	-0.263418
C78	C	-0.360579	1.449983	0.236582
O79	O	-0.888807	0.984268	-0.229245
O80	O	-0.388807	1.484268	0.270755
N81	N	-0.887905	0.909710	-0.303626
N82	N	-0.387905	1.409710	0.196374
C83	C	-0.860624	0.869414	-0.343833
C84	C	-0.360624	1.369414	0.156167
O85	O	-0.888881	0.835161	-0.378034
O86	O	-0.388881	1.335161	0.121966
C87	C	-0.806021	0.869393	-0.343827
C88	C	-0.306021	1.369393	0.156173
C89	C	-0.778698	0.909665	-0.303612
C90	C	-0.278698	1.409665	0.196388
C91	C	-0.778652	0.990227	-0.223198
C92	C	-0.278652	1.490227	0.276802
C93	C	-0.724051	0.990202	-0.223188
C94	C	-0.224051	1.490202	0.276812
C95	C	-0.696774	0.949908	-0.263391
C96	C	-0.196774	1.449908	0.236609
C97	C	-0.724097	0.909639	-0.303603
C98	C	-0.224097	1.409639	0.196397
C99	C	-0.778741	0.829101	-0.384037
C100	C	-0.278741	1.329101	0.115963
C101	C	-0.724134	0.829084	-0.384028
C102	C	-0.224134	1.329084	0.115972
C103	C	-0.696811	0.869356	-0.343812
C104	C	-0.196811	1.369356	0.156188
C105	C	-0.642220	0.869320	-0.343796
C106	C	-0.142220	1.369320	0.156204
N107	N	-0.614893	0.909593	-0.303588
N108	N	-0.114893	1.409593	0.196412
C109	C	-0.642171	0.949887	-0.263385
C110	C	-0.142171	1.449887	0.236615
C111	C	-0.975295	0.869462	-0.343842
C112	C	-0.475295	1.369462	0.156158
C113	C	-1.029897	0.869479	-0.343845
C114	C	-0.529897	1.369479	0.156155
C115	C	-1.029849	0.950048	-0.263431
C116	C	-0.529849	1.450048	0.236569
C117	C	-0.975245	0.950028	-0.263425
C118	C	-0.475245	1.450028	0.236575
C119	C	-0.947969	0.909735	-0.303634
C120	C	-0.447969	1.409735	0.196366
C121	C	-0.527506	0.949830	-0.263369
C122	C	-0.027506	1.449830	0.236631
C123	C	-0.472900	0.949799	-0.263361
C124	C	0.027100	1.449799	0.236639
C125	C	-0.472954	0.869232	-0.343778
C126	C	0.027046	1.369232	0.156222
C127	C	-0.527554	0.869260	-0.343783
C128	C	-0.027554	1.369260	0.156217
C129	C	-0.554829	0.909565	-0.303577
C130	C	-0.054829	1.409565	0.196423
O131	O	-0.613957	0.835055	-0.377953
O132	O	-0.113957	1.335055	0.122047
O133	O	-0.613907	0.984140	-0.229195
O134	O	-0.113907	1.484140	0.270805
C135	C	-0.115293	0.909723	-0.303627
C136	C	0.384707	1.409723	0.196373
C137	C	-0.057179	0.909775	-0.303645
C138	C	0.442821	1.409775	0.196355
C139	C	-0.251633	0.909628	-0.467774
C140	C	0.248367	1.409628	0.032226
C141	C	-0.251618	0.909640	-0.537742
C142	C	0.248382	1.409640	-0.037742
C143	C	-0.251639	1.073789	-0.303657
C144	C	0.248361	1.573789	0.196343
C145	C	-0.251628	1.143758	-0.303688
C146	C	0.248372	1.643758	0.196312
C147	C	-0.218088	0.949992	-1.037230
C148	C	0.281912	1.449992	-0.537230
C149	C	-0.218101	0.949987	-0.971488
C150	C	0.281899	1.449987	-0.471488
C151	C	-0.251549	0.909695	-0.938582
C152	C	0.248451	1.409695	-0.438582
C153	C	-0.284997	0.869416	-0.971425
C154	C	0.215003	1.369416	-0.471425
C155	C	-0.284987	0.869427	-1.037166
C156	C	0.215013	1.369427	-0.537166
N157	N	-0.255585	0.854573	-0.835335
N158	N	0.244415	1.354573	-0.335335
N159	N	-0.255591	0.854565	-0.772884
N160	N	0.244409	1.354565	-0.272884
C161	C	-0.251582	0.909662	-0.740507
C162	C	0.248418	1.409662	-0.240507
N163	N	-0.247556	0.964769	-0.772942
N164	N	0.252444	1.464769	-0.272942
N165	N	-0.247547	0.964776	-0.835399
N166	N	0.252453	1.464776	-0.335399
C167	C	-0.251564	0.909680	-0.867297
C168	C	0.248436	1.409680	-0.367297
C169	C	-0.218153	0.949936	-0.636387
C170	C	0.281847	1.449936	-0.136387
C171	C	-0.218169	0.949932	-0.570643
C172	C	0.281831	1.449932	-0.070643
C173	C	-0.285062	0.869356	-0.570582
C174	C	0.214938	1.369356	-0.070582
C175	C	-0.285048	0.869365	-0.636324
C176	C	0.214952	1.369365	-0.136324
C177	C	-0.251591	0.909654	-0.669223
C178	C	0.248409	1.409654	-0.169223
C179	C	-0.251662	0.909606	-0.140032
C180	C	0.248338	1.409606	0.359968
C181	C	-0.251529	0.909716	-0.070065
C182	C	0.248471	1.409716	0.429935
H183	H	-0.312398	0.269119	-0.376545
H184	H	0.187602	0.769119	0.123455
H185	H	-0.190910	0.982741	-0.663175
H186	H	0.309090	1.482741	-0.163175
N187	N	-1.057716	0.991204	-0.222358
N188	N	-0.557716	1.491204	0.277642
N189	N	-1.088231	0.969093	-0.182222
N190	N	-0.588231	1.469093	0.317778
H191	H	-1.107914	0.998156	-0.153215
H192	H	-0.607914	1.498156	0.346785
H193	H	-0.800978	0.796305	-0.416781
H194	H	-0.300978	1.296305	0.083219
N195	N	-0.319196	0.828217	-0.669878
N196	N	0.180804	1.328217	-0.169878
N197	N	-0.319180	0.828229	-0.728574
N198	N	0.180820	1.328229	-0.228574
H199	H	-0.343298	0.799166	-0.752273
H200	H	0.156702	1.299166	-0.252273
H201	H	-0.312231	0.836611	-0.944629
H202	H	0.187769	1.336611	-0.444629
H203	H	-0.190868	0.982784	-0.944748
H204	H	0.309132	1.482784	-0.444748
H205	H	-0.701928	0.796274	-0.416773
H206	H	-0.201928	1.296274	0.083227
H207	H	-1.052139	0.836680	-0.376587
H208	H	-0.552139	1.336680	0.123413
N209	N	-0.184006	0.543919	-0.222310
N210	N	0.315994	1.043919	0.277690
N211	N	-0.135766	0.551332	-0.226591
N212	N	0.364234	1.051332	0.273409
H213	H	-0.111602	0.527632	-0.197609
H214	H	0.388398	1.027632	0.302391
H215	H	-0.190963	0.669984	-0.230596
H216	H	0.309037	1.169984	0.269404
H217	H	-0.312219	0.836628	-1.063900
H218	H	0.187781	1.336628	-0.563900
H219	H	-0.312298	0.836552	-0.543791
H220	H	0.187702	1.336552	-0.043791
H221	H	-0.549802	0.836470	-0.376532
H222	H	-0.049802	1.336470	0.123468
N223	N	-0.444994	0.990929	-0.222270
N224	N	0.055006	1.490929	0.277730
N225	N	-0.451134	0.986789	-0.164181
N226	N	0.048866	1.486789	0.335819
H227	H	-0.431427	1.015836	-0.135159
H228	H	0.068573	1.515836	0.364841
N229	N	-0.319308	0.143048	-0.384928
N230	N	0.180692	0.643048	0.115072
N231	N	-0.349206	0.172398	-0.420791
N232	N	0.150794	0.672398	0.079209
H233	H	-0.373358	0.148688	-0.449795
H234	H	0.126642	0.648688	0.050205
N235	N	-0.696144	1.031327	-0.182099
N236	N	-0.196144	1.531327	0.317901
N237	N	-0.665729	1.009187	-0.141946
N238	N	-0.165729	1.509187	0.358054
H239	H	-0.646024	1.038232	-0.112920
H240	H	-0.146024	1.538232	0.387080
N241	N	-0.183971	0.275970	-0.222413
N242	N	0.316029	0.775970	0.277587
N243	N	-0.150684	0.312723	-0.244621
N244	N	0.349316	0.812723	0.255379
H245	H	-0.126534	0.336449	-0.215628
H246	H	0.373466	0.836449	0.284372
N247	N	-0.183942	0.143062	-0.222463
N248	N	0.316058	0.643062	0.277537
N249	N	-0.183934	0.084365	-0.222491
N250	N	0.316066	0.584365	0.277509
H251	H	-0.159772	0.060650	-0.193518
H252	H	0.340228	0.560650	0.306482
H253	H	-0.549706	0.982651	-0.230630
H254	H	-0.049706	1.482651	0.269370
H255	H	-0.190939	0.982734	-0.543911
H256	H	0.309061	1.482734	-0.043911
H257	H	-0.800855	1.023043	-0.190460
H258	H	-0.300855	1.523043	0.309540
H259	H	-0.312467	0.669957	-0.376398
H260	H	0.187533	1.169957	0.123602
H261	H	-0.312442	0.550693	-0.376445
H262	H	0.187558	1.050693	0.123555
H263	H	-0.953002	0.982820	-0.230679
H264	H	-0.453002	1.482820	0.269321
H265	H	-0.953089	0.836645	-0.376584
H266	H	-0.453089	1.336645	0.123416
N267	N	-0.183924	0.991150	-1.070844
N268	N	0.316076	1.491150	-0.570844
N269	N	-0.183920	0.991158	-1.129541
N270	N	0.316080	1.491158	-0.629541
H271	H	-0.159793	1.020226	-1.153283
H272	H	0.340207	1.520226	-0.653283
H273	H	-0.450736	0.836423	-0.376509
H274	H	0.049264	1.336423	0.123491
