data_functionalizedCrystal
_audit_creation_method	'MofGen! by Chris Wilmer'
_symmetry_space_group_name_H-M	'P1'
_symmetry_Int_Tables_number	1
_symmetry_cell_setting	triclinic
loop_
_symmetry_equiv_pos_as_xyz
  x,y,z
_cell_length_a	14.853566
_cell_length_b	10.540510
_cell_length_c	13.930277
_cell_angle_alpha	89.997952
_cell_angle_beta	89.995631
_cell_angle_gamma	84.073862
loop_
_atom_site_label
_atom_site_type_symbol
_atom_site_fract_x
_atom_site_fract_y
_atom_site_fract_z
O1	O	1.197276	0.165722	-0.079762
O2	O	0.934925	0.185466	-0.079777
O3	O	1.072100	-0.009181	-0.079769
O4	O	1.060101	0.360369	-0.079770
O5	O	1.072080	-0.009185	0.079893
O6	O	0.934905	0.185462	0.079885
O7	O	1.197257	0.165718	0.079900
Zn8	Zn	1.066078	0.175589	0.105242
Zn9	Zn	1.066103	0.175595	-0.105119
O10	O	1.060082	0.360365	0.079891
C11	C	0.901321	0.184570	0.000052
C12	C	0.801223	0.181890	0.000046
C13	C	0.377986	0.170556	-0.086969
C14	C	0.377987	0.170553	0.087100
C15	C	0.472035	0.173069	0.087097
C16	C	0.519063	0.174332	0.000060
C17	C	0.472043	0.173077	-0.086975
C18	C	0.519061	0.174337	0.174130
C19	C	0.613114	0.176855	0.174131
C20	C	0.660144	0.178108	0.087092
C21	C	0.613119	0.176852	0.000054
C22	C	0.660147	0.178115	-0.086983
C23	C	0.613124	0.176849	-0.174022
C24	C	0.519073	0.174330	-0.174013
C25	C	0.754195	0.180627	0.087083
C26	C	0.754203	0.180635	-0.086989
C27	C	1.071196	-0.056477	0.000060
C28	C	1.068521	-0.197397	0.000054
C29	C	1.163816	-0.415902	0.000425
C30	C	1.166669	-0.269338	0.000061
C31	C	1.018289	-0.241600	-0.091122
C32	C	1.016131	-0.388338	-0.091193
C33	C	1.014065	-0.388128	0.090372
C34	C	1.018720	-0.241838	0.091572
C35	C	1.230860	0.166614	0.000069
C36	C	1.330959	0.169294	0.000068
C37	C	1.060985	0.407661	0.000060
C38	C	1.063661	0.548581	0.000060
N39	N	1.066067	0.175585	0.248808
N40	N	1.066121	0.175589	-0.248685
C41	C	1.005360	0.261751	0.701074
C42	C	1.126872	0.089429	0.701050
C43	C	1.126861	0.089425	0.600555
C44	C	1.066100	0.175586	0.550314
C45	C	1.005349	0.261752	0.600569
C46	C	1.187617	0.003270	0.550292
C47	C	1.187609	0.003263	0.449790
C48	C	1.126843	0.089420	0.399548
C49	C	1.066089	0.175588	0.449809
C50	C	1.005327	0.261749	0.399568
C51	C	0.944568	0.347912	0.449827
C52	C	0.944582	0.347908	0.550326
C53	C	1.126829	0.089423	0.299049
C54	C	1.005317	0.261750	0.299063
H55	H	0.480779	0.173299	-0.244876
H56	H	0.651392	0.177883	0.245004
N57	N	1.188795	0.001341	0.247673
N58	N	1.186722	-0.115976	0.258908
H59	H	1.230455	-0.178217	0.222604
N60	N	0.802225	0.181909	-0.175907
N61	N	0.760228	0.180774	-0.253606
H62	H	0.794142	0.181672	-0.316405
N63	N	1.211525	-0.471011	-0.081124
N64	N	1.220176	-0.589302	-0.092331
H65	H	1.253869	-0.628227	-0.149926
N66	N	0.943249	0.349783	0.247762
N67	N	0.945225	0.467118	0.258992
H68	H	0.901390	0.529293	0.222762
H69	H	0.651425	0.177886	-0.244888
N70	N	1.059232	-0.439249	-0.176682
N71	N	1.140134	-0.423674	-0.192856
H72	H	1.170579	-0.459623	-0.253234
H73	H	1.045247	-0.430655	0.159483
H74	H	1.237092	-0.066874	0.591202
N75	N	0.802210	0.181960	0.175988
N76	N	0.760208	0.180864	0.253693
H77	H	0.794116	0.181815	0.316488
H78	H	0.480763	0.173318	0.244992
H79	H	1.205973	-0.240428	0.065418
N80	N	1.064571	-0.206416	0.176179
N81	N	1.072837	-0.091591	0.192515
H82	H	1.105223	-0.066561	0.252265
H83	H	1.202046	-0.458279	0.065812
H84	H	1.206217	-0.241366	-0.065406
H85	H	1.237081	-0.066896	0.408876
N86	N	0.882523	0.435930	0.601649
N87	N	0.828273	0.512851	0.556785
H88	H	0.784443	0.575017	0.593033
H89	H	1.176347	0.019285	0.741960
H90	H	1.053189	-0.211126	-0.158970
N91	N	0.329947	0.169252	-0.175865
N92	N	0.245975	0.166991	-0.175854
H93	H	0.212045	0.166069	-0.238638
H94	H	0.942722	-0.410524	-0.095328
N95	N	0.329938	0.169274	0.175993
N96	N	0.245964	0.167030	0.175985
H97	H	0.212025	0.166124	0.238769
H98	H	0.895100	0.418071	0.408909
H99	H	0.946034	-0.193416	-0.094516
N100	N	0.928850	-0.179223	0.098503
N101	N	0.899910	-0.100483	0.035819
H102	H	0.836443	-0.056236	0.040719
N103	N	0.921622	-0.414899	0.091127
N104	N	0.892288	-0.480285	0.025511
H105	H	0.827002	-0.499198	0.026036
H106	H	0.955888	0.331900	0.741997
