data_functionalizedCrystal
_audit_creation_method	'MofGen! by Chris Wilmer'
_symmetry_space_group_name_H-M	'P1'
_symmetry_Int_Tables_number	1
_symmetry_cell_setting	triclinic
loop_
_symmetry_equiv_pos_as_xyz
  x,y,z
_cell_length_a	14.971506
_cell_length_b	16.992695
_cell_length_c	14.048226
_cell_angle_alpha	89.993436
_cell_angle_beta	89.993237
_cell_angle_gamma	87.145305
loop_
_atom_site_label
_atom_site_type_symbol
_atom_site_fract_x
_atom_site_fract_y
_atom_site_fract_z
O1	O	1.194121	0.102266	-0.079168
O2	O	0.934582	0.114487	-0.079169
O3	O	1.063311	-0.005768	-0.079161
O4	O	1.065392	0.222520	-0.079176
O5	O	1.063294	-0.005775	0.079160
O6	O	0.934565	0.114479	0.079152
O7	O	1.194104	0.102259	0.079153
Zn8	Zn	1.064332	0.108368	0.104290
Zn9	Zn	1.064354	0.108377	-0.104306
O10	O	1.065375	0.222513	0.079145
C11	C	0.901211	0.113934	-0.000008
C12	C	0.801799	0.112287	-0.000008
C13	C	0.368038	0.176652	-0.000022
C14	C	0.461447	0.178192	-0.000027
C15	C	0.513703	0.107538	-0.000018
C16	C	0.472545	0.035339	-0.000014
C17	C	0.379139	0.033799	-0.000017
C18	C	0.667234	0.038554	-0.000006
C19	C	0.760648	0.040093	-0.000002
C20	C	0.749543	0.182947	-0.000016
C21	C	0.656136	0.181407	-0.000019
C22	C	0.614985	0.109207	-0.000014
C23	C	1.060626	-0.034986	-0.000001
C24	C	1.052639	-0.122039	-0.000001
C25	C	1.129703	-0.172202	0.000000
C26	C	1.122193	-0.253996	-0.000009
C27	C	1.037618	-0.285625	-0.000012
C28	C	0.960548	-0.235455	-0.000016
C29	C	0.968059	-0.153663	-0.000014
C30	C	1.006489	-0.529254	-0.000025
C31	C	0.998983	-0.611053	-0.000025
C32	C	1.160629	-0.629588	-0.000019
C33	C	1.168132	-0.547793	-0.000011
C34	C	1.091062	-0.497631	-0.000020
N35	N	1.029939	-0.369232	-0.000018
N36	N	1.098742	-0.414026	-0.000021
C37	C	1.227476	0.102811	-0.000010
C38	C	1.326887	0.104458	-0.000016
C39	C	1.068060	0.251731	-0.000018
C40	C	1.076047	0.338784	-0.000024
N41	N	1.064323	0.108361	0.246650
N42	N	1.064370	0.108378	-0.246666
C43	C	1.121345	0.055134	0.296472
C44	C	1.121351	0.055134	0.396129
C45	C	1.064339	0.108364	0.445964
C46	C	1.007311	0.161594	0.396135
C47	C	1.007301	0.161590	0.296479
C48	C	1.007337	0.161599	0.603849
C49	C	1.007348	0.161604	0.703512
C50	C	1.121387	0.055144	0.703499
C51	C	1.121377	0.055140	0.603844
C52	C	1.064350	0.108370	0.554022
H53	H	0.803192	-0.017439	-0.000003
H54	H	1.223374	-0.670439	-0.000014
Cl55	Cl	0.615503	-0.052213	0.000007
Cl56	Cl	0.801274	0.273712	-0.000012
H57	H	0.930109	-0.636802	-0.000012
H58	H	0.515100	-0.022188	-0.000013
H59	H	0.345635	-0.024988	-0.000014
Cl60	Cl	1.193036	-0.011781	0.458764
Cl61	Cl	1.236031	-0.132448	0.000014
Cl62	Cl	0.854225	-0.275218	-0.000032
H63	H	1.184947	-0.294836	-0.000006
Cl64	Cl	0.935641	0.228517	0.541220
H65	H	0.943732	-0.488421	-0.000032
Cl66	Cl	0.871174	-0.090600	-0.000019
Cl67	Cl	1.193026	-0.011785	0.233833
Cl68	Cl	1.274459	-0.508037	-0.000038
H69	H	1.167805	0.011799	0.563269
Cl70	Cl	0.935670	0.228524	0.766153
Cl71	Cl	0.935633	0.228510	0.458782
Cl72	Cl	1.193078	-0.011772	0.766135
Cl73	Cl	0.935609	0.228503	0.233847
H74	H	0.325498	0.234187	-0.000022
H75	H	0.613591	0.238940	-0.000020
Cl76	Cl	0.513176	0.268955	-0.000040
