data_functionalizedCrystal
_audit_creation_method	'MofGen! by Chris Wilmer'
_symmetry_space_group_name_H-M	'P1'
_symmetry_Int_Tables_number	1
_symmetry_cell_setting	triclinic
loop_
_symmetry_equiv_pos_as_xyz
  x,y,z
_cell_length_a	14.971486
_cell_length_b	10.654550
_cell_length_c	14.048226
_cell_angle_alpha	89.994756
_cell_angle_beta	89.998499
_cell_angle_gamma	84.049516
loop_
_atom_site_label
_atom_site_type_symbol
_atom_site_fract_x
_atom_site_fract_y
_atom_site_fract_z
O1	O	1.187838	0.163659	-0.079049
O2	O	0.927544	0.183257	-0.079074
O3	O	1.063675	-0.009345	-0.079057
O4	O	1.051706	0.356262	-0.079066
O5	O	1.063659	-0.009357	0.079264
O6	O	0.927527	0.183246	0.079247
O7	O	1.187821	0.163648	0.079273
Zn8	Zn	1.057672	0.173445	0.104397
Zn9	Zn	1.057693	0.173460	-0.104198
O10	O	1.051690	0.356250	0.079256
C11	C	0.894206	0.182375	0.000083
C12	C	0.794895	0.179749	0.000073
C13	C	1.062788	-0.056139	0.000102
C14	C	1.060159	-0.195555	0.000099
C15	C	0.738285	0.292898	0.000072
C16	C	0.644972	0.290422	0.000086
C17	C	0.608271	0.174797	0.000095
C18	C	0.664888	0.061639	0.000099
C19	C	0.758199	0.064116	0.000092
C20	C	0.470397	0.056485	0.000112
C21	C	0.377080	0.054007	0.000118
C22	C	0.357171	0.282791	0.000107
C23	C	0.450482	0.285268	0.000100
C24	C	0.507092	0.172110	0.000102
C25	C	1.140311	-0.275900	0.000109
C26	C	1.137835	-0.406894	0.000102
C27	C	0.975048	-0.377185	0.000078
C28	C	0.977525	-0.246193	0.000078
C29	C	1.234295	-0.293054	0.000128
C30	C	1.231819	-0.424048	0.000121
C31	C	1.221159	0.164530	0.000113
C32	C	1.320470	0.167156	0.000117
C33	C	1.052577	0.403044	0.000094
C34	C	1.055206	0.542460	0.000092
N35	N	1.057663	0.173434	0.246758
N36	N	1.057709	0.173461	-0.246559
C37	C	1.117962	0.088185	0.296583
C38	C	1.117968	0.088184	0.396241
C39	C	1.057679	0.173440	0.446071
C40	C	0.997374	0.258693	0.396238
C41	C	0.997365	0.258687	0.296583
C42	C	0.997400	0.258702	0.603953
C43	C	0.997411	0.258710	0.703615
C44	C	1.118003	0.088200	0.703611
C45	C	1.117993	0.088193	0.603955
C46	C	1.057690	0.173448	0.554129
H47	H	0.768160	0.387053	0.000064
C48	C	0.931037	0.352465	0.241771
C49	C	0.864751	0.446289	0.296579
C50	C	0.798418	0.540066	0.241770
C51	C	0.798370	0.540019	0.132152
C52	C	0.864658	0.446192	0.077338
C53	C	0.930991	0.352415	0.132148
H54	H	0.864785	0.446327	0.377730
H55	H	0.749347	0.609524	0.282348
H56	H	0.749266	0.609439	0.091579
H57	H	0.864624	0.446154	-0.003813
H58	H	0.980062	0.282957	0.091570
C59	C	1.184281	-0.005600	0.241775
C60	C	1.148735	-0.101730	0.173279
C61	C	1.215055	-0.195521	0.118474
C62	C	1.316921	-0.193182	0.132166
C63	C	1.352472	-0.097048	0.200665
C64	C	1.286152	-0.003257	0.255469
H65	H	1.073324	-0.103465	0.163141
H66	H	1.188737	-0.266686	0.067767
H67	H	1.366015	-0.262612	0.091596
H68	H	1.427884	-0.095313	0.210803
H69	H	1.312470	0.067908	0.306177
H70	H	0.598884	0.382560	0.000084
H71	H	0.347201	-0.040145	0.000126
C72	C	1.184310	-0.005584	0.549136
C73	C	1.181931	-0.148599	0.562845
C74	C	1.248246	-0.242379	0.508025
C75	C	1.316940	-0.193145	0.439496
C76	C	1.319322	-0.050123	0.425785
C77	C	1.253007	0.043657	0.480605
H78	H	1.131078	-0.185052	0.613576
H79	H	1.246483	-0.348254	0.518175
H80	H	1.366030	-0.262567	0.398915
H81	H	1.370175	-0.013670	0.375053
H82	H	1.254770	0.149532	0.470454
C83	C	1.184334	-0.005587	0.758417
C84	C	1.184342	-0.005588	0.868035
C85	C	1.250674	-0.099365	0.922847
C86	C	1.316997	-0.193139	0.868042
C87	C	1.316992	-0.193141	0.758419
C88	C	1.250660	-0.099365	0.703606
H89	H	1.135244	0.063832	0.908610
H90	H	1.250678	-0.099363	1.003998
H91	H	1.366100	-0.262558	0.908618
H92	H	1.366091	-0.262561	0.717843
H93	H	1.250657	-0.099366	0.622455
H94	H	0.804290	-0.028022	0.000092
C95	C	0.931086	0.352485	0.758426
C96	C	0.829221	0.350119	0.744743
C97	C	0.762894	0.443896	0.799551
C98	C	0.798431	0.540038	0.868043
C99	C	0.900301	0.542408	0.881729
C100	C	0.966628	0.448631	0.826921
H101	H	0.802910	0.278946	0.694038
H102	H	0.687483	0.442141	0.789419
H103	H	0.749332	0.609457	0.908615
H104	H	0.926613	0.613582	0.932434
H105	H	1.042039	0.450386	0.837053
C106	C	0.490852	0.412458	0.000091
C107	C	0.469813	0.506480	0.082303
C108	C	0.510181	0.633673	0.082299
C109	C	0.571588	0.666844	0.000082
C110	C	0.592629	0.572820	-0.082137
C111	C	0.552261	0.445627	-0.082132
H112	H	0.424353	0.481927	0.143171
H113	H	0.494604	0.703275	0.143163
H114	H	0.601470	0.761000	0.000078
H115	H	0.638089	0.597374	-0.143005
H116	H	0.567838	0.376025	-0.142996
H117	H	0.311074	0.374929	0.000109
H118	H	0.948291	0.328122	0.563388
H119	H	0.516488	-0.035661	0.000116
H120	H	0.948281	0.328105	0.436816
C121	C	1.270196	-0.486128	-0.092219
C122	C	1.305632	-0.404364	-0.171339
C123	C	1.344003	-0.466445	-0.263678
C124	C	1.346939	-0.610290	-0.276898
C125	C	1.311502	-0.692063	-0.197776
C126	C	1.273131	-0.629981	-0.105437
H127	H	1.303459	-0.297873	-0.161555
H128	H	1.370236	-0.405911	-0.322249
H129	H	1.375344	-0.656246	-0.345252
H130	H	1.313675	-0.798553	-0.207560
H131	H	1.246898	-0.690516	-0.046866
H132	H	0.912257	-0.180779	0.000056
C133	C	1.279632	-0.480994	0.089636
C134	C	1.320675	-0.394551	0.161810
C135	C	1.368482	-0.451496	0.251324
C136	C	1.375248	-0.594883	0.268663
C137	C	1.334204	-0.681334	0.196487
C138	C	1.286397	-0.624390	0.106974
H139	H	1.315668	-0.288400	0.148976
H140	H	1.398865	-0.387498	0.304753
H141	H	1.410638	-0.637037	0.334927
H142	H	1.339211	-0.787486	0.209321
H143	H	1.256013	-0.688387	0.053544
H144	H	1.167066	0.018767	0.436808
H145	H	1.271062	-0.264085	-0.066121
H146	H	0.634998	-0.032505	0.000120
H147	H	1.264216	-0.257753	0.068491
H148	H	0.907770	-0.418431	0.000061
