data_functionalizedCrystal
_audit_creation_method	'MofGen! by Chris Wilmer'
_symmetry_space_group_name_H-M	'P1'
_symmetry_Int_Tables_number	1
_symmetry_cell_setting	triclinic
loop_
_symmetry_equiv_pos_as_xyz
  x,y,z
_cell_length_a	18.215407
_cell_length_b	13.897448
_cell_length_c	18.215399
_cell_angle_alpha	90.026747
_cell_angle_beta	90.016885
_cell_angle_gamma	90.015136
loop_
_atom_site_label
_atom_site_type_symbol
_atom_site_fract_x
_atom_site_fract_y
_atom_site_fract_z
Zn1	Zn	1.125105	-0.384087	0.416076
Zn2	Zn	1.625105	0.115913	0.916076
Zn3	Zn	1.125030	-0.545397	0.293013
Zn4	Zn	1.625030	-0.045397	0.793013
Zn5	Zn	1.002039	-0.384111	0.293028
Zn6	Zn	1.502039	0.115889	0.793028
Zn7	Zn	1.002019	-0.545334	0.416043
Zn8	Zn	1.502019	-0.045334	0.916043
O9	O	1.063548	-0.464732	0.354540
O10	O	1.563548	0.035268	0.854540
O11	O	1.228079	-0.405501	0.399758
O12	O	1.728079	0.094499	0.899758
O13	O	1.108692	-0.524039	0.190031
O14	O	1.608692	-0.024039	0.690031
O15	O	1.018404	-0.249126	0.309371
O16	O	1.518404	0.250874	0.809371
O17	O	1.228024	-0.524016	0.309345
O18	O	1.728024	-0.024016	0.809345
O19	O	1.108820	-0.249108	0.399773
O20	O	1.608820	0.250892	0.899773
O21	O	1.018331	-0.405543	0.190042
O22	O	1.518331	0.094457	0.690042
O23	O	0.899052	-0.405481	0.309339
O24	O	1.399052	0.094519	0.809339
O25	O	1.018370	-0.523908	0.519032
O26	O	1.518370	-0.023908	1.019032
O27	O	0.899037	-0.523931	0.399718
O28	O	1.399037	-0.023931	0.899718
O29	O	1.108801	-0.405440	0.519056
O30	O	1.608801	0.094560	1.019056
O31	O	1.108673	-0.680371	0.309313
O32	O	1.608673	-0.180371	0.809313
O33	O	1.018297	-0.680324	0.399703
O34	O	1.518297	-0.180324	0.899703
C35	C	0.872342	-0.464703	0.354527
C36	C	1.372342	0.035297	0.854527
C37	C	0.790543	-0.464713	0.354539
C38	C	1.290543	0.035287	0.854539
C39	C	0.602377	-0.403130	0.401692
C40	C	1.102377	0.096870	0.901692
C41	C	0.525518	-0.403138	0.401694
C42	C	1.025518	0.096862	0.901694
C43	C	0.525472	-0.526362	0.307401
C44	C	1.025472	-0.026362	0.807401
C45	C	0.602329	-0.526348	0.307396
C46	C	1.102329	-0.026348	0.807396
C47	C	0.640780	-0.464733	0.354545
C48	C	1.140780	0.035267	0.854545
C49	C	0.487064	-0.464755	0.354553
C50	C	0.987064	0.035245	0.854553
C51	C	0.403730	-0.464765	0.354555
C52	C	0.903730	0.035235	0.854555
C53	C	0.724119	-0.464722	0.354542
C54	C	1.224119	0.035278	0.854542
C55	C	1.063495	-0.715347	0.354519
C56	C	1.563495	-0.215347	0.854519
C57	C	1.063539	-0.822561	0.354534
C58	C	1.563539	-0.322561	0.854534
C59	C	1.063616	-1.018856	0.354580
C60	C	1.563616	-0.518856	0.854580
C61	C	1.063571	-0.909623	0.354557
C62	C	1.563571	-0.409623	0.854557
C63	C	1.255501	-0.464763	0.354553
C64	C	1.755501	0.035237	0.854553
C65	C	1.337300	-0.464776	0.354559
C66	C	1.837300	0.035224	0.854559
C67	C	1.063592	-0.464664	0.546493
C68	C	1.563592	0.035336	1.046493
C69	C	1.063610	-0.464635	0.628292
C70	C	1.563610	0.035365	1.128292
C71	C	1.063622	-0.213139	0.354578
C72	C	1.563622	0.286861	0.854578
C73	C	1.063654	-0.105925	0.354594
C74	C	1.563654	0.394075	0.854594
C75	C	1.063548	-0.464731	0.163334
C76	C	1.563548	0.035269	0.663334
C77	C	1.063672	-0.464488	0.081535
C78	C	1.563672	0.035512	0.581535
C79	C	1.110724	-0.402865	0.893363
C80	C	1.610724	0.097135	1.393363
C81	C	1.110716	-0.402891	0.816505
C82	C	1.610716	0.097109	1.316505
C83	C	1.016555	-0.526264	0.816469
C84	C	1.516555	-0.026264	1.316469
C85	C	1.016568	-0.526242	0.893327
C86	C	1.516568	-0.026242	1.393327
C87	C	1.063652	-0.464537	0.931772
C88	C	1.563652	0.035463	1.431772
C89	C	1.063630	-0.464586	0.778056
C90	C	1.563630	0.035414	1.278056
C91	C	1.063620	-0.464614	0.694722
C92	C	1.563620	0.035386	1.194722
C93	C	1.063663	-0.464510	1.015111
C94	C	1.563663	0.035490	1.515111
H95	H	0.633597	-0.576514	0.268999
H96	H	1.133597	-0.076514	0.768999
O97	O	0.970905	-0.586341	0.779149
O98	O	1.470905	-0.086341	1.279149
C99	C	0.935137	-0.750428	0.755620
C100	C	1.435137	-0.250428	1.255620
C101	C	0.986888	-0.682499	0.797919
C102	C	1.486888	-0.182499	1.297919
H103	H	0.948030	-0.828185	0.770792
H104	H	1.448030	-0.328185	1.270792
H105	H	0.943224	-0.739929	0.694083
H106	H	1.443224	-0.239929	1.194083
H107	H	0.875802	-0.733447	0.770709
H108	H	1.375802	-0.233447	1.270709
H109	H	1.046243	-0.699438	0.782892
H110	H	1.546243	-0.199438	1.282892
H111	H	0.978738	-0.693010	0.859446
H112	H	1.478738	-0.193010	1.359446
O113	O	1.156533	-0.342903	0.930596
O114	O	1.656533	0.157097	1.430596
C115	C	1.249898	-0.220501	0.922515
C116	C	1.749898	0.279499	1.422515
C117	C	1.198067	-0.288374	0.880261
C118	C	1.698067	0.211626	1.380261
H119	H	1.283481	-0.176382	0.881838
H120	H	1.783481	0.323618	1.381838
H121	H	1.288423	-0.264732	0.958474
H122	H	1.788423	0.235268	1.458474
H123	H	1.216119	-0.170090	0.958522
H124	H	1.716119	0.329910	1.458522
H125	H	1.231787	-0.338798	0.844214
H126	H	1.731787	0.161202	1.344214
H127	H	1.159540	-0.244082	0.844348
H128	H	1.659540	0.255918	1.344348
H129	H	1.149048	-0.352673	0.785236
H130	H	1.649048	0.147327	1.285236
H131	H	0.978235	-0.576469	0.924600
H132	H	1.478235	-0.076469	1.424600
H133	H	0.494254	-0.352973	0.440085
H134	H	0.994254	0.147027	0.940085
O135	O	0.639615	-0.343185	0.447511
O136	O	1.139615	0.156815	0.947511
C137	C	0.631545	-0.221006	0.541068
C138	C	1.131545	0.278994	1.041068
C139	C	0.589285	-0.288831	0.489203
C140	C	1.089285	0.211169	0.989203
H141	H	0.590872	-0.177057	0.574800
H142	H	1.090872	0.322943	1.074800
H143	H	0.667502	-0.170443	0.507381
H144	H	1.167502	0.329557	1.007381
H145	H	0.667556	-0.265364	0.579458
H146	H	1.167556	0.234636	1.079458
H147	H	0.553234	-0.244551	0.450803
H148	H	1.053234	0.255449	0.950803
H149	H	0.553375	-0.339396	0.522936
H150	H	1.053375	0.160604	1.022936
H151	H	0.494156	-0.576527	0.269014
H152	H	0.994156	-0.076527	0.769014
