data_functionalizedCrystal
_audit_creation_method	'MofGen! by Chris Wilmer'
_symmetry_space_group_name_H-M	'P1'
_symmetry_Int_Tables_number	1
_symmetry_cell_setting	triclinic
loop_
_symmetry_equiv_pos_as_xyz
  x,y,z
_cell_length_a	10.654562
_cell_length_b	14.519731
_cell_length_c	9.130313
_cell_angle_alpha	89.997760
_cell_angle_beta	89.996930
_cell_angle_gamma	84.089478
loop_
_atom_site_label
_atom_site_type_symbol
_atom_site_fract_x
_atom_site_fract_y
_atom_site_fract_z
O1	O	1.666592	0.129583	-0.121899
O2	O	2.166592	0.629583	0.378101
O3	O	1.300999	0.141911	-0.121881
O4	O	1.800999	0.641911	0.378119
O5	O	1.493475	0.001560	-0.121878
O6	O	1.993475	0.501560	0.378122
O7	O	1.474116	0.269934	-0.121903
O8	O	1.974116	0.769934	0.378097
O9	O	1.493472	0.001564	0.121721
O10	O	1.993472	0.501564	0.621721
O11	O	1.300996	0.141915	0.121717
O12	O	1.800996	0.641915	0.621717
O13	O	1.666590	0.129586	0.121700
O14	O	2.166590	0.629586	0.621700
Cu15	Cu	1.483793	0.135751	0.143951
Cu16	Cu	1.983793	0.635751	0.643951
Cu17	Cu	1.483796	0.135747	-0.144133
Cu18	Cu	1.983796	0.635747	0.355867
O19	O	1.474114	0.269937	0.121696
O20	O	1.974114	0.769937	0.621696
C21	C	1.254208	0.141006	-0.000080
C22	C	1.754208	0.641006	0.499920
C23	C	1.114792	0.138290	-0.000072
C24	C	1.614792	0.638290	0.499928
C25	C	1.049272	0.137025	0.132702
C26	C	1.549272	0.637025	0.632702
C27	C	0.918274	0.134481	0.132678
C28	C	1.418274	0.634481	0.632678
C29	C	0.918326	0.134470	-0.132907
C30	C	1.418326	0.634470	0.367093
C31	C	1.049323	0.137008	-0.132881
C32	C	1.549323	0.637008	0.367119
C33	C	1.049240	0.137036	0.286036
C34	C	1.549240	0.637036	0.786036
C35	C	0.918241	0.134491	0.286011
C36	C	1.418241	0.634491	0.786011
C37	C	1.492566	-0.032802	-0.000078
C38	C	1.992566	0.467198	0.499922
C39	C	1.489848	-0.135196	-0.000077
C40	C	1.989848	0.364804	0.499923
C41	C	1.487640	-0.218352	-0.000080
C42	C	1.987640	0.281648	0.499920
C43	C	1.484880	-0.322675	-0.000091
C44	C	1.984880	0.177325	0.499909
C45	C	1.482690	-0.405826	-0.000100
C46	C	1.982690	0.094174	0.499900
C47	C	1.479930	-0.510155	-0.000109
C48	C	1.979930	-0.010155	0.499891
C49	C	1.713380	0.130492	-0.000106
C50	C	2.213380	0.630492	0.499894
C51	C	1.852797	0.133208	-0.000122
C52	C	2.352797	0.633208	0.499878
C53	C	1.475022	0.304300	-0.000107
C54	C	1.975022	0.804300	0.499893
C55	C	1.477740	0.406694	-0.000118
C56	C	1.977740	0.906694	0.499882
N57	N	1.483800	0.135754	0.346574
N58	N	1.983800	0.635754	0.846574
N59	N	1.483798	0.135737	-0.346756
N60	N	1.983798	0.635737	0.153244
C61	C	1.569050	0.073628	0.423227
C62	C	2.069050	0.573628	0.923227
C63	C	1.569047	0.073617	0.576564
C64	C	2.069047	0.573617	1.076564
C65	C	1.398539	0.197866	0.576580
C66	C	1.898539	0.697866	1.076580
C67	C	1.398537	0.197872	0.423246
C68	C	1.898537	0.697872	0.923246
C69	C	1.667495	0.001896	0.423219
C70	C	2.167495	0.501896	0.923219
C71	C	1.667492	0.001885	0.576556
C72	C	2.167492	0.501885	1.076556
H73	H	0.871349	0.198228	0.344870
H74	H	1.371349	0.698228	0.844870
H75	H	1.646727	-0.068989	0.381607
H76	H	2.146727	0.431011	0.881607
H77	H	1.329120	0.248440	0.639023
H78	H	1.829120	0.748440	1.139023
Cl79	Cl	1.121605	0.038641	0.376954
Cl80	Cl	1.621605	0.538641	0.876954
Cl81	Cl	1.093923	0.240877	0.359480
Cl82	Cl	1.593923	0.740877	0.859480
Cl83	Cl	1.131691	0.138577	-0.299805
Cl84	Cl	1.631691	0.638577	0.200195
Cl85	Cl	0.836016	0.132848	-0.299857
Cl86	Cl	1.336016	0.632848	0.200143
Cl87	Cl	0.873519	0.030745	0.359793
Cl88	Cl	1.373519	0.530745	0.859793
Cl89	Cl	1.291347	0.275962	0.326880
Cl90	Cl	1.791347	0.775962	0.826880
Cl91	Cl	1.621356	-0.101530	0.649991
Cl92	Cl	2.121356	0.398470	1.149991
H93	H	1.758465	0.024360	0.375654
H94	H	2.258465	0.524360	0.875654
H95	H	1.763853	0.017689	0.618166
H96	H	2.263853	0.517689	1.118166
