data_functionalizedCrystal
_audit_creation_method	'MofGen! by Chris Wilmer'
_symmetry_space_group_name_H-M	'P1'
_symmetry_Int_Tables_number	1
_symmetry_cell_setting	triclinic
loop_
_symmetry_equiv_pos_as_xyz
  x,y,z
_cell_length_a	17.000371
_cell_length_b	15.944493
_cell_length_c	14.421503
_cell_angle_alpha	89.992936
_cell_angle_beta	89.994392
_cell_angle_gamma	100.462854
loop_
_atom_site_label
_atom_site_type_symbol
_atom_site_fract_x
_atom_site_fract_y
_atom_site_fract_z
O1	O	-0.102424	1.106988	-0.077095
O2	O	0.147576	1.356988	0.172905
O3	O	0.397576	1.606988	0.422905
O4	O	0.647576	1.856988	0.672905
O5	O	-0.115129	0.861493	-0.077100
O6	O	0.134871	1.111493	0.172900
O7	O	0.384871	1.361493	0.422900
O8	O	0.634871	1.611493	0.672900
O9	O	0.007092	0.999484	-0.077096
O10	O	0.257092	1.249484	0.172904
O11	O	0.507092	1.499484	0.422904
O12	O	0.757092	1.749484	0.672904
O13	O	-0.224645	0.968997	-0.077099
O14	O	0.025355	1.218997	0.172901
O15	O	0.275355	1.468997	0.422901
O16	O	0.525355	1.718997	0.672901
O17	O	0.007074	0.999461	0.077128
O18	O	0.257074	1.249461	0.327128
O19	O	0.507074	1.499461	0.577128
O20	O	0.757074	1.749461	0.827128
O21	O	-0.115147	0.861470	0.077124
O22	O	0.134853	1.111470	0.327124
O23	O	0.384853	1.361470	0.577124
O24	O	0.634853	1.611470	0.827124
O25	O	-0.102443	1.106966	0.077128
O26	O	0.147557	1.356966	0.327128
O27	O	0.397557	1.606966	0.577128
O28	O	0.647557	1.856966	0.827128
Cu29	Cu	-0.108796	0.984216	0.091208
Cu30	Cu	0.141204	1.234216	0.341208
Cu31	Cu	0.391204	1.484216	0.591208
Cu32	Cu	0.641204	1.734216	0.841208
Cu33	Cu	-0.108775	0.984243	-0.091179
Cu34	Cu	0.141225	1.234243	0.158821
Cu35	Cu	0.391225	1.484243	0.408821
Cu36	Cu	0.641225	1.734243	0.658821
O37	O	-0.224663	0.968975	0.077124
O38	O	0.025337	1.218975	0.327124
O39	O	0.275337	1.468975	0.577124
O40	O	0.525337	1.718975	0.827124
C41	C	-0.114619	0.830225	0.000012
C42	C	0.135381	1.080225	0.250012
C43	C	0.385381	1.330225	0.500012
C44	C	0.635381	1.580225	0.750012
C45	C	-0.113062	0.737092	0.000010
C46	C	0.136938	0.987092	0.250010
C47	C	0.386938	1.237092	0.500010
C48	C	0.636938	1.487092	0.750010
C49	C	-0.185004	0.496014	0.000008
C50	C	0.064996	0.746014	0.250008
C51	C	0.314996	0.996014	0.500008
C52	C	0.564996	1.246014	0.750008
C53	C	-0.146217	0.448312	0.076053
C54	C	0.103783	0.698312	0.326053
C55	C	0.353783	0.948312	0.576053
C56	C	0.603783	1.198312	0.826053
C57	C	-0.110177	0.566584	0.000012
C58	C	0.139823	0.816584	0.250012
C59	C	0.389823	1.066584	0.500012
C60	C	0.639823	1.316584	0.750012
C61	C	-0.146182	0.448340	-0.075999
C62	C	0.103818	0.698340	0.174001
C63	C	0.353818	0.948340	0.424001
C64	C	0.603818	1.198340	0.674001
C65	C	-0.107397	0.401880	0.000010
C66	C	0.142603	0.651880	0.250010
C67	C	0.392603	0.901880	0.500010
C68	C	0.642603	1.151880	0.750010
C69	C	-0.071411	0.520109	0.076119
C70	C	0.178589	0.770109	0.326119
C71	C	0.428589	1.020109	0.576119
C72	C	0.678589	1.270109	0.826119
C73	C	-0.071386	0.520140	-0.076001
C74	C	0.178614	0.770140	0.173999
C75	C	0.428614	1.020140	0.423999
C76	C	0.678614	1.270140	0.673999
C77	C	-0.032545	0.472475	0.000062
C78	C	0.217455	0.722475	0.250062
C79	C	0.467455	0.972475	0.500062
C80	C	0.717455	1.222475	0.750062
C81	C	-0.111781	0.661465	0.000014
C82	C	0.138219	0.911465	0.250014
C83	C	0.388219	1.161465	0.500014
C84	C	0.638219	1.411465	0.750014
C85	C	-0.105787	0.307002	0.000014
C86	C	0.144213	0.557002	0.250014
C87	C	0.394213	0.807002	0.500014
C88	C	0.644213	1.057002	0.750014
C89	C	-0.254308	0.967349	0.000012
C90	C	-0.004308	1.217349	0.250012
C91	C	0.245692	1.467349	0.500012
C92	C	0.495692	1.717349	0.750012
C93	C	-0.342668	0.962479	0.000010
C94	C	-0.092668	1.212479	0.250010
C95	C	0.157332	1.462479	0.500010
C96	C	0.407332	1.712479	0.750010
C97	C	-0.374682	1.037411	0.000009
C98	C	-0.124682	1.287411	0.250009
C99	C	0.125318	1.537411	0.500009
C100	C	0.375318	1.787411	0.750009
C101	C	-0.457706	1.032831	0.000014
C102	C	-0.207706	1.282831	0.250014
C103	C	0.042294	1.532831	0.500014
C104	C	0.292294	1.782831	0.750014
C105	C	-0.508713	0.953318	0.000014
C106	C	-0.258713	1.203318	0.250014
C107	C	-0.008713	1.453318	0.500014
C108	C	0.241287	1.703318	0.750014
C109	C	-0.476694	0.878381	0.000018
C110	C	-0.226694	1.128381	0.250018
C111	C	0.023306	1.378381	0.500018
C112	C	0.273306	1.628381	0.750018
C113	C	-0.393671	0.882962	0.000019
C114	C	-0.143671	1.132962	0.250019
C115	C	0.106329	1.382962	0.500019
C116	C	0.356329	1.632962	0.750019
C117	C	-0.759862	0.935623	0.000015
C118	C	-0.509862	1.185623	0.250015
C119	C	-0.259862	1.435623	0.500015
C120	C	-0.009862	1.685623	0.750015
C121	C	-0.842889	0.931048	0.000011
C122	C	-0.592889	1.181048	0.250011
C123	C	-0.342889	1.431048	0.500011
C124	C	-0.092889	1.681048	0.750011
C125	C	-0.823896	1.085498	0.000009
C126	C	-0.573896	1.335498	0.250009
C127	C	-0.323896	1.585498	0.500009
C128	C	-0.073896	1.835498	0.750009
C129	C	-0.740873	1.090072	0.000005
C130	C	-0.490873	1.340072	0.250005
C131	C	-0.240873	1.590072	0.500005
C132	C	0.009127	1.840072	0.750005
C133	C	-0.708860	1.015135	0.000014
C134	C	-0.458860	1.265135	0.250014
C135	C	-0.208860	1.515135	0.500014
C136	C	0.041140	1.765135	0.750014
C137	C	-0.593577	0.948634	0.000016
C138	C	-0.343577	1.198634	0.250016
C139	C	-0.093577	1.448634	0.500016
C140	C	0.156423	1.698634	0.750016
C141	C	-0.623998	1.019820	0.000018
C142	C	-0.373998	1.269820	0.250018
C143	C	-0.123998	1.519820	0.500018
C144	C	0.126002	1.769820	0.750018
C145	C	0.036737	1.001110	0.000014
C146	C	0.286737	1.251110	0.250014
C147	C	0.536737	1.501110	0.500014
C148	C	0.786737	1.751110	0.750014
C149	C	0.125096	1.005979	0.000010
C150	C	0.375096	1.255979	0.250010
C151	C	0.625096	1.505979	0.500010
C152	C	0.875096	1.755979	0.750010
C153	C	-0.102953	1.138233	0.000015
C154	C	0.147047	1.388233	0.250015
C155	C	0.397047	1.638233	0.500015
C156	C	0.647047	1.888233	0.750015
C157	C	-0.104509	1.231367	0.000010
C158	C	0.145491	1.481367	0.250010
C159	C	0.395491	1.731367	0.500010
C160	C	0.645491	1.981367	0.750010
N161	N	-0.108811	0.984203	0.219489
N162	N	0.141189	1.234203	0.469489
N163	N	0.391189	1.484203	0.719489
N164	N	0.641189	1.734203	0.969489
N165	N	-0.108754	0.984263	-0.219461
N166	N	0.141246	1.234263	0.030539
N167	N	0.391246	1.484263	0.280539
N168	N	0.641246	1.734263	0.530539
C169	C	-0.165301	0.920387	0.469141
C170	C	0.084699	1.170387	0.719141
C171	C	0.334699	1.420387	0.969141
C172	C	0.584699	1.670387	1.219141
C173	C	-0.180738	0.995148	0.530945
C174	C	0.069262	1.245148	0.780945
C175	C	0.319262	1.495148	1.030945
C176	C	0.569262	1.745148	1.280945
C177	C	-0.108792	0.984225	0.408650
C178	C	0.141208	1.234225	0.658650
C179	C	0.391208	1.484225	0.908650
C180	C	0.641208	1.734225	1.158650
C181	C	-0.093373	0.909482	0.530941
C182	C	0.156627	1.159482	0.780941
C183	C	0.406627	1.409482	1.030941
C184	C	0.656627	1.659482	1.280941
C185	C	-0.108776	0.984239	0.591372
C186	C	0.141224	1.234239	0.841372
C187	C	0.391224	1.484239	1.091372
C188	C	0.641224	1.734239	1.341372
C189	C	-0.124266	1.059022	0.469093
C190	C	0.125734	1.309022	0.719093
C191	C	0.375734	1.559022	0.969093
C192	C	0.625734	1.809022	1.219093
C193	C	-0.036869	0.973308	0.469084
C194	C	0.213131	1.223308	0.719084
C195	C	0.463131	1.473308	0.969084
C196	C	0.713131	1.723308	1.219084
C197	C	-0.052276	1.048126	0.530860
C198	C	0.197724	1.298126	0.780860
C199	C	0.447724	1.548126	1.030860
C200	C	0.697724	1.798126	1.280860
C201	C	-0.108804	0.984215	0.303389
C202	C	0.141196	1.234215	0.553389
C203	C	0.391196	1.484215	0.803389
C204	C	0.641196	1.734215	1.053389
C205	C	-0.108763	0.984257	0.696631
C206	C	0.141237	1.234257	0.946631
C207	C	0.391237	1.484257	1.196631
C208	C	0.641237	1.734257	1.446631
H209	H	0.031959	0.461777	0.000107
H210	H	0.281959	0.711777	0.250107
H211	H	0.531959	0.961777	0.500107
H212	H	0.781959	1.211777	0.750107
H213	H	-0.699347	1.154820	0.000010
H214	H	-0.449347	1.404820	0.250010
H215	H	-0.199347	1.654820	0.500010
H216	H	0.050653	1.904820	0.750010
H217	H	-0.333157	1.102159	0.000002
H218	H	-0.083157	1.352159	0.250002
H219	H	0.166843	1.602159	0.500002
H220	H	0.416843	1.852159	0.750002
H221	H	-0.518231	0.813640	0.000023
H222	H	-0.268231	1.063640	0.250023
H223	H	-0.018231	1.313640	0.500023
H224	H	0.231769	1.563640	0.750023
H225	H	-0.241555	1.004396	0.558116
H226	H	0.008445	1.254396	0.808116
H227	H	0.258445	1.504396	1.058116
H228	H	0.508445	1.754396	1.308116
H229	H	-0.733808	0.874604	0.000011
H230	H	-0.483808	1.124604	0.250011
H231	H	-0.233808	1.374604	0.500011
H232	H	0.016192	1.624604	0.750011
H233	H	-0.039837	0.551262	0.140473
H234	H	0.210163	0.801262	0.390473
H235	H	0.460163	1.051262	0.640473
H236	H	0.710163	1.301262	0.890473
H237	H	-0.177790	0.417074	-0.140280
H238	H	0.072210	0.667074	0.109720
H239	H	0.322210	0.917074	0.359720
H240	H	0.572210	1.167074	0.609720
H241	H	-0.213126	0.866451	0.442042
H242	H	0.036874	1.116451	0.692042
H243	H	0.286874	1.366451	0.942042
H244	H	0.536874	1.616451	1.192042
H245	H	-0.137373	1.122245	0.442041
H246	H	0.112627	1.372245	0.692041
H247	H	0.362627	1.622245	0.942041
H248	H	0.612627	1.872245	1.192041
H249	H	-0.849970	1.146508	-0.000005
H250	H	-0.599970	1.396508	0.249995
H251	H	-0.349970	1.646508	0.499995
H252	H	-0.099970	1.896508	0.749995
H253	H	-0.039802	0.551429	-0.140293
H254	H	0.210198	0.801429	0.109707
H255	H	0.460198	1.051429	0.359707
H256	H	0.710198	1.301429	0.609707
H257	H	0.023928	0.964035	0.441891
H258	H	0.273928	1.214035	0.691891
H259	H	0.523928	1.464035	0.941891
H260	H	0.773928	1.714035	1.191891
H261	H	-0.004479	1.102173	0.557789
H262	H	0.245521	1.352173	0.807789
H263	H	0.495521	1.602173	1.057789
H264	H	0.745521	1.852173	1.307789
H265	H	-0.249459	0.506873	0.000078
H266	H	0.000541	0.756873	0.250078
H267	H	0.250541	1.006873	0.500078
H268	H	0.500541	1.256873	0.750078
H269	H	-0.080339	0.846268	0.558110
H270	H	0.169661	1.096268	0.808110
H271	H	0.419661	1.346268	1.058110
H272	H	0.669661	1.596268	1.308110
H273	H	-0.367607	0.821944	0.000028
H274	H	-0.117607	1.071944	0.250028
H275	H	0.132393	1.321944	0.500028
H276	H	0.382393	1.571944	0.750028
H277	H	-0.635117	0.883895	0.000012
H278	H	-0.385117	1.133895	0.250012
H279	H	-0.135117	1.383895	0.500012
H280	H	0.114883	1.633895	0.750012
H281	H	-0.177825	0.417029	0.140341
H282	H	0.072175	0.667029	0.390341
H283	H	0.322175	0.917029	0.640341
H284	H	0.572175	1.167029	0.890341
H285	H	-0.483768	1.093848	0.000014
H286	H	-0.233768	1.343848	0.250014
H287	H	0.016232	1.593848	0.500014
H288	H	0.266232	1.843848	0.750014
H289	H	-0.884419	0.866296	0.000013
H290	H	-0.634419	1.116296	0.250013
H291	H	-0.384419	1.366296	0.500013
H292	H	-0.134419	1.616296	0.750013
H293	H	-0.582464	1.084558	0.000023
H294	H	-0.332464	1.334558	0.250023
H295	H	-0.082464	1.584558	0.500023
H296	H	0.167536	1.834558	0.750023
