data_functionalizedCrystal
_audit_creation_method	'MofGen! by Chris Wilmer'
_symmetry_space_group_name_H-M	'P1'
_symmetry_Int_Tables_number	1
_symmetry_cell_setting	triclinic
loop_
_symmetry_equiv_pos_as_xyz
  x,y,z
_cell_length_a	29.839135
_cell_length_b	29.839131
_cell_length_c	12.645323
_cell_angle_alpha	90.040367
_cell_angle_beta	90.025719
_cell_angle_gamma	90.037758
loop_
_atom_site_label
_atom_site_type_symbol
_atom_site_fract_x
_atom_site_fract_y
_atom_site_fract_z
Zn1	Zn	0.686784	-0.178819	0.599418
Zn2	Zn	1.186784	0.321181	1.099418
Zn3	Zn	0.686711	-0.253951	0.422110
Zn4	Zn	1.186711	0.246049	0.922110
Zn5	Zn	0.611654	-0.178839	0.422153
Zn6	Zn	1.111654	0.321161	0.922153
Zn7	Zn	0.611623	-0.253926	0.599316
Zn8	Zn	1.111623	0.246074	1.099316
O9	O	0.649193	-0.216384	0.510749
O10	O	1.149193	0.283616	1.010749
O11	O	0.749642	-0.188788	0.575923
O12	O	1.249642	0.311212	1.075923
O13	O	0.676737	-0.244006	0.273769
O14	O	1.176737	0.255994	0.773769
O15	O	0.621663	-0.115970	0.445728
O16	O	1.121663	0.384030	0.945728
O17	O	0.749588	-0.243987	0.445655
O18	O	1.249588	0.256013	0.945655
O19	O	0.676862	-0.115955	0.575964
O20	O	1.176862	0.384045	1.075964
O21	O	0.621592	-0.188822	0.273800
O22	O	1.121592	0.311178	0.773800
O23	O	0.548783	-0.188798	0.445630
O24	O	1.048783	0.311202	0.945630
O25	O	0.621611	-0.243945	0.747677
O26	O	1.121611	0.256055	1.247677
O27	O	0.548760	-0.243964	0.575791
O28	O	1.048760	0.256036	1.075791
O29	O	0.676832	-0.188764	0.747752
O30	O	1.176832	0.311236	1.247752
O31	O	0.676707	-0.316815	0.445556
O32	O	1.176707	0.183185	0.945556
O33	O	0.621540	-0.316797	0.575749
O34	O	1.121540	0.183203	1.075749
C35	C	0.532471	-0.216381	0.510704
C36	C	1.032471	0.283619	1.010704
C37	C	0.482536	-0.216390	0.510710
C38	C	0.982536	0.283610	1.010710
C39	C	0.649125	-0.333107	0.510660
C40	C	1.149125	0.166893	1.010660
C41	C	0.649136	-0.383041	0.510657
C42	C	1.149136	0.116959	1.010657
C43	C	0.172918	-0.187686	0.578680
C44	C	0.672918	0.312314	1.078680
C45	C	-0.014755	-0.187689	0.578710
C46	C	0.485245	0.312311	1.078710
O47	O	-0.038999	-0.163273	0.636450
O48	O	0.461001	0.336727	1.136450
N49	N	-0.038249	-0.216385	0.510788
N50	N	0.461751	0.283615	1.010788
C51	C	-0.014822	-0.245080	0.442850
C52	C	0.485178	0.254920	0.942850
O53	O	-0.039111	-0.269484	0.385071
O54	O	0.460889	0.230516	0.885071
C55	C	0.172851	-0.245074	0.442815
C56	C	0.672851	0.254926	0.942815
C57	C	0.196342	-0.216379	0.510748
C58	C	0.696342	0.283621	1.010748
C59	C	0.196409	-0.158993	0.646607
C60	C	0.696409	0.341007	1.146607
C61	C	0.243324	-0.158994	0.646602
C62	C	0.743324	0.341006	1.146602
C63	C	0.266749	-0.187688	0.578671
C64	C	0.766749	0.312312	1.078671
C65	C	0.243257	-0.216381	0.510744
C66	C	0.743257	0.283619	1.010744
C67	C	0.196277	-0.273767	0.374872
C68	C	0.696277	0.226233	0.874872
C69	C	0.243198	-0.273762	0.374867
C70	C	0.743198	0.226238	0.874867
C71	C	0.266690	-0.245067	0.442801
C72	C	0.766690	0.254933	0.942801
C73	C	0.313597	-0.245076	0.442809
C74	C	0.813597	0.254924	0.942809
N75	N	0.337091	-0.216380	0.510730
N76	N	0.837091	0.283620	1.010730
C77	C	0.313666	-0.187686	0.578661
C78	C	0.813666	0.312314	1.078661
C79	C	-0.113352	-0.245081	0.442874
C80	C	0.386648	0.254919	0.942874
C81	C	-0.160270	-0.245083	0.442884
C82	C	0.339730	0.254917	0.942884
C83	C	-0.160201	-0.187692	0.578743
C84	C	0.339799	0.312308	1.078743
C85	C	-0.113282	-0.187692	0.578738
C86	C	0.386718	0.312308	1.078738
C87	C	-0.089859	-0.216385	0.510796
C88	C	0.410141	0.283615	1.010796
C89	C	0.412192	-0.187691	0.578648
C90	C	0.912192	0.312309	1.078648
C91	C	0.459112	-0.187696	0.578641
C92	C	0.959112	0.312304	1.078641
C93	C	0.459038	-0.245086	0.442779
C94	C	0.959038	0.254914	0.942779
C95	C	0.412123	-0.245083	0.442789
C96	C	0.912123	0.254917	0.942789
C97	C	0.388701	-0.216382	0.510728
C98	C	0.888701	0.283618	1.010728
O99	O	0.337869	-0.269475	0.385091
O100	O	0.837869	0.230525	0.885091
O101	O	0.337964	-0.163278	0.636415
O102	O	0.837964	0.336722	1.136415
C103	C	0.126002	-0.187684	0.578684
C104	C	0.626002	0.312316	1.078684
C105	C	0.102511	-0.216377	0.510757
C106	C	0.602511	0.283623	1.010757
C107	C	0.125935	-0.245071	0.442826
C108	C	0.625935	0.254929	0.942826
C109	C	0.055593	-0.216379	0.510767
C110	C	0.555593	0.283621	1.010767
C111	C	0.032169	-0.187685	0.578698
C112	C	0.532169	0.312315	1.078698
C113	C	0.055663	-0.158989	0.646619
C114	C	0.555663	0.341011	1.146619
C115	C	0.102578	-0.158990	0.646615
C116	C	0.602578	0.341010	1.146615
C117	C	0.102442	-0.273767	0.374904
C118	C	0.602442	0.226233	0.874904
C119	C	0.055526	-0.273763	0.374915
C120	C	0.555526	0.226237	0.874915
C121	C	0.032102	-0.245070	0.442846
C122	C	0.532102	0.254930	0.942846
C123	C	0.677928	-0.692642	0.578660
C124	C	1.177928	-0.192642	1.078660
C125	C	0.677977	-0.880315	0.578724
C126	C	1.177977	-0.380315	1.078724
O127	O	0.702390	-0.904544	0.636476
O128	O	1.202390	-0.404544	1.136476
N129	N	0.649269	-0.903826	0.510867
N130	N	1.149269	-0.403826	1.010867
C131	C	0.620545	-0.880416	0.442995
C132	C	1.120545	-0.380416	0.942995
O133	O	0.596125	-0.904720	0.385288
O134	O	1.096125	-0.404720	0.885288
C135	C	0.620494	-0.692744	0.442937
C136	C	1.120494	-0.192744	0.942937
C137	C	0.649207	-0.669235	0.510791
C138	C	1.149207	-0.169235	1.010791
C139	C	0.706639	-0.669133	0.646509
C140	C	1.206639	-0.169133	1.146509
C141	C	0.706628	-0.622218	0.646488
C142	C	1.206628	-0.122218	1.146488
C143	C	0.677907	-0.598811	0.578619
C144	C	1.177907	-0.098811	1.078619
C145	C	0.649197	-0.622320	0.510770
C146	C	1.149197	-0.122320	1.010770
C147	C	0.591768	-0.669335	0.375071
C148	C	1.091768	-0.169335	0.875071
C149	C	0.591757	-0.622414	0.375065
C150	C	1.091757	-0.122414	0.875065
C151	C	0.620470	-0.598905	0.442918
C152	C	1.120470	-0.098905	0.942918
C153	C	0.620465	-0.551998	0.442880
C154	C	1.120465	-0.051998	0.942880
N155	N	0.649173	-0.528487	0.510736
N156	N	1.149173	-0.028487	1.010736
C157	C	0.677894	-0.551893	0.578606
C158	C	1.177894	-0.051893	1.078606
C159	C	0.620574	-0.978947	0.443028
C160	C	1.120574	-0.478947	0.943028
C161	C	0.620588	-1.025865	0.443041
C162	C	1.120588	-0.525865	0.943041
C163	C	0.678019	-1.025760	0.578772
C164	C	1.178019	-0.525760	1.078772
C165	C	0.678008	-0.978841	0.578753
C166	C	1.178008	-0.478841	1.078753
C167	C	0.649282	-0.955436	0.510885
C168	C	1.149282	-0.455436	1.010885
C169	C	0.677869	-0.453367	0.578557
C170	C	1.177869	0.046633	1.078557
C171	C	0.677857	-0.406448	0.578527
C172	C	1.177857	0.093552	1.078527
C173	C	0.620424	-0.406556	0.442801
C174	C	1.120424	0.093444	0.942801
C175	C	0.620438	-0.453472	0.442826
C176	C	1.120438	0.046528	0.942826
C177	C	0.649162	-0.476876	0.510713
C178	C	1.149162	0.023124	1.010713
O179	O	0.596061	-0.527740	0.385167
O180	O	1.096061	-0.027740	0.885167
O181	O	0.702303	-0.527581	0.636321
O182	O	1.202303	-0.027581	1.136321
C183	C	0.677939	-0.739557	0.578681
C184	C	1.177939	-0.239557	1.078681
C185	C	0.649229	-0.763066	0.510832
C186	C	1.149229	-0.263066	1.010832
C187	C	0.620508	-0.739659	0.442963
C188	C	1.120508	-0.239659	0.942963
C189	C	0.649242	-0.809984	0.510845
C190	C	1.149242	-0.309984	1.010845
C191	C	0.677963	-0.833391	0.578714
C192	C	1.177963	-0.333391	1.078714
C193	C	0.706671	-0.809880	0.646571
C194	C	1.206671	-0.309880	1.146571
C195	C	0.706660	-0.762964	0.646550
C196	C	1.206660	-0.262964	1.146550
C197	C	0.591800	-0.763171	0.375106
C198	C	1.091800	-0.263171	0.875106
C199	C	0.591813	-0.810086	0.375131
C200	C	1.091813	-0.310086	0.875131
C201	C	0.620535	-0.833493	0.443001
C202	C	1.120535	-0.333493	0.943001
C203	C	0.766371	-0.216388	0.510796
C204	C	1.266371	0.283612	1.010796
C205	C	0.816306	-0.216389	0.510815
C206	C	1.316306	0.283611	1.010815
C207	C	0.649226	-0.216349	0.787255
C208	C	1.149226	0.283651	1.287255
C209	C	0.649240	-0.216335	0.905085
C210	C	1.149240	0.283665	1.405085
C211	C	0.649274	-0.099206	0.510862
C212	C	1.149274	0.400794	1.010862
C213	C	0.649309	-0.049271	0.510911
C214	C	1.149309	0.450729	1.010911
C215	C	0.649186	-0.216386	0.235320
C216	C	1.149186	0.283614	0.735320
C217	C	0.649259	-0.216275	0.117490
C218	C	1.149259	0.283725	0.617490
C219	C	0.614394	-0.250885	1.072602
C220	C	1.114394	0.249115	1.572602
C221	C	0.614485	-0.251056	0.950042
C222	C	1.114485	0.248944	1.450042
C223	C	0.696573	-0.229181	0.949603
C224	C	1.196573	0.270819	1.449603
C225	C	0.696382	-0.229398	1.072201
C226	C	1.196382	0.270602	1.572201
C227	C	0.637202	-0.168744	1.072312
C228	C	1.137202	0.331256	1.572312
C229	C	0.636146	-0.169029	0.949705
C230	C	1.136146	0.330971	1.449705
H231	H	0.478236	-0.164329	0.633964
H232	H	0.978236	0.335671	1.133964
H233	H	0.478119	-0.268449	0.387473
H234	H	0.978119	0.231551	0.887473
H235	H	0.121700	-0.135624	0.701933
H236	H	0.621700	0.364376	1.201933
F237	F	0.589884	-0.478492	0.370596
F238	F	1.089884	0.021508	0.870596
H239	H	0.177342	-0.135624	0.701925
H240	H	0.677342	0.364376	1.201925
F241	F	0.731467	-0.197858	1.111021
F242	F	1.231467	0.302142	1.611021
F243	F	0.708567	-0.953826	0.650972
F244	F	1.208567	-0.453826	1.150972
H245	H	0.568364	-0.603359	0.319799
H246	H	1.068364	-0.103359	0.819799
H247	H	0.723246	-0.204769	0.920486
H248	H	1.223246	0.295231	1.420486
H249	H	-0.179281	-0.164328	0.634056
H250	H	0.320719	0.335672	1.134056
F251	F	0.737240	-0.834799	0.718799
F252	F	1.237240	-0.334799	1.218799
F253	F	0.710164	-0.274120	0.909466
F254	F	1.210164	0.225880	1.409466
F255	F	0.666918	-0.133542	0.909720
F256	F	1.166918	0.366458	1.409720
H257	H	0.603289	-0.157034	1.103219
H258	H	1.103289	0.342966	1.603219
F259	F	0.268320	-0.128452	0.718904
F260	F	0.768320	0.371548	1.218904
F261	F	0.737209	-0.694037	0.718755
F262	F	1.237209	-0.194037	1.218755
H263	H	0.662596	-0.142958	1.101345
H264	H	1.162596	0.357042	1.601345
F265	F	0.590615	-0.156368	0.911685
F266	F	1.090615	0.343632	1.411685
F267	F	0.127365	-0.304304	0.302589
F268	F	0.627365	0.195696	0.802589
H269	H	0.597211	-1.045001	0.387777
H270	H	1.097211	-0.545001	0.887777
H271	H	0.701406	-1.044826	0.634032
H272	H	1.201406	-0.544826	1.134032
H273	H	0.393128	-0.164318	0.633967
H274	H	0.893128	0.335682	1.133967
F275	F	0.030725	-0.128453	0.718920
F276	F	0.530725	0.371547	1.218920
H277	H	0.597041	-0.387491	0.387539
H278	H	1.097041	0.112509	0.887539
H279	H	0.597182	-0.959893	0.387759
H280	H	1.097182	-0.459893	0.887759
H281	H	-0.094158	-0.164325	0.634053
H282	H	0.405842	0.335675	1.134053
H283	H	-0.179393	-0.268454	0.387578
H284	H	0.320607	0.231546	0.887578
H285	H	0.568387	-0.688468	0.319817
H286	H	1.068387	-0.188468	0.819817
F287	F	0.737220	-0.737950	0.718771
F288	F	1.237220	-0.237950	1.218771
F289	F	-0.088429	-0.275619	0.370548
F290	F	0.411571	0.224381	0.870548
H291	H	0.568433	-0.829223	0.319867
H292	H	1.068433	-0.329223	0.819867
H293	H	0.706603	-0.264143	1.100791
H294	H	1.206603	0.235857	1.600791
H295	H	0.177159	-0.297132	0.319552
H296	H	0.677159	0.202868	0.819552
H297	H	0.579386	-0.243018	0.919941
H298	H	1.079386	0.256982	1.419941
H299	H	0.262267	-0.297127	0.319538
H300	H	0.762267	0.202873	0.819538
F301	F	0.387121	-0.275634	0.370514
F302	F	0.887121	0.224366	0.870514
H303	H	0.036403	-0.297134	0.319597
H304	H	0.536403	0.202866	0.819597
H305	H	0.568411	-0.744116	0.319840
H306	H	1.068411	-0.244116	0.819840
F307	F	0.708420	-0.381431	0.650747
F308	F	1.208420	0.118569	1.150747
H309	H	0.701256	-0.472418	0.633843
H310	H	1.201256	0.027582	1.133843
F311	F	0.568379	-0.240478	1.111117
F312	F	1.068379	0.259522	1.611117
H313	H	0.622275	-0.285901	1.103400
H314	H	1.122275	0.214099	1.603400
H315	H	0.622443	-0.286293	0.920707
H316	H	1.122443	0.213707	1.420707
H317	H	0.730007	-0.603080	0.701743
H318	H	1.230007	-0.103080	1.201743
