data_functionalizedCrystal
_audit_creation_method	'MofGen! by Chris Wilmer'
_symmetry_space_group_name_H-M	'P1'
_symmetry_Int_Tables_number	1
_symmetry_cell_setting	triclinic
loop_
_symmetry_equiv_pos_as_xyz
  x,y,z
_cell_length_a	13.897448
_cell_length_b	10.685969
_cell_length_c	13.897449
_cell_angle_alpha	94.372737
_cell_angle_beta	90.010270
_cell_angle_gamma	94.348258
loop_
_atom_site_label
_atom_site_type_symbol
_atom_site_fract_x
_atom_site_fract_y
_atom_site_fract_z
Zn1	Zn	-0.497105	-1.928901	0.432123
Zn2	Zn	0.002895	-1.428901	0.932123
Zn3	Zn	-0.658364	-1.928817	0.270830
Zn4	Zn	-0.158364	-1.428817	0.770830
Zn5	Zn	-0.484739	-1.717942	0.283229
Zn6	Zn	0.015261	-1.217942	0.783229
Zn7	Zn	-0.646004	-1.717863	0.444469
Zn8	Zn	-0.146004	-1.217863	0.944469
O9	O	-0.571553	-1.823381	0.357663
O10	O	-0.071553	-1.323381	0.857663
O11	O	-0.528844	-2.105461	0.400372
O12	O	-0.028844	-1.605461	0.900372
O13	O	-0.635330	-1.900841	0.137493
O14	O	-0.135330	-1.400841	0.637493
O15	O	-0.351402	-1.745994	0.303002
O16	O	0.148598	-1.245994	0.803002
O17	O	-0.647320	-2.105400	0.281870
O18	O	-0.147320	-1.605400	0.781870
O19	O	-0.360487	-1.900985	0.412395
O20	O	0.139513	-1.400985	0.912395
O21	O	-0.507769	-1.745912	0.146602
O22	O	-0.007769	-1.245912	0.646602
O23	O	-0.495784	-1.541359	0.314973
O24	O	0.004216	-1.041359	0.814973
O25	O	-0.626255	-1.745860	0.577813
O26	O	-0.126255	-1.245860	1.077813
O27	O	-0.614264	-1.541302	0.433435
O28	O	-0.114264	-1.041302	0.933435
O29	O	-0.516859	-1.900909	0.568743
O30	O	-0.016859	-1.400909	1.068743
O31	O	-0.791702	-1.900765	0.293841
O32	O	-0.291702	-1.400765	0.793841
O33	O	-0.782621	-1.745779	0.421413
O34	O	-0.282621	-1.245779	0.921413
C35	C	-0.552342	-1.495548	0.376890
C36	C	-0.052342	-0.995548	0.876890
C37	C	-0.544146	-1.355299	0.385138
C38	C	-0.044146	-0.855299	0.885138
C39	C	-0.822162	-1.823288	0.357640
C40	C	-0.322162	-1.323288	0.857640
C41	C	-0.929380	-1.823365	0.357656
C42	C	-0.429380	-1.323365	0.857656
C43	C	-1.125683	-1.823497	0.357709
C44	C	-0.625683	-1.323497	0.857709
C45	C	-1.016446	-1.823420	0.357683
C46	C	-0.516446	-1.323420	0.857683
C47	C	-0.319967	-1.823507	0.357704
C48	C	0.180033	-1.323507	0.857704
C49	C	-0.212757	-1.823561	0.357722
C50	C	0.287243	-1.323561	0.857722
C51	C	-0.571557	-1.823385	0.609255
C52	C	-0.071557	-1.323385	1.109255
C53	C	-0.571559	-1.823387	0.716469
C54	C	-0.071559	-1.323387	1.216469
C55	C	-0.590831	-1.152494	0.338350
C56	C	-0.090831	-0.652494	0.838350
C57	C	-0.599022	-1.292742	0.330092
C58	C	-0.099022	-0.792742	0.830092
C59	C	-0.571562	-1.823355	0.912766
C60	C	-0.071562	-1.323355	1.412766
C61	C	-0.571563	-1.823369	0.803533
C62	C	-0.071563	-1.323369	1.303533
C63	C	-0.571568	-1.823364	1.107049
C64	C	-0.071568	-1.323364	1.607049
C65	C	-0.571559	-1.823354	0.999836
C66	C	-0.071559	-1.323354	1.499836
H67	H	-0.490896	-1.301563	0.438581
H68	H	0.009104	-0.801563	0.938581
H69	H	-0.652284	-1.346485	0.276654
H70	H	-0.152284	-0.846485	0.776654
