data_functionalizedCrystal
_audit_creation_method	'MofGen! by Chris Wilmer'
_symmetry_space_group_name_H-M	'P1'
_symmetry_Int_Tables_number	1
_symmetry_cell_setting	triclinic
loop_
_symmetry_equiv_pos_as_xyz
  x,y,z
_cell_length_a	27.732064
_cell_length_b	27.732048
_cell_length_c	12.376457
_cell_angle_alpha	101.176348
_cell_angle_beta	78.808732
_cell_angle_gamma	82.646040
loop_
_atom_site_label
_atom_site_type_symbol
_atom_site_fract_x
_atom_site_fract_y
_atom_site_fract_z
O1	O	0.650242	0.048240	-0.093810
O2	O	0.983575	0.381574	0.239523
O3	O	1.316909	0.714907	0.572856
O4	O	0.509454	0.056973	-0.093859
O5	O	0.842788	0.390306	0.239475
O6	O	1.176121	0.723639	0.572808
O7	O	0.584219	-0.017788	-0.093812
O8	O	0.917552	0.315546	0.239522
O9	O	1.250885	0.648879	0.572855
O10	O	0.575478	0.123001	-0.093858
O11	O	0.908811	0.456334	0.239476
O12	O	1.242144	0.789667	0.572809
O13	O	0.565534	0.000877	0.094189
O14	O	0.898868	0.334211	0.427522
O15	O	1.232201	0.667544	0.760855
O16	O	0.490770	0.075638	0.094142
O17	O	0.824104	0.408971	0.427475
O18	O	1.157437	0.742304	0.760808
O19	O	0.631558	0.066905	0.094190
O20	O	0.964891	0.400239	0.427523
O21	O	1.298224	0.733572	0.760857
Zn22	Zn	0.558197	0.074235	0.124015
Zn23	Zn	0.891531	0.407568	0.457348
Zn24	Zn	1.224864	0.740901	0.790682
Zn25	Zn	0.582815	0.049643	-0.123684
Zn26	Zn	0.916148	0.382977	0.209650
Zn27	Zn	1.249481	0.716310	0.542983
O28	O	0.556794	0.141666	0.094143
O29	O	0.890127	0.474999	0.427476
O30	O	1.223460	0.808332	0.760809
C31	C	0.482106	0.066120	0.000136
C32	C	0.815439	0.399453	0.333469
C33	C	1.148773	0.732787	0.666802
C34	C	0.428453	0.065562	0.000118
C35	C	0.761787	0.398896	0.333452
C36	C	1.095120	0.732229	0.666785
C37	C	0.051373	0.017603	0.000198
C38	C	0.384706	0.350936	0.333532
C39	C	0.718039	0.684270	0.666865
C40	C	0.253036	0.019646	0.000168
C41	C	0.586369	0.352980	0.333501
C42	C	0.919703	0.686313	0.666835
O43	O	0.284283	-0.017569	0.000223
O44	O	0.617617	0.315764	0.333556
O45	O	0.950950	0.649097	0.666889
N46	N	0.272165	0.063979	0.000149
N47	N	0.605499	0.397312	0.333482
N48	N	0.938832	0.730645	0.666815
C49	C	0.240875	0.107804	0.000144
C50	C	0.574208	0.441137	0.333477
C51	C	0.907541	0.774471	0.666811
O52	O	0.261772	0.145559	0.000138
O53	O	0.595105	0.478893	0.333472
O54	O	0.928438	0.812226	0.666805
C55	C	0.039212	0.105761	0.000182
C56	C	0.372545	0.439094	0.333516
C57	C	0.705878	0.772428	0.666849
C58	C	0.020086	0.061425	0.000190
C59	C	0.353420	0.394758	0.333524
C60	C	0.686753	0.728091	0.666857
C61	C	0.032247	-0.026730	0.000208
C62	C	0.365580	0.306604	0.333541
C63	C	0.698913	0.639937	0.666874
C64	C	-0.018165	-0.027241	0.000209
C65	C	0.315168	0.306093	0.333542
C66	C	0.648501	0.639426	0.666876
C67	C	-0.049452	0.016581	0.000201
C68	C	0.283882	0.349914	0.333534
C69	C	0.617215	0.683248	0.666868
C70	C	-0.030326	0.060914	0.000192
C71	C	0.303007	0.394247	0.333525
C72	C	0.636341	0.727580	0.666858
C73	C	0.007921	0.149587	0.000186
C74	C	0.341255	0.482920	0.333519
C75	C	0.674588	0.816253	0.666852
C76	C	-0.042498	0.149072	0.000198
C77	C	0.290836	0.482406	0.333531
C78	C	0.624169	0.815739	0.666865
C79	C	-0.061623	0.104736	0.000206
C80	C	0.271711	0.438069	0.333540
C81	C	0.605044	0.771403	0.666873
C82	C	-0.112024	0.104224	0.000185
C83	C	0.221309	0.437558	0.333518
C84	C	0.554642	0.770891	0.666852
N85	N	-0.131154	0.059892	0.000205
N86	N	0.202180	0.393225	0.333538
N87	N	0.535513	0.726559	0.666871
C88	C	-0.099868	0.016070	0.000213
C89	C	0.233466	0.349404	0.333546
C90	C	0.566799	0.682737	0.666879
C91	C	0.346751	0.108873	0.000122
C92	C	0.680085	0.442207	0.333455
C93	C	1.013418	0.775540	0.666788
C94	C	0.397167	0.109384	0.000110
C95	C	0.730500	0.442717	0.333444
C96	C	1.063834	0.776051	0.666777
C97	C	0.409325	0.021226	0.000136
C98	C	0.742658	0.354560	0.333470
C99	C	1.075991	0.687893	0.666803
C100	C	0.358909	0.020715	0.000140
C101	C	0.692242	0.354049	0.333473
C102	C	1.025575	0.687382	0.666807
C103	C	0.327622	0.064541	0.000141
C104	C	0.660955	0.397874	0.333475
C105	C	0.994289	0.731208	0.666808
C106	C	-0.205737	0.015001	0.000214
C107	C	0.127596	0.348334	0.333548
C108	C	0.460929	0.681667	0.666881
C109	C	-0.256154	0.014493	0.000211
C110	C	0.077179	0.347826	0.333544
C111	C	0.410513	0.681160	0.666878
C112	C	-0.268308	0.102651	0.000191
C113	C	0.065026	0.435985	0.333524
C114	C	0.398359	0.769318	0.666857
C115	C	-0.217895	0.103158	0.000188
C116	C	0.115439	0.436492	0.333521
C117	C	0.448772	0.769825	0.666855
C118	C	-0.186611	0.059330	0.000204
C119	C	0.146723	0.392663	0.333537
C120	C	0.480056	0.725996	0.666870
O121	O	-0.143301	0.141421	0.000143
O122	O	0.190032	0.474755	0.333477
O123	O	0.523365	0.808088	0.666810
O124	O	-0.120776	-0.021677	0.000243
O125	O	0.212557	0.311656	0.333577
O126	O	0.545890	0.644990	0.666910
C127	C	0.101785	0.018114	0.000197
C128	C	0.435118	0.351447	0.333530
C129	C	0.768452	0.684781	0.666864
C130	C	0.120911	0.062447	0.000188
C131	C	0.454244	0.395780	0.333521
C132	C	0.787578	0.729113	0.666854
C133	C	0.089625	0.106268	0.000180
C134	C	0.422958	0.439602	0.333513
C135	C	0.756291	0.772935	0.666846
C136	C	0.171327	0.062957	0.000176
C137	C	0.504660	0.396291	0.333509
C138	C	0.837993	0.729624	0.666843
C139	C	0.202613	0.019136	0.000184
C140	C	0.535946	0.352469	0.333517
C141	C	0.869280	0.685802	0.666851
C142	C	0.183483	-0.025197	0.000204
C143	C	0.516817	0.308137	0.333537
C144	C	0.850150	0.641470	0.666870
C145	C	0.133071	-0.025708	0.000205
C146	C	0.466405	0.307626	0.333538
C147	C	0.799738	0.640959	0.666872
C148	C	0.108754	0.150601	0.000160
C149	C	0.442087	0.483934	0.333493
C150	C	0.775421	0.817267	0.666827
C151	C	0.159167	0.151108	0.000157
C152	C	0.492500	0.484441	0.333491
C153	C	0.825834	0.817775	0.666824
C154	C	0.190453	0.107286	0.000165
C155	C	0.523787	0.440620	0.333499
C156	C	0.857120	0.773953	0.666832
C157	C	0.574693	-0.026462	0.000192
C158	C	0.908026	0.306872	0.333525
C159	C	1.241359	0.640205	0.666858
C160	C	0.574139	-0.080116	0.000201
C161	C	0.907472	0.253218	0.333534
C162	C	1.240806	0.586551	0.666867
C163	C	0.614847	-0.418933	0.000157
C164	C	0.948180	-0.085600	0.333490
C165	C	1.281513	0.247734	0.666823
C166	C	0.612797	-0.620594	0.000140
C167	C	0.946131	-0.287261	0.333474
C168	C	1.279464	0.046072	0.666807
O169	O	0.650021	-0.651851	0.000103
O170	O	0.983355	-0.318518	0.333437
O171	O	1.316688	0.014815	0.666770
N172	N	0.568464	-0.639722	0.000126
N173	N	0.901797	-0.306389	0.333459
N174	N	1.235131	0.026945	0.666793
C175	C	0.524640	-0.608432	0.000109
C176	C	0.857974	-0.275098	0.333442
C177	C	1.191307	0.058235	0.666775
O178	O	0.486886	-0.629329	0.000085
O179	O	0.820220	-0.295996	0.333418
O180	O	1.153553	0.037337	0.666751
C181	C	0.526691	-0.406772	0.000117
C182	C	0.860024	-0.073439	0.333450
C183	C	1.193358	0.259895	0.666784
C184	C	0.571026	-0.387646	0.000143
C185	C	0.904360	-0.054313	0.333476
C186	C	1.237693	0.279020	0.666809
C187	C	0.659178	-0.399807	0.000181
C188	C	0.992512	-0.066473	0.333514
C189	C	1.325845	0.266860	0.666848
C190	C	0.659690	-0.349394	0.000191
C191	C	0.993023	-0.016060	0.333525
C192	C	1.326356	0.317273	0.666858
C193	C	0.615869	-0.318107	0.000177
C194	C	0.949203	0.015226	0.333511
C195	C	1.282536	0.348560	0.666844
C196	C	0.571538	-0.337233	0.000153
C197	C	0.904871	-0.003900	0.333486
C198	C	1.238204	0.329433	0.666820
C199	C	0.482869	-0.375484	0.000092
C200	C	0.816202	-0.042150	0.333425
C201	C	1.149536	0.291183	0.666758
C202	C	0.483386	-0.325066	0.000091
C203	C	0.816719	0.008267	0.333424
C204	C	1.150053	0.341600	0.666757
C205	C	0.527721	-0.305940	0.000116
C206	C	0.861054	0.027393	0.333450
C207	C	1.194388	0.360726	0.666783
C208	C	0.528228	-0.255534	0.000149
C209	C	0.861562	0.077800	0.333482
C210	C	1.194895	0.411133	0.666816
N211	N	0.572562	-0.236406	0.000163
N212	N	0.905895	0.096928	0.333497
N213	N	1.239228	0.430261	0.666830
C214	C	0.616382	-0.267692	0.000177
C215	C	0.949716	0.065641	0.333511
C216	C	1.283049	0.398974	0.666844
C217	C	0.523567	-0.714306	0.000107
C218	C	0.856900	-0.380973	0.333440
C219	C	1.190233	-0.047639	0.666773
C220	C	0.523054	-0.764720	0.000106
C221	C	0.856387	-0.431387	0.333440
C222	C	1.189720	-0.098054	0.666773
C223	C	0.611211	-0.776880	0.000136
C224	C	0.944544	-0.443546	0.333469
C225	C	1.277878	-0.110213	0.666803
C226	C	0.611723	-0.726464	0.000144
C227	C	0.945056	-0.393130	0.333477
C228	C	1.278389	-0.059797	0.666811
C229	C	0.567900	-0.695178	0.000121
C230	C	0.901234	-0.361845	0.333454
C231	C	1.234567	-0.028512	0.666787
C232	C	0.617452	-0.161821	0.000200
C233	C	0.950786	0.171512	0.333533
C234	C	1.284119	0.504846	0.666867
C235	C	0.617959	-0.111402	0.000215
C236	C	0.951293	0.221931	0.333548
C237	C	1.284626	0.555264	0.666881
C238	C	0.529803	-0.099248	0.000179
C239	C	0.863136	0.234085	0.333513
C240	C	1.196470	0.567418	0.666846
C241	C	0.529295	-0.149662	0.000170
C242	C	0.862628	0.183672	0.333504
C243	C	1.195962	0.517005	0.666837
C244	C	0.573124	-0.180948	0.000177
C245	C	0.906458	0.152386	0.333510
C246	C	1.239791	0.485719	0.666843
O247	O	0.491026	-0.224249	0.000173
O248	O	0.824359	0.109084	0.333506
O249	O	1.157692	0.442417	0.666840
O250	O	0.654133	-0.246788	0.000176
O251	O	0.987467	0.086546	0.333510
O252	O	1.320800	0.419879	0.666843
C253	C	0.614335	-0.469346	0.000146
C254	C	0.947669	-0.136012	0.333480
C255	C	1.281002	0.197321	0.666813
C256	C	0.570004	-0.488472	0.000122
C257	C	0.903337	-0.155139	0.333455
C258	C	1.236670	0.178195	0.666789
C259	C	0.526183	-0.457186	0.000108
C260	C	0.859517	-0.123852	0.333441
C261	C	1.192850	0.209481	0.666775
C262	C	0.569491	-0.538887	0.000122
C263	C	0.902824	-0.205553	0.333455
C264	C	1.236157	0.127780	0.666789
C265	C	0.613311	-0.570173	0.000136
C266	C	0.946645	-0.236840	0.333469
C267	C	1.279978	0.096493	0.666803
C268	C	0.657645	-0.551045	0.000150
C269	C	0.990978	-0.217712	0.333483
C270	C	1.324311	0.115621	0.666817
C271	C	0.658156	-0.500632	0.000160
C272	C	0.991489	-0.167299	0.333494
C273	C	1.324823	0.166034	0.666827
C274	C	0.481850	-0.476313	0.000094
C275	C	0.815183	-0.142980	0.333427
C276	C	1.148517	0.190353	0.666761
C277	C	0.481342	-0.526727	0.000085
C278	C	0.814675	-0.193393	0.333418
C279	C	1.148009	0.139940	0.666752
C280	C	0.525163	-0.558013	0.000099
C281	C	0.858496	-0.224680	0.333432
C282	C	1.191829	0.108653	0.666766
C283	C	0.658906	0.057758	0.000193
C284	C	0.992240	0.391091	0.333526
C285	C	1.325573	0.724425	0.666860
C286	C	0.712560	0.058315	0.000203
C287	C	1.045893	0.391648	0.333536
C288	C	1.379226	0.724981	0.666870
C289	C	0.566320	0.150340	0.000137
C290	C	0.899653	0.483673	0.333470
C291	C	1.232986	0.817006	0.666804
C292	C	0.566874	0.203993	0.000120
C293	C	0.900208	0.537326	0.333454
C294	C	1.233541	0.870660	0.666787
N295	N	0.541400	0.091018	0.293063
N296	N	0.874734	0.424351	0.626396
N297	N	1.208067	0.757684	0.959729
N298	N	0.599616	0.032857	-0.292731
N299	N	0.932949	0.366190	0.040602
N300	N	1.266282	0.699523	0.373935
C301	C	0.638607	-0.006111	0.648109
C302	C	0.971941	0.327222	0.981442
C303	C	1.305274	0.660555	1.314776
C304	C	0.650361	-0.017858	0.529776
C305	C	0.983694	0.315476	0.863110
C306	C	1.317028	0.648809	1.196443
C307	C	0.623122	0.009360	0.470592
C308	C	0.956455	0.342693	0.803925
C309	C	1.289788	0.676027	1.137259
C310	C	0.584127	0.048326	0.529752
C311	C	0.917460	0.381660	0.863085
C312	C	1.250794	0.714993	1.196419
C313	C	0.572375	0.060076	0.648096
C314	C	0.905708	0.393410	0.981429
C315	C	1.239041	0.726743	1.314763
C316	C	0.556889	0.075548	0.470579
C317	C	0.890222	0.408881	0.803913
C318	C	1.223556	0.742214	1.137246
C319	C	0.517894	0.114514	0.529739
C320	C	0.851228	0.447847	0.863072
C321	C	1.184561	0.781181	1.196406
C322	C	0.506144	0.126262	0.648071
C323	C	0.839477	0.459595	0.981405
C324	C	1.172810	0.792929	1.314738
C325	C	0.533383	0.099044	0.707256
C326	C	0.866716	0.432378	1.040589
C327	C	1.200050	0.765711	1.373922
C328	C	0.568641	0.063798	0.352235
C329	C	0.901975	0.397131	0.685569
C330	C	1.235308	0.730464	1.018902
C331	C	0.502409	0.129985	0.352222
C332	C	0.835742	0.463319	0.685556
C333	C	1.169075	0.796652	1.018889
C334	C	0.490655	0.141732	0.470555
C335	C	0.823988	0.475065	0.803888
C336	C	1.157322	0.808398	1.137221
H337	H	0.023484	0.185690	0.000174
H338	H	0.356818	0.519023	0.333507
H339	H	0.690151	0.852356	0.666841
F340	F	0.520872	0.111544	0.833201
F341	F	0.854205	0.444877	1.166534
F342	F	1.187539	0.778211	1.499867
F343	F	0.691860	-0.059326	0.466818
F344	F	1.025193	0.274008	0.800152
F345	F	1.358527	0.607341	1.133485
H346	H	0.458905	0.173459	0.518737
H347	H	0.792238	0.506793	0.852071
H348	H	1.125572	0.840126	1.185404
F349	F	0.475864	-0.785068	0.000099
F350	F	0.809198	-0.451735	0.333433
F351	F	1.142531	-0.118401	0.666766
H352	H	0.660785	-0.028266	0.696304
H353	H	0.994118	0.305067	1.029638
H354	H	1.327451	0.638401	1.362971
F355	F	0.657848	-0.810186	0.000149
F356	F	0.991182	-0.476853	0.333482
F357	F	1.324515	-0.143519	0.666815
F358	F	0.417518	0.156570	0.000080
F359	F	0.750851	0.489904	0.333413
F360	F	1.084185	0.823237	0.666747
F361	F	0.483168	-0.065942	0.000165
F362	F	0.816502	0.267391	0.333498
F363	F	1.149835	0.600725	0.666832
H364	H	0.474396	0.157994	0.696239
H365	H	0.807729	0.491327	1.029573
H366	H	1.141062	0.824661	1.362906
H367	H	0.174734	0.187214	0.000143
H368	H	0.508067	0.520547	0.333476
H369	H	0.841401	0.853880	0.666809
H370	H	0.480229	0.152150	0.304035
H371	H	0.813562	0.485483	0.637369
H372	H	1.146895	0.818816	0.970702
H373	H	0.343341	-0.015387	0.000147
H374	H	0.676674	0.317946	0.333481
H375	H	1.010007	0.651279	0.666814
F376	F	0.216790	-0.071835	0.000207
F377	F	0.550123	0.261498	0.333541
F378	F	0.883457	0.594831	0.666874
F379	F	-0.276504	-0.032698	0.000213
F380	F	0.056829	0.300635	0.333546
F381	F	0.390162	0.633968	0.666879
F382	F	0.704281	-0.584351	0.000171
F383	F	1.037614	-0.251018	0.333505
F384	F	1.370948	0.082315	0.666838
H385	H	0.600391	0.032071	0.304078
H386	H	0.933724	0.365405	0.637411
H387	H	1.267058	0.698738	0.970744
H388	H	-0.180271	-0.020689	0.000227
H389	H	0.153062	0.312644	0.333560
H390	H	0.486396	0.645978	0.666893
H391	H	-0.033733	-0.063343	0.000220
H392	H	0.299601	0.269990	0.333554
H393	H	0.632934	0.603323	0.666887
H394	H	0.057715	-0.062416	0.000218
H395	H	0.391049	0.270917	0.333551
H396	H	0.724382	0.604250	0.666884
F397	F	0.476921	-0.681015	0.000081
F398	F	0.810255	-0.347682	0.333415
F399	F	1.143588	-0.014349	0.666748
H400	H	0.434807	-0.014456	0.000139
H401	H	0.768141	0.318878	0.333472
H402	H	1.101474	0.652211	0.666805
F403	F	0.435208	-0.443022	0.000075
F404	F	0.768541	-0.109689	0.333409
F405	F	1.101874	0.223645	0.666742
F406	F	0.313460	0.155521	0.000117
F407	F	0.646793	0.488855	0.333450
F408	F	0.980126	0.822188	0.666783
H409	H	0.446767	-0.391047	0.000064
H410	H	0.780101	-0.057714	0.333397
H411	H	1.113434	0.275619	0.666731
F412	F	0.658910	-0.706113	0.000171
F413	F	0.992243	-0.372780	0.333504
F414	F	1.325576	-0.039446	0.666838
H415	H	-0.067970	0.184762	0.000204
H416	H	0.265363	0.518095	0.333538
H417	H	0.598697	0.851429	0.666871
F418	F	0.665149	-0.091051	0.000241
F419	F	0.998482	0.242283	0.333575
F420	F	1.331816	0.575616	0.666908
F421	F	0.635631	-0.003143	0.344652
F422	F	0.968964	0.330191	0.677985
F423	F	1.302298	0.663524	1.011318
H424	H	0.493191	-0.165231	0.000181
H425	H	0.826524	0.168102	0.333514
H426	H	1.159857	0.501435	0.666848
F427	F	-0.197538	0.150344	0.000164
F428	F	0.135795	0.483678	0.333498
F429	F	0.469129	0.817011	0.666831
F430	F	-0.301613	0.149286	0.000176
F431	F	0.031721	0.482620	0.333509
F432	F	0.365054	0.815953	0.666843
H433	H	0.083285	0.186287	0.000155
H434	H	0.416618	0.519620	0.333488
H435	H	0.749951	0.852953	0.666822
F436	F	0.112724	-0.072897	0.000209
F437	F	0.446057	0.260436	0.333542
F438	F	0.779391	0.593769	0.666876
H439	H	0.695792	-0.333827	0.000207
H440	H	1.029126	-0.000493	0.333541
H441	H	1.362459	0.332840	0.666874
F442	F	0.664100	-0.195111	0.000206
F443	F	0.997434	0.138222	0.333540
F444	F	1.330767	0.471556	0.666873
F445	F	0.436743	-0.291773	0.000063
F446	F	0.770076	0.041561	0.333397
F447	F	1.103409	0.374894	0.666730
F448	F	0.705823	-0.433098	0.000195
F449	F	1.039156	-0.099764	0.333528
F450	F	1.372489	0.233569	0.666862
H451	H	0.694258	-0.485065	0.000181
H452	H	1.027592	-0.151732	0.333514
H453	H	1.360925	0.181601	0.666848
H454	H	0.445235	-0.542293	0.000074
H455	H	0.778569	-0.208959	0.333407
H456	H	1.111902	0.124374	0.666741
