data_functionalizedCrystal
_audit_creation_method	'MofGen! by Chris Wilmer'
_symmetry_space_group_name_H-M	'P1'
_symmetry_Int_Tables_number	1
_symmetry_cell_setting	triclinic
loop_
_symmetry_equiv_pos_as_xyz
  x,y,z
_cell_length_a	13.897449
_cell_length_b	12.827885
_cell_length_c	12.827892
_cell_angle_alpha	89.969834
_cell_angle_beta	89.984680
_cell_angle_gamma	90.025625
loop_
_atom_site_label
_atom_site_type_symbol
_atom_site_fract_x
_atom_site_fract_y
_atom_site_fract_z
Zn1	Zn	-1.474714	-0.591019	-0.415982
Zn2	Zn	-0.974714	-0.091019	0.084018
Zn3	Zn	-1.474616	-0.416279	-0.590760
Zn4	Zn	-0.974616	0.083721	-0.090760
Zn5	Zn	-1.313404	-0.416274	-0.416034
Zn6	Zn	-0.813404	0.083726	0.083966
Zn7	Zn	-1.313391	-0.590960	-0.590682
Zn8	Zn	-0.813391	-0.090960	-0.090682
O9	O	-1.394031	-0.503633	-0.503365
O10	O	-0.894031	-0.003633	-0.003365
O11	O	-1.609682	-0.567866	-0.439178
O12	O	-1.109682	-0.067866	0.060822
O13	O	-1.453195	-0.270042	-0.567637
O14	O	-0.953195	0.229958	-0.067637
O15	O	-1.334849	-0.439477	-0.269791
O16	O	-0.834849	0.060523	0.230209
O17	O	-1.609610	-0.439485	-0.567587
O18	O	-1.109610	0.060515	-0.067587
O19	O	-1.453362	-0.567862	-0.269753
O20	O	-0.953362	-0.067862	0.230247
O21	O	-1.334754	-0.270039	-0.439266
O22	O	-0.834754	0.229961	0.060734
O23	O	-1.178421	-0.439420	-0.439190
O24	O	-0.678421	0.060580	0.060810
O25	O	-1.334827	-0.737204	-0.567453
O26	O	-0.834827	-0.237204	-0.067453
O27	O	-1.178411	-0.567761	-0.567503
O28	O	-0.678411	-0.067761	-0.067503
O29	O	-1.453350	-0.737247	-0.439102
O30	O	-0.953350	-0.237247	0.060898
O31	O	-1.453182	-0.439428	-0.736986
O32	O	-0.953182	0.060572	-0.236986
O33	O	-1.334731	-0.567766	-0.736928
O34	O	-0.834731	-0.067766	-0.236928
C35	C	-1.143417	-0.503584	-0.503344
C36	C	-0.643417	-0.003584	-0.003344
C37	C	-1.036203	-0.503588	-0.503361
C38	C	-0.536203	-0.003588	-0.003361
C39	C	-1.394098	-0.776203	-0.503263
C40	C	-0.894098	-0.276203	-0.003263
C41	C	-1.394126	-0.892357	-0.503220
C42	C	-0.894126	-0.392357	-0.003220
C43	C	-0.949133	-0.503601	-0.503363
C44	C	-0.449133	-0.003601	-0.003363
C45	C	-0.839901	-0.503627	-0.503368
C46	C	-0.339901	-0.003627	-0.003368
C47	C	-1.335496	-0.944120	-0.566706
C48	C	-0.835496	-0.444120	-0.066706
C49	C	-1.335524	-1.064170	-0.566663
C50	C	-0.835524	-0.564170	-0.066663
C51	C	-0.645624	-0.503670	-0.503381
C52	C	-0.145624	-0.003670	-0.003381
C53	C	-0.752838	-0.503654	-0.503378
C54	C	-0.252838	-0.003654	-0.003378
C55	C	-1.393971	-0.503614	-0.774875
C56	C	-0.893971	-0.003614	-0.274875
C57	C	-1.394033	-0.503640	-0.891028
C58	C	-0.894033	-0.003640	-0.391028
C59	C	-1.394021	-0.232123	-0.503390
C60	C	-0.894021	0.267877	-0.003390
C61	C	-1.394179	-0.115971	-0.503139
C62	C	-0.894179	0.384029	-0.003139
C63	C	-1.335537	-0.440108	-1.062959
C64	C	-0.835537	0.059892	-0.562959
C65	C	-1.335471	-0.440079	-0.942908
C66	C	-0.835471	0.059921	-0.442908
C67	C	-1.394118	-0.503675	-0.230794
C68	C	-0.894118	-0.003675	0.269206
C69	C	-1.394155	-0.503693	-0.114641
C70	C	-0.894155	-0.003693	0.385359
H71	H	-1.285283	-0.899559	-0.621095
H72	H	-0.785283	-0.399559	-0.121095
H73	H	-1.285289	-0.385636	-0.898463
H74	H	-0.785289	0.114364	-0.398463
Cl75	Cl	-1.471665	-0.961145	-0.419255
Cl76	Cl	-0.971665	-0.461145	0.080745
H77	H	-1.444225	-0.558078	-0.935467
H78	H	-0.944225	-0.058078	-0.435467
Cl79	Cl	-1.471679	-1.047255	-0.419209
Cl80	Cl	-0.971679	-0.547255	0.080791
H81	H	-1.285322	-1.108686	-0.621009
H82	H	-0.785322	-0.608686	-0.121009
Cl83	Cl	-1.258116	-0.356099	-1.131854
Cl84	Cl	-0.758116	0.143901	-0.631854
Cl85	Cl	-1.471561	-0.587719	-1.045746
Cl86	Cl	-0.971561	-0.087719	-0.545746
