data_functionalizedCrystal
_audit_creation_method	'MofGen! by Chris Wilmer'
_symmetry_space_group_name_H-M	'P1'
_symmetry_Int_Tables_number	1
_symmetry_cell_setting	triclinic
loop_
_symmetry_equiv_pos_as_xyz
  x,y,z
_cell_length_a	13.635800
_cell_length_b	11.102193
_cell_length_c	11.102291
_cell_angle_alpha	88.050288
_cell_angle_beta	108.605752
_cell_angle_gamma	71.396037
loop_
_atom_site_label
_atom_site_type_symbol
_atom_site_fract_x
_atom_site_fract_y
_atom_site_fract_z
V1	V	2.055765	-0.175855	0.396258
O2	O	2.035286	0.008434	0.388716
O3	O	2.044149	-0.348674	0.393548
O4	O	2.044157	-0.173157	0.569081
O5	O	2.035277	-0.168299	0.211968
V6	V	2.294316	-0.153811	0.374216
O7	O	2.193435	-0.224210	0.444611
O8	O	2.381745	-0.105456	0.325864
O9	O	2.194329	0.019009	0.376926
O10	O	2.373494	-0.338100	0.381759
O11	O	2.373502	-0.161367	0.558507
O12	O	2.194321	-0.156509	0.201394
V13	V	2.555765	-0.175855	0.396258
O14	O	2.535286	0.008434	0.388716
O15	O	2.544149	-0.348674	0.393548
O16	O	2.544157	-0.173157	0.569081
O17	O	2.535277	-0.168299	0.211968
V18	V	2.794316	-0.153811	0.374216
O19	O	2.693435	-0.224210	0.444611
O20	O	2.881745	-0.105456	0.325864
O21	O	2.694329	0.019009	0.376926
O22	O	2.873494	-0.338100	0.381759
O23	O	2.873502	-0.161367	0.558507
O24	O	2.694321	-0.156509	0.201394
C25	C	1.969303	-0.390804	0.387297
C26	C	2.000533	-0.532087	0.386232
C27	C	1.923204	-0.591993	0.379399
C28	C	1.952554	-0.724744	0.378402
C29	C	2.136569	-0.737671	0.391077
C30	C	2.107216	-0.604921	0.392065
C31	C	1.816520	-0.519159	0.373567
C32	C	1.739184	-0.579065	0.366735
C33	C	1.768534	-0.711816	0.365737
C34	C	1.875221	-0.784660	0.371572
C35	C	1.969313	-0.166912	0.611205
C36	C	2.000548	-0.165850	0.752488
C37	C	2.100846	0.061132	0.383174
C38	C	2.059236	0.202413	0.384247
C39	C	2.100836	-0.162757	0.159263
C40	C	2.059220	-0.163813	0.017979
C41	C	2.469303	-0.390804	0.387297
C42	C	2.500533	-0.532087	0.386232
C43	C	2.469313	-0.166912	0.611205
C44	C	2.500548	-0.165850	0.752488
C45	C	2.107225	-0.171689	0.825336
C46	C	2.136560	-0.170666	0.958082
C47	C	1.952532	-0.157969	0.945121
C48	C	1.923196	-0.158983	0.812375
C49	C	2.184576	-0.178556	0.765448
C50	C	2.291261	-0.184398	0.838296
C51	C	2.320597	-0.183375	0.971043
C52	C	2.243248	-0.176510	1.030940
C53	C	2.600846	0.061132	0.383174
C54	C	2.559236	0.202413	0.384247
C55	C	2.600836	-0.162757	0.159263
C56	C	2.559220	-0.163813	0.017979
C57	C	2.607225	-0.171689	0.825336
C58	C	2.636560	-0.170666	0.958082
C59	C	2.452532	-0.157969	0.945121
C60	C	2.423196	-0.158983	0.812375
C61	C	2.684576	-0.178556	0.765448
C62	C	2.791261	-0.184398	0.838296
C63	C	2.820597	-0.183375	0.971043
C64	C	2.743248	-0.176510	1.030940
C65	C	2.485118	-0.580317	0.269352
C66	C	2.514469	-0.713069	0.268367
C67	C	2.574646	-0.749351	0.501153
C68	C	2.545302	-0.616601	0.502137
C69	C	2.440348	-0.495802	0.153448
C70	C	2.424930	-0.544031	0.036558
C71	C	2.454281	-0.676783	0.035573
C72	C	2.499050	-0.761307	0.151477
H73	H	1.792612	-0.411066	0.374381
H74	H	1.705560	-0.760586	0.360164
Br75	Br	2.635399	-0.864059	0.658441
Br76	Br	2.566233	-0.551138	0.660763
H77	H	1.652319	-0.519745	0.361975
H78	H	2.160701	-0.179394	0.657360
Br79	Br	2.465376	-0.191287	1.069904
H80	H	2.354232	-0.189979	0.789518
H81	H	1.899095	-0.892743	0.370691
H82	H	2.223431	-0.796991	0.395825
H83	H	2.441735	-0.716047	-0.059604
Br84	Br	2.965376	-0.191287	1.069904
Br85	Br	2.283055	-0.175090	1.211092
Br86	Br	2.538899	-0.941473	0.150138
H87	H	2.389562	-0.152381	0.993900
Br88	Br	1.778409	-0.151032	0.713498
Br89	Br	2.212165	-0.523612	0.401349
Br90	Br	2.278409	-0.151032	0.713498
Br91	Br	2.644772	-0.179958	0.585295
Br92	Br	2.783055	-0.175090	1.211092
Br93	Br	2.400502	-0.315637	0.154777
H94	H	2.388485	-0.475204	-0.057807
H95	H	1.889562	-0.152381	0.993900
H96	H	2.854232	-0.189979	0.789518
