data_functionalizedCrystal
_audit_creation_method	'MofGen! by Chris Wilmer'
_symmetry_space_group_name_H-M	'P1'
_symmetry_Int_Tables_number	1
_symmetry_cell_setting	triclinic
loop_
_symmetry_equiv_pos_as_xyz
  x,y,z
_cell_length_a	10.654550
_cell_length_b	14.853567
_cell_length_c	9.730223
_cell_angle_alpha	89.999394
_cell_angle_beta	89.999957
_cell_angle_gamma	84.059930
loop_
_atom_site_label
_atom_site_type_symbol
_atom_site_fract_x
_atom_site_fract_y
_atom_site_fract_z
O1	O	1.666524	0.126626	-0.114175
O2	O	1.300920	0.138690	-0.114199
O3	O	1.493487	0.001480	-0.114190
O4	O	1.473956	0.263835	-0.114183
O5	O	1.493475	0.001477	0.114390
O6	O	1.300907	0.138686	0.114381
O7	O	1.666511	0.126622	0.114405
Zn8	Zn	1.483707	0.132654	0.150685
Zn9	Zn	1.483724	0.132659	-0.150479
O10	O	1.473943	0.263832	0.114397
C11	C	1.254125	0.137802	0.000088
C12	C	1.114709	0.135152	0.000078
C13	C	1.034384	0.215939	0.000084
C14	C	0.903389	0.213443	0.000108
C15	C	0.933057	0.049367	0.000114
C16	C	1.064049	0.051864	0.000100
C17	C	1.492596	-0.032115	0.000096
C18	C	1.489944	-0.132213	0.000084
C19	C	1.364344	-0.545419	0.000102
C20	C	1.593119	-0.565475	0.000116
C21	C	1.595613	-0.471428	0.000109
C22	C	1.482470	-0.414372	0.000099
C23	C	1.366834	-0.451363	0.000098
C24	C	1.711247	-0.434430	0.000124
C25	C	1.713745	-0.340378	0.000118
C26	C	1.600601	-0.283320	0.000098
C27	C	1.484961	-0.320316	0.000095
C28	C	1.371818	-0.263260	0.000086
C29	C	1.256176	-0.300254	0.000073
C30	C	1.253691	-0.394305	0.000079
C31	C	1.603087	-0.189269	0.000093
C32	C	1.374308	-0.169204	0.000082
C33	C	1.713306	0.127510	0.000116
C34	C	1.852722	0.130160	0.000116
C35	C	1.474835	0.297427	0.000108
C36	C	1.477487	0.397525	0.000111
N37	N	1.483705	0.132650	0.356222
N38	N	1.483735	0.132655	-0.356015
C39	C	1.569003	0.071919	0.428151
C40	C	1.569016	0.071919	0.572034
C41	C	1.398429	0.193389	0.572045
C42	C	1.398411	0.193383	0.428165
H43	H	1.164056	-0.253787	0.000075
C44	C	1.595957	-0.050638	0.266432
C45	C	1.662715	0.005113	0.349103
H46	H	1.653804	-0.091892	0.217640
H47	H	1.543615	-0.083368	0.322600
H48	H	1.545193	-0.014461	0.202974
H49	H	1.713473	-0.031064	0.412569
H50	H	1.715080	0.037845	0.292931
H51	H	1.328945	0.242838	0.369596
H52	H	1.803361	-0.480891	0.000144
C53	C	1.147918	-0.158826	0.000065
C54	C	1.249935	-0.106490	0.000074
H55	H	1.071137	-0.120108	0.000068
H56	H	1.151712	-0.195923	-0.079642
H57	H	1.151708	-0.195931	0.079780
H58	H	1.246150	-0.069390	-0.079647
H59	H	1.246140	-0.069378	0.079789
C60	C	1.849274	-0.246247	0.117615
C61	C	1.840854	-0.299717	0.000118
H62	H	1.927749	-0.221149	0.117612
H63	H	1.782257	-0.198811	0.117597
H64	H	1.843545	-0.282525	0.197322
H65	H	1.846573	-0.263437	-0.079590
H66	H	1.907889	-0.347159	0.000124
C67	C	1.738608	-0.095136	-0.117399
C68	C	1.730183	-0.148598	0.000108
H69	H	1.817074	-0.070025	-0.117384
H70	H	1.732900	-0.131415	-0.197091
H71	H	1.671573	-0.047701	-0.117398
H72	H	1.797213	-0.196037	0.000102
H73	H	1.735904	-0.112317	0.079821
C74	C	0.918010	-0.091250	-0.117385
C75	C	0.877369	-0.042181	0.000120
H76	H	0.883637	-0.147771	-0.117378
H77	H	0.890437	-0.057951	-0.197078
H78	H	1.007521	-0.101318	-0.117375
H79	H	0.787857	-0.032107	0.000105
H80	H	0.904934	-0.075488	0.079834
C81	C	1.324929	0.348970	0.616323
C82	C	1.304677	0.260150	0.651122
H83	H	1.267043	0.390186	0.665133
H84	H	1.408745	0.359321	0.639900
H85	H	1.312713	0.357644	0.520334
H86	H	1.316902	0.251475	0.747109
H87	H	1.220841	0.249796	0.627554
H88	H	1.638471	0.022466	0.630596
H89	H	0.837993	0.279228	0.000116
C90	C	1.049403	0.356562	-0.117421
C91	C	1.090066	0.307490	0.000075
H92	H	1.083770	0.413085	-0.117417
H93	H	1.076967	0.323268	-0.197120
H94	H	0.959891	0.366626	-0.117395
H95	H	1.179578	0.297420	0.000044
H96	H	1.062509	0.340792	0.079795
C97	C	1.278028	-0.017161	0.000085
C98	C	1.152356	-0.036944	0.000093
H99	H	1.332542	-0.071985	0.000092
H100	H	1.293386	0.016949	-0.079624
H101	H	1.293390	0.016958	0.079799
H102	H	1.136991	-0.071057	-0.079627
H103	H	1.136992	-0.071068	0.079810
C104	C	1.148298	-0.529571	0.000106
C105	C	1.126586	-0.434972	0.000085
H106	H	1.069828	-0.554677	0.000123
H107	H	1.194879	-0.549103	-0.079598
H108	H	1.194894	-0.549089	0.079824
H109	H	1.079997	-0.415453	-0.079639
H110	H	1.079985	-0.415432	0.079798
H111	H	1.270191	-0.575544	0.000086
H112	H	1.685234	-0.611935	0.000135
