data_functionalizedCrystal
_audit_creation_method	'MofGen! by Chris Wilmer'
_symmetry_space_group_name_H-M	'P1'
_symmetry_Int_Tables_number	1
_symmetry_cell_setting	triclinic
loop_
_symmetry_equiv_pos_as_xyz
  x,y,z
_cell_length_a	16.994730
_cell_length_b	19.805407
_cell_length_c	19.805399
_cell_angle_alpha	90.019573
_cell_angle_beta	90.054663
_cell_angle_gamma	90.047319
loop_
_atom_site_label
_atom_site_type_symbol
_atom_site_fract_x
_atom_site_fract_y
_atom_site_fract_z
Zn1	Zn	0.314047	1.035083	0.383107
Zn2	Zn	0.445955	1.035143	0.270081
Zn3	Zn	0.314069	0.921897	0.269931
Zn4	Zn	0.445913	0.922006	0.383228
O5	O	0.379996	0.978532	0.326587
O6	O	0.331553	1.129807	0.368125
O7	O	0.428487	1.020100	0.175344
O8	O	0.203684	0.936841	0.284831
O9	O	0.428465	1.129852	0.285086
O10	O	0.203668	1.019997	0.367980
O11	O	0.331590	0.936899	0.175234
O12	O	0.331550	0.827195	0.284948
O13	O	0.428394	0.937027	0.477928
O14	O	0.428415	0.827275	0.368187
O15	O	0.331512	1.020103	0.477839
O16	O	0.556331	1.020206	0.285203
O17	O	0.556300	0.937085	0.368332
C18	C	0.379981	0.802676	0.326565
C19	C	0.379993	0.727444	0.326571
C20	C	0.430507	0.692160	0.369844
C21	C	0.430508	0.621471	0.369853
C22	C	0.379999	0.586069	0.326587
C23	C	0.329480	0.621358	0.283312
C24	C	0.329475	0.692045	0.283307
C25	C	0.329497	0.336285	0.283335
C26	C	0.329508	0.265593	0.283342
C27	C	0.430531	0.265711	0.369881
C28	C	0.430526	0.336398	0.369876
C29	C	0.380004	0.371681	0.326604
C30	C	0.380002	0.448330	0.326595
C31	C	0.380005	0.509422	0.326592
C32	C	0.674256	0.978546	0.326662
C33	C	0.584934	0.978613	0.326744
C34	C	0.174255	0.978395	0.326374
C35	C	0.084933	0.978338	0.326282
Zn36	Zn	0.944886	0.921748	0.269825
Zn37	Zn	0.945381	1.035022	0.382912
Zn38	Zn	0.813306	0.921939	0.383131
Zn39	Zn	0.813209	1.034987	0.269896
O40	O	0.879195	0.978424	0.326441
O41	O	1.055332	0.936709	0.284704
O42	O	0.928108	1.020115	0.477657
O43	O	0.830593	0.827197	0.368163
O44	O	1.055696	1.019931	0.367789
O45	O	0.927264	0.827057	0.284917
O46	O	0.831073	0.937034	0.477819
O47	O	0.702912	0.937000	0.368232
O48	O	0.830429	1.019872	0.175170
O49	O	0.702841	1.020056	0.285039
O50	O	0.927171	0.936676	0.175118
O51	O	0.928015	1.129734	0.367858
O52	O	0.830909	1.129708	0.284826
C53	C	0.379946	0.978570	0.503129
C54	C	0.379925	0.978586	0.578361
C55	C	0.380012	1.155075	0.326609
C56	C	0.380018	1.230307	0.326618
C57	C	0.379988	0.978533	0.150731
C58	C	0.379787	0.978648	0.075499
C59	C	0.329476	1.021845	0.613660
C60	C	0.329453	1.021852	0.684349
C61	C	0.379884	0.978603	0.719737
C62	C	0.430335	0.935339	0.684433
C63	C	0.430353	0.935330	0.613746
C64	C	0.430261	0.935378	0.969506
C65	C	0.430241	0.935392	1.040198
C66	C	0.329362	1.021900	1.040109
C67	C	0.329380	1.021890	0.969422
C68	C	0.379827	0.978624	0.934124
C69	C	0.379851	0.978617	0.857476
C70	C	0.379865	0.978614	0.796384
C71	C	0.879507	1.154280	0.326328
C72	C	0.879664	1.229512	0.326299
C73	C	0.878734	0.978249	0.149898
C74	C	0.878537	0.978174	0.074666
C75	C	0.878884	0.801881	0.326556
C76	C	0.878752	0.726650	0.326605
C77	C	0.879699	0.978551	0.502297
C78	C	0.880047	0.978436	0.577528
C79	C	0.930342	1.264835	0.369481
C80	C	0.930505	1.335524	0.369455
C81	C	0.879984	1.370888	0.326249
C82	C	0.829304	1.335560	0.283062
C83	C	0.829146	1.264872	0.283086
C84	C	0.928814	0.934818	0.039305
C85	C	0.928629	0.934734	-0.031383
C86	C	0.878172	0.978010	-0.066709
C87	C	0.827890	1.021368	-0.031343
C88	C	0.828071	1.021448	0.039344
C89	C	0.828352	0.691389	0.369970
C90	C	0.828212	0.620700	0.370017
C91	C	0.878476	0.585274	0.326701
C92	C	0.928878	0.620540	0.283331
C93	C	0.929014	0.691227	0.283282
C94	C	0.829323	0.935437	0.612913
C95	C	0.829649	0.935317	0.683601
C96	C	0.880694	0.978199	0.718903
C97	C	0.931422	1.021201	0.683514
C98	C	0.931100	1.021317	0.612827
H99	H	0.471665	0.236975	0.405117
O100	O	0.484628	0.888733	1.078366
H101	H	0.524763	0.919053	1.110614
H102	H	0.969905	0.899576	0.068059
O103	O	0.773475	1.068045	-0.069454
H104	H	0.738536	1.098209	-0.032995
H105	H	0.471640	0.720979	0.405074
O106	O	0.984838	1.226684	0.416070
H107	H	1.024771	1.194422	0.385695
H108	H	0.471643	0.592746	0.405089
O109	O	0.484676	0.888716	0.931444
H110	H	0.476214	0.895965	0.876345
H111	H	0.971774	1.364278	0.404625
H112	H	0.471393	0.900123	0.713252
O113	O	0.983088	0.582323	0.236614
H114	H	1.045052	0.595859	0.248144
O115	O	0.983385	0.729252	0.236511
H116	H	0.948060	0.761443	0.202083
H117	H	0.471426	0.900097	0.585006
O118	O	0.774266	0.889180	0.574844
H119	H	0.739061	0.859259	0.611334
H120	H	0.787873	1.236118	0.247924
O121	O	0.880157	1.447130	0.326226
H122	H	0.923884	1.465745	0.363518
H123	H	0.471658	0.365219	0.405105
O124	O	0.774809	1.373705	0.236469
H125	H	0.783432	1.428791	0.243720
O126	O	0.774923	0.888944	0.721764
H127	H	0.739366	0.859158	0.685336
H128	H	0.880947	0.978099	0.776461
O129	O	0.275021	0.227404	0.236680
H130	H	0.239882	0.263814	0.206595
O131	O	0.773852	1.068222	0.077482
H132	H	0.738746	1.098303	0.041036
O133	O	0.275018	0.374343	0.236663
H134	H	0.310274	0.406565	0.202222
H135	H	0.969575	0.899425	-0.060168
O136	O	0.878001	0.977929	-0.142951
H137	H	0.861936	0.926865	-0.161539
H138	H	0.972983	1.056113	0.712268
H139	H	0.787418	0.720224	0.405244
H140	H	0.787168	0.591997	0.405336
O141	O	0.878331	0.509032	0.326760
H142	H	0.834843	0.490470	0.364199
O143	O	0.985798	1.067714	0.574670
H144	H	1.047648	1.055674	0.588062
O145	O	0.275022	0.583168	0.236635
H146	H	0.234944	0.550931	0.266933
O147	O	0.275002	0.730108	0.236627
H148	H	0.239888	0.693616	0.206535
O149	O	0.275083	1.068493	0.575492
H150	H	0.239994	1.098570	0.611916
H151	H	0.288375	1.057080	0.713086
H152	H	0.288282	1.057127	1.068857
O153	O	0.274989	1.068538	0.931251
H154	H	0.239899	1.098617	0.967673
