data_functionalizedCrystal
_audit_creation_method	'MofGen! by Chris Wilmer'
_symmetry_space_group_name_H-M	'P1'
_symmetry_Int_Tables_number	1
_symmetry_cell_setting	triclinic
loop_
_symmetry_equiv_pos_as_xyz
  x,y,z
_cell_length_a	14.628931
_cell_length_b	14.628931
_cell_length_c	14.628931
_cell_angle_alpha	89.999882
_cell_angle_beta	60.000164
_cell_angle_gamma	60.000000
loop_
_atom_site_label
_atom_site_type_symbol
_atom_site_fract_x
_atom_site_fract_y
_atom_site_fract_z
Zr1	Zr	1.000576	0.880620	-0.119960
O2	O	1.191281	0.734660	-0.265920
O3	O	0.809871	0.925364	-0.075216
O4	O	1.000576	0.925365	-0.265921
O5	O	1.000577	0.734659	0.075216
O6	O	1.000576	1.075797	-0.265921
O7	O	1.000576	0.734659	-0.075215
O8	O	0.659440	1.075796	0.075215
O9	O	1.341712	0.734660	-0.265920
O10	O	0.888311	1.056713	-0.056133
O11	O	0.888311	0.944447	0.056133
O12	O	1.112841	0.944448	-0.168398
O13	O	1.112842	0.832182	-0.056132
Zr14	Zr	1.000577	1.120541	0.119960
Zr15	Zr	1.000576	1.120541	-0.119961
Zr16	Zr	1.000577	0.880620	0.119961
Zr17	Zr	1.240497	0.880620	-0.119960
Zr18	Zr	0.760656	1.120541	0.119960
O19	O	1.191282	1.075797	0.075216
O20	O	1.191281	1.075797	-0.265921
O21	O	1.191282	0.734659	0.075217
O22	O	0.809872	1.266501	0.265920
O23	O	0.809871	1.266502	-0.075217
O24	O	0.809872	0.925364	0.265921
O25	O	1.000576	1.266502	-0.075216
O26	O	1.000577	1.075796	0.265921
O27	O	1.000577	0.925364	0.265921
O28	O	1.000577	1.266502	0.075215
O29	O	1.341712	0.925366	-0.265920
O30	O	0.659440	1.075795	0.265920
O31	O	0.659440	1.266501	0.265920
O32	O	0.659440	1.266501	0.075215
O33	O	1.341713	0.734660	-0.075215
O34	O	1.341713	0.925365	-0.075215
O35	O	0.888312	1.056713	0.168398
O36	O	0.888311	1.168979	0.056132
O37	O	1.112842	1.056714	-0.056133
O38	O	1.112842	0.944448	0.056133
C39	C	0.700472	1.000580	-0.000001
C40	C	0.598619	1.000580	-0.000001
C41	C	1.000576	0.700475	0.000001
C42	C	1.000576	0.598622	0.000001
C43	C	0.474451	1.079339	0.078758
C44	C	0.369179	1.079340	0.078760
C45	C	1.000576	0.553213	-0.078758
C46	C	1.000576	0.447943	-0.078760
C47	C	1.300681	1.000581	0.000001
C48	C	1.402534	1.000581	0.000001
C49	C	1.000576	1.000581	-0.300105
C50	C	1.000575	1.000581	-0.401958
C51	C	1.000576	1.300686	-0.000001
C52	C	1.000576	1.402539	-0.000001
C53	C	1.111957	0.944890	-0.503058
C54	C	1.111960	0.944889	-0.608329
C55	C	1.000577	1.000580	0.300105
C56	C	1.000578	1.000580	0.401958
C57	C	0.700472	1.300685	-0.000001
C58	C	0.598619	1.402538	-0.000002
C59	C	0.700473	1.000579	0.300104
C60	C	0.598620	1.000579	0.401957
C61	C	0.700473	1.300685	0.300104
C62	C	0.598620	1.402537	0.401956
C63	C	1.300680	0.700476	-0.300104
C64	C	1.402533	0.598624	-0.401956
C65	C	1.300681	0.700476	0.000001
C66	C	1.402534	0.598623	0.000002
C67	C	1.300680	1.000582	-0.300104
C68	C	1.402533	1.000582	-0.401957
C69	C	0.553210	1.392256	-0.055693
C70	C	0.447940	1.497525	-0.055695
C71	C	0.553211	1.056270	0.503057
C72	C	0.447942	1.056271	0.608328
C73	C	0.553211	1.503638	0.391674
C74	C	0.447941	1.608909	0.496942
H75	H	0.446082	1.146763	0.146189
C76	C	0.546576	1.391195	0.517674
C77	C	0.569822	1.442793	0.576002
C78	C	0.521885	1.432377	0.682609
H79	H	0.588656	1.314166	0.510636
H80	H	0.456195	1.426180	0.557472
H81	H	0.660187	1.407806	0.536214
H82	H	0.527741	1.519826	0.583071
H83	H	0.431503	1.467361	0.722407
H84	H	0.563969	1.355346	0.675560
H85	H	0.537639	1.467393	0.722202
C86	C	0.605414	1.276638	-0.119476
C87	C	0.660445	1.264462	-0.233077
C88	C	0.708558	1.157966	-0.291871
H89	H	0.536854	1.268070	-0.090687
H90	H	0.669304	1.221218	-0.111102
H91	H	0.596560	1.319866	-0.241444
H92	H	0.729019	1.273007	-0.261899
H93	H	0.772449	1.102546	-0.283497
H94	H	0.639991	1.149408	-0.263072
H95	H	0.745912	1.149687	-0.368956
C96	C	0.395999	1.724453	0.485191
C97	C	0.458274	1.713534	0.371517
C98	C	0.410445	1.819952	0.360648
H99	H	0.411661	1.764289	0.520038
H100	H	0.305643	1.764207	0.520068
H101	H	0.548609	1.673797	0.336654
H102	H	0.442618	1.673717	0.336646
H103	H	0.320088	1.859706	0.395525
H104	H	0.426109	1.859779	0.395500
H105	H	0.452682	1.812557	0.283521
H106	H	0.592272	1.512261	0.304938
C107	C	0.546311	1.518215	0.063746
C108	C	0.413150	1.576524	0.145355
C109	C	0.364924	1.683083	0.204112
H110	H	0.561855	1.558092	0.013254
H111	H	0.588371	1.511065	0.098756
H112	H	0.371103	1.583679	0.110346
H113	H	0.397570	1.536681	0.195870
H114	H	0.406984	1.675932	0.239122
H115	H	0.380478	1.722949	0.153612
H116	H	0.274573	1.722655	0.259497
H117	H	1.000583	0.408890	-0.146193
H118	H	0.408885	1.488896	-0.103370
H119	H	0.441576	0.952904	0.511315
C120	C	1.238983	0.881425	-0.724067
C121	C	1.213732	0.894073	-0.805471
C122	C	1.330718	0.835638	-0.912105
H123	H	1.287268	0.804280	-0.732680
H124	H	1.287177	0.910370	-0.732577
H125	H	1.165559	0.865124	-0.796966
H126	H	1.165466	0.971205	-0.796895
H127	H	1.378912	0.864582	-0.920614
H128	H	1.378994	0.758496	-0.920705
H129	H	1.313601	0.844220	-0.967350
H130	H	0.408890	1.103952	0.695058
C131	C	0.227133	1.169127	0.168612
C132	C	0.150959	1.151256	0.150772
C133	C	0.020097	1.233938	0.233533
H134	H	0.208522	1.240747	0.165275
H135	H	0.208642	1.165700	0.240196
H136	H	0.169443	1.154693	0.079206
H137	H	0.169530	1.079651	0.154120
H138	H	0.001606	1.230511	0.305118
H139	H	0.001499	1.305553	0.230189
H140	H	-0.031603	1.221818	0.221446
C141	C	0.605400	1.119827	0.514333
C142	C	0.699406	1.107222	0.407677
C143	C	0.747495	1.165768	0.418025
H144	H	0.642874	1.090966	0.554005
H145	H	0.536774	1.196966	0.554016
H146	H	0.768020	1.030098	0.368010
H147	H	0.661963	1.136088	0.367987
H148	H	0.678869	1.242907	0.457708
H149	H	0.784962	1.136902	0.457700
H150	H	0.811274	1.157232	0.345662
H151	H	0.509011	0.933153	-0.067434
C152	C	0.636723	0.910538	-0.089977
C153	C	0.771678	0.837862	-0.162622
C154	C	0.806832	0.754892	-0.245515
H155	H	0.602907	0.944491	-0.130982
H156	H	0.602854	0.869586	-0.055918
H157	H	0.805533	0.878809	-0.196679
H158	H	0.805526	0.803882	-0.121650
H159	H	0.772963	0.713939	-0.211457
H160	H	0.773008	0.788854	-0.286512
H161	H	0.898401	0.705565	-0.294809
H162	H	0.441572	1.607257	0.047687
H163	H	1.000569	0.592273	-0.146184
C164	C	1.000513	0.546749	0.090041
C165	C	1.000483	0.609059	0.162718
C166	C	1.000409	0.561318	0.245687
H167	H	1.075471	0.471929	0.056088
H168	H	0.925503	0.546938	0.130994
H169	H	1.075486	0.608858	0.121771
H170	H	0.925531	0.683878	0.196698
H171	H	0.925398	0.561506	0.286640
H172	H	1.075368	0.486498	0.211724
H173	H	1.000376	0.603593	0.295014
H174	H	1.000584	0.441579	0.067428
H175	H	1.207314	0.897217	-0.511678
H176	H	0.905214	1.048256	-0.511316
H177	H	0.905219	1.048263	-0.393338
C178	C	0.546599	0.936887	0.390602
C179	C	0.569860	0.855311	0.442196
C180	C	0.521955	0.796616	0.431761
H181	H	0.588691	0.901846	0.313570
H182	H	0.456217	0.987456	0.425581
H183	H	0.660225	0.804750	0.407214
H184	H	0.527768	0.890322	0.519231
H185	H	0.431573	0.847185	0.466740
H186	H	0.564051	0.761581	0.354728
H187	H	0.537720	0.741267	0.466774
H188	H	0.441575	1.511895	0.606674
