data_functionalizedCrystal
_audit_creation_method	'MofGen! by Chris Wilmer'
_symmetry_space_group_name_H-M	'P1'
_symmetry_Int_Tables_number	1
_symmetry_cell_setting	triclinic
loop_
_symmetry_equiv_pos_as_xyz
  x,y,z
_cell_length_a	8.597213
_cell_length_b	15.625429
_cell_length_c	7.681452
_cell_angle_alpha	101.571829
_cell_angle_beta	91.324399
_cell_angle_gamma	82.361559
loop_
_atom_site_label
_atom_site_type_symbol
_atom_site_fract_x
_atom_site_fract_y
_atom_site_fract_z
O1	O	2.035297	0.106941	0.523471
O2	O	1.583808	0.120423	0.463588
O3	O	1.828848	-0.013323	0.415363
O4	O	1.790258	0.240687	0.571696
O5	O	1.854179	0.001427	0.135766
O6	O	1.609140	0.135172	0.183990
O7	O	2.060629	0.121690	0.243874
Zn8	Zn	1.838906	0.130773	0.169540
Zn9	Zn	1.805531	0.111340	0.537922
O10	O	1.815590	0.255436	0.292099
C11	C	1.538828	0.127172	0.314644
C12	C	1.367063	0.125295	0.287390
C13	C	1.842279	-0.038456	0.254927
C14	C	1.844543	-0.135321	0.193433
C15	C	1.782906	-0.494093	0.753161
C16	C	1.785030	-0.585109	0.695325
C17	C	1.812646	-0.569016	0.390527
C18	C	1.810531	-0.477998	0.448339
C19	C	1.795659	-0.440544	0.629657
C20	C	1.823285	-0.424449	0.324835
C21	C	1.821162	-0.333438	0.382642
C22	C	1.806286	-0.295976	0.563952
C23	C	1.793537	-0.349533	0.687464
C24	C	1.838146	-0.461904	0.143516
C25	C	1.850899	-0.408354	0.020012
C26	C	1.848788	-0.317343	0.077820
C27	C	1.833912	-0.279881	0.259130
C28	C	1.861537	-0.263786	-0.045692
C29	C	1.859415	-0.172775	0.012115
C30	C	1.831789	-0.188870	0.316937
C31	C	2.105608	0.114941	0.392821
C32	C	2.277373	0.116817	0.420087
C33	C	1.802157	0.280569	0.452538
C34	C	1.799893	0.377433	0.514043
N35	N	1.861696	0.144035	-0.081870
N36	N	1.782754	0.098071	0.789329
H37	H	1.804542	-0.221868	0.611014
H38	H	1.942279	0.190948	-0.114890
H39	H	1.873630	-0.294294	-0.193324
H40	H	1.312436	0.131122	0.152930
H41	H	1.770810	-0.463597	0.900810
O42	O	1.686480	0.042222	-0.171040
C43	C	1.568785	0.090013	-0.051804
H44	H	1.611120	0.153420	0.022559
H45	H	1.542269	0.048449	0.047343
H46	H	1.457797	0.106814	-0.128894
O47	O	1.778842	-0.313148	0.863584
C48	C	1.636454	-0.330514	0.928085
H49	H	1.551056	-0.344016	0.813143
H50	H	1.583664	-0.271017	1.030451
H51	H	1.659501	-0.390551	0.992817
H52	H	1.869767	-0.129171	-0.088458
H53	H	1.824749	-0.599524	0.242896
O54	O	1.342666	0.109997	0.580484
C55	C	1.413496	0.186059	0.649227
H56	H	1.442275	0.218477	0.535649
H57	H	1.526111	0.166927	0.721489
H58	H	1.329382	0.234276	0.746130
O59	O	1.839938	-0.550303	0.087515
C60	C	1.698502	-0.575335	0.137592
H61	H	1.644406	-0.524339	0.255208
H62	H	1.723351	-0.642388	0.176978
H63	H	1.613381	-0.579519	0.021085
H64	H	1.819693	-0.158374	0.464586
O65	O	1.772844	-0.637215	0.815191
C66	C	1.907780	-0.700100	0.805148
H67	H	1.964965	-0.710033	0.668892
H68	H	1.873141	-0.765295	0.825860
H69	H	1.994346	-0.675823	0.912566
O70	O	1.865566	-0.444654	-0.156137
C71	C	2.008010	-0.427302	-0.220528
H72	H	2.047393	-0.366767	-0.130486
H73	H	1.990325	-0.414628	-0.361165
H74	H	2.101494	-0.486478	-0.222003
