data_functionalizedCrystal
_audit_creation_method	'MofGen! by Chris Wilmer'
_symmetry_space_group_name_H-M	'P1'
_symmetry_Int_Tables_number	1
_symmetry_cell_setting	triclinic
loop_
_symmetry_equiv_pos_as_xyz
  x,y,z
_cell_length_a	11.792241
_cell_length_b	14.472311
_cell_length_c	11.792241
_cell_angle_alpha	89.990191
_cell_angle_beta	95.806584
_cell_angle_gamma	89.999892
loop_
_atom_site_label
_atom_site_type_symbol
_atom_site_fract_x
_atom_site_fract_y
_atom_site_fract_z
O1	O	1.506907	0.076752	-0.155576
O2	O	1.840241	0.410085	0.177757
O3	O	2.173574	0.743418	0.511091
O4	O	1.176566	0.076773	-0.171609
O5	O	1.509900	0.410106	0.161724
O6	O	1.843233	0.743440	0.495058
O7	O	1.349753	0.076755	0.001578
O8	O	1.683087	0.410089	0.334911
O9	O	2.016420	0.743422	0.668245
O10	O	1.333720	0.076769	-0.328763
O11	O	1.667054	0.410103	0.004570
O12	O	2.000387	0.743436	0.337904
O13	O	1.349741	-0.076927	0.001600
O14	O	1.683074	0.256407	0.334933
O15	O	2.016408	0.589740	0.668267
O16	O	1.176554	-0.076909	-0.171587
O17	O	1.509887	0.256424	0.161746
O18	O	1.843221	0.589758	0.495080
O19	O	1.506895	-0.076930	-0.155554
O20	O	1.840228	0.256403	0.177779
O21	O	2.173562	0.589736	0.511113
Cu22	Cu	1.341724	-0.090952	-0.163569
Cu23	Cu	1.675057	0.242381	0.169765
Cu24	Cu	2.008390	0.575715	0.503098
Cu25	Cu	1.341738	0.090795	-0.163595
Cu26	Cu	1.675071	0.424128	0.169739
Cu27	Cu	2.008404	0.757461	0.503072
O28	O	1.333708	-0.076913	-0.328741
O29	O	1.667041	0.256421	0.004592
O30	O	2.000375	0.589754	0.337926
C31	C	1.134269	-0.000065	-0.170591
C32	C	1.467603	0.333268	0.162742
C33	C	1.800936	0.666602	0.496076
C34	C	1.008255	-0.000057	-0.167576
C35	C	1.341589	0.333276	0.165757
C36	C	1.674922	0.666610	0.499090
N37	N	1.341722	-0.218783	-0.163550
N38	N	1.675055	0.114550	0.169784
N39	N	2.008388	0.447884	0.503117
C40	C	0.777543	-0.000084	-0.162034
C41	C	1.110877	0.333249	0.171300
C42	C	1.444210	0.666583	0.504633
C43	C	0.905928	-0.000069	-0.165113
C44	C	1.239262	0.333264	0.168220
C45	C	1.572595	0.666598	0.501553
C46	C	1.341739	-0.592874	-0.163586
C47	C	1.675072	-0.259541	0.169747
C48	C	2.008406	0.073793	0.503080
C49	C	1.434712	-0.553689	-0.071231
C50	C	1.768046	-0.220356	0.262103
C51	C	2.101379	0.112978	0.595436
C52	C	1.434466	-0.446601	-0.070887
C53	C	1.767800	-0.113268	0.262447
C54	C	2.101133	0.220066	0.595780
C55	C	1.341731	-0.407283	-0.163568
C56	C	1.675065	-0.073950	0.169765
C57	C	2.008398	0.259384	0.503099
C58	C	1.223154	-0.446167	-0.136974
C59	C	1.556488	-0.112834	0.196359
C60	C	1.889821	0.220499	0.529693
C61	C	1.223704	-0.553289	-0.136320
C62	C	1.557037	-0.219956	0.197013
C63	C	1.890371	0.113378	0.530346
C64	C	1.366277	-0.553376	-0.282803
C65	C	1.699611	-0.220042	0.050530
C66	C	2.032944	0.113291	0.383863
C67	C	1.368961	-0.446248	-0.282022
C68	C	1.702294	-0.112914	0.051311
C69	C	2.035627	0.220419	0.384644
C70	C	1.341720	-0.302395	-0.163560
C71	C	1.675053	0.030938	0.169773
C72	C	2.008386	0.364272	0.503107
C73	C	1.341743	-0.697762	-0.163592
C74	C	1.675076	-0.364429	0.169742
C75	C	2.008409	-0.031096	0.503075
C76	C	1.549192	-0.000090	-0.156572
C77	C	1.882525	0.333243	0.176761
C78	C	2.215859	0.666577	0.510095
C79	C	1.675206	-0.000092	-0.159587
C80	C	2.008539	0.333241	0.173747
C81	C	2.341873	0.666575	0.507080
C82	C	1.348740	-0.000085	0.043880
C83	C	1.682073	0.333248	0.377213
C84	C	2.015407	0.666581	0.710547
C85	C	1.345726	-0.000084	0.169894
C86	C	1.679059	0.333249	0.503227
C87	C	2.012392	0.666583	0.836560
N88	N	1.341749	0.218626	-0.163604
N89	N	1.675082	0.551959	0.169729
N90	N	2.008415	0.885292	0.503062
C91	C	1.334721	-0.000070	-0.371043
C92	C	1.668055	0.333263	-0.037710
C93	C	2.001388	0.666597	0.295624
C94	C	1.337736	-0.000065	-0.497057
C95	C	1.671069	0.333268	-0.163723
C96	C	2.004402	0.666602	0.169610
C97	C	1.340183	-0.000068	0.400606
C98	C	1.673516	0.333265	0.733939
C99	C	2.006849	0.666598	1.067272
C100	C	1.343262	-0.000077	0.272221
C101	C	1.676596	0.333256	0.605554
C102	C	2.009929	0.666590	0.938887
H103	H	1.522586	-0.420311	-0.086830
H104	H	1.855920	-0.086977	0.246503
H105	H	2.189253	0.246356	0.579837
O106	O	1.285135	-0.410820	-0.377405
O107	O	1.618469	-0.077487	-0.044072
O108	O	1.951802	0.255847	0.289262
H109	H	1.222474	-0.364685	-0.341712
H110	H	1.555807	-0.031352	-0.008379
H111	H	1.889141	0.301982	0.324954
H112	H	1.152272	-0.420700	-0.202420
H113	H	1.485605	-0.087367	0.130914
H114	H	1.818939	0.245967	0.464247
O115	O	1.551835	-0.587802	-0.092011
O116	O	1.885169	-0.254468	0.241322
O117	O	2.218502	0.078865	0.574656
H118	H	1.545038	-0.633056	-0.168381
H119	H	1.878372	-0.299722	0.164953
H120	H	2.211705	0.033611	0.498286
H121	H	1.201129	-0.419350	-0.050994
H122	H	1.534463	-0.086017	0.282340
H123	H	1.867796	0.247316	0.615673
O124	O	1.414150	-0.589350	0.045283
O125	O	1.747483	-0.256017	0.378617
O126	O	2.080817	0.077317	0.711950
H127	H	1.337997	-0.634859	0.037701
H128	H	1.671331	-0.301526	0.371035
H129	H	2.004664	0.031807	0.704368
O130	O	1.413583	-0.412658	0.046276
O131	O	1.746917	-0.079324	0.379610
O132	O	2.080250	0.254009	0.712943
H133	H	1.403609	-0.472756	0.102908
H134	H	1.736943	-0.139422	0.436241
H135	H	2.070276	0.193911	0.769575
H136	H	1.298488	-0.578721	-0.351541
H137	H	1.631821	-0.245387	-0.018207
H138	H	1.965155	0.087946	0.315126
H139	H	1.202188	-0.578286	-0.049354
H140	H	1.535521	-0.244953	0.283979
H141	H	1.868855	0.088381	0.617313
O142	O	1.129234	-0.587638	-0.221947
O143	O	1.462568	-0.254305	0.111387
O144	O	1.795901	0.079029	0.444720
H145	H	1.083356	-0.527735	-0.263635
H146	H	1.416689	-0.194401	0.069699
H147	H	1.750023	0.138932	0.403032
O148	O	1.478427	-0.589140	-0.316413
O149	O	1.811760	-0.255807	0.016920
O150	O	2.145094	0.077527	0.350254
H151	H	1.475446	-0.665697	-0.321489
H152	H	1.808780	-0.332364	0.011845
H153	H	2.142113	0.000970	0.345178
H154	H	1.456194	-0.420834	-0.302185
H155	H	1.789527	-0.087501	0.031148
H156	H	2.122861	0.245833	0.364481
