data_functionalizedCrystal
_audit_creation_method	'MofGen! by Chris Wilmer'
_symmetry_space_group_name_H-M	'P1'
_symmetry_Int_Tables_number	1
_symmetry_cell_setting	triclinic
loop_
_symmetry_equiv_pos_as_xyz
  x,y,z
_cell_length_a	14.909351
_cell_length_b	14.908308
_cell_length_c	14.908783
_cell_angle_alpha	89.788727
_cell_angle_beta	90.205778
_cell_angle_gamma	96.746848
loop_
_atom_site_label
_atom_site_type_symbol
_atom_site_fract_x
_atom_site_fract_y
_atom_site_fract_z
Zn1	Zn	-0.315632	-0.607057	1.362417
Zn2	Zn	-0.457379	-0.465332	1.378678
Zn3	Zn	-0.314655	-0.447969	1.220678
Zn4	Zn	-0.474659	-0.608006	1.220640
O5	O	-0.390581	-0.532091	1.295603
O6	O	-0.327612	-0.595126	1.490032
O7	O	-0.430806	-0.336740	1.364540
O8	O	-0.188501	-0.461408	1.232690
O9	O	-0.431753	-0.491001	1.501979
O10	O	-0.189219	-0.578290	1.336825
O11	O	-0.325947	-0.323983	1.248458
O12	O	-0.342703	-0.462329	1.095215
O13	O	-0.461204	-0.734169	1.232626
O14	O	-0.460257	-0.579907	1.095187
O15	O	-0.344368	-0.733471	1.336789
O16	O	-0.585955	-0.491921	1.364504
O17	O	-0.598650	-0.596744	1.248394
C18	C	-0.625046	-0.546341	1.308233
C19	C	-0.725349	-0.552471	1.313716
C20	C	-0.403250	-0.519337	1.062671
C21	C	-0.408693	-0.513904	0.963021
C22	C	-0.404822	-0.767481	1.282890
C23	C	-0.410891	-0.867790	1.277472
C24	C	-0.867027	-0.621997	1.375600
C25	C	-0.772783	-0.616242	1.370454
C26	C	-0.772163	-0.494450	1.262122
C27	C	-0.866407	-0.500205	1.267268
C28	C	-0.913835	-0.563982	1.324008
C29	C	-1.008080	-0.569741	1.329149
C30	C	-1.007458	-0.447945	1.220822
C31	C	-0.913215	-0.442190	1.215676
C32	C	-0.155200	-0.517806	1.282948
C33	C	-0.054895	-0.511719	1.277555
C34	C	-0.300612	-1.055556	1.375752
C35	C	-0.306311	-1.149805	1.370664
C36	C	-0.427983	-1.150540	1.262204
C37	C	-0.422284	-1.056290	1.267292
C38	C	-0.358597	-1.008802	1.324069
C39	C	-0.352903	-0.914551	1.329161
C40	C	-0.474570	-0.915286	1.220696
C41	C	-0.480269	-1.009536	1.215608
C42	C	-0.376327	-0.297615	1.308316
C43	C	-0.369995	-0.197301	1.313893
C44	C	-0.310647	-0.612306	0.763326
C45	C	-0.315758	-0.607204	0.669696
C46	C	-0.424021	-0.498593	0.682130
C47	C	-0.418909	-0.503696	0.775760
C48	C	-0.362222	-0.560555	0.816354
C49	C	-0.357116	-0.565661	0.909986
C50	C	-0.465373	-0.457047	0.922418
C51	C	-0.470484	-0.451944	0.828788
C52	C	-0.377864	-0.544894	1.529445
C53	C	-0.372444	-0.550351	1.629095
H54	H	-1.046696	-0.621678	1.375342
H55	H	-0.507377	-0.414914	0.965604
N56	N	-0.299199	-0.623733	0.951441
N57	N	-0.216137	-0.612238	0.936802
H58	H	-0.175228	-0.653250	0.966077
N59	N	-0.724960	-0.675487	1.423164
N60	N	-0.667312	-0.643687	1.479159
H61	H	-0.633536	-0.685528	1.516393
N62	N	-0.263079	-0.660059	0.615518
N63	N	-0.206463	-0.622055	0.561867
H64	H	-0.169256	-0.659386	0.523602
N65	N	-1.055287	-0.388692	1.168116
N66	N	-1.139433	-0.393843	1.172711
H67	H	-1.173214	-0.352000	1.135486
H68	H	-0.905645	-0.673940	1.421786
H69	H	-0.248760	-1.016891	1.421987
H70	H	-0.264494	-0.658607	0.796379
H71	H	-0.479833	-1.189221	1.215979
N72	N	-0.481912	-0.440502	0.640666
N73	N	-0.470190	-0.357435	0.655272
H74	H	-0.511075	-0.316405	0.625987
H75	H	-0.259091	-1.187869	1.412748
H76	H	-0.532119	-1.048214	1.169381
H77	H	-0.516634	-0.405649	0.795723
N78	N	-0.723691	-0.429287	1.204203
N79	N	-0.639544	-0.424144	1.199639
H80	H	-0.605307	-0.378115	1.158741
N81	N	-0.864750	-0.377044	1.157734
N82	N	-0.780604	-0.371907	1.153151
H83	H	-0.746375	-0.325897	1.112229
H84	H	-0.521788	-0.877209	1.178614
H85	H	-0.301048	-0.875888	1.375393
