data_functionalizedCrystal
_audit_creation_method	'MofGen! by Chris Wilmer'
_symmetry_space_group_name_H-M	'P1'
_symmetry_Int_Tables_number	1
_symmetry_cell_setting	triclinic
loop_
_symmetry_equiv_pos_as_xyz
  x,y,z
_cell_length_a	18.215407
_cell_length_b	21.395361
_cell_length_c	21.395356
_cell_angle_alpha	90.030681
_cell_angle_beta	89.976270
_cell_angle_gamma	89.968844
loop_
_atom_site_label
_atom_site_type_symbol
_atom_site_fract_x
_atom_site_fract_y
_atom_site_fract_z
Zn1	Zn	1.125070	0.249447	-0.354251
Zn2	Zn	1.375070	0.499447	-0.104251
Zn3	Zn	1.625070	0.749447	0.145749
Zn4	Zn	1.875070	0.999447	0.395749
Zn5	Zn	1.124958	0.354224	-0.249468
Zn6	Zn	1.374958	0.604224	0.000532
Zn7	Zn	1.624958	0.854224	0.250532
Zn8	Zn	1.874958	1.104224	0.500532
Zn9	Zn	1.001995	0.249465	-0.249487
Zn10	Zn	1.251995	0.499465	0.000513
Zn11	Zn	1.501995	0.749465	0.250513
Zn12	Zn	1.751995	0.999465	0.500513
Zn13	Zn	1.001956	0.354191	-0.354208
Zn14	Zn	1.251956	0.604191	-0.104208
Zn15	Zn	1.501956	0.854191	0.145792
Zn16	Zn	1.751956	1.104191	0.395792
O17	O	1.063495	0.301832	-0.301853
O18	O	1.313495	0.551832	-0.051853
O19	O	1.563495	0.801832	0.198147
O20	O	1.813495	1.051832	0.448147
O21	O	1.228040	0.263352	-0.340361
O22	O	1.478040	0.513352	-0.090361
O23	O	1.728040	0.763352	0.159639
O24	O	1.978040	1.013352	0.409639
O25	O	1.108616	0.340348	-0.161792
O26	O	1.358616	0.590348	0.088208
O27	O	1.608616	0.840348	0.338208
O28	O	1.858616	1.090348	0.588208
O29	O	1.018384	0.161784	-0.263410
O30	O	1.268384	0.411784	-0.013410
O31	O	1.518384	0.661784	0.236590
O32	O	1.768384	0.911784	0.486590
O33	O	1.227957	0.340331	-0.263377
O34	O	1.477957	0.590331	-0.013377
O35	O	1.727957	0.840331	0.236623
O36	O	1.977957	1.090331	0.486623
O37	O	1.108807	0.161771	-0.340380
O38	O	1.358807	0.411771	-0.090380
O39	O	1.608807	0.661771	0.159620
O40	O	1.858807	0.911771	0.409620
O41	O	1.018275	0.263382	-0.161807
O42	O	1.268275	0.513382	0.088193
O43	O	1.518275	0.763382	0.338193
O44	O	1.768275	1.013382	0.588193
O45	O	0.899005	0.263351	-0.263369
O46	O	1.149005	0.513351	-0.013369
O47	O	1.399005	0.763351	0.236631
O48	O	1.649005	1.013351	0.486631
O49	O	1.018319	0.340276	-0.441891
O50	O	1.268319	0.590276	-0.191891
O51	O	1.518319	0.840276	0.058109
O52	O	1.768319	1.090276	0.308109
O53	O	0.898977	0.340293	-0.340306
O54	O	1.148977	0.590293	-0.090306
O55	O	1.398977	0.840293	0.159694
O56	O	1.648977	1.090293	0.409694
O57	O	1.108770	0.263321	-0.441923
O58	O	1.358770	0.513321	-0.191923
O59	O	1.608770	0.763321	0.058077
O60	O	1.858770	1.013321	0.308077
O61	O	1.108578	0.441897	-0.263336
O62	O	1.358578	0.691897	-0.013336
O63	O	1.608578	0.941897	0.236664
O64	O	1.858578	1.191897	0.486664
O65	O	1.018210	0.441874	-0.340288
O66	O	1.268210	0.691874	-0.090288
O67	O	1.518210	0.941874	0.159712
O68	O	1.768210	1.191874	0.409712
C69	C	0.872289	0.301821	-0.301835
C70	C	1.122289	0.551821	-0.051835
C71	C	1.372289	0.801821	0.198165
C72	C	1.622289	1.051821	0.448165
C73	C	0.790490	0.301831	-0.301842
C74	C	1.040490	0.551831	-0.051842
C75	C	1.290490	0.801831	0.198158
C76	C	1.540490	1.051831	0.448158
C77	C	1.063398	0.464619	-0.301818
C78	C	1.313398	0.714619	-0.051818
C79	C	1.563398	0.964619	0.198182
C80	C	1.813398	1.214619	0.448182
C81	C	1.063423	0.534261	-0.301824
C82	C	1.313423	0.784261	-0.051824
C83	C	1.563423	1.034261	0.198176
C84	C	1.813423	1.284261	0.448176
C85	C	1.063553	0.301793	-0.465277
C86	C	1.313553	0.551793	-0.215277
C87	C	1.563553	0.801793	0.034723
C88	C	1.813553	1.051793	0.284723
C89	C	1.063577	0.301776	-0.534918
C90	C	1.313577	0.551776	-0.284918
C91	C	1.563577	0.801776	-0.034918
C92	C	1.813577	1.051776	0.215082
C93	C	0.602300	0.341958	-0.341854
C94	C	0.852300	0.591958	-0.091854
C95	C	1.102300	0.841958	0.158146
C96	C	1.352300	1.091958	0.408146
C97	C	0.525442	0.341960	-0.341861
C98	C	0.775442	0.591960	-0.091861
C99	C	1.025442	0.841960	0.158139
C100	C	1.275442	1.091960	0.408139
C101	C	0.525441	0.261716	-0.261867
C102	C	0.775441	0.511716	-0.011867
C103	C	1.025441	0.761716	0.238133
C104	C	1.275441	1.011716	0.488133
C105	C	0.602299	0.261712	-0.261862
C106	C	0.852299	0.511712	-0.011862
C107	C	1.102299	0.761712	0.238138
C108	C	1.352299	1.011712	0.488138
C109	C	0.640726	0.301836	-0.301855
C110	C	0.890726	0.551836	-0.051855
C111	C	1.140726	0.801836	0.198145
C112	C	1.390726	1.051836	0.448145
C113	C	0.487010	0.301843	-0.301867
C114	C	0.737010	0.551843	-0.051867
C115	C	0.987010	0.801843	0.198133
C116	C	1.237010	1.051843	0.448133
C117	C	0.403676	0.301845	-0.301875
C118	C	0.653676	0.551845	-0.051875
C119	C	0.903676	0.801845	0.198125
C120	C	1.153676	1.051845	0.448125
C121	C	0.724065	0.301834	-0.301848
C122	C	0.974065	0.551834	-0.051848
C123	C	1.224065	0.801834	0.198152
C124	C	1.474065	1.051834	0.448152
C125	C	1.255448	0.301843	-0.301872
C126	C	1.505448	0.551843	-0.051872
C127	C	1.755448	0.801843	0.198128
C128	C	2.005448	1.051843	0.448128
C129	C	1.337247	0.301848	-0.301880
C130	C	1.587247	0.551848	-0.051880
C131	C	1.837247	0.801848	0.198120
C132	C	2.087247	1.051848	0.448120
C133	C	1.063612	0.138408	-0.301902
C134	C	1.313612	0.388408	-0.051902
C135	C	1.563612	0.638408	0.198098
C136	C	1.813612	0.888408	0.448098
C137	C	1.063663	0.068767	-0.301923
C138	C	1.313663	0.318767	-0.051923
C139	C	1.563663	0.568767	0.198077
C140	C	1.813663	0.818767	0.448077
C141	C	1.110520	0.566965	-0.261797
C142	C	1.360520	0.816965	-0.011797
C143	C	1.610520	1.066965	0.238203
C144	C	1.860520	1.316965	0.488203
C145	C	1.110554	0.632400	-0.261811
C146	C	1.360554	0.882400	-0.011811
C147	C	1.610554	1.132400	0.238189
C148	C	1.860554	1.382400	0.488189
C149	C	1.063479	0.665129	-0.301846
C150	C	1.313479	0.915129	-0.051846
C151	C	1.563479	1.165129	0.198154
C152	C	1.813479	1.415129	0.448154
C153	C	1.016379	0.632416	-0.341882
C154	C	1.266379	0.882416	-0.091882
C155	C	1.516379	1.132416	0.158118
C156	C	1.766379	1.382416	0.408118
C157	C	1.016351	0.566982	-0.341871
C158	C	1.266351	0.816982	-0.091871
C159	C	1.516351	1.066982	0.158129
C160	C	1.766351	1.316982	0.408129
C161	C	0.997215	0.768844	-0.306756
C162	C	1.247215	1.018844	-0.056756
C163	C	1.497215	1.268844	0.193244
C164	C	1.747215	1.518844	0.443244
C165	C	0.997242	0.834277	-0.306762
C166	C	1.247242	1.084277	-0.056762
C167	C	1.497242	1.334277	0.193238
C168	C	1.747242	1.584277	0.443238
C169	C	1.063565	0.866950	-0.301883
C170	C	1.313565	1.116950	-0.051883
C171	C	1.563565	1.366950	0.198117
C172	C	1.813565	1.616950	0.448117
C173	C	1.129863	0.834181	-0.296984
C174	C	1.379863	1.084181	-0.046984
C175	C	1.629863	1.334181	0.203016
C176	C	1.879863	1.584181	0.453016
C177	C	1.129835	0.768747	-0.296973
C178	C	1.379835	1.018747	-0.046973
C179	C	1.629835	1.268747	0.203027
C180	C	1.879835	1.518747	0.453027
C181	C	1.063504	0.736081	-0.301862
C182	C	1.313504	0.986081	-0.051862
C183	C	1.563504	1.236081	0.198138
C184	C	1.813504	1.486081	0.448138
C185	C	1.110702	0.970607	-0.261868
C186	C	1.360702	1.220607	-0.011868
C187	C	1.610702	1.470607	0.238132
C188	C	1.860702	1.720607	0.488132
C189	C	1.110738	1.036043	-0.261886
C190	C	1.360738	1.286043	-0.011886
C191	C	1.610738	1.536043	0.238114
C192	C	1.860738	1.786043	0.488114
C193	C	1.016556	1.036058	-0.341954
C194	C	1.266556	1.286058	-0.091954
C195	C	1.516556	1.536058	0.158046
C196	C	1.766556	1.786058	0.408046
C197	C	1.016527	0.970622	-0.341939
C198	C	1.266527	1.220622	-0.091939
C199	C	1.516527	1.470622	0.158061
C200	C	1.766527	1.720622	0.408061
C201	C	1.063599	0.937901	-0.301892
C202	C	1.313599	1.187901	-0.051892
C203	C	1.563599	1.437901	0.198108
C204	C	1.813599	1.687901	0.448108
C205	C	1.016550	0.261696	-0.567629
C206	C	1.266550	0.511696	-0.317629
C207	C	1.516550	0.761696	-0.067629
C208	C	1.766550	1.011696	0.182371
C209	C	1.016547	0.261684	-0.633064
C210	C	1.266547	0.511684	-0.383064
C211	C	1.516547	0.761684	-0.133064
C212	C	1.766547	1.011684	0.116936
C213	C	1.063586	0.301746	-0.665786
C214	C	1.313586	0.551746	-0.415786
C215	C	1.563586	0.801746	-0.165786
C216	C	1.813586	1.051746	0.084214
C217	C	1.110617	0.341835	-0.633068
C218	C	1.360617	0.591835	-0.383068
C219	C	1.610617	0.841835	-0.133068
C220	C	1.860617	1.091835	0.116932
C221	C	1.110613	0.341850	-0.567634
C222	C	1.360613	0.591850	-0.317634
C223	C	1.610613	0.841850	-0.067634
C224	C	1.860613	1.091850	0.182366
C225	C	1.129893	0.306672	-0.769473
C226	C	1.379893	0.556672	-0.519473
C227	C	1.629893	0.806672	-0.269473
C228	C	1.879893	1.056672	-0.019473
C229	C	1.129898	0.306653	-0.834906
C230	C	1.379898	0.556653	-0.584906
C231	C	1.629898	0.806653	-0.334906
C232	C	1.879898	1.056653	-0.084906
C233	C	1.063598	0.301704	-0.867607
C234	C	1.313598	0.551704	-0.617607
C235	C	1.563598	0.801704	-0.367607
C236	C	1.813598	1.051704	-0.117607
C237	C	0.997290	0.296762	-0.834868
C238	C	1.247290	0.546762	-0.584868
C239	C	1.497290	0.796762	-0.334868
C240	C	1.747290	1.046762	-0.084868
C241	C	0.997286	0.296777	-0.769434
C242	C	1.247286	0.546777	-0.519434
C243	C	1.497286	0.796777	-0.269434
C244	C	1.747286	1.046777	-0.019434
C245	C	1.063595	0.301735	-0.736739
C246	C	1.313595	0.551735	-0.486739
C247	C	1.563595	0.801735	-0.236739
C248	C	1.813595	1.051735	0.013261
C249	C	1.016563	0.261609	-0.971270
C250	C	1.266563	0.511609	-0.721270
C251	C	1.516563	0.761609	-0.471270
C252	C	1.766563	1.011609	-0.221270
C253	C	1.016559	0.261602	-1.036707
C254	C	1.266559	0.511602	-0.786707
C255	C	1.516559	0.761602	-0.536707
C256	C	1.766559	1.011602	-0.286707
C257	C	1.110636	0.341749	-1.036710
C258	C	1.360636	0.591749	-0.786710
C259	C	1.610636	0.841749	-0.536710
C260	C	1.860636	1.091749	-0.286710
C261	C	1.110633	0.341760	-0.971274
C262	C	1.360633	0.591760	-0.721274
C263	C	1.610633	0.841760	-0.471274
C264	C	1.860633	1.091760	-0.221274
C265	C	1.063598	0.301686	-0.938559
C266	C	1.313598	0.551686	-0.688559
C267	C	1.563598	0.801686	-0.438559
C268	C	1.813598	1.051686	-0.188559
C269	C	1.063480	0.301825	-0.139066
C270	C	1.313480	0.551825	0.110934
C271	C	1.563480	0.801825	0.360934
C272	C	1.813480	1.051825	0.610934
C273	C	1.063598	0.301665	-0.069425
C274	C	1.313598	0.551665	0.180575
C275	C	1.563598	0.801665	0.430575
C276	C	1.813598	1.051665	0.680575
H277	H	0.633586	0.374629	-0.374420
H278	H	0.883586	0.624629	-0.124420
H279	H	1.133586	0.874629	0.125580
H280	H	1.383586	1.124629	0.375580
H281	H	0.494144	0.229049	-0.229305
H282	H	0.744144	0.479049	0.020695
H283	H	0.994144	0.729049	0.270695
H284	H	1.244144	0.979049	0.520695
Cl285	Cl	0.913897	0.875464	-0.312919
Cl286	Cl	1.163897	1.125464	-0.062919
Cl287	Cl	1.413897	1.375464	0.187081
Cl288	Cl	1.663897	1.625464	0.437081
Cl289	Cl	0.957201	0.673559	-0.392215
Cl290	Cl	1.207201	0.923559	-0.142215
Cl291	Cl	1.457201	1.173559	0.107785
Cl292	Cl	1.707201	1.423559	0.357785
Cl293	Cl	1.169708	0.525833	-0.211462
Cl294	Cl	1.419708	0.775833	0.038538
Cl295	Cl	1.669708	1.025833	0.288538
Cl296	Cl	1.919708	1.275833	0.538538
Cl297	Cl	0.957379	1.077196	-0.392289
Cl298	Cl	1.207379	1.327196	-0.142289
Cl299	Cl	1.457379	1.577196	0.107711
Cl300	Cl	1.707379	1.827196	0.357711
H301	H	0.633586	0.229036	-0.229291
H302	H	0.883586	0.479036	0.020709
H303	H	1.133586	0.729036	0.270709
H304	H	1.383586	0.979036	0.520709
H305	H	0.978247	0.229067	-0.540996
H306	H	1.228247	0.479067	-0.290996
H307	H	1.478247	0.729067	-0.040996
H308	H	1.728247	0.979067	0.209004
H309	H	0.978264	0.228979	-0.944632
H310	H	1.228264	0.478979	-0.694632
H311	H	1.478264	0.728979	-0.444632
H312	H	1.728264	0.978979	-0.194632
Cl313	Cl	1.169765	0.673524	-0.211485
Cl314	Cl	1.419765	0.923524	0.038515
Cl315	Cl	1.669765	1.173524	0.288515
Cl316	Cl	1.919765	1.423524	0.538515
H317	H	1.183817	0.742069	-0.292986
H318	H	1.433817	0.992069	-0.042986
H319	H	1.683817	1.242069	0.207014
H320	H	1.933817	1.492069	0.457014
Cl321	Cl	1.169747	0.392202	-0.674203
Cl322	Cl	1.419747	0.642202	-0.424203
Cl323	Cl	1.669747	0.892202	-0.174203
Cl324	Cl	1.919747	1.142202	0.075797
Cl325	Cl	1.213245	0.875248	-0.290843
Cl326	Cl	1.463245	1.125248	-0.040843
Cl327	Cl	1.713245	1.375248	0.209157
Cl328	Cl	1.963245	1.625248	0.459157
H329	H	1.149034	0.943964	-0.229262
H330	H	1.399034	1.193964	0.020738
H331	H	1.649034	1.443964	0.270738
H332	H	1.899034	1.693964	0.520738
Cl333	Cl	1.169956	1.077158	-0.211565
Cl334	Cl	1.419956	1.327158	0.038435
Cl335	Cl	1.669956	1.577158	0.288435
Cl336	Cl	1.919956	1.827158	0.538435
Cl337	Cl	0.957312	0.929506	-0.392260
Cl338	Cl	1.207312	1.179506	-0.142260
Cl339	Cl	1.457312	1.429506	0.107740
Cl340	Cl	1.707312	1.679506	0.357740
Cl341	Cl	0.477138	0.392401	-0.392149
Cl342	Cl	0.727138	0.642401	-0.142149
Cl343	Cl	0.977138	0.892401	0.107851
Cl344	Cl	1.227138	1.142401	0.357851
Cl345	Cl	0.957138	0.525866	-0.392195
Cl346	Cl	1.207138	0.775866	-0.142195
Cl347	Cl	1.457138	1.025866	0.107805
Cl348	Cl	1.707138	1.275866	0.357805
Cl349	Cl	0.913830	0.727776	-0.312891
Cl350	Cl	1.163830	0.977776	-0.062891
Cl351	Cl	1.413830	1.227776	0.187109
Cl352	Cl	1.663830	1.477776	0.437109
H353	H	0.978253	0.229042	-0.659702
H354	H	1.228253	0.479042	-0.409702
H355	H	1.478253	0.729042	-0.159702
H356	H	1.728253	0.979042	0.090298
Cl357	Cl	0.913932	0.290568	-0.728278
Cl358	Cl	1.163932	0.540568	-0.478278
Cl359	Cl	1.413932	0.790568	-0.228278
Cl360	Cl	1.663932	1.040568	0.021722
Cl361	Cl	0.913935	0.290537	-0.875971
Cl362	Cl	1.163935	0.540537	-0.625971
Cl363	Cl	1.413935	0.790537	-0.375971
Cl364	Cl	1.663935	1.040537	-0.125971
H365	H	0.978258	0.228965	-1.063339
H366	H	1.228258	0.478965	-0.813339
H367	H	1.478258	0.728965	-0.563339
H368	H	1.728258	0.978965	-0.313339
H369	H	1.148937	0.374368	-1.063351
H370	H	1.398937	0.624368	-0.813351
H371	H	1.648937	0.874368	-0.563351
H372	H	1.898937	1.124368	-0.313351
H373	H	1.148930	0.374396	-0.944641
H374	H	1.398930	0.624396	-0.694641
H375	H	1.648930	0.874396	-0.444641
H376	H	1.898930	1.124396	-0.194641
H377	H	1.183890	0.310674	-0.861557
H378	H	1.433890	0.560674	-0.611557
H379	H	1.683890	0.810674	-0.361557
H380	H	1.933890	1.060674	-0.111557
H381	H	1.183887	0.310696	-0.742852
H382	H	1.433887	0.560696	-0.492852
H383	H	1.683887	0.810696	-0.242852
H384	H	1.933887	1.060696	0.007148
Cl385	Cl	1.169740	0.392240	-0.526509
Cl386	Cl	1.419740	0.642240	-0.276509
Cl387	Cl	1.669740	0.892240	-0.026509
Cl388	Cl	1.919740	1.142240	0.223491
