data_functionalizedCrystal
_audit_creation_method	'MofGen! by Chris Wilmer'
_symmetry_space_group_name_H-M	'P1'
_symmetry_Int_Tables_number	1
_symmetry_cell_setting	triclinic
loop_
_symmetry_equiv_pos_as_xyz
  x,y,z
_cell_length_a	19.121063
_cell_length_b	19.077142
_cell_length_c	19.076919
_cell_angle_alpha	90.074357
_cell_angle_beta	85.393653
_cell_angle_gamma	89.737710
loop_
_atom_site_label
_atom_site_type_symbol
_atom_site_fract_x
_atom_site_fract_y
_atom_site_fract_z
Zn1	Zn	-0.339751	-1.043167	0.454345
Zn2	Zn	0.160249	-0.543167	0.954345
Zn3	Zn	-0.452662	-1.042788	0.341455
Zn4	Zn	0.047338	-0.542788	0.841455
Zn5	Zn	-0.330341	-0.930803	0.331749
Zn6	Zn	0.169659	-0.430803	0.831749
Zn7	Zn	-0.452237	-0.920629	0.454186
Zn8	Zn	0.047763	-0.420629	0.954186
O9	O	-0.393748	-0.984347	0.395434
O10	O	0.106252	-0.484347	0.895434
O11	O	-0.358844	-1.141265	0.443498
O12	O	0.141156	-0.641265	0.943498
O13	O	-0.432676	-1.032032	0.241682
O14	O	0.067324	-0.532032	0.741682
O15	O	-0.233322	-0.950125	0.344017
O16	O	0.266678	-0.450125	0.844017
O17	O	-0.441800	-1.140987	0.360558
O18	O	0.058200	-0.640987	0.860558
O19	O	-0.240235	-1.032678	0.434087
O20	O	0.259765	-0.532678	0.934087
O21	O	-0.342808	-0.949758	0.234552
O22	O	0.157192	-0.449758	0.734552
O23	O	-0.342395	-0.831305	0.343863
O24	O	0.157605	-0.331305	0.843863
O25	O	-0.441075	-0.932784	0.552692
O26	O	0.058925	-0.432784	1.052692
O27	O	-0.431951	-0.823830	0.433816
O28	O	0.068049	-0.323830	0.933816
O29	O	-0.358432	-1.022813	0.552808
O30	O	0.141568	-0.522813	1.052808
O31	O	-0.550873	-1.022167	0.360404
O32	O	-0.050873	-0.522167	0.860404
O33	O	-0.550561	-0.932417	0.443227
O34	O	-0.050561	-0.432417	0.943227
C35	C	-0.386107	-0.802118	0.387770
C36	C	0.113893	-0.302118	0.887770
C37	C	-0.382855	-0.724159	0.384508
C38	C	0.117145	-0.224159	0.884508
C39	C	-0.428020	-0.683660	0.429742
C40	C	0.071980	-0.183660	0.929742
C41	C	-0.424956	-0.610409	0.426681
C42	C	0.075044	-0.110409	0.926681
C43	C	-0.376730	-0.577658	0.378382
C44	C	0.123270	-0.077658	0.878382
C45	C	-0.331561	-0.618163	0.333146
C46	C	0.168439	-0.118163	0.833146
C47	C	-0.334622	-0.691412	0.336211
C48	C	0.165378	-0.191412	0.836211
C49	C	-0.362564	-0.359001	0.364203
C50	C	0.137436	0.140999	0.864203
C51	C	-0.359508	-0.285746	0.361139
C52	C	0.140492	0.214254	0.861139
C53	C	-0.452902	-0.277997	0.454675
C54	C	0.047098	0.222003	0.954675
C55	C	-0.455962	-0.351248	0.457733
C56	C	0.044038	0.148752	0.957733
C57	C	-0.410791	-0.391746	0.412500
C58	C	0.089209	0.108254	0.912500
N59	N	-0.373598	-0.502784	0.375250
N60	N	0.126402	-0.002784	0.875250
N61	N	-0.413919	-0.466619	0.415636
N62	N	0.086081	0.033381	0.915636
C63	C	-0.576198	-0.976165	0.402867
C64	C	-0.076198	-0.476165	0.902867
C65	C	-0.654255	-0.972728	0.406074
C66	C	-0.154255	-0.472728	0.906074
C67	C	-0.691068	-1.017875	0.364497
C68	C	-0.191068	-0.517875	0.864497
C69	C	-0.764411	-1.014646	0.367517
C70	C	-0.264411	-0.514646	0.867517
C71	C	-0.800938	-0.966267	0.412111
C72	C	-0.300938	-0.466267	0.912111
C73	C	-0.764120	-0.921119	0.453692
C74	C	-0.264120	-0.421119	0.953692
C75	C	-0.690779	-0.924351	0.450675
C76	C	-0.190779	-0.424351	0.950675
C77	C	-1.022374	-0.954171	0.423378
C78	C	-0.522374	-0.454171	0.923378
C79	C	-1.095721	-0.950941	0.426390
C80	C	-0.595721	-0.450941	0.926390
C81	C	-1.096006	-1.044469	0.340216
C82	C	-0.596006	-0.544469	0.840216
C83	C	-1.022664	-1.047695	0.337201
C84	C	-0.522664	-0.547695	0.837201
C85	C	-0.985852	-1.002549	0.378784
C86	C	-0.485852	-0.502549	0.878784
C87	C	-0.875906	-0.962964	0.415197
C88	C	-0.375906	-0.462964	0.915197
C89	C	-0.910885	-1.005855	0.375701
C90	C	-0.410885	-0.505855	0.875701
C91	C	-0.210586	-0.992579	0.387987
C92	C	0.289414	-0.492579	0.887987
C93	C	-0.132534	-0.996087	0.384814
C94	C	0.367466	-0.496087	0.884814
C95	C	-0.400756	-0.976706	0.579000
C96	C	0.099244	-0.476706	1.079000
C97	C	-0.403742	-0.973450	0.657225
C98	C	0.096258	-0.473450	1.157225
C99	C	-0.401415	-0.167287	0.403120
C100	C	0.098585	0.332713	0.903120
C101	C	-0.404672	-0.245247	0.406373
C102	C	0.095328	0.254753	0.906373
C103	C	-0.386718	-0.992001	0.212581
C104	C	0.113282	-0.492001	0.712581
C105	C	-0.383540	-0.995401	0.134354
C106	C	0.116460	-0.495401	0.634354
C107	C	-0.362119	-1.018791	0.694037
C108	C	0.137881	-0.518791	1.194037
C109	C	-0.364922	-1.015723	0.767538
C110	C	0.135078	-0.515723	1.267538
C111	C	-0.409352	-0.967317	0.804225
C112	C	0.090648	-0.467317	1.304225
C113	C	-0.450976	-0.921971	0.767407
C114	C	0.049024	-0.421971	1.267407
C115	C	-0.448169	-0.925036	0.693908
C116	C	0.051831	-0.425036	1.193908
C117	C	-0.422357	-0.953121	1.024037
C118	C	0.077643	-0.453121	1.524037
C119	C	-0.425163	-0.950061	1.097542
C120	C	0.074837	-0.450061	1.597542
C121	C	-0.339107	-1.043812	1.097667
C122	C	0.160893	-0.543812	1.597667
C123	C	-0.336307	-1.046875	1.024166
C124	C	0.163693	-0.546875	1.524166
C125	C	-0.377929	-1.001527	0.987355
C126	C	0.122071	-0.501527	1.487355
N127	N	-0.412219	-0.964181	0.879354
N128	N	0.087781	-0.464181	1.379354
N129	N	-0.375057	-1.004660	0.912227
N130	N	0.124943	-0.504660	1.412227
H131	H	-0.495234	-0.377908	0.497062
H132	H	0.004766	0.122092	0.997062
H133	H	-0.461734	-0.577437	0.463514
H134	H	0.038266	-0.077437	0.963514
H135	H	-0.456259	-0.916205	0.994075
H136	H	0.043741	-0.416205	1.494075
N137	N	-0.290928	-1.096316	0.986679
N138	N	0.209072	-0.596316	1.486679
N139	N	-0.315946	-1.141605	0.948549
N140	N	0.184054	-0.641605	1.448549
H141	H	-0.283899	-1.176523	0.922071
H142	H	0.216101	-0.676523	1.422071
N143	N	-0.310250	-0.252282	0.311801
N144	N	0.189750	0.247718	0.811801
N145	N	-0.331467	-0.212165	0.266206
N146	N	0.168533	0.287835	0.766206
H147	H	-0.296682	-0.188530	0.231361
H148	H	0.203318	0.311470	0.731361
H149	H	-0.794381	-1.051409	0.333661
H150	H	-0.294381	-0.551409	0.833661
H151	H	-0.992924	-1.087088	0.300889
H152	H	-0.492924	-0.587088	0.800889
N153	N	-1.133620	-1.090576	0.297746
N154	N	-0.633620	-0.590576	0.797746
N155	N	-1.199102	-1.087685	0.300442
N156	N	-0.699102	-0.587685	0.800442
H157	H	-1.225668	-1.120251	0.270447
H158	H	-0.725668	-0.620251	0.770447
H159	H	-0.905655	-0.923573	0.451503
H160	H	-0.405655	-0.423573	0.951503
N161	N	-0.316423	-0.400352	0.317991
N162	N	0.183577	0.099648	0.817991
N163	N	-0.273373	-0.371099	0.274867
N164	N	0.226627	0.128901	0.774867
H165	H	-0.240785	-0.400305	0.242225
H166	H	0.259215	0.099695	0.742225
N167	N	-0.470537	-0.900609	1.135028
N168	N	0.029463	-0.400609	1.635028
N169	N	-0.473036	-0.897884	1.200652
N170	N	0.026964	-0.397884	1.700652
H171	H	-0.505080	-0.862961	1.227129
H172	H	-0.005080	-0.362961	1.727129
H173	H	-0.325941	-1.058210	0.664172
H174	H	0.174059	-0.558210	1.164172
H175	H	-0.482056	-0.888108	0.663936
H176	H	0.017944	-0.388108	1.163936
N177	N	-0.499047	-0.236629	0.500871
N178	N	0.000953	0.263371	1.000871
N179	N	-0.541103	-0.194783	0.476149
N180	N	-0.041103	0.305217	0.976149
H181	H	-0.573695	-0.165567	0.508777
H182	H	-0.073695	0.334433	1.008777
N183	N	-0.322400	-1.062042	0.805129
N184	N	0.177600	-0.562042	1.305129
N185	N	-0.282738	-1.105262	0.772365
N186	N	0.217262	-0.605262	1.272365
H187	H	-0.252704	-1.137978	0.798913
H188	H	0.247296	-0.637978	1.298913
N189	N	-1.133032	-0.901532	0.471959
N190	N	-0.633032	-0.401532	0.971959
N191	N	-1.176662	-0.922510	0.519541
N192	N	-0.676662	-0.422510	1.019541
H193	H	-1.203013	-0.887617	0.551724
H194	H	-0.703013	-0.387617	1.051724
N195	N	-0.282298	-0.584700	0.283818
N196	N	0.217702	-0.084700	0.783818
N197	N	-0.279570	-0.519299	0.281087
N198	N	0.220430	-0.019299	0.781087
H199	H	-0.244778	-0.495666	0.246247
H200	H	0.255222	0.004334	0.746247
H201	H	-0.467293	-0.710320	0.469070
H202	H	0.032707	-0.210320	0.969070
H203	H	-0.793867	-0.881730	0.490004
H204	H	-0.293867	-0.381730	0.990004
H205	H	-0.992408	-0.917410	0.457236
H206	H	-0.492408	-0.417410	0.957236
H207	H	-0.297841	-0.724386	0.299381
H208	H	0.202159	-0.224386	0.799381
N209	N	-0.653770	-1.067292	0.318936
N210	N	-0.153770	-0.567292	0.818936
N211	N	-0.686651	-1.107597	0.281818
N212	N	-0.186651	-0.607597	0.781818
H213	H	-0.660312	-1.142501	0.249639
H214	H	-0.160312	-0.642501	0.749639
N215	N	-0.653184	-0.878234	0.493154
N216	N	-0.153184	-0.378234	0.993154
N217	N	-0.685804	-0.835043	0.532968
N218	N	-0.185804	-0.335043	1.032968
H219	H	-0.659254	-0.802473	0.562974
H220	H	-0.159254	-0.302473	1.062974
H221	H	-0.305220	-1.080730	1.127646
H222	H	0.194780	-0.580730	1.627646
N223	N	-0.873566	-1.055261	0.330148
N224	N	-0.373566	-0.555261	0.830148
N225	N	-0.829935	-1.034278	0.282570
N226	N	-0.329935	-0.534278	0.782570
H227	H	-0.803571	-1.069169	0.250395
H228	H	-0.303571	-0.569169	0.750395
N229	N	-0.496351	-0.872524	0.804890
N230	N	0.003649	-0.372524	1.304890
N231	N	-0.498852	-0.869793	0.870514
N232	N	0.001148	-0.369793	1.370514
H233	H	-0.530900	-0.834871	0.896986
H234	H	-0.030900	-0.334871	1.396986
