data_functionalizedCrystal
_audit_creation_method	'MofGen! by Chris Wilmer'
_symmetry_space_group_name_H-M	'P1'
_symmetry_Int_Tables_number	1
_symmetry_cell_setting	triclinic
loop_
_symmetry_equiv_pos_as_xyz
  x,y,z
_cell_length_a	17.077403
_cell_length_b	17.077404
_cell_length_c	17.077396
_cell_angle_alpha	89.980813
_cell_angle_beta	89.981574
_cell_angle_gamma	89.998960
loop_
_atom_site_label
_atom_site_type_symbol
_atom_site_fract_x
_atom_site_fract_y
_atom_site_fract_z
Zn1	Zn	-0.312538	1.200158	-0.443943
Zn2	Zn	0.020795	1.533491	-0.110610
Zn3	Zn	0.354128	1.866825	0.222724
Zn4	Zn	-0.443815	1.200121	-0.312702
Zn5	Zn	-0.110482	1.533455	0.020632
Zn6	Zn	0.222852	1.866788	0.353965
Zn7	Zn	-0.312563	1.068895	-0.312686
Zn8	Zn	0.020770	1.402228	0.020647
Zn9	Zn	0.354103	1.735562	0.353980
Zn10	Zn	-0.443762	1.068909	-0.443921
Zn11	Zn	-0.110429	1.402242	-0.110588
Zn12	Zn	0.222905	1.735575	0.222746
O13	O	-0.378170	1.134521	-0.378313
O14	O	-0.044836	1.467854	-0.044980
O15	O	0.288497	1.801187	0.288354
O16	O	-0.329964	1.310000	-0.426549
O17	O	0.003369	1.643333	-0.093216
O18	O	0.336702	1.976667	0.240118
O19	O	-0.426437	1.182693	-0.202853
O20	O	-0.093103	1.516026	0.130481
O21	O	0.240230	1.849359	0.463814
O22	O	-0.202713	1.086317	-0.330100
O23	O	0.130620	1.419651	0.003233
O24	O	0.463954	1.752984	0.336566
O25	O	-0.426413	1.309973	-0.330127
O26	O	-0.093079	1.643306	0.003206
O27	O	0.240254	1.976640	0.336540
O28	O	-0.202695	1.182756	-0.426534
O29	O	0.130639	1.516089	-0.093201
O30	O	0.463972	1.849422	0.240133
O31	O	-0.330007	1.086281	-0.202841
O32	O	0.003327	1.419615	0.130492
O33	O	0.336660	1.752948	0.463825
O34	O	-0.329955	0.959050	-0.330079
O35	O	0.003378	1.292383	0.003254
O36	O	0.336711	1.625717	0.336587
O37	O	-0.426322	1.086340	-0.553771
O38	O	-0.092989	1.419674	-0.220437
O39	O	0.240344	1.753007	0.112896
O40	O	-0.426346	0.959060	-0.426497
O41	O	-0.093013	1.292393	-0.093163
O42	O	0.240320	1.625727	0.240170
O43	O	-0.329913	1.182769	-0.553787
O44	O	0.003421	1.516102	-0.220454
O45	O	0.336754	1.849435	0.112880
O46	O	-0.553655	1.182706	-0.330106
O47	O	-0.220322	1.516039	0.003228
O48	O	0.113012	1.849372	0.336561
O49	O	-0.553616	1.086305	-0.426512
O50	O	-0.220283	1.419638	-0.093178
O51	O	0.113051	1.752971	0.240155
C52	C	-0.378148	0.930573	-0.378284
C53	C	-0.044815	1.263906	-0.044951
C54	C	0.288518	1.597240	0.288382
C55	C	-0.378158	0.843323	-0.378291
C56	C	-0.044825	1.176656	-0.044957
C57	C	0.288508	1.509990	0.288376
C58	C	-0.328061	0.467520	-0.428629
C59	C	0.005273	0.800853	-0.095296
C60	C	0.338606	1.134187	0.238038
C61	C	-0.328055	0.549500	-0.428620
C62	C	0.005278	0.882834	-0.095287
C63	C	0.338611	1.216167	0.238046
C64	C	-0.378186	0.590474	-0.378333
C65	C	-0.044853	0.923808	-0.044999
C66	C	0.288480	1.257141	0.288334
C67	C	-0.428332	0.549463	-0.328056
C68	C	-0.094998	0.882797	0.005277
C69	C	0.238335	1.216130	0.338610
C70	C	-0.428341	0.467484	-0.328069
C71	C	-0.095008	0.800818	0.005264
C72	C	0.238326	1.134151	0.338597
C73	C	-0.428308	0.720333	-0.328031
C74	C	-0.094975	1.053667	0.005302
C75	C	0.238359	1.387000	0.338636
C76	C	-0.428298	0.802318	-0.328016
C77	C	-0.094965	1.135651	0.005317
C78	C	0.238368	1.468985	0.338650
C79	C	-0.328022	0.802349	-0.428582
C80	C	0.005311	1.135683	-0.095248
C81	C	0.338644	1.469016	0.238085
C82	C	-0.328031	0.720370	-0.428595
C83	C	0.005302	1.053704	-0.095262
C84	C	0.338635	1.387037	0.238072
C85	C	-0.378176	0.679365	-0.378317
C86	C	-0.044843	1.012699	-0.044984
C87	C	0.288490	1.346032	0.288350
C88	C	-0.582118	1.134524	-0.378325
C89	C	-0.248784	1.467857	-0.044992
C90	C	0.084549	1.801191	0.288342
C91	C	-0.669367	1.134597	-0.378356
C92	C	-0.336034	1.467930	-0.045023
C93	C	-0.002701	1.801264	0.288310
C94	C	-0.173425	1.134539	-0.378318
C95	C	0.159908	1.467872	-0.044985
C96	C	0.493241	1.801206	0.288349
C97	C	-0.086176	1.134547	-0.378320
C98	C	0.247158	1.467880	-0.044987
C99	C	0.580491	1.801213	0.288347
C100	C	-0.045194	1.084343	-0.328115
C101	C	0.288140	1.417677	0.005218
C102	C	0.621473	1.751010	0.338552
C103	C	0.036787	1.084349	-0.328125
C104	C	0.370120	1.417683	0.005208
C105	C	0.703453	1.751016	0.338542
C106	C	0.077784	1.134563	-0.378337
C107	C	0.411117	1.467897	-0.045003
C108	C	0.744450	1.801230	0.288330
C109	C	0.036796	1.184769	-0.428547
C110	C	0.370130	1.518102	-0.095214
C111	C	0.703463	1.851436	0.238119
C112	C	-0.045183	1.184759	-0.428541
C113	C	0.288151	1.518092	-0.095207
C114	C	0.621484	1.851425	0.238126
C115	C	0.207666	1.184789	-0.428556
C116	C	0.541000	1.518122	-0.095223
C117	C	0.874333	1.851456	0.238111
C118	C	0.289651	1.184801	-0.428562
C119	C	0.622984	1.518134	-0.095228
C120	C	0.956318	1.851467	0.238105
C121	C	0.289636	1.084380	-0.328140
C122	C	0.622969	1.417713	0.005193
C123	C	0.956302	1.751046	0.338527
C124	C	0.207657	1.084369	-0.328134
C125	C	0.540990	1.417702	0.005200
C126	C	0.874323	1.751036	0.338533
C127	C	0.166675	1.134576	-0.378343
C128	C	0.500008	1.467909	-0.045010
C129	C	0.833341	1.801243	0.288323
C130	C	-0.378109	1.134560	-0.583057
C131	C	-0.044776	1.467894	-0.249724
C132	C	0.288558	1.801227	0.083609
C133	C	-0.378083	1.134577	-0.670307
C134	C	-0.044750	1.467910	-0.336974
C135	C	0.288584	1.801244	-0.003641
C136	C	-0.378192	1.339265	-0.378342
C137	C	-0.044858	1.672598	-0.045009
C138	C	0.288475	2.005932	0.288325
C139	C	-0.378201	1.426515	-0.378355
C140	C	-0.044868	1.759848	-0.045021
C141	C	0.288466	2.093181	0.288312
C142	C	-0.327866	1.084391	-0.711291
C143	C	0.005468	1.417724	-0.377957
C144	C	0.338801	1.751058	-0.044624
C145	C	-0.327848	1.084404	-0.793271
C146	C	0.005485	1.417737	-0.459938
C147	C	0.338819	1.751070	-0.126605
C148	C	-0.378044	1.134607	-0.834267
C149	C	-0.044711	1.467940	-0.500933
C150	C	0.288623	1.801274	-0.167600
C151	C	-0.428267	1.184795	-0.793277
C152	C	-0.094933	1.518129	-0.459944
C153	C	0.238400	1.851462	-0.126611
C154	C	-0.428288	1.184778	-0.711298
C155	C	-0.094954	1.518111	-0.377965
C156	C	0.238379	1.851445	-0.044632
C157	C	-0.428218	1.184829	-0.964147
C158	C	-0.094884	1.518163	-0.630814
C159	C	0.238449	1.851496	-0.297481
C160	C	-0.428196	1.184848	-1.046132
C161	C	-0.094862	1.518181	-0.712799
C162	C	0.238471	1.851515	-0.379465
C163	C	-0.327778	1.084455	-1.046120
C164	C	0.005556	1.417788	-0.712787
C165	C	0.338889	1.751122	-0.379454
C166	C	-0.327799	1.084438	-0.964141
C167	C	0.005534	1.417771	-0.630808
C168	C	0.338868	1.751104	-0.297475
C169	C	-0.378021	1.134627	-0.923158
C170	C	-0.044687	1.467961	-0.589824
C171	C	0.288646	1.801294	-0.256491
C172	C	-0.378174	1.134527	-0.174365
C173	C	-0.044840	1.467860	0.158968
C174	C	0.288493	1.801193	0.492302
C175	C	-0.377978	1.134662	-0.087116
C176	C	-0.044645	1.467995	0.246218
C177	C	0.288688	1.801329	0.579551
H178	H	-0.469122	0.835677	-0.287070
H179	H	-0.135788	1.169010	0.046263
H180	H	0.197545	1.502343	0.379596
H181	H	0.174301	1.225663	-0.469452
H182	H	0.507635	1.558996	-0.136119
H183	H	0.840968	1.892330	0.197215
Br184	Br	-0.259990	0.664763	-0.496838
Br185	Br	0.073343	0.998096	-0.163504
Br186	Br	0.406676	1.331430	0.169829
H187	H	0.070181	1.225652	-0.469435
H188	H	0.403514	1.558985	-0.136101
H189	H	0.736847	1.892318	0.197232
Br190	Br	-0.100802	1.252891	-0.496682
Br191	Br	0.232531	1.586225	-0.163349
Br192	Br	0.565864	1.919558	0.169984
H193	H	-0.287233	0.434165	-0.469574
H194	H	0.046100	0.767498	-0.136241
H195	H	0.379433	1.100832	0.197093
H196	H	-0.286986	1.043514	-0.677918
H197	H	0.046348	1.376847	-0.344585
H198	H	0.379681	1.710181	-0.011252
H199	H	-0.469152	0.582831	-0.287114
H200	H	-0.135819	0.916164	0.046219
H201	H	0.197514	1.249497	0.379552
H202	H	-0.469172	0.434099	-0.287132
H203	H	-0.135838	0.767432	0.046201
H204	H	0.197495	1.100766	0.379534
H205	H	0.323008	1.043499	-0.287258
H206	H	0.656341	1.376833	0.046075
H207	H	0.989675	1.710166	0.379409
H208	H	-0.286921	1.043561	-0.930765
H209	H	0.046412	1.376895	-0.597432
H210	H	0.379745	1.710228	-0.264099
H211	H	-0.286959	1.043534	-0.826637
H212	H	0.046374	1.376868	-0.493303
H213	H	0.379708	1.710201	-0.159970
H214	H	-0.286884	1.043590	-1.079493
H215	H	0.046449	1.376923	-0.746160
H216	H	0.379782	1.710257	-0.412827
Br217	Br	-0.496312	1.252989	-1.101769
Br218	Br	-0.162979	1.586322	-0.768435
Br219	Br	0.170355	1.919656	-0.435102
Br220	Br	-0.496381	1.252939	-0.908527
Br221	Br	-0.163048	1.586273	-0.575194
Br222	Br	0.170285	1.919606	-0.241860
H223	H	-0.469141	1.225668	-0.826662
H224	H	-0.135808	1.559001	-0.493329
H225	H	0.197526	1.892335	-0.159996
H226	H	-0.469174	1.225651	-0.677930
H227	H	-0.135841	1.558984	-0.344597
H228	H	0.197493	1.892317	-0.011264
H229	H	-0.287229	0.582883	-0.469561
H230	H	0.046105	0.916217	-0.136228
H231	H	0.379438	1.249550	0.197105
H232	H	-0.287192	0.835740	-0.469519
H233	H	0.046142	1.169073	-0.136185
H234	H	0.379475	1.502406	0.197148
H235	H	-0.469145	0.686949	-0.287093
H236	H	-0.135811	1.020283	0.046241
H237	H	0.197522	1.353616	0.379574
H238	H	-0.078568	1.043456	-0.287224
H239	H	0.254766	1.376789	0.046109
H240	H	0.588099	1.710122	0.379443
Br241	Br	0.092402	1.016199	-0.260000
Br242	Br	0.425736	1.349533	0.073333
Br243	Br	0.759069	1.682866	0.406667
H244	H	0.174279	1.043485	-0.287243
H245	H	0.507612	1.376818	0.046091
H246	H	0.840946	1.710151	0.379424
H247	H	0.323027	1.225689	-0.469450
H248	H	0.656360	1.559023	-0.136117
H249	H	0.989693	1.892356	0.197217
