data_functionalizedCrystal
_audit_creation_method	'MofGen! by Chris Wilmer'
_symmetry_space_group_name_H-M	'P1'
_symmetry_Int_Tables_number	1
_symmetry_cell_setting	triclinic
loop_
_symmetry_equiv_pos_as_xyz
  x,y,z
_cell_length_a	13.032831
_cell_length_b	12.759394
_cell_length_c	13.032268
_cell_angle_alpha	97.151248
_cell_angle_beta	90.886977
_cell_angle_gamma	82.818938
loop_
_atom_site_label
_atom_site_type_symbol
_atom_site_fract_x
_atom_site_fract_y
_atom_site_fract_z
Zn1	Zn	1.498525	-0.709535	-0.780858
Zn2	Zn	1.520277	-0.866071	-0.608883
Zn3	Zn	1.348381	-0.665645	-0.587097
Zn4	Zn	1.326525	-0.860390	-0.759008
O5	O	1.423427	-0.775411	-0.683961
O6	O	1.645332	-0.751045	-0.776306
O7	O	1.515725	-0.823493	-0.462075
O8	O	1.368341	-0.524455	-0.612827
O9	O	1.661314	-0.866051	-0.649957
O10	O	1.478651	-0.556701	-0.755182
O11	O	1.389433	-0.676242	-0.446070
O12	O	1.201559	-0.670733	-0.591640
O13	O	1.331091	-0.856370	-0.905823
O14	O	1.185502	-0.813812	-0.717942
O15	O	1.457459	-0.745537	-0.921876
O16	O	1.494533	-1.012330	-0.628770
O17	O	1.352184	-1.008156	-0.739066
C18	C	1.156213	-0.736894	-0.650056
C19	C	1.041895	-0.720445	-0.635576
C20	C	0.983023	-0.783996	-0.691518
C21	C	0.864869	-0.766996	-0.676554
C22	C	1.423372	-1.048368	-0.683937
C23	C	1.423438	-1.165158	-0.683973
C24	C	1.538194	-1.198574	-0.832293
C25	C	1.595603	-1.270148	-0.906465
C26	C	1.595661	-1.379881	-0.906495
C27	C	1.538301	-1.418040	-0.832347
C28	C	1.480892	-1.346466	-0.758175
C29	C	1.480843	-1.236732	-0.758151
C30	C	1.366133	-1.313050	-0.609861
C31	C	1.366079	-1.203317	-0.609825
C32	C	1.308773	-1.351209	-0.535713
C33	C	1.251369	-1.279635	-0.461534
C34	C	1.251314	-1.169896	-0.461507
C35	C	1.308670	-1.131743	-0.535653
C36	C	1.691684	-0.814078	-0.717999
C37	C	1.805999	-0.830556	-0.732504
C38	C	1.389411	-0.805216	-0.952209
C39	C	1.374915	-0.817917	-1.066521
C40	C	1.423507	-0.501394	-0.684012
C41	C	1.423542	-0.384624	-0.684033
C42	C	1.430977	-0.768742	-1.125427
C43	C	1.415996	-0.781868	-1.243574
C44	C	1.457370	-0.745654	-0.416764
C45	C	1.472065	-0.732686	-0.302479
H46	H	1.538163	-1.109225	-0.832268
O47	O	0.850311	-0.910361	-0.802933
C48	C	0.904015	-0.866919	-0.877291
H49	H	0.924591	-0.785512	-0.843161
H50	H	0.977865	-0.922056	-0.900513
H51	H	0.853020	-0.858060	-0.948325
H52	H	1.490060	-0.716919	-1.088391
H53	H	1.004824	-0.653448	-0.576607
H54	H	1.538344	-1.507391	-0.832386
H55	H	1.642302	-1.239069	-0.966838
H56	H	1.308635	-1.042395	-0.535634
O57	O	1.027346	-0.863797	-0.761940
C58	C	1.081053	-0.820354	-0.836296
H59	H	1.101621	-0.738944	-0.802167
H60	H	1.154907	-0.875489	-0.859510
H61	H	1.030062	-0.811503	-0.907334
H62	H	1.315821	-0.869727	-1.103556
H63	H	1.356898	-0.833682	-1.280604
O64	O	1.308801	-1.457823	-0.535928
C65	C	1.269820	-1.501608	-0.631114
H66	H	1.279804	-1.447450	-0.692576
H67	H	1.313915	-1.583693	-0.655325
H68	H	1.184224	-1.509090	-0.622411
H69	H	1.531151	-0.680857	-1.265448
O70	O	1.195747	-1.316882	-0.389562
C71	C	1.208079	-1.429081	-0.405517
H72	H	1.283153	-1.459172	-0.449331
H73	H	1.210948	-1.461270	-0.327614
H74	H	1.140109	-1.457529	-0.452505
H75	H	1.642396	-1.438157	-0.966902
O76	O	0.820498	-0.687155	-0.606195
C77	C	0.712405	-0.687951	-0.606921
H78	H	0.693583	-0.770727	-0.638653
H79	H	0.681257	-0.666319	-0.524750
H80	H	0.674969	-0.627452	-0.657945
O81	O	1.195521	-1.100518	-0.389356
C82	C	1.144888	-1.157735	-0.323945
H83	H	1.187506	-1.241599	-0.325779
H84	H	1.144226	-1.115492	-0.241513
H85	H	1.061990	-1.162378	-0.351647
