data_functionalizedCrystal
_audit_creation_method	'MofGen! by Chris Wilmer'
_symmetry_space_group_name_H-M	'P1'
_symmetry_Int_Tables_number	1
_symmetry_cell_setting	triclinic
loop_
_symmetry_equiv_pos_as_xyz
  x,y,z
_cell_length_a	14.519731
_cell_length_b	13.596369
_cell_length_c	10.654541
_cell_angle_alpha	89.994252
_cell_angle_beta	95.913609
_cell_angle_gamma	90.005416
loop_
_atom_site_label
_atom_site_type_symbol
_atom_site_fract_x
_atom_site_fract_y
_atom_site_fract_z
O1	O	1.224710	0.081793	-0.164753
O2	O	1.724710	0.581793	0.335247
O3	O	0.956336	0.081795	-0.184112
O4	O	1.456336	0.581795	0.315888
O5	O	1.096694	0.081788	0.008366
O6	O	1.596694	0.581788	0.508366
O7	O	1.084351	0.081800	-0.357230
O8	O	1.584351	0.581800	0.142770
O9	O	1.096680	-0.081795	0.008376
O10	O	1.596680	0.418205	0.508376
O11	O	0.956321	-0.081788	-0.184101
O12	O	1.456321	0.418212	0.315899
O13	O	1.224695	-0.081790	-0.164743
O14	O	1.724695	0.418210	0.335257
Zn15	Zn	1.090506	-0.107761	-0.174420
Zn16	Zn	1.590506	0.392239	0.325580
Zn17	Zn	1.090525	0.107766	-0.174434
Zn18	Zn	1.590525	0.607766	0.325566
O19	O	1.084337	-0.081783	-0.357220
O20	O	1.584337	0.418217	0.142780
C21	C	0.921964	0.000003	-0.183199
C22	C	1.421964	0.500003	0.316801
C23	C	0.819570	0.000004	-0.180481
C24	C	1.319570	0.500004	0.319519
C25	C	0.736414	0.000008	-0.178273
C26	C	1.236414	0.500008	0.321727
C27	C	0.632091	0.000008	-0.175513
C28	C	1.132091	0.500008	0.324487
C29	C	0.548941	0.000008	-0.173323
C30	C	1.048941	0.500008	0.326677
C31	C	0.444611	0.000010	-0.170563
C32	C	0.944611	0.500010	0.329437
N33	N	1.090500	-0.254853	-0.174410
N34	N	1.590500	0.245147	0.325590
C35	C	1.090524	-0.656144	-0.174435
C36	C	1.590524	-0.156144	0.325565
C37	C	1.090514	-0.544493	-0.174433
C38	C	1.590514	-0.044493	0.325567
C39	C	1.090512	-0.455502	-0.174424
C40	C	1.590512	0.044498	0.325576
C41	C	1.090502	-0.343844	-0.174419
C42	C	1.590502	0.156156	0.325581
C43	C	1.259067	0.000004	-0.165655
C44	C	1.759067	0.500004	0.334345
C45	C	1.361461	0.000010	-0.168373
C46	C	1.861461	0.500010	0.331627
C47	C	1.095781	-0.000003	0.055161
C48	C	1.595781	0.499997	0.555161
C49	C	1.093071	-0.000001	0.194578
C50	C	1.593071	0.499999	0.694578
N51	N	1.090538	0.254858	-0.174434
N52	N	1.590538	0.754858	0.325566
C53	C	1.085250	0.000010	-0.404015
C54	C	1.585250	0.500010	0.095985
C55	C	1.087960	0.000015	-0.543433
C56	C	1.587960	0.500015	-0.043433
C57	C	1.260908	-0.000015	0.224145
C58	C	1.760908	0.499985	0.724145
C59	C	1.343549	-0.000023	0.304426
C60	C	1.843549	0.499977	0.804426
C61	C	1.340997	-0.000020	0.435419
C62	C	1.840997	0.499980	0.935419
C63	C	1.255795	-0.000006	0.486134
C64	C	1.755795	0.499994	0.986134
C65	C	1.173153	0.000003	0.405854
C66	C	1.673153	0.500003	0.905854
C67	C	1.175714	-0.000003	0.274859
C68	C	1.675714	0.499997	0.774859
C69	C	1.005318	0.000023	0.376287
C70	C	1.505318	0.500023	0.876287
C71	C	1.007868	0.000013	0.245293
C72	C	1.507868	0.500013	0.745293
C73	C	0.920116	0.000038	0.427002
C74	C	1.420116	0.500038	0.927002
C75	C	0.837472	0.000040	0.346721
C76	C	1.337472	0.500040	0.846721
C77	C	0.840028	0.000036	0.215720
C78	C	1.340028	0.500036	0.715720
C79	C	0.925227	0.000022	0.165013
C80	C	1.425227	0.500022	0.665013
H81	H	1.262994	-0.000031	0.117485
H82	H	1.762994	0.499969	0.617485
Br83	Br	1.453153	-0.000019	0.544377
Br84	Br	1.953153	0.499981	1.044377
Br85	Br	1.252332	0.000076	0.663913
Br86	Br	1.752332	0.500076	1.163913
H87	H	0.918044	0.000047	0.533665
H88	H	1.418044	0.500047	1.033665
Br89	Br	0.721853	0.000076	0.415555
Br90	Br	1.221853	0.500076	0.915555
H91	H	0.772731	0.000047	0.150362
H92	H	1.272731	0.500047	0.650362
H93	H	0.927316	0.000013	0.058353
H94	H	1.427316	0.500013	0.558353
Br95	Br	1.459176	-0.000033	0.235594
Br96	Br	1.959176	0.499967	0.735594
