data_functionalizedCrystal
_audit_creation_method	'MofGen! by Chris Wilmer'
_symmetry_space_group_name_H-M	'P1'
_symmetry_Int_Tables_number	1
_symmetry_cell_setting	triclinic
loop_
_symmetry_equiv_pos_as_xyz
  x,y,z
_cell_length_a	19.188930
_cell_length_b	14.853576
_cell_length_c	13.330367
_cell_angle_alpha	89.997174
_cell_angle_beta	90.021431
_cell_angle_gamma	96.608390
loop_
_atom_site_label
_atom_site_type_symbol
_atom_site_fract_x
_atom_site_fract_y
_atom_site_fract_z
O1	O	-0.926526	0.112552	-0.083742
O2	O	-0.426526	0.612552	0.416258
O3	O	-0.723266	0.127703	-0.083673
O4	O	-0.223266	0.627703	0.416327
O5	O	-0.830322	-0.011132	-0.083707
O6	O	-0.330322	0.488868	0.416293
O7	O	-0.819470	0.251387	-0.083708
O8	O	-0.319470	0.751387	0.416292
O9	O	-0.830307	-0.011135	0.083140
O10	O	-0.330307	0.488865	0.583140
O11	O	-0.723250	0.127700	0.083174
O12	O	-0.223250	0.627700	0.583174
O13	O	-0.926510	0.112549	0.083105
O14	O	-0.426510	0.612549	0.583105
Cu15	Cu	-0.824879	0.120124	0.098374
Cu16	Cu	-0.324879	0.620124	0.598374
Cu17	Cu	-0.824897	0.120128	-0.098942
Cu18	Cu	-0.324897	0.620128	0.401058
O19	O	-0.819454	0.251384	0.083139
O20	O	-0.319454	0.751384	0.583139
C21	C	-0.697245	0.127211	-0.000240
C22	C	-0.197245	0.627211	0.499760
C23	C	-0.619736	0.125738	-0.000214
C24	C	-0.119736	0.625738	0.499786
C25	C	-0.829821	-0.044719	-0.000285
C26	C	-0.329821	0.455281	0.499715
C27	C	-0.828345	-0.144794	-0.000290
C28	C	-0.328345	0.355206	0.499710
C29	C	-0.952531	0.113041	-0.000330
C30	C	-0.452531	0.613041	0.499670
C31	C	-1.030040	0.114514	-0.000363
C32	C	-0.530040	0.614514	0.499637
C33	C	-0.575085	0.207202	-0.000230
C34	C	-0.075085	0.707202	0.499770
C35	C	-0.502257	0.205818	-0.000241
C36	C	-0.002257	0.705818	0.499759
C37	C	-0.474082	0.122966	-0.000256
C38	C	0.025918	0.622966	0.499744
C39	C	-0.518742	0.041491	-0.000235
C40	C	-0.018742	0.541491	0.499765
C41	C	-0.591569	0.042877	-0.000214
C42	C	-0.091569	0.542877	0.499786
N43	N	-0.365894	0.059637	-0.057082
N44	N	0.134106	0.559637	0.442918
N45	N	-0.296711	0.058326	-0.057104
N46	N	0.203289	0.558326	0.442896
C47	C	-0.254659	0.118785	-0.000318
C48	C	0.245341	0.618785	0.499682
N49	N	-0.284403	0.180618	0.056479
N50	N	0.215597	0.680618	0.556479
N51	N	-0.353592	0.181932	0.056497
N52	N	0.146408	0.681932	0.556497
C53	C	-0.395114	0.121454	-0.000279
C54	C	0.104886	0.621454	0.499721
C55	C	-0.131040	0.198754	-0.000344
C56	C	0.368960	0.698754	0.499656
C57	C	-0.058210	0.197367	-0.000349
C58	C	0.441790	0.697367	0.499651
C59	C	-0.074697	0.033037	-0.000353
C60	C	0.425303	0.533037	0.499647
C61	C	-0.147525	0.034427	-0.000338
C62	C	0.352475	0.534427	0.499662
C63	C	-0.175692	0.117288	-0.000338
C64	C	0.324308	0.617288	0.499662
C65	C	-0.819955	0.284971	-0.000285
C66	C	-0.319955	0.784971	0.499715
C67	C	-0.821431	0.385046	-0.000287
C68	C	-0.321431	0.885046	0.499713
N69	N	-0.824871	0.120121	0.237156
N70	N	-0.324871	0.620121	0.737156
C71	C	-0.822135	0.432063	-0.091240
C72	C	-0.322135	0.932063	0.408760
C73	C	-0.822110	0.432064	0.090664
C74	C	-0.322110	0.932064	0.590664
C75	C	-0.823494	0.526091	0.090665
C76	C	-0.323494	1.026091	0.590665
C77	C	-0.824197	0.573108	-0.000288
C78	C	-0.324197	1.073108	0.499712
C79	C	-0.823517	0.526099	-0.091241
C80	C	-0.323517	1.026099	0.408759
C81	C	-0.824167	0.573108	0.181617
C82	C	-0.324167	1.073108	0.681617
C83	C	-0.825550	0.667141	0.181622
C84	C	-0.325550	1.167141	0.681622
C85	C	-0.826259	0.714159	0.090668
C86	C	-0.326259	1.214159	0.590668
C87	C	-0.825579	0.667144	-0.000289
C88	C	-0.325579	1.167144	0.499711
C89	C	-0.826282	0.714161	-0.091242
C90	C	-0.326282	1.214161	0.408758
C91	C	-0.825608	0.667146	-0.182200
C92	C	-0.325608	1.167146	0.317800
C93	C	-0.824225	0.573117	-0.182195
C94	C	-0.324225	1.073117	0.317805
C95	C	-0.827641	0.808188	0.090663
C96	C	-0.327641	1.308188	0.590663
C97	C	-0.827664	0.808196	-0.091243
C98	C	-0.327664	1.308196	0.408757
N99	N	-0.824911	0.120124	-0.237724
N100	N	-0.324911	0.620124	0.262276
C101	C	-0.777491	0.181580	0.709794
C102	C	-0.277491	0.681580	1.209794
C103	C	-0.872323	0.058668	0.709731
C104	C	-0.372323	0.558668	1.209731
C105	C	-0.872315	0.058666	0.604713
C106	C	-0.372315	0.558666	1.104713
C107	C	-0.824895	0.120122	0.552230
C108	C	-0.324895	0.620122	1.052230
C109	C	-0.777483	0.181581	0.604766
C110	C	-0.277483	0.681581	1.104766
C111	C	-0.919731	-0.002786	0.552169
C112	C	-0.419731	0.497214	1.052169
C113	C	-0.919725	-0.002791	0.447145
C114	C	-0.419725	0.497209	0.947145
C115	C	-0.872301	0.058662	0.394660
C116	C	-0.372301	0.558662	0.894660
C117	C	-0.824887	0.120123	0.447202
C118	C	-0.324887	0.620123	0.947202
C119	C	-0.777467	0.181579	0.394719
C120	C	-0.277467	0.681579	0.894719
C121	C	-0.730048	0.243036	0.447259
C122	C	-0.230048	0.743036	0.947259
C123	C	-0.730059	0.243033	0.552281
C124	C	-0.230059	0.743033	1.052281
C125	C	-0.872291	0.058665	0.289638
C126	C	-0.372291	0.558665	0.789638
C127	C	-0.777459	0.181580	0.289691
C128	C	-0.277459	0.681580	0.789691
H129	H	-0.598014	0.274673	-0.000232
H130	H	-0.098014	0.774673	0.499768
C131	C	-0.826384	0.718877	-0.282244
C132	C	-0.326384	1.218877	0.217756
N133	N	-0.826970	0.757844	-0.357596
N134	N	-0.326970	1.257844	0.142404
H135	H	-0.910934	0.008637	0.752466
H136	H	-0.410934	0.508637	1.252466
H137	H	-0.821588	0.393780	-0.165296
H138	H	-0.321588	0.893780	0.334704
C139	C	-0.009094	0.286989	-0.000352
C140	C	0.490906	0.786989	0.499648
N141	N	0.027901	0.354494	-0.000351
N142	N	0.527901	0.854494	0.499649
H143	H	-0.910902	0.008631	0.246865
H144	H	-0.410902	0.508631	0.746865
C145	C	-0.971881	-0.070401	0.389360
C146	C	-0.471881	0.429599	0.889360
N147	N	-1.011162	-0.121329	0.345836
N148	N	-0.511162	0.378671	0.845836
C149	C	-0.453133	0.295438	-0.000270
C150	C	0.046867	0.795438	0.499730
N151	N	-0.416134	0.362940	-0.000297
N152	N	0.083866	0.862940	0.499703
C153	C	-0.487748	-0.049647	-0.000253
C154	C	0.012252	0.450353	0.499747
N155	N	-0.464404	-0.118294	-0.000264
N156	N	0.035596	0.381706	0.499736
C157	C	-0.640687	-0.046743	-0.000203
C158	C	-0.140687	0.453257	0.499797
N159	N	-0.677683	-0.114247	-0.000198
N160	N	-0.177683	0.385753	0.499802
H161	H	-0.691441	0.293078	0.404516
H162	H	-0.191441	0.793078	0.904516
C163	C	-0.823476	0.521396	-0.282240
C164	C	-0.323476	1.021396	0.217760
N165	N	-0.822908	0.482436	-0.357593
N166	N	-0.322908	0.982436	0.142407
C167	C	-0.162025	0.289901	-0.000332
C168	C	0.337975	0.789901	0.499668
N169	N	-0.185362	0.358555	-0.000321
N170	N	0.314638	0.858555	0.499679
H171	H	-0.828240	0.846470	-0.165309
H172	H	-0.328240	1.346470	0.334691
C173	C	-0.821328	0.380344	0.190706
C174	C	-0.321328	0.880344	0.690706
N175	N	-0.820739	0.341384	0.266061
N176	N	-0.320739	0.841384	0.766061
C177	C	-0.823381	0.521386	0.281657
C178	C	-0.323381	1.021386	0.781657
N179	N	-0.822788	0.482425	0.357011
N180	N	-0.322788	0.982425	0.857011
H181	H	-0.826102	0.705411	0.255685
H182	H	-0.326102	1.205411	0.755685
C183	C	-0.725328	0.249173	0.767588
C184	C	-0.225328	0.749173	1.267588
N185	N	-0.686037	0.300084	0.811120
N186	N	-0.186037	0.800084	1.311120
H187	H	-0.051758	-0.034423	-0.000427
H188	H	0.448242	0.465577	0.499573
C189	C	-0.196643	-0.055191	-0.000332
C190	C	0.303357	0.444809	0.499668
N191	N	-0.233638	-0.122696	-0.000326
N192	N	0.266362	0.377304	0.499674
C193	C	-0.828383	0.859900	0.190711
C194	C	-0.328383	1.359900	0.690711
N195	N	-0.828944	0.898847	0.266072
N196	N	-0.328944	1.398847	0.766072
H197	H	-0.738841	0.231622	0.246966
H198	H	-0.238841	0.731622	0.746966
H199	H	-0.691453	0.293070	0.595066
H200	H	-0.191453	0.793070	1.095066
C201	C	-0.971889	-0.070383	0.609906
C202	C	-0.471889	0.429617	1.109906
N203	N	-1.011175	-0.121302	0.653399
N204	N	-0.511175	0.378698	1.153399
