data_functionalizedCrystal
_audit_creation_method	'MofGen! by Chris Wilmer'
_symmetry_space_group_name_H-M	'P1'
_symmetry_Int_Tables_number	1
_symmetry_cell_setting	triclinic
loop_
_symmetry_equiv_pos_as_xyz
  x,y,z
_cell_length_a	15.944551
_cell_length_b	14.971486
_cell_length_c	13.448316
_cell_angle_alpha	90.006811
_cell_angle_beta	89.997731
_cell_angle_gamma	96.443567
loop_
_atom_site_label
_atom_site_type_symbol
_atom_site_fract_x
_atom_site_fract_y
_atom_site_fract_z
O1	O	1.114636	-0.115362	-0.082589
O2	O	0.870100	-0.129585	-0.082613
O3	O	0.998923	0.007734	-0.082593
O4	O	0.985814	-0.252680	-0.082609
O5	O	0.998906	0.007742	0.082791
O6	O	0.870084	-0.129576	0.082770
O7	O	1.114620	-0.115354	0.082795
Cu8	Cu	0.992351	-0.122464	0.097884
Cu9	Cu	0.992370	-0.122474	-0.097702
O10	O	0.985798	-0.252672	0.082775
C11	C	0.838798	-0.128990	0.000075
C12	C	0.745550	-0.127220	0.000066
N13	N	0.992343	-0.122456	0.235448
C14	C	0.998328	0.041062	0.000098
C15	C	0.996572	0.140357	0.000097
C16	C	0.530608	-0.037872	0.000091
C17	C	0.469636	-0.079366	-0.081455
C18	C	0.574821	-0.124017	0.000078
C19	C	0.469642	-0.079379	0.081601
C20	C	0.409905	-0.120918	0.000094
C21	C	0.515077	-0.165535	-0.081535
C22	C	0.515089	-0.165535	0.081594
C23	C	0.454134	-0.207092	0.000029
C24	C	0.669825	-0.125801	0.000068
C25	C	0.314903	-0.119141	0.000097
C26	C	1.145923	-0.115948	0.000104
C27	C	1.239171	-0.117718	0.000107
C28	C	0.986392	-0.286000	0.000081
C29	C	0.988149	-0.385295	0.000076
C30	C	1.072251	0.197664	0.000106
C31	C	1.070595	0.290962	0.000095
C32	C	0.993259	0.326951	0.000084
C33	C	0.917574	0.269637	0.000073
C34	C	0.919230	0.176341	0.000076
C35	C	0.914127	0.464095	0.000069
C36	C	0.912470	0.557398	0.000067
C37	C	1.065491	0.578717	0.000088
C38	C	1.067148	0.485421	0.000091
C39	C	0.991462	0.428113	0.000082
N40	N	0.992384	-0.122475	-0.235266
C41	C	1.049404	-0.061677	0.287497
C42	C	1.049409	-0.061676	0.391600
C43	C	0.992357	-0.122460	0.443653
C44	C	0.935291	-0.183243	0.391596
C45	C	0.935282	-0.183238	0.287495
C46	C	0.935314	-0.183249	0.608576
C47	C	0.935324	-0.183254	0.712685
C48	C	1.049441	-0.061686	0.712682
C49	C	1.049432	-0.061682	0.608581
C50	C	0.992367	-0.122466	0.556531
H51	H	0.563873	0.033621	-0.000006
Cl52	Cl	0.546218	-0.221738	0.188033
H53	H	1.130122	0.456122	0.000108
Cl54	Cl	1.121180	0.014725	0.778119
Cl55	Cl	1.169479	0.152431	0.000130
Cl56	Cl	0.818977	0.392052	0.000056
Cl57	Cl	0.824086	0.104297	0.000061
Cl58	Cl	1.165740	0.363002	0.000109
H59	H	1.095865	-0.012183	0.245123
H60	H	0.888843	-0.232743	0.566201
Cl61	Cl	0.863543	-0.259648	0.222062
Cl62	Cl	1.160639	0.650760	0.000095
H63	H	1.095871	-0.012184	0.433979
H64	H	0.449498	-0.042934	-0.150391
Cl65	Cl	1.121159	0.014727	0.543142
H66	H	0.449514	-0.042923	0.150539
H67	H	0.535106	-0.201947	-0.150550
H68	H	0.888865	-0.232750	0.755060
H69	H	0.421044	-0.278659	-0.000021
Cl70	Cl	0.815246	0.602640	0.000054
Cl71	Cl	0.820351	0.314880	0.000046
Cl72	Cl	0.863563	-0.259654	0.457031
