data_functionalizedCrystal
_audit_creation_method	'MofGen! by Chris Wilmer'
_symmetry_space_group_name_H-M	'P1'
_symmetry_Int_Tables_number	1
_symmetry_cell_setting	triclinic
loop_
_symmetry_equiv_pos_as_xyz
  x,y,z
_cell_length_a	6.817900
_cell_length_b	15.301126
_cell_length_c	10.992410
_cell_angle_alpha	93.551656
_cell_angle_beta	108.764651
_cell_angle_gamma	104.177575
loop_
_atom_site_label
_atom_site_type_symbol
_atom_site_fract_x
_atom_site_fract_y
_atom_site_fract_z
V1	V	-4.090843	-0.124759	-0.400984
O2	O	-4.073501	0.005995	-0.392949
O3	O	-4.045418	-0.247376	-0.398628
O4	O	-4.068795	-0.122840	-0.575690
O5	O	-4.049962	-0.119403	-0.214660
V6	V	-4.570670	-0.109119	-0.378651
O7	O	-4.360207	-0.159066	-0.449972
O8	O	-4.751504	-0.074812	-0.329662
O9	O	-4.392889	0.013498	-0.381007
O10	O	-4.705409	-0.239873	-0.386686
O11	O	-4.728948	-0.114475	-0.564974
O12	O	-4.369512	-0.111038	-0.203944
C13	C	-3.890289	-0.277267	-0.392402
C14	C	-3.934612	-0.377508	-0.391640
C15	C	-4.138640	-0.429194	-0.397705
C16	C	-4.180278	-0.523382	-0.396997
C17	C	-4.017879	-0.565880	-0.390214
C18	C	-3.813835	-0.514188	-0.384153
C19	C	-3.772205	-0.420003	-0.384870
C20	C	-3.900616	-0.710499	-0.382654
C21	C	-3.942247	-0.804689	-0.381934
C22	C	-4.308689	-0.813877	-0.394781
C23	C	-4.267059	-0.719692	-0.395499
C24	C	-4.063016	-0.668006	-0.389434
C25	C	-3.920108	-0.118408	-0.618261
C26	C	-3.983385	-0.117650	-0.761087
C27	C	-3.851803	-0.110746	-0.956188
C28	C	-3.786035	-0.111908	-0.807709
C29	C	-4.164721	-0.206559	-0.838469
C30	C	-4.229182	-0.205773	-0.987033
C31	C	-4.139246	-0.033613	-0.948462
C32	C	-4.068616	-0.033192	-0.799448
C33	C	-4.211358	0.043384	-0.387229
C34	C	-4.146276	0.143624	-0.387999
C35	C	-4.181539	-0.115473	-0.161367
C36	C	-4.097501	-0.116226	-0.018540
H37	H	-4.399298	-0.685092	-0.401014
C38	C	-4.533145	-0.870731	-0.401481
H39	H	-4.534696	-0.932913	-0.400104
H40	H	-4.564268	-0.848954	-0.328946
H41	H	-4.638944	-0.865414	-0.479548
H42	H	-3.606069	-0.377921	-0.379936
H43	H	-4.346416	-0.565461	-0.401938
C44	C	-4.380208	-0.037970	-1.003651
H45	H	-4.455071	-0.089851	-1.069078
H46	H	-4.438473	-0.042448	-0.935802
H47	H	-4.395733	0.015695	-1.040149
C48	C	-3.676167	-0.653644	-0.375970
H49	H	-3.585400	-0.692440	-0.371811
H50	H	-3.689646	-0.624944	-0.451274
H51	H	-3.614966	-0.608477	-0.300672
H52	H	-3.681614	-0.548798	-0.378638
H53	H	-3.810024	-0.839293	-0.376450
C54	C	-3.891781	0.055664	-0.728446
H55	H	-3.944313	0.106507	-0.752055
H56	H	-3.853469	0.056683	-0.637183
H57	H	-3.768464	0.058623	-0.752314
H58	H	-4.107195	-0.269265	-0.813060
H59	H	-4.048998	0.033902	-0.968610
H60	H	-3.649573	-0.047979	-0.754168
H61	H	-4.201884	-0.268325	-1.033499
C62	C	-3.709773	-0.023798	-0.981364
H63	H	-3.799036	0.009940	-1.030134
H64	H	-3.616310	0.012473	-0.900714
H65	H	-3.626371	-0.040171	-1.028811
C66	C	-4.260837	-0.031767	-0.755506
H67	H	-4.291778	-0.082895	-0.713009
H68	H	-4.225702	0.022803	-0.697194
H69	H	-4.383648	-0.034351	-0.829217
C70	C	-3.803059	-0.190934	-1.021260
H71	H	-3.931794	-0.227739	-1.086258
H72	H	-3.698621	-0.167969	-1.059965
H73	H	-3.748726	-0.226576	-0.957697
H74	H	-3.717564	-0.172090	-0.783082
H75	H	-4.270884	-0.394598	-0.403216
C76	C	-4.473088	-0.216229	-1.044667
H77	H	-4.532379	-0.220944	-0.977266
H78	H	-4.496051	-0.164509	-1.084536
H79	H	-4.541316	-0.269710	-1.107743
H80	H	-4.313706	-0.213971	-0.809689
