data_functionalizedCrystal
_audit_creation_method	'MofGen! by Chris Wilmer'
_symmetry_space_group_name_H-M	'P1'
_symmetry_Int_Tables_number	1
_symmetry_cell_setting	triclinic
loop_
_symmetry_equiv_pos_as_xyz
  x,y,z
_cell_length_a	15.995292
_cell_length_b	10.723024
_cell_length_c	9.198806
_cell_angle_alpha	90.002012
_cell_angle_beta	89.994884
_cell_angle_gamma	96.031757
loop_
_atom_site_label
_atom_site_type_symbol
_atom_site_fract_x
_atom_site_fract_y
_atom_site_fract_z
O1	O	1.111937	-0.160493	-0.120928
O2	O	0.868270	-0.180431	-0.120922
O3	O	0.995724	0.011187	-0.120920
O4	O	0.984483	-0.352112	-0.120930
O5	O	0.995714	0.011188	0.120865
O6	O	0.868260	-0.180431	0.120863
O7	O	1.111927	-0.160493	0.120857
Cu8	Cu	0.990092	-0.170462	0.142937
Cu9	Cu	0.990105	-0.170462	-0.143002
O10	O	0.984473	-0.352111	0.120855
C11	C	0.994901	0.057677	-0.000029
C12	C	0.992453	0.196199	-0.000034
C13	C	0.837065	-0.179619	-0.000029
C14	C	0.744098	-0.177187	-0.000026
C15	C	0.406308	-0.168243	-0.000042
C16	C	0.430415	-0.306548	-0.000586
C17	C	0.527105	-0.309177	-0.000035
C18	C	0.573889	-0.172681	-0.000035
C19	C	0.544384	-0.103535	0.138033
C20	C	0.447584	-0.101870	0.138143
C21	C	0.447724	-0.099046	-0.136812
C22	C	0.544246	-0.104171	-0.138631
C23	C	0.668600	-0.175182	-0.000026
C24	C	0.311598	-0.165738	-0.000042
C25	C	1.143132	-0.161305	-0.000040
C26	C	1.236099	-0.163737	-0.000051
C27	C	0.985296	-0.398601	-0.000039
C28	C	0.987743	-0.537123	-0.000044
N29	N	0.990090	-0.170461	0.344051
C30	C	1.063770	0.272114	-0.000038
C31	C	1.061242	0.415284	-0.000043
N32	N	0.990113	-0.170453	-0.344116
C33	C	1.043604	-0.089654	0.416249
C34	C	1.043617	-0.089649	0.583661
H35	H	0.546447	-0.363322	-0.099012
F36	F	0.427801	0.030669	0.146406
H37	H	0.421038	-0.149757	0.241351
H38	H	0.929525	0.237199	-0.000042
F39	F	1.103328	0.000991	0.335050
H40	H	1.122295	0.480514	-0.000040
H41	H	0.576644	-0.004543	-0.146970
H42	H	0.944298	-0.239644	0.593806
F43	F	0.585276	0.027756	0.144741
H44	H	0.926687	0.397654	-0.000031
H45	H	1.089437	-0.020472	0.645748
H46	H	0.944281	-0.239635	0.406178
H47	H	0.564715	-0.151552	0.240783
F48	F	0.568931	-0.169944	-0.272143
H49	H	0.402729	-0.359857	-0.099602
H50	H	0.545817	-0.363656	0.099103
F51	F	0.411045	-0.155569	-0.273596
F52	F	0.392877	-0.375845	0.128099
F53	F	0.428675	0.034018	-0.138030
H54	H	1.126699	0.231114	-0.000030
