data_functionalizedCrystal
_audit_creation_method	'MofGen! by Chris Wilmer'
_symmetry_space_group_name_H-M	'P1'
_symmetry_Int_Tables_number	1
_symmetry_cell_setting	triclinic
loop_
_symmetry_equiv_pos_as_xyz
  x,y,z
_cell_length_a	19.288840
_cell_length_b	10.967829
_cell_length_c	17.766277
_cell_angle_alpha	77.865804
_cell_angle_beta	89.983415
_cell_angle_gamma	83.934359
loop_
_atom_site_label
_atom_site_type_symbol
_atom_site_fract_x
_atom_site_fract_y
_atom_site_fract_z
O1	O	0.922379	0.155513	-0.082890
O2	O	0.720253	0.176544	-0.085592
O3	O	0.825975	-0.015650	-0.060673
O4	O	0.816657	0.347707	-0.107809
O5	O	0.825956	-0.015660	0.064517
O6	O	0.720234	0.176534	0.039598
O7	O	0.922360	0.155503	0.042300
Cu8	Cu	0.821295	0.166018	0.052380
Cu9	Cu	0.821318	0.166029	-0.095672
O10	O	0.816638	0.347697	0.017381
C11	C	0.694362	0.175868	-0.022906
C12	C	0.617245	0.173852	-0.022635
C13	C	0.581045	0.172889	-0.090752
C14	C	0.508586	0.170981	-0.090514
C15	C	0.472331	0.170011	-0.022151
C16	C	0.508538	0.170981	0.045974
C17	C	0.580995	0.172902	0.045732
C18	C	0.362498	0.093877	0.039994
C19	C	0.290043	0.091948	0.040234
C20	C	0.248848	0.164093	-0.021403
C21	C	0.280119	0.238150	-0.083291
C22	C	0.352576	0.240071	-0.083533
C23	C	0.393763	0.167929	-0.021881
C24	C	0.134080	0.161063	-0.089267
C25	C	0.061619	0.159163	-0.089027
C26	C	0.061573	0.159151	0.047465
C27	C	0.134032	0.161063	0.047221
C28	C	0.170282	0.162014	-0.021146
C29	C	0.825286	-0.062141	0.007951
C30	C	0.823253	-0.200655	0.025916
C31	C	0.822357	-0.262397	-0.030928
C32	C	0.820256	-0.405559	-0.012362
C33	C	0.948251	0.156179	-0.020387
C34	C	1.025368	0.158195	-0.020664
C35	C	0.817327	0.394188	-0.051245
C36	C	0.819360	0.532702	-0.069214
N37	N	0.821285	0.166009	0.156511
N38	N	0.821334	0.166028	-0.199802
C39	C	0.868114	0.080947	0.206927
C40	C	0.868118	0.080941	0.285729
C41	C	0.821299	0.166019	0.314110
C42	C	0.774461	0.251087	0.263685
C43	C	0.774454	0.251082	0.184885
C44	C	0.812742	0.279715	0.424200
C45	C	0.812755	0.279721	0.502998
C46	C	0.821318	0.166034	0.557155
C47	C	0.829884	0.052335	0.532505
C48	C	0.829877	0.052330	0.453705
C49	C	0.821302	0.166033	0.399554
C50	C	0.868154	0.080959	0.693018
C51	C	0.868153	0.080951	0.771822
C52	C	0.774500	0.251108	0.749775
C53	C	0.774498	0.251104	0.670973
C54	C	0.821328	0.166031	0.642600
H55	H	0.032055	0.158369	0.103126
C56	C	0.919038	-0.011479	0.340351
C57	C	0.960055	-0.085968	0.298634
C58	C	1.006974	-0.171110	0.348922
H59	H	0.893887	-0.063420	0.377845
H60	H	0.948203	0.033243	0.365260
H61	H	0.930894	-0.130687	0.273738
H62	H	0.985221	-0.034061	0.261144
H63	H	1.036138	-0.126388	0.373831
H64	H	0.981817	-0.223043	0.386414
H65	H	1.034814	-0.221654	0.320624
H66	H	0.736340	0.320357	0.286796
C67	C	0.256223	0.011516	0.107512
C68	C	0.307803	-0.051214	0.161455
C69	C	0.276675	-0.125306	0.223448
H70	H	0.231976	-0.048108	0.089450
H71	H	0.224372	0.063442	0.131046
H72	H	0.339641	-0.103135	0.137925
H73	H	0.332053	0.008379	0.179538
H74	H	0.244824	-0.073381	0.246981
H75	H	0.252428	-0.184922	0.205379
H76	H	0.311666	-0.167868	0.260058
C77	C	0.723581	0.343587	0.130259
C78	C	0.682588	0.418114	0.171973
C79	C	0.635724	0.503357	0.121675
H80	H	0.694390	0.298982	0.105315
H81	H	0.748795	0.395482	0.092792
H82	H	0.657376	0.366226	0.209427
H83	H	0.711761	0.462747	0.196916
H84	H	0.660938	0.555252	0.084208
H85	H	0.606538	0.458741	0.096734
H86	H	0.607909	0.553942	0.149970
H87	H	0.822461	-0.253780	0.088326
C88	C	0.823314	-0.191380	-0.114115
C89	C	0.764775	-0.102238	-0.129596
C90	C	0.765643	-0.036782	-0.206217
H91	H	0.822450	-0.248520	-0.147459
H92	H	0.864476	-0.150283	-0.122239
H93	H	0.723623	-0.143333	-0.121480
H94	H	0.765626	-0.045071	-0.096271
H95	H	0.806806	0.004315	-0.214341
H96	H	0.764781	-0.093932	-0.239555
H97	H	0.725929	0.023715	-0.216729
H98	H	0.906285	0.011683	0.669916
C99	C	0.819174	-0.476145	0.070911
C100	C	0.820391	-0.391435	0.119755
C101	C	0.819385	-0.456412	0.196469
H102	H	0.858849	-0.536675	0.081661
H103	H	0.777979	-0.517140	0.079071
H104	H	0.861582	-0.350461	0.111599
H105	H	0.780719	-0.330904	0.109031
H106	H	0.778190	-0.497407	0.204629
H107	H	0.859062	-0.516940	0.207210
H108	H	0.820205	-0.398945	0.229619
C109	C	0.820372	-0.396697	-0.152491
C110	C	0.819121	-0.481403	-0.201333
C111	C	0.820043	-0.416409	-0.278051
H112	H	0.861538	-0.355660	-0.160723
H113	H	0.780667	-0.336196	-0.163172
H114	H	0.858821	-0.541881	-0.190657
H115	H	0.777957	-0.522443	-0.193126
H116	H	0.780338	-0.355908	-0.288732
H117	H	0.861210	-0.375375	-0.286275
H118	H	0.819188	-0.473870	-0.311200
C119	C	0.235484	0.316690	-0.150221
C120	C	0.244517	0.443475	-0.156831
C121	C	0.203419	0.515849	-0.218486
H122	H	0.187829	0.305114	-0.141301
H123	H	0.249144	0.291367	-0.196488
H124	H	0.230854	0.468790	-0.110575
H125	H	0.292163	0.455090	-0.165762
H126	H	0.217078	0.490527	-0.264753
H127	H	0.155767	0.504262	-0.209561
H128	H	0.209547	0.601879	-0.222984
H129	H	0.906245	0.011673	0.183828
C130	C	0.839023	-0.071160	0.426997
C131	C	0.785053	-0.142680	0.455467
C132	C	0.793444	-0.256444	0.430876
H133	H	0.882579	-0.116026	0.445682
H134	H	0.837757	-0.054947	0.372311
H135	H	0.786326	-0.158896	0.510141
H136	H	0.741491	-0.097853	0.436784
H137	H	0.792178	-0.240231	0.376190
H138	H	0.837002	-0.301298	0.449563
H139	H	0.756824	-0.304980	0.450183
H140	H	0.836857	-0.040240	0.576599
H141	H	0.610555	0.173663	-0.146422
C142	C	0.173389	0.162377	-0.163549
C143	C	0.148480	0.269269	-0.218573
C144	C	0.184680	0.270535	-0.287006
H145	H	0.166505	0.089406	-0.182220
H146	H	0.221728	0.163721	-0.153974
H147	H	0.100152	0.267913	-0.228148
H148	H	0.155365	0.342257	-0.199927
H149	H	0.233019	0.271879	-0.277432
H150	H	0.177793	0.197559	-0.305670
H151	H	0.167789	0.343064	-0.324346
C152	C	0.919079	-0.011462	0.826434
C153	C	0.960100	-0.085936	0.784712
C154	C	1.007028	-0.171067	0.834993
H155	H	0.893936	-0.063414	0.863930
H156	H	0.948241	0.033269	0.851341
H157	H	0.930943	-0.130663	0.759817
H158	H	0.985259	-0.034018	0.747219
H159	H	1.036190	-0.126337	0.859900
H160	H	0.981879	-0.223011	0.872487
H161	H	1.034871	-0.221600	0.806691
C162	C	0.723554	0.343337	0.780556
C163	C	0.655207	0.323399	0.764017
C164	C	0.608253	0.408325	0.792373
H165	H	0.731397	0.426636	0.756860
H166	H	0.730216	0.331153	0.834716
H167	H	0.648548	0.335594	0.709868
H168	H	0.647341	0.240117	0.787713
H169	H	0.614915	0.396140	0.846533
H170	H	0.616103	0.491618	0.768675
H171	H	0.561874	0.394801	0.781162
H172	H	0.032146	0.158386	-0.144499
C173	C	0.723740	0.343675	0.616245
C174	C	0.735603	0.466241	0.619488
C175	C	0.688861	0.551552	0.569076
H176	H	0.677293	0.330514	0.630855
H177	H	0.730443	0.331576	0.565231
H178	H	0.728894	0.478335	0.670490
H179	H	0.782041	0.479441	0.604871
H180	H	0.695564	0.539453	0.518063
H181	H	0.642417	0.538380	0.583691
H182	H	0.696908	0.634722	0.571265
C183	C	0.173321	0.161832	0.121239
C184	C	0.163007	0.054014	0.176384
C185	C	0.199195	0.054675	0.244578
H186	H	0.156516	0.234180	0.139983
H187	H	0.221677	0.163046	0.111346
H188	H	0.114661	0.052812	0.186277
H189	H	0.179815	-0.018351	0.157664
H190	H	0.247551	0.055889	0.234685
H191	H	0.182387	0.127027	0.263315
H192	H	0.192207	-0.018483	0.281999
C193	C	0.803594	0.403125	0.529806
C194	C	0.862225	0.412768	0.573756
C195	C	0.853812	0.526438	0.598456
H196	H	0.763205	0.405948	0.560258
H197	H	0.798517	0.470875	0.486290
H198	H	0.867294	0.345037	0.617266
H199	H	0.902622	0.409968	0.543320
H200	H	0.848735	0.594188	0.554939
H201	H	0.813421	0.529251	0.628904
H202	H	0.893593	0.533002	0.628272
H203	H	0.479106	0.170199	-0.145985
C204	C	0.407318	0.015454	0.106811
C205	C	0.454833	-0.069905	0.079538
C206	C	0.496138	-0.142152	0.141063
H207	H	0.378409	-0.029050	0.143739
H208	H	0.432026	0.068858	0.130110
H209	H	0.430127	-0.123303	0.056251
H210	H	0.483757	-0.025436	0.042618
H211	H	0.520846	-0.088747	0.164363
H212	H	0.467224	-0.186647	0.177987
H213	H	0.528386	-0.200068	0.122566
H214	H	0.378033	0.300373	-0.133922
H215	H	0.479014	0.170194	0.101635
C216	C	0.620182	0.173870	0.119781
C217	C	0.572929	0.172586	0.179708
C218	C	0.609005	0.173458	0.247935
H219	H	0.643497	0.247346	0.113196
H220	H	0.653388	0.101835	0.132005
H221	H	0.539736	0.244614	0.167486
H222	H	0.549612	0.099116	0.186317
H223	H	0.642210	0.101422	0.260159
H224	H	0.632319	0.246934	0.241342
H225	H	0.576950	0.172575	0.288605
H226	H	0.805757	0.372298	0.380110
