data_functionalizedCrystal
_audit_creation_method	'MofGen! by Chris Wilmer'
_symmetry_space_group_name_H-M	'P1'
_symmetry_Int_Tables_number	1
_symmetry_cell_setting	triclinic
loop_
_symmetry_equiv_pos_as_xyz
  x,y,z
_cell_length_a	14.908571
_cell_length_b	16.120484
_cell_length_c	14.908803
_cell_angle_alpha	83.995202
_cell_angle_beta	89.810884
_cell_angle_gamma	89.787312
loop_
_atom_site_label
_atom_site_type_symbol
_atom_site_fract_x
_atom_site_fract_y
_atom_site_fract_z
Zn1	Zn	1.319948	-0.435107	0.609961
Zn2	Zn	1.819948	0.064893	1.109961
Zn3	Zn	1.320927	-0.566886	0.466384
Zn4	Zn	1.820927	-0.066886	0.966384
Zn5	Zn	1.179230	-0.419051	0.450135
Zn6	Zn	1.679230	0.080949	0.950135
Zn7	Zn	1.161977	-0.565938	0.607985
Zn8	Zn	1.661977	-0.065938	1.107985
O9	O	1.245521	-0.496746	0.533616
O10	O	1.745521	0.003254	1.033616
O11	O	1.445490	-0.459704	0.598543
O12	O	1.945490	0.040296	1.098543
O13	O	1.309760	-0.540952	0.338080
O14	O	1.809760	-0.040952	0.838080
O15	O	1.204708	-0.304559	0.465363
O16	O	1.704708	0.195441	0.965363
O17	O	1.446209	-0.556521	0.493057
O18	O	1.946209	-0.056521	0.993057
O19	O	1.308093	-0.316355	0.582787
O20	O	1.808093	0.183645	1.082787
O21	O	1.205656	-0.432339	0.326142
O22	O	1.705656	0.067661	0.826142
O23	O	1.051530	-0.431420	0.463447
O24	O	1.551530	0.068580	0.963447
O25	O	1.175302	-0.554906	0.734395
O26	O	1.675302	-0.054906	1.234395
O27	O	1.038854	-0.539338	0.579419
O28	O	1.538854	-0.039338	1.079419
O29	O	1.291363	-0.458786	0.735847
O30	O	1.791363	0.041214	1.235847
O31	O	1.293030	-0.683382	0.491141
O32	O	1.793030	-0.183382	0.991141
O33	O	1.176251	-0.682686	0.595174
O34	O	1.676251	-0.182686	1.095174
C35	C	1.012674	-0.483535	0.519456
C36	C	1.512674	0.016465	1.019456
C37	C	0.913058	-0.477904	0.513420
C38	C	1.413058	0.022096	1.013420
C39	C	0.712719	-0.579855	0.622693
C40	C	1.212719	-0.079855	1.122693
C41	C	0.619121	-0.574567	0.617026
C42	C	1.119121	-0.074567	1.117026
C43	C	0.632263	-0.462037	0.496422
C44	C	1.132263	0.037963	0.996422
C45	C	0.725861	-0.467325	0.502090
C46	C	1.225861	0.032675	1.002090
C47	C	0.766085	-0.526237	0.565227
C48	C	1.266085	-0.026237	1.065227
C49	C	0.859685	-0.531528	0.570889
C50	C	1.359685	-0.031528	1.070889
C51	C	0.872825	-0.418994	0.450291
C52	C	1.372825	0.081006	0.950291
C53	C	0.779227	-0.413707	0.444623
C54	C	1.279227	0.086293	0.944623
C55	C	1.232898	-0.713275	0.544727
C56	C	1.732898	-0.213275	1.044727
C57	C	1.227578	-0.805914	0.549516
C58	C	1.727578	-0.305914	1.049516
C59	C	1.217869	-0.975527	0.558277
C60	C	1.717869	-0.475527	1.058277
C61	C	1.273332	-1.017134	0.508980
C62	C	1.773332	-0.517134	1.008980
C63	C	1.267930	-1.111512	0.513855
C64	C	1.767930	-0.611512	1.013855
C65	C	1.223270	-0.881140	0.553404
C66	C	1.723270	-0.381140	1.053404
C67	C	1.479277	-0.510009	0.547833
C68	C	1.979277	-0.010009	1.047833
C69	C	1.578890	-0.515661	0.553891
C70	C	2.078890	-0.015661	1.053891
C71	C	1.231299	-0.508531	0.768745
C72	C	1.731299	-0.008531	1.268745
C73	C	1.225239	-0.513554	0.868943
C74	C	1.725239	-0.013554	1.368943
C75	C	1.258216	-0.279373	0.522483
C76	C	1.758216	0.220627	1.022483
C77	C	1.263626	-0.186741	0.517739
C78	C	1.763626	0.313259	1.017739
C79	C	1.334704	-0.422881	1.058737
C80	C	1.834704	0.077119	1.558737
C81	C	1.329013	-0.427597	1.152882
C82	C	1.829013	0.072403	1.652882
C83	C	1.208162	-0.527697	1.151378
C84	C	1.708162	-0.027697	1.651378
C85	C	1.213853	-0.522981	1.057233
C86	C	1.713853	-0.022981	1.557233
C87	C	1.277127	-0.470572	1.010916
C88	C	1.777127	0.029428	1.510916
C89	C	1.282822	-0.465861	0.916770
C90	C	1.782822	0.034139	1.416770
C91	C	1.161967	-0.565956	0.915268
C92	C	1.661967	-0.065956	1.415268
C93	C	1.156276	-0.570672	1.009412
C94	C	1.656276	-0.070672	1.509412
C95	C	1.259680	-0.485025	1.299403
C96	C	1.759680	0.014975	1.799403
C97	C	1.265745	-0.480005	1.199206
C98	C	1.765745	0.019995	1.699206
H99	H	0.745471	-0.627827	0.674097
H100	H	1.245471	-0.127827	1.174097
H101	H	0.575673	-0.618227	0.663823
H102	H	1.075673	-0.118227	1.163823
H103	H	1.115086	-0.604792	0.876322
H104	H	1.615086	-0.104792	1.376322
F105	F	0.902494	-0.594228	0.638082
F106	F	1.402494	-0.094228	1.138082
F107	F	0.589437	-0.399334	0.429244
F108	F	1.089437	0.100666	0.929244
H109	H	1.386228	-0.380212	1.021026
H110	H	1.886228	0.119788	1.521026
F111	F	0.736407	-0.351009	0.377435
F112	F	1.236407	0.148991	0.877435
F113	F	1.390293	-0.376837	1.203773
F114	F	1.890293	0.123163	1.703773
F115	F	1.350165	-0.410086	0.867478
F116	F	1.850165	0.089914	1.367478
H117	H	0.916286	-0.375336	0.403495
H118	H	1.416286	0.124664	0.903495
H119	H	1.156647	-0.570366	1.189105
H120	H	1.656647	-0.070366	1.689105
H121	H	1.166332	-1.010784	0.604139
H122	H	1.666332	-0.510784	1.104139
F123	F	1.340697	-0.971049	0.449027
F124	F	1.840697	-0.471049	0.949027
F125	F	1.088938	-0.626445	1.058716
F126	F	1.588938	-0.126445	1.558716
