data_functionalizedCrystal
_audit_creation_method	'MofGen! by Chris Wilmer'
_symmetry_space_group_name_H-M	'P1'
_symmetry_Int_Tables_number	1
_symmetry_cell_setting	triclinic
loop_
_symmetry_equiv_pos_as_xyz
  x,y,z
_cell_length_a	13.032831
_cell_length_b	16.625545
_cell_length_c	13.032268
_cell_angle_alpha	97.146561
_cell_angle_beta	89.113023
_cell_angle_gamma	97.171393
loop_
_atom_site_label
_atom_site_type_symbol
_atom_site_fract_x
_atom_site_fract_y
_atom_site_fract_z
Zn1	Zn	1.498407	0.544521	0.780800
Zn2	Zn	1.998407	1.044521	1.280800
Zn3	Zn	1.520133	0.664651	0.608813
Zn4	Zn	2.020133	1.164651	1.108813
Zn5	Zn	1.348270	0.510838	0.587043
Zn6	Zn	1.848270	1.010838	1.087043
Zn7	Zn	1.326382	0.660292	0.758938
Zn8	Zn	1.826382	1.160292	1.258938
O9	O	1.423298	0.595076	0.683899
O10	O	1.923298	1.095076	1.183899
O11	O	1.645207	0.576377	0.776246
O12	O	2.145207	1.076377	1.276246
O13	O	1.515588	0.631976	0.462009
O14	O	2.015588	1.131976	0.962009
O15	O	1.368253	0.402484	0.612785
O16	O	1.868253	0.902484	1.112785
O17	O	1.661170	0.664636	0.649887
O18	O	2.161170	1.164636	1.149887
O19	O	1.478558	0.427231	0.755137
O20	O	1.978558	0.927231	1.255137
O21	O	1.389321	0.518970	0.446015
O22	O	1.889321	1.018970	0.946015
O23	O	1.201448	0.514743	0.591586
O24	O	1.701448	1.014743	1.091586
O25	O	1.330949	0.657206	0.905754
O26	O	1.830949	1.157206	1.405754
O27	O	1.185367	0.624546	0.717876
O28	O	1.685367	1.124546	1.217876
O29	O	1.457335	0.572150	0.921816
O30	O	1.957335	1.072150	1.421816
O31	O	1.494364	0.776895	0.628688
O32	O	1.994364	1.276895	1.128688
O33	O	1.352016	0.773692	0.738985
O34	O	1.852016	1.273692	1.238985
C35	C	1.156091	0.565517	0.649997
C36	C	1.656091	1.065517	1.149997
C37	C	1.041775	0.552893	0.635518
C38	C	1.541775	1.052893	1.135518
C39	C	0.982893	0.601664	0.691455
C40	C	1.482893	1.101664	1.191455
C41	C	0.864742	0.588618	0.676492
C42	C	1.364742	1.088618	1.176492
C43	C	1.423197	0.804552	0.683852
C44	C	1.923197	1.304552	1.183852
C45	C	1.423244	0.894180	0.683879
C46	C	1.923244	1.394180	1.183879
C47	C	1.423397	1.222385	0.684023
C48	C	1.923397	1.722385	1.184023
C49	C	1.423351	1.131068	0.683985
C50	C	1.923351	1.631068	1.183985
C51	C	1.423320	1.058285	0.683950
C52	C	1.923320	1.558285	1.183950
C53	C	1.423275	0.966963	0.683914
C54	C	1.923275	1.466963	1.183914
C55	C	1.691548	0.624750	0.717933
C56	C	2.191548	1.124750	1.217933
C57	C	1.805861	0.637396	0.732437
C58	C	2.305861	1.137396	1.232437
C59	C	1.389277	0.617949	0.952144
C60	C	1.889277	1.117949	1.452144
C61	C	1.374779	0.627696	1.066455
C62	C	1.874779	1.127696	1.566455
C63	C	1.423414	1.384786	0.683982
C64	C	1.923414	1.884786	1.183982
C65	C	1.423437	1.295174	0.684046
C66	C	1.923437	1.795174	1.184046
C67	C	1.457246	0.572239	0.416704
C68	C	1.957246	1.072239	0.916704
C69	C	1.471943	0.562287	0.302419
C70	C	1.971943	1.062287	0.802419
C71	C	1.430849	0.589958	1.125365
C72	C	1.930849	1.089958	1.625365
C73	C	1.415866	0.600031	1.243511
C74	C	1.915866	1.100031	1.743511
H75	H	1.489940	0.550187	1.088333
H76	H	1.989940	1.050187	1.588333
O77	O	1.337575	0.652707	1.292551
O78	O	1.837575	1.152707	1.792551
H79	H	1.298775	0.678813	1.231425
H80	H	1.798775	1.178813	1.731425
O81	O	1.550232	0.509610	1.253382
O82	O	2.050232	1.009610	1.753382
H83	H	1.589021	0.483495	1.314508
H84	H	2.089021	0.983495	1.814508
O85	O	0.992705	0.484800	0.557386
O86	O	1.492705	0.984800	1.057386
H87	H	0.907606	0.485248	0.557880
H88	H	1.407606	0.985248	1.057880
H89	H	0.842913	0.688808	0.791415
H90	H	1.342913	1.188808	1.291415
H91	H	1.315677	0.667457	1.103485
H92	H	1.815677	1.167457	1.603485
H93	H	0.827686	0.537199	0.617524
H94	H	1.327686	1.037199	1.117524
O95	O	1.031963	0.669753	0.769595
O96	O	1.531963	1.169753	1.269595
H97	H	1.117062	0.669309	0.769094
H98	H	1.617062	1.169309	1.269094
