data_functionalizedCrystal
_audit_creation_method	'MofGen! by Chris Wilmer'
_symmetry_space_group_name_H-M	'P1'
_symmetry_Int_Tables_number	1
_symmetry_cell_setting	triclinic
loop_
_symmetry_equiv_pos_as_xyz
  x,y,z
_cell_length_a	12.759399
_cell_length_b	21.295420
_cell_length_c	12.759401
_cell_angle_alpha	89.990037
_cell_angle_beta	90.008321
_cell_angle_gamma	89.990842
loop_
_atom_site_label
_atom_site_type_symbol
_atom_site_fract_x
_atom_site_fract_y
_atom_site_fract_z
Zn1	Zn	-0.418617	-0.962325	0.594101
Zn2	Zn	0.081383	-0.462325	1.094101
Zn3	Zn	-0.594263	-0.962284	0.418420
Zn4	Zn	-0.094263	-0.462284	0.918420
Zn5	Zn	-0.418580	-0.857077	0.418427
Zn6	Zn	0.081420	-0.357077	0.918427
Zn7	Zn	-0.594236	-0.857045	0.594048
Zn8	Zn	-0.094236	-0.357045	1.094048
O9	O	-0.506424	-0.909683	0.506249
O10	O	-0.006424	-0.409683	1.006249
O11	O	-0.441943	-1.050409	0.570816
O12	O	0.058057	-0.550409	1.070816
O13	O	-0.570954	-0.948325	0.271400
O14	O	-0.070954	-0.448325	0.771400
O15	O	-0.271564	-0.871068	0.441756
O16	O	0.228436	-0.371068	0.941756
O17	O	-0.570990	-1.050379	0.441744
O18	O	-0.070990	-0.550379	0.941744
O19	O	-0.271591	-0.948393	0.570823
O20	O	0.228409	-0.448393	1.070823
O21	O	-0.441881	-0.871029	0.271405
O22	O	0.058119	-0.371029	0.771405
O23	O	-0.441855	-0.768983	0.441705
O24	O	0.058145	-0.268983	0.941705
O25	O	-0.570943	-0.871015	0.741076
O26	O	-0.070943	-0.371015	1.241076
O27	O	-0.570908	-0.768960	0.570732
O28	O	-0.070908	-0.268960	1.070732
O29	O	-0.441917	-0.948363	0.741115
O30	O	0.058083	-0.448363	1.241115
O31	O	-0.741280	-0.948294	0.441693
O32	O	-0.241280	-0.448294	0.941693
O33	O	-0.741260	-0.870976	0.570726
O34	O	-0.241260	-0.370976	1.070726
C35	C	-0.506375	-0.746131	0.506214
C36	C	-0.006375	-0.246131	1.006214
C37	C	-0.506380	-0.676163	0.506224
C38	C	-0.006380	-0.176163	1.006224
C39	C	-0.439351	-0.176720	0.573557
C40	C	0.060649	0.323280	1.073557
C41	C	-0.439346	-0.242462	0.573559
C42	C	0.060654	0.257538	1.073559
C43	C	-0.506424	-0.275324	0.506252
C44	C	-0.006424	0.224676	1.006252
C45	C	-0.573530	-0.242437	0.438957
C46	C	-0.073530	0.257563	0.938957
C47	C	-0.573540	-0.176696	0.438964
C48	C	-0.073540	0.323304	0.938964
N49	N	-0.514323	-0.378530	0.414262
N50	N	-0.014323	0.121470	0.914262
N51	N	-0.514307	-0.440981	0.414258
N52	N	-0.014307	0.059019	0.914258
C53	C	-0.506399	-0.473398	0.506228
C54	C	-0.006399	0.026602	1.006228
N55	N	-0.498487	-0.441005	0.598204
N56	N	0.001513	0.058995	1.098204
N57	N	-0.498497	-0.378547	0.598207
N58	N	0.001503	0.121453	1.098207
C59	C	-0.506421	-0.346609	0.506237
C60	C	-0.006421	0.153391	1.006237
C61	C	-0.439298	-0.577563	0.573527
C62	C	0.060702	-0.077563	1.073527
C63	C	-0.439301	-0.643306	0.573530
C64	C	0.060699	-0.143306	1.073530
C65	C	-0.573479	-0.643280	0.438919
C66	C	-0.073479	-0.143280	0.938919
C67	C	-0.573481	-0.577537	0.438924
C68	C	-0.073481	-0.077537	0.938924
C69	C	-0.506385	-0.544683	0.506227
C70	C	-0.006385	-0.044683	1.006227
C71	C	-0.779391	-0.909644	0.506225
C72	C	-0.279391	-0.409644	1.006225
C73	C	-0.896168	-0.909685	0.506250
C74	C	-0.396168	-0.409685	1.006250
C75	C	-0.951005	-0.949991	0.439139
C76	C	-0.451005	-0.449991	0.939139
C77	C	-1.060729	-0.950031	0.439174
C78	C	-0.560729	-0.450031	0.939174
C79	C	-1.060769	-0.869455	0.573435
C80	C	-0.560769	-0.369455	1.073435
C81	C	-0.951047	-0.869418	0.573404
C82	C	-0.451047	-0.369418	1.073404
C83	C	-0.232391	-0.909739	0.506296
C84	C	0.267609	-0.409739	1.006296
C85	C	-0.115614	-0.909762	0.506316
C86	C	0.384386	-0.409762	1.006316
C87	C	-0.506431	-0.909690	0.780283
C88	C	-0.006431	-0.409690	1.280283
C89	C	-0.506434	-0.909693	0.897059
C90	C	-0.006434	-0.409693	1.397059
C91	C	-0.506461	-0.073873	0.506277
C92	C	-0.006461	0.426127	1.006277
C93	C	-0.506444	-0.143841	0.506267
C94	C	-0.006444	0.356159	1.006267
C95	C	-0.439261	-0.949963	0.951943
C96	C	0.060739	-0.449963	1.451943
C97	C	-0.439259	-0.949957	1.061667
C98	C	0.060741	-0.449957	1.561667
C99	C	-0.573613	-0.869410	1.061614
C100	C	-0.073613	-0.369410	1.561614
C101	C	-0.573608	-0.869413	0.951892
C102	C	-0.073608	-0.369413	1.451892
C103	C	-0.506440	-0.909675	1.233282
C104	C	-0.006440	-0.409675	1.733282
C105	C	-0.506436	-0.909685	1.116505
C106	C	-0.006436	-0.409685	1.616505
H107	H	-0.628111	-0.550767	0.384124
H108	H	-0.128111	-0.050767	0.884124
H109	H	-0.628306	-0.836617	1.106272
H110	H	-0.128306	-0.336617	1.606272
Cl111	Cl	-0.354818	-1.000591	1.130660
Cl112	Cl	0.145182	-0.500591	1.630660
Cl113	Cl	-0.658056	-0.818780	0.882889
Cl114	Cl	-0.158056	-0.318780	1.382889
Cl115	Cl	-0.657815	-0.684585	0.354311
Cl116	Cl	-0.157815	-0.184585	0.854311
H117	H	-0.384664	-0.550811	0.628328
H118	H	0.115336	-0.050811	1.128328
H119	H	-0.384720	-0.149974	0.628365
H120	H	0.115280	0.350026	1.128365
Cl121	Cl	-0.657888	-0.135360	0.354358
Cl122	Cl	-0.157888	0.364640	0.854358
Cl123	Cl	-0.657860	-0.283747	0.354347
Cl124	Cl	-0.157860	0.216253	0.854347
Cl125	Cl	-0.354991	-0.283804	0.658157
Cl126	Cl	0.145009	0.216196	1.158157
H127	H	-1.105465	-0.836670	0.628107
H128	H	-0.605465	-0.336670	1.128107
H129	H	-0.384668	-0.670075	0.628334
H130	H	0.115332	-0.170075	1.128334
Cl131	Cl	-0.882018	-1.000614	0.354720
Cl132	Cl	-0.382018	-0.500614	0.854720
H133	H	-1.105373	-0.982853	0.384527
H134	H	-0.605373	-0.482853	0.884527
Cl135	Cl	-0.882103	-0.818747	0.657785
Cl136	Cl	-0.382103	-0.318747	1.157785
Cl137	Cl	-0.354809	-1.000598	0.883015
Cl138	Cl	0.145191	-0.500598	1.383015
