data_functionalizedCrystal
_audit_creation_method	'MofGen! by Chris Wilmer'
_symmetry_space_group_name_H-M	'P1'
_symmetry_Int_Tables_number	1
_symmetry_cell_setting	triclinic
loop_
_symmetry_equiv_pos_as_xyz
  x,y,z
_cell_length_a	14.519709
_cell_length_b	22.010155
_cell_length_c	14.519709
_cell_angle_alpha	90.003314
_cell_angle_beta	96.319855
_cell_angle_gamma	90.002862
loop_
_atom_site_label
_atom_site_type_symbol
_atom_site_fract_x
_atom_site_fract_y
_atom_site_fract_z
O1	O	1.223874	0.050447	-0.120878
O2	O	0.955397	0.050466	-0.135115
O3	O	1.096754	0.050451	0.006242
O4	O	1.082517	0.050463	-0.262235
O5	O	1.096728	-0.050600	0.006221
O6	O	0.955372	-0.050584	-0.135136
O7	O	1.223849	-0.050603	-0.120900
Cu8	Cu	1.089608	-0.059820	-0.128020
Cu9	Cu	1.089638	0.059683	-0.127995
O10	O	1.082492	-0.050588	-0.262256
C11	C	0.921025	-0.000057	-0.134462
C12	C	0.818643	-0.000050	-0.132474
N13	N	1.089593	-0.143873	-0.128037
C14	C	0.443748	-0.000078	-0.125154
C15	C	0.548056	-0.000070	-0.127187
C16	C	0.631192	-0.000063	-0.128814
C17	C	0.735507	-0.000056	-0.130847
C18	C	1.152235	-0.563659	-0.065411
C19	C	1.152239	-0.627267	-0.065405
O20	O	1.205462	-0.660164	-0.012170
N21	N	1.089638	-0.659080	-0.127975
C22	C	1.027022	-0.627282	-0.190550
O23	O	0.973774	-0.660183	-0.243771
C24	C	1.027014	-0.563676	-0.190552
C25	C	1.089625	-0.531866	-0.127983
C26	C	1.214840	-0.531849	-0.002847
C27	C	1.214837	-0.468246	-0.002854
C28	C	1.152228	-0.436453	-0.065426
C29	C	1.089622	-0.468263	-0.127991
C30	C	0.964394	-0.531879	-0.253121
C31	C	0.964391	-0.468269	-0.253117
C32	C	1.027003	-0.436459	-0.190548
C33	C	1.027009	-0.372866	-0.190570
N34	N	1.089611	-0.341053	-0.128000
C35	C	1.152220	-0.372846	-0.065428
C36	C	1.027042	-0.760860	-0.190542
C37	C	1.027054	-0.824465	-0.190546
C38	C	1.152270	-0.824445	-0.065399
C39	C	1.152262	-0.760839	-0.065400
C40	C	1.089643	-0.729047	-0.127971
C41	C	1.152209	-0.239275	-0.065449
C42	C	1.152202	-0.175666	-0.065465
C43	C	1.026983	-0.175692	-0.190608
C44	C	1.026992	-0.239295	-0.190596
C45	C	1.089609	-0.271085	-0.128009
O46	O	0.973811	-0.339929	-0.243776
O47	O	1.205450	-0.339938	-0.012208
C48	C	1.258221	-0.000079	-0.121553
C49	C	1.360602	-0.000082	-0.123541
C50	C	1.096078	-0.000074	0.040591
C51	C	1.094090	-0.000075	0.142972
N52	N	1.089660	0.143736	-0.127970
C53	C	1.083168	-0.000061	-0.296606
C54	C	1.085156	-0.000057	-0.398987
C55	C	1.086770	-0.000058	0.517868
C56	C	1.088803	-0.000063	0.413560
C57	C	1.090430	-0.000067	0.330423
C58	C	1.092463	-0.000071	0.226109
H59	H	1.203191	-0.149768	-0.014514
H60	H	1.203245	-0.734943	-0.014451
H61	H	1.265824	-0.557729	0.048111
H62	H	1.203249	-0.850343	-0.014448
O63	O	0.959499	-0.726579	-0.258044
H64	H	0.914601	-0.697609	-0.219127
O65	O	0.959554	-0.858773	-0.258060
H66	H	0.916025	-0.825973	-0.301572
H67	H	1.203195	-0.265151	-0.014484
O68	O	1.282355	-0.433939	0.064643
H69	H	1.325878	-0.466741	0.108156
O70	O	0.896896	-0.566180	-0.320640
H71	H	0.853371	-0.533377	-0.364148
O72	O	0.896856	-0.433977	-0.320611
H73	H	0.853330	-0.466787	-0.364118
H74	H	0.976017	-0.265195	-0.241554
O75	O	0.959433	-0.141396	-0.258073
H76	H	0.969940	-0.091823	-0.247545
