data_functionalizedCrystal
_audit_creation_method	'MofGen! by Chris Wilmer'
_symmetry_space_group_name_H-M	'P1'
_symmetry_Int_Tables_number	1
_symmetry_cell_setting	triclinic
loop_
_symmetry_equiv_pos_as_xyz
  x,y,z
_cell_length_a	14.560438
_cell_length_b	14.560438
_cell_length_c	14.560438
_cell_angle_alpha	120.000625
_cell_angle_beta	89.999607
_cell_angle_gamma	59.999939
loop_
_atom_site_label
_atom_site_type_symbol
_atom_site_fract_x
_atom_site_fract_y
_atom_site_fract_z
Zr1	Zr	0.884771	1.005262	0.120479
O2	O	0.738122	1.196869	0.267130
O3	O	0.929726	0.813659	0.075525
O4	O	0.929727	1.005265	0.267127
O5	O	0.738122	1.005259	-0.075614
O6	O	1.080868	1.005262	0.267122
O7	O	0.738122	1.005263	0.075528
O8	O	1.080866	0.662514	-0.075619
O9	O	0.738123	1.348007	0.267127
O10	O	1.061694	0.892464	0.056346
O11	O	0.948899	0.892463	-0.056446
O12	O	0.948900	1.118055	0.169141
O13	O	0.836105	1.118053	0.056349
Zr14	Zr	1.125823	1.005250	-0.120583
Zr15	Zr	1.125823	1.005257	0.120471
Zr16	Zr	0.884770	1.005255	-0.120575
Zr17	Zr	0.884771	1.246309	0.120474
Zr18	Zr	1.125822	0.764202	-0.120578
O19	O	1.080867	1.196853	-0.075629
O20	O	1.080868	1.196863	0.267118
O21	O	0.738122	1.196859	-0.075618
O22	O	1.272471	0.813642	-0.267233
O23	O	1.272471	0.813652	0.075514
O24	O	0.929725	0.813649	-0.267222
O25	O	1.272472	1.005253	0.075510
O26	O	1.080867	1.005247	-0.267231
O27	O	0.929726	1.005249	-0.267226
O28	O	1.272471	1.005249	-0.075632
O29	O	0.929727	1.348004	0.267121
O30	O	1.080866	0.662508	-0.267224
O31	O	1.272470	0.662504	-0.267231
O32	O	1.272471	0.662510	-0.075625
O33	O	0.738122	1.348002	0.075521
O34	O	0.929727	1.347998	0.075515
O35	O	1.061693	0.892457	-0.169245
O36	O	1.174488	0.892458	-0.056453
O37	O	1.061694	1.118049	0.056342
O38	O	0.948899	1.118048	-0.056450
C39	C	1.005296	0.703742	-0.000046
C40	C	1.005296	0.601411	-0.000044
C41	C	1.064171	0.553336	0.058832
C42	C	1.064176	0.457176	0.058821
C43	C	0.946420	0.457180	-0.058943
C44	C	0.946423	0.553331	-0.058938
C45	C	0.703777	1.005262	-0.000042
C46	C	0.601444	1.005263	-0.000039
C47	C	0.553361	1.005268	0.083225
C48	C	0.457215	1.005256	0.083210
C49	C	0.457241	1.005240	-0.083337
C50	C	0.553390	1.005243	-0.083325
C51	C	0.601414	1.005289	0.166511
C52	C	0.553330	1.005295	0.249782
C53	C	0.457185	1.005282	0.249767
C54	C	0.409123	1.005264	0.166481
C55	C	1.306816	1.005250	-0.000062
C56	C	1.409149	1.005248	-0.000065
C57	C	1.005297	1.005265	0.301470
C58	C	1.005297	1.005268	0.403803
C59	C	1.005297	1.306770	-0.000058
C60	C	1.005297	1.409101	-0.000059
C61	C	0.946415	1.123022	0.510757
C62	C	0.946419	1.123017	0.606907
C63	C	1.064188	0.887493	0.489134
C64	C	1.064190	0.887499	0.392987
C65	C	0.887523	1.240791	0.521574
C66	C	0.828635	1.358555	0.628533
C67	C	0.828639	1.358550	0.724682
C68	C	0.887530	1.240781	0.713872
C69	C	1.005297	1.005250	0.698428
C70	C	1.005299	1.005256	0.596099
C71	C	1.306816	0.703736	-0.000056
C72	C	1.409149	0.601403	-0.000058
C73	C	1.005295	0.703733	-0.301568
C74	C	1.005295	0.601399	-0.403899
C75	C	1.306815	0.703728	-0.301577
C76	C	1.409148	0.601392	-0.403913
C77	C	0.703778	1.306784	0.301474
C78	C	0.601445	1.409120	0.403809
C79	C	0.703777	1.306775	-0.000048
C80	C	0.601445	1.409108	-0.000046
C81	C	1.005298	1.306779	0.301464
C82	C	1.005298	1.409113	0.403796
C83	C	1.398350	0.553328	0.058819
C84	C	1.494507	0.457183	0.058822
C85	C	1.612257	0.457194	-0.058938
C86	C	1.516101	0.553344	-0.058933
C87	C	1.064172	0.553318	-0.510855
C88	C	1.064158	0.457173	-0.607002
C89	C	0.946391	0.457196	-0.489225
C90	C	0.946398	0.553345	-0.393080
C91	C	1.516102	0.553312	-0.393117
C92	C	1.612250	0.457165	-0.489275
C93	C	1.494477	0.457181	-0.607022
C94	C	1.398331	0.553333	-0.510865
H95	H	0.679699	1.005302	0.166533
O96	O	1.127665	0.405316	-0.722360
H97	H	1.117757	0.330394	-0.787402
H98	H	1.112132	0.791611	0.480343
H99	H	1.485704	0.418045	0.106767
O100	O	1.527740	0.605201	-0.122446
H101	H	1.618263	0.555615	-0.163403
H102	H	0.887510	1.240808	0.443291
O103	O	1.527774	0.605157	-0.277766
H104	H	1.486801	0.586695	-0.231138
O105	O	1.127685	0.605159	-0.522516
H106	H	1.168615	0.555575	-0.613045
H107	H	1.699347	0.418051	-0.106875
H108	H	0.898441	0.418057	-0.480430
O109	O	0.883059	0.605050	-0.277707
H110	H	0.842177	0.555410	-0.286335
H111	H	0.330841	1.005241	0.166470
H112	H	1.112119	0.418034	0.106762
H113	H	1.699335	0.418023	-0.480477
H114	H	0.898479	0.592473	-0.106888
O115	O	1.482810	0.405329	-0.722375
H116	H	1.567634	0.330378	-0.787428
H117	H	1.112111	0.592478	0.106785
O118	O	1.282960	0.605186	-0.522500
H119	H	1.291589	0.555598	-0.613024
H120	H	0.592473	1.005299	0.317586
H121	H	0.898487	0.418023	-0.106891
H122	H	0.418042	1.005275	0.317563
H123	H	1.112135	0.791613	0.305898
H124	H	0.780699	1.454438	0.811769
H125	H	0.418102	1.005227	-0.151144
H126	H	0.780695	1.454437	0.637326
O127	O	0.605258	1.005246	-0.173124
H128	H	0.555681	1.005253	-0.231029
H129	H	0.887540	1.240786	0.792169
H130	H	1.311268	0.592466	0.106771
