data_functionalizedCrystal
_audit_creation_method	'MofGen! by Chris Wilmer'
_symmetry_space_group_name_H-M	'P1'
_symmetry_Int_Tables_number	1
_symmetry_cell_setting	triclinic
loop_
_symmetry_equiv_pos_as_xyz
  x,y,z
_cell_length_a	10.654554
_cell_length_b	14.044190
_cell_length_c	9.730223
_cell_angle_alpha	89.993542
_cell_angle_beta	90.001137
_cell_angle_gamma	88.839261
loop_
_atom_site_label
_atom_site_type_symbol
_atom_site_fract_x
_atom_site_fract_y
_atom_site_fract_z
O1	O	1.681225	0.133248	-0.114264
O2	O	2.181225	0.633248	0.385736
O3	O	1.317023	0.145937	-0.114278
O4	O	1.817023	0.645937	0.385722
O5	O	1.493653	0.001572	-0.114244
O6	O	1.993653	0.501572	0.385756
O7	O	1.504595	0.277614	-0.114298
O8	O	2.004595	0.777614	0.385702
O9	O	1.493651	0.001575	0.114336
O10	O	1.993651	0.501575	0.614336
O11	O	1.317021	0.145941	0.114302
O12	O	1.817021	0.645941	0.614302
O13	O	1.681223	0.133252	0.114316
O14	O	2.181223	0.633252	0.614316
Zn15	Zn	1.499122	0.139597	0.150601
Zn16	Zn	1.999122	0.639597	0.650601
Zn17	Zn	1.499124	0.139592	-0.150563
Zn18	Zn	1.999124	0.639592	0.349437
O19	O	1.504594	0.277617	0.114282
O20	O	2.004594	0.777617	0.614282
C21	C	1.270130	0.145006	0.000011
C22	C	1.770130	0.645006	0.500011
C23	C	1.130407	0.142216	0.000007
C24	C	1.630407	0.642216	0.500007
C25	C	1.488865	-0.033772	0.000050
C26	C	1.988865	0.466228	0.500050
C27	C	1.474586	-0.139092	0.000061
C28	C	1.974586	0.360908	0.500061
C29	C	0.928180	0.224598	0.000003
C30	C	1.428180	0.724598	0.500003
C31	C	1.059465	0.227220	-0.000008
C32	C	1.559465	0.727220	0.499992
C33	C	1.070058	0.054584	0.000019
C34	C	1.570058	0.554584	0.500019
C35	C	0.938775	0.051963	0.000020
C36	C	1.438775	0.551963	0.500020
C37	C	0.857244	0.309608	0.000002
C38	C	1.357244	0.809608	0.500002
C39	C	0.917584	0.397240	-0.000012
C40	C	1.417584	0.897240	0.499988
C41	C	1.048869	0.399862	-0.000023
C42	C	1.548869	0.899862	0.499977
C43	C	1.119814	0.314852	-0.000020
C44	C	1.619814	0.814852	0.499980
C45	C	1.549751	-0.388884	0.000010
C46	C	2.049751	0.111116	0.500010
C47	C	1.448501	-0.331922	0.000016
C48	C	1.948501	0.168078	0.500016
C49	C	1.463018	-0.224622	0.000041
C50	C	1.963018	0.275378	0.500041
C51	C	1.535236	-0.496194	-0.000015
C52	C	2.035236	0.003806	0.499985
C53	C	1.728116	0.134183	0.000024
C54	C	2.228116	0.634183	0.500024
C55	C	1.867839	0.136973	0.000019
C56	C	2.367839	0.636973	0.500019
C57	C	1.509382	0.312961	-0.000015
C58	C	2.009382	0.812961	0.499985
C59	C	1.523661	0.418281	-0.000035
C60	C	2.023661	0.918281	0.499965
N61	N	1.499129	0.139600	0.356137
N62	N	1.999129	0.639600	0.856137
N63	N	1.499126	0.139582	-0.356099
N64	N	1.999126	0.639582	0.143901
C65	C	1.577365	0.075697	0.428078
C66	C	2.077365	0.575697	0.928078
C67	C	1.577361	0.075685	0.571961
C68	C	2.077361	0.575685	1.071961
C69	C	1.420881	0.203488	0.571950
C70	C	1.920881	0.703488	1.071950
C71	C	1.420880	0.203494	0.428069
C72	C	1.920880	0.703494	0.928069
C73	C	1.655614	0.011802	0.356146
C74	C	2.155614	0.511802	0.856146
C75	C	1.733858	-0.052106	0.428087
C76	C	2.233858	0.447894	0.928087
C77	C	1.733853	-0.052117	0.571970
C78	C	2.233853	0.447883	1.071970
C79	C	1.655605	0.011779	0.643912
C80	C	2.155605	0.511779	1.143912
H81	H	0.750345	0.307482	0.000017
H82	H	1.250345	0.807482	0.500017
H83	H	1.797557	-0.104133	0.369505
H84	H	2.297557	0.395867	0.869505
H85	H	1.647329	-0.357067	0.000028
H86	H	2.147329	0.142933	0.500028
H87	H	1.357172	0.255529	0.369494
H88	H	1.857172	0.755529	0.869494
H89	H	1.655628	0.011807	0.238990
H90	H	2.155628	0.511807	0.738990
H91	H	0.889645	-0.019389	0.000031
H92	H	1.389645	0.480611	0.500031
H93	H	1.226715	0.316995	-0.000057
H94	H	1.726715	0.816995	0.499943
H95	H	1.797553	-0.104159	0.630543
H96	H	2.297553	0.395841	1.130543
F97	F	1.320948	-0.373507	0.000007
F98	F	1.820948	0.126493	0.500007
F99	F	1.337613	0.271488	0.648519
F100	F	1.837613	0.771488	1.148519
H101	H	1.655599	0.011758	0.761072
H102	H	2.155599	0.511758	1.261072
F103	F	1.145566	-0.035882	0.000028
F104	F	1.645566	0.464118	0.500028
H105	H	0.859813	0.466451	-0.000025
H106	H	1.359813	0.966451	0.499975
H107	H	1.097994	0.471216	-0.000047
H108	H	1.597994	0.971216	0.499953
