data_functionalizedCrystal
_audit_creation_method	'MofGen! by Chris Wilmer'
_symmetry_space_group_name_H-M	'P1'
_symmetry_Int_Tables_number	1
_symmetry_cell_setting	triclinic
loop_
_symmetry_equiv_pos_as_xyz
  x,y,z
_cell_length_a	16.793024
_cell_length_b	16.793047
_cell_length_c	33.586455
_cell_angle_alpha	113.253857
_cell_angle_beta	66.219990
_cell_angle_gamma	112.758327
loop_
_atom_site_label
_atom_site_type_symbol
_atom_site_fract_x
_atom_site_fract_y
_atom_site_fract_z
O1	O	0.005016	-0.570216	-0.583573
O2	O	-0.034529	-0.474528	-0.453458
O3	O	0.114723	-0.474535	-0.528082
O4	O	-0.144235	-0.570209	-0.508949
O5	O	0.108729	-0.346329	-0.530229
O6	O	-0.040523	-0.346322	-0.455605
O7	O	-0.000977	-0.442010	-0.585721
Zn8	Zn	-0.021701	-0.373810	-0.521004
Zn9	Zn	-0.013805	-0.542728	-0.518175
O10	O	-0.150229	-0.442003	-0.511097
C11	C	0.005100	-0.790970	-0.238461
C12	C	-0.040584	-0.395375	-0.435637
C13	C	-0.044693	-0.353446	-0.386631
C14	C	-0.039275	-0.401741	-0.363054
C15	C	-0.040566	-0.125547	-0.300731
C16	C	-0.044689	-0.223451	-0.321635
C17	C	-0.039266	-0.270752	-0.297563
C18	C	0.005118	-0.521142	-0.103554
C19	C	-0.046224	-0.263935	-0.366370
C20	C	-0.036476	-0.360146	-0.318399
C21	C	-0.030850	-0.408530	-0.294565
C22	C	-0.028014	-0.367522	-0.249895
C23	C	-0.030804	-0.278128	-0.229058
C24	C	-0.036430	-0.229743	-0.252892
C25	C	-0.027971	-0.237122	-0.184383
C26	C	-0.022345	-0.285507	-0.160550
C27	C	-0.019555	-0.374900	-0.181386
C28	C	-0.022391	-0.415909	-0.226057
C29	C	-0.019601	-0.505302	-0.246894
C30	C	-0.013975	-0.553687	-0.223060
C31	C	-0.011142	-0.512684	-0.178391
C32	C	-0.013932	-0.423291	-0.157554
C33	C	-0.005516	-0.561069	-0.154557
C34	C	-0.002726	-0.650463	-0.175394
C35	C	-0.005562	-0.691471	-0.220064
C36	C	-0.011185	-0.643081	-0.243897
C37	C	-0.022434	-0.546309	-0.291568
C38	C	-0.019644	-0.635702	-0.312405
C39	C	-0.014021	-0.684089	-0.288567
C40	C	-0.022480	-0.676711	-0.357076
C41	C	-0.028106	-0.628326	-0.380910
C42	C	-0.030896	-0.538933	-0.360073
C43	C	-0.028060	-0.497924	-0.315402
C44	C	-0.036522	-0.490548	-0.383907
C45	C	0.815184	-0.521162	-0.508596
C46	C	0.415541	-0.125553	-0.528781
C47	C	0.375032	-0.223457	-0.531493
C48	C	0.423813	-0.270761	-0.529101
C49	C	0.149318	-0.395376	-0.530584
C50	C	0.246774	-0.353455	-0.532364
C51	C	0.294574	-0.401748	-0.529976
C52	C	0.548961	-0.790984	-0.510398
C53	C	0.286104	-0.263940	-0.532530
C54	C	0.383336	-0.360149	-0.528302
C55	C	0.432207	-0.407971	-0.525810
C56	C	0.392316	-0.497392	-0.524993
C57	C	0.303554	-0.538991	-0.526667
C58	C	0.254683	-0.491169	-0.529159
C59	C	0.263666	-0.628421	-0.525851
C60	C	0.312537	-0.676243	-0.523359
C61	C	0.401299	-0.634644	-0.521685
C62	C	0.441190	-0.545223	-0.522502
C63	C	0.529952	-0.503624	-0.520828
C64	C	0.578823	-0.551446	-0.518336
C65	C	0.538939	-0.640864	-0.517520
C66	C	0.450177	-0.682463	-0.519194
C67	C	0.587810	-0.688687	-0.515028
C68	C	0.676572	-0.647088	-0.513354
C69	C	0.716463	-0.557666	-0.514172
C70	C	0.667586	-0.509847	-0.516662
C71	C	0.569840	-0.414195	-0.521644
C72	C	0.658602	-0.372596	-0.519970
C73	C	0.707476	-0.420426	-0.517480
C74	C	0.698493	-0.283174	-0.520788
C75	C	0.649622	-0.235352	-0.523280
C76	C	0.560860	-0.276951	-0.524954
C77	C	0.520969	-0.366372	-0.524136
C78	C	0.511989	-0.229129	-0.527446
C79	C	-0.040530	-0.395407	-0.935652
C80	C	0.005063	-0.791004	-0.738448
C81	C	0.009186	-0.693099	-0.717543
C82	C	0.003779	-0.645796	-0.741620
C83	C	0.005077	-0.521171	-0.603544
C84	C	0.009198	-0.563096	-0.652550
C85	C	0.003786	-0.514804	-0.676131
C86	C	-0.040516	-0.125574	-0.800747
C87	C	0.010719	-0.652613	-0.672809
C88	C	0.000994	-0.556406	-0.720789
C89	C	-0.004621	-0.508585	-0.744908
C90	C	-0.007444	-0.419162	-0.724369
C91	C	-0.004651	-0.377560	-0.679711
C92	C	0.000964	-0.425381	-0.655592
C93	C	-0.007471	-0.288129	-0.659174
C94	C	-0.013086	-0.240308	-0.683293
C95	C	-0.015878	-0.281910	-0.727951
C96	C	-0.013056	-0.371333	-0.748490
C97	C	-0.015848	-0.412935	-0.793148
C98	C	-0.021463	-0.365114	-0.817267
C99	C	-0.024282	-0.275694	-0.796731
C100	C	-0.021490	-0.234092	-0.752073
C101	C	-0.029897	-0.227873	-0.820850
C102	C	-0.032690	-0.269476	-0.865508
C103	C	-0.029867	-0.358899	-0.886047
C104	C	-0.024255	-0.406717	-0.861925
C105	C	-0.013028	-0.502367	-0.813685
C106	C	-0.015821	-0.543969	-0.858343
C107	C	-0.021433	-0.496140	-0.882464
C108	C	-0.012998	-0.633392	-0.878882
C109	C	-0.007383	-0.681213	-0.854763
C110	C	-0.004591	-0.639611	-0.810105
C111	C	-0.007414	-0.550188	-0.789566
C112	C	0.001024	-0.687432	-0.785986
O113	O	-0.000965	0.173549	-0.277957
O114	O	-0.040516	-0.085616	-0.325254
O115	O	0.108737	0.059592	-0.327284
O116	O	-0.150219	0.028341	-0.275927
O117	O	0.114753	0.055151	-0.263265
O118	O	-0.034500	-0.090057	-0.261234
O119	O	0.005051	0.169108	-0.213937
Zn120	Zn	-0.013769	0.038820	-0.227421
Zn121	Zn	-0.021696	0.044672	-0.311770
O122	O	-0.144202	0.023900	-0.211907
O123	O	-0.034458	-0.474571	0.046517
O124	O	0.005076	-0.570190	-0.083599
O125	O	-0.144170	-0.570237	-0.008972
O126	O	0.114787	-0.474523	-0.028110
O127	O	-0.150200	-0.442024	-0.011093
O128	O	-0.000954	-0.441976	-0.085720
O129	O	-0.040488	-0.346357	0.044396
Zn130	Zn	-0.021679	-0.373810	-0.020999
Zn131	Zn	-0.013734	-0.542737	-0.018204
O132	O	0.108757	-0.346309	-0.030231
C133	C	-0.850734	0.086244	-0.289716
C134	C	-0.450996	0.035117	-0.097351
C135	C	-0.410501	0.028587	-0.146852
C136	C	-0.459292	0.034683	-0.169840
C137	C	-0.184802	0.024283	-0.235878
C138	C	-0.282257	0.023363	-0.213592
C139	C	-0.330068	0.029423	-0.237088
C140	C	-0.584541	0.075410	-0.428242
C141	C	-0.321573	0.024104	-0.168302
C142	C	-0.418828	0.035176	-0.215083
C143	C	-0.467711	0.041476	-0.238329
C144	C	-0.427833	0.042022	-0.283580
C145	C	-0.339073	0.036269	-0.305586
C146	C	-0.290190	0.029970	-0.282340
C147	C	-0.299198	0.036812	-0.350842
C148	C	-0.348081	0.043111	-0.374088
C149	C	-0.436841	0.048864	-0.352082
C150	C	-0.476719	0.048318	-0.306830
C151	C	-0.565480	0.054071	-0.284825
C152	C	-0.614362	0.060370	-0.308071
C153	C	-0.574491	0.060913	-0.353321
C154	C	-0.485730	0.055160	-0.375326
C155	C	-0.623374	0.067212	-0.376567
C156	C	-0.712134	0.072965	-0.354561
C157	C	-0.752012	0.072419	-0.309309
C158	C	-0.703123	0.066123	-0.286065
C159	C	-0.605355	0.053528	-0.239569
C160	C	-0.694115	0.059281	-0.217564
C161	C	-0.743001	0.065577	-0.240813
C162	C	-0.733993	0.058735	-0.172312
C163	C	-0.685110	0.052436	-0.149066
C164	C	-0.596350	0.046683	-0.171072
C165	C	-0.556472	0.047229	-0.216323
C166	C	-0.547467	0.040383	-0.147826
O167	O	0.585213	0.169090	-0.504004
O168	O	0.494056	-0.090076	-0.525516
O169	O	0.488081	0.055124	-0.449918
O170	O	0.591189	0.023889	-0.579602
O171	O	0.359978	0.059584	-0.452885
O172	O	0.365953	-0.085616	-0.528483
O173	O	0.457110	0.173550	-0.506971
Zn174	Zn	0.391193	0.044675	-0.518198
Zn175	Zn	0.559974	0.038798	-0.514289
O176	O	0.463086	0.028349	-0.582569
C177	C	0.815354	-0.521094	-0.008709
C178	C	0.415547	-0.125494	-0.028771
C179	C	0.375059	-0.223405	-0.031498
C180	C	0.423859	-0.270708	-0.029121
C181	C	0.149365	-0.395355	-0.030599
C182	C	0.246820	-0.353421	-0.032381
C183	C	0.294640	-0.401713	-0.030008
C184	C	0.549171	-0.790955	-0.010537
C185	C	0.286131	-0.263897	-0.032533
C186	C	0.383402	-0.360104	-0.028335
C187	C	0.432293	-0.407926	-0.025859
C188	C	0.392422	-0.497356	-0.025055
C189	C	0.303660	-0.538965	-0.026727
C190	C	0.254769	-0.491143	-0.029204
C191	C	0.263791	-0.628403	-0.025925
C192	C	0.312683	-0.676224	-0.023448
C193	C	0.401445	-0.634615	-0.021775
C194	C	0.441316	-0.545185	-0.022579
C195	C	0.530078	-0.503576	-0.020906
C196	C	0.578969	-0.551398	-0.018429
C197	C	0.539104	-0.640825	-0.017627
C198	C	0.450342	-0.682434	-0.019300
C199	C	0.587995	-0.688646	-0.015150
C200	C	0.676757	-0.647037	-0.013477
C201	C	0.716628	-0.557607	-0.014281
C202	C	0.667731	-0.509789	-0.016757
C203	C	0.569946	-0.414138	-0.021709
C204	C	0.658708	-0.372530	-0.020036
C205	C	0.707602	-0.420359	-0.017561
C206	C	0.698579	-0.283100	-0.020840
C207	C	0.649688	-0.235278	-0.023317
C208	C	0.560926	-0.276887	-0.024990
C209	C	0.521055	-0.366317	-0.024186
C210	C	0.512035	-0.229066	-0.027467
O211	O	-0.620614	0.089309	0.052274
O212	O	-0.529507	0.043784	-0.078544
O213	O	-0.523494	0.194833	-0.006033
O214	O	-0.626628	-0.061740	-0.020236
O215	O	-0.395386	0.185419	-0.005549
O216	O	-0.401400	0.034370	-0.078059
O217	O	-0.492507	0.079895	0.052758
Zn218	Zn	-0.426614	0.055638	-0.012574
Zn219	Zn	-0.595401	0.068041	-0.013212
O220	O	-0.498521	-0.071154	-0.019752
C221	C	-0.437537	0.048335	0.402491
C222	C	-0.837226	0.099430	0.210091
C223	C	-0.739773	0.100339	0.187806
C224	C	-0.691967	0.094287	0.211308
C225	C	-0.571027	0.088563	0.071568
C226	C	-0.611521	0.095108	0.121070
C227	C	-0.562739	0.089011	0.144061
C228	C	-0.171338	0.037467	0.263967
C229	C	-0.700452	0.099593	0.142516
C230	C	-0.603213	0.088528	0.189308
C231	C	-0.554892	0.082255	0.212848
C232	C	-0.466098	0.076466	0.191141
C233	C	-0.425624	0.076949	0.145894
C234	C	-0.473945	0.083222	0.122354
C235	C	-0.336822	0.071163	0.124188
C236	C	-0.288502	0.064890	0.147728
C237	C	-0.328975	0.064407	0.192975
C238	C	-0.417770	0.070196	0.214682
C239	C	-0.458244	0.069713	0.259929
C240	C	-0.409923	0.063441	0.283469
C241	C	-0.321132	0.057655	0.261765
C242	C	-0.280658	0.058138	0.216518
C243	C	-0.272811	0.051382	0.285305
C244	C	-0.313285	0.050899	0.330552
C245	C	-0.402079	0.056688	0.352259
C246	C	-0.450397	0.062957	0.328716
C247	C	-0.547046	0.075500	0.281635
C248	C	-0.587520	0.075016	0.326882
C249	C	-0.539191	0.068747	0.350423
C250	C	-0.676314	0.080806	0.348589
C251	C	-0.724634	0.087078	0.325049
C252	C	-0.684160	0.087561	0.279802
C253	C	-0.595366	0.081772	0.258095
C254	C	-0.732481	0.093834	0.256262
O255	O	-0.040608	-1.085661	-0.825229
O256	O	-0.001018	-0.826491	-0.777938
O257	O	-0.150287	-0.971682	-0.775894
O258	O	0.108661	-0.940470	-0.827272
O259	O	-0.144253	-0.976123	-0.711878
O260	O	0.005016	-0.830932	-0.713922
O261	O	-0.034575	-1.090102	-0.761213
Zn262	Zn	-0.013821	-0.961222	-0.727403
Zn263	Zn	-0.021771	-0.955371	-0.811747
O264	O	0.114695	-0.944911	-0.763256
O265	O	-0.049524	-0.216405	-0.390125
C266	C	-0.131927	-0.204545	-0.431045
C267	C	-0.128318	-0.258447	-0.404142
H268	H	-0.195616	-0.238525	-0.442393
H269	H	-0.132936	-0.133089	-0.408598
H270	H	-0.069853	-0.202148	-0.462092
H271	H	-0.190379	-0.260916	-0.373094
H272	H	-0.127263	-0.329875	-0.426621
H273	H	0.191099	-0.662437	-0.527221
O274	O	0.273508	-0.763471	-0.522589
C275	C	0.140183	-0.888881	-0.523681
C276	C	0.184280	-0.790098	-0.524568
H277	H	0.068030	-0.910434	-0.525271
H278	H	0.180744	-0.933608	-0.554070
H279	H	0.139117	-0.895714	-0.491009
H280	H	0.185355	-0.783179	-0.557220
H281	H	0.143705	-0.745419	-0.494156
H282	H	0.780178	-0.386331	-0.016193
H283	H	0.544602	-0.156012	-0.528109
O284	O	-0.015842	-0.673910	-0.922426
C285	C	-0.099965	-0.719521	-0.974997
C286	C	-0.096846	-0.673592	-0.925672
H287	H	-0.165460	-0.719295	-0.977636
H288	H	-0.039842	-0.681406	-0.998295
H289	H	-0.096923	-0.791927	-0.985572
H290	H	-0.099916	-0.601187	-0.915054
H291	H	-0.156963	-0.711775	-0.902403
H292	H	-0.005182	-0.254109	-0.622664
H293	H	0.682238	-0.162236	-0.523943
O294	O	0.785138	-0.242369	-0.019194
C295	C	0.908090	-0.106812	-0.018619
C296	C	0.810054	-0.152824	-0.020479
H297	H	0.928271	-0.034413	-0.019667
H298	H	0.913463	-0.107036	0.014106
H299	H	0.955139	-0.144954	-0.048954
H300	H	0.762945	-0.114718	0.009834
H301	H	0.804754	-0.152610	-0.053222
O302	O	0.411466	-0.769715	-0.018601
C303	C	0.341892	-0.920254	-0.057612
C304	C	0.385910	-0.821446	-0.058465
H305	H	0.321201	-0.962103	-0.089834
H306	H	0.392277	-0.947460	-0.055577
H307	H	0.279550	-0.924333	-0.026772
H308	H	0.448245	-0.817290	-0.089302
H309	H	0.335466	-0.794284	-0.060477
O310	O	-0.715640	0.080365	0.392731
C311	C	-0.698435	0.072960	0.458930
C312	C	-0.653780	0.073478	0.408946
H313	H	-0.648448	0.067373	0.472052
H314	H	-0.719072	0.138018	0.480054
H315	H	-0.760879	0.013035	0.461677
H316	H	-0.591308	0.133360	0.406156
H317	H	-0.633209	0.008380	0.387845
O318	O	0.168241	-0.531865	-0.030896
C319	C	0.068671	-0.652998	-0.071453
C320	C	0.166703	-0.606980	-0.069588
H321	H	0.067398	-0.713726	-0.102737
H322	H	0.025584	-0.676060	-0.039671
H323	H	0.040460	-0.603227	-0.073345
H324	H	0.194996	-0.656701	-0.067710
H325	H	0.209728	-0.583901	-0.101369
H326	H	0.280077	-0.749342	-0.022791
H327	H	-0.030255	-0.164038	-0.167345
H328	H	0.417564	-0.755580	-0.518528
H329	H	-0.020027	-0.251971	-0.124027
O330	O	0.013689	-0.700230	-0.648998
C331	C	-0.059461	-0.756811	-0.583591
C332	C	-0.062943	-0.702884	-0.610521
H333	H	-0.121400	-0.758958	-0.552472
H334	H	-0.058724	-0.828348	-0.605992
H335	H	0.004365	-0.722992	-0.572359
H336	H	-0.126760	-0.736625	-0.621758
H337	H	-0.063630	-0.631349	-0.588103
H338	H	0.710969	-0.684436	-0.006165
H339	H	-0.208057	0.053400	0.198770
O340	O	-0.829531	0.071303	-0.219263
C341	C	-0.952428	0.075957	-0.149797
C342	C	-0.854442	0.069434	-0.174150
H343	H	-0.972605	0.074429	-0.113321
H344	H	-0.957699	0.141591	-0.149846
H345	H	-0.999547	0.016610	-0.168210
H346	H	-0.807264	0.128733	-0.155756
H347	H	-0.849245	0.003764	-0.174105
O348	O	0.003642	-0.384678	-0.612031
C349	C	0.003076	-0.249097	-0.549664
C350	C	0.000019	-0.295089	-0.598997
H351	H	0.000167	-0.176652	-0.539114
H352	H	-0.057113	-0.287143	-0.526360
H353	H	0.068508	-0.249437	-0.547009
H354	H	-0.065373	-0.294761	-0.601697
H355	H	0.060252	-0.257030	-0.622279
H356	H	-0.226632	0.032105	-0.368836
H357	H	-0.011621	-0.389765	-0.121028
O358	O	-0.015787	-0.153079	-0.663199
C359	C	-0.015280	-0.027665	-0.595702
C360	C	-0.012188	-0.126449	-0.618407
H361	H	-0.012391	-0.006111	-0.559481
H362	H	0.044905	0.017060	-0.615684
H363	H	-0.080715	-0.020833	-0.595126
H364	H	0.053207	-0.133368	-0.618988
H365	H	-0.072418	-0.171127	-0.598417
H366	H	-0.030422	-0.661858	-0.417434
H367	H	-0.005085	-0.754331	-0.871556
H368	H	0.012418	-0.684570	-0.156900
O369	O	-0.811181	0.092916	0.346260
C370	C	-0.911080	0.176811	0.407839
C371	C	-0.813034	0.170296	0.383858
H372	H	-0.912613	0.239358	0.438248
H373	H	-0.938777	0.181472	0.383162
H374	H	-0.954449	0.114379	0.419880
H375	H	-0.769594	0.232710	0.371816
H376	H	-0.785410	0.165591	0.408551
H377	H	0.245727	-0.224039	-0.533582
O378	O	0.003802	-0.774641	-0.806090
C379	C	0.003171	-0.900095	-0.873565
C380	C	0.000041	-0.801322	-0.850855
H381	H	0.000112	-0.921702	-0.909758
H382	H	0.068631	-0.906988	-0.874205
H383	H	-0.056983	-0.944740	-0.853528
H384	H	0.060150	-0.756616	-0.870874
H385	H	-0.065457	-0.794501	-0.850209
O386	O	0.688461	-0.147991	-0.024016
C387	C	0.682064	0.005955	0.012711
C388	C	0.638085	-0.092857	0.013561
H389	H	0.641343	0.050557	0.043083
H390	H	0.754187	0.027661	0.014370
H391	H	0.683190	0.012788	-0.019973
H392	H	0.636894	-0.099764	0.046240
H393	H	0.565986	-0.114518	0.011877
H394	H	-0.011748	-0.757184	-0.305606
O395	O	-0.819048	0.099586	0.277517
C396	C	-0.942639	0.104325	0.346709
C397	C	-0.844609	0.097776	0.322689
H398	H	-0.963342	0.102844	0.383231
H399	H	-0.947667	0.169945	0.346512
H400	H	-0.989506	0.044963	0.328151
H401	H	-0.797683	0.157090	0.341227
H402	H	-0.839655	0.032119	0.322881
H403	H	-0.806568	0.063430	-0.154318
O404	O	0.237853	-0.216284	-0.033688
C405	C	0.106262	-0.159736	0.003281
C406	C	0.160865	-0.213657	0.004647
H407	H	0.043996	-0.157611	0.034266
H408	H	0.150094	-0.088192	0.003398
H409	H	0.084243	-0.193545	-0.028856
H410	H	0.182894	-0.179925	0.036779
H411	H	0.117000	-0.285200	0.004506
O412	O	-0.050895	-0.224968	-0.885609
C413	C	-0.150526	-0.226477	-0.921372
C414	C	-0.130026	-0.276968	-0.898608
H415	H	-0.214492	-0.268505	-0.931897
H416	H	-0.160775	-0.159005	-0.896459
H417	H	-0.091436	-0.214562	-0.952643
H418	H	-0.189087	-0.288948	-0.867339
H419	H	-0.119741	-0.344405	-0.923551
O420	O	-0.019637	-0.763877	-0.377370
C421	C	0.064492	-0.871292	-0.401312
C422	C	0.061373	-0.772555	-0.378311
H423	H	0.129992	-0.878337	-0.402089
H424	H	0.004375	-0.916255	-0.381437
H425	H	0.061439	-0.892371	-0.437473
H426	H	0.064454	-0.751392	-0.342151
H427	H	0.121484	-0.727649	-0.398221
H428	H	0.544632	-0.155941	-0.028119
O429	O	-0.039284	-0.530680	-0.427476
C430	C	-0.038600	-0.665636	-0.490217
C431	C	-0.035507	-0.620309	-0.440868
H432	H	-0.035529	-0.738102	-0.501063
H433	H	-0.104054	-0.665156	-0.492790
H434	H	0.021562	-0.627176	-0.513345
H435	H	-0.095624	-0.658733	-0.417711
H436	H	0.029984	-0.620777	-0.438332
O437	O	-0.273345	0.020181	-0.145217
C438	C	-0.191582	-0.064417	-0.140318
C439	C	-0.246168	-0.060082	-0.166510
H440	H	-0.169609	-0.129313	-0.157518
H441	H	-0.129299	-0.004150	-0.140056
H442	H	-0.235487	-0.063020	-0.103966
H443	H	-0.202338	-0.061506	-0.202873
H444	H	-0.308457	-0.120344	-0.166736
H445	H	-0.717713	0.052007	-0.112064
H446	H	0.182115	-0.525189	-0.530531
H447	H	-0.038719	-0.156659	-0.235851
H448	H	-0.023809	-0.160979	-0.735279
H449	H	0.710767	-0.684484	-0.506030
O450	O	0.785052	-0.242454	-0.519140
C451	C	0.908025	-0.106915	-0.518579
C452	C	0.809989	-0.152916	-0.520440
H453	H	0.928224	-0.034522	-0.519639
H454	H	0.913387	-0.107122	-0.485849
H455	H	0.955068	-0.145076	-0.548908
H456	H	0.762887	-0.114792	-0.490135
H457	H	0.804701	-0.152720	-0.553190
O458	O	-0.309062	0.043589	-0.418231
C459	C	-0.175748	0.037794	-0.482745
C460	C	-0.219833	0.037217	-0.432756
H461	H	-0.103593	0.032662	-0.494502
H462	H	-0.216314	-0.021890	-0.504556
H463	H	-0.174688	0.103109	-0.486176
H464	H	-0.220902	-0.028056	-0.429282
H465	H	-0.179253	0.096945	-0.410969
O466	O	-0.748488	0.103507	0.119332
C467	C	-0.759392	0.185219	0.077559
C468	C	-0.704892	0.180886	0.103795
H469	H	-0.724177	0.247784	0.064998
H470	H	-0.764112	0.122606	0.047340
H471	H	-0.830281	0.188501	0.100946
H472	H	-0.633978	0.177633	0.080445
H473	H	-0.700247	0.243497	0.134018
H474	H	0.780052	-0.386407	-0.516111
O475	O	-0.297336	0.071797	0.080079
C476	C	-0.250999	0.153159	0.025724
C477	C	-0.295720	0.152564	0.075696
H478	H	-0.249695	0.218445	0.022162
H479	H	-0.178912	0.147985	0.014190
H480	H	-0.291343	0.093448	0.003818
H481	H	-0.255449	0.212268	0.097636
H482	H	-0.367814	0.157694	0.087194
O483	O	-0.446839	0.055532	-0.419489
C484	C	-0.377241	-0.024336	-0.495704
C485	C	-0.421281	-0.024886	-0.445710
H486	H	-0.356548	-0.089338	-0.516916
H487	H	-0.427613	-0.018881	-0.508626
H488	H	-0.314898	0.035659	-0.498574
H489	H	-0.483617	-0.084874	-0.442801
H490	H	-0.370850	-0.030295	-0.432810
O491	O	-0.752815	0.091656	-0.376328
C492	C	-0.749605	0.196741	-0.409647
C493	C	-0.703431	0.175674	-0.385010
H494	H	-0.709708	0.264678	-0.416666
H495	H	-0.751974	0.142051	-0.443085
H496	H	-0.821366	0.199114	-0.387397
H497	H	-0.631651	0.173315	-0.407224
H498	H	-0.701134	0.230369	-0.351568
H499	H	-0.023718	-0.530163	-0.918978
O500	O	0.177213	-0.669109	-0.027533
C501	C	0.054305	-0.804706	-0.028166
C502	C	0.152357	-0.758703	-0.026330
H503	H	0.034185	-0.877156	-0.027204
H504	H	0.007181	-0.766676	0.002186
H505	H	0.048982	-0.804354	-0.060876
H506	H	0.157767	-0.759044	0.006359
H507	H	0.199435	-0.796747	-0.056705
O508	O	-0.268588	0.032054	0.350232
C509	C	-0.204921	-0.075741	0.348760
C510	C	-0.255522	-0.054507	0.326421
H511	H	-0.194358	-0.145733	0.329524
H512	H	-0.136514	-0.023738	0.347829
H513	H	-0.246491	-0.073492	0.385489
H514	H	-0.214027	-0.056769	0.289684
H515	H	-0.323934	-0.106513	0.327388
H516	H	-0.217624	0.025258	-0.300336
O517	O	-0.201886	0.059295	0.126494
C518	C	-0.078277	0.054620	0.057310
C519	C	-0.176367	0.060987	0.081305
H520	H	-0.057621	0.055967	0.020768
H521	H	-0.031400	0.114049	0.075836
H522	H	-0.073214	-0.010942	0.057556
H523	H	-0.181517	0.126512	0.081065
H524	H	-0.223198	0.001511	0.062772
H525	H	-0.440845	0.083623	0.085362
H526	H	-0.572284	0.068372	0.387422
H527	H	-0.580066	0.039960	-0.110823
