data_functionalizedCrystal
_audit_creation_method	'MofGen! by Chris Wilmer'
_symmetry_space_group_name_H-M	'P1'
_symmetry_Int_Tables_number	1
_symmetry_cell_setting	triclinic
loop_
_symmetry_equiv_pos_as_xyz
  x,y,z
_cell_length_a	15.944486
_cell_length_b	15.944545
_cell_length_c	9.798715
_cell_angle_alpha	90.002334
_cell_angle_beta	90.007736
_cell_angle_gamma	96.515707
loop_
_atom_site_label
_atom_site_type_symbol
_atom_site_fract_x
_atom_site_fract_y
_atom_site_fract_z
O1	O	-1.114555	0.108072	-0.113586
O2	O	-0.869998	0.121485	-0.113563
O3	O	-0.998958	-0.007498	-0.113583
O4	O	-0.985596	0.237055	-0.113566
O5	O	-0.998947	-0.007497	0.113399
O6	O	-0.869987	0.121486	0.113419
O7	O	-1.114544	0.108073	0.113396
Zn8	Zn	-0.992264	0.114780	0.149446
Zn9	Zn	-0.992279	0.114778	-0.149613
O10	O	-0.985585	0.237056	0.113416
C11	C	-0.838698	0.120938	-0.000069
C12	C	-0.745449	0.119298	-0.000061
C13	C	-0.453909	0.194243	-0.000069
C14	C	-0.514945	0.155288	-0.111989
C15	C	-0.409810	0.113337	-0.000084
C16	C	-0.514920	0.155268	0.111797
C17	C	-0.574720	0.116270	-0.000071
C18	C	-0.469618	0.074359	-0.112098
C19	C	-0.469587	0.074350	0.111790
C20	C	-0.530605	0.035336	-0.000159
C21	C	-0.314810	0.111649	-0.000093
C22	C	-0.669720	0.117951	-0.000071
C23	C	-0.998398	-0.038792	-0.000097
C24	C	-0.996738	-0.132038	-0.000112
C25	C	-0.145843	0.108631	-0.000095
C26	C	-0.239088	0.110306	-0.000092
C27	C	-0.986144	0.268350	-0.000073
C28	C	-0.987804	0.361596	-0.000067
C29	C	-1.072700	0.632209	-0.000097
C30	C	-1.031776	0.581636	-0.112009
C31	C	-0.993725	0.697238	-0.000099
C32	C	-1.031744	0.581657	0.111778
C33	C	-0.990820	0.532325	-0.000081
C34	C	-0.952821	0.647893	-0.112104
C35	C	-0.952801	0.647918	0.111783
C36	C	-0.911818	0.597378	-0.000156
C37	C	-0.995401	0.792240	-0.000111
C38	C	-0.989138	0.437326	-0.000080
N39	N	-0.992260	0.114780	0.353545
C40	C	-1.046408	0.060388	0.421314
C41	C	-1.046421	0.060386	0.578476
N42	N	-0.992282	0.114778	0.646287
H43	H	-0.420578	0.261391	-0.000171
H44	H	-1.092755	0.013818	0.362984
O45	O	-0.538948	0.196273	-0.224681
C46	C	-0.499536	0.280030	-0.224252
H47	H	-0.481194	0.299473	-0.115354
H48	H	-0.545031	0.323858	-0.266341
H49	H	-0.440517	0.284489	-0.290713
H50	H	-0.843751	0.581902	-0.000214
H51	H	-1.065134	0.552695	-0.206627
H52	H	-1.140715	0.647847	-0.000213
O53	O	-1.101692	0.004712	0.647843
C54	C	-1.087801	-0.078400	0.613054
H55	H	-1.055469	-0.078278	0.509285
H56	H	-1.150843	-0.119910	0.608284
H57	H	-1.045862	-0.104217	0.693459
H58	H	-0.945924	0.161351	0.588018
H59	H	-0.449645	0.040170	-0.206822
H60	H	-0.919494	0.676710	-0.206817
H61	H	-0.534990	0.189502	0.206412
H62	H	-0.919471	0.676873	0.206405
O63	O	-1.071657	0.547092	0.224508
C64	C	-1.139927	0.488261	0.184329
H65	H	-1.160494	0.503771	0.076685
H66	H	-1.194895	0.491453	0.257821
H67	H	-1.119597	0.421987	0.185990
H68	H	-0.563784	-0.031872	-0.000223
H69	H	-0.945908	0.161344	0.411877
O70	O	-0.445598	0.033681	0.224803
C71	C	-0.468432	0.076545	0.342575
H72	H	-0.475171	0.145030	0.315769
H73	H	-0.417504	0.074484	0.423789
H74	H	-0.531082	0.044782	0.383403
