data_functionalizedCrystal
_audit_creation_method	'MofGen! by Chris Wilmer'
_symmetry_space_group_name_H-M	'P1'
_symmetry_Int_Tables_number	1
_symmetry_cell_setting	triclinic
loop_
_symmetry_equiv_pos_as_xyz
  x,y,z
_cell_length_a	12.759401
_cell_length_b	13.032721
_cell_length_c	13.032268
_cell_angle_alpha	76.710373
_cell_angle_beta	97.163105
_cell_angle_gamma	82.796595
loop_
_atom_site_label
_atom_site_type_symbol
_atom_site_fract_x
_atom_site_fract_y
_atom_site_fract_z
Zn1	Zn	-1.458892	-0.499110	0.654206
Zn2	Zn	-1.458777	-0.654195	0.499153
Zn3	Zn	-1.308758	-0.476602	0.476625
Zn4	Zn	-1.257619	-0.676664	0.676695
O5	O	-1.371011	-0.576643	0.576670
O6	O	-1.605893	-0.519699	0.633654
O7	O	-1.460230	-0.611813	0.347545
O8	O	-1.350123	-0.330958	0.481341
O9	O	-1.605809	-0.633638	0.519738
O10	O	-1.460426	-0.347494	0.611809
O11	O	-1.350012	-0.481337	0.330993
O12	O	-1.154957	-0.503125	0.503148
O13	O	-1.262964	-0.671935	0.822331
O14	O	-1.117386	-0.650110	0.650139
O15	O	-1.410839	-0.541487	0.805809
O16	O	-1.410643	-0.805805	0.541545
O17	O	-1.262853	-0.822314	0.671984
C18	C	-1.098051	-0.576614	0.576640
C19	C	-0.981271	-0.576631	0.576656
C20	C	-1.331212	-0.852601	0.611672
C21	C	-1.314276	-0.970661	0.626682
C22	C	-0.926398	-0.635837	0.517231
C23	C	-0.816669	-0.635855	0.517249
C24	C	-0.816697	-0.517451	0.636117
C25	C	-0.926422	-0.517440	0.636105
C26	C	-0.981246	-0.695027	0.457782
C27	C	-0.926374	-0.754238	0.398352
C28	C	-0.816645	-0.754255	0.398370
C29	C	-0.761789	-0.695063	0.457818
C30	C	-0.645038	-0.576666	0.576693
C31	C	-0.761817	-0.576659	0.576686
C32	C	-1.379899	-1.015100	0.568884
C33	C	-1.362397	-1.137121	0.584396
C34	C	-1.331210	-0.611728	0.853683
C35	C	-1.314249	-0.626679	0.971730
C36	C	-1.410992	-0.299611	0.541553
C37	C	-1.428029	-0.181556	0.526589
C38	C	-1.410729	-0.541618	0.300724
C39	C	-1.427937	-0.526367	0.182640
C40	C	-1.379852	-0.568802	1.016183
C41	C	-1.362324	-0.584253	1.138190
H42	H	-1.070594	-0.695017	0.457759
H43	H	-0.672439	-0.695090	0.457835
H44	H	-1.293171	-0.645240	1.190453
H45	H	-1.293257	-1.189409	0.645371
O46	O	-1.471493	-0.945853	0.488125
H47	H	-1.548286	-0.969330	0.509103
O48	O	-0.757456	-0.818119	0.334280
H49	H	-0.722062	-0.763666	0.274301
O50	O	-1.222651	-0.707465	1.040948
H51	H	-1.254660	-0.767870	1.098334
O52	O	-1.519625	-1.112312	0.445825
H53	H	-1.518999	-1.027337	0.446309
O54	O	-1.222680	-1.039910	0.707436
H55	H	-1.223299	-1.124882	0.706938
O56	O	-1.519535	-0.445575	1.113420
H57	H	-1.564920	-0.405527	1.164544
O58	O	-0.757537	-0.453594	0.700213
H59	H	-0.692929	-0.508049	0.760208
O60	O	-0.985530	-0.818077	0.334232
H61	H	-1.071052	-0.808110	0.344192
O62	O	-0.985621	-0.453575	0.700187
H63	H	-0.929053	-0.412403	0.741513
O64	O	-1.471451	-0.488016	0.946966
H65	H	-1.470851	-0.488566	0.862000
