data_functionalizedCrystal
_audit_creation_method	'MofGen! by Chris Wilmer'
_symmetry_space_group_name_H-M	'P1'
_symmetry_Int_Tables_number	1
_symmetry_cell_setting	triclinic
loop_
_symmetry_equiv_pos_as_xyz
  x,y,z
_cell_length_a	15.944499
_cell_length_b	15.944551
_cell_length_c	15.021413
_cell_angle_alpha	89.996935
_cell_angle_beta	89.990095
_cell_angle_gamma	96.511826
loop_
_atom_site_label
_atom_site_type_symbol
_atom_site_fract_x
_atom_site_fract_y
_atom_site_fract_z
O1	O	1.114556	-0.108114	-0.074087
O2	O	1.447889	0.225219	0.259246
O3	O	1.781223	0.558553	0.592579
O4	O	0.870000	-0.121516	-0.074078
O5	O	1.203334	0.211818	0.259256
O6	O	1.536667	0.545151	0.592589
O7	O	0.998956	0.007461	-0.074075
O8	O	1.332290	0.340795	0.259259
O9	O	1.665623	0.674128	0.592592
O10	O	0.985600	-0.237091	-0.074090
O11	O	1.318933	0.096242	0.259243
O12	O	1.652267	0.429576	0.592576
O13	O	0.998936	0.007443	0.073989
O14	O	1.332269	0.340776	0.407323
O15	O	1.665603	0.674109	0.740656
O16	O	0.869980	-0.121534	0.073987
O17	O	1.203313	0.211799	0.407320
O18	O	1.536646	0.545133	0.740653
O19	O	1.114535	-0.108132	0.073977
O20	O	1.447869	0.225201	0.407310
O21	O	1.781202	0.558534	0.740644
Zn22	Zn	0.992254	-0.114836	0.097490
Zn23	Zn	1.325588	0.218497	0.430823
Zn24	Zn	1.658921	0.551831	0.764157
Zn25	Zn	0.992281	-0.114812	-0.097591
Zn26	Zn	1.325615	0.218521	0.235742
Zn27	Zn	1.658948	0.551855	0.569076
O28	O	0.985579	-0.237109	0.073974
O29	O	1.318913	0.096224	0.407307
O30	O	1.652246	0.429557	0.740641
C31	C	0.838695	-0.120976	-0.000044
C32	C	1.172029	0.212357	0.333289
C33	C	1.505362	0.545691	0.666622
C34	C	0.745447	-0.119331	-0.000040
C35	C	1.078780	0.214002	0.333293
C36	C	1.412114	0.547335	0.666626
C37	C	0.453911	-0.194263	-0.000058
C38	C	0.787244	0.139070	0.333275
C39	C	1.120578	0.472403	0.666608
C40	C	0.514950	-0.155303	-0.073061
C41	C	0.848284	0.178031	0.260273
C42	C	1.181617	0.511364	0.593606
C43	C	0.409810	-0.113355	-0.000060
C44	C	0.743144	0.219978	0.333273
C45	C	1.076477	0.553312	0.666606
C46	C	0.514916	-0.155299	0.072919
C47	C	0.848249	0.178034	0.406252
C48	C	1.181583	0.511368	0.739586
C49	C	0.574719	-0.116296	-0.000049
C50	C	0.908053	0.217038	0.333284
C51	C	1.241386	0.550371	0.666618
C52	C	0.469622	-0.074372	-0.073123
C53	C	0.802955	0.258962	0.260210
C54	C	1.136288	0.592295	0.593543
C55	C	0.469581	-0.074380	0.072922
C56	C	0.802914	0.258954	0.406255
C57	C	1.136248	0.592287	0.739589
C58	C	0.530603	-0.035360	-0.000098
C59	C	0.863936	0.297973	0.333235
C60	C	1.197269	0.631307	0.666568
C61	C	0.314810	-0.111663	-0.000068
C62	C	0.648144	0.221670	0.333266
C63	C	0.981477	0.555003	0.666599
C64	C	0.669718	-0.117981	-0.000048
C65	C	1.003052	0.215352	0.333285
C66	C	1.336385	0.548686	0.666619
C67	C	0.998392	0.038746	-0.000042
C68	C	1.331725	0.372079	0.333291
C69	C	1.665058	0.705413	0.666624
C70	C	0.996729	0.131992	-0.000042
C71	C	1.330063	0.465325	0.333291
C72	C	1.663396	0.798658	0.666625
C73	C	1.145840	-0.108672	-0.000058
C74	C	1.479174	0.224661	0.333275
C75	C	1.812507	0.557995	0.666608
C76	C	1.239089	-0.110317	-0.000068
C77	C	1.572422	0.223016	0.333265
C78	C	1.905755	0.556350	0.666598
C79	C	0.986144	-0.268394	-0.000060
C80	C	1.319477	0.064939	0.333273
C81	C	1.652811	0.398273	0.666606
C82	C	0.987806	-0.361640	-0.000067
C83	C	1.321140	-0.028306	0.333267
C84	C	1.654473	0.305027	0.666600
N85	N	0.992242	-0.114852	0.230628
N86	N	1.325575	0.218481	0.563961
N87	N	1.658909	0.551814	0.897294
C88	C	0.912823	0.346833	-0.000051
C89	C	1.246156	0.680166	0.333283
C90	C	1.579490	1.013499	0.666616
C91	C	0.951776	0.407848	0.072952
C92	C	1.285109	0.741181	0.406286
C93	C	1.618443	1.074515	0.739619
C94	C	0.993722	0.302717	-0.000049
C95	C	1.327055	0.636050	0.333285
C96	C	1.660389	0.969384	0.666618
C97	C	0.951815	0.407850	-0.073027
C98	C	1.285149	0.741183	0.260306
C99	C	1.618482	1.074516	0.593639
C100	C	0.990811	0.467629	-0.000059
C101	C	1.324144	0.800962	0.333274
C102	C	1.657478	1.134296	0.666608
C103	C	1.032697	0.362504	0.073015
C104	C	1.366031	0.695837	0.406348
C105	C	1.699364	1.029171	0.739681
C106	C	1.032725	0.362499	-0.073031
C107	C	1.366059	0.695833	0.260303
C108	C	1.699392	1.029166	0.593636
C109	C	1.071737	0.423497	-0.000010
C110	C	1.405071	0.756831	0.333324
C111	C	1.738404	1.090164	0.666657
C112	C	0.995397	0.207715	-0.000042
C113	C	1.328730	0.541048	0.333291
C114	C	1.662063	0.874382	0.666625
C115	C	0.989143	0.562630	-0.000059
C116	C	1.322476	0.895963	0.333274
C117	C	1.655809	1.229297	0.666607
N118	N	0.992300	-0.114789	-0.230728
N119	N	1.325634	0.218544	0.102605
N120	N	1.658967	0.551877	0.435938
C121	C	0.932604	-0.174463	0.470310
C122	C	1.265937	0.158870	0.803643
C123	C	1.599270	0.492204	1.136976
C124	C	1.008506	-0.190756	0.529640
C125	C	1.341839	0.142577	0.862973
C126	C	1.675172	0.475911	1.196307
C127	C	0.992264	-0.114831	0.412235
C128	C	1.325597	0.218502	0.745568
C129	C	1.658930	0.551835	1.078901
C130	C	0.916382	-0.098557	0.529646
C131	C	1.249715	0.234776	0.862980
C132	C	1.583049	0.568110	1.196313
C133	C	0.992277	-0.114813	0.587659
C134	C	1.325611	0.218520	0.920992
C135	C	1.658944	0.551854	1.254325
C136	C	1.068204	-0.131162	0.470258
C137	C	1.401537	0.202171	0.803592
C138	C	1.734871	0.535505	1.136925
C139	C	0.976030	-0.038930	0.470259
C140	C	1.309363	0.294403	0.803593
C141	C	1.642697	0.627737	1.136926
C142	C	1.051987	-0.055191	0.529563
C143	C	1.385321	0.278143	0.862896
C144	C	1.718654	0.611476	1.196230
C145	C	0.992254	-0.114844	0.311177
C146	C	1.325588	0.218489	0.644511
C147	C	1.658921	0.551823	0.977844
C148	C	0.992295	-0.114799	0.688714
C149	C	1.325629	0.218534	1.022047
C150	C	1.658962	0.551867	1.355381
H151	H	0.420581	-0.261409	-0.000133
H152	H	0.753914	0.071924	0.333200
H153	H	1.087248	0.405258	0.666533
H154	H	1.102501	-0.004751	0.555416
H155	H	1.435834	0.328582	0.888750
H156	H	1.769167	0.661916	1.222083
F157	F	0.541223	-0.200020	-0.153738
F158	F	0.874556	0.133313	0.179595
F159	F	1.207890	0.466646	0.512929
F160	F	0.443524	-0.029666	-0.153880
F161	F	0.776857	0.303668	0.179454
F162	F	1.110190	0.637001	0.512787
F163	F	0.866726	-0.240428	0.436299
F164	F	1.200059	0.092905	0.769633
F165	F	1.533393	0.426239	1.102966
F166	F	0.541148	-0.200055	0.153584
F167	F	0.874481	0.133278	0.486917
F168	F	1.207815	0.466611	0.820251
H169	H	1.022249	-0.254936	0.555722
H170	H	1.355582	0.078397	0.889055
H171	H	1.688915	0.411731	1.222389
F172	F	0.825053	0.303282	0.000043
F173	F	1.158387	0.636615	0.333377
F174	F	1.491720	0.969948	0.666710
F175	F	1.152109	-0.149241	0.436309
F176	F	1.485442	0.184093	0.769642
F177	F	1.818776	0.517426	1.102975
H178	H	0.852204	-0.084801	0.555735
H179	H	1.185538	0.248533	0.889068
H180	H	1.518871	0.581866	1.222401
H181	H	0.962263	0.025229	0.444156
H182	H	1.295597	0.358563	0.777490
H183	H	1.628930	0.691896	1.110823
H184	H	0.563780	0.031846	-0.000133
H185	H	0.897113	0.365180	0.333201
H186	H	1.230447	0.698513	0.666534
H187	H	0.917550	0.427942	0.134673
H188	H	1.250884	0.761276	0.468006
H189	H	1.584217	1.094609	0.801340
F190	F	0.443273	-0.029696	0.153600
F191	F	0.776607	0.303637	0.486933
F192	F	1.109940	0.636970	0.820267
H193	H	1.066922	0.342383	-0.134755
H194	H	1.400255	0.675716	0.198579
H195	H	1.733588	1.009050	0.531912
H196	H	1.066877	0.342512	0.134801
H197	H	1.400210	0.675846	0.468134
H198	H	1.733544	1.009179	0.801467
F199	F	0.907084	0.434112	-0.153692
F200	F	1.240417	0.767445	0.179642
F201	F	1.573750	1.100778	0.512975
F202	F	1.159583	0.466856	0.000038
F203	F	1.492916	0.800190	0.333371
F204	F	1.826250	1.133523	0.666705
