data_functionalizedCrystal
_audit_creation_method	'MofGen! by Chris Wilmer'
_symmetry_space_group_name_H-M	'P1'
_symmetry_Int_Tables_number	1
_symmetry_cell_setting	triclinic
loop_
_symmetry_equiv_pos_as_xyz
  x,y,z
_cell_length_a	12.759401
_cell_length_b	12.827892
_cell_length_c	12.759393
_cell_angle_alpha	89.968903
_cell_angle_beta	89.980163
_cell_angle_gamma	90.016917
loop_
_atom_site_label
_atom_site_type_symbol
_atom_site_fract_x
_atom_site_fract_y
_atom_site_fract_z
Zn1	Zn	1.606250	-0.415928	-0.594024
Zn2	Zn	1.606142	-0.590709	-0.418346
Zn3	Zn	1.430552	-0.415987	-0.418359
Zn4	Zn	1.430538	-0.590633	-0.593983
O5	O	1.518371	-0.503314	-0.506178
O6	O	1.753257	-0.439121	-0.570731
O7	O	1.582810	-0.567589	-0.271326
O8	O	1.453909	-0.269744	-0.441684
O9	O	1.753178	-0.567531	-0.441661
O10	O	1.582994	-0.269700	-0.570744
O11	O	1.453805	-0.439221	-0.271336
O12	O	1.283529	-0.439147	-0.441644
O13	O	1.453886	-0.567401	-0.741009
O14	O	1.283519	-0.567458	-0.570674
O15	O	1.582981	-0.439047	-0.741040
O16	O	1.582797	-0.736935	-0.441622
O17	O	1.453782	-0.736879	-0.570661
C18	C	1.245403	-0.503302	-0.506157
C19	C	1.128627	-0.503321	-0.506173
C20	C	1.073787	-0.570235	-0.573253
C21	C	0.964063	-0.570239	-0.573274
C22	C	0.964028	-0.436413	-0.439125
C23	C	1.073750	-0.436405	-0.439111
C24	C	1.518305	-0.774824	-0.506158
C25	C	1.518373	-0.890977	-0.506185
C26	C	1.582220	-0.942657	-0.570106
C27	C	1.582291	-1.062708	-0.570135
C28	C	1.792404	-0.503328	-0.506199
C29	C	1.909181	-0.503334	-0.506209
C30	C	1.518444	-0.503209	-0.780211
C31	C	1.518475	-0.503164	-0.896988
C32	C	1.518465	-0.230744	-0.506220
C33	C	1.518506	-0.114591	-0.506239
C34	C	1.451326	-0.436311	-0.951855
C35	C	1.451351	-0.436278	-1.061579
C36	C	1.585682	-0.569955	-1.061560
C37	C	1.585652	-0.569992	-0.951838
C38	C	1.518358	-0.503344	-0.233211
C39	C	1.518530	-0.503095	-0.116434
H40	H	0.919417	-0.624725	-0.627899
H41	H	0.919334	-0.381934	-0.384524
F42	F	1.653590	-0.884326	-0.641619
F43	F	1.132118	-0.365177	-0.367716
F44	F	1.657121	-0.641154	-0.893441
F45	F	1.447059	-1.056510	-0.434698
H46	H	1.636957	-1.107152	-0.624856
F47	F	1.446988	-0.949309	-0.434687
F48	F	1.379829	-0.365189	-0.893483
H49	H	1.640376	-0.624364	-1.106232
F50	F	1.132187	-0.641450	-0.644630
F51	F	1.379870	-0.365135	-1.119967
