data_functionalizedCrystal
_audit_creation_method	'MofGen! by Chris Wilmer'
_symmetry_space_group_name_H-M	'P1'
_symmetry_Int_Tables_number	1
_symmetry_cell_setting	triclinic
loop_
_symmetry_equiv_pos_as_xyz
  x,y,z
_cell_length_a	10.654556
_cell_length_b	10.654550
_cell_length_c	7.540329
_cell_angle_alpha	89.998687
_cell_angle_beta	89.998791
_cell_angle_gamma	95.513766
loop_
_atom_site_label
_atom_site_type_symbol
_atom_site_fract_x
_atom_site_fract_y
_atom_site_fract_z
O1	O	-1.667829	0.176439	-0.147397
O2	O	-1.302351	0.193237	-0.147414
O3	O	-1.493493	0.002099	-0.147412
O4	O	-1.476687	0.367577	-0.147398
O5	O	-1.493492	0.002089	0.147553
O6	O	-1.302350	0.193227	0.147552
O7	O	-1.667827	0.176429	0.147568
Cu8	Cu	-1.485089	0.184827	0.174492
Cu9	Cu	-1.485090	0.184839	-0.174338
O10	O	-1.476686	0.367567	0.147567
C11	C	-1.255553	0.191997	0.000067
C12	C	-1.116110	0.188302	0.000060
C13	C	-1.492258	-0.044704	0.000065
C14	C	-1.488567	-0.184147	0.000048
C15	C	-1.714626	0.177669	0.000084
C16	C	-1.854069	0.181364	0.000079
C17	C	-0.919565	0.183105	-0.160712
C18	C	-1.050588	0.186569	-0.160723
C19	C	-1.050605	0.186557	0.160864
C20	C	-0.919586	0.183084	0.160873
N21	N	-1.485092	0.184839	-0.419686
C22	C	-1.477920	0.414370	0.000086
C23	C	-1.481612	0.553813	0.000091
C24	C	-1.369071	0.633296	0.000082
C25	C	-1.372548	0.764317	0.000054
C26	C	-1.601116	0.736359	0.000052
C27	C	-1.597639	0.605341	0.000067
N28	N	-1.485096	0.184817	0.419841
H29	H	-1.103909	0.187984	-0.291656
C30	C	-1.248756	0.851749	0.000040
H31	H	-1.267439	0.937160	0.000006
H32	H	-1.201228	0.836030	0.102902
H33	H	-1.201233	0.836008	-0.102832
C34	C	-1.122675	0.188466	0.337721
H35	H	-1.210085	0.190798	0.314690
H36	H	-1.110150	0.114789	0.403795
H37	H	-1.092261	0.261015	0.403781
C38	C	-0.847496	0.181202	-0.337572
H39	H	-0.760083	0.178896	-0.314543
H40	H	-0.877904	0.108664	-0.403641
H41	H	-0.860026	0.254891	-0.403634
H42	H	-0.866257	0.181666	0.291817
C43	C	-1.728735	0.793045	0.000048
H44	H	-1.714690	0.882459	0.000057
H45	H	-1.775125	0.765828	-0.102807
H46	H	-1.775116	0.765831	0.102928
C47	C	-1.721440	0.517904	0.000083
H48	H	-1.791039	0.567354	0.000092
H49	H	-1.724831	0.466207	-0.102771
H50	H	-1.724831	0.466219	0.102964
C51	C	-1.241449	0.576619	0.000078
H52	H	-1.174922	0.642726	0.000049
H53	H	-1.235332	0.526092	0.102940
H54	H	-1.235348	0.526090	-0.102794
