data_functionalizedCrystal
_audit_creation_method	'MofGen! by Chris Wilmer'
_symmetry_space_group_name_H-M	'P1'
_symmetry_Int_Tables_number	1
_symmetry_cell_setting	triclinic
loop_
_symmetry_equiv_pos_as_xyz
  x,y,z
_cell_length_a	16.992694
_cell_length_b	26.809956
_cell_length_c	16.956985
_cell_angle_alpha	89.993957
_cell_angle_beta	96.639294
_cell_angle_gamma	90.010447
loop_
_atom_site_label
_atom_site_type_symbol
_atom_site_fract_x
_atom_site_fract_y
_atom_site_fract_z
O1	O	1.029490	0.041419	-0.168385
O2	O	1.529490	0.541419	0.331615
O3	O	0.801324	0.041433	-0.166538
O4	O	1.301324	0.541433	0.333462
O5	O	0.929115	0.041421	-0.052256
O6	O	1.429115	0.541421	0.447744
O7	O	0.901699	0.041431	-0.282667
O8	O	1.401699	0.541431	0.217333
O9	O	0.929078	-0.041538	-0.052253
O10	O	1.429078	0.458462	0.447747
O11	O	0.801287	-0.041526	-0.166535
O12	O	1.301287	0.458474	0.333465
O13	O	1.029453	-0.041540	-0.168382
O14	O	1.529453	0.458460	0.331618
Zn15	Zn	0.915364	-0.054705	-0.167458
Zn16	Zn	1.415364	0.445295	0.332542
Zn17	Zn	0.915413	0.054598	-0.167462
Zn18	Zn	1.415413	0.554598	0.332538
O19	O	0.901662	-0.041528	-0.282664
O20	O	1.401662	0.458472	0.217336
C21	C	0.772247	-0.000044	-0.164160
C22	C	1.272247	0.499956	0.335840
C23	C	0.685663	-0.000039	-0.157069
C24	C	1.185663	0.499961	0.342931
N25	N	0.915337	-0.129301	-0.167456
N26	N	1.415337	0.370699	0.332544
C27	C	0.630987	-0.000036	-0.225484
C28	C	1.130987	0.499964	0.274516
C29	C	0.549633	-0.000044	-0.218817
C30	C	1.049633	0.499956	0.281183
C31	C	0.522955	-0.000050	-0.143734
C32	C	1.022955	0.499950	0.356266
C33	C	0.577637	-0.000054	-0.075314
C34	C	1.077637	0.499946	0.424686
C35	C	0.658990	-0.000050	-0.081982
C36	C	1.158990	0.499950	0.418018
C37	C	0.281149	-0.000064	-0.116099
C38	C	0.781149	0.499936	0.383901
C39	C	0.199790	-0.000066	-0.109436
C40	C	0.699790	0.499934	0.390564
C41	C	0.171791	-0.000057	-0.252940
C42	C	0.671791	0.499943	0.247060
C43	C	0.253146	-0.000051	-0.259601
C44	C	0.753146	0.499949	0.240399
C45	C	0.307821	-0.000057	-0.191181
C46	C	0.807821	0.499943	0.308819
N47	N	0.439798	-0.000055	-0.136918
N48	N	0.939798	0.499945	0.363082
N49	N	0.390976	-0.000055	-0.197998
N50	N	0.890976	0.499945	0.302002
C51	C	0.959637	-0.473928	-0.218662
C52	C	1.459637	0.026072	0.281338
C53	C	0.959662	-0.682806	-0.218663
C54	C	1.459662	-0.182806	0.281337
O55	O	0.997307	-0.709810	-0.262190
O56	O	1.497307	-0.209810	0.237810
N57	N	0.915432	-0.708928	-0.167455
N58	N	1.415432	-0.208928	0.332545
C59	C	0.871197	-0.682827	-0.116239
C60	C	1.371197	-0.182827	0.383761
O61	O	0.833584	-0.709839	-0.072678
O62	O	1.333584	-0.209839	0.427322
C63	C	0.871176	-0.473951	-0.116235
C64	C	1.371176	0.026049	0.383765
C65	C	0.915403	-0.447831	-0.167452
C66	C	1.415403	0.052169	0.332548
C67	C	1.003860	-0.447808	-0.269875
C68	C	1.503860	0.052192	0.230125
C69	C	1.003850	-0.395592	-0.269877
C70	C	1.503850	0.104408	0.230123
C71	C	0.959616	-0.369495	-0.218667
C72	C	1.459616	0.130505	0.281333
C73	C	0.915393	-0.395615	-0.167454
C74	C	1.415393	0.104385	0.332546
C75	C	0.826946	-0.447851	-0.065015
C76	C	1.326946	0.052149	0.434985
C77	C	0.826947	-0.395628	-0.065017
C78	C	1.326947	0.104372	0.434983
C79	C	0.871173	-0.369509	-0.116235
C80	C	1.371173	0.130491	0.383765
C81	C	0.871149	-0.317302	-0.116246
C82	C	1.371149	0.182698	0.383754
N83	N	0.915379	-0.291180	-0.167455
N84	N	1.415379	0.208820	0.332545
C85	C	0.959612	-0.317276	-0.218665
C86	C	1.459612	0.182724	0.281335
C87	C	0.871209	-0.792491	-0.116246
C88	C	1.371209	-0.292491	0.383754
C89	C	0.871213	-0.844710	-0.116248
C90	C	1.371213	-0.344710	0.383752
C91	C	0.959680	-0.844684	-0.218671
C92	C	1.459680	-0.344684	0.281329
C93	C	0.959671	-0.792464	-0.218673
C94	C	1.459671	-0.292464	0.281327
C95	C	0.915439	-0.766368	-0.167454
C96	C	1.415439	-0.266368	0.332546
C97	C	0.959587	-0.207618	-0.218666
C98	C	1.459587	0.292382	0.281334
C99	C	0.959570	-0.155397	-0.218666
C100	C	1.459570	0.344603	0.281334
C101	C	0.871108	-0.155427	-0.116240
C102	C	1.371108	0.344573	0.383760
C103	C	0.871121	-0.207644	-0.116243
C104	C	1.371121	0.292356	0.383757
C105	C	0.915367	-0.233738	-0.167458
C106	C	1.415367	0.266262	0.332542
O107	O	0.833530	-0.290265	-0.072736
O108	O	1.333530	0.209735	0.427264
O109	O	0.997234	-0.290256	-0.262207
O110	O	1.497234	0.209744	0.237793
C111	C	0.959647	-0.526144	-0.218660
C112	C	1.459647	-0.026144	0.281340
C113	C	0.915423	-0.552264	-0.167447
C114	C	1.415423	-0.052264	0.332553
C115	C	0.871190	-0.526167	-0.116237
C116	C	1.371190	-0.026167	0.383763
C117	C	0.915427	-0.604483	-0.167449
C118	C	1.415427	-0.104483	0.332551
C119	C	0.959661	-0.630579	-0.218660
C120	C	1.459661	-0.130579	0.281340
C121	C	1.003891	-0.604457	-0.269868
C122	C	1.503891	-0.104457	0.230132
C123	C	1.003880	-0.552241	-0.269870
C124	C	1.503880	-0.052241	0.230130
C125	C	0.826960	-0.552289	-0.065029
C126	C	1.326960	-0.052289	0.434971
C127	C	0.826973	-0.604505	-0.065032
C128	C	1.326973	-0.104505	0.434968
C129	C	0.871206	-0.630602	-0.116242
C130	C	1.371206	-0.130602	0.383758
C131	C	1.058530	-0.000062	-0.170760
C132	C	1.558530	0.499938	0.329240
C133	C	1.145114	-0.000064	-0.177851
C134	C	1.645114	0.499936	0.322149
C135	C	0.930501	-0.000058	-0.022636
C136	C	1.430501	0.499942	0.477364
C137	C	0.934674	-0.000058	0.065619
C138	C	1.434674	0.499942	0.565619
N139	N	0.915447	0.129194	-0.167458
N140	N	1.415447	0.629194	0.332542
C141	C	0.864889	-0.000052	0.102150
C142	C	1.364889	0.499948	0.602150
C143	C	0.868816	-0.000054	0.185075
C144	C	1.368816	0.499946	0.685075
C145	C	0.942528	-0.000058	0.231467
C146	C	1.442528	0.499942	0.731467
C147	C	1.012319	-0.000067	0.194930
C148	C	1.512319	0.499933	0.694930
C149	C	1.008392	-0.000068	0.112007
C150	C	1.508392	0.499932	0.612007
C151	C	0.961968	-0.000057	0.480001
C152	C	1.461968	0.499943	0.980001
C153	C	0.965890	-0.000054	0.562930
C154	C	1.465890	0.499946	1.062930
C155	C	0.822386	-0.000042	0.553069
C156	C	1.322386	0.499958	1.053069
C157	C	0.818465	-0.000041	0.470144
C158	C	1.318465	0.499959	0.970144
C159	C	0.888256	-0.000051	0.433615
C160	C	1.388256	0.499949	0.933615
N161	N	0.946544	-0.000059	0.316230
N162	N	1.446544	0.499941	0.816230
N163	N	0.884240	-0.000055	0.348853
N164	N	1.384240	0.499945	0.848853
C165	C	0.900277	-0.000048	0.687716
C166	C	1.400277	0.499952	1.187716
C167	C	0.896105	-0.000047	0.599461
C168	C	1.396105	0.499953	1.099461
H169	H	0.652701	-0.000031	-0.286625
H170	H	1.152701	0.499969	0.213375
N171	N	1.051586	-0.524073	-0.325109
N172	N	1.551586	-0.024073	0.174891
H173	H	1.079607	-0.548535	-0.357543
H174	H	1.579607	-0.048535	0.142457
H175	H	1.092002	-0.502404	-0.292939
H176	H	1.592002	-0.002404	0.207061
H177	H	0.804864	-0.000045	0.064383
H178	H	1.304864	0.499955	0.564383
N179	N	1.083661	-0.000079	0.072603
N180	N	1.583661	0.499921	0.572603
H181	H	1.115730	0.030671	0.089178
H182	H	1.615730	0.530671	0.589178
H183	H	1.069922	-0.000101	0.013043
H184	H	1.569922	0.499899	0.513043
H185	H	0.274860	-0.000040	-0.320741
H186	H	0.774860	0.499960	0.179259
N187	N	0.793548	-0.000056	0.224478
N188	N	1.293548	0.499944	0.724478
H189	H	0.746256	-0.000053	0.182506
H190	H	1.246256	0.499947	0.682506
H191	H	0.792058	0.030695	0.258670
H192	H	1.292058	0.530695	0.758670
N193	N	0.717968	-0.000049	-0.008194
N194	N	1.217968	0.499951	0.491806
H195	H	0.752336	-0.030802	-0.007764
H196	H	1.252336	0.469198	0.492236
H197	H	0.688669	-0.000034	0.040343
H198	H	1.188669	0.499966	0.540343
N199	N	0.823490	-0.764345	-0.061012
N200	N	1.323490	-0.264345	0.438988
H201	H	0.859997	-0.742677	-0.024322
H202	H	1.359997	-0.242677	0.475678
H203	H	0.795475	-0.788851	-0.028631
H204	H	1.295475	-0.288851	0.471369
H205	H	0.790950	-0.625767	-0.023326
H206	H	1.290950	-0.125767	0.476674
H207	H	0.835190	-0.865972	-0.074551
H208	H	1.335190	-0.365972	0.425449
H209	H	0.790933	-0.469109	-0.023308
H210	H	1.290933	0.030891	0.476692
H211	H	0.790928	-0.374384	-0.023308
H212	H	1.290928	0.125616	0.476692
H213	H	0.758441	-0.000035	0.432377
H214	H	1.258441	0.499965	0.932377
N215	N	0.548858	-0.000059	0.005665
N216	N	1.048858	0.499941	0.505665
H217	H	0.569144	0.030692	0.035874
H218	H	1.069144	0.530692	0.535874
H219	H	0.569132	-0.030834	0.035809
H220	H	1.069132	0.469166	0.535809
N221	N	0.112822	-0.000051	-0.326732
N222	N	0.612822	0.499949	0.173268
H223	H	0.057236	-0.000054	-0.311118
H224	H	0.557236	0.499946	0.188882
H225	H	0.120923	-0.030803	-0.359228
H226	H	0.620923	0.469197	0.140772
H227	H	1.025919	-0.000055	0.600701
H228	H	1.525919	0.499945	1.100701
H229	H	0.505119	-0.000041	-0.274528
H230	H	1.005119	0.499959	0.225472
N231	N	1.051597	-0.632610	-0.325106
N232	N	1.551597	-0.132610	0.174894
H233	H	1.044886	-0.669653	-0.317328
H234	H	1.544886	-0.169653	0.182672
H235	H	1.109401	-0.623475	-0.313069
H236	H	1.609401	-0.123475	0.186931
N237	N	1.037245	-0.000065	0.440619
N238	N	1.537245	0.499935	0.940619
H239	H	1.069305	0.030687	0.457204
H240	H	1.569305	0.530687	0.957204
H241	H	1.023522	-0.000086	0.381056
H242	H	1.523522	0.499914	0.881056
N243	N	0.171013	-0.000070	-0.028450
N244	N	0.671013	0.499930	0.471550
H245	H	0.217994	-0.000073	0.013883
H246	H	0.717994	0.499927	0.513883
H247	H	0.137858	-0.030823	-0.022561
H248	H	0.637858	0.469177	0.477439
N249	N	0.340113	-0.000074	-0.042306
N250	N	0.840113	0.499926	0.457694
H251	H	0.310866	-0.000078	0.006268
H252	H	0.810866	0.499922	0.506268
H253	H	0.374489	0.030679	-0.041940
H254	H	0.874489	0.530679	0.458060
H255	H	0.995693	-0.865941	-0.260372
H256	H	1.495693	-0.365941	0.239628
N257	N	0.747116	-0.000032	0.592468
N258	N	1.247116	0.499968	1.092468
H259	H	0.760785	-0.000032	0.652039
H260	H	1.260785	0.499968	1.152039
H261	H	0.715086	-0.030785	0.575825
H262	H	1.215086	0.469215	1.075825
H263	H	0.995584	-0.134133	-0.260377
H264	H	1.495584	0.365867	0.239623
N265	N	1.091823	-0.000067	0.244966
N266	N	1.591823	0.499933	0.744966
H267	H	1.135436	-0.000072	0.209238
H268	H	1.635436	0.499928	0.709238
H269	H	1.096567	-0.030819	0.279595
H270	H	1.596567	0.469181	0.779595
H271	H	0.995617	-0.228858	-0.260370
H272	H	1.495617	0.271142	0.239630
H273	H	1.039885	-0.469051	-0.311577
H274	H	1.539885	0.030949	0.188423
N275	N	1.051562	-0.367424	-0.325109
N276	N	1.551562	0.132576	0.174891
H277	H	1.079585	-0.391887	-0.357542
H278	H	1.579585	0.108113	0.142458
H279	H	1.091977	-0.345757	-0.292934
H280	H	1.591977	0.154243	0.207066
H281	H	0.835097	-0.228911	-0.074547
H282	H	1.335097	0.271089	0.425453
N283	N	1.007373	-0.764294	-0.273911
N284	N	1.507373	-0.264294	0.226089
H285	H	1.035392	-0.788755	-0.306351
H286	H	1.535392	-0.288755	0.193649
H287	H	1.047792	-0.742627	-0.241742
H288	H	1.547792	-0.242627	0.258258
N289	N	0.823408	-0.127275	-0.061001
N290	N	1.323408	0.372725	0.438999
H291	H	0.830123	-0.090232	-0.068773
H292	H	1.330123	0.409768	0.431227
H293	H	0.842597	-0.136405	-0.004241
H294	H	1.342597	0.363595	0.495759
H295	H	0.790940	-0.531046	-0.023325
H296	H	1.290940	-0.031046	0.476675
