data_functionalizedCrystal
_audit_creation_method	'MofGen! by Chris Wilmer'
_symmetry_space_group_name_H-M	'P1'
_symmetry_Int_Tables_number	1
_symmetry_cell_setting	triclinic
loop_
_symmetry_equiv_pos_as_xyz
  x,y,z
_cell_length_a	6.394989
_cell_length_b	10.723022
_cell_length_c	9.798715
_cell_angle_alpha	89.996609
_cell_angle_beta	90.000171
_cell_angle_gamma	94.517531
loop_
_atom_site_label
_atom_site_type_symbol
_atom_site_fract_x
_atom_site_fract_y
_atom_site_fract_z
O1	O	-0.293006	1.660298	-0.113473
O2	O	-0.321057	1.297443	-0.113476
O3	O	-0.003041	1.484021	-0.113475
O4	O	-0.611022	1.473720	-0.113474
O5	O	-0.003040	1.484007	0.113507
O6	O	-0.321057	1.297429	0.113506
O7	O	-0.293005	1.660284	0.113510
Zn8	Zn	-0.307031	1.478854	0.149546
Zn9	Zn	-0.307032	1.478873	-0.149513
O10	O	-0.611021	1.473706	0.113509
C11	C	-0.319016	1.250915	0.000014
C12	C	-0.312911	1.112296	0.000012
C13	C	-0.129522	1.061788	0.000011
C14	C	-0.123207	0.918518	0.000009
C15	C	0.074810	1.481977	0.000011
C16	C	0.311134	1.475753	0.000009
C17	C	-0.295046	1.706812	0.000016
C18	C	-0.301152	1.845431	0.000009
N19	N	-0.307029	1.478850	0.353646
N20	N	-0.307017	1.478886	-0.353612
C21	C	-0.172914	1.557183	0.421423
C22	C	-0.172907	1.557203	0.578586
H23	H	0.033809	0.875040	-0.000026
O24	O	-0.035629	1.637154	0.647962
C25	C	0.171392	1.613268	0.613176
H26	H	0.171790	1.565230	0.509403
H27	H	0.273272	1.705317	0.608415
H28	H	0.236518	1.549944	0.693577
H29	H	-0.465242	1.049470	0.000007
H30	H	-0.421852	1.411823	0.588111
O31	O	0.052274	1.136677	-0.000234
C32	C	0.169419	1.112157	-0.117774
H33	H	0.059840	1.069318	-0.199936
H34	H	0.251685	1.203259	-0.157238
H35	H	0.291458	1.044070	-0.091196
H36	H	-0.458176	0.888901	0.000018
H37	H	-0.058090	1.624228	0.363101
H38	H	-0.421837	1.411797	0.411970
