data_functionalizedCrystal
_audit_creation_method	'MofGen! by Chris Wilmer'
_symmetry_space_group_name_H-M	'P1'
_symmetry_Int_Tables_number	1
_symmetry_cell_setting	triclinic
loop_
_symmetry_equiv_pos_as_xyz
  x,y,z
_cell_length_a	16.625548
_cell_length_b	29.839131
_cell_length_c	16.625539
_cell_angle_alpha	89.960252
_cell_angle_beta	89.979432
_cell_angle_gamma	90.036296
loop_
_atom_site_label
_atom_site_type_symbol
_atom_site_fract_x
_atom_site_fract_y
_atom_site_fract_z
Zn1	Zn	1.232609	-0.178840	-0.455845
Zn2	Zn	1.565942	0.154494	-0.122512
Zn3	Zn	1.899276	0.487827	0.210821
Zn4	Zn	1.232482	-0.253971	-0.320985
Zn5	Zn	1.565815	0.079363	0.012348
Zn6	Zn	1.899149	0.412696	0.345681
Zn7	Zn	1.097771	-0.178857	-0.321026
Zn8	Zn	1.431104	0.154476	0.012308
Zn9	Zn	1.764437	0.487810	0.345641
Zn10	Zn	1.097711	-0.253945	-0.455775
Zn11	Zn	1.431044	0.079388	-0.122442
Zn12	Zn	1.764378	0.412722	0.210891
O13	O	1.165143	-0.216403	-0.388408
O14	O	1.498477	0.116930	-0.055075
O15	O	1.831810	0.450264	0.278259
O16	O	1.345425	-0.188810	-0.437968
O17	O	1.678758	0.144524	-0.104635
O18	O	2.012091	0.477857	0.228698
O19	O	1.214584	-0.244025	-0.208158
O20	O	1.547918	0.089309	0.125175
O21	O	1.881251	0.422642	0.458508
O22	O	1.115735	-0.115987	-0.338956
O23	O	1.449069	0.217346	-0.005623
O24	O	1.782402	0.550679	0.327711
O25	O	1.345331	-0.244008	-0.338887
O26	O	1.678665	0.089325	-0.005554
O27	O	2.011998	0.422659	0.327779
O28	O	1.214800	-0.115975	-0.438007
O29	O	1.548134	0.217358	-0.104674
O30	O	1.881467	0.550692	0.228659
O31	O	1.115612	-0.188839	-0.208188
O32	O	1.448946	0.144495	0.125145
O33	O	1.782279	0.477828	0.458479
O34	O	0.984930	-0.188814	-0.338888
O35	O	1.318264	0.144520	-0.005555
O36	O	1.651597	0.477853	0.327778
O37	O	1.115634	-0.243964	-0.568617
O38	O	1.448967	0.089369	-0.235284
O39	O	1.782300	0.422703	0.098050
O40	O	0.984887	-0.243981	-0.437888
O41	O	1.318220	0.089353	-0.104555
O42	O	1.651553	0.422686	0.228779
O43	O	1.214743	-0.188785	-0.568668
O44	O	1.548076	0.144549	-0.235335
O45	O	1.881409	0.477882	0.097998
O46	O	1.214526	-0.316834	-0.338820
O47	O	1.547860	0.016499	-0.005486
O48	O	1.881193	0.349832	0.327847
O49	O	1.115511	-0.316815	-0.437849
O50	O	1.448844	0.016518	-0.104516
O51	O	1.782177	0.349851	0.228818
C52	C	0.955652	-0.216397	-0.388385
C53	C	1.288986	0.116937	-0.055052
C54	C	1.622319	0.450270	0.278281
C55	C	0.866031	-0.216405	-0.388395
C56	C	1.199365	0.116929	-0.055062
C57	C	1.532698	0.450262	0.278272
C58	C	0.537856	-0.216408	-0.388429
C59	C	0.871189	0.116926	-0.055096
C60	C	1.204522	0.450259	0.278237
C61	C	0.629164	-0.216406	-0.388417
C62	C	0.962497	0.116928	-0.055084
C63	C	1.295831	0.450261	0.278249
C64	C	0.701941	-0.216406	-0.388411
C65	C	1.035274	0.116927	-0.055078
C66	C	1.368607	0.450260	0.278255
C67	C	0.793255	-0.216404	-0.388401
C68	C	1.126588	0.116929	-0.055067
C69	C	1.459922	0.450263	0.278266
C70	C	1.165020	-0.333126	-0.388340
C71	C	1.498354	0.000208	-0.055007
C72	C	1.831687	0.333541	0.278327
C73	C	1.165041	-0.383060	-0.388338
C74	C	1.498375	-0.049727	-0.055005
C75	C	1.831708	0.283607	0.278329
C76	C	1.216715	-0.692662	-0.440057
C77	C	1.550049	-0.359329	-0.106724
C78	C	1.883382	-0.025995	0.226609
C79	C	1.216803	-0.880335	-0.440106
C80	C	1.550136	-0.547002	-0.106773
C81	C	1.883469	-0.213668	0.226561
O82	O	1.260617	-0.904565	-0.484029
O83	O	1.593950	-0.571231	-0.150696
O84	O	1.927284	-0.237898	0.182637
N85	N	1.165280	-0.903845	-0.388497
N86	N	1.498614	-0.570512	-0.055164
N87	N	1.831947	-0.237178	0.278169
C88	C	1.113728	-0.880434	-0.336877
C89	C	1.447062	-0.547101	-0.003544
C90	C	1.780395	-0.213767	0.329790
O91	O	1.069901	-0.904737	-0.292988
O92	O	1.403235	-0.571404	0.040346
O93	O	1.736568	-0.238070	0.373679
C94	C	1.113637	-0.692762	-0.336833
C95	C	1.446971	-0.359428	-0.003500
C96	C	1.780304	-0.026095	0.329834
C97	C	1.165169	-0.669254	-0.388439
C98	C	1.498502	-0.335921	-0.055106
C99	C	1.831836	-0.002588	0.278227
C100	C	1.268242	-0.669154	-0.491660
C101	C	1.601575	-0.335821	-0.158327
C102	C	1.934909	-0.002488	0.175007
C103	C	1.268223	-0.622239	-0.491644
C104	C	1.601556	-0.288905	-0.158311
C105	C	1.934889	0.044428	0.175022
C106	C	1.216677	-0.598831	-0.440026
C107	C	1.550010	-0.265498	-0.106693
C108	C	1.883343	0.067836	0.226641
C109	C	1.165150	-0.622339	-0.388423
C110	C	1.498483	-0.289005	-0.055090
C111	C	1.831816	0.044328	0.278243
C112	C	1.062082	-0.669352	-0.285217
C113	C	1.395415	-0.336018	0.048116
C114	C	1.728749	-0.002685	0.381449
C115	C	1.062063	-0.622431	-0.285212
C116	C	1.395396	-0.289097	0.048121
C117	C	1.728729	0.044236	0.381454
C118	C	1.113594	-0.598923	-0.336818
C119	C	1.446928	-0.265590	-0.003485
C120	C	1.780261	0.067744	0.329848
C121	C	1.113584	-0.552016	-0.336790
C122	C	1.446918	-0.218682	-0.003456
C123	C	1.780251	0.114651	0.329877
N124	N	1.165107	-0.528505	-0.388398
N125	N	1.498440	-0.195172	-0.055065
N126	N	1.831774	0.138161	0.278269
C127	C	1.216653	-0.551913	-0.440016
C128	C	1.549986	-0.218580	-0.106683
C129	C	1.883320	0.114753	0.226650
C130	C	1.113781	-0.978965	-0.336902
C131	C	1.447114	-0.645631	-0.003569
C132	C	1.780448	-0.312298	0.329764
C133	C	1.113805	-1.025882	-0.336912
C134	C	1.447138	-0.692549	-0.003579
C135	C	1.780471	-0.359216	0.329754
C136	C	1.216878	-1.025780	-0.440142
C137	C	1.550211	-0.692447	-0.106809
C138	C	1.883545	-0.359113	0.226524
C139	C	1.216858	-0.978861	-0.440128
C140	C	1.550191	-0.645528	-0.106795
C141	C	1.883525	-0.312195	0.226539
C142	C	1.165303	-0.955455	-0.388511
C143	C	1.498637	-0.622121	-0.055178
C144	C	1.831970	-0.288788	0.278156
C145	C	1.216609	-0.453387	-0.439979
C146	C	1.549942	-0.120054	-0.106645
C147	C	1.883276	0.213279	0.226688
C148	C	1.216588	-0.406468	-0.439956
C149	C	1.549921	-0.073134	-0.106623
C150	C	1.883254	0.260199	0.226711
C151	C	1.113511	-0.406574	-0.336729
C152	C	1.446845	-0.073241	-0.003396
C153	C	1.780178	0.260093	0.329937
C154	C	1.113536	-0.453490	-0.336749
C155	C	1.446869	-0.120156	-0.003415
C156	C	1.780202	0.213177	0.329918
C157	C	1.165087	-0.476895	-0.388380
C158	C	1.498420	-0.143562	-0.055047
C159	C	1.831754	0.189772	0.278287
O160	O	1.069787	-0.527757	-0.292896
O161	O	1.403120	-0.194424	0.040438
O162	O	1.736453	0.138910	0.373771
O163	O	1.260461	-0.527602	-0.483911
O164	O	1.593794	-0.194269	-0.150578
O165	O	1.927127	0.139065	0.182755
C166	C	1.216734	-0.739577	-0.440073
C167	C	1.550068	-0.406244	-0.106740
C168	C	1.883401	-0.072911	0.226593
C169	C	1.165208	-0.763085	-0.388471
C170	C	1.498541	-0.429752	-0.055137
C171	C	1.831874	-0.096418	0.278196
C172	C	1.113662	-0.739677	-0.336852
C173	C	1.446995	-0.406344	-0.003519
C174	C	1.780328	-0.073011	0.329814
C175	C	1.165231	-0.810003	-0.388480
C176	C	1.498565	-0.476670	-0.055147
C177	C	1.831898	-0.143336	0.278186
C178	C	1.216777	-0.833411	-0.440099
C179	C	1.550111	-0.500077	-0.106765
C180	C	1.883444	-0.166744	0.226568
C181	C	1.268300	-0.809901	-0.491707
C182	C	1.601633	-0.476567	-0.158374
C183	C	1.934967	-0.143234	0.174960
C184	C	1.268281	-0.762985	-0.491691
C185	C	1.601614	-0.429652	-0.158358
C186	C	1.934947	-0.096318	0.174975
C187	C	1.062139	-0.763187	-0.285244
C188	C	1.395472	-0.429854	0.048089
C189	C	1.728806	-0.096521	0.381423
C190	C	1.062163	-0.810103	-0.285263
C191	C	1.395497	-0.476770	0.048070
C192	C	1.728830	-0.143436	0.381403
C193	C	1.113709	-0.833511	-0.336882
C194	C	1.447043	-0.500177	-0.003548
C195	C	1.780376	-0.166844	0.329785
C196	C	1.375452	-0.216410	-0.388431
C197	C	1.708785	0.116924	-0.055098
C198	C	2.042119	0.450257	0.278236
C199	C	1.465073	-0.216413	-0.388441
C200	C	1.798407	0.116921	-0.055108
C201	C	2.131740	0.450254	0.278226
C202	C	1.165196	-0.216370	-0.598717
C203	C	1.498529	0.116964	-0.265384
C204	C	1.831862	0.450297	0.067950
C205	C	1.165218	-0.216355	-0.688338
C206	C	1.498551	0.116978	-0.355005
C207	C	1.831885	0.450311	-0.021671
C208	C	1.165289	-0.099225	-0.388494
C209	C	1.498622	0.234109	-0.055161
C210	C	1.831955	0.567442	0.278173
C211	C	1.165351	-0.049290	-0.388530
C212	C	1.498684	0.284043	-0.055197
C213	C	1.832017	0.617376	0.278136
C214	C	1.165255	-0.216305	-1.016514
C215	C	1.498589	0.117028	-0.683181
C216	C	1.831922	0.450362	-0.349847
C217	C	1.165243	-0.216320	-0.925205
C218	C	1.498576	0.117013	-0.591872
C219	C	1.831909	0.450346	-0.258539
C220	C	1.165237	-0.216330	-0.852429
C221	C	1.498570	0.117003	-0.519096
C222	C	1.831904	0.450336	-0.185762
C223	C	1.165224	-0.216345	-0.761115
C224	C	1.498557	0.116988	-0.427781
C225	C	1.831890	0.450321	-0.094448
C226	C	1.165137	-0.216404	-0.178917
C227	C	1.498471	0.116929	0.154416
C228	C	1.831804	0.450263	0.487750
C229	C	1.165271	-0.216292	-0.089297
C230	C	1.498605	0.117042	0.244037
C231	C	1.831938	0.450375	0.577370
H232	H	1.258554	-0.387329	-0.481980
H233	H	1.591887	-0.053996	-0.148647
H234	H	1.925220	0.279337	0.184687
O235	O	1.063466	-0.383762	-0.286667
O236	O	1.396800	-0.050428	0.046667
O237	O	1.730133	0.282905	0.380000
C238	C	1.074517	-0.337311	-0.297715
C239	C	1.407850	-0.003978	0.035619
C240	C	1.741184	0.329356	0.368952
H241	H	1.100894	-0.330866	-0.359961
H242	H	1.434228	0.002468	-0.026628
H243	H	1.767561	0.335801	0.306706
H244	H	1.014118	-0.319509	-0.292195
H245	H	1.347451	0.013824	0.041138
H246	H	1.680785	0.347158	0.374471
H247	H	1.117473	-0.323997	-0.249922
H248	H	1.450806	0.009337	0.083411
H249	H	1.784139	0.342670	0.416745
O250	O	1.063448	-0.476378	-0.286726
O251	O	1.396781	-0.143045	0.046608
O252	O	1.730114	0.190288	0.379941
C253	C	1.011338	-0.503509	-0.332593
C254	C	1.344672	-0.170176	0.000740
C255	C	1.678005	0.163157	0.334073
H256	H	1.039742	-0.510493	-0.393728
H257	H	1.373075	-0.177160	-0.060395
H258	H	1.706408	0.156173	0.272938
H259	H	1.000564	-0.536524	-0.299754
H260	H	1.333898	-0.203191	0.033579
H261	H	1.667231	0.130142	0.366912
H262	H	0.951574	-0.485451	-0.341387
H263	H	1.284907	-0.152117	-0.008054
H264	H	1.618241	0.181216	0.325279
O265	O	1.318327	-0.832596	-0.541965
O266	O	1.651660	-0.499262	-0.208632
O267	O	1.984994	-0.165929	0.124701
C268	C	1.300634	-0.821112	-0.622308
C269	C	1.633968	-0.487779	-0.288975
C270	C	1.967301	-0.154446	0.044358
H271	H	1.269636	-0.787058	-0.623943
H272	H	1.602969	-0.453724	-0.290610
H273	H	1.936302	-0.120391	0.042724
H274	H	1.358800	-0.819471	-0.658526
H275	H	1.692134	-0.486137	-0.325192
H276	H	2.025467	-0.152804	0.008141
H277	H	1.259162	-0.847522	-0.649424
H278	H	1.592495	-0.514189	-0.316090
H279	H	1.925828	-0.180856	0.017243
H280	H	1.071798	-0.959910	-0.294868
H281	H	1.405131	-0.626576	0.038466
H282	H	1.738465	-0.293243	0.371799
H283	H	1.258582	-0.472439	-0.482027
H284	H	1.591915	-0.139105	-0.148694
H285	H	1.925248	0.194228	0.184639
O286	O	1.318222	-0.740104	-0.541866
O287	O	1.651556	-0.406771	-0.208533
O288	O	1.984889	-0.073437	0.124801
C289	C	1.272277	-0.712973	-0.593913
C290	C	1.605611	-0.379640	-0.260580
C291	C	1.938944	-0.046306	0.072754
H292	H	1.211188	-0.705981	-0.565416
H293	H	1.544521	-0.372648	-0.232083
H294	H	1.877855	-0.039315	0.101250
H295	H	1.305105	-0.679962	-0.604750
H296	H	1.638438	-0.346628	-0.271417
H297	H	1.971772	-0.013295	0.061917
H298	H	1.263387	-0.731035	-0.653657
H299	H	1.596720	-0.397702	-0.320324
H300	H	1.930053	-0.064369	0.013009
H301	H	1.258819	-0.959724	-0.482150
H302	H	1.592152	-0.626391	-0.148817
H303	H	1.925485	-0.293058	0.184516
H304	H	1.020201	-0.829239	-0.243232
H305	H	1.353534	-0.495905	0.090102
H306	H	1.686868	-0.162572	0.423435
H307	H	1.020078	-0.603375	-0.243180
H308	H	1.353411	-0.270042	0.090153
H309	H	1.686745	0.063292	0.423486
H310	H	1.071851	-1.045018	-0.294881
H311	H	1.405184	-0.711685	0.038453
H312	H	1.738518	-0.378352	0.371786
H313	H	1.310182	-0.603102	-0.533669
H314	H	1.643515	-0.269768	-0.200335
H315	H	1.976848	0.063565	0.132998
O316	O	1.318360	-0.691938	-0.541692
O317	O	1.651693	-0.358604	-0.208359
O318	O	1.985027	-0.025271	0.124974
C319	C	1.370496	-0.719060	-0.495841
C320	C	1.703829	-0.385727	-0.162507
C321	C	2.037162	-0.052393	0.170826
H322	H	1.342093	-0.726138	-0.434715
H323	H	1.675426	-0.392805	-0.101382
H324	H	2.008760	-0.059472	0.231951
H325	H	1.381314	-0.752029	-0.528707
H326	H	1.714648	-0.418696	-0.195373
H327	H	2.047981	-0.085362	0.137960
H328	H	1.430237	-0.700946	-0.487023
H329	H	1.763571	-0.367613	-0.153690
H330	H	2.096904	-0.034279	0.179643
O331	O	1.266832	-1.048543	-0.490375
O332	O	1.600165	-0.715210	-0.157041
O333	O	1.933499	-0.381876	0.176292
C334	C	1.220896	-1.075689	-0.542391
C335	C	1.554229	-0.742356	-0.209058
C336	C	1.887563	-0.409022	0.124276
H337	H	1.157384	-1.061575	-0.547302
H338	H	1.490718	-0.728242	-0.213968
H339	H	1.824051	-0.394908	0.119365
H340	H	1.250013	-1.076183	-0.604475
H341	H	1.583346	-0.742850	-0.271141
H342	H	1.916680	-0.409517	0.062192
H343	H	1.218145	-1.111258	-0.517461
H344	H	1.551479	-0.777925	-0.184127
H345	H	1.884812	-0.444592	0.149206
O346	O	1.011944	-0.692110	-0.235064
O347	O	1.345277	-0.358777	0.098269
O348	O	1.678610	-0.025443	0.431602
C349	C	0.966460	-0.661380	-0.189500
C350	C	1.299794	-0.328046	0.143833
C351	C	1.633127	0.005287	0.477166
H352	H	0.963650	-0.627923	-0.222522
H353	H	1.296984	-0.294589	0.110811
H354	H	1.630317	0.038744	0.444144
H355	H	0.902938	-0.674964	-0.180850
H356	H	1.236271	-0.341631	0.152483
H357	H	1.569604	-0.008297	0.485817
H358	H	0.996013	-0.656403	-0.128285
H359	H	1.329346	-0.323070	0.205048
H360	H	1.662679	0.010264	0.538381
H361	H	1.020163	-0.744132	-0.243211
H362	H	1.353496	-0.410799	0.090122
H363	H	1.686830	-0.077466	0.423456
