data_functionalizedCrystal
_audit_creation_method	'MofGen! by Chris Wilmer'
_symmetry_space_group_name_H-M	'P1'
_symmetry_Int_Tables_number	1
_symmetry_cell_setting	triclinic
loop_
_symmetry_equiv_pos_as_xyz
  x,y,z
_cell_length_a	18.050591
_cell_length_b	19.077068
_cell_length_c	19.077174
_cell_angle_alpha	85.342852
_cell_angle_beta	87.678658
_cell_angle_gamma	87.676702
loop_
_atom_site_label
_atom_site_type_symbol
_atom_site_fract_x
_atom_site_fract_y
_atom_site_fract_z
Zn1	Zn	1.140100	0.296758	-0.409971
Zn2	Zn	1.130417	0.409912	-0.296814
Zn3	Zn	1.011121	0.292035	-0.292087
Zn4	Zn	1.011071	0.414599	-0.414646
O5	O	1.073177	0.353326	-0.353379
O6	O	1.242740	0.311783	-0.394982
O7	O	1.110560	0.390337	-0.197538
O8	O	1.032303	0.194012	-0.303789
O9	O	1.235626	0.394917	-0.311846
O10	O	1.127064	0.197483	-0.390399
O11	O	1.022914	0.303733	-0.194065
O12	O	0.907189	0.308278	-0.308323
O13	O	1.032219	0.402905	-0.512674
O14	O	0.907153	0.398325	-0.398366
O15	O	1.127016	0.316328	-0.509240
O16	O	1.110512	0.509183	-0.316379
O17	O	1.022829	0.512626	-0.402950
C18	C	0.880224	0.353298	-0.353339
C19	C	0.797678	0.353304	-0.353340
C20	C	1.065635	0.536484	-0.360700
C21	C	1.062478	0.614840	-0.363856
C22	C	1.080692	0.360666	-0.537251
C23	C	1.083894	0.363795	-0.615606
C24	C	0.598233	0.304286	-0.304480
C25	C	0.545491	0.367888	-0.289711
C26	C	0.646548	0.353327	-0.353372
C27	C	0.552207	0.289746	-0.368141
C28	C	0.500564	0.353343	-0.353402
C29	C	0.594891	0.416961	-0.338571
C30	C	0.601615	0.338777	-0.417029
C31	C	0.548895	0.402425	-0.402286
C32	C	0.730646	0.353316	-0.353353
C33	C	0.416467	0.353360	-0.353422
C34	C	1.266883	0.353354	-0.353420
C35	C	1.349429	0.353367	-0.353437
C36	C	1.080769	0.169454	-0.346045
C37	C	1.084004	0.091098	-0.342920
C38	C	1.106684	0.649838	-0.320303
C39	C	1.103719	0.723462	-0.323275
C40	C	1.056543	0.762088	-0.369797
C41	C	1.012335	0.727086	-0.413354
C42	C	1.015304	0.653463	-0.410386
C43	C	1.042766	0.982473	-0.383509
C44	C	1.039798	1.056101	-0.386473
C45	C	1.131184	1.052472	-0.296394
C46	C	1.134146	0.978848	-0.293426
C47	C	1.089940	0.943852	-0.336986
N48	N	1.053509	0.837344	-0.372834
N49	N	1.092979	0.868597	-0.333952
C50	C	1.039768	0.320175	-0.650608
C51	C	1.042774	0.323120	-0.724231
C52	C	1.089911	0.369682	-0.762850
C53	C	1.134039	0.413306	-0.727843
C54	C	1.131028	0.410364	-0.654221
C55	C	1.103803	0.383319	-0.983230
C56	C	1.106812	0.386256	-1.056856
C57	C	1.015546	0.296071	-1.053240
C58	C	1.012543	0.293130	-0.979617
C59	C	1.056668	0.336757	-0.944616
N60	N	1.092986	0.372692	-0.838105
N61	N	1.053588	0.333750	-0.869363
C62	C	1.065736	0.345963	-0.170221
C63	C	1.062686	0.342636	-0.091859
H64	H	0.619891	0.262855	-0.263092
H65	H	0.520949	0.380206	-0.235890
H66	H	1.139725	0.418851	-0.954741
F67	F	1.178230	1.089723	-0.250040
H68	H	0.979621	0.260553	-1.081746
F69	F	0.989576	1.097208	-0.435983
H70	H	0.979308	0.624968	-0.445852
F71	F	0.962130	0.768196	-0.462871
H72	H	1.006770	0.953985	-0.418976
F73	F	0.995780	0.276720	-0.761481
H74	H	1.139716	0.751954	-0.287809
H75	H	1.145199	0.424173	-1.088298
H76	H	0.533307	0.235977	-0.380596
F77	F	1.184200	0.462865	-0.768946
F78	F	0.520755	0.456699	-0.456349
H79	H	1.166966	0.445879	-0.625723
F80	F	0.989602	0.270614	-0.609513
H81	H	0.613658	0.470751	-0.326032
F82	F	0.962375	0.243571	-0.938521
H83	H	0.626175	0.326439	-0.470832
F84	F	1.156892	0.608735	-0.270783
H85	H	1.172560	0.947400	-0.255544
