data_functionalizedCrystal
_audit_creation_method	'MofGen! by Chris Wilmer'
_symmetry_space_group_name_H-M	'P1'
_symmetry_Int_Tables_number	1
_symmetry_cell_setting	triclinic
loop_
_symmetry_equiv_pos_as_xyz
  x,y,z
_cell_length_a	16.992694
_cell_length_b	14.472310
_cell_length_c	16.956985
_cell_angle_alpha	89.997604
_cell_angle_beta	96.639294
_cell_angle_gamma	90.007614
loop_
_atom_site_label
_atom_site_type_symbol
_atom_site_fract_x
_atom_site_fract_y
_atom_site_fract_z
O1	O	1.029487	0.076728	-0.168381
O2	O	0.801321	0.076755	-0.166534
O3	O	0.929112	0.076733	-0.052252
O4	O	0.901696	0.076751	-0.282663
O5	O	0.929081	-0.076949	-0.052257
O6	O	0.801290	-0.076927	-0.166539
O7	O	1.029456	-0.076954	-0.168386
Cu8	Cu	0.915370	-0.090972	-0.167463
Cu9	Cu	0.915407	0.090774	-0.167457
O10	O	0.901665	-0.076931	-0.282668
C11	C	0.772247	-0.000082	-0.164160
C12	C	0.685663	-0.000072	-0.157069
N13	N	0.915350	-0.218803	-0.167467
C14	C	0.630987	-0.000067	-0.225484
C15	C	0.549633	-0.000081	-0.218817
C16	C	0.522955	-0.000092	-0.143734
C17	C	0.577637	-0.000099	-0.075314
C18	C	0.658990	-0.000093	-0.081982
C19	C	0.281149	-0.000119	-0.116099
C20	C	0.199790	-0.000123	-0.109436
C21	C	0.171791	-0.000106	-0.252940
C22	C	0.253146	-0.000094	-0.259601
C23	C	0.307821	-0.000106	-0.191181
N24	N	0.439798	-0.000103	-0.136918
N25	N	0.390976	-0.000102	-0.197998
C26	C	0.915406	-0.592895	-0.167454
C27	C	0.846827	-0.553717	-0.228371
C28	C	0.846960	-0.446629	-0.228618
C29	C	0.915377	-0.407304	-0.167460
C30	C	0.995681	-0.446149	-0.190750
C31	C	0.995289	-0.553270	-0.191189
C32	C	0.904421	-0.553428	-0.083100
C33	C	0.902517	-0.446300	-0.083537
C34	C	0.915366	-0.302415	-0.167463
C35	C	0.915422	-0.697783	-0.167453
C36	C	1.058530	-0.000114	-0.170760
C37	C	1.145114	-0.000118	-0.177851
C38	C	0.930501	-0.000108	-0.022636
C39	C	0.934674	-0.000108	0.065619
N40	N	0.915434	0.218605	-0.167447
C41	C	0.864889	-0.000096	0.102150
C42	C	0.868816	-0.000099	0.185075
C43	C	0.942528	-0.000108	0.231467
C44	C	1.012319	-0.000123	0.194930
C45	C	1.008392	-0.000126	0.112007
C46	C	0.961968	-0.000106	0.480001
C47	C	0.965890	-0.000100	0.562930
C48	C	0.822386	-0.000078	0.553069
C49	C	0.818465	-0.000075	0.470144
C50	C	0.888256	-0.000095	0.433615
N51	N	0.946544	-0.000109	0.316230
N52	N	0.884240	-0.000101	0.348853
C53	C	0.900277	-0.000090	0.687716
C54	C	0.896105	-0.000088	0.599461
H55	H	0.652701	-0.000058	-0.286625
Br56	Br	0.163585	-0.000157	-0.007531
Br57	Br	0.355340	-0.000138	-0.023242
Br58	Br	1.012791	-0.594899	-0.293987
H59	H	0.274860	-0.000074	-0.320741
Br60	Br	1.082363	-0.596470	-0.120409
H61	H	0.811989	-0.000083	0.214815
H62	H	0.127266	-0.000098	-0.308643
H63	H	1.006572	-0.419309	-0.251757
Br64	Br	1.082403	-0.403699	-0.119127
H65	H	0.847427	-0.580490	-0.061994
Br66	Br	1.103104	-0.000157	0.062428
Br67	Br	0.727676	-0.000051	0.602649
Br68	Br	0.475433	-0.000072	-0.311671
Br69	Br	0.718423	-0.000048	0.407188
Br70	Br	1.065935	-0.000102	0.625891
Br71	Br	0.747163	-0.402851	-0.204268
Br72	Br	1.056684	-0.000100	0.430436
H73	H	0.843472	-0.420912	-0.065983
H74	H	0.555910	-0.000121	-0.014180
H75	H	0.949635	-0.419535	-0.035679
H76	H	0.954496	-0.578763	-0.037706
Br77	Br	0.764845	-0.000075	0.039197
H78	H	0.703507	-0.000096	-0.026271
Br79	Br	0.746695	-0.596660	-0.204229
H80	H	0.853161	-0.580623	-0.290503
Br81	Br	1.112359	-0.000150	0.257890
H82	H	0.853416	-0.420991	-0.291107
