data_functionalizedCrystal
_audit_creation_method	'MofGen! by Chris Wilmer'
_symmetry_space_group_name_H-M	'P1'
_symmetry_Int_Tables_number	1
_symmetry_cell_setting	triclinic
loop_
_symmetry_equiv_pos_as_xyz
  x,y,z
_cell_length_a	23.532407
_cell_length_b	10.654550
_cell_length_c	9.130313
_cell_angle_alpha	89.999724
_cell_angle_beta	89.996969
_cell_angle_gamma	96.333197
loop_
_atom_site_label
_atom_site_type_symbol
_atom_site_fract_x
_atom_site_fract_y
_atom_site_fract_z
O1	O	-0.079985	1.665305	-0.121663
O2	O	-0.087605	1.299585	-0.121687
O3	O	-0.000935	1.493474	-0.121693
O4	O	-0.166655	1.471417	-0.121657
O5	O	-0.000933	1.493460	0.121906
O6	O	-0.087603	1.299572	0.121912
O7	O	-0.079982	1.665292	0.121936
Cu8	Cu	-0.083792	1.482431	0.144166
Cu9	Cu	-0.083795	1.482447	-0.143918
O10	O	-0.166652	1.471404	0.121941
C11	C	-0.087044	1.252799	0.000109
C12	C	-0.085370	1.113408	0.000098
C13	C	-0.136400	1.032306	0.000113
C14	C	-0.134824	0.901335	0.000138
C15	C	-0.031183	0.932582	0.000127
C16	C	-0.032760	1.063550	0.000112
C17	C	-0.187873	1.471972	0.000147
C18	C	-0.251101	1.473661	0.000161
C19	C	-0.649526	1.369514	0.000079
C20	C	-0.708936	1.371082	0.000069
O21	O	-0.745052	1.274537	0.000008
N22	N	-0.732314	1.486349	0.000078
C23	C	-0.696277	1.600054	0.000083
O24	O	-0.721616	1.698241	0.000089
C25	C	-0.636867	1.598484	0.000083
C26	C	-0.613494	1.483210	0.000088
C27	C	-0.626152	1.254249	0.000082
C28	C	-0.566745	1.252681	0.000095
C29	C	-0.530713	1.366377	0.000105
C30	C	-0.554087	1.481642	0.000101
C31	C	-0.600832	1.712188	0.000077
C32	C	-0.541419	1.710608	0.000076
C33	C	-0.518045	1.595334	0.000081
C34	C	-0.458649	1.593770	0.000123
N35	N	-0.435272	1.478504	0.000113
C36	C	-0.471304	1.364807	0.000104
C37	C	-0.821041	1.603342	0.000081
C38	C	-0.880449	1.604914	0.000092
C39	C	-0.893104	1.375942	0.000075
C40	C	-0.833695	1.374372	0.000075
C41	C	-0.797664	1.488076	0.000072
C42	C	-0.346546	1.361522	0.000133
C43	C	-0.287134	1.359964	0.000151
C44	C	-0.274483	1.588936	0.000161
C45	C	-0.333890	1.590495	0.000150
C46	C	-0.369921	1.476778	0.000130
O47	O	-0.422498	1.690265	0.000177
O48	O	-0.445956	1.266636	0.000079
C49	C	0.020286	1.492905	0.000099
C50	C	0.083514	1.491217	0.000075
C51	C	-0.080543	1.712079	0.000137
C52	C	-0.082217	1.851469	0.000138
N53	N	-0.083790	1.482429	0.346789
N54	N	-0.083793	1.482458	-0.346540
C55	C	-0.045429	1.568311	0.423438
C56	C	-0.045429	1.568323	0.576775
C57	C	-0.122156	1.396567	0.576800
C58	C	-0.122153	1.396550	0.423466
H59	H	0.011650	0.891971	0.000148
H60	H	-0.352922	1.684360	0.000166
H61	H	-0.153392	1.326648	0.639245
F62	F	-0.162982	1.305133	0.341883
F63	F	-0.004598	1.659709	0.341839
F64	F	-0.192393	1.085364	0.000104
F65	F	0.021556	1.149871	0.000106
H66	H	-0.176378	0.835306	0.000154
F67	F	-0.384884	1.240492	0.000113
F68	F	-0.262261	1.237269	0.000161
H69	H	-0.547720	1.158813	0.000087
F70	F	-0.503075	1.831632	0.000067
F71	F	-0.664492	1.133226	0.000068
F72	F	-0.808825	1.251683	0.000078
H73	H	-0.922453	1.283364	0.000068
F74	F	-0.782697	1.724371	0.000093
F75	F	-0.905318	1.727604	0.000108
F76	F	-0.236125	1.709933	0.000181
F77	F	-0.625695	1.834880	0.000045
H78	H	-0.014191	1.638255	0.639179
