data_functionalizedCrystal
_audit_creation_method	'MofGen! by Chris Wilmer'
_symmetry_space_group_name_H-M	'P1'
_symmetry_Int_Tables_number	1
_symmetry_cell_setting	triclinic
loop_
_symmetry_equiv_pos_as_xyz
  x,y,z
_cell_length_a	11.792241
_cell_length_b	11.792254
_cell_length_c	14.586319
_cell_angle_alpha	89.996031
_cell_angle_beta	90.000696
_cell_angle_gamma	84.196007
loop_
_atom_site_label
_atom_site_type_symbol
_atom_site_fract_x
_atom_site_fract_y
_atom_site_fract_z
O1	O	1.506914	0.155566	-0.076152
O2	O	1.840248	0.488899	0.257182
O3	O	2.173581	0.822232	0.590515
O4	O	1.176574	0.171598	-0.076173
O5	O	1.509907	0.504932	0.257160
O6	O	1.843241	0.838265	0.590494
O7	O	1.349753	-0.001588	-0.076155
O8	O	1.683086	0.331746	0.257178
O9	O	2.016420	0.665079	0.590511
O10	O	1.333735	0.328752	-0.076169
O11	O	1.667069	0.662085	0.257164
O12	O	2.000402	0.995418	0.590497
O13	O	1.349741	-0.001590	0.076325
O14	O	1.683074	0.331743	0.409659
O15	O	2.016408	0.665076	0.742992
O16	O	1.176562	0.171596	0.076308
O17	O	1.509895	0.504929	0.409641
O18	O	1.843229	0.838262	0.742974
O19	O	1.506902	0.155563	0.076329
O20	O	1.840236	0.488896	0.409662
O21	O	2.173569	0.822230	0.742996
Cu22	Cu	1.341731	0.163579	0.090241
Cu23	Cu	1.675064	0.496912	0.423574
Cu24	Cu	2.008398	0.830246	0.756908
Cu25	Cu	1.341745	0.163582	-0.090085
Cu26	Cu	1.675079	0.496916	0.243248
Cu27	Cu	2.008412	0.830249	0.576582
O28	O	1.333723	0.328749	0.076311
O29	O	1.667056	0.662082	0.409645
O30	O	2.000390	0.995416	0.742978
C31	C	1.348738	-0.043880	0.000085
C32	C	1.682071	0.289454	0.333418
C33	C	2.015405	0.622787	0.666751
C34	C	1.345718	-0.169893	0.000084
C35	C	1.679051	0.163441	0.333417
C36	C	2.012385	0.496774	0.666750
C37	C	1.134277	0.170590	0.000065
C38	C	1.467610	0.503923	0.333398
C39	C	1.800944	0.837257	0.666731
C40	C	1.008263	0.167576	0.000057
C41	C	1.341596	0.500909	0.333390
C42	C	1.674930	0.834242	0.666723
C43	C	1.343264	-0.272229	0.000080
C44	C	1.676597	0.061104	0.333413
C45	C	2.009931	0.394437	0.666747
C46	C	1.340196	-0.400616	0.000072
C47	C	1.673529	-0.067283	0.333405
C48	C	2.006862	0.266051	0.666738
C49	C	0.777551	0.162033	0.000083
C50	C	1.110884	0.495366	0.333416
C51	C	1.444217	0.828699	0.666750
C52	C	0.905936	0.165112	0.000069
C53	C	1.239269	0.498446	0.333402
C54	C	1.572603	0.831779	0.666735
C55	C	1.549199	0.156571	0.000089
C56	C	1.882533	0.489905	0.333423
C57	C	2.215866	0.823238	0.666756
C58	C	1.675213	0.159586	0.000091
C59	C	2.008546	0.492919	0.333425
C60	C	2.341880	0.826252	0.666758
C61	C	1.334738	0.371041	0.000069
C62	C	1.668071	0.704374	0.333403
C63	C	2.001405	1.037708	0.666736
C64	C	1.337758	0.497054	0.000064
C65	C	1.671092	0.830387	0.333398
C66	C	2.004425	1.163721	0.666731
N67	N	1.341729	0.163576	0.217073
N68	N	1.675062	0.496910	0.550406
N69	N	2.008396	0.830243	0.883739
N70	N	1.341756	0.163576	-0.216917
N71	N	1.675089	0.496909	0.116416
N72	N	2.008423	0.830243	0.449750
C73	C	1.418439	0.086915	0.452087
C74	C	1.751772	0.420249	0.785420
C75	C	2.085105	0.753582	1.118754
C76	C	1.418442	0.086913	0.548068
C77	C	1.751775	0.420246	0.881402
C78	C	2.085108	0.753579	1.214735
C79	C	1.265038	0.240240	0.548062
C80	C	1.598372	0.573574	0.881395
C81	C	1.931705	0.906907	1.214729
C82	C	1.265031	0.240237	0.452083
C83	C	1.598364	0.573570	0.785416
C84	C	1.931697	0.906904	1.118749
C85	C	1.341737	0.163576	0.404098
C86	C	1.675070	0.496909	0.737431
C87	C	2.008404	0.830242	1.070764
C88	C	1.341748	0.163577	0.596058
C89	C	1.675081	0.496910	0.929392
C90	C	2.008415	0.830243	1.262725
C91	C	1.341751	0.163574	0.700125
C92	C	1.675084	0.496908	1.033459
C93	C	2.008418	0.830241	1.366792
C94	C	1.341733	0.163576	0.300024
C95	C	1.675066	0.496910	0.633357
C96	C	2.008400	0.830243	0.966690
H97	H	1.480898	0.024488	0.587139
H98	H	1.814231	0.357821	0.920472
H99	H	2.147564	0.691154	1.253805
N100	N	1.182309	0.322922	0.599817
N101	N	1.515642	0.656255	0.933151
N102	N	1.848976	0.989589	1.266484
H103	H	1.193953	0.311295	0.667903
H104	H	1.527286	0.644629	1.001236
H105	H	1.860619	0.977962	1.334569
H106	H	1.195914	0.403529	0.583032
H107	H	1.529248	0.736862	0.916365
H108	H	1.862581	1.070195	1.249699
N109	N	1.182288	0.322922	0.400322
N110	N	1.515621	0.656255	0.733656
N111	N	1.848954	0.989589	1.066989
H112	H	1.195853	0.403569	0.417014
H113	H	1.529187	0.736903	0.750347
H114	H	1.862520	1.070236	1.083680
H115	H	1.193956	0.311186	0.332255
H116	H	1.527290	0.644519	0.665588
H117	H	1.860623	0.977852	0.998922
N118	N	1.501166	0.004234	0.400330
N119	N	1.834499	0.337567	0.733663
N120	N	2.167832	0.670900	1.066996
H121	H	1.549754	-0.044331	0.445299
H122	H	1.883088	0.289002	0.778632
H123	H	2.216421	0.622335	1.111966
H124	H	1.457402	-0.046236	0.360512
H125	H	1.790735	0.287097	0.693846
H126	H	2.124069	0.620430	1.027179
