data_functionalizedCrystal
_audit_creation_method	'MofGen! by Chris Wilmer'
_symmetry_space_group_name_H-M	'P1'
_symmetry_Int_Tables_number	1
_symmetry_cell_setting	triclinic
loop_
_symmetry_equiv_pos_as_xyz
  x,y,z
_cell_length_a	25.639242
_cell_length_b	25.639239
_cell_length_c	12.759387
_cell_angle_alpha	89.963582
_cell_angle_beta	89.976152
_cell_angle_gamma	90.030990
loop_
_atom_site_label
_atom_site_type_symbol
_atom_site_fract_x
_atom_site_fract_y
_atom_site_fract_z
Zn1	Zn	0.799274	-0.208231	-0.594057
Zn2	Zn	0.799183	-0.295676	-0.418361
Zn3	Zn	0.711836	-0.208245	-0.418384
Zn4	Zn	0.711795	-0.295625	-0.593990
O5	O	0.755522	-0.251944	-0.506198
O6	O	0.872427	-0.219846	-0.570770
O7	O	0.787575	-0.284106	-0.271343
O8	O	0.723490	-0.135078	-0.441726
O9	O	0.872360	-0.284092	-0.441686
O10	O	0.787730	-0.135067	-0.570792
O11	O	0.723401	-0.219870	-0.271360
O12	O	0.638665	-0.219821	-0.441660
O13	O	0.723421	-0.284005	-0.741020
O14	O	0.638636	-0.284018	-0.570676
O15	O	0.787691	-0.219796	-0.741070
O16	O	0.787536	-0.368835	-0.441620
O17	O	0.723333	-0.368797	-0.570654
C18	C	0.619680	-0.251916	-0.506164
C19	C	0.561566	-0.251916	-0.506174
C20	C	0.310415	-0.218551	-0.573534
C21	C	0.365019	-0.218546	-0.573528
O22	O	0.393292	-0.190154	-0.630793
N23	N	0.392292	-0.251938	-0.506210
C24	C	0.364957	-0.285342	-0.438901
O25	O	0.393168	-0.313745	-0.381641
C26	C	0.310354	-0.285349	-0.438913
C27	C	0.283084	-0.251951	-0.506228
C28	C	0.283145	-0.185155	-0.640845
C29	C	0.228545	-0.185160	-0.640850
C30	C	0.201214	-0.218560	-0.573543
C31	C	0.228483	-0.251955	-0.506232
C32	C	0.283020	-0.318755	-0.371609
C33	C	0.228413	-0.318760	-0.371628
C34	C	0.201143	-0.285361	-0.438943
C35	C	0.146552	-0.285360	-0.438930
N36	N	0.119280	-0.251967	-0.506249
C37	C	0.146611	-0.218567	-0.573555
C38	C	0.479627	-0.285324	-0.438882
C39	C	0.534230	-0.285315	-0.438864
C40	C	0.534288	-0.218519	-0.573493
C41	C	0.479685	-0.218526	-0.573505
C42	C	0.452355	-0.251932	-0.506200
C43	C	0.031945	-0.218579	-0.573559
C44	C	-0.022660	-0.218585	-0.573554
C45	C	-0.022714	-0.285383	-0.438929
C46	C	0.031887	-0.285375	-0.438929
C47	C	0.059215	-0.251971	-0.506253
O48	O	0.118244	-0.313739	-0.381698
O49	O	0.118393	-0.190174	-0.630815
C50	C	0.755434	-0.387787	-0.506150
C51	C	0.755444	-0.445901	-0.506164
C52	C	0.789040	-0.806271	-0.439125
C53	C	0.789060	-0.860875	-0.439139
O54	O	0.817533	-0.889118	-0.382086
N55	N	0.755614	-0.888183	-0.506268
C56	C	0.722149	-0.860884	-0.573394
O57	O	0.693703	-0.889126	-0.630495
C58	C	0.722132	-0.806281	-0.573385
C59	C	0.755577	-0.778976	-0.506244
C60	C	0.822482	-0.778966	-0.371990
C61	C	0.822461	-0.724365	-0.371975
C62	C	0.788998	-0.697070	-0.439094
C63	C	0.755555	-0.724375	-0.506229
C64	C	0.688670	-0.778983	-0.640516
C65	C	0.688656	-0.724376	-0.640501
C66	C	0.722101	-0.697071	-0.573361
C67	C	0.722071	-0.642479	-0.573333
N68	N	0.755517	-0.615171	-0.506204
C69	C	0.788981	-0.642467	-0.439085
C70	C	0.722188	-0.975555	-0.573411
C71	C	0.722203	-1.030157	-0.573416
C72	C	0.789115	-1.030144	-0.439161
C73	C	0.789097	-0.975541	-0.439151
C74	C	0.755635	-0.948247	-0.506282
C75	C	0.788933	-0.527801	-0.439057
C76	C	0.788908	-0.473196	-0.439045
C77	C	0.721998	-0.473214	-0.573303
C78	C	0.722021	-0.527814	-0.573312
C79	C	0.755493	-0.555107	-0.506186
O80	O	0.693614	-0.614202	-0.630359
O81	O	0.817427	-0.614218	-0.382004
C82	C	0.891895	-0.251973	-0.506233
C83	C	0.950009	-0.251985	-0.506247
C84	C	0.755562	-0.251893	-0.780232
C85	C	0.755578	-0.251871	-0.897008
C86	C	0.755625	-0.115571	-0.506269
C87	C	0.755668	-0.057457	-0.506300
C88	C	0.822507	-0.185015	-0.897080
C89	C	0.855979	-0.151580	-0.951977
C90	C	0.855992	-0.151561	-1.061698
C91	C	0.822528	-0.184980	-1.116526
C92	C	0.789056	-0.218415	-1.061629
C93	C	0.789048	-0.218432	-0.951905
C94	C	0.722126	-0.285268	-1.061558
C95	C	0.722115	-0.285290	-0.951836
C96	C	0.688662	-0.318687	-1.116385
C97	C	0.655192	-0.352126	-1.061488
C98	C	0.655181	-0.352144	-0.951760
C99	C	0.688643	-0.318726	-0.896939
C100	C	0.755513	-0.251958	-0.233230
C101	C	0.755597	-0.251832	-0.116454
H102	H	0.457379	-0.312526	-0.384065
Br103	Br	0.822540	-0.184947	-1.265435
Br104	Br	0.609777	-0.397471	-1.135901
H105	H	0.883244	-0.124331	-1.106395
H106	H	0.822505	-0.185032	-0.807739
H107	H	0.305213	-0.345952	-0.316794
H108	H	0.206163	-0.345965	-0.316822
H109	H	0.694964	-1.052384	-0.628079
Br110	Br	0.901377	-0.106212	-0.877565
H111	H	0.694935	-0.953334	-0.628073
H112	H	0.816142	-0.450966	-0.384367
H113	H	0.457486	-0.191330	-0.628318
Br114	Br	-0.059665	-0.173254	-0.664913
Br115	Br	0.867861	-0.687316	-0.280865
H116	H	0.849735	-0.801184	-0.317333
H117	H	0.694751	-0.450981	-0.627948
H118	H	0.054190	-0.191379	-0.628379
Br119	Br	0.068897	-0.330705	-0.347578
H120	H	0.305392	-0.157957	-0.695660
H121	H	0.688672	-0.318667	-1.205726
H122	H	0.556551	-0.191323	-0.628298
H123	H	-0.044977	-0.312574	-0.384125
Br124	Br	0.834360	-0.564833	-0.347957
Br125	Br	0.643283	-0.816026	-0.731653
H126	H	0.627918	-0.379366	-0.907070
Br127	Br	0.688634	-0.318752	-0.748030
H128	H	0.816331	-0.953312	-0.384480
Br129	Br	0.643241	-0.687337	-0.731616
Br130	Br	0.834528	-1.067198	-0.348065
H131	H	0.556428	-0.312506	-0.384037
Br132	Br	0.191545	-0.139835	-0.732220
Br133	Br	0.676619	-0.564873	-0.664407
