data_functionalizedCrystal
_audit_creation_method	'MofGen! by Chris Wilmer'
_symmetry_space_group_name_H-M	'P1'
_symmetry_Int_Tables_number	1
_symmetry_cell_setting	triclinic
loop_
_symmetry_equiv_pos_as_xyz
  x,y,z
_cell_length_a	8.140239
_cell_length_b	9.065218
_cell_length_c	9.065218
_cell_angle_alpha	85.015885
_cell_angle_beta	89.997198
_cell_angle_gamma	89.998314
loop_
_atom_site_label
_atom_site_type_symbol
_atom_site_fract_x
_atom_site_fract_y
_atom_site_fract_z
O1	O	-0.136610	0.216355	1.960398
O2	O	0.363390	0.716355	2.460398
O3	O	-0.136612	0.234101	1.531113
O4	O	0.363388	0.734101	2.031113
O5	O	-0.136608	0.010585	1.754629
O6	O	0.363392	0.510585	2.254629
O7	O	-0.136615	0.439870	1.736882
O8	O	0.363385	0.939870	2.236882
O9	O	0.136619	0.010583	1.754616
O10	O	0.636619	0.510583	2.254616
O11	O	0.136615	0.234098	1.531101
O12	O	0.636615	0.734098	2.031101
O13	O	0.136617	0.216352	1.960385
O14	O	0.636617	0.716352	2.460385
Zn15	Zn	0.179997	0.225225	1.745741
Zn16	Zn	0.679997	0.725225	2.245741
Zn17	Zn	-0.179992	0.225228	1.745758
Zn18	Zn	0.320008	0.725228	2.245758
O19	O	0.136613	0.439868	1.736870
O20	O	0.636613	0.939868	2.236870
C21	C	0.000001	0.232394	1.476120
C22	C	0.500001	0.732394	1.976120
C23	C	0.000000	0.227294	1.312277
C24	C	0.500000	0.727294	1.812277
N25	N	0.425679	0.225221	1.745741
N26	N	0.925679	0.725221	2.245741
C27	C	0.000003	-0.044403	1.752917
C28	C	0.500003	0.455597	2.252917
C29	C	-0.000005	-0.208245	1.747817
C30	C	0.499995	0.291755	2.247817
N31	N	-0.425674	0.225220	1.745770
N32	N	0.074326	0.725220	2.245770
C33	C	-0.000002	0.494855	1.738582
C34	C	0.499998	0.994855	2.238582
C35	C	-0.000005	0.658698	1.743681
C36	C	0.499995	1.158698	2.243681
C37	C	-0.000000	0.218059	2.015378
C38	C	0.500000	0.718059	2.515378
C39	C	-0.000010	0.223158	2.179221
C40	C	0.499990	0.723158	2.679221
