data_functionalizedCrystal
_audit_creation_method	'MofGen! by Chris Wilmer'
_symmetry_space_group_name_H-M	'P1'
_symmetry_Int_Tables_number	1
_symmetry_cell_setting	triclinic
loop_
_symmetry_equiv_pos_as_xyz
  x,y,z
_cell_length_a	14.519709
_cell_length_b	16.098538
_cell_length_c	14.519709
_cell_angle_alpha	87.273050
_cell_angle_beta	83.680145
_cell_angle_gamma	92.738106
loop_
_atom_site_label
_atom_site_type_symbol
_atom_site_fract_x
_atom_site_fract_y
_atom_site_fract_z
O1	O	1.227984	0.069149	0.116783
O2	O	1.727984	0.569149	0.616783
O3	O	0.959508	0.069175	0.131018
O4	O	1.459508	0.569175	0.631018
O5	O	1.100864	0.069154	-0.010338
O6	O	1.600864	0.569154	0.489662
O7	O	1.086628	0.069170	0.258138
O8	O	1.586628	0.569170	0.758138
O9	O	1.092606	-0.069358	-0.002113
O10	O	1.592606	0.430642	0.497887
O11	O	0.951251	-0.069337	0.139243
O12	O	1.451251	0.430663	0.639243
O13	O	1.219726	-0.069363	0.125008
O14	O	1.719726	0.430637	0.625008
Zn15	Zn	1.084178	-0.091341	0.133431
Zn16	Zn	1.584178	0.408659	0.633431
Zn17	Zn	1.095057	0.091154	0.122595
Zn18	Zn	1.595057	0.591154	0.622595
O19	O	1.078371	-0.069342	0.266363
O20	O	1.578371	0.430658	0.766363
C21	C	0.921020	-0.000078	0.134467
C22	C	1.421020	0.499922	0.634467
C23	C	0.818639	-0.000068	0.132478
C24	C	1.318639	0.499932	0.632478
N25	N	1.076759	-0.215889	0.140826
N26	N	1.576759	0.284111	0.640826
C27	C	0.443741	-0.000107	0.125161
C28	C	0.943741	0.499893	0.625161
C29	C	0.548050	-0.000096	0.127193
C30	C	1.048050	0.499904	0.627193
C31	C	0.631187	-0.000087	0.128819
C32	C	1.131187	0.499913	0.628819
C33	C	0.735502	-0.000077	0.130852
C34	C	1.235502	0.499923	0.630852
C35	C	1.136778	-0.259483	0.080851
C36	C	1.636778	0.240517	0.580851
C37	C	1.131598	-0.346672	0.086033
C38	C	1.631598	0.153328	0.586033
C39	C	1.066402	-0.390264	0.151195
C40	C	1.566402	0.109736	0.651195
C41	C	1.006376	-0.346664	0.211174
C42	C	1.506376	0.153336	0.711174
C43	C	1.011553	-0.259478	0.205987
C44	C	1.511553	0.240522	0.705987
C45	C	1.047634	-0.653512	0.169983
C46	C	1.547634	-0.153512	0.669983
C47	C	1.042464	-0.740704	0.175168
C48	C	1.542464	-0.240704	0.675168
C49	C	1.167684	-0.740706	0.050025
C50	C	1.667684	-0.240706	0.550025
C51	C	1.172859	-0.653517	0.044847
C52	C	1.672859	-0.153517	0.544847
C53	C	1.112831	-0.609925	0.104822
C54	C	1.612831	-0.109925	0.604822
C55	C	1.061106	-0.479385	0.156496
C56	C	1.561106	0.020615	0.656496
C57	C	1.118122	-0.520806	0.099517
C58	C	1.618122	-0.020806	0.599517
C59	C	1.258215	-0.000108	0.121559
C60	C	1.758215	0.499892	0.621559
C61	C	1.360596	-0.000112	0.123547
C62	C	1.860596	0.499888	0.623547
N63	N	1.102483	0.215702	0.115192
N64	N	1.602483	0.715702	0.615192
C65	C	1.096072	-0.000102	-0.040585
C66	C	1.596072	0.499898	0.459415
C67	C	1.094083	-0.000102	-0.142966
C68	C	1.594083	0.499898	0.357034
C69	C	1.086765	-0.000080	-0.517863
C70	C	1.586765	0.499920	-0.017863
C71	C	1.088797	-0.000087	-0.413555
C72	C	1.588797	0.499913	0.086445
C73	C	1.090424	-0.000092	-0.330418
C74	C	1.590424	0.499908	0.169582
C75	C	1.092457	-0.000097	-0.226103
C76	C	1.592457	0.499903	0.273897
C77	C	1.083163	-0.000084	0.296610
C78	C	1.583163	0.499916	0.796610
C79	C	1.085152	-0.000078	0.398991
C80	C	1.585152	0.499922	0.898991
H81	H	1.189872	-0.223996	0.027792
H82	H	1.689872	0.276004	0.527792
H83	H	1.225947	-0.618026	-0.008213
H84	H	1.725947	-0.118026	0.491787
Cl85	Cl	0.979149	-0.534191	0.238416
Cl86	Cl	1.479149	-0.034191	0.738416
Cl87	Cl	1.243141	-0.795511	-0.025371
Cl88	Cl	1.743141	-0.295511	0.474629
Cl89	Cl	0.960496	-0.795501	0.257096
Cl90	Cl	1.460496	-0.295501	0.757096
Cl91	Cl	0.972175	-0.598715	0.245382
Cl92	Cl	1.472175	-0.098715	0.745382
H93	H	0.953288	-0.382162	0.264228
H94	H	1.453288	0.117838	0.764228
Cl95	Cl	1.200077	-0.466003	0.017598
Cl96	Cl	1.700077	0.033997	0.517598
Cl97	Cl	1.207050	-0.401477	0.010633
Cl98	Cl	1.707050	0.098523	0.510633
Cl99	Cl	0.936094	-0.204674	0.281385
Cl100	Cl	1.436094	0.295326	0.781385
