data_functionalizedCrystal
_audit_creation_method	'MofGen! by Chris Wilmer'
_symmetry_space_group_name_H-M	'P1'
_symmetry_Int_Tables_number	1
_symmetry_cell_setting	triclinic
loop_
_symmetry_equiv_pos_as_xyz
  x,y,z
_cell_length_a	10.686551
_cell_length_b	12.759401
_cell_length_c	12.759400
_cell_angle_alpha	90.014845
_cell_angle_beta	94.405838
_cell_angle_gamma	94.393884
loop_
_atom_site_label
_atom_site_type_symbol
_atom_site_fract_x
_atom_site_fract_y
_atom_site_fract_z
Zn1	Zn	-0.713406	-1.651852	0.372614
Zn2	Zn	-0.502405	-1.638261	0.561816
Zn3	Zn	-0.502428	-1.462670	0.386150
Zn4	Zn	-0.713360	-1.476140	0.548255
O5	O	-0.607900	-1.557231	0.467209
O6	O	-0.685426	-1.797071	0.397722
O7	O	-0.325827	-1.603643	0.549854
O8	O	-0.530444	-1.487816	0.237332
O9	O	-0.530404	-1.787085	0.536728
O10	O	-0.685449	-1.626808	0.227387
O11	O	-0.325844	-1.474637	0.420793
O12	O	-0.530399	-1.317435	0.407644
O13	O	-0.889947	-1.510774	0.513616
O14	O	-0.685370	-1.327331	0.526741
O15	O	-0.889981	-1.639869	0.384573
O16	O	-0.530359	-1.616704	0.707040
O17	O	-0.685348	-1.497595	0.697077
C18	C	-0.607883	-1.284262	0.467191
C19	C	-0.607905	-1.167487	0.467206
C20	C	-0.607873	-1.557167	0.740178
C21	C	-0.607904	-1.557238	0.856953
C22	C	-0.937030	-1.578340	0.446072
C23	C	-1.077286	-1.587336	0.437065
C24	C	-0.280050	-1.536264	0.488188
C25	C	-0.139795	-1.527471	0.496899
C26	C	-0.607918	-1.831265	0.467228
C27	C	-0.607925	-1.948042	0.467236
C28	C	-0.688465	-1.117797	0.529336
C29	C	-0.688479	-1.008074	0.529349
C30	C	-0.527362	-0.997740	0.405099
C31	C	-0.527355	-1.107461	0.405081
C32	C	-0.781481	-1.123762	0.601075
C33	C	-0.781495	-1.014039	0.601087
C34	C	-0.607954	-1.557325	0.193172
C35	C	-0.607977	-1.557366	0.076394
C36	C	-0.527291	-1.619339	0.916962
C37	C	-0.527330	-1.619406	1.026683
C38	C	-0.688599	-1.495263	1.016377
C39	C	-0.688565	-1.495202	0.906657
C40	C	-0.434180	-1.691008	0.922913
C41	C	-0.434219	-1.691075	1.032635
H42	H	-1.086012	-1.469340	0.555020
O43	O	-1.141304	-1.656637	0.367586
C44	C	-1.181962	-1.710229	0.186292
C45	C	-1.109363	-1.631693	0.264862
H46	H	-1.156184	-1.690076	0.103220
H47	H	-1.156094	-1.793316	0.206301
H48	H	-1.287435	-1.705393	0.191188
H49	H	-1.003873	-1.636434	0.260008
H50	H	-1.135335	-1.548640	0.244828
H51	H	-0.755153	-0.982560	0.684120
H52	H	-0.461764	-1.147915	0.354481
O53	O	-0.449149	-0.939268	0.344860
C54	C	-0.377799	-0.765659	0.289777
C55	C	-0.466424	-0.831747	0.358062
H56	H	-0.391754	-0.678717	0.300411
H57	H	-0.275984	-0.780614	0.314637
H58	H	-0.400112	-0.788737	0.203664
H59	H	-0.444225	-0.808709	0.444193
H60	H	-0.568213	-0.816786	0.333114
O61	O	-0.739514	-1.161842	0.695834
C62	C	-0.694528	-1.315349	0.797704
C63	C	-0.742053	-1.272362	0.690329
H64	H	-0.696590	-1.404711	0.793296
H65	H	-0.594013	-1.281389	0.819104
H66	H	-0.757887	-1.291765	0.860233
H67	H	-0.678787	-1.295932	0.627730
H68	H	-0.842589	-1.306319	0.669020
O69	O	-0.766917	-1.434785	0.848523
C70	C	-0.926936	-1.311712	0.849880
C71	C	-0.838245	-1.380070	0.915843
H72	H	-0.984647	-1.267474	0.904279
H73	H	-0.868995	-1.252997	0.802326
H74	H	-0.992892	-1.364126	0.794183
H75	H	-0.772271	-1.327740	0.971598
H76	H	-0.896264	-1.438793	0.963326
O77	O	-0.476278	-1.785896	1.070500
C78	C	-0.631118	-1.881550	1.168673
C79	C	-0.583633	-1.774112	1.125832
H80	H	-0.717905	-1.872055	1.213438
H81	H	-0.656514	-1.938946	1.100494
H82	H	-0.554019	-1.913179	1.223869
H83	H	-0.660674	-1.742388	1.070652
H84	H	-0.558199	-1.716786	1.194063
O85	O	-0.898176	-1.166615	0.567667
C86	C	-1.110852	-1.134460	0.506947
C87	C	-0.978753	-1.085792	0.544742
H88	H	-1.176042	-1.069138	0.488423
H89	H	-1.104709	-1.183671	0.433192
H90	H	-1.149621	-1.186618	0.571328
H91	H	-0.939906	-1.033586	0.480434
H92	H	-0.984975	-1.036643	0.618525
H93	H	-0.754271	-1.444756	1.056859
H94	H	-0.874399	-0.985979	0.566107
H95	H	-0.460425	-1.774029	0.891378
O96	O	-0.323285	-1.649202	0.889664
C97	C	-0.114999	-1.570562	0.939578
C98	C	-0.240509	-1.617906	0.977378
H99	H	-0.048049	-1.545227	1.010474
H100	H	-0.071124	-1.631945	0.892112
H101	H	-0.132944	-1.499393	0.888149
H102	H	-0.222672	-1.689064	1.028848
H103	H	-0.284345	-1.556458	1.024788
H104	H	-0.336476	-1.663091	1.068743
