data_functionalizedCrystal
_audit_creation_method	'MofGen! by Chris Wilmer'
_symmetry_space_group_name_H-M	'P1'
_symmetry_Int_Tables_number	1
_symmetry_cell_setting	triclinic
loop_
_symmetry_equiv_pos_as_xyz
  x,y,z
_cell_length_a	19.077236
_cell_length_b	13.897448
_cell_length_c	19.077314
_cell_angle_alpha	92.320979
_cell_angle_beta	90.071888
_cell_angle_gamma	87.687493
loop_
_atom_site_label
_atom_site_type_symbol
_atom_site_fract_x
_atom_site_fract_y
_atom_site_fract_z
Zn1	Zn	1.058319	0.301643	-0.440564
Zn2	Zn	1.062967	0.469161	-0.323064
Zn3	Zn	0.945533	0.314593	-0.318343
Zn4	Zn	0.940788	0.469618	-0.435804
O5	O	1.001902	0.388754	-0.379444
O6	O	1.157269	0.318254	-0.428945
O7	O	1.051319	0.453886	-0.224105
O8	O	0.960535	0.177891	-0.334572
O9	O	1.160684	0.441329	-0.342618
O10	O	1.043398	0.168377	-0.424368
O11	O	0.965041	0.340326	-0.220637
O12	O	0.846570	0.340769	-0.329956
O13	O	0.952448	0.442107	-0.534767
O14	O	0.843084	0.454664	-0.416254
O15	O	1.038798	0.318697	-0.538265
O16	O	1.046719	0.604206	-0.338002
O17	O	0.956955	0.604542	-0.420832
C18	C	0.819330	0.399172	-0.372077
C19	C	0.741225	0.403651	-0.368942
C20	C	0.702751	0.341771	-0.412484
C21	C	0.629363	0.345976	-0.409532
C22	C	0.594450	0.412065	-0.363042
C23	C	0.632929	0.473947	-0.319495
C24	C	0.706316	0.469738	-0.322444
C25	C	0.375157	0.431512	-0.349393
C26	C	0.301765	0.435719	-0.346449
C27	C	0.298204	0.307746	-0.436486
C28	C	0.371592	0.303546	-0.439433
C29	C	0.410065	0.365425	-0.395884
N30	N	0.519435	0.416366	-0.360025
N31	N	0.485078	0.361118	-0.398897
C32	C	1.001845	0.639372	-0.379429
C33	C	1.001884	0.746583	-0.379449
C34	C	1.001951	0.942871	-0.379502
C35	C	1.001912	0.833642	-0.379475
C36	C	1.185186	0.378296	-0.386839
C37	C	1.263291	0.373839	-0.389991
C38	C	0.994575	0.379008	-0.562725
C39	C	0.991453	0.374856	-0.640829
C40	C	1.001971	1.137155	-0.379482
C41	C	1.001984	1.029938	-0.379519
C42	C	1.034904	0.432026	-0.679331
C43	C	1.031970	0.428112	-0.752718
C44	C	0.985582	0.367032	-0.787601
C45	C	0.942130	0.309855	-0.749094
C46	C	0.945068	0.313765	-0.675709
C47	C	0.971984	0.348995	-1.006886
C48	C	0.969048	0.345092	-1.080277
C49	C	1.058889	0.463348	-1.083895
C50	C	1.061819	0.467257	-1.010508
C51	C	1.018370	0.410076	-0.972008
N52	N	0.982581	0.363032	-0.862614
N53	N	1.021375	0.414071	-0.896996
C54	C	1.009240	0.398389	-0.196876
C55	C	1.012498	0.402263	-0.118778
H56	H	0.598040	0.295589	-0.444990
C57	C	0.918022	0.277898	-1.118653
C58	C	0.860821	0.320160	-1.166870
C59	C	0.809798	0.252972	-1.205249
C60	C	0.815975	0.143522	-1.195411
C61	C	0.873178	0.101254	-1.147192
C62	C	0.924202	0.168442	-1.108813
H63	H	0.856246	0.401187	-1.174155
H64	H	0.767452	0.284262	-1.240944
H65	H	0.778205	0.093785	-1.223821
H66	H	0.877753	0.020227	-1.139908
H67	H	0.966547	0.137152	-1.073118
H68	H	0.604497	0.527754	-0.281639
C69	C	1.112883	0.534394	-0.972140
C70	C	1.116138	0.538663	-0.891420
C71	C	1.167216	0.605781	-0.853052
C72	C	1.215039	0.668631	-0.895404
C73	C	1.211785	0.664365	-0.976129
C74	C	1.160707	0.597247	-1.014497
H75	H	1.080735	0.492135	-0.860064
H76	H	1.169624	0.608939	-0.793294
H77	H	1.252850	0.718317	-0.867002
H78	H	1.247188	0.710893	-1.007484
H79	H	1.158299	0.594089	-1.074254
H80	H	1.094264	0.509900	-1.115250
H81	H	0.936601	0.302439	-0.975547
C82	C	0.748641	0.537808	-0.274549
C83	C	0.801290	0.495926	-0.221459
C84	C	0.843614	0.563995	-0.173561
C85	C	0.833290	0.673945	-0.178752
C86	C	0.780639	0.715832	-0.231844
C87	C	0.738314	0.647764	-0.279743
H88	H	0.808934	0.414529	-0.217615
H89	H	0.882590	0.532987	-0.134258
H90	H	0.864621	0.724334	-0.143294
H91	H	0.772994	0.797229	-0.235689
H92	H	0.699339	0.678772	-0.319045
C93	C	0.891103	0.242665	-0.787464
C94	C	0.887867	0.238365	-0.868184
C95	C	0.836837	0.171175	-0.906552
C96	C	0.789044	0.108285	-0.864199
C97	C	0.792279	0.112583	-0.783473
C98	C	0.843309	0.179773	-0.745106
H99	H	0.923247	0.284921	-0.899541
H100	H	0.834442	0.167993	-0.966310
H101	H	0.751269	0.058547	-0.892600
H102	H	0.756898	0.066026	-0.752117
H103	H	0.845703	0.182954	-0.685347
H104	H	1.072680	0.481761	-0.650935
C105	C	0.897270	0.250879	-0.633353
C106	C	0.929764	0.176097	-0.584140
C107	C	0.881967	0.113207	-0.541785
C108	C	0.801677	0.125098	-0.548643
C109	C	0.769180	0.199884	-0.597858
C110	C	0.816976	0.262774	-0.640213
H111	H	0.989203	0.167292	-0.579062
H112	H	0.906025	0.057846	-0.505352
H113	H	0.766295	0.078543	-0.517289
H114	H	0.709740	0.208690	-0.602936
H115	H	0.792919	0.318135	-0.676645
C116	C	0.409994	0.230841	-0.490570
C117	C	0.367674	0.162769	-0.538463
C118	C	0.406077	0.090066	-0.589602
C119	C	0.486799	0.085435	-0.592847
C120	C	0.529124	0.153510	-0.544952
C121	C	0.490722	0.226213	-0.493813
H122	H	0.307914	0.166195	-0.536063
H123	H	0.374745	0.039673	-0.625058
H124	H	0.515227	0.031616	-0.630703
H125	H	0.588884	0.150084	-0.547352
H126	H	0.522054	0.276606	-0.458357
H127	H	0.273341	0.489542	-0.308591
C128	C	0.255881	0.239673	-0.484379
C129	C	0.203226	0.281542	-0.537468
C130	C	0.160904	0.213462	-0.585360
C131	C	0.171236	0.103514	-0.580163
C132	C	0.223893	0.061639	-0.527071
C133	C	0.266216	0.129719	-0.479179
H134	H	0.195576	0.362937	-0.541318
H135	H	0.121923	0.244461	-0.624662
H136	H	0.139906	0.053117	-0.615615
H137	H	0.231544	-0.019756	-0.523221
H138	H	0.305196	0.098721	-0.439877
H139	H	1.067352	0.474666	-0.784063
C140	C	0.417468	0.499590	-0.301497
C141	C	0.410549	0.496386	-0.221219
C142	C	0.452861	0.564471	-0.173321
C143	C	0.502092	0.635761	-0.205702
C144	C	0.509013	0.638968	-0.285985
C145	C	0.466701	0.570883	-0.333882
H146	H	0.374103	0.443610	-0.197244
H147	H	0.447738	0.562097	-0.113891
H148	H	0.533415	0.686162	-0.170246
H149	H	0.545459	0.691743	-0.309959
H150	H	0.471824	0.573257	-0.393313
H151	H	0.731171	0.287957	-0.450343
