data_functionalizedCrystal
_audit_creation_method	'MofGen! by Chris Wilmer'
_symmetry_space_group_name_H-M	'P1'
_symmetry_Int_Tables_number	1
_symmetry_cell_setting	triclinic
loop_
_symmetry_equiv_pos_as_xyz
  x,y,z
_cell_length_a	23.532407
_cell_length_b	23.532407
_cell_length_c	9.730223
_cell_angle_alpha	90.007403
_cell_angle_beta	89.997627
_cell_angle_gamma	82.848678
loop_
_atom_site_label
_atom_site_type_symbol
_atom_site_fract_x
_atom_site_fract_y
_atom_site_fract_z
O1	O	0.755258	0.069133	0.114132
O2	O	0.589395	0.079137	0.114175
O3	O	0.677328	-0.008797	0.114127
O4	O	0.667325	0.157067	0.114180
O5	O	0.677323	-0.008796	-0.114453
O6	O	0.589390	0.079137	-0.114405
O7	O	0.755253	0.069134	-0.114448
Zn8	Zn	0.672320	0.074135	-0.150719
Zn9	Zn	0.672328	0.074135	0.150445
O10	O	0.667320	0.157067	-0.114400
C11	C	0.568176	0.078882	-0.000110
C12	C	0.504959	0.078116	-0.000095
C13	C	0.105856	0.125350	-0.000143
C14	C	0.046456	0.124638	-0.000151
O15	O	0.009711	0.168424	-0.000187
N16	N	0.023830	0.072362	-0.000166
C17	C	0.060607	0.020794	-0.000185
O18	O	0.035908	-0.023737	-0.000200
C19	C	0.120006	0.021506	-0.000187
C20	C	0.142629	0.073785	-0.000158
C21	C	0.128479	0.177625	-0.000116
C22	C	0.187876	0.178336	-0.000105
C23	C	0.224649	0.126772	-0.000120
C24	C	0.202025	0.074497	-0.000147
C25	C	0.156783	-0.030062	-0.000216
C26	C	0.216185	-0.029345	-0.000218
C27	C	0.238808	0.022934	-0.000190
C28	C	0.298194	0.023643	-0.000151
N29	N	0.320820	0.075920	-0.000137
C30	C	0.284048	0.127484	-0.000121
C31	C	-0.064135	0.019302	-0.000185
C32	C	-0.123533	0.018589	-0.000174
C33	C	-0.137680	0.122434	-0.000143
C34	C	-0.078281	0.123146	-0.000144
C35	C	-0.041509	0.071578	-0.000171
C36	C	0.408784	0.128974	-0.000097
C37	C	0.468186	0.129680	-0.000080
C38	C	0.482329	0.025836	-0.000119
C39	C	0.422932	0.025129	-0.000128
C40	C	0.386160	0.076702	-0.000122
O41	O	0.334974	-0.020119	-0.000121
O42	O	0.308755	0.172007	-0.000125
C43	C	0.677071	-0.030013	-0.000167
C44	C	0.676305	-0.093230	-0.000177
C45	C	0.723539	-0.492333	-0.000114
C46	C	0.722827	-0.551733	-0.000103
O47	O	0.766613	-0.588478	-0.000063
N48	N	0.670551	-0.574359	-0.000091
C49	C	0.618983	-0.537582	-0.000075
O50	O	0.574452	-0.562281	-0.000062
C51	C	0.619695	-0.478182	-0.000076
C52	C	0.671974	-0.455560	-0.000102
C53	C	0.775814	-0.469710	-0.000138
C54	C	0.776525	-0.410313	-0.000152
C55	C	0.724961	-0.373540	-0.000140
C56	C	0.672685	-0.396164	-0.000115
C57	C	0.568127	-0.441406	-0.000050
C58	C	0.568844	-0.382004	-0.000050
C59	C	0.621123	-0.359381	-0.000076
C60	C	0.621832	-0.299995	-0.000117
N61	N	0.674109	-0.277368	-0.000129
C62	C	0.725673	-0.314141	-0.000141
C63	C	0.617491	-0.662324	-0.000071
C64	C	0.616778	-0.721722	-0.000080
C65	C	0.720623	-0.735869	-0.000105
C66	C	0.721335	-0.676470	-0.000106
C67	C	0.669767	-0.639698	-0.000083
C68	C	0.727163	-0.189405	-0.000170
C69	C	0.727869	-0.130003	-0.000188
C70	C	0.624025	-0.115860	-0.000156
C71	C	0.623318	-0.175257	-0.000144
C72	C	0.674891	-0.212029	-0.000146
O73	O	0.578070	-0.263215	-0.000151
O74	O	0.770196	-0.289433	-0.000135
C75	C	0.776472	0.069388	-0.000160
C76	C	0.839689	0.070154	-0.000166
C77	C	0.667577	0.178283	-0.000104
C78	C	0.668343	0.241500	-0.000084
N79	N	0.672320	0.074135	-0.356255
C80	C	0.711273	0.035207	-0.572086
C81	C	0.711269	0.035211	-0.428203
C82	C	0.633377	0.113062	-0.428197
C83	C	0.633385	0.113061	-0.572078
C84	C	0.750221	-0.003723	-0.644027
C85	C	0.789164	-0.042650	-0.572094
C86	C	0.789159	-0.042646	-0.428212
C87	C	0.750211	-0.003716	-0.356261
N88	N	0.672333	0.074130	0.355982
H89	H	-0.059867	0.165717	-0.000129
H90	H	0.820872	-0.074338	-0.369646
H91	H	0.750227	-0.003731	-0.761183
Br92	Br	0.842027	-0.095474	-0.669735
H93	H	0.750214	-0.003713	-0.239102
H94	H	0.601667	0.144757	-0.369606
Br95	Br	0.798825	-0.099305	-0.000226
Br96	Br	0.497171	-0.472092	-0.000009
H97	H	0.601677	0.144756	-0.630645
H98	H	0.486602	0.172255	-0.000056
H99	H	0.378851	0.170970	-0.000096
H100	H	0.098544	0.219617	-0.000108
Br101	Br	0.797156	-0.239299	-0.000171
H102	H	0.206289	0.220908	-0.000081
H103	H	-0.141947	-0.023982	-0.000176
Br104	Br	-0.187598	0.192415	-0.000125
H105	H	-0.034198	-0.022693	-0.000195
Br106	Br	0.126097	-0.101018	-0.000224
H107	H	0.246123	-0.071339	-0.000241
Br108	Br	0.392228	-0.045822	-0.000171
Br109	Br	0.532246	-0.044141	-0.000143
H110	H	0.819097	-0.391900	-0.000167
H111	H	0.817806	-0.499645	-0.000143
H112	H	0.763906	-0.658056	-0.000126
H113	H	0.574207	-0.740136	-0.000082
Br114	Br	0.547499	-0.612424	-0.000051
H115	H	0.526850	-0.352066	-0.000029
Br116	Br	0.552367	-0.205961	-0.000140
H117	H	0.582043	-0.085909	-0.000151
H118	H	0.762610	-0.765821	-0.000110
