data_functionalizedCrystal
_audit_creation_method	'MofGen! by Chris Wilmer'
_symmetry_space_group_name_H-M	'P1'
_symmetry_Int_Tables_number	1
_symmetry_cell_setting	triclinic
loop_
_symmetry_equiv_pos_as_xyz
  x,y,z
_cell_length_a	25.639239
_cell_length_b	12.645331
_cell_length_c	12.645323
_cell_angle_alpha	90.022676
_cell_angle_beta	89.968126
_cell_angle_gamma	89.962335
loop_
_atom_site_label
_atom_site_type_symbol
_atom_site_fract_x
_atom_site_fract_y
_atom_site_fract_z
Zn1	Zn	-0.208161	-1.620577	-0.599395
Zn2	Zn	-0.295600	-1.620393	-0.422113
Zn3	Zn	-0.208179	-1.443291	-0.422139
Zn4	Zn	-0.295566	-1.443208	-0.599328
O5	O	-0.251876	-1.531867	-0.510744
O6	O	-0.219767	-1.768900	-0.575895
O7	O	-0.284025	-1.596858	-0.273769
O8	O	-0.135011	-1.466920	-0.445691
O9	O	-0.284008	-1.768765	-0.445647
O10	O	-0.134998	-1.597171	-0.575920
O11	O	-0.219797	-1.466742	-0.273788
O12	O	-0.219764	-1.294933	-0.445627
O13	O	-0.283949	-1.466778	-0.747685
O14	O	-0.283967	-1.294872	-0.575807
O15	O	-0.219734	-1.597090	-0.747733
O16	O	-0.368760	-1.596778	-0.445582
O17	O	-0.368735	-1.466600	-0.575782
C18	C	-0.251864	-1.256438	-0.510713
C19	C	-0.251871	-1.138607	-0.510725
C20	C	-0.387719	-1.531689	-0.510695
C21	C	-0.445833	-1.531710	-0.510710
C22	C	-0.251836	-1.531945	-0.787249
C23	C	-0.251819	-1.531979	-0.905079
C24	C	-0.806196	-1.599827	-0.443064
C25	C	-0.860801	-1.599869	-0.443079
O26	O	-0.889038	-1.657600	-0.385511
N27	N	-0.888115	-1.532054	-0.510814
C28	C	-0.860823	-1.464201	-0.578547
O29	O	-0.889070	-1.406523	-0.636163
C30	C	-0.806219	-1.464166	-0.578538
C31	C	-0.778908	-1.531978	-0.510790
C32	C	-0.778884	-1.667635	-0.375323
C33	C	-0.724284	-1.667592	-0.375308
C34	C	-0.696995	-1.599742	-0.443034
C35	C	-0.724307	-1.531935	-0.510775
C36	C	-0.778928	-1.396319	-0.646275
C37	C	-0.724321	-1.396290	-0.646260
C38	C	-0.697009	-1.464102	-0.578513
C39	C	-0.642418	-1.464042	-0.578485
N40	N	-0.615103	-1.531857	-0.510750
C41	C	-0.642392	-1.599707	-0.443024
C42	C	-0.975493	-1.464281	-0.578564
C43	C	-1.030096	-1.464309	-0.578569
C44	C	-1.030070	-1.599979	-0.443101
C45	C	-0.975466	-1.599944	-0.443092
C46	C	-0.948179	-1.532096	-0.510828
C47	C	-0.527727	-1.599611	-0.442997
C48	C	-0.473122	-1.599560	-0.442984
C49	C	-0.473152	-1.463894	-0.578455
C50	C	-0.527753	-1.463942	-0.578464
C51	C	-0.555039	-1.531809	-0.510731
O52	O	-0.614146	-1.406343	-0.636027
O53	O	-0.614138	-1.657385	-0.385428
C54	C	-0.115503	-1.532075	-0.510816
C55	C	-0.057389	-1.532164	-0.510846
C56	C	-0.251889	-1.808372	-0.510775
C57	C	-0.251895	-1.926203	-0.510788
C58	C	-0.211295	-0.971047	-0.429281
C59	C	-0.211400	-1.093606	-0.428922
C60	C	-0.306949	-1.094046	-0.480197
C61	C	-0.306727	-0.971448	-0.479641
C62	C	-0.237893	-0.971468	-0.623013
C63	C	-0.236663	-1.094075	-0.622389
C64	C	-0.292026	-1.449747	-1.072613
C65	C	-0.292225	-1.449962	-0.950053
C66	C	-0.266773	-1.643667	-0.949595
C67	C	-0.267025	-1.643216	-1.072194
C68	C	-0.196432	-1.503578	-1.072291
C69	C	-0.196764	-1.501086	-0.949684
C70	C	-0.251879	-1.531850	-0.235314
C71	C	-0.251749	-1.532023	-0.117485
H72	H	-0.450886	-1.654780	-0.387812
H73	H	-0.238962	-1.706594	-1.101879
H74	H	-0.182801	-1.423555	-1.103198
H75	H	-0.185486	-1.418894	-0.920588
Br76	Br	-0.143327	-1.143833	-0.460816
H77	H	-0.165168	-1.556637	-0.919071
Br78	Br	-1.067115	-1.692057	-0.351182
Br79	Br	-0.226535	-0.919597	-0.291489
Br80	Br	-0.276624	-1.311921	-0.899878
H81	H	-1.052328	-1.409080	-0.633725
Br82	Br	-0.815909	-1.759732	-0.283399
Br83	Br	-0.327082	-1.145120	-0.344922
H84	H	-0.306787	-1.668196	-0.918897
Br85	Br	-0.287179	-0.923134	-0.724235
H86	H	-0.220654	-1.122877	-0.345759
Br87	Br	-0.938406	-1.691976	-0.351145
H88	H	-0.450925	-1.408649	-0.633594
Br89	Br	-0.276577	-1.311286	-1.121727
Br90	Br	-0.815980	-1.304294	-0.738236
Br91	Br	-0.143013	-0.921993	-0.460830
H92	H	-0.318601	-0.942793	-0.397599
H93	H	-0.332779	-1.468338	-1.103422
H94	H	-0.953278	-1.409021	-0.633720
Br95	Br	-0.358853	-0.921993	-0.574265
H96	H	-0.166423	-1.563505	-1.101312
H97	H	-0.702106	-1.341041	-0.701423
H98	H	-0.549937	-1.654878	-0.387844
H99	H	-0.198432	-0.940601	-0.650774
H100	H	-0.333234	-1.468736	-0.920729
Br101	Br	-0.687226	-1.759643	-0.283376
H102	H	-0.264076	-1.124713	-0.686368
Br103	Br	-0.334423	-1.683409	-1.119870
Br104	Br	-0.219424	-1.748583	-0.901055
Br105	Br	-0.169113	-1.142651	-0.660774
H106	H	-0.549991	-1.408727	-0.633633
Br107	Br	-0.358716	-1.142605	-0.576046
