data_functionalizedCrystal
_audit_creation_method	'MofGen! by Chris Wilmer'
_symmetry_space_group_name_H-M	'P1'
_symmetry_Int_Tables_number	1
_symmetry_cell_setting	triclinic
loop_
_symmetry_equiv_pos_as_xyz
  x,y,z
_cell_length_a	12.645331
_cell_length_b	12.645330
_cell_length_c	16.625539
_cell_angle_alpha	89.975749
_cell_angle_beta	89.986159
_cell_angle_gamma	90.016927
loop_
_atom_site_label
_atom_site_type_symbol
_atom_site_fract_x
_atom_site_fract_y
_atom_site_fract_z
Zn1	Zn	1.620711	-0.422059	-0.455787
Zn2	Zn	2.120711	0.077941	0.044213
Zn3	Zn	1.620599	-0.599345	-0.320964
Zn4	Zn	2.120599	-0.099345	0.179036
Zn5	Zn	1.443432	-0.422094	-0.320984
Zn6	Zn	1.943432	0.077906	0.179016
Zn7	Zn	1.443408	-0.599279	-0.455770
Zn8	Zn	1.943408	-0.099279	0.044230
O9	O	1.532037	-0.510694	-0.388376
O10	O	2.032037	-0.010694	0.111624
O11	O	1.769044	-0.445590	-0.437902
O12	O	2.269044	0.054410	0.062098
O13	O	1.597060	-0.575875	-0.208134
O14	O	2.097060	-0.075875	0.291866
O15	O	1.467005	-0.273742	-0.338881
O16	O	1.967005	0.226258	0.161119
O17	O	1.768961	-0.575841	-0.338848
O18	O	2.268961	-0.075841	0.161152
O19	O	1.597252	-0.273717	-0.437921
O20	O	2.097252	0.226283	0.062079
O21	O	1.466896	-0.445649	-0.208149
O22	O	1.966896	0.054351	0.291851
O23	O	1.295081	-0.445584	-0.338864
O24	O	1.795081	0.054416	0.161136
O25	O	1.466964	-0.575728	-0.568605
O26	O	1.966964	-0.075728	-0.068605
O27	O	1.295064	-0.575761	-0.437891
O28	O	1.795064	-0.075761	0.062109
O29	O	1.597229	-0.445525	-0.568617
O30	O	2.097229	0.054475	-0.068617
O31	O	1.597037	-0.747684	-0.338831
O32	O	2.097037	-0.247684	0.161169
O33	O	1.466855	-0.747635	-0.437872
O34	O	1.966855	-0.247635	0.062128
C35	C	1.256608	-0.510670	-0.388378
C36	C	1.756608	-0.010670	0.111622
C37	C	1.138778	-0.510686	-0.388398
C38	C	1.638778	-0.010686	0.111602
C39	C	1.531960	-0.786124	-0.388365
C40	C	2.031960	-0.286124	0.111635
C41	C	1.532024	-0.903954	-0.388387
C42	C	2.032024	-0.403954	0.111613
C43	C	0.971238	-0.593029	-0.450371
C44	C	1.471238	-0.093029	0.049629
C45	C	1.093798	-0.592763	-0.450630
C46	C	1.593798	-0.092763	0.049370
C47	C	1.094299	-0.399031	-0.411613
C48	C	1.594299	0.100969	0.088387
C49	C	0.971700	-0.399533	-0.412049
C50	C	1.471700	0.100467	0.087951
C51	C	0.971536	-0.539098	-0.303014
C52	C	1.471536	-0.039098	0.196986
C53	C	1.094142	-0.541539	-0.303475
C54	C	1.594142	-0.041539	0.196525
C55	C	1.450464	-1.071531	-0.450886
C56	C	1.950464	-0.571531	0.049114
C57	C	1.450047	-0.948972	-0.450685
C58	C	1.950047	-0.448972	0.049315
C59	C	1.501782	-0.948546	-0.303415
C60	C	2.001782	-0.448546	0.196585
C61	C	1.501284	-1.071145	-0.303794
C62	C	2.001284	-0.571145	0.196206
C63	C	1.644324	-1.071045	-0.410172
C64	C	2.144324	-0.571045	0.089828
C65	C	1.643636	-0.948438	-0.412030
C66	C	2.143636	-0.448438	0.087970
C67	C	1.808543	-0.510719	-0.388375
C68	C	2.308543	-0.010719	0.111625
C69	C	1.926373	-0.510730	-0.388374
C70	C	2.426373	-0.010730	0.111626
C71	C	1.532106	-0.510615	-0.598685
C72	C	2.032106	-0.010615	-0.098685
C73	C	1.532136	-0.510582	-0.688306
C74	C	2.032136	-0.010582	-0.188306
C75	C	1.532144	-0.234189	-0.388405
C76	C	2.032144	0.265811	0.111595
C77	C	1.532189	-0.116359	-0.388418
C78	C	2.032189	0.383641	0.111582
C79	C	1.532185	-0.510463	-1.016482
C80	C	2.032185	-0.010463	-0.516482
C81	C	1.532168	-0.510499	-0.925174
C82	C	2.032168	-0.010499	-0.425174
C83	C	1.532161	-0.510523	-0.852397
C84	C	2.032161	-0.010523	-0.352397
C85	C	1.532143	-0.510558	-0.761083
C86	C	2.032143	-0.010558	-0.261083
C87	C	1.532030	-0.510696	-0.178885
C88	C	2.032030	-0.010696	0.321115
C89	C	1.532206	-0.510431	-0.089265
C90	C	2.032206	-0.010431	0.410735
H91	H	1.123871	-0.675561	-0.436081
H92	H	1.623871	-0.175561	0.063919
H93	H	1.671911	-1.101890	-0.471080
H94	H	2.171911	-0.601890	0.028920
H95	H	1.420666	-0.917934	-0.284652
H96	H	1.920666	-0.417934	0.215348
H97	H	0.941747	-0.676101	-0.435983
H98	H	1.441747	-0.176101	0.064017
H99	H	0.942021	-0.336017	-0.368964
H100	H	1.442021	0.163983	0.131036
N101	N	1.132750	-0.650340	-0.280280
N102	N	1.632750	-0.150340	0.219720
H103	H	1.107741	-0.703621	-0.321330
H104	H	1.607741	-0.203621	0.178670
H105	H	1.212578	-0.650407	-0.278363
H106	H	1.712578	-0.150407	0.221637
H107	H	1.666442	-0.919289	-0.474565
H108	H	2.166442	-0.419289	0.025435
H109	H	1.123433	-0.336046	-0.367868
H110	H	1.623433	0.163954	0.132132
H111	H	0.940444	-0.574498	-0.513252
H112	H	1.440444	-0.074498	-0.013252
N113	N	1.132683	-0.567896	-0.534407
N114	N	1.632683	-0.067896	-0.034407
H115	H	1.070183	-0.557057	-0.571311
H116	H	1.570183	-0.057057	-0.071311
H117	H	1.176897	-0.501394	-0.533069
H118	H	1.676897	-0.001394	-0.033069
H119	H	1.705211	-1.100033	-0.364673
H120	H	2.205211	-0.600033	0.135327
N121	N	1.134695	-0.467890	-0.239008
N122	N	1.634695	0.032110	0.260992
H123	H	1.112098	-0.393109	-0.251653
H124	H	1.612098	0.106891	0.248347
H125	H	1.104707	-0.489726	-0.185196
H126	H	1.604707	0.010274	0.314804
N127	N	0.933835	-0.367560	-0.494681
N128	N	1.433835	0.132440	0.005319
H129	H	0.996782	-0.353284	-0.530483
H130	H	1.496782	0.146716	-0.030483
H131	H	0.889962	-0.426511	-0.518469
H132	H	1.389962	0.073489	-0.018469
H133	H	1.558226	-1.100802	-0.255663
H134	H	2.058226	-0.600802	0.244337
N135	N	1.134976	-0.366566	-0.493377
N136	N	1.634976	0.133434	0.006623
H137	H	1.214771	-0.363416	-0.492241
H138	H	1.714771	0.136584	0.007759
H139	H	1.111423	-0.419939	-0.534850
H140	H	1.611423	0.080061	-0.034850
H141	H	1.367852	-1.102431	-0.436659
H142	H	1.867852	-0.602431	0.063341
H143	H	1.707731	-0.917788	-0.369844
H144	H	2.207731	-0.417788	0.130156
H145	H	0.940615	-0.619127	-0.281914
H146	H	1.440615	-0.119127	0.218086
H147	H	0.942521	-0.479151	-0.256821
H148	H	1.442521	0.020849	0.243179
N149	N	1.475101	-0.909020	-0.534143
N150	N	1.975101	-0.409020	-0.034143
H151	H	1.486516	-0.971049	-0.571395
H152	H	1.986516	-0.471049	-0.071395
H153	H	1.414206	-0.864810	-0.554478
H154	H	1.914206	-0.364810	-0.054478
H155	H	1.469211	-1.100944	-0.514100
H156	H	1.969211	-0.600944	-0.014100
H157	H	1.419313	-1.099835	-0.285364
H158	H	1.919313	-0.599835	0.214636
N159	N	1.339936	-0.910232	-0.431590
N160	N	1.839936	-0.410232	0.068410
H161	H	1.291481	-0.972797	-0.423266
H162	H	1.791481	-0.472797	0.076734
H163	H	1.341827	-0.866065	-0.381011
H164	H	1.841827	-0.366065	0.118989
H165	H	1.559420	-0.919388	-0.255599
H166	H	2.059420	-0.419388	0.244401
