data_functionalizedCrystal
_audit_creation_method	'MofGen! by Chris Wilmer'
_symmetry_space_group_name_H-M	'P1'
_symmetry_Int_Tables_number	1
_symmetry_cell_setting	triclinic
loop_
_symmetry_equiv_pos_as_xyz
  x,y,z
_cell_length_a	6.394989
_cell_length_b	16.109301
_cell_length_c	14.586319
_cell_angle_alpha	90.005214
_cell_angle_beta	90.002985
_cell_angle_gamma	84.979596
loop_
_atom_site_label
_atom_site_type_symbol
_atom_site_fract_x
_atom_site_fract_y
_atom_site_fract_z
O1	O	-2.771399	-0.136204	-0.076235
O2	O	-2.163266	-0.143066	-0.076239
O3	O	-2.484039	-0.018781	-0.076227
O4	O	-2.450627	-0.260489	-0.076246
O5	O	-2.484017	-0.018778	0.076253
O6	O	-2.163244	-0.143063	0.076242
O7	O	-2.771377	-0.136202	0.076246
Cu8	Cu	-2.467308	-0.139632	0.090167
Cu9	Cu	-2.467335	-0.139635	-0.090160
O10	O	-2.450605	-0.260487	0.076234
C11	C	-2.482674	0.012210	0.000013
C12	C	-2.478617	0.104548	0.000015
C13	C	-2.451969	-0.291477	-0.000008
C14	C	-2.456027	-0.383815	-0.000016
N15	N	-2.467305	-0.139630	0.216998
C16	C	-2.085435	-0.141708	0.000006
C17	C	-1.849203	-0.137562	0.000010
N18	N	-2.467355	-0.139631	-0.216991
C19	C	-2.659522	0.324905	0.000001
C20	C	-2.655693	0.411666	-0.000006
C21	C	-2.275107	0.395821	-0.000005
C22	C	-2.278938	0.309061	-0.000004
C23	C	-2.471152	0.273606	0.000004
C24	C	-2.463492	0.447126	-0.000005
C25	C	-2.459339	0.541196	-0.000013
C26	C	-2.475306	0.179530	0.000010
C27	C	-2.609390	-0.084616	0.452010
C28	C	-2.609396	-0.084614	0.547991
C29	C	-2.325254	-0.194647	0.547990
C30	C	-2.325240	-0.194644	0.452011
C31	C	-2.467320	-0.139630	0.404023
C32	C	-2.467340	-0.139631	0.595984
C33	C	-2.467346	-0.139629	0.700051
C34	C	-2.467312	-0.139630	0.299949
H35	H	-2.816034	0.296041	0.000006
H36	H	-2.725080	-0.039816	0.587059
H37	H	-2.809083	0.453431	-0.000010
H38	H	-2.118613	0.424699	-0.000010
C39	C	-2.168971	-0.255158	0.600786
N40	N	-2.051255	-0.300736	0.640551
H41	H	-2.209539	-0.239443	0.412937
C42	C	-2.071705	0.252629	-0.000006
N43	N	-1.915624	0.210124	-0.000011
C44	C	-2.765665	-0.024092	0.399227
N45	N	-2.883370	0.021499	0.359473
