data_functionalizedCrystal
_audit_creation_method	'MofGen! by Chris Wilmer'
_symmetry_space_group_name_H-M	'P1'
_symmetry_Int_Tables_number	1
_symmetry_cell_setting	triclinic
loop_
_symmetry_equiv_pos_as_xyz
  x,y,z
_cell_length_a	15.711784
_cell_length_b	15.625429
_cell_length_c	14.750779
_cell_angle_alpha	59.907167
_cell_angle_beta	106.501624
_cell_angle_gamma	101.028942
loop_
_atom_site_label
_atom_site_type_symbol
_atom_site_fract_x
_atom_site_fract_y
_atom_site_fract_z
O1	O	1.084669	0.539499	-0.267634
O2	O	0.838887	0.466571	-0.242244
O3	O	0.979704	0.366024	-0.207248
O4	O	0.943852	0.640046	-0.302629
O5	O	1.019511	0.337606	-0.037707
O6	O	0.878694	0.438152	-0.072703
O7	O	1.124476	0.511081	-0.098092
Zn8	Zn	1.007905	0.470104	-0.058479
Zn9	Zn	0.955458	0.507547	-0.281857
O10	O	0.983659	0.611627	-0.133088
C11	C	0.827547	0.440448	-0.153326
C12	C	0.734452	0.404938	-0.140964
C13	C	1.001932	0.315934	-0.109990
C14	C	1.008845	0.209017	-0.072781
C15	C	0.620283	0.271258	-0.094432
C16	C	0.707758	0.304634	-0.106051
C17	C	0.673673	0.471907	-0.164279
C18	C	0.586192	0.438545	-0.152670
C19	C	0.559505	0.338220	-0.117745
C20	C	0.525415	0.505507	-0.175983
C21	C	0.437943	0.472147	-0.164370
C22	C	0.411249	0.371825	-0.129443
C23	C	0.472033	0.304860	-0.106132
C24	C	0.552106	0.605831	-0.210900
C25	C	0.491328	0.672793	-0.234213
C26	C	0.403853	0.639434	-0.222607
C27	C	0.377159	0.539113	-0.187681
C28	C	0.343068	0.706400	-0.245918
C29	C	0.255597	0.673040	-0.234305
C30	C	0.289687	0.505752	-0.176068
C31	C	0.923075	-0.065182	-0.412448
C32	C	0.929575	-0.165654	-0.377452
C33	C	0.972970	-0.196620	-0.192630
C34	C	0.966478	-0.096148	-0.227611
C35	C	0.941529	-0.030437	-0.337521
C36	C	0.984932	-0.061403	-0.152683
C37	C	0.978435	0.039059	-0.187662
C38	C	0.953485	0.104775	-0.297567
C39	C	0.935033	0.070025	-0.372499
C40	C	1.009875	-0.127117	-0.042773
C41	C	1.028329	-0.092372	0.032154
C42	C	1.021838	0.008093	-0.002824
C43	C	0.996888	0.073809	-0.112730
C44	C	1.040291	0.042843	0.072108
C45	C	1.033794	0.143305	0.037130
C46	C	0.990392	0.174271	-0.147708
C47	C	1.135816	0.537204	-0.187012
C48	C	1.228909	0.572714	-0.199381
C49	C	0.961431	0.661718	-0.230348
C50	C	0.954516	0.768636	-0.267564
N51	N	1.043706	0.444552	0.093970
N52	N	0.919665	0.533094	-0.434305
C53	C	0.819683	0.604415	0.390147
C54	C	0.844776	0.586518	0.496876
C55	C	0.969489	0.497541	0.527807
C56	C	0.944405	0.515426	0.421081
C57	C	0.869502	0.568865	0.352259
C58	C	0.994223	0.479876	0.383192
C59	C	0.969144	0.497764	0.276474
C60	C	0.894245	0.551203	0.207644
C61	C	0.844422	0.586753	0.245540
C62	C	1.069130	0.426444	0.452014
C63	C	1.118948	0.390893	0.414126
C64	C	1.093865	0.408775	0.307407
C65	C	1.018967	0.462214	0.238578
C66	C	1.143688	0.373225	0.269511
C67	C	1.118608	0.391114	0.162793
C68	C	0.993887	0.480102	0.131859
H69	H	0.267955	0.424059	-0.147639
H70	H	0.206110	0.727566	-0.253285
H71	H	1.204680	0.329723	0.325557
H72	H	1.159177	0.362166	0.131944
Br73	Br	1.018686	-0.263462	0.004699
H74	H	0.970083	0.227780	-0.237208
H75	H	0.993281	-0.250136	-0.103140
H76	H	0.757242	0.250099	-0.087067
Br77	Br	0.379302	0.842548	-0.293299
Br78	Br	1.058841	0.190466	0.138816
H79	H	0.598550	0.189565	-0.066004
Br80	Br	1.062176	-0.181561	0.181314
H81	H	0.948187	0.186575	-0.326044
Br82	Br	0.527555	0.808945	-0.281608
H83	H	0.450301	0.223167	-0.077704
H84	H	1.060596	-0.010675	0.161598
Br85	Br	0.892220	0.552611	0.038457
H86	H	0.783423	0.630259	0.189504
Br87	Br	0.718017	0.676923	0.296746
H88	H	1.179937	0.347386	0.470172
H89	H	0.914724	0.123533	-0.462000
Br90	Br	0.777157	0.634780	0.548284
H91	H	0.873829	0.565771	0.120746
H92	H	1.030478	0.454034	0.583853
H93	H	0.914538	-0.193938	-0.438475
Br94	Br	0.292539	0.326544	-0.113669
H95	H	0.695416	0.553592	-0.192711
H96	H	0.623333	0.632989	-0.220350
Br97	Br	0.889232	0.024010	-0.561616
Br98	Br	1.103169	0.402178	0.596845
