data_functionalizedCrystal
_audit_creation_method	'MofGen! by Chris Wilmer'
_symmetry_space_group_name_H-M	'P1'
_symmetry_Int_Tables_number	1
_symmetry_cell_setting	triclinic
loop_
_symmetry_equiv_pos_as_xyz
  x,y,z
_cell_length_a	10.686285
_cell_length_b	10.686220
_cell_length_c	10.686551
_cell_angle_alpha	89.691918
_cell_angle_beta	99.084519
_cell_angle_gamma	90.345431
loop_
_atom_site_label
_atom_site_type_symbol
_atom_site_fract_x
_atom_site_fract_y
_atom_site_fract_z
Zn1	Zn	-0.307898	1.994012	0.537149
Zn2	Zn	0.192102	2.494012	1.037149
Zn3	Zn	-0.536485	1.993911	0.308653
Zn4	Zn	-0.036485	2.493911	0.808653
Zn5	Zn	-0.340205	1.770410	0.340818
Zn6	Zn	0.159795	2.270410	0.840818
Zn7	Zn	-0.533926	1.800161	0.534641
Zn8	Zn	-0.033926	2.300161	1.034641
O9	O	-0.429629	1.889623	0.430315
O10	O	0.070371	2.389623	0.930315
O11	O	-0.325771	2.168662	0.494427
O12	O	0.174229	2.668662	0.994427
O13	O	-0.525040	1.951770	0.136178
O14	O	-0.025040	2.451770	0.636178
O15	O	-0.159182	1.787663	0.381372
O16	O	0.340818	2.287663	0.881372
O17	O	-0.493713	2.168588	0.326552
O18	O	0.006287	2.668588	0.826552
O19	O	-0.135446	1.951942	0.525615
O20	O	0.364554	2.451942	1.025615
O21	O	-0.380834	1.787565	0.159810
O22	O	0.119166	2.287565	0.659810
O23	O	-0.378352	1.599693	0.378940
O24	O	0.121648	2.099693	0.878940
O25	O	-0.489351	1.838368	0.711715
O26	O	0.010649	2.338368	1.211715
O27	O	-0.520678	1.621551	0.521341
O28	O	-0.020678	2.121551	1.021341
O29	O	-0.323289	1.980790	0.713557
O30	O	0.176711	2.480790	1.213557
O31	O	-0.712883	1.980618	0.324121
O32	O	-0.212883	2.480618	0.824121
O33	O	-0.711003	1.838270	0.490153
O34	O	-0.211003	2.338270	0.990153
C35	C	-0.452744	1.565334	0.453360
C36	C	0.047256	2.065334	0.953360
C37	C	-0.462661	1.426605	0.463246
C38	C	0.037339	1.926605	0.963246
C39	C	-0.757764	1.912697	0.403399
C40	C	-0.257764	2.412697	0.903399
C41	C	-0.898130	1.922686	0.391919
C42	C	-0.398130	2.422686	0.891919
C43	C	-0.100207	1.866495	0.457361
C44	C	0.399793	2.366495	0.957361
C45	C	0.040173	1.856639	0.468887
C46	C	0.540173	2.356639	0.968887
C47	C	-0.402431	1.912909	0.759745
C48	C	0.097569	2.412909	1.259745
C49	C	-0.390841	1.922832	0.900128
C50	C	0.109159	2.422832	1.400128
C51	C	-0.406424	2.215179	0.407181
C52	C	0.093576	2.715179	0.907181
C53	C	-0.396535	2.353912	0.397323
C54	C	0.103465	2.853912	0.897323
C55	C	-0.456624	1.866493	0.102170
C56	C	0.043376	2.366493	0.602170
C57	C	-0.467841	1.856787	-0.038201
C58	C	0.032159	2.356787	0.461799
H59	H	-0.332337	1.397808	0.333320
H60	H	0.167663	1.897808	0.833320
H61	H	-0.526872	1.382704	0.527245
H62	H	-0.026872	1.882704	1.027245
H63	H	-0.952701	1.986867	0.317226
H64	H	-0.452701	2.486867	0.817226
H65	H	-0.542634	1.792656	0.907200
H66	H	-0.042634	2.292656	1.407200
H67	H	-0.905265	1.792453	0.543568
H68	H	-0.405265	2.292453	1.043568
H69	H	-0.316051	1.986977	0.954732
H70	H	0.183949	2.486977	1.454732
