data_functionalizedCrystal
_audit_creation_method	'MofGen! by Chris Wilmer'
_symmetry_space_group_name_H-M	'P1'
_symmetry_Int_Tables_number	1
_symmetry_cell_setting	triclinic
loop_
_symmetry_equiv_pos_as_xyz
  x,y,z
_cell_length_a	14.908571
_cell_length_b	15.299816
_cell_length_c	14.908308
_cell_angle_alpha	76.545456
_cell_angle_beta	89.824947
_cell_angle_gamma	77.679493
loop_
_atom_site_label
_atom_site_type_symbol
_atom_site_fract_x
_atom_site_fract_y
_atom_site_fract_z
Zn1	Zn	1.423314	-0.480234	0.675272
Zn2	Zn	1.455541	-0.625789	0.551491
Zn3	Zn	1.278757	-0.462558	0.513043
Zn4	Zn	1.296391	-0.624695	0.692943
O5	O	1.363501	-0.548319	0.608187
O6	O	1.554691	-0.507396	0.667548
O7	O	1.438197	-0.597196	0.419299
O8	O	1.277066	-0.336133	0.511077
O9	O	1.578368	-0.614335	0.576606
O10	O	1.383271	-0.349119	0.630266
O11	O	1.308316	-0.477271	0.391051
O12	O	1.153994	-0.476211	0.528211
O13	O	1.307120	-0.612472	0.817691
O14	O	1.166950	-0.595333	0.660383
O15	O	1.400370	-0.506336	0.804708
O16	O	1.455296	-0.754414	0.593741
O17	O	1.338369	-0.753610	0.697665
C18	C	1.127516	-0.533736	0.592043
C19	C	1.026563	-0.527521	0.585163
C20	C	0.850438	-0.640057	0.709741
C21	C	0.755584	-0.634220	0.703279
C22	C	0.741999	-0.510007	0.565783
C23	C	0.836853	-0.515844	0.572244
C24	C	0.891070	-0.580872	0.644225
C25	C	0.985926	-0.586712	0.650682
C26	C	0.972338	-0.462495	0.513190
C27	C	0.877485	-0.456658	0.506728
C28	C	1.402267	-0.787403	0.651814
C29	C	1.418933	-0.889692	0.670514
C30	C	1.244967	-1.151286	0.474886
C31	C	1.229304	-1.055181	0.457319
C32	C	1.276710	-1.013804	0.510616
C33	C	1.339782	-1.068541	0.581484
C34	C	1.355441	-1.164656	0.599058
C35	C	1.387184	-1.027173	0.634787
C36	C	1.450255	-1.081911	0.705655
C37	C	1.465912	-1.178016	0.723226
C38	C	1.418506	-1.219393	0.669929
C39	C	1.371524	-0.931059	0.617213
C40	C	1.481998	-0.944429	0.741385
C41	C	1.497661	-1.040534	0.758952
C42	C	1.600407	-0.562959	0.624395
C43	C	1.701362	-0.569198	0.631302
C44	C	1.352117	-0.561254	0.845075
C45	C	1.347266	-0.566766	0.946022
C46	C	1.324607	-0.308303	0.564412
C47	C	1.308033	-0.206023	0.545757
C48	C	1.374882	-0.535371	0.372213
C49	C	1.379866	-0.529611	0.271231
C50	C	1.435245	-0.466583	1.122191
C51	C	1.430689	-0.471759	1.217040
C52	C	1.333594	-0.582288	1.230568
C53	C	1.338150	-0.577112	1.135719
C54	C	1.388978	-0.519259	1.081534
C55	C	1.393538	-0.514088	0.986685
C56	C	1.296438	-0.624612	1.000214
C57	C	1.291883	-0.629788	1.095062
H58	H	0.894583	-0.693010	0.768346
H59	H	1.476637	-0.419481	1.078074
Br60	Br	0.700443	-0.714542	0.792201
Br61	Br	1.233659	-0.696119	0.945036
Br62	Br	1.493479	-0.400264	1.272214
Br63	Br	1.583256	-1.114830	0.855127
Br64	Br	1.255080	-0.883372	0.487104
Br65	Br	1.546334	-0.888283	0.813725
H66	H	1.434927	-0.466982	0.942569
H67	H	1.292212	-0.629389	1.274701
Br68	Br	1.222901	-0.708296	1.168606
H69	H	0.697839	-0.457059	0.507184
Br70	Br	1.180620	-1.207444	0.402580
Br71	Br	1.059506	-0.674967	0.748365
Br72	Br	0.803896	-0.368405	0.409050
H73	H	1.431259	-1.297649	0.684225
H74	H	1.005430	-0.414304	0.459840
Br75	Br	1.143698	-0.980901	0.361157
H76	H	1.320171	-0.886500	0.559512
H77	H	1.517265	-1.222581	0.780935
