data_functionalizedCrystal
_audit_creation_method	'MofGen! by Chris Wilmer'
_symmetry_space_group_name_H-M	'P1'
_symmetry_Int_Tables_number	1
_symmetry_cell_setting	triclinic
loop_
_symmetry_equiv_pos_as_xyz
  x,y,z
_cell_length_a	12.759401
_cell_length_b	16.120444
_cell_length_c	12.759393
_cell_angle_alpha	92.863363
_cell_angle_beta	89.982549
_cell_angle_gamma	92.925484
loop_
_atom_site_label
_atom_site_type_symbol
_atom_site_fract_x
_atom_site_fract_y
_atom_site_fract_z
Zn1	Zn	1.584951	-0.331877	-0.615155
Zn2	Zn	2.084951	0.168123	-0.115155
Zn3	Zn	1.575902	-0.471316	-0.448370
Zn4	Zn	2.075902	0.028684	0.051630
Zn5	Zn	1.409253	-0.331919	-0.439496
Zn6	Zn	1.909253	0.168081	0.060504
Zn7	Zn	1.400299	-0.471248	-0.624007
Zn8	Zn	1.900299	0.028752	-0.124007
O9	O	1.492601	-0.401590	-0.531757
O10	O	1.992601	0.098410	-0.031757
O11	O	1.730771	-0.350385	-0.593039
O12	O	2.230771	0.149615	-0.093039
O13	O	1.553756	-0.452870	-0.300175
O14	O	2.053756	0.047130	0.199825
O15	O	1.440094	-0.215248	-0.455380
O16	O	1.940094	0.284752	0.044620
O17	O	1.724123	-0.452830	-0.470503
O18	O	2.224123	0.047170	0.029497
O19	O	1.569178	-0.215217	-0.584435
O20	O	2.069178	0.284783	-0.084435
O21	O	1.431320	-0.350455	-0.293655
O22	O	1.931320	0.149545	0.206345
O23	O	1.261045	-0.350390	-0.463963
O24	O	1.761045	0.149610	0.036037
O25	O	1.424833	-0.452715	-0.769851
O26	O	1.924833	0.047285	-0.269851
O27	O	1.254467	-0.452755	-0.599522
O28	O	1.754467	0.047245	-0.099522
O29	O	1.560496	-0.350319	-0.763347
O30	O	2.060496	0.149681	-0.263347
O31	O	1.545074	-0.587972	-0.479087
O32	O	2.045074	-0.087972	0.020913
O33	O	1.416059	-0.587923	-0.608126
O34	O	1.916059	-0.087923	-0.108126
C35	C	1.219635	-0.401570	-0.531741
C36	C	1.719635	0.098430	-0.031741
C37	C	1.102858	-0.401582	-0.531760
C38	C	1.602858	0.098418	-0.031760
C39	C	1.051444	-0.348340	-0.595676
C40	C	1.551444	0.151660	-0.095676
C41	C	0.941719	-0.348356	-0.595683
C42	C	1.441719	0.151644	-0.095683
C43	C	0.934831	-0.454864	-0.467858
C44	C	1.434831	0.045136	0.032142
C45	C	1.044554	-0.454843	-0.467846
C46	C	1.544554	0.045157	0.032154
C47	C	1.055420	-0.286851	-0.669478
C48	C	1.555420	0.213149	-0.169478
C49	C	0.945695	-0.286867	-0.669485
C50	C	1.445695	0.213133	-0.169485
C51	C	1.478642	-0.618198	-0.545553
C52	C	1.978642	-0.118198	-0.045553
C53	C	1.472766	-0.710863	-0.551490
C54	C	1.972766	-0.210863	-0.051490
C55	C	1.523340	-0.921809	-0.501184
C56	C	2.023340	-0.421809	-0.001184
C57	C	1.462057	-0.880519	-0.562341
C58	C	1.962057	-0.380519	-0.062341
C59	C	1.468017	-0.786114	-0.556302
C60	C	1.968017	-0.286114	-0.056302
C61	C	1.517382	-1.016223	-0.507222
C62	C	2.017382	-0.516223	-0.007222
C63	C	1.766633	-0.401610	-0.531773
C64	C	2.266633	0.098390	-0.031773
C65	C	1.883409	-0.401619	-0.531780
C66	C	2.383409	0.098381	-0.031780
C67	C	1.492675	-0.401505	-0.805785
C68	C	1.992675	0.098495	-0.305785
C69	C	1.492707	-0.401469	-0.922559
C70	C	1.992707	0.098531	-0.422559
C71	C	1.506644	-0.184136	-0.517930
C72	C	2.006644	0.315864	-0.017930
C73	C	1.512629	-0.091471	-0.512038
C74	C	2.012629	0.408529	-0.012038
C75	C	1.428983	-0.348132	-0.974032
C76	C	1.928983	0.151868	-0.474032
C77	C	1.429017	-0.348107	-1.083755
C78	C	1.929017	0.151893	-0.583755
C79	C	1.556506	-0.454759	-1.090522
C80	C	2.056506	0.045241	-0.590522
C81	C	1.556466	-0.454787	-0.980802
C82	C	2.056466	0.045213	-0.480802
C83	C	1.355382	-0.286555	-0.970126
C84	C	1.855382	0.213445	-0.470126
C85	C	1.355415	-0.286530	-1.079848
C86	C	1.855415	0.213470	-0.579848
C87	C	1.492592	-0.401614	-0.258791
C88	C	1.992592	0.098386	0.241209
C89	C	1.492780	-0.401416	-0.142002
C90	C	1.992780	0.098584	0.357998
H91	H	0.914833	-0.304241	-0.751930
H92	H	1.414833	0.195759	-0.251930
Br93	Br	0.895507	-0.184600	-0.614620
Br94	Br	1.395507	0.315400	-0.114620
H95	H	1.272883	-0.303844	-0.941451
H96	H	1.772883	0.196156	-0.441451
Br97	Br	1.224124	-0.325069	-1.139031
Br98	Br	1.724124	0.174931	-0.639031
Br99	Br	1.367145	-0.939769	-0.657166
Br100	Br	1.867145	-0.439769	-0.157166
Br101	Br	1.410550	-0.184351	-0.906899
Br102	Br	1.910550	0.315649	-0.406899
Br103	Br	1.618243	-0.862558	-0.406361
Br104	Br	2.118243	-0.362558	0.093639
H105	H	1.608339	-0.498231	-0.938898
H106	H	2.108339	0.001769	-0.438898
H107	H	1.089331	-0.222255	-0.643703
H108	H	1.589331	0.277745	-0.143703
Br109	Br	1.398513	-0.178863	-1.122655
Br110	Br	1.898513	0.321137	-0.622655
Br111	Br	1.114330	-0.527074	-0.381062
Br112	Br	1.614330	-0.027074	0.118938
Br113	Br	0.855698	-0.527140	-0.381118
Br114	Br	1.355698	-0.027140	0.118882
H115	H	1.087995	-0.310047	-0.748195
H116	H	1.587995	0.189953	-0.248195
Br117	Br	1.643028	-0.527118	-1.169572
Br118	Br	2.143028	-0.027118	-0.669572
