data_functionalizedCrystal
_audit_creation_method	'MofGen! by Chris Wilmer'
_symmetry_space_group_name_H-M	'P1'
_symmetry_Int_Tables_number	1
_symmetry_cell_setting	triclinic
loop_
_symmetry_equiv_pos_as_xyz
  x,y,z
_cell_length_a	14.908742
_cell_length_b	14.908178
_cell_length_c	12.759393
_cell_angle_alpha	86.668720
_cell_angle_beta	93.280027
_cell_angle_gamma	90.210560
loop_
_atom_site_label
_atom_site_type_symbol
_atom_site_fract_x
_atom_site_fract_y
_atom_site_fract_z
Zn1	Zn	1.353965	-0.437239	-0.473451
Zn2	Zn	1.345185	-0.587630	-0.288241
Zn3	Zn	1.203597	-0.428610	-0.308489
Zn4	Zn	1.194910	-0.578895	-0.474582
O5	O	1.274414	-0.508094	-0.386191
O6	O	1.478620	-0.464456	-0.439935
O7	O	1.326364	-0.566580	-0.143905
O8	O	1.230854	-0.303921	-0.338372
O9	O	1.472169	-0.574947	-0.303862
O10	O	1.341328	-0.310261	-0.459569
O11	O	1.222340	-0.449749	-0.158782
O12	O	1.076625	-0.441279	-0.339469
O13	O	1.216047	-0.560060	-0.621453
O14	O	1.070242	-0.551693	-0.461496
O15	O	1.332904	-0.455986	-0.620623
O16	O	1.317940	-0.712305	-0.304959
O17	O	1.207534	-0.705887	-0.441863
C18	C	1.040810	-0.494603	-0.402803
C19	C	0.940872	-0.488853	-0.409933
C20	C	0.803363	-0.423323	-0.490919
C21	C	0.897264	-0.428718	-0.484226
C22	C	0.890572	-0.543598	-0.342332
C23	C	0.796671	-0.538203	-0.349026
C24	C	0.753070	-0.478063	-0.423321
C25	C	0.659167	-0.472664	-0.430009
C26	C	0.652477	-0.587548	-0.288121
C27	C	0.746378	-0.592943	-0.281427
C28	C	1.260866	-0.741725	-0.371358
C29	C	1.255152	-0.841678	-0.365041
C30	C	1.359365	-1.035947	-0.479524
C31	C	1.354000	-1.129862	-0.473593
C32	C	1.239052	-1.123424	-0.347253
C33	C	1.244417	-1.029509	-0.353184
C34	C	1.304577	-0.985774	-0.419321
C35	C	1.309946	-0.891857	-0.425246
C36	C	1.194995	-0.885421	-0.298912
C37	C	1.189629	-0.979336	-0.292981
C38	C	1.508930	-0.521638	-0.369514
C39	C	1.608867	-0.527410	-0.362408
C40	C	1.274486	-0.508011	-0.660225
C41	C	1.274517	-0.507976	-0.777002
C42	C	1.288040	-0.273552	-0.401103
C43	C	1.293846	-0.173604	-0.407458
C44	C	1.335369	-0.453776	-0.831433
C45	C	1.335387	-0.453738	-0.941159
C46	C	1.213697	-0.562108	-0.942012
C47	C	1.213676	-0.562141	-0.832289
C48	C	1.274398	-0.508114	-0.113223
C49	C	1.274556	-0.507906	0.003550
H50	H	0.767862	-0.374346	-0.551404
H51	H	0.781891	-0.641909	-0.220941
H52	H	0.611518	-0.632123	-0.233079
H53	H	1.164116	-0.606276	-0.787970
H54	H	1.150385	-0.844560	-0.249887
H55	H	1.408356	-1.000337	-0.533368
C56	C	1.423014	-0.907656	-0.549548
C57	C	1.376065	-0.843780	-0.497951
H58	H	1.463826	-0.877975	-0.594441
H59	H	1.455341	-0.946267	-0.499051
H60	H	1.381712	-0.942037	-0.590158
H61	H	1.417366	-0.809404	-0.457334
H62	H	1.343736	-0.805154	-0.548455
H63	H	0.623668	-0.423691	-0.490500
H64	H	1.384937	-0.409601	-0.985472
H65	H	1.384908	-0.409669	-0.786422
C66	C	1.194200	-0.682309	-1.058594
C67	C	1.146829	-0.621652	-1.002785
H68	H	1.152917	-0.719073	-1.096106
H69	H	1.230436	-0.650024	-1.106713
H70	H	1.231363	-0.718976	-1.010808
H71	H	1.109671	-0.584979	-1.050572
H72	H	1.110577	-0.653939	-0.954662
C73	C	0.894442	-0.314620	-0.625148
C74	C	0.952547	-0.368544	-0.558529
H75	H	0.928574	-0.277468	-0.671018
H76	H	0.855569	-0.351737	-0.665378
H77	H	0.859788	-0.278074	-0.584227
H78	H	0.987197	-0.405095	-0.599450
H79	H	0.991436	-0.331423	-0.518295
H80	H	1.398610	-1.170709	-0.522622
C81	C	0.989187	-0.670600	-0.312322
C82	C	0.938516	-0.609702	-0.260680
H83	H	1.018791	-0.711406	-0.261912
H84	H	0.950576	-0.702938	-0.358437
H85	H	1.032569	-0.638756	-0.351628
H86	H	0.895130	-0.641546	-0.221380
H87	H	0.977130	-0.577360	-0.214546
C88	C	1.179800	-1.264537	-0.282064
C89	C	1.172934	-1.171510	-0.274554
H90	H	1.138987	-1.294221	-0.237175
H91	H	1.165721	-1.279122	-0.352602
H92	H	1.239348	-1.283357	-0.261492
H93	H	1.113387	-1.152688	-0.295133
H94	H	1.187007	-1.156917	-0.204001
H95	H	1.140647	-1.014959	-0.239137
