data_functionalizedCrystal
_audit_creation_method	'MofGen! by Chris Wilmer'
_symmetry_space_group_name_H-M	'P1'
_symmetry_Int_Tables_number	1
_symmetry_cell_setting	triclinic
loop_
_symmetry_equiv_pos_as_xyz
  x,y,z
_cell_length_a	10.489741
_cell_length_b	15.944551
_cell_length_c	9.565339
_cell_angle_alpha	89.999279
_cell_angle_beta	89.999100
_cell_angle_gamma	84.018956
loop_
_atom_site_label
_atom_site_type_symbol
_atom_site_fract_x
_atom_site_fract_y
_atom_site_fract_z
O1	O	1.692410	0.118501	-0.116177
O2	O	1.321060	0.129624	-0.116199
O3	O	1.516876	0.001849	-0.116175
O4	O	1.496594	0.246276	-0.116201
O5	O	1.516860	0.001857	0.116345
O6	O	1.321045	0.129632	0.116321
O7	O	1.692395	0.118509	0.116343
Zn8	Zn	1.506717	0.124072	0.153250
Zn9	Zn	1.506738	0.124061	-0.153106
O10	O	1.496579	0.246284	0.116319
C11	C	1.273532	0.128788	0.000058
C12	C	1.131938	0.126275	0.000050
C13	C	1.064925	0.044975	0.000072
C14	C	0.972273	0.083376	-0.114573
C15	C	0.972292	0.083403	0.114673
C16	C	1.041151	0.164709	-0.114690
C17	C	1.041179	0.164725	0.114659
C18	C	0.948554	0.203186	-0.000014
C19	C	1.516026	-0.029446	0.000085
C20	C	1.513502	-0.122708	0.000086
C21	C	1.386093	-0.338330	0.000059
C22	C	1.445250	-0.398988	0.114709
C23	C	1.508935	-0.293461	0.000075
C24	C	1.445294	-0.398979	-0.114537
C25	C	1.504515	-0.458400	0.000058
C26	C	1.568126	-0.352890	0.114820
C27	C	1.568153	-0.352875	-0.114530
C28	C	1.627399	-0.413515	0.000148
C29	C	1.511478	-0.198443	0.000086
C30	C	1.501982	-0.553417	0.000058
C31	C	1.739922	0.119345	0.000083
C32	C	1.881517	0.121858	0.000082
C33	C	1.497429	0.277579	0.000056
C34	C	1.499953	0.370841	0.000046
N35	N	1.506713	0.124078	0.362329
N36	N	1.506752	0.124048	-0.362185
C37	C	1.416127	0.183150	0.453521
C38	C	1.531388	0.200146	0.546705
C39	C	1.391501	0.107089	0.546701
C40	C	1.622032	0.141112	0.453461
C41	C	1.482069	0.048022	0.453449
C42	C	1.597414	0.064986	0.546591
H43	H	1.071742	0.199100	0.211583
H44	H	0.941784	0.048992	0.211598
C45	C	1.638248	-0.325466	0.245911
C46	C	1.779092	-0.359487	0.271808
C47	C	1.849208	-0.332060	0.402899
C48	C	1.778479	-0.270611	0.508092
C49	C	1.637627	-0.236585	0.482198
C50	C	1.567511	-0.264013	0.351107
H51	H	1.831457	-0.404979	0.193935
H52	H	1.953476	-0.357248	0.422067
H53	H	1.830383	-0.250307	0.605133
H54	H	1.585263	-0.191094	0.560071
H55	H	1.463243	-0.238825	0.331940
C56	C	1.248351	-0.294154	0.000197
C57	C	1.156956	-0.308943	0.121649
C58	C	1.019219	-0.264766	0.121794
C59	C	0.972876	-0.205800	0.000488
C60	C	1.064272	-0.191009	-0.120973
C61	C	1.202009	-0.235186	-0.121118
H62	H	1.191261	-0.352595	0.211456
H63	H	0.951562	-0.275716	0.211709
H64	H	0.870914	-0.173098	0.000596
H65	H	1.029967	-0.147356	-0.210780
H66	H	1.269666	-0.224236	-0.211033
C67	C	1.375054	-0.426578	0.245640
C68	C	1.319062	-0.360147	0.351953
C69	C	1.248856	-0.387732	0.482877
C70	C	1.234641	-0.481749	0.507488
C71	C	1.290635	-0.548186	0.401172
C72	C	1.360841	-0.520601	0.270248
H73	H	1.329583	-0.290545	0.333737
H74	H	1.207406	-0.338551	0.561579
H75	H	1.182671	-0.502170	0.604405
H76	H	1.280114	-0.617789	0.419387
H77	H	1.402290	-0.569783	0.191546
H78	H	1.620072	-0.332436	-0.211456
H79	H	1.294052	0.092733	0.587660
H80	H	1.729454	-0.446060	0.000219
H81	H	1.552259	0.264452	0.587666
C82	C	1.312735	0.250694	0.398297
C83	C	1.351030	0.322317	0.304190
C84	C	1.247647	0.389862	0.248963
C85	C	1.105967	0.385783	0.287843
C86	C	1.067665	0.314157	0.381955
C87	C	1.171049	0.246613	0.437182
H88	H	1.455916	0.325339	0.275404
H89	H	1.276001	0.442884	0.179295
H90	H	1.029436	0.435784	0.246961
H91	H	0.962780	0.311136	0.410741
H92	H	1.142694	0.193591	0.506850
H93	H	1.115541	-0.021859	-0.000064
H94	H	1.393327	-0.419372	-0.211472
H95	H	0.941742	0.048973	-0.211493
H96	H	1.071509	0.199079	-0.211724
H97	H	0.898203	0.270090	-0.000084
H98	H	1.719502	0.155546	0.412677
H99	H	1.674119	0.015015	0.587199
H100	H	1.461162	-0.016264	0.412455
