data_functionalizedCrystal
_audit_creation_method	'MofGen! by Chris Wilmer'
_symmetry_space_group_name_H-M	'P1'
_symmetry_Int_Tables_number	1
_symmetry_cell_setting	triclinic
loop_
_symmetry_equiv_pos_as_xyz
  x,y,z
_cell_length_a	10.967926
_cell_length_b	10.654541
_cell_length_c	9.482900
_cell_angle_alpha	99.425331
_cell_angle_beta	92.549900
_cell_angle_gamma	84.599937
loop_
_atom_site_label
_atom_site_type_symbol
_atom_site_fract_x
_atom_site_fract_y
_atom_site_fract_z
O1	O	1.612051	0.221771	0.282977
O2	O	1.262860	0.224526	0.195490
O3	O	1.445484	0.040734	0.241254
O4	O	1.429427	0.405564	0.237213
O5	O	1.408390	0.078223	0.473751
O6	O	1.225766	0.262016	0.427988
O7	O	1.574957	0.259261	0.515474
Cu8	Cu	1.396975	0.264061	0.492960
Cu9	Cu	1.440842	0.219726	0.218005
O10	O	1.392333	0.443053	0.469710
C11	C	1.199601	0.240238	0.300537
C12	C	1.066372	0.231185	0.267158
C13	C	0.987759	0.246569	0.372717
C14	C	0.850059	0.237213	0.338220
C15	C	1.425759	0.012633	0.357206
C16	C	1.422233	-0.126953	0.356321
C17	C	1.640608	-0.146134	0.411051
C18	C	1.748134	-0.221299	0.438003
C19	C	1.744814	-0.352451	0.437166
C20	C	1.633957	-0.408441	0.409371
C21	C	1.526432	-0.333275	0.382419
C22	C	1.529763	-0.202120	0.383263
C23	C	1.308061	-0.314097	0.327680
C24	C	1.311376	-0.182942	0.328525
C25	C	1.197204	-0.370086	0.299885
C26	C	1.089674	-0.294919	0.272942
C27	C	1.092998	-0.163758	0.273781
C28	C	1.203851	-0.107777	0.301574
C29	C	1.638217	0.243549	0.410425
C30	C	1.771447	0.252600	0.443794
C31	C	1.412059	0.471154	0.353755
C32	C	1.415586	0.610738	0.354631
N33	N	1.366129	0.295245	0.686350
N34	N	1.471697	0.188533	0.024616
C35	C	1.431736	0.228916	0.774990
C36	C	1.406081	0.254871	0.935978
H37	H	0.815427	0.217111	0.222301
O38	O	1.561216	0.097598	0.973163
C39	C	1.636122	-0.124771	0.945622
C40	C	1.534666	-0.021864	1.003839
H41	H	1.614706	-0.221375	0.970428
H42	H	1.640960	-0.129836	0.824956
H43	H	1.727869	-0.099257	0.998473
H44	H	1.442866	-0.047304	0.951096
H45	H	1.529935	-0.016820	1.124511
H46	H	1.631266	-0.515236	0.408675
H47	H	1.031734	0.211083	0.151246
H48	H	0.999425	-0.340518	0.250305
H49	H	1.330910	0.330873	0.979266
H50	H	0.806079	0.272695	0.559714
H51	H	1.005438	-0.102566	0.251828
H52	H	1.643319	-0.039340	0.411754
H53	H	1.838389	-0.175696	0.460645
O54	O	1.849365	-0.425279	0.463433
C55	C	2.066333	-0.430492	0.517723
C56	C	1.948017	-0.347862	0.488034
H57	H	2.146129	-0.367940	0.537591
H58	H	2.054781	-0.476660	0.616040
H59	H	2.085689	-0.508083	0.421406
H60	H	1.928593	-0.270207	0.584266
H61	H	1.959628	-0.301788	0.389665
H62	H	1.290963	0.371241	0.729644
H63	H	1.022399	0.266660	0.488628
O64	O	1.521280	0.138095	0.723354
C65	C	1.596455	-0.084217	0.695290
C66	C	1.494943	0.018494	0.753821
H67	H	1.575211	-0.180933	0.719927
H68	H	1.601147	-0.089071	0.574639
H69	H	1.688216	-0.058655	0.748063
H70	H	1.403129	-0.006994	0.701156
H71	H	1.490360	0.023328	0.874479
H72	H	1.194510	-0.476879	0.299197
H73	H	1.206567	-0.000985	0.302268
