data_functionalizedCrystal
_audit_creation_method	'MofGen! by Chris Wilmer'
_symmetry_space_group_name_H-M	'P1'
_symmetry_Int_Tables_number	1
_symmetry_cell_setting	triclinic
loop_
_symmetry_equiv_pos_as_xyz
  x,y,z
_cell_length_a	16.625546
_cell_length_b	10.686154
_cell_length_c	10.686551
_cell_angle_alpha	89.693980
_cell_angle_beta	85.590142
_cell_angle_gamma	85.598321
loop_
_atom_site_label
_atom_site_type_symbol
_atom_site_fract_x
_atom_site_fract_y
_atom_site_fract_z
Zn1	Zn	-0.196636	-1.972250	-0.562428
Zn2	Zn	-0.342578	-1.955990	-0.352652
Zn3	Zn	-0.217256	-1.746364	-0.368736
Zn4	Zn	-0.340938	-1.762420	-0.578424
O5	O	-0.274352	-1.859256	-0.465560
O6	O	-0.208053	-2.145637	-0.521175
O7	O	-0.335270	-1.914658	-0.179238
O8	O	-0.101683	-1.776414	-0.394466
O9	O	-0.315275	-2.133691	-0.367054
O10	O	-0.086533	-1.942372	-0.536771
O11	O	-0.243196	-1.760647	-0.191055
O12	O	-0.241606	-1.572950	-0.409976
O13	O	-0.312481	-1.803779	-0.751849
O14	O	-0.332475	-1.584746	-0.564033
O15	O	-0.206463	-1.957941	-0.740097
O16	O	-0.455199	-1.930227	-0.382564
O17	O	-0.453994	-1.788012	-0.548438
C18	C	-0.289101	-1.533331	-0.490487
C19	C	-0.295428	-1.393902	-0.501180
C20	C	-0.483851	-1.859133	-0.465516
C21	C	-0.573468	-1.859199	-0.465531
C22	C	-0.901627	-1.859428	-0.465645
C23	C	-0.810323	-1.859360	-0.465617
C24	C	-0.737551	-1.859312	-0.465587
C25	C	-0.646241	-1.859247	-0.465560
C26	C	-0.064032	-1.859416	-0.465628
C27	C	0.025594	-1.859484	-0.465657
C28	C	-0.256989	-1.884465	-0.792763
C29	C	-0.249589	-1.895207	-0.932197
C30	C	-0.259539	-1.186453	-0.440528
C31	C	-0.253208	-1.325883	-0.429840
C32	C	-0.291587	-1.834218	-0.139624
C33	C	-0.298748	-1.823719	-0.000172
H34	H	-0.212222	-1.374317	-0.360581
F35	F	-0.187179	-1.985962	-0.995560
F36	F	-0.349012	-1.330592	-0.591702
F37	F	-0.361162	-1.732981	-0.936813
