data_functionalizedCrystal
_audit_creation_method	'MofGen! by Chris Wilmer'
_symmetry_space_group_name_H-M	'P1'
_symmetry_Int_Tables_number	1
_symmetry_cell_setting	triclinic
loop_
_symmetry_equiv_pos_as_xyz
  x,y,z
_cell_length_a	8.497374
_cell_length_b	19.077105
_cell_length_c	19.077068
_cell_angle_alpha	89.884684
_cell_angle_beta	92.284024
_cell_angle_gamma	92.300019
loop_
_atom_site_label
_atom_site_type_symbol
_atom_site_fract_x
_atom_site_fract_y
_atom_site_fract_z
Zn1	Zn	1.016648	1.062860	0.323110
Zn2	Zn	0.762970	1.058079	0.440586
Zn3	Zn	0.741875	0.945387	0.318369
Zn4	Zn	1.015701	0.940595	0.435851
O5	O	0.884299	1.001730	0.379479
O6	O	0.992222	1.160556	0.342659
O7	O	0.539410	1.043135	0.424372
O8	O	0.769893	0.964977	0.220667
O9	O	0.805846	1.157044	0.428968
O10	O	0.971767	1.051283	0.224150
O11	O	0.523911	0.960341	0.334579
O12	O	0.768974	0.846421	0.329988
O13	O	1.236588	0.956809	0.420898
O14	O	0.970152	0.842901	0.416301
O15	O	1.237285	1.046636	0.338067
O16	O	0.804927	1.038488	0.538289
O17	O	0.990607	0.952173	0.534810
C18	C	0.867172	0.819165	0.372117
C19	C	0.859884	0.741062	0.368984
C20	C	0.899989	0.994311	0.562047
C21	C	0.906761	0.991201	0.640152
C22	C	0.961050	0.702552	0.412519
C23	C	0.954209	0.629166	0.409566
C24	C	0.846193	0.594292	0.363082
C25	C	0.745023	0.632808	0.319542
C26	C	0.751873	0.706192	0.322492
C27	C	0.814499	0.375011	0.349430
C28	C	0.807654	0.301621	0.346485
C29	C	1.016843	0.297985	0.436509
C30	C	1.023677	0.371371	0.439457
C31	C	0.922512	0.409880	0.395915
N32	N	0.839195	0.519280	0.360064
N33	N	0.929519	0.484891	0.398930
C34	C	1.295778	1.001725	0.379480
C35	C	1.474423	1.001726	0.379487
C36	C	0.901493	1.185009	0.386870
C37	C	0.908820	1.263111	0.390020
C38	C	0.868583	1.009198	0.196199
C39	C	0.861886	1.012380	0.118097
C40	C	0.813355	1.034715	0.678636
C41	C	0.819734	1.031794	0.752025
C42	C	0.919510	0.985356	0.786928
C43	C	1.012926	0.941841	0.748439
C44	C	1.006555	0.944765	0.675052
C45	C	0.948930	0.971789	1.006221
C46	C	0.955291	0.968866	1.079613
C47	C	0.762100	1.058821	1.083193
C48	C	0.755730	1.061739	1.009804
C49	C	0.849152	1.018226	0.971322
N50	N	0.926029	0.982368	0.861943
N51	N	0.842641	1.021218	0.896309
H52	H	1.049004	0.730941	0.450374
C53	C	0.704480	0.416689	0.302125
C54	C	0.608395	0.370438	0.260800
C55	C	0.507011	0.408809	0.217217
H56	H	0.764811	0.446564	0.272638
H57	H	0.640529	0.444212	0.330085
H58	H	0.672339	0.342928	0.232843
H59	H	0.548031	0.340563	0.290268
H60	H	0.443060	0.436332	0.245177
H61	H	0.567354	0.438682	0.187735
H62	H	0.441795	0.377434	0.189177
H63	H	1.036588	0.597814	0.445018
C64	C	1.121528	0.891511	0.786300
C65	C	1.277525	0.907478	0.769037
C66	C	1.377612	0.861133	0.803907
H67	H	1.093098	0.844758	0.772444
H68	H	1.112050	0.896006	0.835525
H69	H	1.286996	0.902977	0.719823
H70	H	1.306003	0.954222	0.782894
H71	H	1.368134	0.865628	0.853132
H72	H	1.349169	0.814383	0.790049
H73	H	1.483468	0.871964	0.792204
H74	H	0.669500	0.737547	0.287037
C75	C	0.704813	1.085019	0.640702
C76	C	0.596215	1.046947	0.597036
C77	C	0.496189	1.093265	0.562089
H78	H	0.765409	1.116770	0.613211
H79	H	0.650004	1.110505	0.674111
H80	H	0.651019	1.021473	0.563630
H81	H	0.535582	1.015198	0.624509
H82	H	0.441381	1.118751	0.595499
H83	H	0.556799	1.125014	0.534602
H84	H	0.422485	1.067440	0.532463
H85	H	0.686043	1.094248	1.114533
H86	H	1.099208	0.266623	0.471957
C87	C	1.107901	0.897602	0.633143
C88	C	1.081001	0.910116	0.561404
C89	C	1.174357	0.866690	0.522778
H90	H	1.081440	0.849891	0.643226
H91	H	1.215950	0.907377	0.645516
H92	H	0.972977	0.900336	0.549037
H93	H	1.107471	0.957818	0.551301
H94	H	1.282406	0.876465	0.535151
H95	H	1.147889	0.818982	0.532866
H96	H	1.156129	0.875179	0.474100
C97	C	0.647374	1.112237	0.972041
C98	C	0.566971	1.149736	1.021453
C99	C	0.467156	1.196268	0.986691
H100	H	0.573452	1.086606	0.942364
H101	H	0.708141	1.144008	0.944627
H102	H	0.506209	1.117970	1.048855
H103	H	0.640853	1.175382	1.051131
H104	H	0.527923	1.228039	0.959277
H105	H	0.393244	1.170631	0.957016
H106	H	0.412602	1.221721	1.020212
H107	H	1.111631	0.399760	0.477312
H108	H	1.024995	0.936358	0.974894
H109	H	0.743672	1.067227	0.783355
H110	H	1.036570	0.931059	1.108030
H111	H	0.719703	0.273229	0.308624
C112	C	0.627565	0.594903	0.269186
C113	C	0.525756	0.551166	0.307207
C114	C	0.417518	0.516246	0.260843
H115	H	0.682542	0.567464	0.237447
H116	H	0.568202	0.628326	0.243689
H117	H	0.585111	0.517747	0.332692
H118	H	0.470742	0.578587	0.338943
H119	H	0.358156	0.549669	0.235346
H120	H	0.472509	0.488811	0.229107
H121	H	0.348419	0.486571	0.286634
