data_functionalizedCrystal
_audit_creation_method	'MofGen! by Chris Wilmer'
_symmetry_space_group_name_H-M	'P1'
_symmetry_Int_Tables_number	1
_symmetry_cell_setting	triclinic
loop_
_symmetry_equiv_pos_as_xyz
  x,y,z
_cell_length_a	8.559649
_cell_length_b	12.811415
_cell_length_c	7.681481
_cell_angle_alpha	78.833607
_cell_angle_beta	94.913240
_cell_angle_gamma	76.944044
loop_
_atom_site_label
_atom_site_type_symbol
_atom_site_fract_x
_atom_site_fract_y
_atom_site_fract_z
O1	O	2.105266	-0.024742	-0.142450
O2	O	1.639523	0.030102	-0.151216
O3	O	1.886640	-0.152948	-0.121974
O4	O	1.858148	0.158308	-0.171692
O5	O	1.917057	-0.175524	0.174491
O6	O	1.669939	0.007526	0.145248
O7	O	2.135683	-0.047318	0.154015
Zn8	Zn	1.907640	-0.023480	0.196701
Zn9	Zn	1.867565	0.006264	-0.193903
O10	O	1.888565	0.135732	0.124772
C11	C	1.595160	0.022970	-0.003649
C12	C	1.417658	0.035342	-0.005628
C13	C	1.901185	-0.203714	0.032561
C14	C	1.899187	-0.321346	0.051339
C15	C	1.862241	-0.517760	-0.236617
C16	C	1.860364	-0.628284	-0.218981
C17	C	1.893543	-0.652920	0.104244
C18	C	1.895420	-0.542396	0.086608
C19	C	1.879771	-0.474819	-0.083828
C20	C	1.881661	-0.364294	-0.101461
C21	C	1.914828	-0.388930	0.221762
C22	C	1.912950	-0.499455	0.239398
C23	C	2.180045	-0.040186	0.006443
C24	C	2.357545	-0.052557	0.008410
C25	C	1.874020	0.186499	-0.029766
C26	C	1.876016	0.304131	-0.048556
N27	N	1.935002	-0.043782	0.463279
N28	N	1.840216	0.026556	-0.460479
H29	H	1.441874	-0.137275	0.021934
O30	O	1.866157	-0.298650	-0.267067
C31	C	1.699815	-0.220543	-0.552463
C32	C	1.717162	-0.294885	-0.364951
H33	H	1.579376	-0.217494	-0.631668
H34	H	1.704051	-0.134129	-0.538961
H35	H	1.803252	-0.255037	-0.625623
H36	H	1.613753	-0.260490	-0.291687
H37	H	1.712998	-0.381289	-0.378578
O38	O	1.316871	0.136383	-0.022007
C39	C	1.089480	0.275184	-0.195967
C40	C	1.203481	0.160734	-0.177611
H41	H	0.997799	0.294917	-0.321785
H42	H	1.023006	0.276060	-0.073635
H43	H	1.163328	0.339344	-0.206126
H44	H	1.129755	0.096510	-0.167503
H45	H	1.269961	0.159951	-0.299947
O46	O	1.846765	-0.452105	-0.402209
C47	C	1.680489	-0.373957	-0.687634
C48	C	1.697786	-0.448317	-0.500147
H49	H	1.560062	-0.370889	-0.766884
H50	H	1.684731	-0.287550	-0.674091
H51	H	1.783944	-0.408447	-0.760774
H52	H	1.594358	-0.413926	-0.426904
H53	H	1.693616	-0.534714	-0.513816
O54	O	1.724940	0.112334	0.436200
C55	C	1.623877	0.308956	0.348141
C56	C	1.754549	0.211913	0.465226
H57	H	1.647751	0.389488	0.371595
H58	H	1.627428	0.306402	0.200974
H59	H	1.499633	0.302809	0.385268
H60	H	1.878857	0.217997	0.428256
H61	H	1.750856	0.214500	0.612363
H62	H	2.031777	-0.115575	0.549954
H63	H	1.846083	-0.663240	-0.343399
H64	H	1.906270	-0.707957	0.243004
O65	O	1.932155	-0.347314	0.370251
C66	C	2.099643	-0.357915	0.644865
C67	C	2.080228	-0.405132	0.476771
H68	H	2.219338	-0.404655	0.731050
H69	H	2.098422	-0.267327	0.603088
H70	H	1.995467	-0.366854	0.724961
H71	H	2.184375	-0.396272	0.396598
H72	H	2.081380	-0.495701	0.518669
H73	H	1.925685	-0.554489	0.378162
