data_functionalizedCrystal
_audit_creation_method	'MofGen! by Chris Wilmer'
_symmetry_space_group_name_H-M	'P1'
_symmetry_Int_Tables_number	1
_symmetry_cell_setting	triclinic
loop_
_symmetry_equiv_pos_as_xyz
  x,y,z
_cell_length_a	12.759401
_cell_length_b	18.101395
_cell_length_c	12.759393
_cell_angle_alpha	90.032370
_cell_angle_beta	90.020938
_cell_angle_gamma	90.032629
loop_
_atom_site_label
_atom_site_type_symbol
_atom_site_fract_x
_atom_site_fract_y
_atom_site_fract_z
Zn1	Zn	1.606147	-0.294764	0.594006
Zn2	Zn	1.605987	-0.418623	0.418321
Zn3	Zn	1.430445	-0.294803	0.418342
Zn4	Zn	1.430387	-0.418571	0.593958
O5	O	1.518242	-0.356690	0.506157
O6	O	1.753147	-0.311199	0.570713
O7	O	1.582659	-0.402236	0.271302
O8	O	1.453844	-0.191165	0.441673
O9	O	1.753030	-0.402198	0.441637
O10	O	1.582931	-0.191136	0.570733
O11	O	1.453689	-0.311266	0.271318
O12	O	1.283417	-0.311216	0.441626
O13	O	1.453744	-0.402110	0.740986
O14	O	1.283374	-0.402148	0.570651
O15	O	1.582874	-0.311149	0.741021
O16	O	1.582603	-0.522249	0.441590
O17	O	1.453590	-0.522211	0.570630
C18	C	1.245274	-0.356681	0.506136
C19	C	1.128498	-0.356695	0.506152
C20	C	1.073641	-0.404115	0.573229
C21	C	0.963917	-0.404118	0.573250
C22	C	0.963916	-0.309278	0.439107
C23	C	1.073638	-0.309272	0.439092
C24	C	0.814010	-0.430691	0.697109
C25	C	0.759149	-0.478123	0.764177
C26	C	0.794718	-0.550396	0.780122
C27	C	0.885145	-0.575251	0.728983
C28	C	0.940000	-0.527823	0.661907
C29	C	0.904433	-0.455540	0.645982
C30	C	1.223547	-0.282707	0.315232
C31	C	1.278404	-0.235282	0.248150
C32	C	1.242837	-0.163008	0.232194
C33	C	1.152407	-0.138156	0.283315
C34	C	1.097550	-0.185581	0.350397
C35	C	1.133124	-0.257854	0.366354
C36	C	1.518101	-0.549101	0.506126
C37	C	1.518137	-0.631415	0.506148
C38	C	1.518368	-0.930506	0.506204
C39	C	1.437384	-0.899187	0.587594
C40	C	1.436999	-0.813570	0.587340
C41	C	1.518253	-0.782123	0.506177
C42	C	1.488271	-0.813282	0.395451
C43	C	1.487748	-0.898927	0.395938
C44	C	1.629511	-0.898846	0.534565
C45	C	1.628857	-0.813194	0.536994
C46	C	1.518190	-0.698264	0.506155
C47	C	1.518428	-1.014365	0.506219
C48	C	1.792275	-0.356700	0.506178
C49	C	1.909051	-0.356704	0.506187
C50	C	1.518320	-0.356619	0.780190
C51	C	1.518354	-0.356589	0.896967
C52	C	1.518411	-0.163528	0.506211
C53	C	1.518484	-0.081214	0.506234
C54	C	1.518224	-0.356708	0.233189
C55	C	1.518394	-0.356529	0.116413
C56	C	1.585597	-0.309218	0.951849
C57	C	1.585614	-0.309186	1.061573
C58	C	1.451143	-0.403902	1.061523
C59	C	1.451121	-0.403930	0.951801
C60	C	1.623262	-0.221811	1.211555
C61	C	1.690521	-0.174447	1.266441
C62	C	1.793039	-0.163090	1.230850
C63	C	1.828318	-0.199110	1.140375
C64	C	1.761064	-0.246479	1.085495
C65	C	1.658532	-0.257821	1.121084
C66	C	1.413484	-0.491306	0.801817
C67	C	1.346235	-0.538680	0.746935
C68	C	1.243716	-0.550044	0.782523
C69	C	1.208441	-0.514038	0.873002
C70	C	1.275690	-0.466664	0.927884
C71	C	1.378208	-0.455299	0.892288
H72	H	0.914091	-0.634106	0.741962
H73	H	1.640339	-0.270668	0.907206
H74	H	1.013623	-0.548060	0.620270
H75	H	0.919236	-0.270670	0.384508
H76	H	1.544174	-0.919647	0.333229
H77	H	1.352037	-0.255524	0.206524
H78	H	1.118304	-0.442728	0.627836
H79	H	1.689846	-0.919098	0.475286
C80	C	1.095672	-0.526534	0.912160
H81	H	1.084299	-0.498309	0.973910
H82	H	1.047480	-0.511563	0.859542
H83	H	1.085673	-0.577445	0.927205
C84	C	1.799856	-0.286094	0.985978
H85	H	1.870547	-0.272546	0.972637
H86	H	1.795563	-0.338025	0.995773
H87	H	1.757398	-0.272132	0.928116
H88	H	1.545399	-0.792915	0.333156
H89	H	1.023921	-0.165337	0.392029
C90	C	1.236887	-0.427054	1.027406
H91	H	1.166196	-0.440601	1.040741
H92	H	1.279349	-0.440999	1.085267
H93	H	1.241163	-0.375118	1.017597
H94	H	1.911802	-0.189865	1.111410
C95	C	1.462304	-0.785102	0.698258
H96	H	1.472910	-0.825880	0.743880
H97	H	1.524049	-0.755797	0.696120
H98	H	1.405535	-0.756078	0.723216
C99	C	1.379675	-0.784409	0.362408
H100	H	1.362229	-0.803571	0.295296
H101	H	1.328718	-0.799862	0.412043
H102	H	1.381091	-0.731978	0.359486
H103	H	1.656845	-0.920388	0.613930
H104	H	1.188966	-0.588627	0.737833
H105	H	0.750043	-0.589015	0.834732
C106	C	1.462372	-0.927028	0.698844
H107	H	1.522423	-0.957995	0.696658
H108	H	1.475750	-0.886073	0.743478
H109	H	1.404330	-0.954237	0.725017
C110	C	1.262677	-0.362208	0.332787
H111	H	1.324382	-0.370220	0.292723
H112	H	1.277770	-0.369289	0.404994
H113	H	1.210021	-0.396163	0.311452
C114	C	1.303167	-0.110843	0.158392
H115	H	1.269025	-0.064242	0.156210
H116	H	1.372720	-0.104613	0.183477
H117	H	1.304953	-0.131490	0.089949
H118	H	1.847802	-0.124525	1.275546
H119	H	0.685524	-0.457879	0.805816
H120	H	1.355504	-0.920777	0.569045
H121	H	1.661788	-0.145120	1.340106
H122	H	1.374969	-0.568005	0.673269
H123	H	1.354618	-0.793149	0.568554
H124	H	1.496962	-0.482052	0.772826
H125	H	1.651467	-0.792826	0.618482
C126	C	1.377994	-0.926012	0.363494
H127	H	1.334144	-0.884672	0.350145
H128	H	1.383368	-0.955268	0.301902
H129	H	1.348748	-0.954794	0.418436
C130	C	1.714680	-0.784287	0.462738
H131	H	1.684044	-0.752753	0.411738
H132	H	1.765350	-0.757482	0.501912
H133	H	1.747581	-0.824801	0.428725
C134	C	1.510488	-0.234297	1.250699
H135	H	1.475479	-0.267659	1.205051
H136	H	1.512284	-0.254410	1.319425
H137	H	1.474119	-0.188523	1.251756
H138	H	0.785049	-0.371839	0.684144
C139	C	1.113281	-0.058654	0.265771
H140	H	1.158909	-0.033967	0.218508
H141	H	1.044536	-0.059905	0.237219
H142	H	1.112282	-0.033038	0.330767
H143	H	1.396407	-0.442447	1.106183
