data_functionalizedCrystal
_audit_creation_method	'MofGen! by Chris Wilmer'
_symmetry_space_group_name_H-M	'P1'
_symmetry_Int_Tables_number	1
_symmetry_cell_setting	triclinic
loop_
_symmetry_equiv_pos_as_xyz
  x,y,z
_cell_length_a	14.908520
_cell_length_b	14.908750
_cell_length_c	14.908854
_cell_angle_alpha	83.622138
_cell_angle_beta	89.778335
_cell_angle_gamma	90.164565
loop_
_atom_site_label
_atom_site_type_symbol
_atom_site_fract_x
_atom_site_fract_y
_atom_site_fract_z
Zn1	Zn	-0.409476	-1.329150	-0.456879
Zn2	Zn	-0.568462	-1.328042	-0.315252
Zn3	Zn	-0.409511	-1.186518	-0.314281
Zn4	Zn	-0.550061	-1.169147	-0.474188
O5	O	-0.484377	-1.253214	-0.390150
O6	O	-0.438252	-1.455193	-0.431254
O7	O	-0.555092	-1.316074	-0.188931
O8	O	-0.284149	-1.213173	-0.325547
O9	O	-0.555058	-1.454379	-0.327201
O10	O	-0.284124	-1.317964	-0.430313
O11	O	-0.438311	-1.212098	-0.188217
O12	O	-0.420469	-1.058024	-0.342331
O13	O	-0.523697	-1.183566	-0.598085
O14	O	-0.523730	-1.045262	-0.459814
O15	O	-0.420410	-1.301120	-0.585368
O16	O	-0.691378	-1.299230	-0.343986
O17	O	-0.677859	-1.182491	-0.460755
C18	C	-0.470107	-1.018923	-0.402846
C19	C	-0.464023	-0.918690	-0.408300
C20	C	-0.394729	-0.777825	-0.470251
C21	C	-0.400438	-0.872003	-0.465131
C22	C	-0.521905	-0.871191	-0.356589
C23	C	-0.516196	-0.777013	-0.361709
C24	C	-0.452605	-0.730333	-0.418542
C25	C	-0.446892	-0.636154	-0.423657
C26	C	-0.568363	-0.635342	-0.315120
C27	C	-0.574072	-0.729521	-0.309999
C28	C	-0.717122	-1.238878	-0.404373
C29	C	-0.816694	-1.232826	-0.410483
C30	C	-1.017819	-1.343128	-0.300458
C31	C	-1.111377	-1.337445	-0.306196
C32	C	-1.097369	-1.215782	-0.427700
C33	C	-1.003811	-1.221465	-0.421962
C34	C	-0.964040	-1.285139	-0.358338
C35	C	-0.870481	-1.290818	-0.352597
C36	C	-0.856475	-1.169159	-0.474104
C37	C	-0.950032	-1.163476	-0.479842
C38	C	-0.250724	-1.267630	-0.375891
C39	C	-0.151155	-1.273773	-0.369814
C40	C	-0.469997	-1.240529	-0.625362
C41	C	-0.463869	-1.235123	-0.725595
C42	C	-0.498695	-0.488421	-0.377398
C43	C	-0.504774	-0.588655	-0.371945
C44	C	-0.573956	-1.333257	-0.914687
C45	C	-0.568201	-1.328180	-1.008865
C46	C	-0.446601	-1.219899	-1.008130
C47	C	-0.452356	-1.224976	-0.913952
C48	C	-0.516036	-1.281655	-0.867234
C49	C	-0.521795	-1.286726	-0.773055
C50	C	-0.400191	-1.178451	-0.772321
C51	C	-0.394436	-1.173374	-0.866499
C52	C	-0.498640	-1.265906	-0.155847
C53	C	-0.504527	-1.271502	-0.055590
H54	H	-0.838100	-1.342662	-0.300789
H55	H	-0.395109	-0.598149	-0.469928
C56	C	-0.337450	-1.122364	-0.720698
C57	C	-0.387963	-1.064368	-0.672846
C58	C	-0.330203	-1.012694	-0.625273
H59	H	-0.298684	-1.087804	-0.761914
H60	H	-0.302777	-1.161219	-0.679655
H61	H	-0.422621	-1.025518	-0.713885
H62	H	-0.426726	-1.098905	-0.631614
H63	H	-0.295530	-1.051549	-0.584230
H64	H	-0.291441	-0.978140	-0.666496
H65	H	-0.364468	-0.973344	-0.592793
H66	H	-1.129767	-1.163947	-0.479505
C67	C	-0.325659	-0.727298	-0.532037
C68	C	-0.276205	-0.789046	-0.576242
C69	C	-0.212578	-0.742534	-0.633176
H70	H	-0.286369	-0.694804	-0.497310
H71	H	-0.355341	-0.686361	-0.575415
H72	H	-0.246525	-0.829967	-0.532870
H73	H	-0.315470	-0.821543	-0.610986
H74	H	-0.242260	-0.701597	-0.676554
H75	H	-0.173295	-0.710042	-0.598442
H76	H	-0.179022	-0.784423	-0.663182
H77	H	-0.394750	-1.173759	-1.046183
C78	C	-0.590994	-0.921990	-0.295039
C79	C	-0.648631	-0.969800	-0.346586
C80	C	-0.712279	-1.016618	-0.289917
H81	H	-0.624744	-0.880323	-0.264949
H82	H	-0.561316	-0.963001	-0.251727
H83	H	-0.678306	-0.928793	-0.389882
H84	H	-0.614906	-1.011483	-0.376675
H85	H	-0.682602	-1.057629	-0.246605
H86	H	-0.746022	-0.974944	-0.259830
H87	H	-0.751388	-1.049069	-0.324883
C88	C	-0.631053	-1.384360	-1.060257
C89	C	-0.618390	-1.476017	-1.031302
C90	C	-0.676283	-1.527800	-1.078615
H91	H	-0.618573	-1.373341	-1.123049
H92	H	-0.691401	-1.368339	-1.049187
H93	H	-0.558055	-1.492032	-1.042380
H94	H	-0.630877	-1.487063	-0.968517
H95	H	-0.736631	-1.511779	-1.067544
H96	H	-0.663798	-1.516774	-1.141404
H97	H	-0.667705	-1.589994	-1.058970
C98	C	-0.643158	-0.780312	-0.248440
C99	C	-0.700805	-0.828127	-0.299975
C100	C	-0.764450	-0.874934	-0.243293
H101	H	-0.676903	-0.738638	-0.218353
H102	H	-0.613479	-0.821319	-0.205127
H103	H	-0.730482	-0.787124	-0.343272
H104	H	-0.667087	-0.869816	-0.330061
H105	H	-0.734771	-0.915941	-0.199980
H106	H	-0.798187	-0.833254	-0.213209
H107	H	-0.803565	-0.907388	-0.278250
H108	H	-0.353309	-0.910668	-0.507239
H109	H	-1.155161	-1.384667	-0.259066
C110	C	-0.631309	-0.583719	-0.259134
C111	C	-0.682428	-0.523395	-0.316550
C112	C	-0.740428	-0.475834	-0.265008
H113	H	-0.597254	-0.551119	-0.219788
H114	H	-0.670045	-0.624980	-0.224577
H115	H	-0.643696	-0.482139	-0.351091
H116	H	-0.716501	-0.555971	-0.355895
H117	H	-0.779164	-0.517096	-0.230451
H118	H	-0.706366	-0.443241	-0.225664
H119	H	-0.775125	-0.434906	-0.303957
C120	C	-0.974802	-1.412339	-0.231348
C121	C	-1.041925	-1.461918	-0.181895
C122	C	-1.002333	-1.525690	-0.118228
H123	H	-0.938665	-1.382311	-0.191578
H124	H	-0.938558	-1.452010	-0.261482
H125	H	-1.078154	-1.422253	-0.151762
H126	H	-1.078067	-1.491966	-0.221640
H127	H	-0.966089	-1.565361	-0.148362
H128	H	-0.966198	-1.495654	-0.078465
H129	H	-1.047870	-1.559342	-0.084672
C130	C	-0.993386	-1.094375	-0.548823
C131	C	-1.086831	-1.101793	-0.541448
C132	C	-1.126796	-1.038140	-0.604969
H133	H	-0.975217	-1.105113	-0.607818
H134	H	-0.975288	-1.035419	-0.537908
H135	H	-1.104922	-1.160735	-0.552369
H136	H	-1.105026	-1.091046	-0.482467
H137	H	-1.108698	-0.979184	-0.594054
H138	H	-1.108620	-1.048883	-0.663959
H139	H	-1.190202	-1.043159	-0.599968
H140	H	-0.812676	-1.121938	-0.521231
H141	H	-0.342587	-1.127230	-0.904549
H142	H	-0.573643	-1.332882	-0.735018
C143	C	-0.643232	-1.394714	-0.864083
C144	C	-0.729266	-1.368384	-0.893479
C145	C	-0.793107	-1.424983	-0.846892
H146	H	-0.638489	-1.390395	-0.801189
H147	H	-0.632929	-1.455293	-0.875450
H148	H	-0.739566	-1.307820	-0.882104
H149	H	-0.734038	-1.372708	-0.956366
H150	H	-0.782804	-1.485562	-0.858259
H151	H	-0.788355	-1.420659	-0.784000
H152	H	-0.851488	-1.407131	-0.866836
