data_functionalizedCrystal
_audit_creation_method	'MofGen! by Chris Wilmer'
_symmetry_space_group_name_H-M	'P1'
_symmetry_Int_Tables_number	1
_symmetry_cell_setting	triclinic
loop_
_symmetry_equiv_pos_as_xyz
  x,y,z
_cell_length_a	14.908571
_cell_length_b	12.759400
_cell_length_c	14.908308
_cell_angle_alpha	93.269141
_cell_angle_beta	90.175053
_cell_angle_gamma	86.710990
loop_
_atom_site_label
_atom_site_type_symbol
_atom_site_fract_x
_atom_site_fract_y
_atom_site_fract_z
Zn1	Zn	1.345342	-0.548282	-0.587598
Zn2	Zn	1.353936	-0.714462	-0.437243
Zn3	Zn	1.203655	-0.528102	-0.428595
Zn4	Zn	1.194964	-0.713214	-0.578895
O5	O	1.274474	-0.626015	-0.508083
O6	O	1.472309	-0.579294	-0.574915
O7	O	1.341235	-0.681818	-0.310271
O8	O	1.222491	-0.383762	-0.449711
O9	O	1.478623	-0.701385	-0.464450
O10	O	1.326587	-0.398588	-0.566529
O11	O	1.230825	-0.544900	-0.303918
O12	O	1.076676	-0.543690	-0.441272
O13	O	1.207677	-0.699258	-0.705874
O14	O	1.070290	-0.679690	-0.551696
O15	O	1.318160	-0.578083	-0.712269
O16	O	1.332807	-0.861313	-0.456011
O17	O	1.216011	-0.860396	-0.560082
C18	C	1.040857	-0.609366	-0.494601
C19	C	0.940914	-0.602270	-0.488855
C20	C	0.746517	-0.730752	-0.592888
C21	C	0.652611	-0.724088	-0.587492
C22	C	0.659193	-0.582274	-0.472673
C23	C	0.753099	-0.588938	-0.478069
C24	C	0.796758	-0.663180	-0.538177
C25	C	0.890666	-0.669848	-0.543568
C26	C	0.897246	-0.528030	-0.428754
C27	C	0.803340	-0.521366	-0.423358
C28	C	1.274422	-0.898977	-0.508061
C29	C	1.274480	-1.015760	-0.508087
C30	C	1.335356	-1.071073	-0.453964
C31	C	1.335410	-1.180802	-0.453995
C32	C	1.213704	-1.179896	-0.562273
C33	C	1.213655	-1.070169	-0.562246
C34	C	1.396181	-1.016664	-0.399805
C35	C	1.457061	-1.071977	-0.345677
C36	C	1.457115	-1.181707	-0.345708
C37	C	1.396289	-1.236123	-0.399867
C38	C	1.509003	-0.642730	-0.521618
C39	C	1.608946	-0.649853	-0.527386
C40	C	1.260990	-0.640783	-0.742609
C41	C	1.255244	-0.647076	-0.842550
C42	C	1.274550	-0.351990	-0.508126
C43	C	1.274582	-0.235216	-0.508144
C44	C	1.359489	-0.532697	-1.037009
C45	C	1.354093	-0.538607	-1.130913
C46	C	1.239052	-0.664798	-1.124262
C47	C	1.244448	-0.658888	-1.030358
C48	C	1.304670	-0.592837	-0.986735
C49	C	1.310070	-0.586934	-0.892830
C50	C	1.195025	-0.713119	-0.886181
C51	C	1.189629	-0.719028	-0.980085
C52	C	1.287957	-0.611233	-0.274473
C53	C	1.293878	-0.604656	-0.174542
H54	H	0.938163	-0.473010	-0.384202
H55	H	0.782065	-0.791208	-0.641826
H56	H	1.408528	-0.478921	-1.001491
O57	O	1.516061	-1.018956	-0.293097
C58	C	1.502977	-0.910247	-0.304689
H59	H	1.431865	-0.892222	-0.330072
H60	H	1.553503	-0.885842	-0.355681
C61	C	1.603832	-0.870956	-0.183007
C62	C	1.516489	-0.848816	-0.214176
H63	H	1.612171	-0.833061	-0.127176
H64	H	1.612650	-0.944195	-0.175198
H65	H	1.645928	-0.850618	-0.225508
H66	H	1.474396	-0.869166	-0.171681
H67	H	1.507664	-0.775578	-0.221975
O68	O	1.154494	-1.232624	-0.614823
C69	C	1.066015	-1.198303	-0.589909
H70	H	1.066130	-1.116344	-0.555219
H71	H	1.038453	-1.255043	-0.541925
C72	C	1.006297	-1.295542	-0.716980
C73	C	1.006438	-1.194875	-0.674380
H74	H	0.969546	-1.293431	-0.769084
H75	H	1.065907	-1.318668	-0.733764
H76	H	0.983332	-1.342814	-0.676984
H77	H	1.029414	-1.147607	-0.714371
H78	H	0.946830	-1.171740	-0.657605
H79	H	1.398731	-0.489632	-1.171842
O80	O	1.154645	-1.016394	-0.614921
C81	C	1.202431	-0.960129	-0.675951
H82	H	1.272934	-0.998531	-0.685655
H83	H	1.207120	-0.875455	-0.648307
C84	C	1.066467	-0.914009	-0.754932
C85	C	1.153057	-0.961181	-0.766857
H86	H	1.036010	-0.914652	-0.811006
H87	H	1.034272	-0.951912	-0.713813
H88	H	1.070386	-0.843451	-0.731893
H89	H	1.149137	-1.031740	-0.789885
H90	H	1.185251	-0.923289	-0.807982
O91	O	0.603944	-0.789837	-0.640675
C92	C	0.662618	-0.856769	-0.694901
H93	H	0.731665	-0.862776	-0.661911
H94	H	0.668698	-0.823423	-0.763817
C95	C	0.540422	-0.959435	-0.746121
C96	C	0.625225	-0.966820	-0.705599
H97	H	0.517355	-1.027319	-0.752725
H98	H	0.500891	-0.914340	-0.709591
H99	H	0.545500	-0.931642	-0.803547
H100	H	0.620144	-0.994600	-0.648170
H101	H	0.664755	-1.011923	-0.742120
H102	H	1.396142	-0.927316	-0.399771
H103	H	1.506693	-1.226741	-0.301642
H104	H	1.140596	-0.772803	-1.015615
O105	O	1.180621	-0.728919	-1.166789
C106	C	1.187591	-0.721201	-1.260448
H107	H	1.256260	-0.692558	-1.277281
H108	H	1.132749	-0.663111	-1.284013
C109	C	1.092189	-0.865112	-1.287514
C110	C	1.176532	-0.829941	-1.308189
H111	H	1.085363	-0.932186	-1.316964
H112	H	1.087489	-0.870310	-1.224414
H113	H	1.046496	-0.816694	-1.307152
H114	H	1.222222	-0.878352	-1.288541
H115	H	1.181238	-0.824754	-1.371287
O116	O	1.396437	-1.342713	-0.399766
C117	C	1.463232	-1.379872	-0.340405
H118	H	1.478855	-1.314248	-0.288591
H119	H	1.526725	-1.406169	-0.379899
C120	C	1.410135	-1.554190	-0.355842
C121	C	1.429318	-1.473592	-0.292198
H122	H	1.389218	-1.612004	-0.326108
H123	H	1.365136	-1.529157	-0.395837
H124	H	1.463050	-1.576091	-0.388749
H125	H	1.376401	-1.451683	-0.259301
H126	H	1.474307	-1.498624	-0.252196
H127	H	0.623630	-0.521823	-0.423741
H128	H	1.359107	-0.533153	-0.857314
O129	O	0.760890	-0.449392	-0.364876
C130	C	0.709873	-0.501585	-0.303612
H131	H	0.738490	-0.585973	-0.299564
H132	H	0.637113	-0.501952	-0.327324
C133	C	0.678626	-0.340462	-0.215100
C134	C	0.713779	-0.444106	-0.210122
H135	H	0.681032	-0.305005	-0.157431
H136	H	0.712995	-0.305297	-0.256376
H137	H	0.617997	-0.340782	-0.234863
H138	H	0.774411	-0.443785	-0.190370
H139	H	0.679421	-0.479270	-0.168840
H140	H	0.926211	-0.730302	-0.592510
H141	H	1.150389	-0.762092	-0.845238
