data_functionalizedCrystal
_audit_creation_method	'MofGen! by Chris Wilmer'
_symmetry_space_group_name_H-M	'P1'
_symmetry_Int_Tables_number	1
_symmetry_cell_setting	triclinic
loop_
_symmetry_equiv_pos_as_xyz
  x,y,z
_cell_length_a	27.780882
_cell_length_b	27.780884
_cell_length_c	27.780936
_cell_angle_alpha	90.002261
_cell_angle_beta	59.997799
_cell_angle_gamma	119.999789
loop_
_atom_site_label
_atom_site_type_symbol
_atom_site_fract_x
_atom_site_fract_y
_atom_site_fract_z
O1	O	0.424592	-0.330213	-0.014321
O2	O	0.326022	-0.260214	0.014251
O3	O	0.424588	-0.260214	-0.084318
O4	O	0.326026	-0.330213	0.084247
O5	O	0.344528	-0.340274	-0.084318
O6	O	0.245962	-0.340274	0.014251
O7	O	0.344532	-0.410273	-0.014321
Cu8	Cu	0.287937	-0.382584	-0.000035
Cu9	Cu	0.382617	-0.287904	-0.000035
O10	O	0.245966	-0.410273	0.084248
C11	C	0.177734	-0.120430	0.029862
C12	C	0.211527	-0.056934	0.025772
C13	C	0.119397	-0.149664	0.030267
C14	C	0.177730	-0.207598	0.029867
C15	C	0.211519	-0.237303	0.025783
C16	C	0.119393	-0.236700	0.030273
C17	C	0.090568	-0.207596	0.029862
C18	C	0.031162	-0.237298	0.025772
C19	C	0.206427	-0.149666	0.030273
C20	C	-0.016831	-0.261295	0.022466
C21	C	0.238829	-0.005636	0.022467
C22	C	0.238818	-0.261301	0.022482
C23	C	-0.077040	-0.291400	0.018321
C24	C	0.273079	0.058719	0.018322
C25	C	0.273065	-0.291409	0.018343
O26	O	-0.234707	-0.410266	-0.014339
O27	O	-0.094711	-0.340265	0.014229
O28	O	-0.094704	-0.340270	-0.084338
O29	O	-0.234714	-0.410261	0.084228
O30	O	-0.094701	-0.260209	-0.084343
O31	O	-0.094708	-0.260204	0.014225
O32	O	-0.234704	-0.330205	-0.014344
Cu33	Cu	-0.164706	-0.287894	-0.000060
Cu34	Cu	-0.164709	-0.382576	-0.000055
O35	O	-0.234711	-0.330200	0.084223
C36	C	0.492828	-0.207603	-0.372394
C37	C	0.459037	-0.237307	-0.402098
C38	C	0.551166	-0.149673	-0.401496
C39	C	0.492828	-0.207604	-0.285228
C40	C	0.459036	-0.237307	-0.221733
C41	C	0.551166	-0.149673	-0.314463
C42	C	0.579994	-0.120438	-0.372393
C43	C	0.639400	-0.056943	-0.402096
C44	C	0.464132	-0.236706	-0.314464
C45	C	0.687394	-0.005646	-0.426092
C46	C	0.431736	-0.261304	-0.426095
C47	C	0.431736	-0.261304	-0.170435
C48	C	0.747605	0.058709	-0.456197
C49	C	0.397486	-0.291409	-0.456201
C50	C	0.397486	-0.291410	-0.106080
C51	C	0.580008	-0.462879	-0.029964
C52	C	0.639417	-0.433174	-0.025878
C53	C	0.551182	-0.520809	-0.030373
C54	C	0.492839	-0.462880	-0.029960
C55	C	0.459045	-0.433178	-0.025869
C56	C	0.464144	-0.520811	-0.030368
C57	C	0.492842	-0.550045	-0.029964
C58	C	0.459052	-0.613540	-0.025878
C59	C	0.551178	-0.433777	-0.030369
C60	C	0.431752	-0.664837	-0.022575
C61	C	0.687412	-0.409177	-0.022576
C62	C	0.431742	-0.409182	-0.022562
C63	C	0.397504	-0.729192	-0.018433
C64	C	0.747625	-0.379070	-0.018434
C65	C	0.397490	-0.379077	-0.018415
O66	O	0.344549	0.249047	-0.014343
O67	O	0.245980	0.080483	0.014226
O68	O	0.344550	0.179042	-0.084342
O69	O	0.245978	0.150488	0.084224
O70	O	0.424607	0.179040	-0.084336
O71	O	0.326036	0.080480	0.014231
O72	O	0.424605	0.249045	-0.014338
Cu73	Cu	0.382630	0.164762	-0.000053
Cu74	Cu	0.287954	0.164765	-0.000059
O75	O	0.326034	0.150486	0.084230
O76	O	0.905273	0.249033	-0.494995
O77	O	0.765273	0.080470	-0.425001
O78	O	0.765270	0.179032	-0.424994
O79	O	0.905276	0.150471	-0.495003
O80	O	0.765272	0.179034	-0.505055
O81	O	0.765275	0.080472	-0.505062
O82	O	0.905275	0.249035	-0.575056
Cu83	Cu	0.835275	0.164754	-0.547369
Cu84	Cu	0.835273	0.164751	-0.452688
O85	O	0.905278	0.150473	-0.575063
O86	O	0.326020	-0.330218	-0.575063
O87	O	0.424588	-0.260215	-0.505065
O88	O	0.326020	-0.260217	-0.505059
O89	O	0.424589	-0.330216	-0.575069
O90	O	0.245961	-0.340275	-0.425000
O91	O	0.344530	-0.340273	-0.425006
O92	O	0.245962	-0.410276	-0.495003
Cu93	Cu	0.287936	-0.382585	-0.452694
Cu94	Cu	0.382614	-0.287906	-0.547374
O95	O	0.344531	-0.410274	-0.495009
C96	C	0.090559	-0.550051	0.372323
C97	C	0.031152	-0.613546	0.402025
C98	C	0.119386	-0.520817	0.401426
C99	C	0.177725	-0.462885	0.285158
C100	C	0.211517	-0.433181	0.221663
C101	C	0.206420	-0.433783	0.314394
C102	C	0.177724	-0.462886	0.372324
C103	C	0.211515	-0.433183	0.402029
C104	C	0.119387	-0.520816	0.314392
C105	C	0.238815	-0.409187	0.426026
C106	C	-0.016842	-0.664843	0.426021
C107	C	0.238818	-0.409184	0.170365
C108	C	0.273064	-0.379082	0.456133
C109	C	-0.077053	-0.729198	0.456125
C110	C	0.273068	-0.379078	0.106010
C111	C	0.177761	-0.120445	-0.372420
C112	C	0.211554	-0.056951	-0.402125
C113	C	0.206457	-0.149682	-0.401521
C114	C	0.090590	-0.207608	-0.285252
C115	C	0.031179	-0.237308	-0.221756
C116	C	0.119418	-0.236712	-0.314485
C117	C	0.177759	-0.207612	-0.372416
C118	C	0.211551	-0.237318	-0.402117
C119	C	0.119420	-0.149677	-0.314489
C120	C	0.238852	-0.261316	-0.426113
C121	C	0.238857	-0.005654	-0.426124
C122	C	-0.016817	-0.261303	-0.170458
C123	C	0.273102	-0.291424	-0.456216
C124	C	0.273109	0.058701	-0.456232
C125	C	-0.077032	-0.291406	-0.106103
C126	C	-0.507174	-0.462860	0.372301
C127	C	-0.540966	-0.433155	0.402003
C128	C	-0.535872	-0.520790	0.401406
C129	C	-0.420004	-0.462864	0.285137
C130	C	-0.360594	-0.433163	0.221642
C131	C	-0.448834	-0.520794	0.314373
C132	C	-0.507175	-0.550027	0.372304
C133	C	-0.540968	-0.613521	0.402010
C134	C	-0.448833	-0.433760	0.314371
C135	C	-0.568270	-0.664818	0.426008
C136	C	-0.568268	-0.409157	0.425999
C137	C	-0.312597	-0.409168	0.170343
C138	C	-0.602522	-0.729173	0.456115
C139	C	-0.602518	-0.379050	0.456103
C140	C	-0.252383	-0.379064	0.105988
C141	C	0.580005	0.194619	-0.372405
C142	C	0.639409	0.190525	-0.402104
C143	C	0.551178	0.195023	-0.401510
C144	C	0.492843	0.194635	-0.285245
C145	C	0.459054	0.190558	-0.221751
C146	C	0.464149	0.195039	-0.314482
C147	C	0.492843	0.194621	-0.372410
C148	C	0.459052	0.190530	-0.402115
C149	C	0.551179	0.195036	-0.314476
C150	C	0.431752	0.187222	-0.426113
C151	C	0.687401	0.187216	-0.426097
C152	C	0.431754	0.187263	-0.170455
C153	C	0.397503	0.183075	-0.456220
C154	C	0.747609	0.183066	-0.456199
C155	C	0.397506	0.183130	-0.106101
O156	O	0.424649	0.249027	-0.575092
O157	O	0.326070	0.080461	-0.505095
O158	O	0.424629	0.179018	-0.505082
O159	O	0.326090	0.150471	-0.575105
O160	O	0.344563	0.179021	-0.425026
O161	O	0.246004	0.080464	-0.425039
O162	O	0.344583	0.249030	-0.495036
Cu163	Cu	0.287983	0.164747	-0.452728
Cu164	Cu	0.382670	0.164744	-0.547403
O165	O	0.246024	0.150474	-0.495049
C166	C	0.177742	0.134906	0.372298
C167	C	0.211532	0.138997	0.402003
C168	C	0.119406	0.134505	0.401398
C169	C	0.177741	0.134893	0.285133
C170	C	0.211531	0.138970	0.221639
C171	C	0.119406	0.134492	0.314364
C172	C	0.090580	0.134909	0.372293
C173	C	0.031176	0.139004	0.401992
C174	C	0.206435	0.134489	0.314370
C175	C	-0.016815	0.142313	0.425985
C176	C	0.238832	0.142304	0.426002
C177	C	0.238831	0.142265	0.170343
C178	C	-0.077023	0.146464	0.456086
C179	C	0.273081	0.146451	0.456109
C180	C	0.273079	0.146398	0.105989
H181	H	0.095268	-0.284299	0.030928
O182	O	0.408053	-0.293453	-0.286381
C183	C	0.354348	-0.296653	-0.235562
H184	H	0.363486	-0.251569	-0.240912
H185	H	0.351940	-0.310688	-0.195416
C186	C	0.275369	-0.397465	-0.220482
C187	C	0.286590	-0.342093	-0.227055
H188	H	0.233572	-0.425496	-0.215232
H189	H	0.311551	-0.395310	-0.254718
H190	H	0.273367	-0.409152	-0.187028
H191	H	0.288600	-0.330403	-0.260513
H192	H	0.250406	-0.344247	-0.192824
O193	O	0.090570	-0.548735	0.458247
C194	C	0.071100	-0.517155	0.494049
H195	H	0.063953	-0.489286	0.471747
H196	H	0.112378	-0.487208	0.500713
C197	C	0.012506	-0.594991	0.581675
C198	C	0.003722	-0.560765	0.554285
H199	H	-0.029054	-0.621891	0.618833
H200	H	0.025625	-0.616266	0.557555
H201	H	0.046906	-0.570029	0.587223
H202	H	-0.030672	-0.585727	0.548731
H203	H	-0.009404	-0.539495	0.578406
O204	O	0.579978	-0.121580	-0.458260
C205	C	0.580281	-0.070770	-0.461496
H206	H	0.577490	-0.056156	-0.422369
H207	H	0.534482	-0.081156	-0.460475
C208	C	0.649677	-0.038930	-0.567323
C209	C	0.646255	-0.020978	-0.519269
H210	H	0.690371	-0.008216	-0.602961
H211	H	0.649471	-0.073162	-0.565143
H212	H	0.611507	-0.047585	-0.566464
H213	H	0.684419	-0.012330	-0.520124
H214	H	0.646469	0.013257	-0.521450
H215	H	0.575304	-0.386180	-0.031019
H216	H	0.575310	0.195676	-0.449109
H217	H	0.575306	0.195692	-0.291005
O218	O	0.090504	-0.548891	0.286483
C219	C	0.032741	-0.606407	0.324718
H220	H	0.012838	-0.608216	0.372347
H221	H	0.047210	-0.638835	0.314976
C222	C	0.001429	-0.620764	0.256809
C223	C	-0.023019	-0.622985	0.315307
H224	H	-0.032966	-0.630992	0.251002
H225	H	0.040346	-0.582016	0.231048
H226	H	0.013486	-0.647788	0.248698
H227	H	-0.035068	-0.595957	0.323415
H228	H	-0.061940	-0.661730	0.341070
O229	O	0.408167	-0.548716	-0.031186
C230	C	0.388889	-0.510479	-0.031436
H231	H	0.434705	-0.462852	-0.049518
H232	H	0.346709	-0.520223	0.015458
C233	C	0.306645	-0.578376	-0.048418
C234	C	0.362919	-0.519881	-0.070633
H235	H	0.290622	-0.584178	-0.072594
H236	H	0.319631	-0.604139	-0.048248
H237	H	0.271502	-0.586490	-0.009340
H238	H	0.398063	-0.511771	-0.109707
H239	H	0.349938	-0.494117	-0.070810
H240	H	0.253408	-0.126207	-0.449117
H241	H	0.253364	-0.386185	0.290920
O242	O	0.090532	-0.293504	-0.286407
C243	C	0.032766	-0.313028	-0.228891
H244	H	0.012866	-0.285301	-0.227085
H245	H	0.047231	-0.308299	-0.196461
C246	C	0.001451	-0.412250	-0.214530
C247	C	-0.022994	-0.378199	-0.212313
H248	H	-0.032944	-0.452451	-0.204302
H249	H	0.040370	-0.399097	-0.253279
H250	H	0.013504	-0.408303	-0.187505
H251	H	-0.035039	-0.382141	-0.239343
H252	H	-0.061917	-0.391355	-0.173568
H253	H	0.095283	0.133836	0.290888
O254	O	0.090742	0.133783	0.458164
C255	C	0.128718	0.133520	0.477698
H256	H	0.182758	0.152519	0.438052
H257	H	0.103731	0.086350	0.503204
C258	C	0.064582	0.147953	0.566833
C259	C	0.130957	0.171292	0.518138
H260	H	0.065961	0.171250	0.591781
H261	H	0.038995	0.148128	0.553673
H262	H	0.043767	0.108645	0.588081
H263	H	0.151768	0.210596	0.496887
H264	H	0.156548	0.171125	0.531295
O265	O	0.262490	0.133783	0.286401
C266	C	0.316240	0.184306	0.283442
H267	H	0.294520	0.201707	0.319786
H268	H	0.350601	0.219711	0.238666
C269	C	0.384552	0.146791	0.246966
C270	C	0.357875	0.168160	0.291607
H271	H	0.410237	0.136833	0.252000
H272	H	0.348341	0.112753	0.248957
H273	H	0.413182	0.176298	0.209657
H274	H	0.329239	0.138650	0.328915
H275	H	0.394082	0.202193	0.289623
O276	O	0.090562	-0.121674	0.031179
C277	C	0.071037	-0.105395	0.082259
H278	H	0.102472	-0.102222	0.098673
H279	H	0.014727	-0.139987	0.117976
C280	C	0.044705	-0.049069	0.047476
C281	C	0.083318	-0.045166	0.067633
H282	H	0.052277	-0.011918	0.038456
H283	H	0.057857	-0.060038	0.013063
H284	H	-0.002217	-0.077898	0.077244
H285	H	0.130239	-0.016343	0.037863
H286	H	0.070175	-0.034191	0.102040
O287	O	0.262406	-0.121594	0.031089
C288	C	0.281685	-0.064077	0.031337
H289	H	0.235868	-0.062266	0.049422
H290	H	0.323861	-0.031648	-0.015558
C291	C	0.363935	-0.049727	0.048312
C292	C	0.307660	-0.047504	0.070530
H293	H	0.379961	-0.039502	0.072486
H294	H	0.350948	-0.088476	0.048144
H295	H	0.399075	-0.022703	0.009234
H296	H	0.272518	-0.074533	0.109605
H297	H	0.320641	-0.008759	0.070706
H298	H	0.575284	-0.126201	-0.290985
H299	H	-0.424738	-0.386177	0.290884
H300	H	0.095296	-0.126201	-0.291020
H301	H	0.575312	-0.544278	-0.031030
H302	H	0.417204	0.195694	-0.291009
O303	O	-0.419938	-0.548698	0.286305
C304	C	-0.362167	-0.510461	0.228791
H305	H	-0.342279	-0.462835	0.226980
H306	H	-0.376619	-0.520209	0.196353
C307	C	-0.330829	-0.578354	0.214454
C308	C	-0.306400	-0.519858	0.212231
H309	H	-0.296430	-0.584152	0.204237
H310	H	-0.369753	-0.604116	0.253201
H311	H	-0.342872	-0.586470	0.187422
H312	H	-0.294365	-0.511745	0.239268
H313	H	-0.267473	-0.494094	0.173488
H314	H	-0.582816	-0.544257	0.449005
