data_functionalizedCrystal
_audit_creation_method	'MofGen! by Chris Wilmer'
_symmetry_space_group_name_H-M	'P1'
_symmetry_Int_Tables_number	1
_symmetry_cell_setting	triclinic
loop_
_symmetry_equiv_pos_as_xyz
  x,y,z
_cell_length_a	19.077068
_cell_length_b	18.215407
_cell_length_c	18.215399
_cell_angle_alpha	90.020595
_cell_angle_beta	92.268164
_cell_angle_gamma	87.672995
loop_
_atom_site_label
_atom_site_type_symbol
_atom_site_fract_x
_atom_site_fract_y
_atom_site_fract_z
Zn1	Zn	-0.280210	-1.113288	-0.427884
Zn2	Zn	-0.030210	-0.863288	-0.177884
Zn3	Zn	0.219790	-0.613288	0.072116
Zn4	Zn	0.469790	-0.363288	0.322116
Zn5	Zn	-0.397912	-1.108246	-0.309754
Zn6	Zn	-0.147912	-0.858246	-0.059754
Zn7	Zn	0.102088	-0.608246	0.190246
Zn8	Zn	0.352088	-0.358246	0.440246
Zn9	Zn	-0.280232	-0.990219	-0.304831
Zn10	Zn	-0.030232	-0.740219	-0.054831
Zn11	Zn	0.219768	-0.490219	0.195169
Zn12	Zn	0.469768	-0.240219	0.445169
Zn13	Zn	-0.397872	-0.985238	-0.432776
Zn14	Zn	-0.147872	-0.735238	-0.182776
Zn15	Zn	0.102128	-0.485238	0.067224
Zn16	Zn	0.352128	-0.235238	0.317224
O17	O	-0.339056	-1.049248	-0.368811
O18	O	-0.089056	-0.799248	-0.118811
O19	O	0.160944	-0.549248	0.131189
O20	O	0.410944	-0.299248	0.381189
O21	O	-0.295831	-1.215603	-0.412227
O22	O	-0.045831	-0.965603	-0.162227
O23	O	0.204169	-0.715603	0.087773
O24	O	0.454169	-0.465603	0.337773
O25	O	-0.382327	-1.092564	-0.206118
O26	O	-0.132327	-0.842564	0.043882
O27	O	0.117673	-0.592564	0.293882
O28	O	0.367673	-0.342564	0.543882
O29	O	-0.181738	-1.010739	-0.317046
O30	O	0.068262	-0.760739	-0.067046
O31	O	0.318262	-0.510739	0.182954
O32	O	0.568262	-0.260739	0.432954
O33	O	-0.382306	-1.211899	-0.325438
O34	O	-0.132306	-0.961899	-0.075438
O35	O	0.117694	-0.711899	0.174562
O36	O	0.367694	-0.461899	0.424562
O37	O	-0.181722	-1.101157	-0.407453
O38	O	0.068278	-0.851157	-0.157453
O39	O	0.318278	-0.601157	0.092547
O40	O	0.568278	-0.351157	0.342547
O41	O	-0.295869	-1.005851	-0.202500
O42	O	-0.045869	-0.755851	0.047500
O43	O	0.204131	-0.505851	0.297500
O44	O	0.454131	-0.255851	0.547500
O45	O	-0.295830	-0.886574	-0.321789
O46	O	-0.045830	-0.636574	-0.071789
O47	O	0.204170	-0.386574	0.178211
O48	O	0.454170	-0.136574	0.428211
O49	O	-0.382238	-1.002249	-0.535110
O50	O	-0.132238	-0.752249	-0.285110
O51	O	0.117762	-0.502249	-0.035110
O52	O	0.367762	-0.252249	0.214890
O53	O	-0.382259	-0.882915	-0.415790
O54	O	-0.132259	-0.632915	-0.165790
O55	O	0.117741	-0.382915	0.084210
O56	O	0.367741	-0.132915	0.334210
O57	O	-0.295792	-1.096327	-0.531516
O58	O	-0.045792	-0.846327	-0.281516
O59	O	0.204208	-0.596327	-0.031516
O60	O	0.454208	-0.346327	0.218484
O61	O	-0.496398	-1.087734	-0.330182
O62	O	-0.246398	-0.837734	-0.080182
O63	O	0.003602	-0.587734	0.169818
O64	O	0.253602	-0.337734	0.419818
O65	O	-0.496368	-0.997360	-0.420565
O66	O	-0.246368	-0.747360	-0.170565
O67	O	0.003632	-0.497360	0.079435
O68	O	0.253632	-0.247360	0.329435
C69	C	-0.339043	-0.858042	-0.368787
C70	C	-0.089043	-0.608042	-0.118787
C71	C	0.160957	-0.358042	0.131213
C72	C	0.410957	-0.108042	0.381213
C73	C	-0.339054	-0.776243	-0.368795
C74	C	-0.089054	-0.526243	-0.118795
C75	C	0.160946	-0.276243	0.131205
C76	C	0.410946	-0.026243	0.381205
C77	C	-0.384127	-0.586159	-0.417682
C78	C	-0.134127	-0.336159	-0.167682
C79	C	0.115873	-0.086159	0.082318
C80	C	0.365873	0.163841	0.332318
C81	C	-0.384128	-0.509300	-0.417691
C82	C	-0.134128	-0.259300	-0.167691
C83	C	0.115872	-0.009300	0.082309
C84	C	0.365872	0.240700	0.332309
C85	C	-0.293990	-0.513088	-0.319943
C86	C	-0.043990	-0.263088	-0.069943
C87	C	0.206010	-0.013088	0.180057
C88	C	0.456010	0.236912	0.430057
C89	C	-0.293986	-0.589945	-0.319939
C90	C	-0.043986	-0.339945	-0.069939
C91	C	0.206014	-0.089945	0.180061
C92	C	0.456014	0.160055	0.430061
C93	C	-0.339058	-0.626479	-0.368808
C94	C	-0.089058	-0.376479	-0.118808
C95	C	0.160942	-0.126479	0.131192
C96	C	0.410942	0.123521	0.381192
C97	C	-0.339064	-0.472763	-0.368820
C98	C	-0.089064	-0.222763	-0.118820
C99	C	0.160936	0.027237	0.131180
C100	C	0.410936	0.277237	0.381180
C101	C	-0.339065	-0.389429	-0.368829
C102	C	-0.089065	-0.139429	-0.118829
C103	C	0.160935	0.110571	0.131171
C104	C	0.410935	0.360571	0.381171
C105	C	-0.339056	-0.709818	-0.368800
C106	C	-0.089056	-0.459818	-0.118800
C107	C	0.160944	-0.209818	0.131200
C108	C	0.410944	0.040182	0.381200
C109	C	-0.521920	-1.041479	-0.376454
C110	C	-0.271920	-0.791479	-0.126454
C111	C	-0.021920	-0.541479	0.123546
C112	C	0.228080	-0.291479	0.373546
C113	C	-0.600150	-1.038223	-0.379749
C114	C	-0.350150	-0.788223	-0.129749
C115	C	-0.100150	-0.538223	0.120251
C116	C	0.149850	-0.288223	0.370251
C117	C	-0.636895	-1.083783	-0.334278
C118	C	-0.386895	-0.833783	-0.084278
C119	C	-0.136895	-0.583783	0.165722
C120	C	0.113105	-0.333783	0.415722
C121	C	-0.710401	-1.080725	-0.337381
C122	C	-0.460401	-0.830725	-0.087381
C123	C	-0.210401	-0.580725	0.162619
C124	C	0.039599	-0.330725	0.412619
C125	C	-0.747160	-1.032103	-0.385952
C126	C	-0.497160	-0.782103	-0.135952
C127	C	-0.247160	-0.532103	0.114048
C128	C	0.002840	-0.282103	0.364048
C129	C	-0.710410	-0.986542	-0.431428
C130	C	-0.460410	-0.736542	-0.181428
C131	C	-0.210410	-0.486542	0.068572
C132	C	0.039590	-0.236542	0.318572
C133	C	-0.636906	-0.989604	-0.428328
C134	C	-0.386906	-0.739604	-0.178328
C135	C	-0.136906	-0.489604	0.071672
C136	C	0.113094	-0.239604	0.321672
C137	C	-0.966994	-1.017899	-0.400268
C138	C	-0.716994	-0.767899	-0.150268
C139	C	-0.466994	-0.517899	0.099732
C140	C	-0.216994	-0.267899	0.349732
C141	C	-1.040504	-1.014838	-0.403362
C142	C	-0.790504	-0.764838	-0.153362
C143	C	-0.540504	-0.514838	0.096638
C144	C	-0.290504	-0.264838	0.346638
C145	C	-1.040489	-1.109023	-0.309316
C146	C	-0.790489	-0.859023	-0.059316
C147	C	-0.540489	-0.609023	0.190684
C148	C	-0.290489	-0.359023	0.440684
C149	C	-0.966983	-1.112078	-0.306218
C150	C	-0.716983	-0.862078	-0.056218
C151	C	-0.466983	-0.612078	0.193782
C152	C	-0.216983	-0.362078	0.443782
C153	C	-0.930240	-1.066519	-0.351696
C154	C	-0.680240	-0.816519	-0.101696
C155	C	-0.430240	-0.566519	0.148304
C156	C	-0.180240	-0.316519	0.398304
N157	N	-0.822294	-1.028975	-0.389123
N158	N	-0.572294	-0.778975	-0.139123
N159	N	-0.322294	-0.528975	0.110877
N160	N	-0.072294	-0.278975	0.360877
N161	N	-0.855107	-1.069652	-0.348528
N162	N	-0.605107	-0.819652	-0.098528
N163	N	-0.355107	-0.569652	0.151472
N164	N	-0.105107	-0.319652	0.401472
C165	C	-0.155478	-1.057066	-0.361154
C166	C	0.094522	-0.807066	-0.111154
C167	C	0.344522	-0.557066	0.138846
C168	C	0.594522	-0.307066	0.388846
C169	C	-0.077248	-1.060398	-0.357891
C170	C	0.172752	-0.810398	-0.107891
C171	C	0.422752	-0.560398	0.142109
C172	C	0.672752	-0.310398	0.392109
C173	C	-0.339008	-1.049294	-0.560762
C174	C	-0.089008	-0.799294	-0.310762
C175	C	0.160992	-0.549294	-0.060762
C176	C	0.410992	-0.299294	0.189238
C177	C	-0.338987	-1.049314	-0.642560
C178	C	-0.088987	-0.799314	-0.392560
C179	C	0.161013	-0.549314	-0.142560
C180	C	0.411013	-0.299314	0.107440
C181	C	-0.339068	-0.241200	-0.368833
C182	C	-0.089068	0.008800	-0.118833
C183	C	0.160932	0.258800	0.131167
C184	C	0.410932	0.508800	0.381167
C185	C	-0.339068	-0.322999	-0.368833
C186	C	-0.089068	-0.072999	-0.118833
C187	C	0.160932	0.177001	0.131167
C188	C	0.410932	0.427001	0.381167
C189	C	-0.293933	-1.098319	-0.828882
C190	C	-0.043933	-0.848319	-0.578882
C191	C	0.206067	-0.598319	-0.328882
C192	C	0.456067	-0.348319	-0.078882
C193	C	-0.293913	-1.098329	-0.905740
C194	C	-0.043913	-0.848329	-0.655740
C195	C	0.206087	-0.598329	-0.405740
C196	C	0.456087	-0.348329	-0.155740
C197	C	-0.383933	-1.000366	-0.909472
C198	C	-0.133933	-0.750366	-0.659472
C199	C	0.116067	-0.500366	-0.409472
C200	C	0.366067	-0.250366	-0.159472
C201	C	-0.383949	-1.000353	-0.832615
C202	C	-0.133949	-0.750353	-0.582615
C203	C	0.116051	-0.500353	-0.332615
C204	C	0.366051	-0.250353	-0.082615
C205	C	-0.338950	-1.049334	-0.792322
C206	C	-0.088950	-0.799334	-0.542322
C207	C	0.161050	-0.549334	-0.292322
C208	C	0.411050	-0.299334	-0.042322
C209	C	-0.338913	-1.049357	-0.946037
C210	C	-0.088913	-0.799357	-0.696037
C211	C	0.161087	-0.549357	-0.446037
C212	C	0.411087	-0.299357	-0.196037
C213	C	-0.338891	-1.049367	-1.029370
C214	C	-0.088891	-0.799367	-0.779370
C215	C	0.161109	-0.549367	-0.529370
C216	C	0.411109	-0.299367	-0.279370
C217	C	-0.338971	-1.049323	-0.708984
C218	C	-0.088971	-0.799323	-0.458984
C219	C	0.161029	-0.549323	-0.208984
C220	C	0.411029	-0.299323	0.041016
C221	C	-0.339054	-1.049245	-0.177605
C222	C	-0.089054	-0.799245	0.072395
C223	C	0.160946	-0.549245	0.322395
C224	C	0.410946	-0.299245	0.572395
C225	C	-0.338876	-1.049376	-0.095799
C226	C	-0.088876	-0.799376	0.154201
C227	C	0.161124	-0.549376	0.404201
C228	C	0.411124	-0.299376	0.654201
H229	H	-0.420825	-0.615903	-0.457476
H230	H	-0.170825	-0.365903	-0.207476
H231	H	0.079175	-0.115903	0.042524
H232	H	0.329175	0.134097	0.292524
H233	H	-0.257290	-1.138201	-0.796078
H234	H	-0.007290	-0.888201	-0.546078
H235	H	0.242710	-0.638201	-0.296078
H236	H	0.492710	-0.388201	-0.046078
H237	H	-0.257254	-1.138217	-0.935504
H238	H	-0.007254	-0.888217	-0.685504
H239	H	0.242746	-0.638217	-0.435504
H240	H	0.492746	-0.388217	-0.185504
H241	H	-0.740345	-0.946956	-0.470978
H242	H	-0.490345	-0.696956	-0.220978
H243	H	-0.240345	-0.446956	0.029022
H244	H	0.009655	-0.196956	0.279022
H245	H	-0.420607	-0.960459	-0.802847
H246	H	-0.170607	-0.710459	-0.552847
H247	H	0.079393	-0.460459	-0.302847
H248	H	0.329393	-0.210459	-0.052847
F249	F	-0.246011	-0.632859	-0.267921
F250	F	0.003989	-0.382859	-0.017921
F251	F	0.253989	-0.132859	0.232079
F252	F	0.503989	0.117141	0.482079
F253	F	-0.432095	-0.466393	-0.469711
F254	F	-0.182095	-0.216393	-0.219711
F255	F	0.067905	0.033607	0.030289
F256	F	0.317905	0.283607	0.280289
H257	H	-0.606970	-1.123373	-0.294723
H258	H	-0.356970	-0.873373	-0.044723
H259	H	-0.106970	-0.623373	0.205277
H260	H	0.143030	-0.373373	0.455277
H261	H	-0.257295	-0.483333	-0.280155
H262	H	-0.007295	-0.233333	-0.030155
H263	H	0.242705	0.016667	0.219845
H264	H	0.492705	0.266667	0.469845
H265	H	-0.420570	-0.960489	-0.942287
H266	H	-0.170570	-0.710489	-0.692287
H267	H	0.079430	-0.460489	-0.442287
H268	H	0.329430	-0.210489	-0.192287
F269	F	-0.927899	-0.969410	-0.448670
F270	F	-0.677899	-0.719410	-0.198670
F271	F	-0.427899	-0.469410	0.051330
F272	F	-0.177899	-0.219410	0.301330
F273	F	-0.927867	-1.163836	-0.254530
F274	F	-0.677867	-0.913836	-0.004530
F275	F	-0.427867	-0.663836	0.245470
F276	F	-0.177867	-0.413836	0.495470
F277	F	-0.749504	-1.129218	-0.288986
F278	F	-0.499504	-0.879218	-0.038986
F279	F	-0.249504	-0.629218	0.211014
F280	F	0.000496	-0.379218	0.461014
H281	H	-1.070431	-0.975253	-0.442927
H282	H	-0.820431	-0.725253	-0.192927
H283	H	-0.570431	-0.475253	0.057073
H284	H	-0.320431	-0.225253	0.307073
F285	F	-1.079599	-1.157510	-0.260921
F286	F	-0.829599	-0.907510	-0.010921
F287	F	-0.579599	-0.657510	0.239079
F288	F	-0.329599	-0.407510	0.489079
F289	F	-0.597800	-0.941115	-0.476726
F290	F	-0.347800	-0.691115	-0.226726
F291	F	-0.097800	-0.441115	0.023274
F292	F	0.152200	-0.191115	0.273274
