data_functionalizedCrystal
_audit_creation_method	'MofGen! by Chris Wilmer'
_symmetry_space_group_name_H-M	'P1'
_symmetry_Int_Tables_number	1
_symmetry_cell_setting	triclinic
loop_
_symmetry_equiv_pos_as_xyz
  x,y,z
_cell_length_a	12.759401
_cell_length_b	15.299816
_cell_length_c	12.759393
_cell_angle_alpha	80.349000
_cell_angle_beta	90.020938
_cell_angle_gamma	80.352053
loop_
_atom_site_label
_atom_site_type_symbol
_atom_site_fract_x
_atom_site_fract_y
_atom_site_fract_z
Zn1	Zn	1.678551	-0.358974	0.666432
Zn2	Zn	1.708816	-0.509814	0.521179
Zn3	Zn	1.502860	-0.359022	0.490777
Zn4	Zn	1.533203	-0.509751	0.696804
O5	O	1.605858	-0.434390	0.593798
O6	O	1.829588	-0.378989	0.647177
O7	O	1.681463	-0.489858	0.370135
O8	O	1.500801	-0.232808	0.488643
O9	O	1.851824	-0.489811	0.540460
O10	O	1.629881	-0.232772	0.617696
O11	O	1.530147	-0.379071	0.347798
O12	O	1.359863	-0.379010	0.518094
O13	O	1.552517	-0.489704	0.839787
O14	O	1.382156	-0.489750	0.669461
O15	O	1.659303	-0.378928	0.817473
O16	O	1.710886	-0.636014	0.569911
O17	O	1.581864	-0.635967	0.698941
C18	C	1.332888	-0.434379	0.593775
C19	C	1.216115	-0.434396	0.593794
C20	C	1.652980	-0.668715	0.641044
C21	C	1.673235	-0.768960	0.661291
C22	C	1.172906	-0.492146	0.672523
C23	C	1.063183	-0.492150	0.672545
C24	C	1.039886	-0.376650	0.515099
C25	C	1.149607	-0.376643	0.515083
C26	C	0.919803	-0.524511	0.802933
C27	C	0.876594	-0.582276	0.881656
C28	C	0.929915	-0.670292	0.915358
C29	C	1.026448	-0.700561	0.870326
C30	C	1.069652	-0.642802	0.791597
C31	C	1.016330	-0.554773	0.757912
C32	C	1.292990	-0.344291	0.384695
C33	C	1.336198	-0.286535	0.305960
C34	C	1.282878	-0.198518	0.272247
C35	C	1.186343	-0.168251	0.317261
C36	C	1.143135	-0.226007	0.395995
C37	C	1.196462	-0.314023	0.429710
C38	C	1.461779	-1.051906	0.449446
C39	C	1.442743	-0.957721	0.430426
C40	C	1.500364	-0.910526	0.488140
C41	C	1.577025	-0.957525	0.564879
C42	C	1.596058	-1.051720	0.583907
C43	C	1.634643	-0.910340	0.622601
C44	C	1.711304	-0.957339	0.699339
C45	C	1.730333	-1.051525	0.718364
C46	C	1.672712	-1.098719	0.660649
C47	C	1.615611	-0.816145	0.603572
C48	C	1.749890	-0.815959	0.738033
C49	C	1.768926	-0.910145	0.757054
C50	C	1.879893	-0.434402	0.593822
C51	C	1.996671	-0.434407	0.593832
C52	C	1.605919	-0.434304	0.867814
C53	C	1.605945	-0.434267	0.984583
C54	C	1.558580	-0.199151	0.546391
C55	C	1.538433	-0.098905	0.526189
C56	C	1.605844	-0.434411	0.320835
C57	C	1.605970	-0.434194	0.204015
C58	C	1.661552	-0.376577	1.027826
C59	C	1.661562	-0.376538	1.137542
C60	C	1.550357	-0.491887	1.160765
C61	C	1.550341	-0.491920	1.051050
C62	C	1.677747	-0.270129	1.266056
C63	C	1.733372	-0.212447	1.309304
C64	C	1.833100	-0.198617	1.270923
C65	C	1.877226	-0.242483	1.189298
C66	C	1.821608	-0.300171	1.146057
C67	C	1.721862	-0.313984	1.184433
C68	C	1.534167	-0.598330	0.922534
C69	C	1.478555	-0.656024	0.879292
C70	C	1.378827	-0.669863	0.917673
C71	C	1.334707	-0.626014	0.999305
C72	C	1.390320	-0.568320	1.042547
C73	C	1.490046	-0.554479	1.004158
H74	H	1.227054	-0.539170	0.736617
Cl75	Cl	0.875596	-0.742905	1.014330
H76	H	1.333554	-0.716851	0.882463
H77	H	1.142917	-0.096586	0.289794
H78	H	1.354389	-0.532615	1.109016
Cl79	Cl	1.677899	-0.157305	1.411914
Cl80	Cl	1.696859	-1.217128	0.684338
H81	H	1.484861	-0.833836	0.472647
Cl82	Cl	1.190997	-0.680847	0.734985
Cl83	Cl	1.552361	-0.287499	1.314301
Cl84	Cl	1.093467	-0.811222	0.912687
H85	H	1.792751	-1.089789	0.780854
Cl86	Cl	0.755246	-0.544221	0.938269
H87	H	1.706825	-0.329629	0.973711
H88	H	0.985722	-0.329631	0.451013
H89	H	1.857538	-0.335889	1.079603
Cl90	Cl	1.021770	-0.187958	0.452581
H91	H	1.336419	-0.415960	0.412149
H92	H	0.876386	-0.452839	0.775507
H93	H	1.414867	-1.090341	0.402468
Cl94	Cl	1.480465	-0.564366	1.244330
H95	H	1.831343	-0.948425	0.819536
Cl96	Cl	1.903026	-0.126104	1.325296
H97	H	1.318064	-0.151497	0.208127
Cl98	Cl	1.659527	-0.580907	0.874249
H99	H	1.514492	-0.691737	0.812832
H100	H	1.414803	-0.311186	0.269308
H101	H	1.553193	-0.777887	0.541091
Cl102	Cl	1.346362	-0.898642	0.333970
H103	H	1.958439	-0.231224	1.158061
H104	H	1.796808	-0.777534	0.785031
Cl105	Cl	1.209332	-0.643412	1.047562
