data_functionalizedCrystal
_audit_creation_method	'MofGen! by Chris Wilmer'
_symmetry_space_group_name_H-M	'P1'
_symmetry_Int_Tables_number	1
_symmetry_cell_setting	triclinic
loop_
_symmetry_equiv_pos_as_xyz
  x,y,z
_cell_length_a	19.805405
_cell_length_b	12.594517
_cell_length_c	19.805399
_cell_angle_alpha	89.994636
_cell_angle_beta	90.029301
_cell_angle_gamma	89.979947
loop_
_atom_site_label
_atom_site_type_symbol
_atom_site_fract_x
_atom_site_fract_y
_atom_site_fract_z
Zn1	Zn	-0.269594	-1.627165	0.382455
Zn2	Zn	-0.382782	-1.627031	0.269263
Zn3	Zn	-0.269600	-1.449176	0.269308
Zn4	Zn	-0.382734	-1.449119	0.382438
O5	O	-0.326177	-1.538123	0.325866
O6	O	-0.284626	-1.776093	0.367428
O7	O	-0.367791	-1.603406	0.174553
O8	O	-0.174883	-1.472867	0.284342
O9	O	-0.367785	-1.775995	0.284267
O10	O	-0.174878	-1.603635	0.367471
O11	O	-0.284637	-1.472737	0.174585
O12	O	-0.284590	-1.300223	0.284326
O13	O	-0.367703	-1.472769	0.477157
O14	O	-0.367708	-1.300181	0.367443
O15	O	-0.284579	-1.603579	0.477169
O16	O	-0.477492	-1.603351	0.284251
O17	O	-0.477457	-1.472639	0.367400
C18	C	-0.326145	-1.261582	0.325888
C19	C	-0.326147	-1.143277	0.325913
C20	C	-0.371442	-1.074031	0.371036
C21	C	-0.309729	-1.003239	0.387692
C22	C	-0.387906	-1.003270	0.309250
C23	C	-0.264401	-1.074043	0.342602
C24	C	-0.342620	-1.074079	0.264131
C25	C	-0.280864	-1.003319	0.280764
C26	C	-0.502033	-1.538003	0.325833
C27	C	-0.577265	-1.538049	0.325842
C28	C	-0.612606	-1.606177	0.282591
C29	C	-0.683294	-1.606222	0.282606
C30	C	-0.718641	-1.538134	0.325869
C31	C	-0.683296	-1.470003	0.369124
C32	C	-0.612609	-1.469964	0.369112
C33	C	-0.968369	-1.470160	0.369174
C34	C	-1.039061	-1.470202	0.369181
C35	C	-1.039054	-1.606418	0.282669
C36	C	-0.968367	-1.606379	0.282657
C37	C	-0.933028	-1.538253	0.325914
C38	C	-0.856380	-1.538206	0.325898
C39	C	-0.795288	-1.538174	0.325882
C40	C	-0.149635	-1.538272	0.325914
C41	C	-0.074403	-1.538336	0.325934
C42	C	-0.326135	-1.538183	0.502409
C43	C	-0.326117	-1.538208	0.577641
C44	C	-0.326204	-0.815744	0.325855
C45	C	-0.326200	-0.934049	0.325877
C46	C	-0.326171	-1.538125	0.150010
C47	C	-0.325999	-1.538306	0.074778
C48	C	-0.282832	-1.606322	0.612992
C49	C	-0.282812	-1.606333	0.683681
C50	C	-0.326081	-1.538235	0.719016
C51	C	-0.369368	-1.470113	0.683660
C52	C	-0.369383	-1.470097	0.612973
C53	C	-0.369305	-1.470173	0.968733
C54	C	-0.369287	-1.470196	1.039425
C55	C	-0.282734	-1.606409	1.039442
C56	C	-0.282749	-1.606393	0.968754
C57	C	-0.326033	-1.538268	0.933404
C58	C	-0.326053	-1.538256	0.856755
C59	C	-0.326065	-1.538252	0.795664
H60	H	-0.212180	-1.105000	0.356740
H61	H	-0.242538	-0.972466	0.242590
Cl62	Cl	-0.423686	-1.384578	1.083846
Cl63	Cl	-0.430474	-1.121974	0.430015
H64	H	-0.356553	-1.105219	0.211913
Cl65	Cl	-0.727719	-1.691875	0.228234
Cl66	Cl	-0.423719	-1.384530	0.924302
H67	H	-0.247600	-1.661779	0.584227
H68	H	-0.295815	-0.972123	0.439925
H69	H	-0.583831	-1.661618	0.247359
H70	H	-0.440112	-0.972177	0.295173
Cl71	Cl	-0.923935	-1.691980	0.228268
H72	H	-1.067836	-1.661894	0.247449
H73	H	-0.404623	-1.414621	0.584190
Cl74	Cl	-0.228354	-1.692009	0.924336
Cl75	Cl	-0.423761	-1.384499	0.728082
H76	H	-1.067839	-1.414758	0.404416
H77	H	-0.939601	-1.414688	0.404394
Cl78	Cl	-0.727732	-1.384412	0.423515
Cl79	Cl	-0.568181	-1.384318	0.423488
H80	H	-0.247568	-1.661801	0.712461
H81	H	-0.247488	-1.661876	1.068232
