data_functionalizedCrystal
_audit_creation_method	'MofGen! by Chris Wilmer'
_symmetry_space_group_name_H-M	'P1'
_symmetry_Int_Tables_number	1
_symmetry_cell_setting	triclinic
loop_
_symmetry_equiv_pos_as_xyz
  x,y,z
_cell_length_a	15.944545
_cell_length_b	15.944551
_cell_length_c	15.021413
_cell_angle_alpha	90.001324
_cell_angle_beta	89.995606
_cell_angle_gamma	83.497455
loop_
_atom_site_label
_atom_site_type_symbol
_atom_site_fract_x
_atom_site_fract_y
_atom_site_fract_z
O1	O	1.114532	0.108298	-0.073976
O2	O	0.869981	0.121660	-0.073991
O3	O	0.998935	-0.007296	-0.073975
O4	O	0.985578	0.237254	-0.073992
O5	O	0.998915	-0.007282	0.074089
O6	O	0.869962	0.121674	0.074073
O7	O	1.114512	0.108312	0.074088
Zn8	Zn	0.992234	0.114995	0.097589
Zn9	Zn	0.992260	0.114977	-0.097492
O10	O	0.985559	0.237268	0.074072
C11	C	0.838677	0.121113	0.000039
C12	C	0.745431	0.119453	0.000034
C13	C	0.474798	0.034559	0.000049
C14	C	0.525370	0.075495	0.073052
C15	C	0.409787	0.113532	0.000050
C16	C	0.525370	0.075502	-0.072928
C17	C	0.574701	0.116437	0.000040
C18	C	0.459131	0.154447	0.073113
C19	C	0.459128	0.154443	-0.072933
C20	C	0.509667	0.195436	0.000088
C21	C	0.314785	0.111856	0.000056
C22	C	0.669700	0.118119	0.000041
C23	C	0.998370	-0.038583	0.000057
C24	C	0.996708	-0.131829	0.000057
C25	C	0.912803	-0.346684	0.000040
C26	C	0.951756	-0.407695	0.073047
C27	C	0.993701	-0.302555	0.000050
C28	C	0.951795	-0.407692	-0.072933
C29	C	0.990790	-0.467468	0.000040
C30	C	1.032676	-0.362338	0.073118
C31	C	1.032703	-0.362329	-0.072928
C32	C	1.071715	-0.423322	0.000097
C33	C	0.995375	-0.207553	0.000057
C34	C	0.989122	-0.562469	0.000039
C35	C	1.145816	0.108859	0.000056
C36	C	1.239062	0.110519	0.000055
C37	C	0.986123	0.268555	0.000038
C38	C	0.987785	0.361801	0.000032
N39	N	0.992222	0.115007	0.230727
N40	N	0.992278	0.114958	-0.230630
C41	C	0.933088	0.175102	0.529734
C42	C	0.916092	0.099434	0.470379
C43	C	0.992259	0.114973	0.587763
C44	C	1.009198	0.190656	0.470377
C45	C	0.992239	0.114994	0.412339
C46	C	0.975225	0.039266	0.529715
C47	C	1.068364	0.130538	0.529718
C48	C	1.051399	0.054815	0.470389
C49	C	0.992268	0.114962	0.688821
C50	C	0.992230	0.114996	0.311284
H51	H	0.554293	0.042148	0.134775
H52	H	0.430313	0.187780	0.134897
H53	H	0.525159	0.263501	0.000126
C54	C	1.118231	-0.012989	0.435975
C55	C	1.197611	0.002810	0.467386
C56	C	1.259190	-0.059639	0.435708
H57	H	1.118283	-0.012363	0.372743
H58	H	1.106109	-0.066698	0.456429
H59	H	1.209730	0.056505	0.446928
H60	H	1.197587	0.002177	0.530614
H61	H	1.247068	-0.113348	0.456161
H62	H	1.259234	-0.059008	0.372476
H63	H	1.313055	-0.048932	0.457022
C64	C	0.563870	0.031152	-0.155329
C65	C	0.529019	0.071828	-0.231595
C66	C	0.564470	0.030998	-0.307514
H67	H	0.552216	-0.025966	-0.155359
H68	H	0.623217	0.032997	-0.155071
H69	H	0.469685	0.069975	-0.231853
H70	H	0.540671	0.128944	-0.231594
H71	H	0.623817	0.032842	-0.307256
H72	H	0.552813	-0.026119	-0.307535
H73	H	0.540835	0.058595	-0.359269
C74	C	1.028272	0.275935	0.435439
C75	C	1.028739	0.274569	0.342242
C76	C	1.046290	0.353115	0.310026
H77	H	1.081944	0.287475	0.456531
H78	H	0.986176	0.318607	0.455703
H79	H	1.070833	0.231911	0.321987
H80	H	0.975074	0.263043	0.321126
H81	H	1.004194	0.395787	0.330290
H82	H	1.099962	0.364649	0.331124
H83	H	1.046602	0.352201	0.246789
H84	H	0.845655	-0.313375	0.000109
C85	C	0.453965	-0.056140	0.000329
C86	C	0.487641	-0.097105	0.076951
C87	C	0.468454	-0.180651	0.077249
H88	H	0.477630	-0.084572	-0.050944
H89	H	0.394434	-0.056590	-0.000154
H90	H	0.547159	-0.096660	0.077425
H91	H	0.463981	-0.068699	0.128236
H92	H	0.408924	-0.181101	0.076766
H93	H	0.492120	-0.209075	0.025973
H94	H	0.491293	-0.208454	0.129239
C95	C	0.420634	0.199005	-0.155204
C96	C	0.439260	0.282733	-0.155772
C97	C	0.403823	0.323799	-0.231561
H98	H	0.361164	0.198172	-0.154391
H99	H	0.443445	0.170902	-0.207049
H100	H	0.416445	0.310829	-0.103941
H101	H	0.498723	0.283591	-0.156599
H102	H	0.426635	0.295696	-0.283405
H103	H	0.344355	0.322961	-0.230740
H104	H	0.416463	0.380611	-0.231960
H105	H	1.132712	0.143725	0.555804
H106	H	0.917576	-0.427774	-0.134659
H107	H	1.138922	-0.456483	0.000142
C108	C	0.905968	-0.434438	0.155264
C109	C	0.822809	-0.395286	0.154914
C110	C	0.780596	-0.419906	0.230628
H111	H	0.934055	-0.418157	0.207171
H112	H	0.905644	-0.493985	0.154943
H113	H	0.823138	-0.335752	0.155243
H114	H	0.794700	-0.411562	0.103024
H115	H	0.780272	-0.479453	0.230308
H116	H	0.808690	-0.403623	0.282530
H117	H	0.724167	-0.393351	0.230397
C118	C	1.078184	-0.335511	0.155478
C119	C	1.079157	-0.247819	0.154553
C120	C	1.121058	-0.223073	0.230414
H121	H	1.134493	-0.362358	0.155772
H122	H	1.049625	-0.351353	0.207278
H123	H	1.107717	-0.231986	0.102766
H124	H	1.022859	-0.220952	0.154272
H125	H	1.092499	-0.238915	0.282214
H126	H	1.177364	-0.249925	0.230700
H127	H	1.121717	-0.163572	0.229800
C128	C	1.078156	-0.335514	-0.155330
C129	C	1.035523	-0.358211	-0.231568
C130	C	1.077356	-0.333509	-0.307500
H131	H	1.134294	-0.362792	-0.155976
H132	H	1.079299	-0.276074	-0.154483
H133	H	1.034389	-0.417639	-0.232415
H134	H	0.979387	-0.330935	-0.230951
H135	H	1.078499	-0.274070	-0.306653
H136	H	1.133493	-0.360789	-0.308137
H137	H	1.048431	-0.348898	-0.359236
H138	H	0.883024	0.225885	0.555791
H139	H	0.851724	0.086275	0.444308
C140	C	0.955975	-0.046013	0.564490
C141	C	0.956154	-0.045010	0.657692
C142	C	0.938411	-0.123547	0.689759
H143	H	0.997719	-0.088803	0.543791
H144	H	0.902059	-0.057171	0.543728
H145	H	1.010063	-0.033862	0.678444
H146	H	0.914410	-0.002237	0.678415
H147	H	0.884495	-0.134705	0.668997
H148	H	0.980158	-0.166331	0.669054
H149	H	0.938523	-0.122874	0.752999
