data_functionalizedCrystal
_audit_creation_method	'MofGen! by Chris Wilmer'
_symmetry_space_group_name_H-M	'P1'
_symmetry_Int_Tables_number	1
_symmetry_cell_setting	triclinic
loop_
_symmetry_equiv_pos_as_xyz
  x,y,z
_cell_length_a	21.295418
_cell_length_b	13.897448
_cell_length_c	13.897441
_cell_angle_alpha	89.971988
_cell_angle_beta	90.041083
_cell_angle_gamma	89.964616
loop_
_atom_site_label
_atom_site_type_symbol
_atom_site_fract_x
_atom_site_fract_y
_atom_site_fract_z
Zn1	Zn	0.962387	0.383577	0.545922
Zn2	Zn	0.962315	0.544899	0.384631
Zn3	Zn	0.857115	0.383664	0.384584
Zn4	Zn	0.857100	0.544876	0.545826
O5	O	0.909729	0.464254	0.465241
O6	O	1.050467	0.404950	0.524587
O7	O	0.948336	0.523556	0.249643
O8	O	0.871117	0.248671	0.406006
O9	O	1.050414	0.523472	0.406087
O10	O	0.948459	0.248607	0.524541
O11	O	0.871046	0.405098	0.249608
O12	O	0.769024	0.405076	0.405913
O13	O	0.871090	0.523434	0.680821
O14	O	0.769012	0.523518	0.524377
O15	O	0.948445	0.404928	0.680891
O16	O	0.948321	0.679877	0.405994
O17	O	0.871020	0.679861	0.524423
C18	C	0.909678	0.714868	0.465224
C19	C	0.909714	0.822082	0.465249
C20	C	0.746178	0.464305	0.465130
C21	C	0.676209	0.464349	0.465105
C22	C	0.909775	1.018377	0.465319
C23	C	0.909739	0.909145	0.465283
C24	C	0.643353	0.526104	0.526697
C25	C	0.577611	0.526080	0.526741
C26	C	0.544727	0.464312	0.465175
C27	C	0.577591	0.402546	0.403578
C28	C	0.643332	0.402564	0.403543
N29	N	0.441453	0.456784	0.380807
N30	N	0.379001	0.456772	0.380843
C31	C	0.346652	0.464251	0.465277
N32	N	0.379114	0.471761	0.549676
N33	N	0.441571	0.471778	0.549639
C34	C	0.473442	0.464284	0.465206
C35	C	0.242511	0.525983	0.526921
C36	C	0.176767	0.525952	0.526966
C37	C	0.176748	0.402422	0.403795
C38	C	0.242491	0.402448	0.403759
C39	C	0.275368	0.464233	0.465320
C40	C	1.073919	0.464204	0.465353
C41	C	1.143888	0.464182	0.465401
C42	C	0.909774	0.464169	0.716834
C43	C	0.909793	0.464132	0.824048
C44	C	0.909792	1.212661	0.465290
C45	C	0.909806	1.105447	0.465340
C46	C	0.909721	0.464269	0.214627
C47	C	0.909824	0.464034	0.107413
C48	C	0.909810	0.464067	1.020343
C49	C	0.909799	0.464106	0.911111
H50	H	0.550854	0.576368	0.576900
H51	H	0.269242	0.352165	0.353599
H52	H	0.670118	0.576413	0.576827
H53	H	0.150017	0.576238	0.577128
H54	H	0.550813	0.352252	0.353452
O55	O	0.678771	0.335955	0.337104
H56	H	0.730009	0.346343	0.347426
H57	H	0.269281	0.576287	0.577054
H58	H	0.149975	0.352125	0.353671
