data_functionalizedCrystal
_audit_creation_method	'MofGen! by Chris Wilmer'
_symmetry_space_group_name_H-M	'P1'
_symmetry_Int_Tables_number	1
_symmetry_cell_setting	triclinic
loop_
_symmetry_equiv_pos_as_xyz
  x,y,z
_cell_length_a	10.686220
_cell_length_b	12.759400
_cell_length_c	10.686551
_cell_angle_alpha	94.405838
_cell_angle_beta	89.691918
_cell_angle_gamma	94.396325
loop_
_atom_site_label
_atom_site_type_symbol
_atom_site_fract_x
_atom_site_fract_y
_atom_site_fract_z
Zn1	Zn	1.972289	-0.256138	0.562385
Zn2	Zn	1.956061	-0.446298	0.352626
Zn3	Zn	1.746408	-0.283014	0.368703
Zn4	Zn	1.762491	-0.444169	0.578404
O5	O	1.859312	-0.357405	0.465529
O6	O	2.145678	-0.271007	0.521128
O7	O	1.914727	-0.436777	0.179213
O8	O	1.776432	-0.132422	0.394419
O9	O	2.133755	-0.410716	0.367019
O10	O	1.942386	-0.112677	0.536717
O11	O	1.760696	-0.316813	0.191024
O12	O	1.572999	-0.314748	0.409952
O13	O	1.803844	-0.407088	0.751824
O14	O	1.584816	-0.433148	0.564018
O15	O	1.957981	-0.268942	0.740056
O16	O	1.930323	-0.593042	0.382552
O17	O	1.788108	-0.591478	0.548429
C18	C	1.533391	-0.376634	0.490468
C19	C	1.393964	-0.384884	0.501167
C20	C	1.859236	-0.630378	0.465509
C21	C	1.859321	-0.747148	0.465533
C22	C	1.933468	-0.802778	0.379243
C23	C	1.933548	-0.912495	0.379275
C24	C	1.785323	-0.910942	0.551894
C25	C	1.785251	-0.801226	0.551866
C26	C	2.007538	-0.748700	0.292910
C27	C	2.081690	-0.804330	0.206611
C28	C	2.081770	-0.914047	0.206644
C29	C	2.007698	-0.968133	0.292976
C30	C	2.186505	-0.338101	0.440494
C31	C	2.325936	-0.329875	0.429825
C32	C	1.884517	-0.334779	0.792730
C33	C	1.895257	-0.325138	0.932163
C34	C	1.859425	-0.083361	0.465575
C35	C	1.859473	0.033420	0.465594
C36	C	1.834278	-0.379862	0.139596
C37	C	1.823780	-0.389193	0.000145
H38	H	2.007477	-0.659363	0.292870
H39	H	2.142005	-0.760287	0.136329
O40	O	1.740809	-0.463375	0.942489
C41	C	1.618218	-0.445599	0.983961
H42	H	1.622875	-0.398853	1.079332
H43	H	1.570371	-0.399122	0.913478
C44	C	1.536928	-0.609525	0.878507
C45	C	1.542648	-0.552119	0.995649
H46	H	1.490310	-0.675230	0.885712
H47	H	1.619519	-0.621500	0.850562
H48	H	1.497059	-0.570782	0.819784
H49	H	1.582530	-0.590855	1.054366
H50	H	1.460062	-0.540153	1.023604
H51	H	1.964679	-0.262921	0.980637
H52	H	2.142158	-0.959338	0.136384
H53	H	1.374361	-0.276469	0.360559
H54	H	1.345532	-0.438301	0.570429
H55	H	2.007780	-1.057471	0.293004
O56	O	1.713399	-0.963647	0.635623
C57	C	1.729385	-1.072412	0.617162
H58	H	1.763103	-1.091661	0.517238
H59	H	1.801883	-1.094388	0.686525
C60	C	1.561954	-1.111889	0.761006
C61	C	1.603357	-1.135533	0.638275
H62	H	1.484217	-1.150826	0.774035
H63	H	1.551186	-1.038612	0.773448
H64	H	1.622380	-1.130203	0.818795
H65	H	1.542939	-1.117207	0.580490
H66	H	1.614112	-1.208808	0.625824
H67	H	1.724875	-0.755932	0.622133
