data_functionalizedCrystal
_audit_creation_method	'MofGen! by Chris Wilmer'
_symmetry_space_group_name_H-M	'P1'
_symmetry_Int_Tables_number	1
_symmetry_cell_setting	triclinic
loop_
_symmetry_equiv_pos_as_xyz
  x,y,z
_cell_length_a	16.109318
_cell_length_b	15.944493
_cell_length_c	15.186229
_cell_angle_alpha	90.002130
_cell_angle_beta	90.000224
_cell_angle_gamma	83.471803
loop_
_atom_site_label
_atom_site_type_symbol
_atom_site_fract_x
_atom_site_fract_y
_atom_site_fract_z
O1	O	1.103134	0.108039	-0.073144
O2	O	0.861076	0.121460	-0.073160
O3	O	0.988740	-0.007531	-0.073159
O4	O	0.975470	0.237029	-0.073145
O5	O	0.988732	-0.007533	0.073299
O6	O	0.861067	0.121458	0.073297
O7	O	1.103126	0.108037	0.073314
Zn8	Zn	0.982095	0.114747	0.096559
Zn9	Zn	0.982106	0.114750	-0.096405
O10	O	0.975461	0.237027	0.073312
C11	C	0.830097	0.120913	0.000066
C12	C	0.737802	0.119275	0.000059
C13	C	0.438733	0.113987	-0.079759
C14	C	0.525454	0.115520	-0.079765
C15	C	0.525464	0.115507	0.079911
C16	C	0.438744	0.113968	0.079916
C17	C	0.395381	0.113212	0.000078
C18	C	0.568821	0.116284	0.000068
C19	C	0.662848	0.117947	0.000063
C20	C	0.301348	0.111548	0.000083
C21	C	0.988194	-0.038826	0.000066
C22	C	0.986568	-0.132074	0.000055
C23	C	1.061714	-0.367854	0.000077
C24	C	1.021194	-0.418411	-0.072137
C25	C	0.983555	-0.302795	0.000065
C26	C	1.021168	-0.418389	0.072259
C27	C	0.980650	-0.467703	0.000079
C28	C	0.943056	-0.352123	-0.072208
C29	C	0.943041	-0.352097	0.072253
C30	C	0.902464	-0.402621	0.000022
C31	C	0.985230	-0.207795	0.000056
C32	C	0.978968	-0.562700	0.000082
C33	C	1.134105	0.108584	0.000085
C34	C	1.226400	0.110221	0.000086
C35	C	0.976008	0.268323	0.000085
C36	C	0.977634	0.361571	0.000091
N37	N	0.982094	0.114745	0.228251
N38	N	0.982115	0.114745	-0.228098
C39	C	1.038643	0.057647	0.453975
C40	C	1.038645	0.057645	0.546164
C41	C	0.925560	0.171846	0.546172
C42	C	0.925554	0.171843	0.453984
C43	C	0.982100	0.114745	0.407888
C44	C	0.982108	0.114745	0.592266
C45	C	0.982111	0.114744	0.692222
C46	C	0.982097	0.114745	0.307925
H47	H	0.403446	0.113336	0.144932
N48	N	1.099638	-0.003931	0.595873
H49	H	1.136437	0.028191	0.634120
H50	H	1.067822	-0.041122	0.634074
H51	H	0.879506	0.218339	0.416458
H52	H	1.129038	-0.352244	0.000008
N53	N	1.064891	-0.456721	0.153130
H54	H	1.113331	-0.498901	0.134713
H55	H	1.086282	-0.410695	0.189512
H56	H	0.560781	0.116124	0.144912
H57	H	1.054206	-0.447365	-0.133184
N58	N	1.099627	-0.003935	0.404254
H59	H	1.135446	-0.040107	0.447443
H60	H	1.067804	-0.041082	0.366006
H61	H	0.403428	0.113371	-0.144768
N62	N	0.864578	0.233427	0.595898
H63	H	0.896344	0.270631	0.634143
H64	H	0.828768	0.269540	0.552658
N65	N	0.572214	0.116348	-0.165874
H66	H	0.531582	0.115634	-0.216446
H67	H	0.601452	0.169025	-0.169350
H68	H	0.835088	-0.418069	-0.000022
H69	H	0.910071	-0.323293	-0.133324
H70	H	0.910058	-0.323128	0.133302
