data_functionalizedCrystal
_audit_creation_method	'MofGen! by Chris Wilmer'
_symmetry_space_group_name_H-M	'P1'
_symmetry_Int_Tables_number	1
_symmetry_cell_setting	triclinic
loop_
_symmetry_equiv_pos_as_xyz
  x,y,z
_cell_length_a	10.654551
_cell_length_b	9.130313
_cell_length_c	16.109301
_cell_angle_alpha	89.997330
_cell_angle_beta	96.026624
_cell_angle_gamma	89.999680
loop_
_atom_site_label
_atom_site_type_symbol
_atom_site_fract_x
_atom_site_fract_y
_atom_site_fract_z
O1	O	1.666249	0.121786	-0.116774
O2	O	1.300620	0.121793	-0.127898
O3	O	1.493479	0.121774	-0.001365
O4	O	1.473390	0.121805	-0.243307
O5	O	1.493476	-0.121824	-0.001368
O6	O	1.300618	-0.121806	-0.127902
O7	O	1.666247	-0.121813	-0.116777
Cu8	Cu	1.483432	-0.144052	-0.122340
Cu9	Cu	1.483435	0.144032	-0.122336
O10	O	1.473388	-0.121794	-0.243311
C11	C	1.253832	-0.000005	-0.127083
C12	C	1.114422	-0.000003	-0.124639
C13	C	0.917936	-0.132791	-0.121187
C14	C	1.048925	-0.132791	-0.123491
C15	C	1.048921	0.132794	-0.123491
C16	C	0.917934	0.132793	-0.121193
C17	C	0.852447	-0.265587	-0.120030
C18	C	0.917938	-0.398385	-0.121179
C19	C	1.048927	-0.398385	-0.123483
C20	C	1.114425	-0.265588	-0.124638
N21	N	1.483439	-0.346674	-0.122342
C22	C	1.568859	-0.423335	-0.066332
C23	C	1.568855	-0.576672	-0.066322
C24	C	1.398009	-0.576674	-0.178339
C25	C	1.398007	-0.423340	-0.178345
C26	C	1.654291	-0.346669	-0.010330
C27	C	1.739718	-0.423329	0.045684
C28	C	1.739715	-0.576666	0.045694
C29	C	1.654284	-0.653343	-0.010310
C30	C	1.713035	-0.000011	-0.117592
C31	C	1.852445	-0.000004	-0.120037
C32	C	1.492664	-0.000026	0.029613
C33	C	1.490224	-0.000028	0.121923
N34	N	1.483438	0.346655	-0.122327
C35	C	1.474203	0.000009	-0.274289
C36	C	1.476643	0.000021	-0.366599
C37	C	1.598990	-0.000007	0.343549
C38	C	1.596688	0.000005	0.430283
C39	C	1.367868	0.000004	0.411769
C40	C	1.370171	0.000003	0.325037
C41	C	1.485736	-0.000010	0.290929
C42	C	1.481131	0.000003	0.464396
C43	C	1.478634	0.000016	0.558436
C44	C	1.488234	-0.000021	0.196882
H45	H	0.864599	-0.506503	-0.120245
H46	H	1.277940	0.000004	0.282191
Cl47	Cl	1.131253	-0.565326	-0.124938
H48	H	1.693091	-0.000014	0.315781
H49	H	1.654280	-0.778200	-0.010291
H50	H	1.688911	0.000011	0.473123
Cl51	Cl	1.654304	-0.153903	-0.010342
Cl52	Cl	1.847100	-0.326941	0.116092
H53	H	0.745789	-0.265602	-0.118152
Cl54	Cl	1.222594	0.000020	0.454654
H55	H	1.809264	-0.639082	0.091308
H56	H	0.864609	0.240919	-0.120259
H57	H	1.328456	-0.639114	-0.223936
H58	H	1.328450	-0.360923	-0.223952
H59	H	1.221083	-0.265599	-0.126524
Cl60	Cl	1.131264	0.299726	-0.124937
