data_functionalizedCrystal
_audit_creation_method	'MofGen! by Chris Wilmer'
_symmetry_space_group_name_H-M	'P1'
_symmetry_Int_Tables_number	1
_symmetry_cell_setting	triclinic
loop_
_symmetry_equiv_pos_as_xyz
  x,y,z
_cell_length_a	15.297475
_cell_length_b	19.805405
_cell_length_c	19.805399
_cell_angle_alpha	90.030709
_cell_angle_beta	80.319184
_cell_angle_gamma	99.671656
loop_
_atom_site_label
_atom_site_type_symbol
_atom_site_fract_x
_atom_site_fract_y
_atom_site_fract_z
Zn1	Zn	1.379140	0.448812	-0.561439
Zn2	Zn	1.379034	0.561989	-0.448234
Zn3	Zn	1.228286	0.429216	-0.428714
Zn4	Zn	1.228231	0.542340	-0.541838
O5	O	1.303673	0.495589	-0.495056
O6	O	1.505371	0.480249	-0.562795
O7	O	1.359016	0.544399	-0.350925
O8	O	1.248365	0.337108	-0.446355
O9	O	1.505292	0.563400	-0.479623
O10	O	1.359197	0.351504	-0.543867
O11	O	1.248262	0.446851	-0.336584
O12	O	1.102034	0.427798	-0.427348
O13	O	1.248270	0.529911	-0.639157
O14	O	1.101994	0.510910	-0.510459
O15	O	1.359143	0.461196	-0.653558
O16	O	1.358962	0.654090	-0.460616
O17	O	1.248167	0.639654	-0.529386
C18	C	1.069280	0.465096	-0.464659
C19	C	0.969006	0.452067	-0.451670
C20	C	1.303571	0.671432	-0.495010
C21	C	1.303610	0.746669	-0.495024
C22	C	1.303799	0.319063	-0.495120
C23	C	1.303853	0.243838	-0.495148
C24	C	0.686365	0.588713	-0.587887
C25	C	0.780577	0.600959	-0.600088
C26	C	0.827689	0.563737	-0.562985
C27	C	0.780579	0.514267	-0.513678
C28	C	0.686357	0.502023	-0.501472
C29	C	0.827682	0.477047	-0.476570
C30	C	0.780572	0.427577	-0.427263
C31	C	0.686359	0.415336	-0.415060
C32	C	0.639247	0.452558	-0.452163
C33	C	0.921903	0.489291	-0.488776
C34	C	0.921896	0.402602	-0.402361
C35	C	0.827684	0.390355	-0.390160
C36	C	1.538981	0.526202	-0.525573
C37	C	1.639255	0.539247	-0.538577
C38	C	1.303712	0.495547	-0.671604
C39	C	1.303729	0.495529	-0.746838
C40	C	1.361357	0.789515	-0.459268
C41	C	1.361395	0.860208	-0.459288
C42	C	1.303682	0.888054	-0.495060
C43	C	1.245933	0.845203	-0.530821
C44	C	1.245899	0.774511	-0.530804
C45	C	1.246066	1.130293	-0.530888
C46	C	1.246101	1.200990	-0.530900
C47	C	1.361561	1.215990	-0.459372
C48	C	1.361528	1.145299	-0.459355
C49	C	1.303783	1.102454	-0.495118
C50	C	1.303743	1.025801	-0.495098
C51	C	1.303716	0.964705	-0.495078
C52	C	1.246076	0.444734	-0.774717
C53	C	1.246089	0.444723	-0.845407
C54	C	1.303759	0.495504	-0.888218
C55	C	1.361415	0.546304	-0.860335
C56	C	1.361397	0.546318	-0.789645
C57	C	1.361486	0.546250	-1.145418
C58	C	1.361501	0.546231	-1.216112
C59	C	1.246178	0.444655	-1.201179
C60	C	1.246160	0.444669	-1.130490
C61	C	1.303812	0.495471	-1.102612
C62	C	1.303797	0.495483	-1.025962
C63	C	1.303780	0.495489	-0.964868
C64	C	1.303685	0.495589	-0.319202
C65	C	1.303843	0.495439	-0.243991
H66	H	0.960251	0.529570	-0.528922
H67	H	1.408466	0.587586	-1.250968
C68	C	1.182613	1.231618	-0.570259
N69	N	1.134797	1.254688	-0.599902
H70	H	1.199046	1.095414	-0.560006
C71	C	1.182374	0.727381	-0.570139
N72	N	1.134527	0.691883	-0.599770
C73	C	0.931326	0.577221	-0.576397
N74	N	1.009389	0.587383	-0.586498
C75	C	0.634536	0.629653	-0.628691
N76	N	0.595497	0.660492	-0.659428
C77	C	0.832391	0.655376	-0.654322
N78	N	0.871418	0.696366	-0.695174
H79	H	1.408351	0.587676	-0.766949
H80	H	1.408521	1.122629	-0.430223
H81	H	1.198945	0.867881	-0.559951
C82	C	1.182752	0.388776	-1.231849
N83	N	1.134983	0.346688	-1.254949
H84	H	0.562532	0.442588	-0.442232
H85	H	1.408418	0.895091	-0.430171
H86	H	0.648005	0.375061	-0.374904
C87	C	1.182717	0.388806	-1.083401
N88	N	1.134927	0.346731	-1.047934
C89	C	0.775850	0.335942	-0.335921
N90	N	0.736809	0.294958	-0.295068
C91	C	1.182633	0.388870	-0.727630
N92	N	1.134842	0.346793	-0.692166
H93	H	1.408420	0.587622	-1.122728
C94	C	1.424648	0.602291	-0.907403
N95	N	1.472205	0.644505	-0.942845
H96	H	0.960254	0.372293	-0.372148
C97	C	1.424846	0.758892	-0.419913
N98	N	1.472669	0.735829	-0.390271
C99	C	1.425088	1.263126	-0.420035
N100	N	1.472932	1.298627	-0.390405
C101	C	1.182675	0.388839	-0.876070
N102	N	1.134912	0.346742	-0.899166
