data_functionalizedCrystal
_audit_creation_method	'MofGen! by Chris Wilmer'
_symmetry_space_group_name_H-M	'P1'
_symmetry_Int_Tables_number	1
_symmetry_cell_setting	triclinic
loop_
_symmetry_equiv_pos_as_xyz
  x,y,z
_cell_length_a	18.215407
_cell_length_b	21.395362
_cell_length_c	21.395355
_cell_angle_alpha	89.979451
_cell_angle_beta	90.024690
_cell_angle_gamma	89.969761
loop_
_atom_site_label
_atom_site_type_symbol
_atom_site_fract_x
_atom_site_fract_y
_atom_site_fract_z
Zn1	Zn	1.125082	0.249504	0.354255
Zn2	Zn	1.124970	0.354263	0.249474
Zn3	Zn	1.002004	0.249505	0.249491
Zn4	Zn	1.001970	0.354248	0.354214
O5	O	1.063506	0.301880	0.301858
O6	O	1.228051	0.263406	0.340365
O7	O	1.108625	0.340374	0.161798
O8	O	1.018392	0.161827	0.263413
O9	O	1.227969	0.340373	0.263383
O10	O	1.108817	0.161826	0.340382
O11	O	1.018283	0.263408	0.161811
O12	O	0.899015	0.263393	0.263373
O13	O	1.018334	0.340347	0.441897
O14	O	0.898990	0.340348	0.340312
O15	O	1.108784	0.263391	0.441927
O16	O	1.108592	0.441939	0.263343
O17	O	1.018225	0.441928	0.340295
C18	C	0.872300	0.301869	0.301840
C19	C	0.790501	0.301880	0.301848
C20	C	1.063412	0.464668	0.301826
C21	C	1.063439	0.534309	0.301833
C22	C	1.063568	0.301867	0.465282
C23	C	1.063594	0.301862	0.534923
C24	C	0.602314	0.342013	0.341859
C25	C	0.525455	0.342015	0.341867
C26	C	0.525451	0.261758	0.261871
C27	C	0.602309	0.261754	0.261867
C28	C	0.640738	0.301885	0.301860
C29	C	0.487022	0.301891	0.301872
C30	C	0.403688	0.301893	0.301880
C31	C	0.724077	0.301882	0.301853
C32	C	1.255459	0.301891	0.301877
C33	C	1.337258	0.301896	0.301885
C34	C	1.063621	0.138457	0.301904
C35	C	1.063670	0.068815	0.301924
C36	C	1.110497	0.566965	0.341940
C37	C	1.110522	0.632400	0.341955
C38	C	1.063499	0.665177	0.301853
C39	C	1.016433	0.632513	0.261744
C40	C	1.016403	0.567079	0.261734
C41	C	1.057770	0.768877	0.245414
C42	C	1.057805	0.834310	0.245423
C43	C	1.063586	0.866998	0.301883
C44	C	1.069348	0.834244	0.358337
C45	C	1.069318	0.768810	0.358327
C46	C	1.063526	0.736129	0.301859
C47	C	1.110674	0.970606	0.342010
C48	C	1.110695	1.036043	0.342026
C49	C	1.016609	1.036155	0.261809
C50	C	1.016584	0.970720	0.261798
C51	C	1.063621	0.937949	0.301898
C52	C	1.063488	0.301847	0.139071
C53	C	1.063605	0.301676	0.069430
C54	C	1.110689	0.261790	0.567653
C55	C	1.110688	0.261763	0.633088
C56	C	1.063599	0.301819	0.665791
C57	C	1.016495	0.341894	0.633054
C58	C	1.016492	0.341916	0.567619
C59	C	1.057756	0.358235	0.769455
C60	C	1.057764	0.358214	0.834888
C61	C	1.063604	0.301753	0.867612
C62	C	1.069451	0.245310	0.834896
C63	C	1.069449	0.245332	0.769461
C64	C	1.063597	0.301800	0.736744
C65	C	1.110701	0.261648	0.971295
C66	C	1.110694	0.261620	1.036731
C67	C	1.016505	0.341757	1.036695
C68	C	1.016508	0.341780	0.971260
C69	C	1.063609	0.301726	0.938564
H70	H	0.494173	0.374691	0.374440
H71	H	1.149049	0.229030	0.944672
H72	H	1.149037	0.229127	0.659742
H73	H	1.052803	0.404200	0.742816
O74	O	0.639606	0.222838	0.222918
C75	C	0.663051	0.192243	0.116398
C76	C	0.620779	0.236363	0.160429
H77	H	0.647834	0.203154	0.065867
H78	H	0.724592	0.199135	0.123213
H79	H	0.647983	0.141742	0.127524
H80	H	0.635786	0.286881	0.149330
H81	H	0.559248	0.229417	0.153606
O82	O	1.156393	0.222921	0.535796
C83	C	1.198056	0.187368	0.435008
C84	C	1.146286	0.231441	0.471009
H85	H	1.189891	0.194232	0.382622
H86	H	1.257416	0.198350	0.447833
H87	H	1.185151	0.136857	0.447924
H88	H	1.159125	0.281967	0.458113
H89	H	1.086941	0.220406	0.458181
O90	O	1.156376	0.938865	0.381028
C91	C	1.249716	0.945659	0.460577
C92	C	1.197988	0.981680	0.416428
H93	H	1.283383	0.980259	0.489200
H94	H	1.215925	0.915051	0.493345
H95	H	1.288172	0.914991	0.431831
H96	H	1.159521	1.012382	0.445123
H97	H	1.231824	1.012248	0.383658
H98	H	1.053007	0.404173	0.861521
O99	O	1.075017	0.190539	0.737612
C100	C	1.018748	0.120330	0.663747
C101	C	1.012362	0.182406	0.699765
H102	H	0.968092	0.113728	0.633148
H103	H	1.069905	0.121299	0.633084
H104	H	1.022957	0.079983	0.698383
H105	H	1.008124	0.222786	0.665174
H106	H	0.961215	0.181383	0.730437
H107	H	1.148836	0.658994	0.374622
O108	O	0.970791	0.380894	0.664749
C109	C	0.935022	0.487465	0.684780
C110	C	0.986821	0.443369	0.648837
H111	H	0.947974	0.537986	0.671939
H112	H	0.875675	0.476514	0.671885
H113	H	0.943102	0.480537	0.737167
H114	H	0.978806	0.450273	0.596442
H115	H	1.046149	0.454332	0.661784
O116	O	1.074982	0.190462	0.866698
C117	C	1.018744	0.120228	0.940567
C118	C	1.012383	0.182351	0.904579
H119	H	0.968148	0.113657	0.971212
H120	H	1.022873	0.079870	0.905968
H121	H	1.069957	0.121189	0.971199
H122	H	0.961174	0.181452	0.873946
H123	H	1.008296	0.222683	0.939212
O124	O	0.488085	0.222869	0.222955
C125	C	0.401229	0.214320	0.138412
C126	C	0.443512	0.258433	0.182435
H127	H	0.365170	0.243056	0.105649
H128	H	0.441861	0.185646	0.109777
H129	H	0.365313	0.181592	0.167254
H130	H	0.479429	0.291199	0.153641
H131	H	0.402840	0.287064	0.211072
O132	O	0.639612	0.380923	0.380802
C133	C	0.663136	0.411508	0.487323
C134	C	0.620867	0.367395	0.443290
H135	H	0.647986	0.400595	0.537854
H136	H	0.724678	0.404611	0.480505
H137	H	0.647999	0.462011	0.476201
H138	H	0.635943	0.316875	0.454385
H139	H	0.559336	0.374346	0.450117
O140	O	1.156207	0.535230	0.380953
C141	C	1.249567	0.542027	0.460484
C142	C	1.197826	0.578046	0.416344
H143	H	1.283241	0.576629	0.489100
H144	H	1.215786	0.511419	0.493259
H145	H	1.288018	0.511360	0.431732
H146	H	1.159366	0.608747	0.445046
H147	H	1.231654	0.608614	0.383568
O148	O	1.074881	0.737090	0.413219
C149	C	1.086368	0.743921	0.525213
C150	C	1.080059	0.779922	0.463094
H151	H	1.090572	0.778535	0.565552
H152	H	1.035726	0.713341	0.531823
H153	H	1.137533	0.713229	0.524245
H154	H	1.028925	0.810648	0.464018
H155	H	1.130737	0.810463	0.456508
O156	O	0.970716	0.535257	0.222829
C157	C	0.929011	0.434502	0.187234
C158	C	0.980775	0.470463	0.231337
H159	H	0.937137	0.382109	0.194089
H160	H	0.869652	0.447357	0.198194
H161	H	0.941960	0.447422	0.136732
H162	H	0.967892	0.457562	0.281855
H163	H	1.040119	0.457604	0.220324
H164	H	0.978144	0.659205	0.229093
H165	H	1.074057	0.860857	0.404312
O166	O	1.156514	0.222671	1.068431
C167	C	1.249914	0.143172	1.061558
C168	C	1.198072	0.187260	1.025580
H169	H	1.283516	0.114521	1.026929
H170	H	1.288420	0.171902	1.092190
H171	H	1.216141	0.110421	1.092197
H172	H	1.231786	0.220019	0.994907
H173	H	1.159564	0.158491	0.994988
H174	H	1.149014	1.062630	0.374688
O175	O	0.970693	0.380689	1.068358
C176	C	0.877302	0.460200	1.061417
C177	C	0.929139	0.416134	1.025477
H178	H	0.843703	0.488878	1.026763
H179	H	0.838792	0.431451	1.092020
H180	H	0.911079	0.492926	1.092080
H181	H	0.895422	0.383399	0.994780
H182	H	0.967651	0.444921	0.994913
O183	O	0.970993	1.068083	0.222877
C184	C	0.929295	1.168938	0.187379
C185	C	0.981011	1.132854	0.231487
H186	H	0.937365	1.221311	0.194334
H187	H	0.942237	1.156139	0.136850
H188	H	0.869952	1.156071	0.198332
H189	H	1.040371	1.145702	0.220591
H190	H	0.968006	1.145656	0.282003
O191	O	0.970848	0.380878	0.535753
C192	C	0.960896	0.465520	0.461899
C193	C	1.012668	0.421423	0.497940
H194	H	0.994687	0.498321	0.431329
H195	H	0.922449	0.436797	0.431207
H196	H	0.927220	0.494116	0.496521
H197	H	1.046392	0.392817	0.463363
H198	H	1.051067	0.450182	0.528641
H199	H	0.978269	0.944129	0.229137
H200	H	1.053118	0.860973	0.199455
H201	H	1.053060	0.742269	0.199434
H202	H	0.978162	0.374415	0.944611
