data_functionalizedCrystal
_audit_creation_method	'MofGen! by Chris Wilmer'
_symmetry_space_group_name_H-M	'P1'
_symmetry_Int_Tables_number	1
_symmetry_cell_setting	triclinic
loop_
_symmetry_equiv_pos_as_xyz
  x,y,z
_cell_length_a	29.839131
_cell_length_b	25.639242
_cell_length_c	25.639233
_cell_angle_alpha	90.023283
_cell_angle_beta	89.980415
_cell_angle_gamma	89.963922
loop_
_atom_site_label
_atom_site_type_symbol
_atom_site_fract_x
_atom_site_fract_y
_atom_site_fract_z
Zn1	Zn	-0.178972	-0.799215	-0.295755
Zn2	Zn	-0.254086	-0.799134	-0.208318
Zn3	Zn	-0.178964	-0.711791	-0.208317
Zn4	Zn	-0.254069	-0.711732	-0.295706
O5	O	-0.216523	-0.755468	-0.252024
O6	O	-0.188947	-0.872370	-0.284177
O7	O	-0.244126	-0.787539	-0.135153
O8	O	-0.116098	-0.723447	-0.219936
O9	O	-0.244133	-0.872310	-0.219937
O10	O	-0.116104	-0.787677	-0.284176
O11	O	-0.188934	-0.723369	-0.135152
O12	O	-0.188916	-0.638618	-0.219889
O13	O	-0.244103	-0.723346	-0.368878
O14	O	-0.244095	-0.638575	-0.284093
O15	O	-0.188930	-0.787619	-0.368914
O16	O	-0.316951	-0.787482	-0.219890
O17	O	-0.316938	-0.723268	-0.284094
C18	C	-0.216503	-0.619626	-0.251986
C19	C	-0.216506	-0.561512	-0.251982
C20	C	-0.187742	-0.310332	-0.218637
C21	C	-0.187738	-0.364936	-0.218632
O22	O	-0.163256	-0.393185	-0.190259
N23	N	-0.216511	-0.392238	-0.252003
C24	C	-0.245287	-0.364932	-0.285385
O25	O	-0.269760	-0.393168	-0.313770
C26	C	-0.245288	-0.310329	-0.285392
C27	C	-0.216516	-0.283030	-0.252016
C28	C	-0.158972	-0.283033	-0.185264
C29	C	-0.158977	-0.228433	-0.185268
C30	C	-0.187751	-0.201131	-0.218646
C31	C	-0.216521	-0.228430	-0.252020
C32	C	-0.274061	-0.283024	-0.318776
C33	C	-0.274060	-0.228417	-0.318781
C34	C	-0.245288	-0.201118	-0.285404
C35	C	-0.245300	-0.146527	-0.285403
N36	N	-0.216527	-0.119226	-0.252032
C37	C	-0.187752	-0.146528	-0.218654
C38	C	-0.245281	-0.479603	-0.285368
C39	C	-0.245282	-0.534205	-0.285358
C40	C	-0.187733	-0.534206	-0.218606
C41	C	-0.187734	-0.479602	-0.218613
C42	C	-0.216508	-0.452301	-0.251997
C43	C	-0.187765	-0.031863	-0.218665
C44	C	-0.187773	0.022743	-0.218671
C45	C	-0.245321	0.022739	-0.285425
C46	C	-0.245314	-0.031862	-0.285417
C47	C	-0.216532	-0.059161	-0.252036
O48	O	-0.269768	-0.118244	-0.313763
O49	O	-0.163279	-0.118285	-0.190279
C50	C	-0.333245	-0.755374	-0.251998
C51	C	-0.383180	-0.755381	-0.252004
C52	C	-0.692817	-0.788965	-0.218642
C53	C	-0.880490	-0.789030	-0.218662
O54	O	-0.904750	-0.817509	-0.190276
N55	N	-0.903965	-0.755577	-0.252063
C56	C	-0.880518	-0.722108	-0.285464
O57	O	-0.904791	-0.693659	-0.313878
C58	C	-0.692846	-0.722046	-0.285446
C59	C	-0.669374	-0.755498	-0.252039
C60	C	-0.669345	-0.822415	-0.185238
C61	C	-0.622430	-0.822396	-0.185231
C62	C	-0.598987	-0.788928	-0.218628
C63	C	-0.622459	-0.755479	-0.252032
C64	C	-0.669400	-0.688580	-0.318849
C65	C	-0.622479	-0.688568	-0.318843
C66	C	-0.599007	-0.722020	-0.285436
C67	C	-0.552100	-0.721993	-0.285423
N68	N	-0.528625	-0.755446	-0.252022
C69	C	-0.552069	-0.788914	-0.218624
C70	C	-0.979049	-0.722141	-0.285471
C71	C	-1.025967	-0.722156	-0.285475
C72	C	-1.025936	-0.789079	-0.218673
C73	C	-0.979017	-0.789062	-0.218667
C74	C	-0.955574	-0.755595	-0.252069
C75	C	-0.453543	-0.788872	-0.218612
C76	C	-0.406623	-0.788849	-0.218607
C77	C	-0.406658	-0.721928	-0.285410
C78	C	-0.453574	-0.721949	-0.285414
C79	C	-0.477015	-0.755425	-0.252013
O80	O	-0.527811	-0.693533	-0.313798
O81	O	-0.527788	-0.817366	-0.190223
C82	C	-0.739733	-0.788984	-0.218649
C83	C	-0.763205	-0.755535	-0.252053
C84	C	-0.739762	-0.722067	-0.285450
C85	C	-0.810123	-0.755549	-0.252057
C86	C	-0.833566	-0.789017	-0.218659
C87	C	-0.810092	-0.822470	-0.185258
C88	C	-0.763176	-0.822451	-0.185251
C89	C	-0.763236	-0.688614	-0.318851
C90	C	-0.810151	-0.688635	-0.318855
C91	C	-0.833595	-0.722102	-0.285457
C92	C	-0.099344	-0.755577	-0.252061
C93	C	-0.049410	-0.755624	-0.252077
C94	C	-0.216515	-0.755485	-0.388397
C95	C	-0.216512	-0.755492	-0.446511
C96	C	-0.216542	0.108159	-0.252055
C97	C	-0.216548	0.050045	-0.252049
C98	C	-0.187698	-0.789002	-0.806899
C99	C	-0.187685	-0.789008	-0.861503
O100	O	-0.163239	-0.817457	-0.889760
N101	N	-0.216406	-0.755550	-0.888794
C102	C	-0.245139	-0.722079	-0.861477
O103	O	-0.269567	-0.693621	-0.889704
C104	C	-0.245148	-0.722071	-0.806874
C105	C	-0.216429	-0.755535	-0.779586
C106	C	-0.158980	-0.822463	-0.779610
C107	C	-0.158993	-0.822457	-0.725010
C108	C	-0.187724	-0.788990	-0.697697
C109	C	-0.216442	-0.755529	-0.724985
C110	C	-0.273878	-0.688598	-0.779559
C111	C	-0.273885	-0.688592	-0.724952
C112	C	-0.245165	-0.722056	-0.697664
C113	C	-0.245186	-0.722056	-0.643072
N114	N	-0.216465	-0.755514	-0.615782
C115	C	-0.187734	-0.788981	-0.643094
C116	C	-0.245115	-0.722100	-0.976148
C117	C	-0.245108	-0.722110	-1.030750
C118	C	-0.187654	-0.789039	-1.030772
C119	C	-0.187664	-0.789030	-0.976169
C120	C	-0.216394	-0.755558	-0.948857
C121	C	-0.187764	-0.788967	-0.528429
C122	C	-0.187781	-0.788959	-0.473824
C123	C	-0.245233	-0.722029	-0.473807
C124	C	-0.245218	-0.722038	-0.528407
C125	C	-0.216480	-0.755509	-0.555717
O126	O	-0.269618	-0.693620	-0.614780
O127	O	-0.163305	-0.817430	-0.614860
C128	C	-0.216498	-0.755482	-0.116181
C129	C	-0.216375	-0.755576	-0.058068
H130	H	-0.164326	-0.054083	-0.191485
H131	H	-0.268499	-0.694866	-1.052964
Cl132	Cl	-0.151674	-0.831033	-0.439522
Cl133	Cl	-0.281348	-0.679957	-0.439461
Cl134	Cl	-0.151533	-0.831111	-1.065118
Cl135	Cl	-0.281241	-0.680020	-0.941819
H136	H	-0.829187	-0.849719	-0.158064
Cl137	Cl	-0.151558	-0.568538	-0.176645
H138	H	-0.472686	-0.694712	-0.312618
H139	H	-0.297265	-0.661347	-0.801767
Cl140	Cl	-1.055416	-0.831152	-0.176688
Cl141	Cl	-0.839653	-0.646576	-0.360856
H142	H	-0.164277	-0.816279	-0.953954
H143	H	-0.268716	-0.457378	-0.312552
H144	H	-0.268750	0.044978	-0.312599
H145	H	-0.688503	-0.661337	-0.346051
Cl146	Cl	-0.310233	-0.317329	-0.360740
Cl147	Cl	-0.733772	-0.646535	-0.360840
Cl148	Cl	-0.733676	-0.864510	-0.143254
Cl149	Cl	-0.151600	0.057058	-0.176708
Cl150	Cl	-0.151633	-0.831042	-0.562753
Cl151	Cl	-0.949585	-0.680063	-0.327466
Cl152	Cl	-0.310005	-0.646509	-0.690621
Cl153	Cl	-0.122883	-0.864525	-0.690713
H154	H	-0.297490	-0.206191	-0.345968
H155	H	-0.268716	-0.556427	-0.312532
Cl156	Cl	-0.281489	-0.066181	-0.327372
H157	H	-0.135538	-0.305257	-0.158083
Cl158	Cl	-0.377118	-0.830906	-0.176607
Cl159	Cl	-0.483004	-0.830956	-0.176622
H160	H	-0.603322	-0.849637	-0.158030
H161	H	-0.135547	-0.206211	-0.158089
Cl162	Cl	-0.698809	-0.864494	-0.143247
H163	H	-0.268608	-0.694794	-0.550626
H164	H	-0.135581	-0.849716	-0.801843
H165	H	-0.164304	-0.457379	-0.191437
H166	H	-0.959909	-0.816301	-0.191464
Cl167	Cl	-1.055469	-0.680095	-0.327468
Cl168	Cl	-0.593012	-0.646494	-0.360838
Cl169	Cl	-0.377178	-0.679859	-0.327396
