data_functionalizedCrystal
_audit_creation_method	'MofGen! by Chris Wilmer'
_symmetry_space_group_name_H-M	'P1'
_symmetry_Int_Tables_number	1
_symmetry_cell_setting	triclinic
loop_
_symmetry_equiv_pos_as_xyz
  x,y,z
_cell_length_a	19.805407
_cell_length_b	16.625546
_cell_length_c	19.805399
_cell_angle_alpha	89.972133
_cell_angle_beta	89.980427
_cell_angle_gamma	90.022468
loop_
_atom_site_label
_atom_site_type_symbol
_atom_site_fract_x
_atom_site_fract_y
_atom_site_fract_z
Zn1	Zn	1.034754	-0.321020	-0.382718
Zn2	Zn	1.534754	0.178980	0.117282
Zn3	Zn	1.034677	-0.455857	-0.269529
Zn4	Zn	1.534677	0.044143	0.230471
Zn5	Zn	0.921569	-0.321043	-0.269543
Zn6	Zn	1.421569	0.178957	0.230457
Zn7	Zn	0.921540	-0.455815	-0.382676
Zn8	Zn	1.421540	0.044185	0.117324
O9	O	0.978135	-0.388434	-0.326117
O10	O	1.478135	0.111566	0.173883
O11	O	1.129461	-0.338915	-0.367716
O12	O	1.629461	0.161085	0.132284
O13	O	1.019652	-0.438001	-0.174815
O14	O	1.519652	0.061999	0.325185
O15	O	0.936628	-0.208207	-0.284579
O16	O	1.436628	0.291793	0.215421
O17	O	1.129404	-0.437980	-0.284556
O18	O	1.629404	0.062020	0.215444
O19	O	1.019784	-0.208191	-0.367729
O20	O	1.519784	0.291809	0.132271
O21	O	0.936553	-0.338953	-0.174825
O22	O	1.436553	0.161047	0.325175
O23	O	0.826848	-0.338912	-0.284538
O24	O	1.326848	0.161088	0.215462
O25	O	0.936579	-0.437907	-0.477398
O26	O	1.436579	0.062093	0.022602
O27	O	0.826827	-0.437928	-0.367657
O28	O	1.326827	0.062072	0.132343
O29	O	1.019756	-0.338874	-0.477429
O30	O	1.519756	0.161126	0.022571
O31	O	1.019625	-0.568684	-0.284515
O32	O	1.519625	-0.068684	0.215485
O33	O	0.936504	-0.568653	-0.367644
O34	O	1.436504	-0.068653	0.132356
C35	C	0.802279	-0.388418	-0.326095
C36	C	1.302279	0.111582	0.173905
C37	C	0.727047	-0.388431	-0.326102
C38	C	1.227047	0.111569	0.173898
C39	C	0.691710	-0.440067	-0.369311
C40	C	1.191710	0.059933	0.130689
C41	C	0.621021	-0.440068	-0.369321
C42	C	1.121021	0.059932	0.130679
C43	C	0.585671	-0.388437	-0.326117
C44	C	1.085671	0.111563	0.173883
C45	C	0.621014	-0.336796	-0.282905
C46	C	1.121014	0.163204	0.217095
C47	C	0.691701	-0.336791	-0.282899
C48	C	1.191701	0.163209	0.217101
C49	C	0.335941	-0.336814	-0.282927
C50	C	0.835941	0.163186	0.217073
C51	C	0.265248	-0.336825	-0.282935
C52	C	0.765248	0.163175	0.217065
C53	C	0.265261	-0.440091	-0.369349
C54	C	0.765261	0.059909	0.130651
C55	C	0.335948	-0.440086	-0.369343
C56	C	0.835948	0.059914	0.130657
C57	C	0.371284	-0.388442	-0.326134
C58	C	0.871284	0.111558	0.173866
C59	C	0.447932	-0.388440	-0.326125
C60	C	0.947932	0.111560	0.173875
C61	C	0.509024	-0.388443	-0.326122
C62	C	1.009024	0.111557	0.173878
C63	C	0.978071	-0.597925	-0.326088
C64	C	1.478071	-0.097925	0.173912
C65	C	0.978105	-0.687546	-0.326099
C66	C	1.478105	-0.187546	0.173901
C67	C	0.978224	-1.015721	-0.326169
C68	C	1.478224	-0.515721	0.173831
C69	C	0.978189	-0.924413	-0.326152
C70	C	1.478189	-0.424413	0.173848
C71	C	0.978164	-0.851636	-0.326134
C72	C	1.478164	-0.351636	0.173866
C73	C	0.978130	-0.760322	-0.326117
C74	C	1.478130	-0.260322	0.173883
C75	C	1.154678	-0.388450	-0.326139
C76	C	1.654678	0.111550	0.173861
C77	C	1.229910	-0.388457	-0.326149
C78	C	1.729910	0.111543	0.173851
C79	C	0.978173	-0.388383	-0.502660
C80	C	1.478173	0.111617	-0.002660
C81	C	0.978189	-0.388361	-0.577892
C82	C	1.478189	0.111639	-0.077892
C83	C	0.978218	-0.178125	-0.326160
C84	C	1.478218	0.321875	0.173840
C85	C	0.978253	-0.088504	-0.326178
C86	C	1.478253	0.411496	0.173822
C87	C	1.021501	-0.336792	-0.613253
C88	C	1.521501	0.163208	-0.113253
C89	C	1.021508	-0.336769	-0.683941
C90	C	1.521508	0.163231	-0.183941
C91	C	0.978206	-0.388319	-0.719267
C92	C	1.478206	0.111681	-0.219267
C93	C	0.934889	-0.439890	-0.683901
C94	C	1.434889	0.060110	-0.183901
C95	C	0.934880	-0.439909	-0.613214
C96	C	1.434880	0.060091	-0.113214
C97	C	0.934928	-0.439815	-0.968974
C98	C	1.434928	0.060185	-0.468974
C99	C	0.934942	-0.439794	-1.039667
C100	C	1.434942	0.060206	-0.539667
C101	C	1.021556	-0.336675	-1.039702
C102	C	1.521556	0.163325	-0.539702
C103	C	1.021546	-0.336694	-0.969015
C104	C	1.521546	0.163306	-0.469015
C105	C	0.978227	-0.388262	-0.933655
C106	C	1.478227	0.111738	-0.433655
C107	C	0.978219	-0.388285	-0.857006
C108	C	1.478219	0.111715	-0.357006
C109	C	0.978217	-0.388300	-0.795914
C110	C	1.478217	0.111700	-0.295914
C111	C	0.978136	-0.388426	-0.150261
C112	C	1.478136	0.111574	0.349739
C113	C	0.978251	-0.388221	-0.075029
C114	C	1.478251	0.111779	0.424971
H115	H	0.364703	-0.294769	-0.247739
H116	H	0.864703	0.205231	0.252261
C117	C	0.582131	-0.280006	-0.235379
C118	C	1.082131	0.219994	0.264621
H119	H	0.534971	-0.287410	-0.241565
H120	H	1.034971	0.212590	0.258435
H121	H	0.593733	-0.225845	-0.245363
H122	H	1.093733	0.274155	0.254637
H123	H	0.593696	-0.291743	-0.189882
H124	H	1.093696	0.208257	0.310118
H125	H	1.056809	-0.294719	-0.940256
H126	H	1.556809	0.205281	-0.440256
C127	C	1.069203	-0.279944	-1.078597
C128	C	1.569203	0.220056	-0.578597
H129	H	1.094996	-0.249253	-1.047433
H130	H	1.594996	0.250747	-0.547433
H131	H	1.043333	-0.244799	-1.106174
H132	H	1.543333	0.255201	-0.606174
H133	H	1.098688	-0.310789	-1.106170
H134	H	1.598688	0.189211	-0.606170
C135	C	0.887303	-0.496496	-1.078524
C136	C	1.387303	0.003504	-0.578524
H137	H	0.861497	-0.527205	-1.047341
H138	H	1.361497	-0.027205	-0.547341
H139	H	0.913182	-0.531625	-1.106097
H140	H	1.413182	-0.031625	-0.606097
H141	H	0.857831	-0.465631	-1.106100
H142	H	1.357831	0.034369	-0.606100
H143	H	0.720486	-0.482113	-0.404491
H144	H	1.220486	0.017887	0.095509
C145	C	0.582153	-0.496916	-0.416810
C146	C	1.082153	0.003084	0.083190
H147	H	0.613330	-0.527686	-0.442522
H148	H	1.113330	-0.027686	0.057478
H149	H	0.554579	-0.466168	-0.446366
H150	H	1.054579	0.033832	0.053634
H151	H	0.554577	-0.531994	-0.390825
H152	H	1.054577	-0.031994	0.109175
H153	H	0.236481	-0.482139	-0.404534
H154	H	0.736481	0.017861	0.095466
H155	H	0.364726	-0.482132	-0.404522
H156	H	0.864726	0.017868	0.095478
H157	H	0.236469	-0.294776	-0.247753
H158	H	0.736469	0.205224	0.252247
C159	C	0.887266	-0.496521	-0.930087
C160	C	1.387266	0.003479	-0.430087
H161	H	0.861479	-0.527218	-0.961252
H162	H	1.361479	-0.027218	-0.461252
H163	H	0.857787	-0.465664	-0.902523
H164	H	1.357787	0.034336	-0.402523
H165	H	0.913125	-0.531674	-0.902500
H166	H	1.413125	-0.031674	-0.402500
C167	C	0.730572	-0.279991	-0.235370
C168	C	1.230572	0.220009	0.264630
H169	H	0.699396	-0.249246	-0.209636
H170	H	1.199396	0.250754	0.290364
H171	H	0.758166	-0.244900	-0.261315
H172	H	1.258166	0.255100	0.238685
H173	H	0.758127	-0.310788	-0.205826
H174	H	1.258127	0.189212	0.294174
C175	C	0.887254	-0.496655	-0.574316
C176	C	1.387254	0.003345	-0.074316
H177	H	0.861475	-0.527364	-0.605478
H178	H	1.361475	-0.027364	-0.105478
H179	H	0.857766	-0.465832	-0.546734
H180	H	1.357766	0.034168	-0.046734
H181	H	0.913145	-0.531794	-0.546747
H182	H	1.413145	-0.031794	-0.046747
C183	C	0.887259	-0.496595	-0.722757
C184	C	1.387259	0.003405	-0.222757
H185	H	0.893472	-0.489205	-0.769921
H186	H	1.393472	0.010795	-0.269921
H187	H	0.841785	-0.484796	-0.711168
H188	H	1.341785	0.015204	-0.211168
H189	H	0.897147	-0.550777	-0.711161
H190	H	1.397147	-0.050777	-0.211161
H191	H	1.056764	-0.294817	-0.584496
H192	H	1.556764	0.205183	-0.084496
H193	H	1.056778	-0.294778	-0.712729
H194	H	1.556778	0.205222	-0.212729
