data_functionalizedCrystal
_audit_creation_method	'MofGen! by Chris Wilmer'
_symmetry_space_group_name_H-M	'P1'
_symmetry_Int_Tables_number	1
_symmetry_cell_setting	triclinic
loop_
_symmetry_equiv_pos_as_xyz
  x,y,z
_cell_length_a	16.120484
_cell_length_b	14.908618
_cell_length_c	14.908694
_cell_angle_alpha	96.408947
_cell_angle_beta	96.323893
_cell_angle_gamma	90.214222
loop_
_atom_site_label
_atom_site_type_symbol
_atom_site_fract_x
_atom_site_fract_y
_atom_site_fract_z
Zn1	Zn	-0.438947	-1.390527	-0.614282
Zn2	Zn	-0.569830	-1.374892	-0.469697
Zn3	Zn	-0.421891	-1.231315	-0.453330
Zn4	Zn	-0.569762	-1.232327	-0.612288
O5	O	-0.500108	-1.307265	-0.537399
O6	O	-0.463476	-1.514747	-0.602787
O7	O	-0.543096	-1.348879	-0.340492
O8	O	-0.307494	-1.258555	-0.468666
O9	O	-0.559635	-1.503260	-0.496561
O10	O	-0.320026	-1.375527	-0.586917
O11	O	-0.434406	-1.243394	-0.328467
O12	O	-0.434339	-1.105155	-0.466732
O13	O	-0.559518	-1.260279	-0.739586
O14	O	-0.542979	-1.105898	-0.583517
O15	O	-0.463410	-1.376508	-0.741052
O16	O	-0.686481	-1.349860	-0.494627
O17	O	-0.686430	-1.245118	-0.599388
C18	C	-0.486802	-1.072780	-0.523132
C19	C	-0.481131	-0.972466	-0.517052
C20	C	-0.583758	-0.784771	-0.627087
C21	C	-0.578432	-0.690517	-0.621377
C22	C	-0.465150	-0.689704	-0.499926
C23	C	-0.470476	-0.783957	-0.505636
C24	C	-0.529782	-0.831488	-0.569218
C25	C	-0.535111	-0.925742	-0.574923
C26	C	-0.421826	-0.924928	-0.453478
C27	C	-0.416501	-0.830674	-0.447768
C28	C	-0.716706	-1.295928	-0.548588
C29	C	-0.809375	-1.291162	-0.553410
C30	C	-0.979042	-1.282467	-0.562233
C31	C	-1.020343	-1.332226	-0.512591
C32	C	-1.114752	-1.327388	-0.517499
C33	C	-0.884625	-1.287304	-0.557325
C34	C	-0.282666	-1.318672	-0.526188
C35	C	-0.190005	-1.323533	-0.521411
C36	C	-0.513359	-1.320251	-0.774179
C37	C	-0.519006	-1.325784	-0.875080
C38	C	-0.513459	-0.542666	-0.551715
C39	C	-0.519131	-0.642980	-0.557798
C40	C	-0.416439	-1.226320	-1.052163
C41	C	-0.421742	-1.231516	-1.146968
C42	C	-0.534918	-1.341368	-1.159498
C43	C	-0.529615	-1.336171	-1.064692
C44	C	-0.470373	-1.278646	-1.011028
C45	C	-0.465066	-1.273455	-0.916221
C46	C	-0.578246	-1.383302	-0.928752
C47	C	-0.583549	-1.388498	-1.023557
C48	C	-0.486850	-1.294385	-0.301541
C49	C	-0.480979	-1.289039	-0.200639
H50	H	-0.368213	-0.791962	-0.396004
C51	C	-1.027048	-1.220009	-0.624620
H52	H	-0.988723	-1.189426	-0.655127
H53	H	-1.056895	-1.177104	-0.589201
H54	H	-1.065144	-1.254973	-0.668034
H55	H	-0.622383	-0.652484	-0.668501
C56	C	-0.362449	-0.976318	-0.389822
H57	H	-0.374110	-1.039260	-0.402330
H58	H	-0.370275	-0.956876	-0.328496
H59	H	-0.306327	-0.964532	-0.399383
H60	H	-0.583161	-1.388189	-1.203207
H61	H	-0.984798	-1.378458	-0.466403
C62	C	-0.399912	-1.210172	-0.857192
H63	H	-0.368559	-1.179743	-0.895272
H64	H	-0.363472	-1.244561	-0.820430
H65	H	-0.427518	-1.167150	-0.819466
H66	H	-0.368194	-1.179489	-1.008469
C67	C	-0.648707	-1.451774	-1.082592
H68	H	-0.644138	-1.447380	-1.144947
H69	H	-0.703103	-1.434787	-1.069141
H70	H	-0.639064	-1.512203	-1.070116
C71	C	-0.399929	-0.637409	-0.429986
H72	H	-0.404495	-0.574584	-0.434871
H73	H	-0.345550	-0.656509	-0.441396
H74	H	-0.409519	-0.648861	-0.370532
H75	H	-0.622161	-1.425914	-0.895250
H76	H	-0.377823	-1.188906	-1.180456
H77	H	-0.632051	-0.823470	-0.678853
C78	C	-0.600342	-0.978025	-0.644862
H79	H	-0.631718	-0.936700	-0.678514
H80	H	-0.636751	-1.010986	-0.614180
H81	H	-0.572792	-1.018635	-0.685055
