data_functionalizedCrystal
_audit_creation_method	'MofGen! by Chris Wilmer'
_symmetry_space_group_name_H-M	'P1'
_symmetry_Int_Tables_number	1
_symmetry_cell_setting	triclinic
loop_
_symmetry_equiv_pos_as_xyz
  x,y,z
_cell_length_a	13.897441
_cell_length_b	12.827893
_cell_length_c	12.827892
_cell_angle_alpha	89.984638
_cell_angle_beta	89.971891
_cell_angle_gamma	90.019906
loop_
_atom_site_label
_atom_site_type_symbol
_atom_site_fract_x
_atom_site_fract_y
_atom_site_fract_z
Zn1	Zn	-0.545377	-1.597676	-0.416001
Zn2	Zn	-0.384085	-1.597568	-0.590773
Zn3	Zn	-0.384097	-1.422916	-0.416046
Zn4	Zn	-0.545340	-1.422903	-0.590700
O5	O	-0.464725	-1.510266	-0.503380
O6	O	-0.523991	-1.743898	-0.439196
O7	O	-0.249105	-1.574360	-0.567645
O8	O	-0.405512	-1.446148	-0.269804
O9	O	-0.405491	-1.743819	-0.567600
O10	O	-0.524003	-1.574544	-0.269771
O11	O	-0.249114	-1.446044	-0.439274
O12	O	-0.405476	-1.276678	-0.439203
O13	O	-0.680326	-1.446127	-0.567476
O14	O	-0.523941	-1.276668	-0.567521
O15	O	-0.680353	-1.574532	-0.439125
O16	O	-0.405455	-1.574348	-0.736999
O17	O	-0.523929	-1.446022	-0.736946
C18	C	-0.464706	-1.238756	-0.503360
C19	C	-0.464721	-1.122603	-0.503376
C20	C	-0.716318	-1.510340	-0.503288
C21	C	-0.823532	-1.510371	-0.503248
C22	C	-0.464708	-1.510200	-0.774890
C23	C	-0.464733	-1.510268	-0.891043
C24	C	-1.019827	-1.510400	-0.503178
C25	C	-0.910594	-1.510381	-0.503220
C26	C	-0.214110	-1.510252	-0.503397
C27	C	-0.106897	-1.510423	-0.503142
C28	C	-0.464744	-1.782836	-0.503401
C29	C	-0.464752	-1.898989	-0.503410
C30	C	-0.523251	-1.070841	-0.566971
C31	C	-0.523268	-0.950791	-0.566990
C32	C	-0.406173	-1.573843	-0.942820
C33	C	-0.406198	-1.573915	-1.062870
C34	C	-0.464763	-1.510360	-0.230810
C35	C	-0.464779	-1.510400	-0.114657
H36	H	-0.573351	-1.115402	-0.621399
H37	H	-0.573374	-0.906277	-0.621438
H38	H	-0.414637	-0.943496	-0.448965
H39	H	-0.356060	-1.628341	-1.107396
H40	H	-0.414629	-1.078041	-0.448940
H41	H	-0.514889	-1.455896	-0.935592
H42	H	-0.356023	-1.628224	-0.898273
H43	H	-0.514913	-1.455964	-1.070138
