data_functionalizedCrystal
_audit_creation_method	'MofGen! by Chris Wilmer'
_symmetry_space_group_name_H-M	'P1'
_symmetry_Int_Tables_number	1
_symmetry_cell_setting	triclinic
loop_
_symmetry_equiv_pos_as_xyz
  x,y,z
_cell_length_a	16.992694
_cell_length_b	10.540510
_cell_length_c	16.053802
_cell_angle_alpha	92.593693
_cell_angle_beta	87.249047
_cell_angle_gamma	87.590767
loop_
_atom_site_label
_atom_site_type_symbol
_atom_site_fract_x
_atom_site_fract_y
_atom_site_fract_z
O1	O	1.045156	0.264308	-0.069317
O2	O	1.545156	0.764308	0.430683
O3	O	0.816856	0.261351	-0.069342
O4	O	1.316856	0.761351	0.430658
O5	O	0.936227	0.078574	-0.069328
O6	O	1.436227	0.578574	0.430672
O7	O	0.925786	0.447085	-0.069330
O8	O	1.425786	0.947085	0.430670
O9	O	0.929656	0.088590	0.069530
O10	O	1.429656	0.588590	0.569530
O11	O	0.810285	0.271368	0.069517
O12	O	1.310285	0.771368	0.569517
O13	O	1.038586	0.274324	0.069541
O14	O	1.538586	0.774324	0.569541
Zn15	Zn	0.923392	0.274436	0.091576
Zn16	Zn	1.423392	0.774436	0.591576
Zn17	Zn	0.932049	0.261239	-0.091376
Zn18	Zn	1.432049	0.761239	0.408624
O19	O	0.919215	0.457102	0.069528
O20	O	1.419215	0.957102	0.569528
C21	C	0.784337	0.262558	0.000084
C22	C	1.284337	0.762558	0.500084
C23	C	0.697231	0.251217	0.000075
C24	C	1.197231	0.751217	0.500075
C25	C	0.647596	0.360638	0.000075
C26	C	1.147596	0.860638	0.500075
C27	C	0.565750	0.349976	0.000086
C28	C	1.065750	0.849976	0.500086
C29	C	0.533540	0.229891	0.000092
C30	C	1.033540	0.729891	0.500092
C31	C	0.583182	0.120462	0.000094
C32	C	1.083182	0.620462	0.500094
C33	C	0.665026	0.131126	0.000089
C34	C	1.165026	0.631126	0.500089
C35	C	0.289697	0.185693	0.000114
C36	C	0.789697	0.685693	0.500114
C37	C	0.207846	0.175037	0.000117
C38	C	0.707846	0.675037	0.500117
C39	C	0.190420	0.404552	0.000111
C40	C	0.690420	0.904552	0.500111
C41	C	0.272267	0.415205	0.000101
C42	C	0.772267	0.915205	0.500101
C43	C	0.321901	0.305776	0.000107
C44	C	0.821901	0.805776	0.500107
N45	N	0.449881	0.218989	0.000101
N46	N	0.949881	0.718989	0.500101
N47	N	0.405558	0.316680	0.000104
N48	N	0.905558	0.816680	0.500104
C49	C	0.932164	0.036211	0.000099
C50	C	1.432164	0.536211	0.500099
C51	C	0.929836	-0.104942	0.000094
C52	C	1.429836	0.395058	0.500094
C53	C	1.012747	-0.315178	0.000421
C54	C	1.512747	0.184822	0.500421
C55	C	1.015246	-0.168389	0.000104
C56	C	1.515246	0.331611	0.500104
C57	C	0.889866	-0.159214	-0.079204
C58	C	1.389866	0.340786	0.420796
C59	C	0.887991	-0.306143	-0.079267
C60	C	1.387991	0.193857	0.420733
C61	C	0.878740	-0.294715	0.078641
C62	C	1.378740	0.205285	0.578641
C63	C	0.882742	-0.147947	0.079685
C64	C	1.382742	0.352053	0.579685
C65	C	1.071105	0.273117	0.000114
C66	C	1.571105	0.773117	0.500114
C67	C	1.158211	0.284458	0.000118
C68	C	1.658211	0.784458	0.500118
C69	C	0.923278	0.499465	0.000099
C70	C	1.423278	0.999465	0.500099
C71	C	0.925606	0.640617	0.000099
C72	C	1.425606	1.140617	0.500099
N73	N	0.917490	0.283443	0.216435
N74	N	1.417490	0.783443	0.716435
N75	N	0.937958	0.252223	-0.216236
N76	N	1.437958	0.752223	0.283764
C77	C	0.968301	0.205702	0.260135
C78	C	1.468301	0.705702	0.760135
C79	C	0.964179	0.212015	0.347541
C80	C	1.464179	0.712015	0.847541
C81	C	0.909250	0.296076	0.391246
C82	C	1.409250	0.796076	0.891246
C83	C	0.858433	0.373820	0.347541
C84	C	1.358433	0.873820	0.847541
C85	C	0.862551	0.367499	0.260136
C86	C	1.362551	0.867499	0.760136
C87	C	0.891260	0.323647	0.652654
C88	C	1.391260	0.823647	1.152654
C89	C	0.887147	0.329964	0.740065
C90	C	1.387147	0.829964	1.240065
C91	C	0.992893	0.168157	0.740059
C92	C	1.492893	0.668157	1.240059
C93	C	0.997010	0.161850	0.652653
C94	C	1.497010	0.661850	1.152653
C95	C	0.946190	0.239589	0.608955
C96	C	1.446190	0.739589	1.108955
N97	N	0.905037	0.302533	0.480590
N98	N	1.405037	0.802533	0.980590
N99	N	0.950399	0.233124	0.519613
N100	N	1.450399	0.733124	1.019613
H101	H	0.705438	0.042024	0.000088
H102	H	1.205438	0.542024	0.500088
H103	H	0.181625	0.077245	0.000121
H104	H	0.681625	0.577245	0.500121
H105	H	0.150000	0.493642	0.000107
H106	H	0.650000	0.993642	0.500107
F107	F	1.026769	0.116238	0.213629
F108	F	1.526769	0.616238	0.713629
H109	H	0.813704	0.442259	0.383130
H110	H	1.313704	0.942259	0.883130
F111	F	1.018257	0.129273	0.394050
F112	F	1.518257	0.629273	0.894050
H113	H	0.911780	-0.112343	0.138349
H114	H	1.411780	0.387657	0.638349
H115	H	1.046765	-0.131977	0.056947
H116	H	1.546765	0.368023	0.556947
F117	F	1.052726	-0.360877	0.074753
F118	F	1.552726	0.139123	0.574753
F119	F	0.512928	0.466437	0.000083
F120	F	1.012928	0.966437	0.500083
F121	F	0.930716	-0.360911	-0.156733
F122	F	1.430716	0.139089	0.343267
H123	H	0.298486	0.512990	0.000086
H124	H	0.798486	1.012990	0.500086
H125	H	0.814589	-0.322392	0.079168
H126	H	1.314589	0.177608	0.579168
F127	F	0.342511	0.069228	0.000121
F128	F	0.842511	0.569228	0.500121
F129	F	0.548900	-0.007342	0.000105
F130	F	1.048900	0.492658	0.500105
H131	H	0.827129	-0.117495	-0.082160
H132	H	1.327129	0.382505	0.417840
F133	F	1.059489	-0.373618	-0.073481
F134	F	1.559489	0.126382	0.426519
F135	F	0.828680	0.419441	0.786574
F136	F	1.328680	0.919441	1.286574
H137	H	1.052348	-0.141105	-0.056831
H138	H	1.552348	0.358895	0.443169
H139	H	1.041738	0.093401	0.617070
H140	H	1.541738	0.593401	1.117070
H141	H	1.034267	0.104864	0.775646
H142	H	1.534267	0.604864	1.275646
H143	H	0.824280	-0.334941	-0.082866
H144	H	1.324280	0.165059	0.417134
H145	H	0.923022	-0.129979	-0.138211
H146	H	1.423022	0.370021	0.361789
F147	F	0.910264	-0.341541	0.157202
F148	F	1.410264	0.158459	0.657202
H149	H	0.849882	0.386948	0.617082
H150	H	1.349882	0.886948	1.117082
H151	H	0.821174	0.430802	0.224557
H152	H	1.321174	0.930802	0.724557
H153	H	0.673814	0.458424	0.000070
H154	H	1.173814	0.958424	0.500070
H155	H	0.820160	-0.103946	0.084467
H156	H	1.320160	0.396054	0.584467
