data_functionalizedCrystal
_audit_creation_method	'MofGen! by Chris Wilmer'
_symmetry_space_group_name_H-M	'P1'
_symmetry_Int_Tables_number	1
_symmetry_cell_setting	triclinic
loop_
_symmetry_equiv_pos_as_xyz
  x,y,z
_cell_length_a	19.121112
_cell_length_b	19.121063
_cell_length_c	19.805407
_cell_angle_alpha	87.573559
_cell_angle_beta	92.441902
_cell_angle_gamma	90.126867
loop_
_atom_site_label
_atom_site_type_symbol
_atom_site_fract_x
_atom_site_fract_y
_atom_site_fract_z
Zn1	Zn	1.059725	-0.325040	0.439551
Zn2	Zn	1.309725	-0.075040	0.689551
Zn3	Zn	1.559725	0.174960	0.939551
Zn4	Zn	1.809725	0.424960	1.189551
Zn5	Zn	1.054661	-0.442245	0.330968
Zn6	Zn	1.304661	-0.192245	0.580968
Zn7	Zn	1.554661	0.057755	0.830968
Zn8	Zn	1.804661	0.307755	1.080968
Zn9	Zn	0.942521	-0.320017	0.321360
Zn10	Zn	1.192521	-0.070017	0.571360
Zn11	Zn	1.442521	0.179983	0.821360
Zn12	Zn	1.692521	0.429983	1.071360
Zn13	Zn	0.937450	-0.437230	0.439099
Zn14	Zn	1.187450	-0.187230	0.689099
Zn15	Zn	1.437450	0.062770	0.939099
Zn16	Zn	1.687450	0.312770	1.189099
O17	O	0.998589	-0.381133	0.382744
O18	O	1.248589	-0.131133	0.632744
O19	O	1.498589	0.118867	0.882744
O20	O	1.748589	0.368867	1.132744
O21	O	1.157157	-0.344788	0.429357
O22	O	1.407157	-0.094788	0.679357
O23	O	1.657157	0.155212	0.929357
O24	O	1.907157	0.405212	1.179357
O25	O	1.039789	-0.426027	0.234977
O26	O	1.289789	-0.176027	0.484977
O27	O	1.539789	0.073973	0.734977
O28	O	1.789789	0.323973	0.984977
O29	O	0.962309	-0.222579	0.333206
O30	O	1.212309	0.027421	0.583206
O31	O	1.462309	0.277421	0.833206
O32	O	1.712309	0.527421	1.083206
O33	O	1.153437	-0.430898	0.349582
O34	O	1.403437	-0.180898	0.599582
O35	O	1.653437	0.069102	0.849582
O36	O	1.903437	0.319102	1.099582
O37	O	1.048418	-0.226269	0.420041
O38	O	1.298418	0.023731	0.670041
O39	O	1.548418	0.273731	0.920041
O40	O	1.798418	0.523731	1.170041
O41	O	0.957399	-0.336227	0.227918
O42	O	1.207399	-0.086227	0.477918
O43	O	1.457399	0.163773	0.727918
O44	O	1.707399	0.413773	0.977918
O45	O	0.843744	-0.331365	0.332768
O46	O	1.093744	-0.081365	0.582768
O47	O	1.343744	0.168635	0.832768
O48	O	1.593744	0.418635	1.082768
O49	O	0.953667	-0.422351	0.533876
O50	O	1.203667	-0.172351	0.783876
O51	O	1.453667	0.077649	1.033876
O52	O	1.703667	0.327649	1.283876
O53	O	0.840019	-0.417481	0.419271
O54	O	1.090019	-0.167481	0.669271
O55	O	1.340019	0.082519	0.919271
O56	O	1.590019	0.332519	1.169271
O57	O	1.043502	-0.339926	0.534207
O58	O	1.293502	-0.089926	0.784207
O59	O	1.543502	0.160074	1.034207
O60	O	1.793502	0.410074	1.284207
O61	O	1.034872	-0.539684	0.349144
O62	O	1.284872	-0.289684	0.599144
O63	O	1.534872	-0.039684	0.849144
O64	O	1.784872	0.210316	1.099144
O65	O	0.948757	-0.536000	0.428587
O66	O	1.198757	-0.286000	0.678587
O67	O	1.448757	-0.036000	0.928587
O68	O	1.698757	0.214000	1.178587
C69	C	0.816444	-0.373334	0.374928
C70	C	1.066444	-0.123334	0.624928
C71	C	1.316444	0.126666	0.874928
C72	C	1.566444	0.376666	1.124928
C73	C	0.738521	-0.370015	0.371601
C74	C	0.988521	-0.120015	0.621601
C75	C	1.238521	0.129985	0.871601
C76	C	1.488521	0.379985	1.121601
C77	C	0.297901	-0.348955	0.350528
C78	C	0.547901	-0.098955	0.600528
C79	C	0.797901	0.151045	0.850528
C80	C	1.047901	0.401045	1.100528
C81	C	0.371118	-0.352078	0.353657
C82	C	0.621118	-0.102078	0.603657
C83	C	0.871118	0.147922	0.853657
C84	C	1.121118	0.397922	1.103657
C85	C	0.405800	-0.398549	0.400192
C86	C	0.655800	-0.148549	0.650192
C87	C	0.905800	0.101451	0.900192
C88	C	1.155800	0.351451	1.150192
C89	C	0.367261	-0.441895	0.443605
C90	C	0.617261	-0.191895	0.693605
C91	C	0.867261	0.058105	0.943605
C92	C	1.117261	0.308105	1.193605
C93	C	0.294046	-0.438768	0.440478
C94	C	0.544046	-0.188768	0.690478
C95	C	0.794046	0.061232	0.940478
C96	C	1.044046	0.311232	1.190478
C97	C	0.626767	-0.410234	0.411887
C98	C	0.876767	-0.160234	0.661887
C99	C	1.126767	0.089766	0.911887
C100	C	1.376767	0.339766	1.161887
C101	C	0.699987	-0.413359	0.415009
C102	C	0.949987	-0.163359	0.665009
C103	C	1.199987	0.086641	0.915009
C104	C	1.449987	0.336641	1.165009
C105	C	0.703840	-0.323540	0.325062
C106	C	0.953840	-0.073540	0.575062
C107	C	1.203840	0.176460	0.825062
C108	C	1.453840	0.426460	1.075062
C109	C	0.630622	-0.320421	0.321937
C110	C	0.880622	-0.070421	0.571937
C111	C	1.130622	0.179579	0.821937
C112	C	1.380622	0.429579	1.071937
C113	C	0.592090	-0.363764	0.365351
C114	C	0.842090	-0.113764	0.615351
C115	C	1.092090	0.136236	0.865351
C116	C	1.342090	0.386236	1.115351
C117	C	0.480639	-0.401744	0.403391
C118	C	0.730639	-0.151744	0.653391
C119	C	0.980639	0.098256	0.903391
C120	C	1.230639	0.348256	1.153391
C121	C	0.517252	-0.360565	0.362155
C122	C	0.767252	-0.110565	0.612155
C123	C	1.017252	0.139435	0.862155
C124	C	1.267252	0.389435	1.112155
C125	C	0.990734	-0.563280	0.389875
C126	C	1.240734	-0.313280	0.639875
C127	C	1.490734	-0.063280	0.889875
C128	C	1.740734	0.186720	1.139875
C129	C	0.987437	-0.641206	0.392950
C130	C	1.237437	-0.391206	0.642950
C131	C	1.487437	-0.141206	0.892950
C132	C	1.737437	0.108794	1.142950
C133	C	1.030759	-0.679712	0.353071
C134	C	1.280759	-0.429712	0.603071
C135	C	1.530759	-0.179712	0.853071
C136	C	1.780759	0.070288	1.103071
C137	C	1.027663	-0.752932	0.355968
C138	C	1.277663	-0.502932	0.605968
C139	C	1.527663	-0.252932	0.855968
C140	C	1.777663	-0.002932	1.105968
C141	C	0.981241	-0.787645	0.398741
C142	C	1.231241	-0.537645	0.648741
C143	C	1.481241	-0.287645	0.898741
C144	C	1.731241	-0.037645	1.148741
C145	C	0.937918	-0.749133	0.438625
C146	C	1.187918	-0.499133	0.688625
C147	C	1.437918	-0.249133	0.938625
C148	C	1.687918	0.000867	1.188625
C149	C	0.941018	-0.675915	0.435731
C150	C	1.191018	-0.425915	0.685731
C151	C	1.441018	-0.175915	0.935731
C152	C	1.691018	0.074085	1.185731
C153	C	0.969639	-1.008622	0.409549
C154	C	1.219639	-0.758622	0.659549
C155	C	1.469639	-0.508622	0.909549
C156	C	1.719639	-0.258622	1.159549
C157	C	0.966541	-1.081846	0.412438
C158	C	1.216541	-0.831846	0.662438
C159	C	1.466541	-0.581846	0.912438
C160	C	1.716541	-0.331846	1.162438
C161	C	1.056287	-1.085640	0.329781
C162	C	1.306287	-0.835640	0.579781
C163	C	1.556287	-0.585640	0.829781
C164	C	1.806287	-0.335640	1.079781
C165	C	1.059380	-1.012420	0.326888
C166	C	1.309380	-0.762420	0.576888
C167	C	1.559380	-0.512420	0.826888
C168	C	1.809380	-0.262420	1.076888
C169	C	1.016060	-0.973915	0.366775
C170	C	1.266060	-0.723915	0.616775
C171	C	1.516060	-0.473915	0.866775
C172	C	1.766060	-0.223915	1.116775
C173	C	0.978074	-0.862487	0.401701
C174	C	1.228074	-0.612487	0.651701
C175	C	1.478074	-0.362487	0.901701
C176	C	1.728074	-0.112487	1.151701
C177	C	1.019231	-0.899074	0.363818
C178	C	1.269231	-0.649074	0.613818
C179	C	1.519231	-0.399074	0.863818
C180	C	1.769231	-0.149074	1.113818
C181	C	1.181445	-0.388963	0.390591
C182	C	1.431445	-0.138963	0.640591
C183	C	1.681445	0.111037	0.890591
C184	C	1.931445	0.361037	1.140591
C185	C	1.259368	-0.392299	0.393935
C186	C	1.509368	-0.142299	0.643935
C187	C	1.759368	0.107701	0.893935
C188	C	2.009368	0.357701	1.143935
C189	C	0.998583	-0.381139	0.559287
C190	C	1.248583	-0.131139	0.809287
C191	C	1.498583	0.118861	1.059287
C192	C	1.748583	0.368861	1.309287
C193	C	0.998581	-0.381142	0.634519
C194	C	1.248581	-0.131142	0.884519
C195	C	1.498581	0.118858	1.134519
C196	C	1.748581	0.368858	1.384519
C197	C	1.006494	-0.198275	0.375602
C198	C	1.256494	0.051725	0.625602
C199	C	1.506494	0.301725	0.875602
C200	C	1.756494	0.551725	1.125602
C201	C	1.009863	-0.120352	0.372558
C202	C	1.259863	0.129648	0.622558
C203	C	1.509863	0.379648	0.872558
C204	C	1.759863	0.629648	1.122558
C205	C	1.045356	-0.338218	1.096484
C206	C	1.295356	-0.088218	1.346484
C207	C	1.545356	0.161782	1.596484
C208	C	1.795356	0.411782	1.846484
C209	C	1.045358	-0.338222	1.025796
C210	C	1.295358	-0.088222	1.275796
C211	C	1.545358	0.161778	1.525796
C212	C	1.795358	0.411778	1.775796
C213	C	0.998586	-0.381137	0.990281
C214	C	1.248586	-0.131137	1.240281
C215	C	1.498586	0.118863	1.490281
C216	C	1.748586	0.368863	1.740281
C217	C	0.951814	-0.424057	1.025459
C218	C	1.201814	-0.174057	1.275459
C219	C	1.451814	0.075943	1.525459
C220	C	1.701814	0.325943	1.775459
C221	C	0.951816	-0.424057	1.096146
C222	C	1.201816	-0.174057	1.346146
C223	C	1.451816	0.075943	1.596146
C224	C	1.701816	0.325943	1.846146
C225	C	0.951807	-0.424059	0.740385
C226	C	1.201807	-0.174059	0.990385
C227	C	1.451807	0.075941	1.240385
C228	C	1.701807	0.325941	1.490385
C229	C	0.951807	-0.424054	0.669693
C230	C	1.201807	-0.174054	0.919693
C231	C	1.451807	0.075946	1.169693
C232	C	1.701807	0.325946	1.419693
C233	C	1.045349	-0.338224	0.670035
C234	C	1.295349	-0.088224	0.920035
C235	C	1.545349	0.161776	1.170035
C236	C	1.795349	0.411776	1.420035
C237	C	1.045351	-0.338224	0.740722
C238	C	1.295351	-0.088224	0.990722
C239	C	1.545351	0.161776	1.240722
C240	C	1.795351	0.411776	1.490722
C241	C	0.998581	-0.381146	0.775894
C242	C	1.248581	-0.131146	1.025894
C243	C	1.498581	0.118854	1.275894
C244	C	1.748581	0.368854	1.525894
C245	C	0.998580	-0.381143	0.852542
C246	C	1.248580	-0.131143	1.102542
C247	C	1.498580	0.118857	1.352542
C248	C	1.748580	0.368857	1.602542
C249	C	0.998583	-0.381137	0.913634
C250	C	1.248583	-0.131137	1.163634
C251	C	1.498583	0.118863	1.413634
C252	C	1.748583	0.368863	1.663634
C253	C	0.998588	-0.381140	1.206889
C254	C	1.248588	-0.131140	1.456889
C255	C	1.498588	0.118860	1.706889
C256	C	1.748588	0.368860	1.956889
C257	C	0.998586	-0.381133	1.131656
C258	C	1.248586	-0.131133	1.381656
C259	C	1.498586	0.118867	1.631656
C260	C	1.748586	0.368867	1.881656
H261	H	0.728223	-0.451201	0.452907
H262	H	0.978223	-0.201201	0.702907
H263	H	1.228223	0.048799	0.952907
H264	H	1.478223	0.298799	1.202907
Br265	Br	0.470184	-0.297494	0.299007
Br266	Br	0.720184	-0.047494	0.549007
Br267	Br	0.970184	0.202506	0.799007
Br268	Br	1.220184	0.452506	1.049007
H269	H	0.913735	-0.459002	0.996537
H270	H	1.163735	-0.209002	1.246537
H271	H	1.413735	0.040998	1.496537
H272	H	1.663735	0.290998	1.746537
Br273	Br	1.082234	-0.851964	0.305774
Br274	Br	1.332234	-0.601964	0.555774
Br275	Br	1.582234	-0.351964	0.805774
Br276	Br	1.832234	-0.101964	1.055774
Br277	Br	0.903524	-1.128955	0.470480
Br278	Br	1.153524	-0.878955	0.720480
Br279	Br	1.403524	-0.628955	0.970480
Br280	Br	1.653524	-0.378955	1.220480
H281	H	0.595402	-0.445530	0.447236
H282	H	0.845402	-0.195530	0.697236
H283	H	1.095402	0.054470	0.947236
H284	H	1.345402	0.304470	1.197236
Br285	Br	0.527713	-0.464822	0.466533
Br286	Br	0.777713	-0.214822	0.716533
Br287	Br	1.027713	0.035178	0.966533
Br288	Br	1.277713	0.285178	1.216533
H289	H	1.083432	-0.303276	0.641390
H290	H	1.333432	-0.053276	0.891390
H291	H	1.583432	0.196724	1.141390
H292	H	1.833432	0.446724	1.391390
H293	H	0.940276	-0.890758	0.436526
H294	H	1.190276	-0.640758	0.686526
H295	H	1.440276	-0.390758	0.936526
H296	H	1.690276	-0.140758	1.186526
H297	H	0.934365	-0.977277	0.442025
H298	H	1.184365	-0.727277	0.692025
H299	H	1.434365	-0.477277	0.942025
H300	H	1.684365	-0.227277	1.192025
Br301	Br	0.874922	-0.796242	0.496682
Br302	Br	1.124922	-0.546242	0.746682
Br303	Br	1.374922	-0.296242	0.996682
Br304	Br	1.624922	-0.046242	1.246682
H305	H	1.083439	-0.303267	1.125394
H306	H	1.333439	-0.053267	1.375394
H307	H	1.583439	0.196733	1.625394
H308	H	1.833439	0.446733	1.875394
Br309	Br	1.108835	-0.279986	0.788918
Br310	Br	1.358835	-0.029986	1.038918
Br311	Br	1.608835	0.220014	1.288918
Br312	Br	1.858835	0.470014	1.538918
Br313	Br	0.250840	-0.285890	0.287365
Br314	Br	0.500840	-0.035890	0.537365
Br315	Br	0.750840	0.214110	0.787365
Br316	Br	1.000840	0.464110	1.037365
H317	H	0.602390	-0.282584	0.284039
H318	H	0.852390	-0.032584	0.534039
H319	H	1.102390	0.217416	0.784039
H320	H	1.352390	0.467416	1.034039
H321	H	1.083445	-0.303278	0.997161
H322	H	1.333445	-0.053278	1.247161
H323	H	1.583445	0.196722	1.497161
H324	H	1.833445	0.446722	1.747161
Br325	Br	0.882227	-0.623655	0.489860
Br326	Br	1.132227	-0.373655	0.739860
Br327	Br	1.382227	-0.123655	0.989860
Br328	Br	1.632227	0.126345	1.239860
H329	H	0.402489	-0.316785	0.318307
H330	H	0.652489	-0.066785	0.568307
H331	H	0.902489	0.183215	0.818307
H332	H	1.152489	0.433215	1.068307
H333	H	0.735220	-0.288252	0.289717
H334	H	0.985220	-0.038252	0.539717
H335	H	1.235220	0.211748	0.789717
H336	H	1.485220	0.461748	1.039717
Br337	Br	1.093757	-0.632610	0.295012
Br338	Br	1.343757	-0.382610	0.545012
Br339	Br	1.593757	-0.132610	0.795012
Br340	Br	1.843757	0.117390	1.045012
Br341	Br	0.888326	-0.482299	0.621494
Br342	Br	1.138326	-0.232299	0.871494
Br343	Br	1.388326	0.017701	1.121494
Br344	Br	1.638326	0.267701	1.371494
H345	H	0.395505	-0.479730	0.481497
H346	H	0.645505	-0.229730	0.731497
H347	H	0.895505	0.020270	0.981497
H348	H	1.145505	0.270270	1.231497
Br349	Br	0.888339	-0.482316	0.788110
Br350	Br	1.138339	-0.232316	1.038110
Br351	Br	1.388339	0.017684	1.288110
Br352	Br	1.638339	0.267684	1.538110
Br353	Br	1.122393	-0.965316	0.268845
Br354	Br	1.372393	-0.715316	0.518845
Br355	Br	1.622393	-0.465316	0.768845
Br356	Br	1.872393	-0.215316	1.018845
H357	H	0.913732	-0.459003	1.124782
H358	H	1.163732	-0.209003	1.374782
H359	H	1.413732	0.040997	1.624782
H360	H	1.663732	0.290997	1.874782
Br361	Br	1.115080	-1.137900	0.275656
Br362	Br	1.365080	-0.887900	0.525656
Br363	Br	1.615080	-0.637900	0.775656
Br364	Br	1.865080	-0.387900	1.025656
H365	H	0.262672	-0.474062	0.475827
H366	H	0.512672	-0.224062	0.725827
H367	H	0.762672	0.025938	0.975827
H368	H	1.012672	0.275938	1.225827
H369	H	1.062940	-0.784281	0.323493
H370	H	1.312940	-0.534281	0.573493
H371	H	1.562940	-0.284281	0.823493
H372	H	1.812940	-0.034281	1.073493
