data_functionalizedCrystal
_audit_creation_method	'MofGen! by Chris Wilmer'
_symmetry_space_group_name_H-M	'P1'
_symmetry_Int_Tables_number	1
_symmetry_cell_setting	triclinic
loop_
_symmetry_equiv_pos_as_xyz
  x,y,z
_cell_length_a	17.640112
_cell_length_b	13.897448
_cell_length_c	17.640968
_cell_angle_alpha	101.231639
_cell_angle_beta	87.860920
_cell_angle_gamma	101.242525
loop_
_atom_site_label
_atom_site_type_symbol
_atom_site_fract_x
_atom_site_fract_y
_atom_site_fract_z
Zn1	Zn	1.247780	-0.027714	0.195080
Zn2	Zn	1.222024	-0.226719	0.068097
Zn3	Zn	1.095117	-0.090459	0.093726
Zn4	Zn	1.120765	-0.214022	0.220679
O5	O	1.171421	-0.139729	0.144395
O6	O	1.350631	-0.033168	0.156796
O7	O	1.183677	-0.240217	-0.034777
O8	O	1.115413	0.052860	0.107183
O9	O	1.331709	-0.179376	0.063502
O10	O	1.227574	0.098958	0.181648
O11	O	1.090439	-0.140107	-0.015947
O12	O	0.992251	-0.127795	0.132005
O13	O	1.159126	-0.157736	0.323556
O14	O	1.011094	-0.218577	0.225277
O15	O	1.252444	-0.020856	0.304749
O16	O	1.208547	-0.360031	0.088325
O17	O	1.134152	-0.350703	0.200426
C18	C	0.974119	-0.178617	0.184201
C19	C	0.889716	-0.195272	0.201248
C20	C	0.563040	-0.013187	0.014898
C21	C	0.483732	-0.028853	0.030926
C22	C	0.503374	-0.123604	0.127883
C23	C	0.582686	-0.107942	0.111865
C24	C	0.612512	-0.052734	0.055371
C25	C	0.632158	-0.147488	0.152339
C26	C	0.711462	-0.131831	0.136319
C27	C	0.741294	-0.076628	0.079826
C28	C	0.691816	-0.037077	0.039352
C29	C	0.602329	-0.202701	0.208829
C30	C	0.651801	-0.242247	0.249302
C31	C	0.731108	-0.226585	0.233287
C32	C	0.760940	-0.171382	0.176794
C33	C	0.780586	-0.266136	0.273761
C34	C	0.859889	-0.250480	0.257742
C35	C	0.840244	-0.155726	0.160774
C36	C	1.171362	-0.390361	0.144385
C37	C	1.171411	-0.497561	0.144391
C38	C	1.171500	-0.693826	0.144423
C39	C	1.171449	-0.584610	0.144408
C40	C	1.369495	-0.100689	0.104435
C41	C	1.453902	-0.084053	0.087406
C42	C	1.211519	-0.080881	0.342478
C43	C	1.228606	-0.055803	0.426890
C44	C	1.171506	0.111891	0.144419
C45	C	1.171541	0.219116	0.144429
C46	C	1.131524	-0.198270	-0.052926
C47	C	1.114584	-0.223047	-0.137366
C48	C	1.041904	-0.329658	0.753462
C49	C	1.057976	-0.306079	0.832776
C50	C	1.155140	-0.163558	0.813183
C51	C	1.139073	-0.187123	0.733866
C52	C	1.082455	-0.270175	0.704012
C53	C	1.179624	-0.127639	0.684416
C54	C	1.163562	-0.151206	0.605106
C55	C	1.106948	-0.234255	0.575246
C56	C	1.066393	-0.293741	0.624702
C57	C	1.236246	-0.044592	0.714271
C58	C	1.276797	0.014891	0.664821
C59	C	1.260731	-0.008670	0.585510
C60	C	1.204117	-0.091720	0.555650
C61	C	1.301286	0.050815	0.536054
C62	C	1.285224	0.027249	0.456744
C63	C	1.188055	-0.115286	0.476339
H64	H	0.479078	-0.168557	0.173878
H65	H	1.024950	-0.354524	0.873037
N66	N	1.212961	-0.078723	0.843698
N67	N	1.195219	-0.009374	0.893355
H68	H	1.236054	0.050545	0.914908
H69	H	1.318244	0.075688	0.416480
N70	N	0.433208	0.011566	-0.010417
N71	N	0.443119	0.103846	-0.007048
H72	H	0.407436	0.132392	-0.036247
N73	N	0.521324	-0.218670	0.225202
N74	N	0.489181	-0.145690	0.248337
H75	H	0.431972	-0.156962	0.259905
N76	N	0.870729	-0.099339	0.103066
N77	N	0.941537	-0.085374	0.088770
H78	H	0.963070	-0.045555	0.048015
H79	H	1.249324	-0.025409	0.778851
H80	H	1.141933	-0.182896	0.452035
N81	N	1.334631	0.099714	0.695332
N82	N	1.348969	0.120744	0.766144
H83	H	1.389815	0.180653	0.787692
N84	N	0.722284	0.019307	-0.018364
N85	N	0.756714	-0.020193	-0.075742
H86	H	0.778232	0.019625	-0.116503
N87	N	1.359125	0.135633	0.566565
N88	N	1.373465	0.156656	0.637377
H89	H	1.414315	0.216558	0.658926
N90	N	0.822303	-0.060615	0.063471
N91	N	0.860938	0.026336	0.072296
H92	H	0.918151	0.037647	0.060746
H93	H	0.587328	0.031786	-0.031094
H94	H	0.627505	-0.287201	0.295297
H95	H	0.900171	-0.282681	0.290700
N96	N	0.750111	-0.322549	0.331451
N97	N	0.700428	-0.400669	0.313580
H98	H	0.678905	-0.440514	0.354323
N99	N	1.090524	-0.258320	0.494235
N100	N	1.024123	-0.260347	0.470801
H101	H	1.012521	-0.277342	0.413587
N102	N	1.008545	-0.378570	0.594214
N103	N	0.972334	-0.431669	0.638374
H104	H	0.931480	-0.491576	0.616842
N105	N	0.984057	-0.414487	0.722974
N106	N	0.947846	-0.467586	0.767134
H107	H	0.906992	-0.527493	0.745602
