data_functionalizedCrystal
_audit_creation_method	'MofGen! by Chris Wilmer'
_symmetry_space_group_name_H-M	'P1'
_symmetry_Int_Tables_number	1
_symmetry_cell_setting	triclinic
loop_
_symmetry_equiv_pos_as_xyz
  x,y,z
_cell_length_a	6.817900
_cell_length_b	12.000032
_cell_length_c	11.452834
_cell_angle_alpha	78.615776
_cell_angle_beta	108.697278
_cell_angle_gamma	119.142083
loop_
_atom_site_label
_atom_site_type_symbol
_atom_site_fract_x
_atom_site_fract_y
_atom_site_fract_z
V1	V	-4.098659	-0.091945	-0.381719
O2	O	-3.995216	0.091334	-0.372340
O3	O	-4.135846	-0.265902	-0.381140
O4	O	-4.042306	-0.052393	-0.547273
O5	O	-4.089404	-0.123654	-0.205057
V6	V	-4.572227	-0.074528	-0.360342
O7	O	-4.381754	-0.130148	-0.428611
O8	O	-4.739330	-0.036325	-0.313450
O9	O	-4.311833	0.099429	-0.360921
O10	O	-4.793067	-0.257807	-0.369721
O11	O	-4.698879	-0.042819	-0.537004
O12	O	-4.405374	-0.114080	-0.194788
C13	C	-4.001926	-0.309501	-0.375643
C14	C	-4.113564	-0.451469	-0.376273
C15	C	-3.987453	-0.509877	-0.370707
C16	C	-4.102834	-0.656607	-0.371359
C17	C	-3.882603	-0.037148	-0.587560
C18	C	-3.918378	-0.005961	-0.722914
C19	C	-4.026636	-0.099345	-0.801079
C20	C	-4.063613	-0.067114	-0.940975
C21	C	-4.109100	0.143021	-0.366415
C22	C	-3.976699	0.284989	-0.365792
C23	C	-4.228421	-0.129331	-0.154495
C24	C	-4.171882	-0.160511	-0.019139
H25	H	-3.783301	-0.656394	-0.360541
H26	H	-4.306947	-0.510093	-0.381508
H27	H	-3.794063	-0.451254	-0.365453
H28	H	-4.296226	-0.715227	-0.376594
H29	H	-3.853081	0.097848	-0.759564
Br30	Br	-4.135529	-0.272376	-0.740010
Br31	Br	-3.954766	0.105922	-1.002040
H32	H	-4.237205	-0.264329	-0.982498
