data_functionalizedCrystal
_audit_creation_method	'MofGen! by Chris Wilmer'
_symmetry_space_group_name_H-M	'P1'
_symmetry_Int_Tables_number	1
_symmetry_cell_setting	triclinic
loop_
_symmetry_equiv_pos_as_xyz
  x,y,z
_cell_length_a	14.519731
_cell_length_b	16.974800
_cell_length_c	16.053802
_cell_angle_alpha	91.074188
_cell_angle_beta	87.424035
_cell_angle_gamma	96.461236
loop_
_atom_site_label
_atom_site_type_symbol
_atom_site_fract_x
_atom_site_fract_y
_atom_site_fract_z
O1	O	-0.117558	1.049250	0.001503
O2	O	-0.131676	0.819809	-0.014006
O3	O	0.009617	0.940605	-0.005847
O4	O	-0.258851	0.928455	-0.006656
O5	O	0.001872	0.933956	0.132563
O6	O	-0.139421	0.813160	0.124404
O7	O	-0.125303	1.042601	0.139913
Zn8	Zn	-0.133592	0.926825	0.154134
Zn9	Zn	-0.123387	0.935585	-0.028227
O10	O	-0.266596	0.921806	0.131754
C11	C	-0.134869	0.787121	0.053214
C12	C	-0.132836	0.699625	0.047299
C13	C	-0.136100	0.654900	0.119969
C14	C	-0.134175	0.572690	0.114414
C15	C	-0.128992	0.535206	0.036188
C16	C	-0.125724	0.579938	-0.036488
C17	C	-0.127643	0.662147	-0.030932
C18	C	-0.122794	0.289726	0.011481
C19	C	-0.120878	0.207511	0.005930
C20	C	-0.129327	0.200269	0.156833
C21	C	-0.131251	0.282480	0.162382
C22	C	-0.127979	0.327204	0.089706
N23	N	-0.127027	0.451174	0.030508
N24	N	-0.129937	0.411236	0.095387
C25	C	-0.297084	0.925700	0.062589
C26	C	-0.399465	0.927405	0.062708
C27	C	-0.482610	0.928791	0.062799
C28	C	-0.586919	0.930524	0.062908
C29	C	-0.670058	0.931899	0.062994
C30	C	-0.774374	0.933631	0.063105
C31	C	0.040105	0.936711	0.063316
C32	C	0.142486	0.935006	0.063191
C33	C	-0.122109	1.075290	0.072691
C34	C	-0.124143	1.162786	0.078601
N35	N	-0.140555	0.920852	0.278591
N36	N	-0.116416	0.941565	-0.152683
C37	C	-0.080456	0.972270	0.325758
C38	C	-0.085336	0.968099	0.412883
C39	C	-0.150320	0.912514	0.452839
C40	C	-0.210422	0.861091	0.405666
C41	C	-0.205537	0.865259	0.318542
C42	C	-0.171633	0.894309	0.713019
C43	C	-0.176515	0.890147	0.800150
C44	C	-0.051428	0.997154	0.807360
C45	C	-0.046552	1.001320	0.720235
C46	C	-0.106651	0.949895	0.673069
N47	N	-0.155312	0.908251	0.541895
N48	N	-0.101654	0.954154	0.584014
H49	H	-0.120127	0.326132	-0.047697
O50	O	-0.239736	0.836251	0.839005
C51	C	-0.299582	0.876123	0.892258
H52	H	-0.299868	0.939533	0.870187
H53	H	-0.274436	0.877058	0.958566
C54	C	-0.398185	0.754878	0.917779
C55	C	-0.398542	0.832757	0.890667
H56	H	-0.459227	0.728126	0.916802
H57	H	-0.357864	0.728014	0.881905
H58	H	-0.377226	0.755667	0.973034
H59	H	-0.419489	0.831966	0.835410
H60	H	-0.438869	0.859619	0.926533
H61	H	-0.027544	1.017536	0.293231
O62	O	-0.273667	0.807129	0.444385
C63	C	-0.363809	0.821097	0.423976
H64	H	-0.360243	0.854504	0.362766
H65	H	-0.395205	0.858018	0.475654
C66	C	-0.429059	0.700323	0.489736
C67	C	-0.424681	0.741348	0.414553
H68	H	-0.466610	0.651131	0.483927
H69	H	-0.368330	0.690914	0.503490
H70	H	-0.455220	0.731099	0.532793
H71	H	-0.398509	0.710577	0.371500
H72	H	-0.485407	0.750751	0.400792
H73	H	-0.140328	0.685412	0.183670
O74	O	-0.120731	0.543399	-0.112412
C75	C	-0.119717	0.461250	-0.101735
H76	H	-0.152255	0.443686	-0.037868
H77	H	-0.045054	0.446255	-0.106339
C78	C	-0.135550	0.437069	-0.248569
C79	C	-0.175521	0.415496	-0.170129
H80	H	-0.169969	0.408845	-0.290760
H81	H	-0.136230	0.492414	-0.255764
H82	H	-0.073332	0.424572	-0.252394
H83	H	-0.237733	0.428002	-0.166302
H84	H	-0.174853	0.360151	-0.162936
H85	H	0.006363	1.046582	0.687704
H86	H	-0.220569	0.852438	0.674624
O87	O	0.006911	1.047019	0.853301
C88	C	-0.011346	1.031438	0.938768
H89	H	-0.046288	0.968261	0.946450
H90	H	-0.059124	1.074932	0.966498
C91	C	0.123368	1.118602	0.974855
C92	C	0.080459	1.041005	0.984291
H93	H	0.179996	1.124506	1.002937
H94	H	0.135667	1.129102	0.917275
H95	H	0.083544	1.154838	0.997963
H96	H	0.120278	1.004771	0.961173
H97	H	0.068168	1.030499	1.041868
H98	H	-0.124987	0.698561	-0.090108
O99	O	-0.026925	1.018137	0.458577
C100	C	0.031485	1.068085	0.404628
H101	H	-0.002846	1.071989	0.342582
H102	H	0.100603	1.042855	0.393641
C103	C	0.090463	1.146660	0.520557
C104	C	0.048293	1.151460	0.444354
H105	H	0.100836	1.198088	0.545062
H106	H	0.051114	1.113007	0.556905
H107	H	0.148057	1.125631	0.511390
H108	H	-0.009304	1.172478	0.453522
H109	H	0.087633	1.185118	0.408009
O110	O	-0.263953	0.815426	0.272637
C111	C	-0.318171	0.860123	0.225100
H112	H	-0.280902	0.922365	0.216201
H113	H	-0.388231	0.863967	0.259038
C114	C	-0.378873	0.743227	0.150278
C115	C	-0.333095	0.819672	0.139343
H116	H	-0.388083	0.718274	0.097381
H117	H	-0.342348	0.713113	0.182307
H118	H	-0.437251	0.746441	0.178563
H119	H	-0.274714	0.816457	0.111068
H120	H	-0.369611	0.849785	0.107307
O121	O	-0.137229	0.529347	0.185070
C122	C	-0.060460	0.556041	0.232911
H123	H	-0.034051	0.619698	0.215680
H124	H	-0.002914	0.516448	0.219749
C125	C	-0.122448	0.474513	0.347388
C126	C	-0.090016	0.552699	0.326230
H127	H	-0.140677	0.472448	0.404952
H128	H	-0.174167	0.456525	0.315156
H129	H	-0.074487	0.441527	0.336413
H130	H	-0.137980	0.585681	0.337195
H131	H	-0.038305	0.570692	0.358466
H132	H	-0.131990	0.163846	0.216001
O133	O	-0.136119	0.318867	0.238394
C134	C	-0.058433	0.305370	0.283538
H135	H	0.000341	0.291055	0.238279
H136	H	-0.077993	0.253397	0.327221
C137	C	-0.098733	0.397756	0.390568
C138	C	-0.026542	0.380180	0.334979
H139	H	-0.079062	0.443899	0.422303
H140	H	-0.151073	0.406847	0.360156
H141	H	-0.115026	0.354439	0.426962
H142	H	-0.010258	0.423492	0.298579
H143	H	0.025802	0.371097	0.365387
H144	H	-0.116660	0.176994	-0.057774
