data_functionalizedCrystal
_audit_creation_method	'MofGen! by Chris Wilmer'
_symmetry_space_group_name_H-M	'P1'
_symmetry_Int_Tables_number	1
_symmetry_cell_setting	triclinic
loop_
_symmetry_equiv_pos_as_xyz
  x,y,z
_cell_length_a	19.188900
_cell_length_b	12.837942
_cell_length_c	17.666332
_cell_angle_alpha	90.000789
_cell_angle_beta	90.014953
_cell_angle_gamma	88.980715
loop_
_atom_site_label
_atom_site_type_symbol
_atom_site_fract_x
_atom_site_fract_y
_atom_site_fract_z
O1	O	-0.935024	-0.129224	-0.063096
O2	O	-0.685024	0.120776	0.186904
O3	O	-0.435024	0.370776	0.436904
O4	O	-0.185024	0.620776	0.686904
O5	O	-0.732907	-0.146673	-0.063066
O6	O	-0.482907	0.103327	0.186934
O7	O	-0.232907	0.353327	0.436934
O8	O	0.017093	0.603327	0.686934
O9	O	-0.829484	0.012934	-0.063076
O10	O	-0.579484	0.262934	0.186924
O11	O	-0.329484	0.512934	0.436924
O12	O	-0.079484	0.762934	0.686924
O13	O	-0.838447	-0.288830	-0.063086
O14	O	-0.588447	-0.038830	0.186914
O15	O	-0.338447	0.211170	0.436914
O16	O	-0.088447	0.461170	0.686914
O17	O	-0.829470	0.012928	0.062821
O18	O	-0.579470	0.262928	0.312821
O19	O	-0.329470	0.512928	0.562821
O20	O	-0.079470	0.762928	0.812821
O21	O	-0.732893	-0.146678	0.062831
O22	O	-0.482893	0.103322	0.312831
O23	O	-0.232893	0.353322	0.562831
O24	O	0.017107	0.603322	0.812831
O25	O	-0.935010	-0.129229	0.062801
O26	O	-0.685010	0.120771	0.312801
O27	O	-0.435010	0.370771	0.562801
O28	O	-0.185010	0.620771	0.812801
Cu29	Cu	-0.833950	-0.137954	0.074311
Cu30	Cu	-0.583950	0.112046	0.324311
Cu31	Cu	-0.333950	0.362046	0.574311
Cu32	Cu	-0.083950	0.612046	0.824311
Cu33	Cu	-0.833967	-0.137948	-0.074576
Cu34	Cu	-0.583967	0.112052	0.175424
Cu35	Cu	-0.333967	0.362052	0.425424
Cu36	Cu	-0.083967	0.612052	0.675424
O37	O	-0.838433	-0.288835	0.062810
O38	O	-0.588433	-0.038835	0.312810
O39	O	-0.338433	0.211165	0.562810
O40	O	-0.088433	0.461165	0.812810
C41	C	-0.706850	-0.146115	-0.000113
C42	C	-0.456850	0.103885	0.249887
C43	C	-0.206850	0.353885	0.499887
C44	C	0.043150	0.603885	0.749887
C45	C	-0.629229	-0.144435	-0.000102
C46	C	-0.379229	0.105565	0.249898
C47	C	-0.129229	0.355565	0.499898
C48	C	0.120771	0.605565	0.749898
C49	C	-0.592789	-0.143625	-0.068729
C50	C	-0.342789	0.106375	0.181271
C51	C	-0.092789	0.356375	0.431271
C52	C	0.157211	0.606375	0.681271
C53	C	-0.519856	-0.142034	-0.068737
C54	C	-0.269856	0.107966	0.181263
C55	C	-0.019856	0.357966	0.431263
C56	C	0.230144	0.607966	0.681263
C57	C	-0.483366	-0.141233	-0.000113
C58	C	-0.233366	0.108767	0.249887
C59	C	0.016634	0.358767	0.499887
C60	C	0.266634	0.608767	0.749887
C61	C	-0.519815	-0.142049	0.068524
C62	C	-0.269815	0.107951	0.318524
C63	C	-0.019815	0.357951	0.568524
C64	C	0.230185	0.607951	0.818524
C65	C	-0.592746	-0.143650	0.068529
C66	C	-0.342746	0.106350	0.318529
C67	C	-0.092746	0.356350	0.568529
C68	C	0.157254	0.606350	0.818529
N69	N	-0.370123	-0.079748	0.050961
N70	N	-0.120123	0.170252	0.300961
N71	N	0.129877	0.420252	0.550961
N72	N	0.379877	0.670252	0.800961
N73	N	-0.300841	-0.078225	0.050951
N74	N	-0.050841	0.171775	0.300951
N75	N	0.199159	0.421775	0.550951
N76	N	0.449159	0.671775	0.800951
C77	C	-0.263629	-0.136411	-0.000126
C78	C	-0.013629	0.113589	0.249874
C79	C	0.236371	0.363589	0.499874
C80	C	0.486371	0.613589	0.749874
N81	N	-0.298315	-0.196165	-0.051204
N82	N	-0.048315	0.053835	0.198796
N83	N	0.201685	0.303835	0.448796
N84	N	0.451685	0.553835	0.698796
N85	N	-0.367603	-0.197683	-0.051196
N86	N	-0.117603	0.052317	0.198804
N87	N	0.132397	0.302317	0.448804
N88	N	0.382397	0.552317	0.698804
C89	C	-0.404285	-0.139497	-0.000111
C90	C	-0.154285	0.110503	0.249889
C91	C	0.095715	0.360503	0.499889
C92	C	0.345715	0.610503	0.749889
C93	C	-0.148107	-0.133877	-0.068766
C94	C	0.101893	0.116123	0.181234
C95	C	0.351893	0.366123	0.431234
C96	C	0.601893	0.616123	0.681234
C97	C	-0.075172	-0.132293	-0.068771
C98	C	0.174828	0.117707	0.181229
C99	C	0.424828	0.367707	0.431229
C100	C	0.674828	0.617707	0.681229
C101	C	-0.075132	-0.132298	0.068491
C102	C	0.174868	0.117702	0.318491
C103	C	0.424868	0.367702	0.568491
C104	C	0.674868	0.617702	0.818491
C105	C	-0.148065	-0.133892	0.068494
C106	C	0.101935	0.116108	0.318494
C107	C	0.351935	0.366108	0.568494
C108	C	0.601935	0.616108	0.818494
C109	C	-0.184548	-0.134677	-0.000137
C110	C	0.065452	0.115323	0.249863
C111	C	0.315452	0.365323	0.499863
C112	C	0.565452	0.615323	0.749863
C113	C	0.038933	-0.129793	-0.000148
C114	C	0.288933	0.120207	0.249852
C115	C	0.538933	0.370207	0.499852
C116	C	0.788933	0.620207	0.749852
C117	C	-0.038687	-0.131494	-0.000146
C118	C	0.211313	0.118506	0.249854
C119	C	0.461313	0.368506	0.499854
C120	C	0.711313	0.618506	0.749854
C121	C	-0.826449	0.051537	-0.000127
C122	C	-0.576449	0.301537	0.249873
C123	C	-0.326449	0.551537	0.499873
C124	C	-0.076449	0.801537	0.749873
C125	C	-0.817418	0.166572	-0.000127
C126	C	-0.567418	0.416572	0.249873
C127	C	-0.317418	0.666572	0.499873
C128	C	-0.067418	0.916572	0.749873
C129	C	-0.841468	-0.327439	-0.000140
C130	C	-0.591468	-0.077439	0.249860
C131	C	-0.341468	0.172561	0.499860
C132	C	-0.091468	0.422561	0.749860
C133	C	-0.850499	-0.442474	-0.000145
C134	C	-0.600499	-0.192474	0.249855
C135	C	-0.350499	0.057526	0.499855
C136	C	-0.100499	0.307526	0.749855
N137	N	-0.833944	-0.137958	0.179031
N138	N	-0.583944	0.112042	0.429031
N139	N	-0.333944	0.362042	0.679031
N140	N	-0.083944	0.612042	0.929031
C141	C	-0.925986	0.408040	-0.000159
C142	C	-0.675986	0.658040	0.249841
C143	C	-0.425986	0.908040	0.499841
C144	C	-0.175986	1.158040	0.749841
C145	C	-0.917504	0.516126	-0.000159
C146	C	-0.667504	0.766126	0.249841
C147	C	-0.417504	1.016126	0.499841
C148	C	-0.167504	1.266126	0.749841
C149	C	-0.791972	0.490832	-0.000132
C150	C	-0.541972	0.740832	0.249868
C151	C	-0.291972	0.990832	0.499868
C152	C	-0.041972	1.240832	0.749868
C153	C	-0.800454	0.382746	-0.000132
C154	C	-0.550454	0.632746	0.249868
C155	C	-0.300454	0.882746	0.499868
C156	C	-0.050454	1.132746	0.749868
C157	C	-0.867463	0.341354	-0.000145
C158	C	-0.617463	0.591354	0.249855
C159	C	-0.367463	0.841354	0.499855
C160	C	-0.117463	1.091354	0.749855
C161	C	-0.875945	0.233266	-0.000139
C162	C	-0.625945	0.483266	0.249861
C163	C	-0.375945	0.733266	0.499861
C164	C	-0.125945	0.983266	0.749861
C165	C	-0.750414	0.207975	-0.000118
C166	C	-0.500414	0.457975	0.249882
C167	C	-0.250414	0.707975	0.499882
C168	C	-0.000414	0.957975	0.749882
C169	C	-0.741932	0.316061	-0.000118
C170	C	-0.491932	0.566061	0.249882
C171	C	-0.241932	0.816061	0.499882
C172	C	0.008068	1.066061	0.749882
N173	N	-0.833978	-0.137936	-0.179296
N174	N	-0.583978	0.112064	0.070704
N175	N	-0.333978	0.362064	0.320704
N176	N	-0.083978	0.612064	0.570704
C177	C	-0.880492	-0.200616	0.781071
C178	C	-0.630492	0.049384	1.031071
C179	C	-0.380492	0.299384	1.281071
C180	C	-0.130492	0.549384	1.531071
C181	C	-0.880486	-0.200627	0.701823
C182	C	-0.630486	0.049373	0.951823
C183	C	-0.380486	0.299373	1.201823
C184	C	-0.130486	0.549373	1.451823
C185	C	-0.833972	-0.137937	0.662212
C186	C	-0.583972	0.112063	0.912212
C187	C	-0.333972	0.362063	1.162212
C188	C	-0.083972	0.612063	1.412212
C189	C	-0.787449	-0.075252	0.701855
C190	C	-0.537449	0.174748	0.951855
C191	C	-0.287449	0.424748	1.201855
C192	C	-0.037449	0.674748	1.451855
C193	C	-0.787452	-0.075252	0.781101
C194	C	-0.537452	0.174748	1.031101
C195	C	-0.287452	0.424748	1.281101
C196	C	-0.037452	0.674748	1.531101
N197	N	-0.826055	-0.047161	0.537791
N198	N	-0.576055	0.202839	0.787791
N199	N	-0.326055	0.452839	1.037791
N200	N	-0.076055	0.702839	1.287791
N201	N	-0.826057	-0.047164	0.462511
N202	N	-0.576057	0.202836	0.712511
N203	N	-0.326057	0.452836	0.962511
N204	N	-0.076057	0.702836	1.212511
C205	C	-0.833960	-0.137937	0.423448
C206	C	-0.583960	0.112063	0.673448
C207	C	-0.333960	0.362063	0.923448
C208	C	-0.083960	0.612063	1.173448
N209	N	-0.841875	-0.228707	0.462509
N210	N	-0.591875	0.021293	0.712509
N211	N	-0.341875	0.271293	0.962509
N212	N	-0.091875	0.521293	1.212509
N213	N	-0.841877	-0.228702	0.537797
N214	N	-0.591877	0.021298	0.787797
N215	N	-0.341877	0.271298	1.037797
N216	N	-0.091877	0.521298	1.287797
C217	C	-0.833964	-0.137931	0.576283
C218	C	-0.583964	0.112069	0.826283
C219	C	-0.333964	0.362069	1.076283
C220	C	-0.083964	0.612069	1.326283
C221	C	-0.880470	-0.200634	0.297885
C222	C	-0.630470	0.049366	0.547885
C223	C	-0.380470	0.299366	0.797885
C224	C	-0.130470	0.549366	1.047885
C225	C	-0.880459	-0.200647	0.218636
C226	C	-0.630459	0.049353	0.468636
C227	C	-0.380459	0.299353	0.718636
C228	C	-0.130459	0.549353	0.968636
C229	C	-0.787425	-0.075263	0.218670
C230	C	-0.537425	0.174737	0.468670
C231	C	-0.287425	0.424737	0.718670
C232	C	-0.037425	0.674737	0.968670
C233	C	-0.787433	-0.075260	0.297917
C234	C	-0.537433	0.174740	0.547917
C235	C	-0.287433	0.424740	0.797917
C236	C	-0.037433	0.674740	1.047917
C237	C	-0.833959	-0.137944	0.337520
C238	C	-0.583959	0.112056	0.587520
C239	C	-0.333959	0.362056	0.837520
C240	C	-0.083959	0.612056	1.087520
H241	H	-0.622415	-0.144311	0.124416
H242	H	-0.372415	0.105689	0.374416
H243	H	-0.122415	0.355689	0.624416
H244	H	0.127585	0.605689	0.874416
H245	H	-0.702760	0.153667	-0.000100
H246	H	-0.452760	0.403667	0.249900
H247	H	-0.202760	0.653667	0.499900
H248	H	0.047240	0.903667	0.749900
H249	H	-0.918351	-0.251680	0.330132
H250	H	-0.668351	-0.001680	0.580132
H251	H	-0.418351	0.248320	0.830132
H252	H	-0.168351	0.498320	1.080132
H253	H	-0.965159	0.570419	-0.000174
H254	H	-0.715159	0.820419	0.249826
H255	H	-0.465159	1.070419	0.499826
H256	H	-0.215159	1.320419	0.749826
Br257	Br	-0.470295	-0.140973	0.161657
Br258	Br	-0.220295	0.109027	0.411657
Br259	Br	0.029705	0.359027	0.661657
Br260	Br	0.279705	0.609027	0.911657
Br261	Br	-0.197623	-0.134950	-0.161905
Br262	Br	0.052377	0.115050	0.088095
Br263	Br	0.302377	0.365050	0.338095
Br264	Br	0.552377	0.615050	0.588095
H265	H	-0.687374	0.349777	-0.000111
H266	H	-0.437374	0.599777	0.249889
H267	H	-0.187374	0.849777	0.499889
H268	H	0.062626	1.099777	0.749889
H269	H	-0.622489	-0.144264	-0.124614
H270	H	-0.372489	0.105736	0.125386
H271	H	-0.122489	0.355736	0.375386
H272	H	0.127511	0.605736	0.625386
Br273	Br	-0.943573	-0.285750	0.164846
Br274	Br	-0.693573	-0.035750	0.414846
Br275	Br	-0.443573	0.214250	0.664846
Br276	Br	-0.193573	0.464250	0.914846
H277	H	-0.918376	-0.251661	0.813311
H278	H	-0.668376	-0.001661	1.063311
H279	H	-0.418376	0.248339	1.313311
H280	H	-0.168376	0.498339	1.563311
H281	H	-0.045504	-0.131640	-0.124658
H282	H	0.204496	0.118360	0.125342
H283	H	0.454496	0.368360	0.375342
H284	H	0.704496	0.618360	0.625342
H285	H	-0.918363	-0.251673	0.669547
H286	H	-0.668363	-0.001673	0.919547
H287	H	-0.418363	0.248327	1.169547
H288	H	-0.168363	0.498327	1.419547
H289	H	-0.749576	-0.024212	0.669599
H290	H	-0.499576	0.225788	0.919599
H291	H	-0.249576	0.475788	1.169599
H292	H	0.000424	0.725788	1.419599
H293	H	-0.749549	-0.024226	0.186419
H294	H	-0.499549	0.225774	0.436419
H295	H	-0.249549	0.475774	0.686419
H296	H	0.000451	0.725774	0.936419
H297	H	-0.749559	-0.024213	0.330187
H298	H	-0.499559	0.225787	0.580187
H299	H	-0.249559	0.475787	0.830187
H300	H	0.000441	0.725787	1.080187
Br301	Br	-0.724320	0.009820	0.834893
Br302	Br	-0.474320	0.259820	1.084893
Br303	Br	-0.224320	0.509820	1.334893
Br304	Br	0.025680	0.759820	1.584893
Br305	Br	-0.966884	0.177092	-0.000148
Br306	Br	-0.716884	0.427092	0.249852
Br307	Br	-0.466884	0.677092	0.499852
Br308	Br	-0.216884	0.927092	0.749852
H309	H	-0.045423	-0.131652	0.124366
H310	H	0.204577	0.118348	0.374366
H311	H	0.454577	0.368348	0.624366
H312	H	0.704577	0.618348	0.874366
H313	H	-0.177735	-0.134545	0.124378
H314	H	0.072265	0.115455	0.374378
H315	H	0.322265	0.365455	0.624378
H316	H	0.572265	0.615455	0.874378
Br317	Br	-0.470391	-0.140937	-0.161880
Br318	Br	-0.220391	0.109063	0.088120
Br319	Br	0.029609	0.359063	0.338120
Br320	Br	0.279609	0.609063	0.588120
H321	H	-0.980547	0.374339	-0.000162
H322	H	-0.730547	0.624339	0.249838
H323	H	-0.480547	0.874339	0.499838
H324	H	-0.230547	1.124339	0.749838
H325	H	-0.737416	0.524553	-0.000131
H326	H	-0.487416	0.774553	0.249869
H327	H	-0.237416	1.024553	0.499869
H328	H	0.012584	1.274553	0.749869
