data_functionalizedCrystal
_audit_creation_method	'MofGen! by Chris Wilmer'
_symmetry_space_group_name_H-M	'P1'
_symmetry_Int_Tables_number	1
_symmetry_cell_setting	triclinic
loop_
_symmetry_equiv_pos_as_xyz
  x,y,z
_cell_length_a	15.995292
_cell_length_b	15.995350
_cell_length_c	15.186229
_cell_angle_alpha	89.998487
_cell_angle_beta	89.995469
_cell_angle_gamma	83.480495
loop_
_atom_site_label
_atom_site_type_symbol
_atom_site_fract_x
_atom_site_fract_y
_atom_site_fract_z
O1	O	1.111015	0.107694	-0.073248
O2	O	0.867233	0.121072	-0.073244
O3	O	0.995788	-0.007506	-0.073245
O4	O	0.982460	0.236272	-0.073247
O5	O	0.995779	-0.007508	0.073212
O6	O	0.867224	0.121070	0.073213
O7	O	1.111006	0.107692	0.073209
Zn8	Zn	0.989114	0.114381	0.096465
Zn9	Zn	0.989125	0.114383	-0.096499
O10	O	0.982451	0.236270	0.073211
C11	C	0.836033	0.120527	-0.000015
C12	C	0.743080	0.118894	-0.000014
C13	C	0.405341	0.112893	-0.000023
C14	C	0.428654	0.205697	-0.000351
C15	C	0.525329	0.207461	-0.000017
C16	C	0.572897	0.115871	-0.000019
C17	C	0.543791	0.069472	0.083613
C18	C	0.447000	0.068355	0.083679
C19	C	0.447154	0.066462	-0.082870
C20	C	0.543647	0.069901	-0.083972
C21	C	0.667593	0.117549	-0.000014
C22	C	0.310646	0.111212	-0.000023
C23	C	0.995232	-0.038702	-0.000018
C24	C	0.993580	-0.131652	-0.000023
C25	C	0.987648	-0.469398	-0.000020
C26	C	0.896094	-0.421945	-0.000347
C27	C	0.897746	-0.325255	-0.000017
C28	C	0.990591	-0.301838	-0.000022
C29	C	1.035744	-0.342926	0.083610
C30	C	1.033444	-0.439561	0.083680
C31	C	1.035345	-0.439918	-0.082870
C32	C	1.035323	-0.342972	-0.083975
C33	C	0.992259	-0.207141	-0.000020
C34	C	0.985983	-0.564095	-0.000016
C35	C	1.142206	0.108237	-0.000022
C36	C	1.235159	0.109870	-0.000029
C37	C	0.983006	0.267466	-0.000018
C38	C	0.984658	0.360416	-0.000019
N39	N	0.989112	0.114379	0.228157
N40	N	0.989133	0.114379	-0.228192
C41	C	1.046056	0.057463	0.453879
C42	C	1.046058	0.057461	0.546069
C43	C	0.932184	0.171297	0.546079
C44	C	0.932178	0.171294	0.453891
C45	C	0.989118	0.114378	0.407794
C46	C	0.989127	0.114379	0.592171
C47	C	0.989129	0.114377	0.692128
C48	C	0.989115	0.114379	0.307831
H49	H	0.543729	0.244017	0.060035
H50	H	1.092419	0.011118	0.416349
F51	F	0.851029	-0.288821	0.078476
H52	H	1.102847	-0.471693	-0.083435
F53	F	1.106657	-0.003117	0.595114
F54	F	0.871588	0.231870	0.595146
H55	H	0.433161	-0.001848	-0.083437
F56	F	0.848265	-0.446154	-0.078738
H57	H	0.418831	0.095470	-0.146258
H58	H	0.859659	-0.441532	0.059294
H59	H	1.100661	-0.471823	0.087471
F60	F	0.871571	0.231870	0.404840
F61	F	1.124900	-0.324483	0.087673
F62	F	0.990395	-0.463477	0.165395
F63	F	0.411941	0.110357	0.165392
F64	F	0.994744	-0.305825	0.164963
F65	F	0.992505	-0.306958	-0.164854
F66	F	0.427978	-0.020580	0.088682
F67	F	0.585436	-0.018626	0.087674
F68	F	0.550205	0.254955	-0.078377
F69	F	0.392066	0.252457	-0.078745
F70	F	1.123820	-0.322908	-0.090586
F71	F	0.390719	0.252196	0.077599
H72	H	0.563846	0.101692	0.145852
H73	H	0.862252	-0.296825	-0.059968
H74	H	1.005415	-0.460450	-0.146258
H75	H	0.576617	0.003049	-0.089025
F76	F	0.567953	0.114036	-0.164844
