data_functionalizedCrystal
_audit_creation_method	'MofGen! by Chris Wilmer'
_symmetry_space_group_name_H-M	'P1'
_symmetry_Int_Tables_number	1
_symmetry_cell_setting	triclinic
loop_
_symmetry_equiv_pos_as_xyz
  x,y,z
_cell_length_a	6.817900
_cell_length_b	9.109307
_cell_length_c	10.943624
_cell_angle_alpha	97.376200
_cell_angle_beta	108.838799
_cell_angle_gamma	111.764999
loop_
_atom_site_label
_atom_site_type_symbol
_atom_site_fract_x
_atom_site_fract_y
_atom_site_fract_z
V1	V	-4.147508	-0.225312	-0.427519
O2	O	-4.071659	0.010871	-0.393684
O3	O	-4.156928	-0.446798	-0.449309
O4	O	-4.124976	-0.221827	-0.602699
O5	O	-4.103833	-0.215658	-0.239232
V6	V	-4.620292	-0.197064	-0.401996
O7	O	-4.432324	-0.287276	-0.483505
O8	O	-4.785674	-0.135100	-0.346009
O9	O	-4.387666	0.024422	-0.380205
O10	O	-4.813538	-0.433247	-0.435831
O11	O	-4.781364	-0.206719	-0.590282
O12	O	-4.419618	-0.200549	-0.226815
C13	C	-4.015158	-0.500793	-0.448942
C14	C	-4.104319	-0.681860	-0.467925
C15	C	-3.974398	-0.213817	-0.644604
C16	C	-4.037641	-0.212433	-0.787977
C17	C	-3.881147	-0.203114	-0.864092
C18	C	-4.090158	-0.341438	-0.985410
C19	C	-3.941346	-0.071659	-0.922128
C20	C	-4.245882	-0.350887	-0.907433
C21	C	-4.096972	-0.080986	-0.844114
C22	C	-4.306126	-0.219349	-0.965407
C23	C	-4.192780	0.078408	-0.380570
C24	C	-4.082859	0.259474	-0.361595
C25	C	-4.233539	-0.208564	-0.184904
C26	C	-4.149532	-0.209940	-0.041529
H27	H	-3.996314	-0.652227	-0.256009
H28	H	-3.813234	0.046322	-0.929817
C29	C	-4.221250	-0.801155	-0.610578
N30	N	-4.309316	-0.891009	-0.718022
H31	H	-4.087942	-0.451548	-1.046560
H32	H	-3.700997	-0.196435	-0.819903
H33	H	-4.374050	-0.469026	-0.899980
C34	C	-4.549706	-0.228696	-1.024916
N35	N	-4.733179	-0.235756	-1.069762
C36	C	-4.099837	0.067777	-0.761442
N37	N	-4.101969	0.179838	-0.699165
