data_functionalizedCrystal
_audit_creation_method	'MofGen! by Chris Wilmer'
_symmetry_space_group_name_H-M	'P1'
_symmetry_Int_Tables_number	1
_symmetry_cell_setting	triclinic
loop_
_symmetry_equiv_pos_as_xyz
  x,y,z
_cell_length_a	14.853567
_cell_length_b	23.532407
_cell_length_c	13.330367
_cell_angle_alpha	89.990692
_cell_angle_beta	89.995418
_cell_angle_gamma	83.241804
loop_
_atom_site_label
_atom_site_type_symbol
_atom_site_fract_x
_atom_site_fract_y
_atom_site_fract_z
O1	O	1.195556	0.074353	-0.083365
O2	O	0.932999	0.083210	-0.083383
O3	O	1.072195	-0.004116	-0.083355
O4	O	1.056360	0.161678	-0.083393
O5	O	1.072175	-0.004118	0.083492
O6	O	0.932979	0.083208	0.083464
O7	O	1.195536	0.074351	0.083482
Cu8	Cu	1.064255	0.078779	0.098707
Cu9	Cu	1.064279	0.078782	-0.098609
O10	O	1.056340	0.161677	0.083454
C11	C	0.899405	0.082808	0.000038
C12	C	0.799334	0.081605	0.000032
C13	C	0.387423	0.024648	0.000067
C14	C	0.365008	0.128393	0.000043
C15	C	0.459029	0.129524	0.000039
C16	C	0.517252	0.078216	0.000048
C17	C	0.481454	0.025777	0.000061
C18	C	0.494835	0.181961	0.000016
C19	C	0.588861	0.183094	0.000012
C20	C	0.647086	0.131786	0.000028
C21	C	0.611283	0.079345	0.000042
C22	C	0.669506	0.028037	0.000051
C23	C	0.633704	-0.024404	0.000072
C24	C	0.539679	-0.025531	0.000077
C25	C	0.741111	0.132913	0.000023
C26	C	0.763536	0.029166	0.000044
C27	C	1.071782	-0.025335	0.000071
C28	C	1.070569	-0.088557	0.000078
C29	C	1.145338	-0.487334	0.000029
C30	C	1.144212	-0.546739	0.000021
O31	O	1.213524	-0.583181	-0.000011
N32	N	1.061460	-0.569726	0.000016
C33	C	0.979829	-0.533305	0.000008
O34	O	0.909339	-0.558312	0.000002
C35	C	0.980957	-0.473901	0.000009
C36	C	1.063714	-0.450917	0.000024
C37	C	1.228089	-0.464349	0.000043
C38	C	1.229214	-0.404948	0.000052
C39	C	1.147590	-0.368531	0.000048
C40	C	1.064839	-0.391516	0.000034
C41	C	0.899327	-0.437481	-0.000006
C42	C	0.900461	-0.378073	-0.000006
C43	C	0.983218	-0.355089	0.000009
C44	C	0.984341	-0.295698	0.000039
N45	N	1.067092	-0.272711	0.000044
C46	C	1.148717	-0.309128	0.000048
C47	C	0.977469	-0.658058	0.000005
C48	C	0.976340	-0.717461	0.000012
C49	C	1.140723	-0.730890	0.000023
C50	C	1.141851	-0.671486	0.000023
C51	C	1.060220	-0.635070	0.000011
C52	C	1.151075	-0.184380	0.000069
C53	C	1.152194	-0.124974	0.000083
C54	C	0.987811	-0.111549	0.000067
C55	C	0.986692	-0.170951	0.000058
C56	C	1.068331	-0.207365	0.000056
O57	O	0.915065	-0.259221	0.000067
O58	O	1.219196	-0.284112	0.000041
C59	C	1.229130	0.074753	0.000058
C60	C	1.329200	0.075956	0.000058
C61	C	1.056753	0.182895	0.000026
C62	C	1.057966	0.246118	0.000011
N63	N	1.064245	0.078777	0.237489
N64	N	1.064296	0.078779	-0.237390
C65	C	1.002641	0.117434	0.710099
C66	C	1.125942	0.040124	0.710092
C67	C	1.125932	0.040123	0.605074
C68	C	1.064276	0.078778	0.552563
C69	C	1.002631	0.117435	0.605071
C70	C	1.187582	0.001470	0.552558
C71	C	1.187575	0.001467	0.447533
C72	C	1.125914	0.040120	0.395021
C73	C	1.064266	0.078778	0.447535
C74	C	1.002610	0.117434	0.395025
C75	C	0.940957	0.156089	0.447537
C76	C	0.940970	0.156088	0.552559
C77	C	1.125901	0.040122	0.289999
C78	C	1.002600	0.117434	0.289997
H79	H	0.618003	0.225795	-0.000005
H80	H	0.921355	-0.081888	0.000067
H81	H	0.510520	-0.068226	0.000118
C82	C	0.779808	0.189900	0.000049
C83	C	0.708694	0.234591	0.000059
C84	C	0.744305	0.287099	0.000097
H85	H	0.816011	0.192576	-0.058121
H86	H	0.815991	0.192530	0.058254
H87	H	0.672526	0.231963	-0.058140
H88	H	0.672485	0.231934	0.058224
H89	H	0.780488	0.289729	0.058302
H90	H	0.780507	0.289769	-0.058073
H91	H	0.696060	0.317428	0.000113
H92	H	0.358269	-0.018049	0.000088
C93	C	0.935617	0.159468	0.233170
C94	C	0.881646	0.193327	0.301639
C95	C	0.819940	0.232060	0.249328
H96	H	0.898187	0.139005	0.192207
H97	H	0.967804	0.183247	0.192213
H98	H	0.849460	0.169551	0.342579
H99	H	0.919050	0.213802	0.342604
H100	H	0.852128	0.255838	0.208371
H101	H	0.782517	0.211592	0.208367
H102	H	0.783319	0.255041	0.295776
H103	H	1.219587	-0.106264	0.000098
C104	C	0.301840	0.184113	-0.000178
C105	C	0.317935	0.215678	-0.086038
C106	C	0.259749	0.267009	-0.086281
H107	H	0.312583	0.205680	0.057932
H108	H	0.240701	0.175953	-0.000230
H109	H	0.379059	0.223840	-0.085976
H110	H	0.307186	0.194129	-0.144161
H111	H	0.198610	0.258849	-0.086333
H112	H	0.270496	0.288571	-0.028168
H113	H	0.270655	0.288430	-0.144540
C114	C	1.319039	-0.379966	0.000260
C115	C	1.324504	-0.346274	0.086110
C116	C	1.407246	-0.323261	0.086336
H117	H	1.322990	-0.357028	-0.057856
H118	H	1.367511	-0.410151	0.000311
H119	H	1.276045	-0.316092	0.086049
H120	H	1.320569	-0.369199	0.144240
H121	H	1.455719	-0.353447	0.086388
H122	H	1.411190	-0.300326	0.028216
H123	H	1.410969	-0.300403	0.144589
C124	C	1.239808	-0.223816	0.000123
C125	C	1.312509	-0.190962	0.000165
C126	C	1.394261	-0.227270	0.000235
H127	H	1.242932	-0.247275	-0.058046
H128	H	1.242830	-0.247267	0.058328
H129	H	1.309488	-0.167521	-0.058034
H130	H	1.309415	-0.167504	0.058330
H131	H	1.397284	-0.250721	0.058440
H132	H	1.397376	-0.250727	-0.057935
H133	H	1.443599	-0.204984	0.000272
C134	C	1.316816	-0.503787	0.000104
C135	C	1.389514	-0.470931	0.000141
C136	C	1.471269	-0.507236	0.000220
H137	H	1.319943	-0.527250	-0.058060
H138	H	1.319838	-0.527234	0.058314
H139	H	1.386493	-0.447493	-0.058062
H140	H	1.386417	-0.447469	0.058302
H141	H	1.474291	-0.530684	0.058430
H142	H	1.474387	-0.530698	-0.057945
H143	H	1.520604	-0.484949	0.000255
H144	H	0.890760	0.187565	0.404771
H145	H	0.447423	0.223733	-0.000001
C146	C	0.888737	-0.618617	0.000058
C147	C	0.816034	-0.651469	0.000081
C148	C	0.734283	-0.615160	0.000142
H149	H	0.885629	-0.595145	-0.058107
H150	H	0.885701	-0.595179	0.058267
H151	H	0.819069	-0.674897	-0.058121
H152	H	0.819112	-0.674940	0.058243
H153	H	0.731247	-0.591722	0.058350
H154	H	0.731185	-0.591690	-0.058025
H155	H	0.684945	-0.637445	0.000166
C156	C	0.809381	-0.462314	-0.000079
C157	C	0.738151	-0.417696	-0.000116
C158	C	0.655275	-0.440549	-0.000199
H159	H	0.805373	-0.485206	0.058084
H160	H	0.805482	-0.485183	-0.058290
H161	H	0.742048	-0.394836	0.058089
H162	H	0.742128	-0.394801	-0.058275
H163	H	0.651376	-0.463419	-0.058410
H164	H	0.651277	-0.463440	0.057965
H165	H	0.606936	-0.410280	-0.000233
C166	C	0.873936	0.198079	0.609391
C167	C	0.819918	0.231921	0.540931
C168	C	0.758149	0.270604	0.593252
H169	H	0.906047	0.221878	0.650351
H170	H	0.836553	0.177560	0.650353
H171	H	0.857296	0.252439	0.499986
H172	H	0.787787	0.208137	0.499969
H173	H	0.720766	0.250084	0.634214
H174	H	0.790268	0.294399	0.634209
H175	H	0.721485	0.293566	0.546810
H176	H	1.176102	0.008652	0.247249
C177	C	0.811858	-0.338508	-0.000224
C178	C	0.807703	-0.304012	-0.086072
C179	C	0.726093	-0.267564	-0.086311
H180	H	0.808781	-0.315009	0.057894
H181	H	0.762389	-0.360688	-0.000287
H182	H	0.857159	-0.281834	-0.085999
H183	H	0.810765	-0.327496	-0.144203
H184	H	0.676624	-0.289744	-0.086374
H185	H	0.723023	-0.244069	-0.028189
H186	H	0.723259	-0.244158	-0.144562
H187	H	0.810936	-0.012615	0.000056
H188	H	0.681121	-0.066179	0.000072
C189	C	0.896750	-0.195798	-0.000007
C190	C	0.825509	-0.151188	-0.000031
C191	C	0.742642	-0.174050	-0.000118
H192	H	0.892752	-0.218696	0.058150
H193	H	0.892856	-0.218664	-0.058224
H194	H	0.829401	-0.128332	0.058180
H195	H	0.829478	-0.128286	-0.058184
H196	H	0.738748	-0.196916	-0.058335
H197	H	0.738652	-0.196948	0.058040
H198	H	0.694295	-0.143786	-0.000144
H199	H	1.209239	-0.652777	0.000035
C200	C	1.192971	-0.001874	0.766919
C201	C	1.246963	-0.035721	0.698453
C202	C	1.308725	-0.074416	0.750769
H203	H	1.160855	-0.025668	0.807902
H204	H	1.230372	0.018636	0.807856
H205	H	1.209567	-0.056230	0.657533
H206	H	1.279099	-0.011943	0.657468
H207	H	1.346126	-0.053907	0.791706
H208	H	1.276601	-0.098207	0.791750
H209	H	1.345371	-0.097383	0.704323
C210	C	1.254545	-0.040567	0.390706
C211	C	1.308526	-0.074428	0.459173
C212	C	1.370218	-0.113163	0.406859
H213	H	1.291968	-0.020106	0.349714
H214	H	1.222346	-0.064344	0.349777
H215	H	1.340723	-0.050654	0.500084
H216	H	1.271128	-0.094902	0.500167
H217	H	1.338019	-0.136940	0.365930
H218	H	1.407635	-0.092697	0.365869
H219	H	1.406846	-0.136146	0.453305
H220	H	1.207187	-0.760552	0.000023
H221	H	0.908951	-0.736168	0.000017
H222	H	0.952441	0.148906	0.752857
H223	H	1.237785	-0.029999	0.595316
