data_functionalizedCrystal
_audit_creation_method	'MofGen! by Chris Wilmer'
_symmetry_space_group_name_H-M	'P1'
_symmetry_Int_Tables_number	1
_symmetry_cell_setting	triclinic
loop_
_symmetry_equiv_pos_as_xyz
  x,y,z
_cell_length_a	14.853567
_cell_length_b	14.519709
_cell_length_c	13.930277
_cell_angle_alpha	89.994503
_cell_angle_beta	89.995755
_cell_angle_gamma	83.657538
loop_
_atom_site_label
_atom_site_type_symbol
_atom_site_fract_x
_atom_site_fract_y
_atom_site_fract_z
O1	O	1.196415	0.120405	-0.079767
O2	O	0.933961	0.134748	-0.079783
O3	O	1.072147	-0.006665	-0.079766
O4	O	1.058230	0.261817	-0.079784
O5	O	1.072128	-0.006668	0.079896
O6	O	0.933942	0.134745	0.079878
O7	O	1.196396	0.120402	0.079895
Zn8	Zn	1.065166	0.127573	0.105236
Zn9	Zn	1.065191	0.127577	-0.105125
O10	O	1.058210	0.261814	0.079878
C11	C	0.900363	0.134096	0.000045
C12	C	0.800278	0.132149	0.000039
C13	C	1.071488	-0.041026	0.000065
C14	C	1.069545	-0.143407	0.000065
C15	C	0.387709	0.039914	0.000067
C16	C	0.366493	0.207916	0.000055
C17	C	0.460527	0.209747	0.000052
C18	C	0.518157	0.126660	0.000055
C19	C	0.481752	0.041743	0.000061
C20	C	0.496939	0.294663	0.000035
C21	C	0.590979	0.296498	0.000031
C22	C	0.648610	0.213410	0.000041
C23	C	0.612200	0.128489	0.000049
C24	C	0.669830	0.045403	0.000052
C25	C	0.633422	-0.039520	0.000066
C26	C	0.539383	-0.041345	0.000071
C27	C	0.742649	0.215235	0.000036
C28	C	0.763873	0.047231	0.000046
C29	C	1.062390	-0.518299	0.000040
C30	C	1.064377	-0.413992	0.000047
C31	C	1.065967	-0.330856	0.000054
C32	C	1.067955	-0.226543	0.000059
C33	C	1.229994	0.121053	0.000064
C34	C	1.330079	0.123001	0.000064
C35	C	1.058869	0.296175	0.000044
C36	C	1.060812	0.398556	0.000038
N37	N	1.065155	0.127569	0.248803
N38	N	1.065209	0.127573	-0.248691
C39	C	1.004000	0.190170	0.701064
C40	C	1.126407	0.064977	0.701049
C41	C	1.126396	0.064974	0.600553
C42	C	1.065188	0.127571	0.550308
C43	C	1.003989	0.190171	0.600559
C44	C	1.187599	0.002381	0.550295
C45	C	1.187592	0.002376	0.449793
C46	C	1.126378	0.064970	0.399546
C47	C	1.065177	0.127571	0.449803
C48	C	1.003968	0.190168	0.399558
C49	C	0.942762	0.252767	0.449814
C50	C	0.942776	0.252764	0.550312
C51	C	1.126364	0.064972	0.299047
C52	C	1.003957	0.190169	0.299053
H53	H	0.810790	-0.020429	0.000052
C54	C	1.240268	-0.157174	0.581246
C55	C	1.254863	-0.066430	0.605531
H56	H	1.281794	-0.199658	0.615349
H57	H	1.180089	-0.167285	0.597716
H58	H	1.249037	-0.166123	0.514200
H59	H	1.246087	-0.057478	0.672576
H60	H	1.315056	-0.056315	0.589067
C61	C	0.319452	0.350545	-0.082036
C62	C	0.303146	0.299239	0.000045
H63	H	0.280336	0.406923	-0.082043
H64	H	0.380659	0.363790	-0.082029
H65	H	0.308403	0.315720	-0.137704
H66	H	0.314201	0.334061	0.055713
H67	H	0.241924	0.285997	0.000046
H68	H	0.450011	0.362307	0.000023
H69	H	0.620614	0.365646	0.000019
C70	C	0.569801	-0.207230	0.000080
C71	C	0.499362	-0.134685	0.000075
H72	H	0.545089	-0.264852	0.000084
H73	H	0.606041	-0.203020	-0.055593
H74	H	0.606035	-0.203023	0.055762
H75	H	0.463132	-0.138889	-0.055612
H76	H	0.463107	-0.138897	0.055754
C77	C	0.712227	0.381113	0.000015
C78	C	0.782670	0.308572	0.000021
H79	H	0.736936	0.438737	0.000012
H80	H	0.675996	0.376903	-0.055658
H81	H	0.675986	0.376901	0.055697
H82	H	0.818908	0.312780	-0.055665
H83	H	0.818916	0.312784	0.055700
C84	C	0.882962	0.313922	0.309164
C85	C	0.936675	0.258982	0.243828
H86	H	0.841430	0.356407	0.275068
H87	H	0.850479	0.275469	0.348366
H88	H	0.920551	0.347162	0.348357
H89	H	0.899086	0.225737	0.204639
H90	H	0.969160	0.297440	0.204609
H91	H	1.237428	-0.048595	0.408882
H92	H	0.680356	-0.107168	0.000062
H93	H	0.892929	0.303738	0.408893
H94	H	0.892944	0.303730	0.591236
H95	H	1.176201	0.014010	0.258134
C96	C	0.848021	0.244021	0.732025
C97	C	0.936722	0.258971	0.756302
H98	H	0.806487	0.286492	0.766133
H99	H	0.839264	0.252986	0.664989
H100	H	0.838151	0.182447	0.748504
H101	H	0.946594	0.320543	0.739816
H102	H	0.945483	0.250013	0.823353
C103	C	0.252983	-0.037497	0.000085
C104	C	0.347694	-0.053430	0.000078
H105	H	0.228282	-0.095125	0.000085
H106	H	0.233219	-0.003291	0.055758
H107	H	0.233218	-0.003280	-0.055597
H108	H	0.367459	-0.087640	0.055764
H109	H	0.367466	-0.087650	-0.055601
H110	H	1.176246	0.014016	0.741962
