data_functionalizedCrystal
_audit_creation_method	'MofGen! by Chris Wilmer'
_symmetry_space_group_name_H-M	'P1'
_symmetry_Int_Tables_number	1
_symmetry_cell_setting	triclinic
loop_
_symmetry_equiv_pos_as_xyz
  x,y,z
_cell_length_a	15.944493
_cell_length_b	10.654554
_cell_length_c	9.130313
_cell_angle_alpha	89.998999
_cell_angle_beta	90.006727
_cell_angle_gamma	96.019057
loop_
_atom_site_label
_atom_site_type_symbol
_atom_site_fract_x
_atom_site_fract_y
_atom_site_fract_z
O1	O	-0.117995	1.666267	-0.121845
O2	O	0.382005	2.166267	0.378155
O3	O	-0.129231	1.300641	-0.121844
O4	O	0.370769	1.800641	0.378156
O5	O	-0.001393	1.493476	-0.121815
O6	O	0.498607	1.993476	0.378185
O7	O	-0.245833	1.473432	-0.121875
O8	O	0.254167	1.973432	0.378125
O9	O	-0.001396	1.493474	0.121784
O10	O	0.498604	1.993474	0.621784
O11	O	-0.129234	1.300638	0.121755
O12	O	0.370766	1.800638	0.621755
O13	O	-0.117998	1.666265	0.121754
O14	O	0.382002	2.166265	0.621754
Cu15	Cu	-0.123616	1.483451	0.143997
Cu16	Cu	0.376384	1.983451	0.643997
Cu17	Cu	-0.123612	1.483454	-0.144087
Cu18	Cu	0.376388	1.983454	0.355913
O19	O	-0.245836	1.473429	0.121724
O20	O	0.254164	1.973429	0.621724
C21	C	-0.128407	1.253852	-0.000044
C22	C	0.371593	1.753852	0.499956
C23	C	-0.125936	1.114442	-0.000043
C24	C	0.374064	1.614442	0.499957
C25	C	-0.046021	0.932939	-0.000042
C26	C	0.453979	1.432939	0.499958
C27	C	-0.048342	1.063930	-0.000028
C28	C	0.451658	1.563930	0.499972
C29	C	-0.201214	1.033956	-0.000057
C30	C	0.298786	1.533956	0.499943
C31	C	-0.198892	0.902968	-0.000061
C32	C	0.301108	1.402968	0.499939
C33	C	0.042239	0.950246	-0.000031
C34	C	0.542239	1.450246	0.499969
C35	C	0.039918	1.081237	-0.000017
C36	C	0.539918	1.581237	0.499983
C37	C	-0.277134	1.474250	-0.000083
C38	C	0.222866	1.974250	0.499917
C39	C	-0.370397	1.476706	-0.000106
C40	C	0.129603	1.976706	0.499894
C41	C	-0.605498	1.363198	-0.000058
C42	C	-0.105498	1.863198	0.499942
C43	C	-0.656429	1.424410	-0.120158
C44	C	-0.156429	1.924410	0.379842
C45	C	-0.541144	1.481257	-0.000072
C46	C	-0.041144	1.981257	0.499928
C47	C	-0.656390	1.424435	0.120011
C48	C	-0.156390	1.924435	0.620011
C49	C	-0.706079	1.485644	-0.000033
C50	C	-0.206079	1.985644	0.499967
C51	C	-0.590847	1.542437	-0.120272
C52	C	-0.090847	2.042437	0.379728
C53	C	-0.590804	1.542444	0.120005
C54	C	-0.090804	2.042444	0.620005
C55	C	-0.641702	1.603743	-0.000125
C56	C	-0.141702	2.103743	0.499875
C57	C	-0.446130	1.478726	-0.000096
C58	C	0.053870	1.978726	0.499904
C59	C	-0.801091	1.488184	-0.000019
C60	C	-0.301091	1.988184	0.499981
C61	C	0.029905	1.492656	-0.000011
C62	C	0.529905	1.992656	0.499989
C63	C	0.123168	1.490200	0.000003
C64	C	0.623168	1.990200	0.500003
C65	C	-0.118822	1.713053	-0.000050
C66	C	0.381178	2.213053	0.499950
C67	C	-0.121293	1.852463	-0.000061
C68	C	0.378707	2.352463	0.499939
N69	N	-0.123619	1.483458	0.346619
N70	N	0.376381	1.983458	0.846619
N71	N	-0.123603	1.483457	-0.346710
N72	N	0.376397	1.983457	0.153290
C73	C	-0.067032	1.568868	0.423284
C74	C	0.432968	2.068868	0.923284
C75	C	-0.067021	1.568864	0.576621
C76	C	0.432979	2.068864	1.076621
C77	C	-0.180193	1.398039	0.576614
C78	C	0.319807	1.898039	1.076614
C79	C	-0.180199	1.398037	0.423280
C80	C	0.319801	1.898037	0.923280
C81	C	-0.001695	1.667497	0.423289
C82	C	0.498305	2.167497	0.923289
C83	C	-0.001685	1.667493	0.576626
C84	C	0.498315	2.167493	1.076626
H85	H	0.073170	1.123435	-0.101957
H86	H	0.573170	1.623435	0.398043
H87	H	0.070345	0.914991	-0.105207
H88	H	0.570345	1.414991	0.394793
H89	H	-0.016078	1.763814	0.618238
H90	H	0.483922	2.263814	1.118238
F91	F	0.082692	1.640587	0.368903
F92	F	0.582692	2.140587	0.868903
H93	H	0.066587	1.127227	0.105174
H94	H	0.566587	1.627227	0.605174
H95	H	-0.589281	1.261505	-0.000180
H96	H	-0.089281	1.761505	0.499820
H97	H	-0.226259	1.328490	0.639048
H98	H	0.273741	1.828490	1.139048
H99	H	-0.685091	1.374554	-0.221700
H100	H	-0.185091	1.874554	0.278300
F101	F	-0.240415	1.307120	0.341688
F102	F	0.259585	1.807120	0.841688
F103	F	-0.553567	1.607562	-0.253144
F104	F	-0.053567	2.107562	0.246856
F105	F	-0.662693	1.736763	-0.000205
F106	F	-0.162693	2.236763	0.499795
F107	F	-0.028445	1.786318	0.361112
F108	F	0.471555	2.286318	0.861112
H109	H	-0.562126	1.592256	0.221550
H110	H	-0.062126	2.092256	0.721550
H111	H	-0.685021	1.374553	0.221551
H112	H	-0.185021	1.874553	0.721551
H113	H	-0.260186	0.837447	-0.000059
H114	H	0.239814	1.337447	0.499941
H115	H	-0.264393	1.075093	-0.000055
H116	H	0.235607	1.575093	0.499945
F117	F	0.087355	0.912456	0.133218
F118	F	0.587355	1.412456	0.633218
H119	H	0.059327	1.637789	0.624188
H120	H	0.559327	2.137789	1.124188
