data_functionalizedCrystal
_audit_creation_method	'MofGen! by Chris Wilmer'
_symmetry_space_group_name_H-M	'P1'
_symmetry_Int_Tables_number	1
_symmetry_cell_setting	triclinic
loop_
_symmetry_equiv_pos_as_xyz
  x,y,z
_cell_length_a	17.038272
_cell_length_b	10.654550
_cell_length_c	9.130313
_cell_angle_alpha	90.003780
_cell_angle_beta	89.998262
_cell_angle_gamma	92.201771
loop_
_atom_site_label
_atom_site_type_symbol
_atom_site_fract_x
_atom_site_fract_y
_atom_site_fract_z
O1	O	0.109874	-1.678036	-0.121922
O2	O	0.120343	-1.313530	-0.121899
O3	O	0.001281	-1.493617	-0.121899
O4	O	0.228936	-1.497950	-0.121923
O5	O	0.001284	-1.493615	0.121700
O6	O	0.120346	-1.313528	0.121700
O7	O	0.109878	-1.678034	0.121676
Cu8	Cu	0.115112	-1.495781	0.143931
Cu9	Cu	0.115108	-1.495783	-0.144153
O10	O	0.228939	-1.497948	0.121676
C11	C	-0.027867	-1.489675	-0.000100
C12	C	-0.114726	-1.477918	-0.000099
C13	C	0.119576	-1.266660	-0.000097
C14	C	0.117276	-1.127003	-0.000087
N15	N	0.115114	-1.495788	0.346553
C16	C	-0.164237	-1.585862	-0.000105
C17	C	-0.245850	-1.574808	-0.000118
C18	C	-0.277949	-1.455808	-0.000115
C19	C	-0.228431	-1.347856	-0.000114
C20	C	-0.146821	-1.358911	-0.000111
C21	C	-0.523925	-1.416750	-0.000133
C22	C	-0.605542	-1.405702	-0.000131
C23	C	-0.622955	-1.632656	-0.000137
C24	C	-0.541342	-1.643701	-0.000126
C25	C	-0.491831	-1.535749	-0.000133
C26	C	-0.361370	-1.444505	-0.000124
C27	C	-0.408412	-1.547052	-0.000134
C28	C	0.258088	-1.501889	-0.000126
C29	C	0.344947	-1.513646	-0.000136
C30	C	0.110645	-1.724905	-0.000129
C31	C	0.112944	-1.864562	-0.000148
C32	C	0.187378	-1.054026	-0.000116
C33	C	0.185212	-0.922804	-0.000141
C34	C	0.042837	-0.937548	-0.000115
C35	C	0.045004	-1.068767	-0.000080
C36	C	0.259650	-1.112262	-0.000124
C37	C	0.329758	-1.039285	-0.000154
C38	C	0.327592	-0.908063	-0.000179
C39	C	0.255319	-0.849818	-0.000174
N40	N	0.115100	-1.495785	-0.346776
C41	C	0.062412	-1.575554	0.423205
C42	C	0.062403	-1.575550	0.576542
C43	C	0.167805	-1.416010	0.576561
C44	C	0.167810	-1.416009	0.423227
C45	C	0.009716	-1.655334	0.346531
C46	C	-0.042990	-1.735107	0.423183
C47	C	-0.042999	-1.735103	0.576520
C48	C	0.009698	-1.655325	0.653205
H49	H	-0.286159	-1.662708	-0.000119
O50	O	0.407704	-1.102105	-0.000139
H51	H	0.456086	-1.029310	-0.000143
O52	O	0.009723	-1.655343	0.181148
H53	H	0.055227	-1.586478	0.140726
H54	H	0.384677	-0.848648	-0.000189
O55	O	-0.030603	-1.147492	-0.000059
H56	H	-0.081223	-1.084955	-0.000084
O57	O	0.252989	-0.708284	-0.000190
H58	H	0.221696	-0.676850	0.099103
H59	H	-0.085898	-1.800053	0.360739
O60	O	0.224649	-1.329982	0.659261
H61	H	0.215797	-1.343395	0.778761
O62	O	-0.506719	-1.772050	-0.000164
H63	H	-0.554859	-1.845256	-0.000192
H64	H	-0.085920	-1.800048	0.638929
H65	H	-0.663275	-1.720544	-0.000135
H66	H	0.009680	-1.655319	0.778062
O67	O	0.224656	-1.329986	0.340535
H68	H	0.261307	-1.274526	0.419609
O69	O	-0.035111	-0.874735	-0.000122
H70	H	-0.024840	-0.771230	-0.000165
O71	O	-0.093416	-1.242485	-0.000103
H72	H	-0.055815	-1.242098	0.099178
O73	O	-0.129616	-1.714213	-0.000121
H74	H	-0.177759	-1.787414	-0.000146
H75	H	-0.631674	-1.308794	-0.000105
H76	H	-0.483623	-1.328847	-0.000138
O77	O	-0.263056	-1.219508	-0.000104
H78	H	-0.243223	-1.167218	-0.099394
H79	H	-0.382273	-1.643941	-0.000169
H80	H	0.261422	-1.219109	-0.000110
O81	O	-0.395997	-1.316160	-0.000090
H82	H	-0.432766	-1.305696	-0.099369
