data_functionalizedCrystal
_audit_creation_method	'MofGen! by Chris Wilmer'
_symmetry_space_group_name_H-M	'P1'
_symmetry_Int_Tables_number	1
_symmetry_cell_setting	triclinic
loop_
_symmetry_equiv_pos_as_xyz
  x,y,z
_cell_length_a	29.839131
_cell_length_b	18.050591
_cell_length_c	29.839111
_cell_angle_alpha	90.067377
_cell_angle_beta	89.880971
_cell_angle_gamma	89.962574
loop_
_atom_site_label
_atom_site_type_symbol
_atom_site_fract_x
_atom_site_fract_y
_atom_site_fract_z
Zn1	Zn	-0.178515	-1.135565	-0.254081
Zn2	Zn	-0.253760	-1.135347	-0.178951
Zn3	Zn	-0.178639	-1.011284	-0.178955
Zn4	Zn	-0.253613	-1.011304	-0.254045
O5	O	-0.216132	-1.073375	-0.216508
O6	O	-0.188505	-1.239461	-0.244129
O7	O	-0.243908	-1.118789	-0.116084
O8	O	-0.115756	-1.027853	-0.188938
O9	O	-0.243787	-1.239300	-0.188931
O10	O	-0.115664	-1.119162	-0.244133
O11	O	-0.188717	-1.027641	-0.116088
O12	O	-0.188576	-0.907362	-0.188903
O13	O	-0.243538	-1.027887	-0.316917
O14	O	-0.243659	-0.907377	-0.244070
O15	O	-0.188363	-1.119182	-0.316944
O16	O	-0.316607	-1.118809	-0.188895
O17	O	-0.316500	-1.027675	-0.244066
C18	C	-0.216115	-0.880423	-0.216483
C19	C	-0.216119	-0.797877	-0.216483
C20	C	-0.332854	-1.073241	-0.216486
C21	C	-0.382789	-1.073251	-0.216491
C22	C	-0.215920	-1.073561	-0.333687
C23	C	-0.215830	-1.073641	-0.383621
C24	C	-0.692475	-1.120915	-0.187823
C25	C	-0.880148	-1.121006	-0.187840
O26	O	-0.904450	-1.161425	-0.163448
N27	N	-0.903574	-1.073529	-0.216542
C28	C	-0.880078	-1.026029	-0.245244
O29	O	-0.904309	-0.985654	-0.269660
C30	C	-0.692406	-1.025941	-0.245228
C31	C	-0.668983	-1.073416	-0.216521
C32	C	-0.669052	-1.168386	-0.159118
C33	C	-0.622137	-1.168360	-0.159112
C34	C	-0.598645	-1.120862	-0.187811
C35	C	-0.622067	-1.073390	-0.216515
C36	C	-0.668911	-0.978445	-0.273932
C37	C	-0.621990	-0.978429	-0.273926
C38	C	-0.598567	-1.025904	-0.245219
C39	C	-0.551659	-1.025866	-0.245208
N40	N	-0.528234	-1.073343	-0.216506
C41	C	-0.551727	-1.120841	-0.187808
C42	C	-0.978608	-1.026077	-0.245249
C43	C	-1.025526	-1.026098	-0.245253
C44	C	-1.025594	-1.121076	-0.187849
C45	C	-0.978675	-1.121051	-0.187844
C46	C	-0.955183	-1.073554	-0.216547
C47	C	-0.453201	-1.120782	-0.187797
C48	C	-0.406281	-1.120749	-0.187793
C49	C	-0.406218	-1.025774	-0.245197
C50	C	-0.453134	-1.025803	-0.245200
C51	C	-0.476624	-1.073314	-0.216499
O52	O	-0.527329	-0.985474	-0.269591
O53	O	-0.527488	-1.161222	-0.163402
C54	C	-0.739391	-1.120941	-0.187828
C55	C	-0.762814	-1.073469	-0.216533
C56	C	-0.739321	-1.025971	-0.245231
C57	C	-0.809732	-1.073490	-0.216536
C58	C	-0.833224	-1.120988	-0.187838
C59	C	-0.809799	-1.168465	-0.159136
C60	C	-0.762883	-1.168439	-0.159130
C61	C	-0.762747	-0.978494	-0.273933
C62	C	-0.809662	-0.978523	-0.273936
C63	C	-0.833155	-1.026021	-0.245238
C64	C	-0.098953	-1.073530	-0.216540
C65	C	-0.049019	-1.073596	-0.216554
C66	C	-0.216149	-1.267081	-0.216533
C67	C	-0.216156	-1.349626	-0.216544
C68	C	-0.186130	-0.598397	-0.186552
C69	C	-0.227123	-0.548947	-0.175494
C70	C	-0.216132	-0.646747	-0.216504
C71	C	-0.175153	-0.549115	-0.227560
C72	C	-0.216142	-0.500762	-0.216522
C73	C	-0.257147	-0.598384	-0.205424
C74	C	-0.205150	-0.598556	-0.257509
C75	C	-0.246171	-0.549129	-0.246467
C76	C	-0.216126	-0.730845	-0.216492
C77	C	-0.216153	-0.416665	-0.216534
C78	C	-0.216310	-1.073232	-0.099785
C79	C	-0.216273	-1.073297	-0.049851
C80	C	-0.187093	-1.120663	0.306605
C81	C	-0.187221	-1.120567	0.118932
O82	O	-0.162619	-1.160662	0.094556
N83	N	-0.216172	-1.073369	0.095594
C84	C	-0.245090	-1.026188	0.119177
O85	O	-0.269714	-0.986036	0.095020
C86	C	-0.244959	-1.026282	0.306849
C87	C	-0.216010	-1.073488	0.330185
C88	C	-0.158146	-1.167865	0.329941
C89	C	-0.158116	-1.167892	0.376856
C90	C	-0.187033	-1.120716	0.400436
C91	C	-0.215980	-1.073515	0.377100
C92	C	-0.273875	-0.979098	0.330431
C93	C	-0.273839	-0.979124	0.377352
C94	C	-0.244890	-1.026330	0.400688
C95	C	-0.244867	-1.026366	0.447595
N96	N	-0.215917	-1.073564	0.470933
C97	C	-0.187000	-1.120739	0.447354
C98	C	-0.245157	-1.026144	0.020647
C99	C	-0.245190	-1.026121	-0.026271
C100	C	-0.187321	-1.120499	-0.026513
C101	C	-0.187290	-1.120525	0.020406
C102	C	-0.216207	-1.073342	0.043985
C103	C	-0.186939	-1.120792	0.545879
C104	C	-0.186913	-1.120816	0.592799
C105	C	-0.244781	-1.026436	0.593036
C106	C	-0.244809	-1.026414	0.546121
C107	C	-0.215884	-1.073594	0.522544
O108	O	-0.269453	-0.986286	0.472000
O109	O	-0.162373	-1.160874	0.471518
C110	C	-0.187123	-1.120637	0.259690
C111	C	-0.216070	-1.073435	0.236354
C112	C	-0.244987	-1.026259	0.259934
C113	C	-0.216104	-1.073412	0.189436
C114	C	-0.187187	-1.120588	0.165856
C115	C	-0.158236	-1.167786	0.189194
C116	C	-0.158206	-1.167812	0.236110
C117	C	-0.273938	-0.979062	0.236596
C118	C	-0.273966	-0.979039	0.189680
C119	C	-0.245049	-1.026215	0.166100
H120	H	-0.387212	-1.159409	-0.164414
H121	H	-0.603069	-1.207021	-0.135738
Cl122	Cl	-0.310193	-0.919803	0.406991
H123	H	-0.268707	-0.987722	0.039840
H124	H	-0.472321	-1.159471	-0.164427
H125	H	-0.297448	-0.940657	0.311439
Cl126	Cl	-0.281130	-0.967130	0.622688
H127	H	-0.959607	-1.159710	-0.164469
Cl128	Cl	-0.150895	-1.179870	0.049737
Cl129	Cl	-0.281204	-0.967072	0.516784
H130	H	-0.297544	-0.940600	0.170684
Cl131	Cl	-0.121810	-1.227160	0.265439
Cl132	Cl	-0.733444	-1.228129	-0.123041
H133	H	-0.268768	-0.987689	-0.045267
Cl134	Cl	-0.698578	-1.228107	-0.123035
H135	H	-0.160785	-0.620030	-0.161196
Cl136	Cl	-1.055136	-1.180787	-0.151771
H137	H	-0.602865	-0.939752	-0.297301
Cl138	Cl	-0.839102	-0.918833	-0.310029
Cl139	Cl	-1.054966	-0.966403	-0.281338
H140	H	-0.828935	-1.207138	-0.135767
Cl141	Cl	-0.310675	-0.631655	-0.190935
Cl142	Cl	-0.121642	-0.515694	-0.241986
Cl143	Cl	-0.190778	-0.632223	-0.311022
H144	H	-0.236420	-0.527159	-0.140825
Cl145	Cl	-0.698345	-0.918767	-0.310028
H146	H	-0.959485	-0.987397	-0.268623
H147	H	-0.472205	-0.987148	-0.268577
Cl148	Cl	-0.376676	-0.966069	-0.281276
Cl149	Cl	-0.285394	-0.515935	-0.285586
Cl150	Cl	-0.121885	-1.227093	0.159542
H151	H	-0.163339	-1.159260	0.611797
H152	H	-0.297486	-0.940646	0.255790
Cl153	Cl	-0.733220	-0.918775	-0.310015
H154	H	-0.163385	-1.159208	0.526688
Cl155	Cl	-0.121718	-1.227235	0.406185
Cl156	Cl	-0.121794	-1.227190	0.300306
H157	H	-0.163776	-1.158912	-0.045720
