data_functionalizedCrystal
_audit_creation_method	'MofGen! by Chris Wilmer'
_symmetry_space_group_name_H-M	'P1'
_symmetry_Int_Tables_number	1
_symmetry_cell_setting	triclinic
loop_
_symmetry_equiv_pos_as_xyz
  x,y,z
_cell_length_a	15.944493
_cell_length_b	14.421503
_cell_length_c	15.995292
_cell_angle_alpha	89.992517
_cell_angle_beta	83.471830
_cell_angle_gamma	90.007064
loop_
_atom_site_label
_atom_site_type_symbol
_atom_site_fract_x
_atom_site_fract_y
_atom_site_fract_z
O1	O	1.114531	0.077093	0.107749
O2	O	0.869971	0.077096	0.121114
O3	O	0.998962	0.077096	-0.007461
O4	O	0.985540	0.077093	0.236323
O5	O	0.998940	-0.077128	-0.007441
O6	O	0.869950	-0.077127	0.121133
O7	O	1.114510	-0.077131	0.107768
Cu8	Cu	0.992228	-0.091211	0.114452
Cu9	Cu	0.992253	0.091176	0.114430
O10	O	0.985519	-0.077130	0.236342
C11	C	0.838666	-0.000015	0.120577
C12	C	0.745418	-0.000013	0.118939
C13	C	0.509638	-0.000013	0.194621
C14	C	0.459080	-0.076057	0.153819
C15	C	0.574697	-0.000015	0.115905
C16	C	0.459105	0.075995	0.153781
C17	C	0.409789	-0.000012	0.112980
C18	C	0.525368	-0.076121	0.075123
C19	C	0.525397	0.075999	0.075097
C20	C	0.474871	-0.000063	0.034237
C21	C	0.669697	-0.000017	0.117592
C22	C	0.314792	-0.000017	0.111286
N23	N	0.992216	-0.219492	0.114468
C24	C	0.932560	-0.469145	0.173894
C25	C	1.008458	-0.530950	0.190134
C26	C	0.992237	-0.408653	0.114448
C27	C	0.916358	-0.530943	0.098227
C28	C	0.992249	-0.591375	0.114430
C29	C	1.068173	-0.469097	0.130726
C30	C	0.976023	-0.469085	0.038786
C31	C	1.051976	-0.530861	0.054994
C32	C	0.992228	-0.303392	0.114460
C33	C	0.992267	-0.696634	0.114417
C34	C	1.145815	-0.000018	0.108305
C35	C	1.239063	-0.000013	0.109942
C36	C	0.998405	-0.000013	-0.038647
C37	C	0.996767	-0.000007	-0.131599
N38	N	0.992271	0.219458	0.114408
C39	C	0.990747	-0.000015	-0.469337
C40	C	1.083849	-0.000361	-0.446039
C41	C	1.085618	-0.000010	-0.349363
C42	C	0.993734	-0.000011	-0.301781
C43	C	0.947200	0.088056	-0.330886
C44	C	0.946079	0.088126	-0.427677
C45	C	0.944153	-0.087255	-0.427512
C46	C	0.947603	-0.088415	-0.331019
C47	C	0.995418	-0.000006	-0.207085
C48	C	0.989061	-0.000014	-0.564032
C49	C	0.986076	-0.000019	0.267528
C50	C	0.987714	-0.000020	0.360481
H51	H	0.430167	0.140275	0.187032
H52	H	0.880536	-0.093735	-0.298039
C53	C	1.132322	-0.085680	-0.483864
N54	N	1.168833	-0.149945	-0.512360
H55	H	0.459424	-0.000106	-0.033620
C56	C	0.564527	0.162856	0.030209
N57	N	0.593996	0.228285	-0.003597
C58	C	0.864457	-0.432525	0.241862
N59	N	0.813167	-0.404940	0.293057
C60	C	1.026996	-0.567670	0.276563
N61	N	1.040952	-0.595328	0.341664
H62	H	1.132361	-0.442044	0.144514
C63	C	0.530735	-0.000116	0.286219
N64	N	0.546627	-0.000198	0.355208
H65	H	0.554195	-0.140474	0.041908
H66	H	1.102502	-0.557789	0.004712
C67	C	0.957445	-0.432339	-0.047617
N68	N	0.943443	-0.404659	-0.112695
C69	C	0.829661	-0.567640	0.079698
N70	N	0.764359	-0.595276	0.065748
H71	H	1.122063	-0.063138	-0.330336
C72	C	1.132073	0.084482	-0.485254
N73	N	1.168393	0.148388	-0.514792
C74	C	1.135165	0.085427	-0.324514
N75	N	1.172483	0.149783	-0.305798
H76	H	0.981488	-0.153567	-0.312451
C77	C	0.419953	-0.162903	0.198741
N78	N	0.390483	-0.228311	0.232582
H79	H	0.978324	0.153959	-0.454506
H80	H	0.877816	0.092115	-0.442217
H81	H	0.879586	0.091329	-0.299009
H82	H	0.979532	0.153595	-0.310839
C83	C	0.983546	-0.177433	-0.465676
N84	N	1.013227	-0.245351	-0.494422
H85	H	0.875623	-0.087849	-0.441492
