data_functionalizedCrystal
_audit_creation_method	'MofGen! by Chris Wilmer'
_symmetry_space_group_name_H-M	'P1'
_symmetry_Int_Tables_number	1
_symmetry_cell_setting	triclinic
loop_
_symmetry_equiv_pos_as_xyz
  x,y,z
_cell_length_a	15.995350
_cell_length_b	11.792254
_cell_length_c	10.268362
_cell_angle_alpha	89.995475
_cell_angle_beta	90.001163
_cell_angle_gamma	96.154514
loop_
_atom_site_label
_atom_site_type_symbol
_atom_site_fract_x
_atom_site_fract_y
_atom_site_fract_z
O1	O	-0.114814	1.505943	-0.108286
O2	O	0.385186	2.005943	0.391714
O3	O	-0.126630	1.175505	-0.108288
O4	O	0.373370	1.675505	0.391712
O5	O	0.001124	1.349756	-0.108292
O6	O	0.501124	1.849756	0.391708
O7	O	-0.242568	1.331691	-0.108282
O8	O	0.257432	1.831691	0.391718
O9	O	0.001130	1.349741	0.108309
O10	O	0.501130	1.849741	0.608309
O11	O	-0.126625	1.175490	0.108313
O12	O	0.373375	1.675490	0.608313
O13	O	-0.114809	1.505927	0.108314
O14	O	0.385191	2.005927	0.608314
Cu15	Cu	-0.120716	1.340707	0.128091
Cu16	Cu	0.379284	1.840707	0.628091
Cu17	Cu	-0.120723	1.340725	-0.128064
Cu18	Cu	0.379277	1.840725	0.371936
O19	O	-0.242563	1.331676	0.108319
O20	O	0.257437	1.831676	0.608319
C21	C	-0.125883	1.133213	0.000012
C22	C	0.374117	1.633213	0.500012
C23	C	-0.123655	1.007218	0.000011
C24	C	0.376345	1.507218	0.500011
C25	C	-0.121845	0.904897	0.000005
C26	C	0.378155	1.404897	0.500005
C27	C	-0.119581	0.776529	0.000004
C28	C	0.380419	1.276529	0.500004
C29	C	-0.273764	1.332430	0.000019
C30	C	0.226236	1.832430	0.500019
C31	C	-0.366725	1.334669	0.000023
C32	C	0.133275	1.834669	0.500023
C33	C	-0.704509	1.342710	0.000003
C34	C	-0.204509	1.842710	0.500003
C35	C	-0.657642	1.466809	-0.000480
C36	C	-0.157642	1.966809	0.499520
C37	C	-0.560942	1.464570	0.000015
C38	C	-0.060942	1.964570	0.500015
C39	C	-0.536930	1.338722	0.000012
C40	C	-0.036930	1.838722	0.500012
C41	C	-0.577730	1.277503	0.123697
C42	C	-0.077730	1.777503	0.623697
C43	C	-0.674380	1.280621	0.123793
C44	C	-0.174380	1.780621	0.623793
C45	C	-0.674722	1.278074	-0.122522
C46	C	-0.174722	1.778074	0.377478
C47	C	-0.577776	1.278104	-0.124150
C48	C	-0.077776	1.778104	0.375850
C49	C	-0.442222	1.336461	0.000022
C50	C	0.057778	1.836461	0.500022
C51	C	-0.799217	1.344967	0.000002
C52	C	-0.299217	1.844967	0.500002
C53	C	0.032325	1.349002	0.000004
C54	C	0.532325	1.849002	0.500004
C55	C	0.125286	1.346763	-0.000008
C56	C	0.625286	1.846763	0.499992
C57	C	-0.115556	1.548220	0.000012
C58	C	0.384444	2.048220	0.500012
C59	C	-0.117784	1.674214	0.000004
C60	C	0.382216	2.174214	0.500004
N61	N	-0.120711	1.340703	0.308257
N62	N	0.379289	1.840703	0.808257
N63	N	-0.120721	1.340738	-0.308230
N64	N	0.379279	1.840738	0.191770
C65	C	-0.120721	1.340719	0.573927
C66	C	0.379279	1.840719	1.073927
C67	C	-0.120718	1.340707	0.426089
C68	C	0.379282	1.840707	0.926089
H69	H	-0.532738	1.512697	-0.088642
H70	H	-0.032738	2.012697	0.411358
O71	O	-0.558447	1.155039	0.129822
O72	O	-0.058447	1.655039	0.629822
H73	H	-0.519484	1.136465	0.044572
H74	H	-0.019484	1.636465	0.544572
H75	H	-0.676389	1.516410	-0.089191
H76	H	-0.176389	2.016410	0.410809
O77	O	-0.683895	1.532228	0.116344
O78	O	-0.183895	2.032228	0.616344
H79	H	-0.730174	1.476738	0.174754
H80	H	-0.230174	1.976738	0.674754
O81	O	-0.716549	1.159938	0.131248
O82	O	-0.216549	1.659938	0.631248
H83	H	-0.755909	1.149976	0.220379
H84	H	-0.255909	1.649976	0.720379
O85	O	-0.716227	1.156871	-0.123624
O86	O	-0.216227	1.656871	0.376376
H87	H	-0.694872	1.111800	-0.210391
H88	H	-0.194872	1.611800	0.289609
O89	O	-0.556873	1.156540	-0.134069
O90	O	-0.056873	1.656540	0.365931
H91	H	-0.615888	1.097716	-0.132868
H92	H	-0.115888	1.597716	0.367132
O93	O	-0.540413	1.333811	0.245637
O94	O	-0.040413	1.833811	0.745637
H95	H	-0.492820	1.405386	0.218463
H96	H	0.007180	1.905386	0.718463
H97	H	-0.550680	1.322805	-0.215651
H98	H	-0.050680	1.822805	0.284349
O99	O	-0.702322	1.331669	-0.246708
O100	O	-0.202322	1.831669	0.253292
H101	H	-0.737560	1.405004	-0.222481
H102	H	-0.237560	1.905004	0.277519
O103	O	-0.698904	1.339757	0.246248
O104	O	-0.198904	1.839757	0.746248
H105	H	-0.641756	1.365866	0.304837
H106	H	-0.141756	1.865866	0.804837
O107	O	-0.524316	1.528708	0.117669
O108	O	-0.024316	2.028708	0.617669
H109	H	-0.575685	1.561437	0.174441
H110	H	-0.075685	2.061437	0.674441
