data_functionalizedCrystal
_audit_creation_method	'MofGen! by Chris Wilmer'
_symmetry_space_group_name_H-M	'P1'
_symmetry_Int_Tables_number	1
_symmetry_cell_setting	triclinic
loop_
_symmetry_equiv_pos_as_xyz
  x,y,z
_cell_length_a	19.288864
_cell_length_b	13.339070
_cell_length_c	18.366186
_cell_angle_alpha	89.997828
_cell_angle_beta	89.977106
_cell_angle_gamma	99.382770
loop_
_atom_site_label
_atom_site_type_symbol
_atom_site_fract_x
_atom_site_fract_y
_atom_site_fract_z
O1	O	0.945923	0.126087	-0.060787
O2	O	0.746977	0.143095	-0.060738
O3	O	0.823618	-0.012569	-0.060755
O4	O	0.869283	0.281750	-0.060770
O5	O	0.823598	-0.012576	0.060345
O6	O	0.746958	0.143088	0.060362
O7	O	0.945904	0.126079	0.060312
Zn8	Zn	0.846427	0.134582	0.079564
Zn9	Zn	0.846453	0.134592	-0.079989
O10	O	0.869263	0.281743	0.060329
C11	C	0.720984	0.142544	-0.000182
C12	C	0.643560	0.140901	-0.000162
C13	C	0.815894	-0.050226	-0.000204
C14	C	0.792901	-0.162423	-0.000201
C15	C	0.616663	0.232238	-0.000179
C16	C	0.543915	0.230694	-0.000187
C17	C	0.498067	0.137809	-0.000193
C18	C	0.524972	0.046461	-0.000173
C19	C	0.597719	0.048007	-0.000157
C20	C	0.375583	0.064794	-0.042640
C21	C	0.302838	0.063252	-0.042660
C22	C	0.273691	0.133037	-0.000237
C23	C	0.317301	0.204382	0.042197
C24	C	0.390048	0.205928	0.042212
C25	C	0.419184	0.136123	-0.000209
C26	C	0.167913	0.222706	-0.000261
C27	C	0.095163	0.221159	-0.000264
C28	C	0.076222	0.036923	-0.000257
C29	C	0.148970	0.038473	-0.000247
C30	C	0.194812	0.131367	-0.000252
C31	C	0.971681	-0.528031	-0.000245
C32	C	0.993286	-0.422617	-0.000244
C33	C	0.943192	-0.357563	-0.000233
C34	C	0.871489	-0.397934	-0.000224
C35	C	0.849881	-0.503359	-0.000220
C36	C	0.821392	-0.332891	-0.000208
C37	C	0.749689	-0.373262	-0.000198
C38	C	0.728085	-0.478677	-0.000195
C39	C	0.778180	-0.543730	-0.000205
C40	C	0.842999	-0.227467	-0.000212
C41	C	0.721199	-0.202795	-0.000187
C42	C	0.699594	-0.308209	-0.000188
C43	C	0.971897	0.126630	-0.000245
C44	C	1.049320	0.128273	-0.000269
C45	C	0.876987	0.319401	-0.000223
C46	C	0.899980	0.431598	-0.000231
N47	N	0.846415	0.134575	0.188455
N48	N	0.846470	0.134592	-0.188881
C49	C	0.880373	0.065680	0.226548
C50	C	0.880377	0.065676	0.302776
C51	C	0.846432	0.134583	0.340908
C52	C	0.812466	0.203482	0.302806
C53	C	0.812457	0.203478	0.226580
C54	C	0.855080	0.226676	0.461665
C55	C	0.855093	0.226682	0.537890
C56	C	0.846454	0.134596	0.576016
C57	C	0.837815	0.042500	0.537907
C58	C	0.837806	0.042496	0.461681
C59	C	0.846437	0.134595	0.423563
C60	C	0.880418	0.065691	0.696763
C61	C	0.880416	0.065685	0.772993
C62	C	0.812510	0.203500	0.773021
C63	C	0.812507	0.203497	0.696793
C64	C	0.846464	0.134594	0.658669
H65	H	0.653984	0.307880	-0.000184
H66	H	0.487638	-0.029167	-0.000188
O67	O	0.913424	-0.001113	0.339867
C68	C	0.966687	0.052869	0.383913
H69	H	0.954280	0.132061	0.395336
H70	H	0.969548	0.010645	0.437516
H71	H	1.019302	0.059552	0.354506
H72	H	0.784868	0.259602	0.804067
H73	H	0.960787	-0.271731	-0.000232
H74	H	0.293572	0.261207	0.076742
H75	H	0.830770	-0.032491	0.430656
H76	H	0.830780	-0.032485	0.568947
O77	O	0.212350	0.313027	-0.000226
C78	C	0.173006	0.393316	-0.000253
H79	H	0.118361	0.365207	0.022667
H80	H	0.200631	0.458184	0.034907
H81	H	0.168212	0.421481	-0.058352
O82	O	1.062913	-0.383286	-0.000354
C83	C	1.079073	-0.323059	-0.063084
H84	H	1.029441	-0.296548	-0.083983
H85	H	1.120040	-0.254155	-0.048987
H86	H	1.100805	-0.369772	-0.107008
O87	O	0.913403	-0.001344	0.659837
C88	C	0.943386	-0.062146	0.709809
H89	H	0.914714	-0.063181	0.764160
H90	H	0.938418	-0.142904	0.687789
H91	H	1.001269	-0.029520	0.717887
H92	H	0.908066	0.009578	0.804009
O93	O	0.863600	0.316114	0.574941
C94	C	0.924081	0.324056	0.619016
H95	H	0.961100	0.273509	0.596026
H96	H	0.951840	0.406324	0.619868
H97	H	0.908209	0.298760	0.676795
H98	H	1.012460	-0.581006	-0.000247
H99	H	0.073266	0.295539	-0.000273
H100	H	0.784858	0.259602	0.665776
O101	O	0.757280	-0.646150	-0.000303
C102	C	0.783465	-0.688119	-0.063039
H103	H	0.831476	-0.634563	-0.083959
H104	H	0.798951	-0.764711	-0.048942
H105	H	0.741143	-0.699020	-0.106947
H106	H	0.669700	-0.511543	-0.000182
O107	O	0.779379	0.270273	0.189539
C108	C	0.726141	0.216303	0.145457
H109	H	0.709608	0.136597	0.168439
H110	H	0.678922	0.257748	0.144611
H111	H	0.746841	0.210923	0.087678
O112	O	0.629964	-0.347552	-0.000272
C113	C	0.613836	-0.407764	-0.062997
H114	H	0.663480	-0.434258	-0.083918
H115	H	0.572870	-0.476680	-0.048884
H116	H	0.592115	-0.361045	-0.106909
O117	O	0.863562	0.316072	0.424550
C118	C	0.924053	0.324006	0.380440
H119	H	0.936539	0.244855	0.369022
H120	H	0.914219	0.362427	0.326838
H121	H	0.970314	0.371150	0.409788
H122	H	0.170869	-0.035904	-0.000237
H123	H	0.522011	0.305074	-0.000198
H124	H	0.267337	0.005163	-0.077215
H125	H	0.399307	0.007964	-0.077190
O126	O	0.779437	0.270281	0.339925
C127	C	0.726185	0.216309	0.384037
H128	H	0.738592	0.137117	0.395452
H129	H	0.723342	0.258541	0.437639
H130	H	0.673562	0.209628	0.354690
O131	O	0.672624	-0.139469	-0.000212
C132	C	0.707069	-0.037768	-0.000203
H133	H	0.762362	-0.033974	-0.023141
H134	H	0.676396	0.010181	-0.035355
H135	H	0.710303	-0.007271	0.057894
H136	H	0.908021	0.009573	0.195510
H137	H	0.038893	-0.038706	-0.000308
H138	H	0.619617	-0.026373	-0.000144
H139	H	0.425551	0.264016	0.076765
O140	O	0.912626	-0.188136	-0.000324
C141	C	0.928785	-0.127912	-0.063055
H142	H	0.879153	-0.101401	-0.083954
H143	H	0.969752	-0.059007	-0.048960
H144	H	0.950517	-0.174627	-0.106978
