data_functionalizedCrystal
_audit_creation_method	'MofGen! by Chris Wilmer'
_symmetry_space_group_name_H-M	'P1'
_symmetry_Int_Tables_number	1
_symmetry_cell_setting	triclinic
loop_
_symmetry_equiv_pos_as_xyz
  x,y,z
_cell_length_a	20.919309
_cell_length_b	17.052862
_cell_length_c	17.052862
_cell_angle_alpha	61.493325
_cell_angle_beta	90.671054
_cell_angle_gamma	67.963449
loop_
_atom_site_label
_atom_site_type_symbol
_atom_site_fract_x
_atom_site_fract_y
_atom_site_fract_z
Zr1	Zr	0.759003	0.754975	-0.160100
O2	O	0.686680	0.888750	-0.292074
O3	O	0.765250	0.603746	-0.105577
O4	O	0.800343	0.718696	-0.264523
O5	O	0.642019	0.808505	-0.023748
O6	O	0.908116	0.709933	-0.258792
O7	O	0.651587	0.773800	-0.133127
O8	O	0.845341	0.504309	0.025535
O9	O	0.704793	1.014129	-0.308075
O10	O	0.867582	0.665874	-0.095040
O11	O	0.780012	0.698313	-0.017689
O12	O	0.821329	0.833652	-0.204828
O13	O	0.733759	0.866091	-0.127477
Zr14	Zr	0.915627	0.796351	0.023488
Zr15	Zr	0.930888	0.741001	-0.150959
Zr16	Zr	0.743742	0.810326	0.014347
Zr17	Zr	0.787891	0.954941	-0.185619
Zr18	Zr	0.886738	0.596385	0.049007
O19	O	0.909380	0.947580	-0.031036
O20	O	0.931078	0.868879	-0.279076
O21	O	0.664981	0.967451	-0.044033
O22	O	0.987950	0.662576	0.155462
O23	O	1.009648	0.583875	-0.092579
O24	O	0.743552	0.682447	0.142464
O25	O	1.032611	0.742821	-0.112864
O26	O	0.874287	0.832630	0.127911
O27	O	0.766514	0.841393	0.122180
O28	O	1.023043	0.777526	-0.003485
O29	O	0.841419	1.003021	-0.300809
O30	O	0.833211	0.548305	0.164197
O31	O	0.969837	0.537197	0.171462
O32	O	0.981967	0.493201	0.032800
O33	O	0.692663	1.058125	-0.169413
O34	O	0.829289	1.047017	-0.162147
O35	O	0.853301	0.717674	0.068216
O36	O	0.940871	0.685235	-0.009135
O37	O	0.894618	0.853013	-0.118923
O38	O	0.807048	0.885452	-0.041572
C39	C	0.801180	0.525537	-0.036385
C40	C	0.788916	0.440646	-0.025551
C41	C	0.937188	0.133627	-0.156531
C42	C	0.948709	0.213389	-0.166716
C43	C	0.908762	0.270207	-0.131425
C44	C	0.857291	0.247256	-0.085949
C45	C	0.845765	0.167491	-0.075769
C46	C	0.817339	0.304070	-0.050663
C47	C	0.765868	0.281119	-0.005187
C48	C	0.754344	0.201361	0.004992
C49	C	0.794291	0.144544	-0.030299
C50	C	0.828865	0.383835	-0.060843
C51	C	0.737442	0.417699	0.019919
C52	C	0.725921	0.337937	0.030104
C53	C	0.622313	0.793143	-0.079740
C54	C	0.549343	0.799076	-0.083621
C55	C	0.539204	0.714286	-0.028140
C56	C	0.470640	0.719867	-0.031789
C57	C	0.412216	0.810236	-0.090924
C58	C	0.422358	0.895033	-0.146407
C59	C	0.490921	0.889453	-0.142752
C60	C	0.203991	0.831467	-0.104820
C61	C	0.135426	0.837040	-0.108472
C62	C	0.183713	0.661873	0.006147
C63	C	0.252275	0.656300	0.009792
C64	C	0.262411	0.741098	-0.045687
C65	C	0.342131	0.815942	-0.094657
C66	C	0.332494	0.735393	-0.041948
C67	C	1.052317	0.758183	-0.056872
C68	C	1.125287	0.752250	-0.052992
C69	C	0.856403	0.706428	-0.286512
C70	C	0.862882	0.682931	-0.360570
C71	C	0.873450	1.025789	-0.100227
C72	C	0.885714	1.110680	-0.111061
C73	C	0.784558	0.967017	-0.798564
C74	C	0.778467	0.989098	-0.728986
C75	C	0.799570	0.912558	-0.636879
C76	C	0.826766	0.813934	-0.614356
C77	C	0.832852	0.791851	-0.683941
C78	C	0.847864	0.737392	-0.522256
C79	C	0.875059	0.638768	-0.499733
C80	C	0.881145	0.616690	-0.569313
C81	C	0.860042	0.693229	-0.661420
C82	C	0.841778	0.759475	-0.452671
C83	C	0.890072	0.584309	-0.338048
C84	C	0.896163	0.562228	-0.407626
C85	C	0.818226	0.844898	0.149900
C86	C	0.811748	0.868395	0.223958
C87	C	1.016181	0.508056	-0.024951
C88	C	1.076887	0.417233	-0.010237
C89	C	0.782091	0.594771	0.181821
C90	C	0.763349	0.533378	0.266712
C91	C	0.997093	0.577291	0.193255
C92	C	1.051320	0.509965	0.282027
C93	C	0.677537	0.974035	-0.329867
C94	C	0.623310	1.041361	-0.418639
C95	C	0.658448	1.043270	-0.111661
C96	C	0.597743	1.134093	-0.126375
C97	C	0.892539	0.956555	-0.318433
C98	C	0.911281	1.017948	-0.403324
C99	C	1.067140	0.364473	-0.048176
C100	C	1.124176	0.279141	-0.034368
C101	C	1.190957	0.246567	0.017384
C102	C	1.200704	0.299336	0.055323
C103	C	1.143670	0.384670	0.041510
C104	C	0.792802	0.514656	0.351427
C105	C	0.775190	0.456984	0.431196
C106	C	0.728127	0.418030	0.426250
C107	C	0.698670	0.436758	0.341525
C108	C	0.716279	0.494435	0.261757
C109	C	1.122504	0.461415	0.283339
C110	C	1.173465	0.398164	0.366741
C111	C	1.153240	0.383459	0.448831
C112	C	1.082049	0.432017	0.447516
C113	C	1.031091	0.495272	0.364114
C114	C	0.552127	1.089921	-0.419952
C115	C	0.501170	1.153197	-0.503358
C116	C	0.521396	1.167906	-0.585449
C117	C	0.592585	1.119342	-0.584133
C118	C	0.643542	1.056073	-0.500729
C119	C	0.607492	1.186859	-0.088445
C120	C	0.550461	1.272207	-0.102274
C121	C	0.483680	1.304783	-0.154029
C122	C	0.473932	1.252012	-0.191965
C123	C	0.530964	1.166670	-0.178141
C124	C	0.958346	1.056884	-0.398348
C125	C	0.975970	1.114560	-0.478103
C126	C	0.946525	1.133303	-0.562835
C127	C	0.899458	1.094360	-0.567809
C128	C	0.881838	1.036679	-0.488054
H129	H	0.870773	0.402515	-0.097871
C130	C	0.561197	1.330234	-0.060529
N131	N	0.569284	1.373936	-0.029083
C132	C	0.952787	0.548671	0.362686
N133	N	0.893809	0.588890	0.361617
H134	H	0.756325	1.069398	-0.747330
C135	C	0.811869	0.867959	-0.477455
N136	N	0.789343	0.949676	-0.496127
C137	C	0.680947	1.151047	-0.031514
N138	N	0.736274	1.124083	0.011362
H139	H	0.684012	0.319239	0.067130
C140	C	0.866733	0.668947	-0.737965
N141	N	0.871769	0.650660	-0.795623
H142	H	0.875487	1.109630	-0.636808
H143	H	0.784916	0.079589	-0.022004
H144	H	0.479896	1.219426	-0.653355
H145	H	0.535645	1.077949	-0.353118
H146	H	0.374782	0.968615	-0.194551
C147	C	0.603467	0.614872	0.036914
N148	N	0.651868	0.539991	0.085917
H149	H	1.116226	0.236187	-0.065266
H150	H	1.237392	0.177081	0.028626
C151	C	0.614821	1.135523	-0.674442
N152	N	0.631566	1.147705	-0.742464
C153	C	0.316538	0.556886	0.074846
N154	N	0.364942	0.482006	0.123843
C155	C	1.144769	0.477582	0.193048
N156	N	1.161546	0.489759	0.125043
C157	C	1.027742	1.157394	-0.472612
N158	N	1.066735	1.189656	-0.468474
H159	H	0.960878	1.180272	-0.627770
H160	H	0.903282	0.536384	-0.550968
C161	C	0.420949	1.398660	-0.169223
N162	N	0.373702	1.469367	-0.180661
H163	H	0.660350	0.405033	0.337511
H164	H	1.194741	0.331950	0.516737
C165	C	0.400464	1.287848	-0.248879
N166	N	0.345124	1.314836	-0.291739
C167	C	1.274168	0.263485	0.112258
N168	N	1.329502	0.236475	0.155147
C169	C	0.926070	0.453745	-0.382864
N170	N	0.948595	0.372035	-0.364214
C171	C	0.520225	1.108626	-0.219860
N172	N	0.512132	1.064910	-0.251285
H173	H	0.918146	0.335152	-0.139721
C174	C	0.990749	1.036273	-0.305150
N175	N	1.015163	1.020746	-0.234954
H176	H	0.990616	0.232074	-0.203744
H177	H	1.065591	0.420035	0.514366
H178	H	1.151615	0.427619	0.072412
H179	H	1.231428	0.358631	0.367796
H180	H	0.443207	1.192728	-0.504411
C181	C	0.215132	0.924743	-0.165864
N182	N	0.223525	0.995002	-0.211850
H183	H	0.843512	1.004983	-0.492119
H184	H	0.831123	0.546368	0.355472
H185	H	0.969705	0.087367	-0.185267
C186	C	0.708771	0.354575	0.514008
N187	N	0.694198	0.306776	0.580111
H188	H	0.712427	0.182685	0.042013
H189	H	0.701501	1.016533	-0.499670
H190	H	0.799183	0.441743	0.500174
H191	H	0.704912	0.463963	0.048652
H192	H	0.462390	0.650822	0.013391
C193	C	0.993686	0.400291	-0.105114
N194	N	0.938363	0.427267	-0.148007
C195	C	0.396762	0.635988	0.023094
N196	N	0.445175	0.561114	0.072080
H197	H	0.175452	0.592836	0.051316
H198	H	0.794609	0.930542	-0.580228
H199	H	0.087855	0.910633	-0.156631
H200	H	0.692294	0.509668	0.192783
H201	H	0.499172	0.958501	-0.187920
H202	H	0.294555	0.889521	-0.142804
H203	H	0.907253	0.521984	-0.263051
H204	H	0.767374	1.029325	-0.873558
