data_functionalizedCrystal
_audit_creation_method	'MofGen! by Chris Wilmer'
_symmetry_space_group_name_H-M	'P1'
_symmetry_Int_Tables_number	1
_symmetry_cell_setting	triclinic
loop_
_symmetry_equiv_pos_as_xyz
  x,y,z
_cell_length_a	17.699083
_cell_length_b	13.330367
_cell_length_c	17.699082
_cell_angle_alpha	89.997287
_cell_angle_beta	96.717252
_cell_angle_gamma	90.001523
loop_
_atom_site_label
_atom_site_type_symbol
_atom_site_fract_x
_atom_site_fract_y
_atom_site_fract_z
O1	O	1.004079	0.083279	-0.095711
O2	O	1.504079	0.583279	0.404289
O3	O	0.783700	0.083311	-0.108163
O4	O	1.283700	0.583311	0.391837
O5	O	0.900116	0.083292	0.008252
O6	O	1.400116	0.583292	0.508252
O7	O	0.887663	0.083297	-0.212126
O8	O	1.387663	0.583297	0.287874
O9	O	0.900099	-0.083555	0.008255
O10	O	1.400099	0.416445	0.508255
O11	O	0.783683	-0.083536	-0.108161
O12	O	1.283683	0.416464	0.391839
O13	O	1.004062	-0.083569	-0.095708
O14	O	1.504062	0.416431	0.404292
Cu15	Cu	0.893871	-0.098787	-0.101934
Cu16	Cu	1.393871	0.401213	0.398066
Cu17	Cu	0.893891	0.098529	-0.101937
Cu18	Cu	1.393891	0.598529	0.398063
O19	O	0.887646	-0.083550	-0.212124
O20	O	1.387646	0.416450	0.287876
C21	C	0.755495	-0.000108	-0.107716
C22	C	1.255495	0.499892	0.392284
C23	C	0.671477	-0.000096	-0.106377
C24	C	1.171477	0.499904	0.393623
C25	C	0.622856	-0.000095	-0.174711
C26	C	1.122856	0.499905	0.325289
C27	C	0.543912	-0.000108	-0.173448
C28	C	1.043912	0.499892	0.326552
C29	C	0.513592	-0.000115	-0.103852
C30	C	1.013592	0.499885	0.396148
C31	C	0.562219	-0.000119	-0.035513
C32	C	1.062219	0.499881	0.464487
C33	C	0.641161	-0.000113	-0.036776
C34	C	1.141161	0.499887	0.463224
C35	C	0.243856	-0.000144	-0.030418
C36	C	0.743856	0.499856	0.469582
C37	C	0.164908	-0.000147	-0.029160
C38	C	0.664908	0.499853	0.470840
C39	C	0.146607	-0.000139	-0.167090
C40	C	0.646607	0.499861	0.332910
C41	C	0.225549	-0.000133	-0.168353
C42	C	0.725549	0.499867	0.331647
C43	C	0.274170	-0.000142	-0.100015
C44	C	0.774170	0.499858	0.399985
C45	C	0.359769	-0.000130	-0.101384
C46	C	0.859769	0.499870	0.398616
C47	C	0.427994	-0.000120	-0.102482
C48	C	0.927994	0.499880	0.397518
N49	N	0.893863	-0.237568	-0.101932
N50	N	1.393863	0.262432	0.398068
C51	C	0.842340	-0.710183	-0.153466
C52	C	1.342340	-0.210183	0.346534
C53	C	0.945463	-0.710168	-0.050403
C54	C	1.445463	-0.210168	0.449597
C55	C	0.945454	-0.605149	-0.050400
C56	C	1.445454	-0.105149	0.449600
C57	C	0.893888	-0.552643	-0.101932
C58	C	1.393888	-0.052643	0.398068
C59	C	0.842331	-0.605155	-0.153467
C60	C	1.342331	-0.105155	0.346533
C61	C	0.997015	-0.552629	0.001128
C62	C	1.497015	-0.052629	0.501128
C63	C	0.997010	-0.447605	0.001132
C64	C	1.497010	0.052395	0.501132
C65	C	0.945440	-0.395096	-0.050397
C66	C	1.445440	0.104904	0.449603
C67	C	0.893880	-0.447615	-0.101933
C68	C	1.393880	0.052385	0.398067
C69	C	0.842314	-0.395108	-0.153465
C70	C	1.342314	0.104892	0.346535
C71	C	0.790750	-0.447625	-0.204998
C72	C	1.290750	0.052375	0.295002
C73	C	0.790761	-0.552647	-0.204996
C74	C	1.290761	-0.052647	0.295004
C75	C	0.945428	-0.290075	-0.050400
C76	C	1.445428	0.209925	0.449600
C77	C	0.842306	-0.290080	-0.153466
C78	C	1.342306	0.209920	0.346534
C79	C	1.032267	-0.000147	-0.096156
C80	C	1.532267	0.499853	0.403844
C81	C	1.116285	-0.000153	-0.097494
C82	C	1.616285	0.499847	0.402506
C83	C	0.888100	-0.000126	-0.240322
C84	C	1.388100	0.499874	0.259678
C85	C	0.889439	-0.000125	-0.324340
C86	C	1.389439	0.499875	0.175660
N87	N	0.893906	0.237311	-0.101934
N88	N	1.393906	0.737311	0.398066
C89	C	0.890077	0.090825	-0.363811
C90	C	1.390077	0.590825	0.136189
C91	C	0.891344	0.090826	-0.442753
C92	C	1.391344	0.590826	0.057247
C93	C	0.891967	-0.000123	-0.482225
C94	C	1.391967	0.499877	0.017775
C95	C	0.891331	-0.091080	-0.442748
C96	C	1.391331	0.408920	0.057252
C97	C	0.890069	-0.091080	-0.363806
C98	C	1.390069	0.408920	0.136194
C99	C	0.896420	-0.091082	-0.761112
C100	C	1.396420	0.408918	-0.261112
C101	C	0.897680	-0.091075	-0.840060
C102	C	1.397680	0.408925	-0.340060
C103	C	0.897695	0.090824	-0.840059
C104	C	1.397695	0.590824	-0.340059
C105	C	0.896433	0.090824	-0.761117
C106	C	1.396433	0.590824	-0.261117
C107	C	0.895801	-0.000132	-0.721647
C108	C	1.395801	0.499868	-0.221647
C109	C	0.894429	-0.000132	-0.636048
C110	C	1.394429	0.499868	-0.136048
C111	C	0.893334	-0.000124	-0.567823
C112	C	1.393334	0.499876	-0.067823
C113	C	0.899662	-0.000130	0.036451
C114	C	1.399662	0.499870	0.536451
C115	C	0.898324	-0.000124	0.120469
C116	C	1.398324	0.499876	0.620469
H117	H	0.537526	-0.000139	0.021154
H118	H	1.037526	0.499861	0.521154
H119	H	0.107011	-0.000136	-0.222734
H120	H	0.607011	0.499864	0.277266
H121	H	0.987414	-0.247321	-0.008446
H122	H	1.487414	0.252679	0.491554
H123	H	0.898183	-0.165141	-0.872196
H124	H	1.398183	0.334859	-0.372196
H125	H	0.889549	-0.165140	-0.331671
H126	H	1.389549	0.334860	0.168329
H127	H	0.647536	-0.000088	-0.231384
H128	H	1.147536	0.499912	0.268616
H129	H	0.250231	-0.000122	-0.225026
H130	H	0.750231	0.499878	0.274974
H131	H	0.895906	-0.165144	-0.728985
H132	H	1.395906	0.334856	-0.228985
H133	H	0.504327	-0.000106	-0.229092
H134	H	1.004327	0.499894	0.270908
H135	H	0.898212	0.164885	-0.872205
H136	H	1.398212	0.664885	-0.372205
H137	H	0.140225	-0.000154	0.027517
H138	H	0.640225	0.499846	0.527517
H139	H	0.891843	-0.165133	-0.474892
H140	H	1.391843	0.334867	0.025108
H141	H	0.800355	-0.752945	-0.195421
H142	H	1.300355	-0.252945	0.304579
H143	H	0.891866	0.164886	-0.474886
H144	H	1.391866	0.664886	0.025114
H145	H	0.283434	-0.000153	0.025228
H146	H	0.783434	0.499847	0.525228
H147	H	0.680748	-0.000114	0.018868
H148	H	1.180748	0.499886	0.518868
H149	H	0.895922	0.164884	-0.728984
H150	H	1.395922	0.664884	-0.228984
H151	H	0.800312	-0.247336	-0.195427
H152	H	1.300312	0.252664	0.304573
H153	H	0.748768	-0.404862	-0.246959
H154	H	1.248768	0.095138	0.253041
H155	H	0.748780	-0.595412	-0.246952
H156	H	1.248780	-0.095412	0.253048
H157	H	0.987450	-0.752922	-0.008450
H158	H	1.487450	-0.252922	0.491550
H159	H	1.038995	-0.404852	0.043093
H160	H	1.538995	0.095148	0.543093
H161	H	1.039002	-0.595383	0.043080
H162	H	1.539002	-0.095383	0.543080
H163	H	0.889563	0.164887	-0.331680
H164	H	1.389563	0.664887	0.168320
