data_functionalizedCrystal
_audit_creation_method	'MofGen! by Chris Wilmer'
_symmetry_space_group_name_H-M	'P1'
_symmetry_Int_Tables_number	1
_symmetry_cell_setting	triclinic
loop_
_symmetry_equiv_pos_as_xyz
  x,y,z
_cell_length_a	15.698487
_cell_length_b	21.606444
_cell_length_c	21.606444
_cell_angle_alpha	59.998382
_cell_angle_beta	90.000958
_cell_angle_gamma	59.994134
loop_
_atom_site_label
_atom_site_type_symbol
_atom_site_fract_x
_atom_site_fract_y
_atom_site_fract_z
Zr1	Zr	0.820446	0.677571	-0.081319
O2	O	0.684400	0.806704	-0.180157
O3	O	0.862173	0.548433	-0.051008
O4	O	0.862142	0.677567	-0.180142
O5	O	0.684431	0.677574	0.050827
O6	O	1.002323	0.677570	-0.180144
O7	O	0.684431	0.677570	-0.051023
O8	O	1.002379	0.446572	0.050854
O9	O	0.684375	0.908572	-0.180171
O10	O	0.984558	0.601553	-0.038096
O11	O	0.879943	0.601554	0.037915
O12	O	0.879906	0.753593	-0.114124
O13	O	0.775290	0.753595	-0.038114
Zr14	Zr	1.044018	0.677582	0.081117
Zr15	Zr	1.044019	0.677575	-0.081321
Zr16	Zr	0.820446	0.677578	0.081120
Zr17	Zr	0.820406	0.840038	-0.081341
Zr18	Zr	1.044058	0.515114	0.081139
O19	O	1.002291	0.806719	0.050806
O20	O	1.002292	0.806710	-0.180161
O21	O	0.684400	0.806714	0.050810
O22	O	1.180064	0.548449	0.179955
O23	O	1.180065	0.548439	-0.051011
O24	O	0.862173	0.548443	0.179959
O25	O	1.180033	0.677578	-0.051029
O26	O	1.002322	0.677585	0.179940
O27	O	0.862141	0.677583	0.179942
O28	O	1.180033	0.677583	0.050821
O29	O	0.862086	0.908575	-0.180173
O30	O	1.002378	0.446578	0.179971
O31	O	1.180089	0.446581	0.179969
O32	O	1.180089	0.446575	0.050852
O33	O	0.684375	0.908577	-0.051054
O34	O	0.862086	0.908580	-0.051056
O35	O	0.984558	0.601559	0.113923
O36	O	1.089174	0.601558	0.037912
O37	O	0.984522	0.753598	-0.038116
O38	O	0.879906	0.753600	0.037894
C39	C	0.652577	0.677571	-0.000098
C40	C	0.557664	0.677570	-0.000097
C41	C	0.932232	0.677585	0.203085
C42	C	0.932232	0.677588	0.272044
C43	C	0.932183	0.880798	-0.000128
C44	C	0.932166	0.949770	-0.000137
C45	C	0.383879	0.677585	-0.000104
C46	C	0.480583	0.677580	-0.000102
C47	C	1.211887	0.677581	-0.000104
C48	C	1.306800	0.677583	-0.000105
C49	C	0.932281	0.474355	-0.000074
C50	C	0.932298	0.405383	-0.000065
C51	C	0.877564	0.982165	0.039543
C52	C	0.877586	1.046946	0.039557
C53	C	0.932205	1.079335	-0.000114
C54	C	0.986814	1.046933	-0.039796
C55	C	0.986797	0.982149	-0.039805
C56	C	0.986885	1.308200	-0.039760
C57	C	0.986895	1.372991	-0.039750
C58	C	0.877674	1.372997	0.039602
C59	C	0.877657	1.308213	0.039593
C60	C	0.932270	1.275814	-0.000085
C61	C	0.932246	1.205569	-0.000098
C62	C	0.932223	1.149582	-0.000106
C63	C	0.932232	0.677568	-0.203287
C64	C	0.932233	0.677565	-0.272246
C65	C	0.877606	0.756951	0.264758
C66	C	0.877601	0.756948	0.329555
C67	C	0.932229	0.677582	0.401638
C68	C	0.986856	0.598213	0.408924
C69	C	0.986854	0.598217	0.344127
C70	C	0.986865	0.598198	0.670242
C71	C	0.986865	0.598201	0.735040
C72	C	0.877612	0.756930	0.655670
C73	C	0.877610	0.756933	0.590873
C74	C	0.932232	0.677565	0.598164
C75	C	0.932235	0.677568	0.527903
C76	C	0.932233	0.677578	0.471899
C77	C	1.211937	0.474359	-0.000077
C78	C	1.306866	0.405389	-0.000069
C79	C	0.932281	0.474363	0.203112
C80	C	0.932298	0.405395	0.272081
C81	C	1.211936	0.474368	0.203109
C82	C	1.306866	0.405401	0.272077
C83	C	0.652528	0.880784	-0.203311
C84	C	0.557599	0.949751	-0.272278
C85	C	0.652527	0.880793	-0.000125
C86	C	0.557598	0.949763	-0.000133
C87	C	0.932183	0.880789	-0.203314
C88	C	0.932167	0.949758	-0.272283
C89	C	1.296838	0.372998	-0.039747
C90	C	1.386025	0.308202	-0.039755
C91	C	1.485240	0.275795	-0.000079
C92	C	1.495267	0.308193	0.039601
C93	C	1.406080	0.372992	0.039603
C94	C	0.986914	0.373009	0.344151
C95	C	0.986925	0.308215	0.408961
C96	C	0.932327	0.275803	0.401698
C97	C	0.877704	0.308195	0.329620
C98	C	0.877687	0.372992	0.264812
C99	C	1.406063	0.373013	0.264788
C100	C	1.495267	0.308220	0.329584
C101	C	1.485272	0.275812	0.401668
C102	C	1.386064	0.308207	0.408955
C103	C	1.296862	0.373003	0.344160
C104	C	0.458401	0.982148	-0.264990
C105	C	0.369197	1.046961	-0.329786
C106	C	0.379192	1.079372	-0.401870
C107	C	0.478400	1.046973	-0.409157
C108	C	0.567602	0.982165	-0.344362
C109	C	0.567627	0.982162	0.039539
C110	C	0.478439	1.046975	0.039528
C111	C	0.379224	1.079385	-0.000150
C112	C	0.369198	1.046983	-0.039826
C113	C	0.458384	0.982175	-0.039820
C114	C	0.986776	0.982149	-0.264995
C115	C	0.986781	1.046944	-0.329793
C116	C	0.932169	1.079351	-0.401876
C117	C	0.877558	1.046953	-0.409162
C118	C	0.877560	0.982155	-0.344365
H119	H	0.833081	0.955803	0.071844
H120	H	0.450243	0.955762	-0.206301
H121	H	1.557915	0.223051	0.454423
O122	O	0.674595	0.947213	-0.352227
H123	H	0.666547	0.980636	-0.413239
H124	H	0.833086	0.955789	-0.350309
O125	O	1.045811	0.512581	0.678135
H126	H	0.990703	0.508750	0.650532
O127	O	0.818683	0.842554	0.187011
H128	H	0.780689	0.897738	0.192833
O129	O	0.262181	1.081945	-0.082617
H130	H	0.270178	1.048537	-0.110210
H131	H	0.932349	0.223041	0.454475
O132	O	0.818843	0.407929	0.187055
H133	H	0.874044	0.395468	0.155685
H134	H	1.031333	0.533591	0.350065
O135	O	0.818724	1.273302	0.082376
H136	H	0.873841	1.201813	0.126232
O137	O	0.282971	1.149281	-0.471751
H138	H	0.235883	1.124409	-0.471703
H139	H	1.031376	1.399360	-0.072056
O140	O	1.045776	0.512595	0.812793
H141	H	1.083748	0.457405	0.806978
H142	H	0.833095	1.073349	-0.467861
O143	O	1.045848	0.512607	0.486668
H144	H	1.036707	0.525936	0.530502
O145	O	0.447563	0.947225	-0.082603
H146	H	0.363587	0.980647	-0.110185
H147	H	1.216094	0.399365	0.350105
H148	H	1.031247	0.955774	-0.206307
O149	O	1.045681	1.081883	-0.321927
H150	H	1.083638	1.048469	-0.260916
O151	O	1.045730	1.081861	-0.082584
H152	H	1.014163	1.111387	-0.143570
H153	H	1.031350	1.281827	-0.072069
H154	H	0.833130	0.821561	0.532182
O155	O	0.818686	1.081896	0.082349
H156	H	0.780691	1.048499	0.109924
O157	O	0.818682	0.842550	0.321691
H158	H	0.827848	0.829218	0.378857
O159	O	1.581427	0.205905	-0.000089
H160	H	1.652108	0.188812	0.034160
H161	H	1.216060	0.399383	-0.072065
O162	O	1.375201	0.273262	-0.082550
H163	H	1.331919	0.243728	-0.059603
O164	O	0.818819	1.407902	0.082440
H165	H	0.828029	1.458374	0.075802
H166	H	0.932176	1.132114	-0.454631
H167	H	0.486526	1.073370	-0.467856
H168	H	1.031261	0.955772	-0.072116
H169	H	0.833131	0.821556	0.649739
H170	H	1.576059	0.281798	0.071903
O171	O	1.416901	0.407914	0.082415
H172	H	1.500877	0.374480	0.110008
O173	O	1.375289	0.273238	0.486705
H174	H	1.453988	0.222731	0.530530
H175	H	0.833251	0.281796	0.323718
O176	O	1.045801	0.407964	0.351994
H177	H	1.083766	0.374558	0.413002
O178	O	1.416866	0.407959	0.187047
H179	H	1.338180	0.458455	0.143206
H180	H	1.031409	0.281849	0.467644
H181	H	1.576039	0.281851	0.323637
H182	H	0.288426	1.073329	-0.323837
H183	H	0.486623	1.073345	0.071841
O184	O	0.674632	0.947225	0.082324
H185	H	0.666604	0.980662	0.109894
H186	H	0.306611	1.132155	-0.000149
