data_functionalizedCrystal
_audit_creation_method	'MofGen! by Chris Wilmer'
_symmetry_space_group_name_H-M	'P1'
_symmetry_Int_Tables_number	1
_symmetry_cell_setting	triclinic
loop_
_symmetry_equiv_pos_as_xyz
  x,y,z
_cell_length_a	27.440280
_cell_length_b	23.096457
_cell_length_c	23.096457
_cell_angle_alpha	60.008701
_cell_angle_beta	90.016954
_cell_angle_gamma	59.998890
loop_
_atom_site_label
_atom_site_type_symbol
_atom_site_fract_x
_atom_site_fract_y
_atom_site_fract_z
Zr1	Zr	0.469500	0.633665	-0.075885
O2	O	0.391665	0.754463	-0.168342
O3	O	0.493359	0.512875	-0.047546
O4	O	0.493337	0.633663	-0.168332
O5	O	0.391705	0.633674	0.047726
O6	O	0.573540	0.633652	-0.168320
O7	O	0.391686	0.633675	-0.047556
O8	O	0.573578	0.417585	0.047744
O9	O	0.391667	0.849741	-0.168338
O10	O	0.563391	0.562546	-0.035446
O11	O	0.503550	0.562554	0.035653
O12	O	0.503525	0.704766	-0.106557
O13	O	0.443685	0.704773	-0.035458
Zr14	Zr	0.597444	0.633645	0.076098
Zr15	Zr	0.597414	0.633647	-0.075866
Zr16	Zr	0.469530	0.633663	0.076079
Zr17	Zr	0.469503	0.785622	-0.075879
Zr18	Zr	0.597441	0.481687	0.076091
O19	O	0.573586	0.754434	0.047758
O20	O	0.573542	0.754438	-0.168315
O21	O	0.391708	0.754460	0.047731
O22	O	0.675279	0.512846	0.168554
O23	O	0.675236	0.512850	-0.047519
O24	O	0.493402	0.512872	0.168527
O25	O	0.675239	0.633636	-0.047514
O26	O	0.573607	0.633646	0.168544
O27	O	0.493404	0.633658	0.168532
O28	O	0.675258	0.633634	0.047768
O29	O	0.493342	0.849727	-0.168323
O30	O	0.573603	0.417583	0.168535
O31	O	0.675277	0.417569	0.168550
O32	O	0.675253	0.417571	0.047759
O33	O	0.391691	0.849739	-0.047547
O34	O	0.493366	0.849725	-0.047532
O35	O	0.563419	0.562544	0.106769
O36	O	0.623259	0.562537	0.035670
O37	O	0.563394	0.704756	-0.035440
O38	O	0.503553	0.704763	0.035659
C39	C	0.533468	0.443579	0.000098
C40	C	0.533467	0.379070	0.000095
C41	C	0.373471	0.633677	0.000082
C42	C	0.319168	0.633685	0.000074
C43	C	0.533434	0.633658	-0.189977
C44	C	0.533421	0.633659	-0.254490
C45	C	0.013720	0.559404	0.037245
C46	C	-0.037299	0.559400	0.037251
O47	O	-0.037111	0.496264	0.068841
N48	N	-0.094065	0.633636	0.000131
C49	C	-0.099812	0.707882	-0.036991
O50	O	-0.152780	0.771025	-0.068563
C51	C	-0.048794	0.707885	-0.036993
C52	C	0.007972	0.633644	0.000123
C53	C	0.070482	0.485169	0.074359
C54	C	0.121497	0.485174	0.074351
C55	C	0.115749	0.559414	0.037230
C56	C	0.058986	0.633649	0.000116
C57	C	-0.054541	0.782130	-0.074111
C58	C	-0.003517	0.782127	-0.074109
C59	C	0.053248	0.707886	-0.036993
C60	C	0.104253	0.707894	-0.037013
N61	N	0.161019	0.633658	0.000107
C62	C	0.166767	0.559418	0.037228
C63	C	-0.206950	0.707868	-0.036984
C64	C	-0.257968	0.707865	-0.036987
C65	C	-0.195451	0.559383	0.037257
C66	C	-0.144433	0.559387	0.037255
C67	C	-0.150184	0.633632	0.000136
C68	C	0.273899	0.559433	0.037209
C69	C	0.324916	0.559445	0.037196
C70	C	0.262395	0.707926	-0.037045
C71	C	0.211383	0.707916	-0.037035
C72	C	0.217139	0.633662	0.000097
O73	O	0.104111	0.770997	-0.068585
O74	O	0.219737	0.496285	0.068803
C75	C	0.693473	0.633633	0.000130
C76	C	0.747776	0.633625	0.000138
C77	C	0.564699	0.348765	-0.037020
C78	C	0.564704	0.288143	-0.037014
C79	C	0.533467	0.257839	0.000097
C80	C	0.502233	0.288148	0.037221
C81	C	0.502233	0.348763	0.037220
N82	N	0.482620	0.195450	-0.005057
N83	N	0.482621	0.137870	-0.005060
C84	C	0.533466	0.075207	0.000104
N85	N	0.584309	0.072308	0.005257
N86	N	0.584307	0.129896	0.005256
C87	C	0.533464	0.192111	0.000103
C88	C	0.564707	-0.020832	-0.037007
C89	C	0.564715	-0.081459	-0.036996
C90	C	0.502238	-0.081447	0.037234
C91	C	0.502236	-0.020827	0.037228
C92	C	0.533469	0.009479	0.000104
C93	C	0.533476	0.823730	0.000114
C94	C	0.533478	0.888240	0.000117
C95	C	0.502175	0.707894	-0.321913
C96	C	0.502190	0.707895	-0.382529
C97	C	0.533444	0.633657	-0.375719
C98	C	0.564697	0.559413	-0.308284
C99	C	0.564685	0.559414	-0.247669
N100	N	0.529131	0.578402	-0.443277
N101	N	0.529138	0.578406	-0.500861
C102	C	0.533480	0.633650	-0.558344
N103	N	0.537803	0.688902	-0.556075
N104	N	0.537793	0.688900	-0.498487
C105	C	0.533459	0.633648	-0.441441
C106	C	0.502249	0.707891	-0.691497
C107	C	0.502268	0.707889	-0.752113
C108	C	0.564771	0.559405	-0.677865
C109	C	0.564755	0.559409	-0.617251
C110	C	0.533491	0.633654	-0.624072
C111	C	0.533510	0.633652	0.190190
C112	C	0.533523	0.633651	0.254702
C113	C	0.693469	0.443557	0.000122
C114	C	0.747771	0.379040	0.000127
C115	C	0.533506	0.443576	0.190182
C116	C	0.533518	0.379065	0.254692
C117	C	0.693507	0.443554	0.190205
C118	C	0.747822	0.379035	0.254723
C119	C	0.373437	0.823756	-0.189993
C120	C	0.319123	0.888274	-0.254511
C121	C	0.373475	0.823753	0.000090
C122	C	0.319173	0.888270	0.000085
C123	C	0.533438	0.823734	-0.189969
C124	C	0.533427	0.888245	-0.254479
C125	C	0.742020	0.348747	-0.036999
C126	C	0.793038	0.288134	-0.037008
C127	C	0.849804	0.257811	0.000114
C128	C	0.855554	0.288111	0.037241
C129	C	0.804537	0.348726	0.037245
C130	C	0.564774	0.348765	0.322115
C131	C	0.564782	0.288159	0.382734
C132	C	0.533538	0.257849	0.375929
C133	C	0.502278	0.288155	0.308499
C134	C	0.502266	0.348765	0.247881
C135	C	0.804570	0.348733	0.247909
C136	C	0.855609	0.288120	0.308524
C137	C	0.849898	0.257805	0.375954
C138	C	0.793145	0.288114	0.382767
C139	C	0.742107	0.348730	0.322152
C140	C	0.262375	0.918584	-0.247697
C141	C	0.211335	0.979216	-0.308312
C142	C	0.217046	1.009534	-0.375742
C143	C	0.273800	0.979222	-0.382555
C144	C	0.324837	0.918595	-0.321940
C145	C	0.324924	0.918570	0.037205
C146	C	0.273907	0.979199	0.037197
C147	C	0.217140	1.009524	0.000074
C148	C	0.211391	0.979222	-0.037051
C149	C	0.262407	0.918597	-0.037047
C150	C	0.564677	0.918535	-0.247652
C151	C	0.564678	0.979142	-0.308260
C152	C	0.533424	1.009461	-0.375695
C153	C	0.502173	0.979165	-0.382521
C154	C	0.502176	0.918555	-0.321914
H155	H	0.371137	0.498986	0.067423
C156	C	0.599142	0.382100	0.329610
H157	H	0.594667	0.422534	0.283856
H158	H	0.583714	0.405751	0.354791
H159	H	0.640253	0.338576	0.354804
H160	H	0.891462	0.208447	0.425305
H161	H	0.476720	0.768351	-0.327473
H162	H	0.165129	1.003886	-0.302751
C163	C	0.533556	0.191177	0.442611
H164	H	0.510469	0.177465	0.428907
H165	H	0.573368	0.143885	0.470036
H166	H	0.516831	0.211059	0.470026
H167	H	0.175604	1.058888	0.000076
H168	H	0.809227	0.373383	0.067482
C169	C	0.467877	-0.114774	0.078057
H170	H	0.472347	-0.155212	0.072740
H171	H	0.483314	-0.138419	0.126890
H172	H	0.426766	-0.071251	0.059716
H173	H	0.901816	0.263449	0.302964
C174	C	0.467817	0.789554	-0.456704
H175	H	0.472305	0.778918	-0.491826
H176	H	0.426708	0.820059	-0.462041
H177	H	0.483242	0.820058	-0.462008
C178	C	0.599072	0.477753	-0.300791
H179	H	0.594599	0.488384	-0.346547
H180	H	0.640178	0.447244	-0.275587
H181	H	0.583639	0.447256	-0.275623
C182	C	0.679584	0.382095	-0.077840
H183	H	0.683474	0.355372	-0.099956
H184	H	0.658383	0.372162	-0.045810
H185	H	0.658378	0.439328	-0.112967
H186	H	0.075173	0.424711	0.104591
C187	C	0.599050	1.012465	-0.300742
H188	H	0.594581	1.052899	-0.346492
H189	H	0.583620	1.036114	-0.275560
H190	H	0.640160	0.968936	-0.275543
H191	H	0.809230	0.373406	0.193010
C192	C	0.786703	0.254807	-0.077841
H193	H	0.745587	0.281540	-0.099935
H194	H	0.805292	0.264743	-0.112972
H195	H	0.805314	0.197575	-0.045798
C196	C	0.917999	0.254743	0.078077
H197	H	0.947554	0.214298	0.072760
H198	H	0.922484	0.298245	0.059761
H199	H	0.922486	0.231082	0.126915
C200	C	0.148946	1.012578	-0.077877
H201	H	0.119390	1.053015	-0.072552
H202	H	0.144449	1.036230	-0.126713
H203	H	0.144469	0.969063	-0.059540
C204	C	-0.116973	0.863797	-0.114934
H205	H	-0.113079	0.908004	-0.137031
H206	H	-0.138192	0.866898	-0.150063
H207	H	-0.138161	0.866879	-0.082887
H208	H	0.590151	-0.106137	-0.067217
H209	H	0.476801	0.003850	0.067449
H210	H	0.590138	0.263464	-0.067239
C211	C	0.280241	1.012512	0.078043
H212	H	0.321357	0.985755	0.100162
H213	H	0.261640	1.069739	0.046013
H214	H	0.261642	1.002576	0.113168
H215	H	0.476727	1.003861	-0.437435
C216	C	0.280073	1.012570	-0.456729
H217	H	0.241546	1.053010	-0.491848
H218	H	0.301272	1.036216	-0.462056
H219	H	0.301263	0.969052	-0.462049
H220	H	0.788504	0.263423	0.437677
C221	C	0.256078	0.885263	-0.077871
H222	H	0.294588	0.844816	-0.072559
H223	H	0.234876	0.861629	-0.059540
H224	H	0.234868	0.928785	-0.126709
C225	C	-0.009844	0.863797	-0.114905
H226	H	0.028668	0.853173	-0.109580
H227	H	-0.031063	0.894337	-0.163743
H228	H	-0.031033	0.894260	-0.096538
C229	C	0.387257	0.885250	-0.329445
H230	H	0.383342	0.911987	-0.378286
H231	H	0.408477	0.895170	-0.307341
H232	H	0.408457	0.828021	-0.307350
C233	C	0.599061	0.885191	-0.173481
H234	H	0.617676	0.911912	-0.178105
H235	H	0.572102	0.895130	-0.148292
H236	H	0.628632	0.827958	-0.148292
C237	C	0.467895	0.789552	-0.826280
H238	H	0.449271	0.833766	-0.821657
H239	H	0.494865	0.792640	-0.851452
H240	H	0.438333	0.792635	-0.851485
C241	C	0.533421	1.076137	-0.442356
H242	H	0.556505	1.089836	-0.428626
H243	H	0.550142	1.056277	-0.469783
H244	H	0.493608	1.123443	-0.469780
C245	C	0.599176	0.254826	0.456898
H246	H	0.617789	0.281550	0.452264
H247	H	0.572220	0.264768	0.482090
H248	H	0.628748	0.197592	0.482090
H249	H	0.371142	0.893884	0.067440
C250	C	0.467788	0.885253	-0.329429
H251	H	0.472262	0.844812	-0.283679
H252	H	0.426683	0.928787	-0.354624
H253	H	0.483211	0.861603	-0.354615
C254	C	0.467919	0.254800	0.301023
H255	H	0.472414	0.214357	0.346785
H256	H	0.426808	0.298307	0.275834
H257	H	0.483354	0.231139	0.275848
H258	H	0.695902	0.373394	0.327711
H259	H	0.175483	1.058900	-0.425093
H260	H	0.476815	0.373427	0.192984
H261	H	0.167714	0.424719	0.104572
C262	C	0.280237	0.477757	0.078048
H263	H	0.321353	0.433552	0.100143
H264	H	0.261649	0.474658	0.113180
H265	H	0.261627	0.474669	0.046007
C266	C	-0.081996	0.477723	0.078091
H267	H	-0.085886	0.433512	0.100202
H268	H	-0.060798	0.474631	0.046059
H269	H	-0.060790	0.474638	0.113222
H270	H	0.590219	0.498959	-0.672319
H271	H	-0.304185	0.768320	-0.067220
C272	C	0.256082	0.885254	-0.173532
H273	H	0.214971	0.912005	-0.178165
H274	H	0.274685	0.828027	-0.148336
H275	H	0.274695	0.895192	-0.148345
H276	H	-0.211641	0.768331	-0.067214
C277	C	-0.189132	0.477718	0.078096
H278	H	-0.148019	0.433501	0.100200
H279	H	-0.207728	0.474635	0.113219
H280	H	-0.207745	0.474634	0.046053
C281	C	0.148941	0.789578	-0.077861
H282	H	0.152827	0.833792	-0.099967
H283	H	0.127721	0.792670	-0.112982
H284	H	0.127758	0.792657	-0.045809
H285	H	0.257725	0.768371	-0.067270
H286	H	0.476800	0.263470	0.067438
C287	C	0.467872	0.382105	0.078043
H288	H	0.449265	0.355381	0.100144
H289	H	0.494843	0.372175	0.113167
H290	H	0.438296	0.439338	0.045993
C291	C	0.599060	0.382093	-0.077845
H292	H	0.594586	0.422537	-0.072535
H293	H	0.640167	0.338571	-0.059511
H294	H	0.583618	0.405746	-0.126683
H295	H	0.590130	0.498961	-0.192769
C296	C	0.599072	0.012494	-0.077828
H297	H	0.617683	-0.014249	-0.099923
H298	H	0.572102	0.069723	-0.112959
H299	H	0.628645	0.002551	-0.045779
C300	C	0.467872	0.789556	-0.698994
H301	H	0.449273	0.833769	-0.747834
H302	H	0.438299	0.792654	-0.676914
H303	H	0.494843	0.792630	-0.676870
H304	H	0.891341	0.208454	0.000105
C305	C	0.599119	0.477749	-0.543084
H306	H	0.617731	0.433535	-0.547707
H307	H	0.628680	0.474657	-0.517873
H308	H	0.572140	0.474671	-0.517918
