data_functionalizedCrystal
_audit_creation_method	'MofGen! by Chris Wilmer'
_symmetry_space_group_name_H-M	'P1'
_symmetry_Int_Tables_number	1
_symmetry_cell_setting	triclinic
loop_
_symmetry_equiv_pos_as_xyz
  x,y,z
_cell_length_a	16.120566
_cell_length_b	16.120531
_cell_length_c	16.120256
_cell_angle_alpha	84.387676
_cell_angle_beta	89.874858
_cell_angle_gamma	90.174626
loop_
_atom_site_label
_atom_site_type_symbol
_atom_site_fract_x
_atom_site_fract_y
_atom_site_fract_z
Zn1	Zn	-1.224935	0.422268	-0.554854
Zn2	Zn	-1.224815	0.554947	-0.422149
Zn3	Zn	-1.093676	0.408180	-0.408090
Zn4	Zn	-1.078813	0.554184	-0.554074
O5	O	-1.155560	0.484895	-0.484792
O6	O	-1.340954	0.446083	-0.543460
O7	O	-1.213590	0.529901	-0.303651
O8	O	-1.117358	0.293419	-0.422000
O9	O	-1.340866	0.543561	-0.445963
O10	O	-1.213793	0.303770	-0.529827
O11	O	-1.117243	0.422073	-0.293322
O12	O	-0.975670	0.421333	-0.421245
O13	O	-1.092026	0.542262	-0.670810
O14	O	-0.964750	0.528602	-0.528499
O15	O	-1.199381	0.445344	-0.671383
O16	O	-1.199178	0.671475	-0.445207
O17	O	-1.091910	0.670915	-0.542132
C18	C	-0.940123	0.473357	-0.473262
C19	C	-0.847956	0.468442	-0.468351
C20	C	-1.143939	0.701438	-0.495130
C21	C	-1.139043	0.794082	-0.499585
C22	C	-0.679206	0.459449	-0.459389
C23	C	-0.632750	0.510413	-0.510204
C24	C	-0.538851	0.505409	-0.505218
C25	C	-0.773113	0.464452	-0.464374
C26	C	-0.371838	0.496481	-0.496353
C27	C	-0.464005	0.501423	-0.501246
C28	C	-1.130106	0.963704	-0.507735
C29	C	-1.181047	1.005245	-0.461803
C30	C	-1.176075	1.099629	-0.466338
C31	C	-1.135077	0.869312	-0.503201
C32	C	-1.144059	0.495289	-0.702184
C33	C	-1.139158	0.499719	-0.794823
C34	C	-1.167219	1.267506	-0.474416
C35	C	-1.172113	1.174862	-0.469951
C36	C	-1.181118	0.461774	-1.005993
C37	C	-1.130183	0.507770	-0.964429
C38	C	-1.135178	0.503289	-0.870052
C39	C	-1.176125	0.466254	-1.100378
C40	C	-1.167067	0.474483	-0.268245
C41	C	-1.172141	0.469828	-0.175603
H42	H	-0.648461	0.412064	-0.412144
O43	O	-1.237455	0.962984	-0.410834
C44	C	-1.229931	0.876790	-0.417601
H45	H	-1.165085	0.862930	-0.440876
H46	H	-1.278014	0.856765	-0.463480
C47	C	-1.324001	0.845431	-0.302988
C48	C	-1.244353	0.828407	-0.331568
H49	H	-1.332901	0.815584	-0.249921
H50	H	-1.329073	0.903501	-0.298431
H51	H	-1.364061	0.828743	-0.341228
H52	H	-1.204295	0.845104	-0.293334
H53	H	-1.239275	0.770338	-0.336117
O54	O	-1.073644	1.005957	-0.558633
C55	C	-1.081198	1.092153	-0.551889
H56	H	-1.111209	1.102318	-0.489604
H57	H	-1.121419	1.121526	-0.604888
C58	C	-0.957717	1.120411	-0.633566
C59	C	-0.994571	1.132897	-0.557063
H60	H	-0.904283	1.145546	-0.636761
H61	H	-0.952629	1.062340	-0.638113
H62	H	-0.991243	1.144889	-0.677723
H63	H	-0.961050	1.108410	-0.512909
H64	H	-0.999652	1.190965	-0.552509
O65	O	-1.073769	0.558760	-1.006662
C66	C	-1.081276	0.551940	-1.092856
H67	H	-1.146118	0.528601	-1.106765
H68	H	-1.033186	0.506088	-1.112808
C69	C	-0.987210	0.666619	-1.124187
C70	C	-1.066852	0.637961	-1.141271
H71	H	-0.978309	0.719679	-1.154053
H72	H	-0.982149	0.671213	-1.066116
H73	H	-0.947144	0.628402	-1.140814
H74	H	-1.106917	0.676172	-1.124635
H75	H	-1.071919	0.633375	-1.199341
H76	H	-1.228473	0.419035	-0.970700
H77	H	-0.663496	0.557801	-0.557454
