data_functionalizedCrystal
_audit_creation_method	'MofGen! by Chris Wilmer'
_symmetry_space_group_name_H-M	'P1'
_symmetry_Int_Tables_number	1
_symmetry_cell_setting	triclinic
loop_
_symmetry_equiv_pos_as_xyz
  x,y,z
_cell_length_a	18.050589
_cell_length_b	14.908571
_cell_length_c	14.908308
_cell_angle_alpha	90.175053
_cell_angle_beta	86.730698
_cell_angle_gamma	93.275442
loop_
_atom_site_label
_atom_site_type_symbol
_atom_site_fract_x
_atom_site_fract_y
_atom_site_fract_z
Zn1	Zn	-0.387558	-1.345230	0.587600
Zn2	Zn	0.112442	-0.845230	1.087600
Zn3	Zn	-0.505024	-1.353791	0.437245
Zn4	Zn	-0.005024	-0.853791	0.937245
Zn5	Zn	-0.373294	-1.203548	0.428597
Zn6	Zn	0.126706	-0.703548	0.928597
Zn7	Zn	-0.504142	-1.194819	0.578897
Zn8	Zn	-0.004142	-0.694819	1.078897
O9	O	-0.442504	-1.274347	0.508085
O10	O	0.057496	-0.774347	1.008085
O11	O	-0.409479	-1.472191	0.574916
O12	O	0.090521	-0.972191	1.074916
O13	O	-0.481949	-1.341097	0.310273
O14	O	0.018051	-0.841097	0.810273
O15	O	-0.271266	-1.222413	0.449712
O16	O	0.228734	-0.722413	0.949712
O17	O	-0.495781	-1.478480	0.464452
O18	O	0.004219	-0.978480	0.964452
O19	O	-0.281746	-1.326506	0.566530
O20	O	0.218254	-0.826506	1.066530
O21	O	-0.385168	-1.230714	0.303919
O22	O	0.114832	-0.730714	0.803919
O23	O	-0.384312	-1.076565	0.441273
O24	O	0.115688	-0.576565	0.941273
O25	O	-0.494277	-1.207536	0.705876
O26	O	0.005723	-0.707536	1.205876
O27	O	-0.480446	-1.070152	0.551698
O28	O	0.019554	-0.570152	1.051698
O29	O	-0.408624	-1.318042	0.712270
O30	O	0.091376	-0.818042	1.212270
O31	O	-0.608827	-1.332633	0.456013
O32	O	-0.108827	-0.832633	0.956013
O33	O	-0.608179	-1.215836	0.560084
O34	O	-0.108179	-0.715836	1.060084
C35	C	-0.430736	-1.040734	0.494603
C36	C	0.069264	-0.540734	0.994603
C37	C	-0.425720	-0.940791	0.488857
C38	C	0.074280	-0.440791	0.988857
C39	C	-0.635451	-1.274239	0.508063
C40	C	-0.135451	-0.774239	1.008063
C41	C	-0.717999	-1.274274	0.508089
C42	C	-0.217999	-0.774274	1.008089
C43	C	-0.452943	-1.260860	0.742610
C44	C	0.047057	-0.760860	1.242610
C45	C	-0.457391	-1.255113	0.842551
C46	C	0.042609	-0.755113	1.342551
C47	C	-0.917126	-1.210820	0.564665
C48	C	-0.417126	-0.710820	1.064665
C49	C	-0.961795	-1.193639	0.481356
C50	C	-0.461795	-0.693639	0.981356
C51	C	-0.869134	-1.274362	0.508106
C52	C	-0.369134	-0.774362	1.008106
C53	C	-0.971550	-1.291586	0.591427
C54	C	-0.471550	-0.791586	1.091427
C55	C	-1.015125	-1.274444	0.508129
C56	C	-0.515125	-0.774444	1.008129
C57	C	-0.912712	-1.257140	0.424750
C58	C	-0.412712	-0.757140	0.924750
C59	C	-0.922467	-1.355122	0.534880
C60	C	-0.422467	-0.855122	1.034880
C61	C	-0.967112	-1.337975	0.451515
C62	C	-0.467112	-0.837975	0.951515
C63	C	-0.785033	-1.274312	0.508094
C64	C	-0.285033	-0.774312	1.008094
C65	C	-1.099224	-1.274495	0.508132
C66	C	-0.599224	-0.774495	1.008132
C67	C	-0.248807	-1.274479	0.508127
C68	C	0.251193	-0.774479	1.008127
C69	C	-0.166265	-1.274535	0.508145
C70	C	0.333735	-0.774535	1.008145
C71	C	-0.454320	-1.508873	0.521619
C72	C	0.045680	-1.008873	1.021619
C73	C	-0.459355	-1.608814	0.527387
C74	C	0.040645	-1.108814	1.027387
C75	C	-0.516539	-0.746369	0.592890
C76	C	-0.016539	-0.246369	1.092890
C77	C	-0.511829	-0.652464	0.587494
C78	C	-0.011829	-0.152464	1.087494
C79	C	-0.411586	-0.659075	0.472674
C80	C	0.088414	-0.159075	0.972674
C81	C	-0.416296	-0.752980	0.478070
C82	C	0.083704	-0.252980	0.978070
C83	C	-0.468775	-0.796623	0.538179
C84	C	0.031225	-0.296623	1.038179
C85	C	-0.473489	-0.890530	0.543570
C86	C	0.026511	-0.390530	1.043570
C87	C	-0.373243	-0.897139	0.428755
C88	C	0.126757	-0.397139	0.928755
C89	C	-0.368533	-0.803235	0.423359
C90	C	0.131467	-0.303235	0.923359
C91	C	-0.432055	-1.287833	0.274474
C92	C	0.067945	-0.787833	0.774474
C93	C	-0.427407	-1.293755	0.174544
C94	C	0.072593	-0.793755	0.674544
C95	C	-0.376542	-1.359381	1.037010
C96	C	0.123458	-0.859381	1.537010
C97	C	-0.380719	-1.353984	1.130914
C98	C	0.119281	-0.853984	1.630914
C99	C	-0.469919	-1.238917	1.124263
C100	C	0.030081	-0.738917	1.624263
C101	C	-0.465741	-1.244314	1.030360
C102	C	0.034259	-0.744314	1.530360
C103	C	-0.419052	-1.304549	0.986737
C104	C	0.080948	-0.804549	1.486737
C105	C	-0.414880	-1.309951	0.892832
C106	C	0.085120	-0.809951	1.392832
C107	C	-0.504075	-1.194880	0.886183
C108	C	-0.004075	-0.694880	1.386183
C109	C	-0.508252	-1.189483	0.980086
C110	C	-0.008252	-0.689483	1.480086
H111	H	-0.895182	-1.157015	0.612419
H112	H	-0.395182	-0.657015	1.112419
H113	H	-0.334352	-0.938067	0.384203
H114	H	0.165648	-0.438067	0.884203
Cl115	Cl	-0.356188	-1.385676	0.837992
Cl116	Cl	0.143812	-0.885676	1.337992
H117	H	-0.988912	-1.391749	0.403636
H118	H	-0.488912	-0.891749	0.903636
Cl119	Cl	-0.317858	-1.435112	0.982167
Cl120	Cl	0.182142	-0.935112	1.482167
Cl121	Cl	-0.345608	-0.604193	0.397129
Cl122	Cl	0.154392	-0.104193	0.897129
Cl123	Cl	-1.011211	-1.314029	0.700202
Cl124	Cl	-0.511211	-0.814029	1.200202
Cl125	Cl	-0.873190	-1.234576	0.315935
Cl126	Cl	-0.373190	-0.734576	0.815935
Cl127	Cl	-0.539463	-0.945395	0.619132
Cl128	Cl	-0.039463	-0.445395	1.119132
Cl129	Cl	-0.327274	-1.422917	1.194112
Cl130	Cl	0.172726	-0.922917	1.694112
Cl131	Cl	-0.528602	-1.163194	1.179119
Cl132	Cl	-0.028602	-0.663194	1.679119
H133	H	-0.546263	-1.140439	1.015617
H134	H	-0.046263	-0.640439	1.515617
H135	H	-0.538692	-1.150234	0.845240
H136	H	-0.038692	-0.650234	1.345240
Cl137	Cl	-0.302560	-0.748360	0.347802
Cl138	Cl	0.197440	-0.248360	0.847802
Cl139	Cl	-0.988724	-1.088251	0.446398
Cl140	Cl	-0.488724	-0.588251	0.946398
H141	H	-0.905010	-1.423362	0.557544
H142	H	-0.405010	-0.923362	1.057544
H143	H	-0.550721	-0.611550	0.632047
H144	H	-0.050721	-0.111550	1.132047
Cl145	Cl	-0.582518	-0.801238	0.668443
Cl146	Cl	-0.082518	-0.301238	1.168443
