data_functionalizedCrystal
_audit_creation_method	'MofGen! by Chris Wilmer'
_symmetry_space_group_name_H-M	'P1'
_symmetry_Int_Tables_number	1
_symmetry_cell_setting	triclinic
loop_
_symmetry_equiv_pos_as_xyz
  x,y,z
_cell_length_a	14.971486
_cell_length_b	9.065215
_cell_length_c	7.540329
_cell_angle_alpha	90.002257
_cell_angle_beta	89.996650
_cell_angle_gamma	84.314413
loop_
_atom_site_label
_atom_site_type_symbol
_atom_site_fract_x
_atom_site_fract_y
_atom_site_fract_z
O1	O	1.188373	0.192256	0.147275
O2	O	0.928144	0.215279	0.147322
O3	O	1.063639	-0.010984	0.147290
O4	O	1.052878	0.418519	0.147307
O5	O	1.063634	-0.010986	-0.147675
O6	O	0.928139	0.215278	-0.147643
O7	O	1.188368	0.192254	-0.147691
Cu8	Cu	1.058253	0.203766	-0.174599
Cu9	Cu	1.058259	0.203768	0.174231
O10	O	1.052873	0.418518	-0.147658
C11	C	0.894809	0.214249	-0.000154
C12	C	0.795489	0.211163	-0.000136
C13	C	0.739254	0.344087	-0.000133
C14	C	0.645933	0.341179	-0.000160
C15	C	0.608849	0.205346	-0.000176
C16	C	0.665092	0.072412	-0.000184
C17	C	0.758411	0.075321	-0.000170
C18	C	0.470584	0.066357	-0.000209
C19	C	0.377258	0.063446	-0.000220
C20	C	0.358106	0.332214	-0.000198
C21	C	0.451425	0.335124	-0.000184
C22	C	0.507661	0.202189	-0.000189
C23	C	1.062603	-0.065951	-0.000191
C24	C	1.059512	-0.229731	-0.000185
C25	C	1.221703	0.193284	-0.000210
C26	C	1.321023	0.196370	-0.000217
C27	C	1.053909	0.473484	-0.000174
C28	C	1.057000	0.637265	-0.000168
N29	N	1.058256	0.203763	-0.419948
N30	N	1.058263	0.203758	0.419580
H31	H	0.634891	-0.038186	-0.000223
H32	H	0.804198	-0.032919	-0.000172
O33	O	0.779245	0.490599	-0.000135
H34	H	0.756726	0.554492	0.120075
O35	O	0.585275	0.484545	-0.000157
H36	H	0.626740	0.579486	-0.000122
H37	H	0.481615	0.445731	-0.000154
O38	O	0.297452	0.475594	-0.000210
H39	H	0.338916	0.570535	-0.000175
H40	H	0.347068	-0.047161	-0.000236
O41	O	0.531244	-0.077019	-0.000206
H42	H	0.489782	-0.171962	-0.000198
