data_functionalizedCrystal
_audit_creation_method	'MofGen! by Chris Wilmer'
_symmetry_space_group_name_H-M	'P1'
_symmetry_Int_Tables_number	1
_symmetry_cell_setting	triclinic
loop_
_symmetry_equiv_pos_as_xyz
  x,y,z
_cell_length_a	15.944564
_cell_length_b	8.140239
_cell_length_c	9.065218
_cell_angle_alpha	90.001330
_cell_angle_beta	95.740090
_cell_angle_gamma	90.003021
loop_
_atom_site_label
_atom_site_type_symbol
_atom_site_fract_x
_atom_site_fract_y
_atom_site_fract_z
O1	O	-1.115956	0.136435	0.190358
O2	O	-0.871585	0.136475	0.213797
O3	O	-0.998822	0.136451	-0.012682
O4	O	-0.988720	0.136459	0.416838
O5	O	-0.998818	-0.136776	-0.012684
O6	O	-0.871581	-0.136752	0.213796
O7	O	-1.115952	-0.136792	0.190357
Zn8	Zn	-0.993766	-0.180152	0.202076
Zn9	Zn	-0.993771	0.179836	0.202078
O10	O	-0.988716	-0.136768	0.416836
C11	C	-0.840282	-0.000133	0.212820
C12	C	-0.747015	-0.000118	0.209893
N13	N	-0.993768	-0.425835	0.202074
C14	C	-0.531043	-0.000152	0.062508
C15	C	-0.470543	0.134564	0.130937
C16	C	-0.576250	-0.000137	0.204598
C17	C	-0.470562	-0.134816	0.130969
C18	C	-0.411299	-0.000163	0.199472
C19	C	-0.516979	0.134691	0.273065
C20	C	-0.517003	-0.134811	0.273077
C21	C	-0.456523	-0.000061	0.341609
C22	C	-0.671274	-0.000121	0.207546
C23	C	-0.316276	-0.000168	0.196534
C24	C	-0.147257	-0.000180	0.191314
C25	C	-0.240528	-0.000185	0.194181
C26	C	-0.997849	-0.000160	-0.067647
C27	C	-0.994946	-0.000151	-0.231422
N28	N	-0.993776	0.425519	0.202069
C29	C	-0.989689	-0.000153	0.471801
C30	C	-0.992592	-0.000151	0.635577
H31	H	-0.563482	0.000012	-0.055409
H32	H	-0.424258	0.000016	0.459648
H33	H	-0.450019	-0.248704	0.070844
O34	O	-0.446058	0.270312	0.059010
C35	C	-0.456592	0.423852	-0.169354
C36	C	-0.484369	0.270041	-0.088074
H37	H	-0.487568	0.423702	-0.288276
H38	H	-0.385134	0.423161	-0.170054
H39	H	-0.476557	0.538635	-0.109853
H40	H	-0.464462	0.155178	-0.147511
H41	H	-0.555825	0.270877	-0.087360
O42	O	-0.541686	-0.270725	0.344515
C43	C	-0.625889	-0.517100	0.328603
C44	C	-0.598017	-0.363208	0.247553
H45	H	-0.671423	-0.591933	0.250235
H46	H	-0.658553	-0.478378	0.429341
H47	H	-0.568269	-0.594979	0.366217
H48	H	-0.655593	-0.285261	0.209841
H49	H	-0.565324	-0.402044	0.146883
O50	O	-0.541214	0.270773	0.344797
C51	C	-0.497292	0.520177	0.473339
C52	C	-0.469726	0.366118	0.392176
H53	H	-0.439511	0.597324	0.511640
H54	H	-0.530416	0.481644	0.573615
H55	H	-0.542373	0.595677	0.394744
H56	H	-0.424617	0.290549	0.470653
H57	H	-0.436649	0.404764	0.291881
