data_functionalizedCrystal
_audit_creation_method	'MofGen! by Chris Wilmer'
_symmetry_space_group_name_H-M	'P1'
_symmetry_Int_Tables_number	1
_symmetry_cell_setting	triclinic
loop_
_symmetry_equiv_pos_as_xyz
  x,y,z
_cell_length_a	19.188925
_cell_length_b	19.188930
_cell_length_c	12.503572
_cell_angle_alpha	93.506241
_cell_angle_beta	86.492816
_cell_angle_gamma	83.143665
loop_
_atom_site_label
_atom_site_type_symbol
_atom_site_fract_x
_atom_site_fract_y
_atom_site_fract_z
O1	O	0.930187	0.083096	-0.089355
O2	O	1.263521	0.416430	0.243978
O3	O	1.596854	0.749763	0.577311
O4	O	0.726875	0.094835	-0.089354
O5	O	1.060209	0.428168	0.243979
O6	O	1.393542	0.761501	0.577313
O7	O	0.834398	-0.012689	-0.089334
O8	O	1.167731	0.320644	0.244000
O9	O	1.501064	0.653977	0.577333
O10	O	0.822665	0.190620	-0.089376
O11	O	1.155999	0.523954	0.243958
O12	O	1.489332	0.857287	0.577291
O13	O	0.826311	-0.004590	0.089307
O14	O	1.159645	0.328744	0.422640
O15	O	1.492978	0.662077	0.755973
O16	O	0.718789	0.102934	0.089286
O17	O	1.052122	0.436268	0.422620
O18	O	1.385456	0.769601	0.755953
O19	O	0.922101	0.091196	0.089285
O20	O	1.255434	0.424529	0.422618
O21	O	1.588768	0.757863	0.755952
Cu22	Cu	0.819707	0.097805	0.105597
Cu23	Cu	1.153040	0.431138	0.438930
Cu24	Cu	1.486373	0.764471	0.772264
Cu25	Cu	0.829270	0.088226	-0.105666
Cu26	Cu	1.162603	0.421559	0.227667
Cu27	Cu	1.495936	0.754893	0.561001
O28	O	0.814579	0.198720	0.089265
O29	O	1.147912	0.532053	0.422598
O30	O	1.481246	0.865387	0.755932
C31	C	0.696821	0.098505	-0.000033
C32	C	1.030155	0.431838	0.333300
C33	C	1.363488	0.765172	0.666633
C34	C	0.619316	0.097366	-0.000032
C35	C	0.952650	0.430699	0.333301
C36	C	1.285983	0.764033	0.666635
C37	C	0.057547	0.152829	-0.000046
C38	C	0.390880	0.486163	0.333288
C39	C	0.724214	0.819496	0.666621
C40	C	0.130370	0.153905	-0.000052
C41	C	0.463704	0.487239	0.333281
C42	C	0.797037	0.820572	0.666615
C43	C	0.175304	0.090814	-0.000037
C44	C	0.508637	0.424147	0.333296
C45	C	0.841971	0.757481	0.666630
C46	C	0.147410	0.026640	-0.000044
C47	C	0.480744	0.359974	0.333290
C48	C	0.814077	0.693307	0.666623
C49	C	0.074588	0.025565	-0.000048
C50	C	0.407922	0.358899	0.333285
C51	C	0.741255	0.692232	0.666618
N52	N	0.293228	0.047896	0.060783
N53	N	0.626561	0.381229	0.394116
N54	N	0.959895	0.714562	0.727450
N55	N	0.362405	0.048921	0.060790
N56	N	0.695738	0.382254	0.394123
N57	N	1.029072	0.715588	0.727456
C58	C	0.394713	0.094049	-0.000025
C59	C	0.728046	0.427382	0.333308
C60	C	1.061379	0.760715	0.666642
N61	N	0.355228	0.138123	-0.060833
N62	N	0.688561	0.471457	0.272500
N63	N	1.021895	0.804790	0.605833
N64	N	0.286044	0.137100	-0.060835
N65	N	0.619377	0.470433	0.272498
N66	N	0.952711	0.803767	0.605832
C67	C	0.254268	0.091972	-0.000032
C68	C	0.587601	0.425306	0.333301
C69	C	0.920935	0.758639	0.666634
C70	C	0.501562	0.159385	-0.000032
C71	C	0.834895	0.492718	0.333301
C72	C	1.168229	0.826052	0.666634
C73	C	0.574387	0.160458	-0.000045
C74	C	0.907721	0.493791	0.333288
C75	C	1.241054	0.827125	0.666622
C76	C	0.591426	0.033192	-0.000026
C77	C	0.924759	0.366525	0.333307
C78	C	1.258092	0.699858	0.666641
C79	C	0.518602	0.032120	-0.000024
C80	C	0.851935	0.365453	0.333309
C81	C	1.185269	0.698786	0.666643
C82	C	0.473674	0.095219	-0.000022
C83	C	0.807007	0.428552	0.333311
C84	C	1.140341	0.761885	0.666645
C85	C	0.829974	-0.034650	-0.000010
C86	C	1.163308	0.298683	0.333323
C87	C	1.496641	0.632016	0.666656
C88	C	0.828833	-0.112154	-0.000001
C89	C	1.162166	0.221179	0.333332
C90	C	1.495500	0.554512	0.666666
C91	C	0.891924	-0.157079	0.000004
C92	C	1.225257	0.176254	0.333337
C93	C	1.558591	0.509587	0.666670
C94	C	0.890853	-0.229904	-0.000014
C95	C	1.224186	0.103429	0.333320
C96	C	1.557520	0.436763	0.666653
C97	C	0.826687	-0.257799	-0.000014
C98	C	1.160020	0.075534	0.333319
C99	C	1.493353	0.408867	0.666653
C100	C	0.763588	-0.212865	-0.000025
C101	C	1.096921	0.120469	0.333309
C102	C	1.430255	0.453802	0.666642
C103	C	0.764661	-0.140042	-0.000018
C104	C	1.097995	0.193291	0.333315
C105	C	1.431328	0.526624	0.666648
N106	N	0.774887	-0.363047	0.060781
N107	N	1.108221	-0.029713	0.394114
N108	N	1.441554	0.303620	0.727448
N109	N	0.773872	-0.432226	0.060777
N110	N	1.107205	-0.098892	0.394111
N111	N	1.440539	0.234441	0.727444
C112	C	0.823450	-0.477209	-0.000036
C113	C	1.156783	-0.143875	0.333298
C114	C	1.490116	0.189458	0.666631
N115	N	0.874091	-0.450401	-0.060831
N116	N	1.207424	-0.117067	0.272502
N117	N	1.540758	0.216266	0.605835
N118	N	0.875108	-0.381216	-0.060823
N119	N	1.208441	-0.047882	0.272511
N120	N	1.541775	0.285451	0.605844
C121	C	0.825516	-0.336762	-0.000022
C122	C	1.158849	-0.003429	0.333312
C123	C	1.492183	0.329905	0.666645
C124	C	0.885384	-0.601099	-0.000051
C125	C	1.218717	-0.267766	0.333282
C126	C	1.552050	0.065568	0.666616
C127	C	0.884310	-0.673925	-0.000075
C128	C	1.217644	-0.340592	0.333258
C129	C	1.550977	-0.007258	0.666592
C130	C	0.757043	-0.656884	-0.000075
C131	C	1.090376	-0.323550	0.333258
C132	C	1.423710	0.009783	0.666591
C133	C	0.758119	-0.584060	-0.000062
C134	C	1.091452	-0.250727	0.333271
C135	C	1.424785	0.082607	0.666604
C136	C	0.822291	-0.556172	-0.000045
C137	C	1.155624	-0.222839	0.333288
C138	C	1.488957	0.110495	0.666622
C139	C	0.952155	0.087526	-0.000038
C140	C	1.285489	0.420859	0.333295
C141	C	1.618822	0.754192	0.666629
C142	C	1.029660	0.088664	-0.000046
C143	C	1.362994	0.421998	0.333287
C144	C	1.696327	0.755331	0.666620
C145	C	0.819002	0.220681	-0.000061
C146	C	1.152336	0.554014	0.333273
C147	C	1.485669	0.887348	0.666606
C148	C	0.820144	0.298185	-0.000077
C149	C	1.153477	0.631518	0.333256
C150	C	1.486810	0.964851	0.666590
N151	N	0.812986	0.104542	0.254188
N152	N	1.146319	0.437875	0.587521
N153	N	1.479652	0.771208	0.920855
N154	N	0.835996	0.081483	-0.254257
N155	N	1.169330	0.414817	0.079076
N156	N	1.502663	0.748150	0.412410
C157	C	0.803099	0.114458	0.473301
C158	C	1.136432	0.447791	0.806635
C159	C	1.469765	0.781124	1.139968
C160	C	0.845881	0.071570	0.526637
C161	C	1.179214	0.404903	0.859970
C162	C	1.512548	0.738236	1.193303
C163	C	0.840380	0.077087	0.648559
C164	C	1.173713	0.410420	0.981892
C165	C	1.507046	0.743754	1.315225
C166	C	0.808599	0.108941	0.351368
C167	C	1.141932	0.442275	0.684702
C168	C	1.475266	0.775608	1.018035
H169	H	0.184000	-0.024729	-0.000034
H170	H	0.517334	0.308604	0.333299
H171	H	0.850667	0.641937	0.666632
H172	H	0.944178	-0.134378	0.000014
H173	H	1.277511	0.198955	0.333347
H174	H	1.610845	0.532288	0.666681
N175	N	0.160461	0.223114	-0.000039
N176	N	0.493794	0.556447	0.333295
N177	N	0.827128	0.889780	0.666628
H178	H	0.193296	0.223400	-0.066257
H179	H	0.526629	0.556733	0.267076
H180	H	0.859962	0.890066	0.600410
H181	H	0.120910	0.262885	0.000002
H182	H	0.454243	0.596218	0.333335
H183	H	0.787577	0.929551	0.666668
N184	N	0.899873	0.017443	0.465842
N185	N	1.233206	0.350776	0.799175
N186	N	1.566539	0.684110	1.132509
H187	H	0.896203	0.021123	0.386100
H188	H	1.229536	0.354456	0.719433
H189	H	1.562869	0.687789	1.052767
H190	H	0.948528	0.026176	0.485422
H191	H	1.281862	0.359509	0.818756
H192	H	1.615195	0.692843	1.152089
N193	N	0.749111	0.168581	0.534096
N194	N	1.082444	0.501914	0.867429
N195	N	1.415778	0.835248	1.200762
H196	H	0.752787	0.164899	0.613836
H197	H	1.086120	0.498233	0.947170
H198	H	1.419453	0.831566	1.280503
H199	H	0.757983	0.217195	0.514498
H200	H	1.091317	0.550528	0.847831
H201	H	1.424650	0.883862	1.181165
H202	H	0.051885	-0.026687	-0.000049
H203	H	0.385218	0.306646	0.333284
H204	H	0.718552	0.639980	0.666618
H205	H	0.935689	-0.710503	-0.000077
H206	H	1.269022	-0.377170	0.333256
H207	H	1.602356	-0.043837	0.666590
N208	N	0.009085	0.220887	0.000050
N209	N	0.342418	0.554220	0.333383
N210	N	0.675752	0.887554	0.666716
H211	H	0.037804	0.261700	0.000080
H212	H	0.371138	0.595034	0.333414
H213	H	0.704471	0.928367	0.666747
H214	H	-0.018533	0.220260	-0.066145
H215	H	0.314800	0.553594	0.267188
H216	H	0.648134	0.886927	0.600521
N217	N	0.694383	-0.242954	-0.000017
N218	N	1.027716	0.090380	0.333316
N219	N	1.361049	0.423713	0.666650
H220	H	0.663753	-0.223559	0.066205
H221	H	0.997087	0.109774	0.399538
H222	H	1.330420	0.443107	0.732872
H223	H	0.669805	-0.229549	-0.066283
H224	H	1.003138	0.103784	0.267050
H225	H	1.336472	0.437118	0.600384
H226	H	0.464980	0.210764	-0.000033
H227	H	0.798313	0.544097	0.333301
H228	H	1.131646	0.877430	0.666634
H229	H	0.628011	-0.018179	-0.000022
H230	H	0.961344	0.315154	0.333311
H231	H	1.294677	0.648488	0.666645
H232	H	0.597090	0.212711	-0.000053
H233	H	0.930424	0.546044	0.333280
H234	H	1.263757	0.879377	0.666613
H235	H	0.942231	-0.266489	-0.000014
H236	H	1.275564	0.066844	0.333319
H237	H	1.608898	0.400178	0.666653
N238	N	0.488515	-0.037085	-0.000010
N239	N	0.821848	0.296249	0.333323
N240	N	1.155181	0.629582	0.666657
H241	H	0.507912	-0.067719	-0.066226
H242	H	0.841245	0.265614	0.267108
H243	H	1.174578	0.598947	0.600441
H244	H	0.501918	-0.061656	0.066262
H245	H	0.835252	0.271677	0.399596
H246	H	1.168585	0.605011	0.732929
N247	N	0.696611	-0.091582	-0.000024
N248	N	1.029944	0.241751	0.333309
N249	N	1.363277	0.575085	0.666643
H250	H	0.655797	-0.120301	-0.000031
H251	H	0.989131	0.213033	0.333303
H252	H	1.322464	0.546366	0.666636
H253	H	0.691286	-0.058004	0.066205
H254	H	1.024619	0.275330	0.399538
H255	H	1.357953	0.608663	0.732872
H256	H	0.937637	-0.578392	-0.000042
H257	H	1.270970	-0.245059	0.333291
H258	H	1.604303	0.088275	0.666625
N259	N	0.687834	-0.686960	-0.000088
N260	N	1.021167	-0.353627	0.333246
N261	N	1.354501	-0.020294	0.666579
H262	H	0.696726	-0.739911	-0.000095
H263	H	1.030060	-0.406577	0.333239
H264	H	1.363393	-0.073244	0.666572
H265	H	0.657235	-0.667518	0.066136
H266	H	0.990568	-0.334185	0.399470
H267	H	1.323902	-0.000852	0.732803
N268	N	0.690068	-0.535601	-0.000043
N269	N	1.023401	-0.202267	0.333291
N270	N	1.356734	0.131066	0.666624
H271	H	0.700484	-0.485236	-0.000037
H272	H	1.033817	-0.151902	0.333296
H273	H	1.367150	0.181431	0.666629
H274	H	0.665089	-0.547602	-0.066267
H275	H	0.998422	-0.214269	0.267066
H276	H	1.331755	0.119065	0.600400
