data_functionalizedCrystal
_audit_creation_method	'MofGen! by Chris Wilmer'
_symmetry_space_group_name_H-M	'P1'
_symmetry_Int_Tables_number	1
_symmetry_cell_setting	triclinic
loop_
_symmetry_equiv_pos_as_xyz
  x,y,z
_cell_length_a	19.077409
_cell_length_b	19.077068
_cell_length_c	12.759393
_cell_angle_alpha	87.737652
_cell_angle_beta	87.730684
_cell_angle_gamma	94.533134
loop_
_atom_site_label
_atom_site_type_symbol
_atom_site_fract_x
_atom_site_fract_y
_atom_site_fract_z
Zn1	Zn	1.066444	-0.237290	0.544523
Zn2	Zn	1.061609	-0.355198	0.376182
Zn3	Zn	0.948550	-0.242064	0.376184
Zn4	Zn	0.943785	-0.359882	0.559136
O5	O	1.005097	-0.298608	0.464007
O6	O	1.164452	-0.248972	0.516076
O7	O	1.046581	-0.340228	0.229166
O8	O	0.968207	-0.142778	0.392400
O9	O	1.160899	-0.335598	0.392397
O10	O	1.054823	-0.139271	0.516078
O11	O	0.963518	-0.257109	0.229167
O12	O	0.849270	-0.261652	0.406569
O13	O	0.960086	-0.343583	0.704215
O14	O	0.845769	-0.348212	0.540983
O15	O	1.050203	-0.253515	0.693479
O16	O	1.041961	-0.454471	0.406566
O17	O	0.955397	-0.457913	0.540981
C18	C	0.821941	-0.305959	0.475363
C19	C	0.743585	-0.309120	0.480247
C20	C	0.302332	-0.331739	0.515324
C21	C	0.375955	-0.328774	0.510715
C22	C	0.414569	-0.282151	0.438536
C23	C	0.379556	-0.238496	0.370954
C24	C	0.305934	-0.241465	0.375558
C25	C	0.634950	-0.268434	0.417269
C26	C	0.708577	-0.265467	0.412672
C27	C	0.704971	-0.355746	0.552433
C28	C	0.631347	-0.358708	0.557035
C29	C	0.596341	-0.315056	0.489449
N30	N	0.489824	-0.279118	0.433826
N31	N	0.521087	-0.318093	0.494154
C32	C	0.997656	-0.481771	0.475381
C33	C	0.994538	-0.560126	0.480278
C34	C	1.038177	-0.595121	0.412649
C35	C	1.035248	-0.668743	0.417261
C36	C	0.988676	-0.707371	0.489497
C37	C	0.945035	-0.672371	0.557133
C38	C	0.947968	-0.598749	0.552525
C39	C	0.975070	-0.927751	0.510781
C40	C	0.972138	-1.001377	0.515381
C41	C	1.062353	-0.997745	0.375510
C42	C	1.065279	-0.924122	0.370905
C43	C	1.021641	-0.889129	0.438544
N44	N	0.985679	-0.782625	0.494211
N45	N	1.024641	-0.813875	0.433835
C46	C	1.188969	-0.291230	0.452607
C47	C	1.267324	-0.288086	0.447749
C48	C	1.005153	-0.298539	0.738032
C49	C	1.005176	-0.298509	0.854806
C50	C	1.012586	-0.114730	0.452610
C51	C	1.015778	-0.036372	0.447753
C52	C	1.005085	-0.298626	0.191041
C53	C	1.005205	-0.298451	0.074247
C54	C	1.052104	-0.251603	0.904079
C55	C	1.052117	-0.251572	1.013800
C56	C	0.958273	-0.345359	1.024967
C57	C	0.958257	-0.345386	0.915247
H58	H	0.599912	-0.396675	0.615809
C59	C	1.109855	-1.035641	0.302133
C60	C	1.180309	-1.014840	0.319635
C61	C	1.224093	-1.049725	0.252049
H62	H	1.101539	-1.085026	0.315145
H63	H	1.100087	-1.024017	0.231394
H64	H	1.190074	-1.026468	0.390357
H65	H	1.188647	-0.965460	0.306615
H66	H	1.214324	-1.038102	0.181310
H67	H	1.215771	-1.099109	0.265067
H68	H	1.271900	-1.035612	0.263908
H69	H	0.920038	-0.383582	0.875129
C70	C	1.103005	-0.200779	0.838273
C71	C	1.092961	-0.210851	0.731637
C72	C	1.139843	-0.164047	0.670989
H73	H	1.094662	-0.153793	0.853830
H74	H	1.149969	-0.209194	0.853900
H75	H	1.046008	-0.202431	0.716016
H76	H	1.101310	-0.257828	0.716048
H77	H	1.186807	-0.172462	0.686617
H78	H	1.131496	-0.117064	0.686555
H79	H	1.133039	-0.170879	0.598631
H80	H	0.404455	-0.364323	0.565740
C81	C	1.103148	-0.200617	1.067101
C82	C	1.144243	-0.159584	0.990681
C83	C	1.191268	-0.112641	1.039741
H84	H	1.077522	-0.170903	1.109660
H85	H	1.132808	-0.226326	1.109650
H86	H	1.114587	-0.133878	0.948150
H87	H	1.169884	-0.189279	0.948117
H88	H	1.220927	-0.138349	1.082289
H89	H	1.165636	-0.082932	1.082299
H90	H	1.219161	-0.084799	0.987898
H91	H	0.270897	-0.369701	0.574106
H92	H	0.277432	-0.205916	0.320533
H93	H	0.606456	-0.232892	0.362231
C94	C	0.743107	-0.403111	0.625677
C95	C	0.815846	-0.390548	0.606182
C96	C	0.850998	-0.434178	0.673625
H97	H	0.731570	-0.393381	0.696450
H98	H	0.729154	-0.450964	0.613861
H99	H	0.829794	-0.342706	0.618006
H100	H	0.827404	-0.400282	0.535422
H101	H	0.837046	-0.482032	0.661809
H102	H	0.839456	-0.424445	0.744393
H103	H	0.900355	-0.425665	0.660400
C104	C	0.921555	-1.043191	0.593931
C105	C	0.883980	-0.996788	0.652203
C106	C	0.837387	-1.035281	0.724576
H107	H	0.889642	-1.073197	0.557533
H108	H	0.947354	-1.070766	0.639911
H109	H	0.858183	-0.969225	0.606229
H110	H	0.915874	-0.966781	0.688623
H111	H	0.863186	-1.062856	0.770557
H112	H	0.805479	-1.065285	0.688170
H113	H	0.811892	-1.003802	0.764129
H114	H	0.907117	-0.703827	0.615954
C115	C	0.907416	-0.396226	1.090774
C116	C	0.917486	-0.386178	1.197409
C117	C	0.870655	-0.433033	1.258059
H118	H	0.860438	-0.387859	1.075217
H119	H	0.915806	-0.443199	1.075150
H120	H	0.909090	-0.339217	1.213028
H121	H	0.964454	-0.394551	1.212999
H122	H	0.879046	-0.480005	1.242434
H123	H	0.823681	-0.424661	1.242493
H124	H	0.877486	-0.426226	1.330417
C125	C	0.750376	-0.214834	0.334176
C126	C	0.703962	-0.177258	0.275946
C127	C	0.742441	-0.130622	0.203618
H128	H	0.780365	-0.182925	0.370607
H129	H	0.777968	-0.240603	0.288165
H130	H	0.676382	-0.151491	0.321951
H131	H	0.673972	-0.209148	0.239492
H132	H	0.770033	-0.156390	0.157607
H133	H	0.772429	-0.098717	0.240058
H134	H	0.710955	-0.105125	0.164094
C135	C	0.927803	-0.889727	0.584331
C136	C	0.969374	-0.845803	0.646627
C137	C	0.925852	-0.810770	0.714405
H138	H	0.898230	-0.862231	0.544336
H139	H	0.899660	-0.923258	0.628062
H140	H	0.997504	-0.812275	0.602900
H141	H	0.998945	-0.873281	0.686644
H142	H	0.897709	-0.844302	0.758136
H143	H	0.896282	-0.783278	0.674402
H144	H	0.954052	-0.780969	0.756687
C145	C	0.900508	-0.560882	0.626008
C146	C	0.859082	-0.610466	0.690240
C147	C	0.815350	-0.575611	0.757943
H148	H	0.928531	-0.531035	0.668441
H149	H	0.870909	-0.533457	0.585924
H150	H	0.888677	-0.637879	0.730320
H151	H	0.831044	-0.640315	0.647835
H152	H	0.785751	-0.548186	0.717858
H153	H	0.843379	-0.545765	0.800369
H154	H	0.787233	-0.609248	0.801525
H155	H	1.103202	-0.892673	0.312085
H156	H	0.411002	-0.200538	0.312179
H157	H	1.076098	-0.563675	0.353823
H158	H	1.070783	-0.697233	0.362190
