data_functionalizedCrystal
_audit_creation_method	'MofGen! by Chris Wilmer'
_symmetry_space_group_name_H-M	'P1'
_symmetry_Int_Tables_number	1
_symmetry_cell_setting	triclinic
loop_
_symmetry_equiv_pos_as_xyz
  x,y,z
_cell_length_a	10.489741
_cell_length_b	10.654541
_cell_length_c	9.730217
_cell_angle_alpha	90.000068
_cell_angle_beta	89.997012
_cell_angle_gamma	95.488449
loop_
_atom_site_label
_atom_site_type_symbol
_atom_site_fract_x
_atom_site_fract_y
_atom_site_fract_z
O1	O	0.179145	-1.667922	-0.114247
O2	O	0.196218	-1.302451	-0.114259
O3	O	0.002080	-1.493503	-0.114245
O4	O	0.373284	-1.476871	-0.114261
O5	O	0.002078	-1.493497	0.114336
O6	O	0.196216	-1.302445	0.114321
O7	O	0.179143	-1.667916	0.114333
Zn8	Zn	0.187679	-1.485180	0.150619
Zn9	Zn	0.187682	-1.485188	-0.150545
O10	O	0.373282	-1.476865	0.114319
C11	C	0.194964	-1.255650	0.000030
C12	C	0.191216	-1.116205	0.000025
C13	C	-0.045452	-1.492244	0.000045
C14	C	-0.187080	-1.488486	0.000042
C15	C	0.180397	-1.714718	0.000041
C16	C	0.184146	-1.854163	0.000037
C17	C	-0.255160	-1.366925	0.000028
C18	C	-0.347312	-1.424346	0.112732
C19	C	-0.347285	-1.424381	-0.112630
C20	C	-0.277366	-1.545957	0.112839
C21	C	-0.277330	-1.545974	-0.112624
C22	C	-0.369454	-1.603484	0.000107
C23	C	0.420814	-1.478124	0.000026
C24	C	0.562441	-1.481882	0.000020
N25	N	0.187677	-1.485184	0.356156
C26	C	0.423360	-1.088342	-0.000003
C27	C	0.537667	-1.008902	-0.000022
C28	C	0.534137	-0.877882	-0.000023
C29	C	0.416288	-0.826301	-0.000001
C30	C	0.301982	-0.905742	0.000019
C31	C	0.305524	-1.036763	0.000016
C32	C	0.069840	-0.933604	0.000056
C33	C	0.073367	-1.064624	0.000048
C34	C	-0.048009	-0.882024	0.000078
C35	C	-0.162318	-0.961465	0.000088
C36	C	-0.158783	-1.092492	0.000088
C37	C	-0.040939	-1.144065	0.000067
N38	N	0.187674	-1.485194	-0.356082
C39	C	0.015818	-1.654430	0.356159
C40	C	-0.070107	-1.739061	0.428101
C41	C	-0.070108	-1.739074	0.571980
C42	C	0.015823	-1.654444	0.643922
C43	C	0.101749	-1.569812	0.571980
C44	C	0.101743	-1.569811	0.428097
C45	C	0.273600	-1.400562	0.571977
C46	C	0.273609	-1.400554	0.428097
C47	C	0.359532	-1.315932	0.643918
C48	C	0.445466	-1.231305	0.571977
C49	C	0.445464	-1.231296	0.428088
C50	C	0.359535	-1.315922	0.356156
H51	H	-0.205460	-1.266979	0.000138
Br52	Br	0.428159	-1.266155	-0.000034
H53	H	-0.378299	-1.372909	0.208011
Br54	Br	-0.313922	-1.200294	0.000130
H55	H	-0.258261	-0.919457	0.000105
H56	H	-0.140081	-1.807984	0.630555
H57	H	0.015821	-1.654438	0.239005
Br58	Br	-0.052802	-0.704210	0.000089
H59	H	0.359522	-1.315941	0.761073
H60	H	0.359530	-1.315927	0.239001
Br61	Br	-0.226032	-1.631615	0.271825
H62	H	0.633617	-1.050913	-0.000036
Br63	Br	-0.186733	-1.853905	0.330466
H64	H	-0.038050	-1.250746	0.000050
Br65	Br	0.411499	-0.648487	0.000028
H66	H	0.015807	-1.654449	0.761076
Br67	Br	-0.398890	-1.338621	-0.271430
H68	H	-0.418927	-1.703520	0.000173
H69	H	0.515419	-1.162399	0.630560
Br70	Br	0.689266	-0.770064	-0.000030
H71	H	0.515430	-1.162374	0.369521
H72	H	-0.246309	-1.597368	-0.207909
