data_functionalizedCrystal
_audit_creation_method	'MofGen! by Chris Wilmer'
_symmetry_space_group_name_H-M	'P1'
_symmetry_Int_Tables_number	1
_symmetry_cell_setting	triclinic
loop_
_symmetry_equiv_pos_as_xyz
  x,y,z
_cell_length_a	19.188930
_cell_length_b	13.339070
_cell_length_c	12.376457
_cell_angle_alpha	104.410245
_cell_angle_beta	101.232575
_cell_angle_gamma	80.612963
loop_
_atom_site_label
_atom_site_type_symbol
_atom_site_fract_x
_atom_site_fract_y
_atom_site_fract_z
O1	O	0.340100	-1.360197	-0.094096
O2	O	0.294198	-1.065870	-0.094082
O3	O	0.217159	-1.221523	-0.094067
O4	O	0.417139	-1.204545	-0.094111
O5	O	0.236385	-1.182624	0.093941
O6	O	0.313424	-1.026971	0.093926
O7	O	0.359326	-1.321298	0.093913
Zn8	Zn	0.339428	-1.167958	0.123770
Zn9	Zn	0.314097	-1.219210	-0.123939
O10	O	0.436365	-1.165645	0.093898
C11	C	0.296057	-1.008765	-0.000076
C12	C	0.272945	-0.896565	-0.000070
C13	C	0.200654	-1.201522	-0.000060
C14	C	0.122827	-1.199869	-0.000050
C15	C	0.357467	-1.378403	-0.000096
C16	C	0.380578	-1.490606	-0.000110
C17	C	0.095789	-1.291202	-0.000049
C18	C	0.022659	-1.289655	-0.000067
C19	C	-0.023428	-1.196764	-0.000063
C20	C	0.003617	-1.105420	-0.000071
C21	C	0.076744	-1.106972	-0.000064
N22	N	-0.138794	-1.112522	0.063923
N23	N	-0.208261	-1.111052	0.063919
C24	C	-0.243757	-1.192081	-0.000086
N25	N	-0.207158	-1.274646	-0.064073
N26	N	-0.137684	-1.276118	-0.064064
C27	C	-0.102723	-1.195070	-0.000071
C28	C	-0.350089	-1.281743	-0.000106
C29	C	-0.423221	-1.280193	-0.000131
C30	C	-0.442261	-1.095953	-0.000124
C31	C	-0.369132	-1.097508	-0.000110
C32	C	-0.323049	-1.190404	-0.000096
C33	C	0.452870	-1.185646	-0.000112
C34	C	0.530696	-1.187301	-0.000130
N35	N	0.356716	-1.132988	0.292825
C36	C	0.452652	-0.530988	-0.000127
C37	C	0.474369	-0.636407	-0.000136
C38	C	0.424015	-0.701451	-0.000119
C39	C	0.351940	-0.661067	-0.000094
C40	C	0.330220	-0.555640	-0.000093
C41	C	0.301583	-0.726103	-0.000086
C42	C	0.229508	-0.685719	-0.000060
C43	C	0.207792	-0.580302	-0.000059
C44	C	0.258146	-0.515258	-0.000076
C45	C	0.323303	-0.831530	-0.000086
C46	C	0.200871	-0.856182	-0.000053
C47	C	0.179154	-0.750763	-0.000043
N48	N	0.296804	-1.254188	-0.292994
C49	C	0.256657	-1.335365	0.647829
C50	C	0.244556	-1.359835	0.529492
C51	C	0.272595	-1.303125	0.470319
C52	C	0.312738	-1.221942	0.529496
C53	C	0.324845	-1.197474	0.647845
C54	C	0.340783	-1.165235	0.470335
C55	C	0.380926	-1.084051	0.529511
C56	C	0.393031	-1.059587	0.647849
C57	C	0.364992	-1.116297	0.707021
C58	C	0.328675	-1.189702	0.351986
C59	C	0.396863	-1.051811	0.352001
C60	C	0.408964	-1.027341	0.470339
H61	H	0.000640	-1.364033	-0.000070
C62	C	0.507322	-0.460467	-0.000385
C63	C	0.539628	-0.498675	-0.097138
C64	C	0.589990	-0.433729	-0.097425
H65	H	0.542805	-0.459059	0.065092
H66	H	0.484081	-0.391899	-0.000446
H67	H	0.562869	-0.567225	-0.097066
H68	H	0.504164	-0.500080	-0.162631
H69	H	0.566749	-0.365161	-0.097487
H70	H	0.625468	-0.432325	-0.031944
H71	H	0.611911	-0.459638	-0.163076
H72	H	0.240467	-0.429416	-0.000068
H73	H	0.133305	-1.366847	-0.000041
C74	C	0.401557	-0.875262	-0.000284
C75	C	0.423315	-0.862169	-0.097005
C76	C	0.495405	-0.902426	-0.097216
H77	H	0.407379	-0.947370	-0.000340
H78	H	0.429882	-0.839326	0.065239
H79	H	0.394999	-0.898107	-0.162510
H80	H	0.417511	-0.790070	-0.096969
H81	H	0.523730	-0.866490	-0.031694
H82	H	0.501221	-0.974532	-0.097270
H83	H	0.510179	-0.893539	-0.162834
C84	C	0.200748	-1.447792	0.465523
C85	C	0.132022	-1.425502	0.494568
C86	C	0.091597	-1.506479	0.435748
H87	H	0.223281	-1.511245	0.484918
H88	H	0.197401	-1.454377	0.386516
H89	H	0.135372	-1.418929	0.573557
H90	H	0.109469	-1.362063	0.475171
H91	H	0.088250	-1.513063	0.356741
H92	H	0.114137	-1.569927	0.455147
H93	H	0.044961	-1.491361	0.455439
C94	C	-0.299932	-1.382485	-0.000048
C95	C	-0.230098	-1.364290	-0.000003
C96	C	-0.183875	-1.457065	0.000065
H97	H	-0.314605	-1.433717	-0.065597
H98	H	-0.301266	-1.406520	0.065536
H99	H	-0.228766	-1.340269	-0.065581
H100	H	-0.215403	-1.313073	0.065541
H101	H	-0.185210	-1.481101	0.065649
H102	H	-0.198555	-1.508291	-0.065486
H103	H	-0.136487	-1.444730	0.000106
H104	H	0.441650	-0.961240	0.518535
H105	H	0.295991	-1.255802	0.303815
C106	C	-0.339901	-0.998219	-0.000038
C107	C	-0.395909	-0.916529	-0.000009
C108	C	-0.369009	-0.825042	0.000070
H109	H	-0.318476	-1.008410	-0.065579
H110	H	-0.305092	-0.981371	0.065555
H111	H	-0.430705	-0.933374	-0.065596
H112	H	-0.417339	-0.906305	0.065527
H113	H	-0.334200	-0.808195	0.065663
H114	H	-0.347584	-0.835244	-0.065472
H115	H	-0.407004	-0.769603	0.000100
C116	C	0.129512	-0.536640	0.000018
C117	C	0.090064	-0.616155	0.000064
C118	C	0.017953	-0.575971	0.000151
H119	H	0.111694	-0.509607	-0.065525
H120	H	0.125172	-0.482484	0.065609
H121	H	0.094399	-0.670293	-0.065520
H122	H	0.107860	-0.643196	0.065602
H123	H	0.013613	-0.521815	0.065742
H124	H	0.000142	-0.548939	-0.065393
H125	H	-0.008821	-0.629913	0.000193
H126	H	-0.479785	-1.020320	-0.000127
C127	C	0.146138	-0.926789	-0.000266
C128	C	0.094043	-0.928624	-0.096998
C129	C	0.043622	-0.993673	-0.097244
H130	H	0.124051	-0.901086	0.065226
H131	H	0.169363	-0.995385	-0.000327
H132	H	0.070821	-0.860043	-0.096926
H133	H	0.116109	-0.954337	-0.162505
H134	H	0.066847	-1.062269	-0.097306
H135	H	0.021541	-0.967964	-0.031749
H136	H	0.008274	-0.994935	-0.162881
C137	C	0.427257	-0.990042	0.287912
C138	C	0.399626	-0.884813	0.316747
C139	C	0.427616	-0.827888	0.257734
H140	H	0.414316	-1.016101	0.208940
H141	H	0.477933	-0.996736	0.307313
H142	H	0.348962	-0.878125	0.297339
H143	H	0.412566	-0.858724	0.395709
H144	H	0.478292	-0.834582	0.277135
H145	H	0.414673	-0.853956	0.178765
H146	H	0.408878	-0.756483	0.277298
H147	H	-0.033912	-1.029788	-0.000071
H148	H	0.374842	-1.096371	0.803381
H149	H	-0.445233	-1.354572	-0.000136
C150	C	0.259599	-1.329782	0.341838
C151	C	0.325331	-1.358008	0.302656
C152	C	0.313383	-1.382587	0.184302
H153	H	0.234805	-1.270820	0.314942
H154	H	0.231708	-1.386289	0.315025
H155	H	0.353211	-1.301507	0.329458
H156	H	0.350136	-1.416976	0.329521
H157	H	0.285492	-1.439094	0.157489
H158	H	0.288587	-1.323621	0.157417
H159	H	0.357979	-1.401750	0.157702
C160	C	0.226317	-1.397102	0.712006
C161	C	0.253974	-1.502323	0.683215
C162	C	0.226042	-1.559228	0.742321
H163	H	0.175647	-1.390465	0.692673
H164	H	0.239293	-1.370972	0.790973
H165	H	0.240993	-1.528445	0.604266
H166	H	0.304641	-1.508992	0.702551
H167	H	0.239018	-1.533098	0.821287
H168	H	0.175373	-1.552582	0.722983
H169	H	0.244808	-1.630624	0.722802
C170	C	0.436609	-0.971383	0.711895
C171	C	0.458559	-0.926937	0.634752
C172	C	0.498698	-0.845673	0.693707
H173	H	0.477472	-0.997951	0.758046
H174	H	0.408076	-0.919825	0.758056
H175	H	0.487091	-0.978485	0.588610
H176	H	0.417712	-0.900347	0.588598
H177	H	0.470165	-0.794115	0.739868
H178	H	0.539557	-0.872250	0.739856
H179	H	0.513590	-0.815500	0.641375
H180	H	0.098757	-1.032595	-0.000065
H181	H	0.441701	-0.787288	-0.000129
H182	H	0.533052	-0.669282	-0.000166
H183	H	0.120468	-0.717869	-0.000032
