data_functionalizedCrystal
_audit_creation_method	'MofGen! by Chris Wilmer'
_symmetry_space_group_name_H-M	'P1'
_symmetry_Int_Tables_number	1
_symmetry_cell_setting	triclinic
loop_
_symmetry_equiv_pos_as_xyz
  x,y,z
_cell_length_a	14.971486
_cell_length_b	14.971496
_cell_length_c	13.448316
_cell_angle_alpha	90.007882
_cell_angle_beta	89.998199
_cell_angle_gamma	96.383877
loop_
_atom_site_label
_atom_site_type_symbol
_atom_site_fract_x
_atom_site_fract_y
_atom_site_fract_z
O1	O	1.186951	-0.116564	-0.082580
O2	O	0.926552	-0.130523	-0.082608
O3	O	1.063726	0.006656	-0.082584
O4	O	1.049777	-0.253743	-0.082605
O5	O	1.063709	0.006664	0.082800
O6	O	0.926535	-0.130515	0.082776
O7	O	1.186934	-0.116556	0.082803
Cu8	Cu	1.056733	-0.123534	0.097891
Cu9	Cu	1.056753	-0.123544	-0.097695
O10	O	1.049760	-0.253735	0.082779
C11	C	0.893218	-0.129895	0.000081
C12	C	0.793921	-0.128024	0.000071
C13	C	1.063092	0.039985	0.000109
C14	C	1.061218	0.139281	0.000110
C15	C	0.736699	-0.208613	0.000065
C16	C	0.643399	-0.206850	0.000080
C17	C	0.607324	-0.124497	0.000093
C18	C	0.664554	-0.043902	0.000101
C19	C	0.757852	-0.045666	0.000094
C20	C	0.470091	-0.040231	0.000115
C21	C	0.376787	-0.038466	0.000121
C22	C	0.355639	-0.201414	0.000102
C23	C	0.448937	-0.203179	0.000094
C24	C	0.506160	-0.122583	0.000101
C25	C	1.220268	-0.117184	0.000113
C26	C	1.319565	-0.119055	0.000116
N27	N	1.056725	-0.123527	0.235455
C28	C	1.053160	0.566981	-0.090065
C29	C	1.054926	0.473682	-0.090061
C30	C	1.055793	0.427043	0.000093
C31	C	1.054904	0.473709	0.090250
C32	C	1.053144	0.567007	0.090245
C33	C	1.058569	0.279246	0.090254
C34	C	1.060326	0.185941	0.090259
C35	C	1.060350	0.185920	-0.090052
C36	C	1.058590	0.279218	-0.090057
C37	C	1.057700	0.325878	0.000100
C38	C	1.050394	0.712937	0.000087
C39	C	1.052268	0.613640	0.000084
N40	N	1.056768	-0.123545	-0.235259
C41	C	1.117485	-0.062809	0.287506
C42	C	1.117490	-0.062808	0.391609
C43	C	1.056740	-0.123530	0.443659
C44	C	0.995973	-0.184251	0.391601
C45	C	0.995964	-0.184247	0.287500
C46	C	0.995998	-0.184257	0.608581
C47	C	0.996008	-0.184263	0.712690
C48	C	1.117524	-0.062819	0.712691
C49	C	1.117515	-0.062814	0.608589
C50	C	1.056750	-0.123536	0.556538
H51	H	0.766063	-0.275674	0.000054
Br52	Br	1.199948	0.019599	0.462253
H53	H	0.309043	-0.267038	0.000102
Br54	Br	0.547751	0.069150	0.000129
Br55	Br	0.913525	-0.266663	0.537943
H56	H	0.804442	0.019958	0.000097
Br57	Br	0.565743	-0.316225	0.000070
Br58	Br	0.913517	-0.266655	0.462237
H59	H	1.055654	0.435696	-0.163470
H60	H	0.635174	0.023152	0.000126
Br61	Br	1.057403	0.342513	-0.212410
Br62	Br	0.913495	-0.266647	0.216859
Br63	Br	1.199994	0.019585	0.783334
H64	H	0.478306	-0.270237	0.000074
Br65	Br	1.061505	0.122591	-0.212408
Br66	Br	0.327828	0.073300	0.000172
Br67	Br	1.061525	0.122648	0.212612
H68	H	1.057844	0.317233	0.163669
H69	H	1.052445	0.604946	-0.163479
H70	H	1.055616	0.435729	0.163655
H71	H	1.052417	0.604996	0.163653
H72	H	1.166959	-0.013366	0.245133
H73	H	1.166987	-0.013374	0.566210
H74	H	0.946538	-0.233708	0.755064
