data_functionalizedCrystal
_audit_creation_method	'MofGen! by Chris Wilmer'
_symmetry_space_group_name_H-M	'P1'
_symmetry_Int_Tables_number	1
_symmetry_cell_setting	triclinic
loop_
_symmetry_equiv_pos_as_xyz
  x,y,z
_cell_length_a	14.971507
_cell_length_b	14.971486
_cell_length_c	14.048226
_cell_angle_alpha	89.999080
_cell_angle_beta	90.007568
_cell_angle_gamma	96.381605
loop_
_atom_site_label
_atom_site_type_symbol
_atom_site_fract_x
_atom_site_fract_y
_atom_site_fract_z
O1	O	-1.186935	0.116654	-0.079173
O2	O	-0.686935	0.616654	0.420827
O3	O	-0.926538	0.130593	-0.079168
O4	O	-0.426538	0.630593	0.420832
O5	O	-1.063716	-0.006576	-0.079178
O6	O	-0.563716	0.493424	0.420822
O7	O	-1.049757	0.253823	-0.079164
O8	O	-0.549757	0.753823	0.420836
O9	O	-1.063699	-0.006584	0.079143
O10	O	-0.563699	0.493416	0.579143
O11	O	-0.926521	0.130585	0.079153
O12	O	-0.426521	0.630585	0.579153
O13	O	-1.186919	0.116645	0.079148
O14	O	-0.686919	0.616645	0.579148
Zn15	Zn	-1.056718	0.123614	0.104288
Zn16	Zn	-0.556718	0.623614	0.604288
Zn17	Zn	-1.056739	0.123624	-0.104308
Zn18	Zn	-0.556739	0.623624	0.395692
O19	O	-1.049741	0.253815	0.079158
O20	O	-0.549741	0.753815	0.579158
C21	C	-0.893205	0.129962	-0.000007
C22	C	-0.393205	0.629962	0.499993
C23	C	-0.793909	0.128084	-0.000006
C24	C	-0.293909	0.628084	0.499994
C25	C	-1.063084	-0.039905	-0.000021
C26	C	-0.563084	0.460095	0.499979
C27	C	-1.061213	-0.139202	-0.000032
C28	C	-0.561213	0.360798	0.499968
N29	N	-1.056709	0.123606	0.246648
N30	N	-0.556709	0.623606	0.746648
C31	C	-0.355627	0.201501	-0.000005
C32	C	0.144373	0.701501	0.499995
C33	C	-0.448927	0.203259	-0.000011
C34	C	0.051073	0.703259	0.499989
C35	C	-0.506147	0.122666	-0.000012
C36	C	-0.006147	0.622666	0.499988
C37	C	-0.470062	0.040311	-0.000017
C38	C	0.029938	0.540311	0.499983
C39	C	-0.376764	0.038554	-0.000018
C40	C	0.123236	0.538554	0.499982
C41	C	-0.664525	0.043978	-0.000012
C42	C	-0.164525	0.543978	0.499988
C43	C	-0.757830	0.045735	-0.000008
C44	C	-0.257830	0.545735	0.499992
C45	C	-0.736688	0.208683	-0.000004
C46	C	-0.236688	0.708683	0.499996
C47	C	-0.643390	0.206926	-0.000005
C48	C	-0.143390	0.706926	0.499995
C49	C	-0.607312	0.124570	-0.000009
C50	C	-0.107312	0.624570	0.499991
C51	C	-0.220252	0.117276	-0.000011
C52	C	0.279748	0.617276	0.499989
C53	C	-0.319548	0.119152	-0.000008
C54	C	0.180452	0.619152	0.499992
C55	C	-1.050373	0.287143	-0.000001
C56	C	-0.550373	0.787143	0.499999
C57	C	-1.052244	0.386441	0.000004
C58	C	-0.552244	0.886441	0.500004
C59	C	-0.971656	0.443660	0.000005
C60	C	-0.471656	0.943660	0.500005
C61	C	-0.973419	0.536960	-0.000008
C62	C	-0.473419	1.036960	0.499992
C63	C	-1.055771	0.573038	-0.000015
C64	C	-0.555771	1.073038	0.499985
C65	C	-1.136366	0.515811	-0.000018
C66	C	-0.636366	1.015811	0.499982
C67	C	-1.134602	0.422514	-0.000012
C68	C	-0.634602	0.922514	0.499988
C69	C	-1.140037	0.710274	-0.000029
C70	C	-0.640037	1.210274	0.499971
C71	C	-1.141801	0.803578	-0.000033
C72	C	-0.641801	1.303578	0.499967
C73	C	-0.978854	0.824720	-0.000025
C74	C	-0.478854	1.324720	0.499975
C75	C	-0.977090	0.731422	-0.000019
C76	C	-0.477090	1.231422	0.499981
C77	C	-1.057685	0.674202	-0.000020
C78	C	-0.557685	1.174202	0.499980
N79	N	-1.056755	0.123625	-0.246668
N80	N	-0.556755	0.623625	0.253332
C81	C	-1.117471	0.062893	0.296462
C82	C	-0.617471	0.562893	0.796462
C83	C	-1.117477	0.062892	0.396120
C84	C	-0.617477	0.562892	0.896120
C85	C	-1.056725	0.123610	0.445962
C86	C	-0.556725	0.623610	0.945962
C87	C	-0.995957	0.184326	0.396141
C88	C	-0.495957	0.684326	0.896141
C89	C	-0.995947	0.184322	0.296485
C90	C	-0.495947	0.684322	0.796485
C91	C	-0.995983	0.184333	0.603855
C92	C	-0.495983	0.684333	1.103855
C93	C	-0.995993	0.184339	0.703518
C94	C	-0.495993	0.684339	1.203518
C95	C	-1.117512	0.062903	0.703490
C96	C	-0.617512	0.562903	1.203490
C97	C	-1.117503	0.062899	0.603834
C98	C	-0.617503	0.562899	1.103834
C99	C	-1.056735	0.123616	0.554020
C100	C	-0.556735	0.623616	1.054020
H101	H	-0.309044	0.267129	0.000003
H102	H	0.190956	0.767129	0.500003
N103	N	-1.179552	0.000858	0.754383
N104	N	-0.679552	0.500858	1.254383
N105	N	-1.179533	0.000846	0.843360
N106	N	-0.679533	0.500846	1.343360
H107	H	-1.223337	-0.042980	0.879308
H108	H	-0.723337	0.457020	1.379308
N109	N	-0.627686	-0.040153	-0.000022
N110	N	-0.127686	0.459847	0.499978
N111	N	-0.678782	-0.112105	-0.000020
N112	N	-0.178782	0.387895	0.499980
H113	H	-0.652765	-0.171522	-0.000023
H114	H	-0.152765	0.328478	0.499977
H115	H	-1.166976	0.013462	0.563253
H116	H	-0.666976	0.513462	1.063253
H117	H	-0.766067	0.275740	-0.000000
H118	H	-0.266067	0.775740	0.500000
N119	N	-0.891098	0.595405	-0.000018
N120	N	-0.391098	1.095405	0.499982
N121	N	-0.836351	0.592057	-0.066748
N122	N	-0.336351	1.092057	0.433252
H123	H	-0.778207	0.633334	-0.066757
H124	H	-0.278207	1.133334	0.433243
H125	H	-0.946487	0.233761	0.436728
H126	H	-0.446487	0.733761	0.936728
H127	H	-0.913230	0.871314	-0.000020
H128	H	-0.413230	1.371314	0.499980
N129	N	-1.179517	0.000868	0.447028
N130	N	-0.679517	0.500868	0.947028
N131	N	-1.235059	0.029317	0.502653
N132	N	-0.735059	0.529317	1.002653
H133	H	-1.278863	-0.014498	0.538617
H134	H	-0.778863	0.485502	1.038617
H135	H	-0.904595	0.414293	0.000021
H136	H	-0.404595	0.914293	0.500021
N137	N	-0.892963	0.694582	-0.000002
N138	N	-0.392963	1.194582	0.499998
N139	N	-0.821011	0.745678	-0.000001
N140	N	-0.321011	1.245678	0.499999
H141	H	-0.761594	0.719660	0.000009
H142	H	-0.261594	1.219660	0.500009
H143	H	-0.946496	0.233773	0.563300
H144	H	-0.446496	0.733773	1.063300
H145	H	-1.208860	0.832950	-0.000040
H146	H	-0.708860	1.332950	0.499960
H147	H	-0.946522	0.233781	0.744094
H148	H	-0.446522	0.733781	1.244094
H149	H	-0.946468	0.233760	0.255928
H150	H	-0.446468	0.733760	0.755928
H151	H	-0.596803	0.272551	0.000002
H152	H	-0.096803	0.772551	0.500002
N153	N	-0.485765	0.287384	-0.000019
N154	N	0.014235	0.787384	0.499981
N155	N	-0.434667	0.359335	-0.000018
N156	N	0.065333	0.859335	0.499982
H157	H	-0.460682	0.418753	-0.000027
H158	H	0.039318	0.918753	0.499973
H159	H	-0.804417	-0.019890	-0.000017
H160	H	-0.304417	0.480110	0.499983
H161	H	-1.205666	0.663687	-0.000038
H162	H	-0.705666	1.163687	0.499962
N163	N	-0.528523	-0.042003	-0.000008
N164	N	-0.028523	0.457997	0.499992
N165	N	-0.582932	-0.059197	0.066732
N166	N	-0.082932	0.440803	0.566732
H167	H	-0.624221	-0.117333	0.066742
H168	H	-0.124221	0.382667	0.566742
H169	H	-0.347391	-0.028503	-0.000022
H170	H	0.152609	0.471497	0.499978
H171	H	-1.203419	0.545194	-0.000022
H172	H	-0.703419	1.045194	0.499978
H173	H	-1.200225	0.375926	-0.000017
H174	H	-0.700225	0.875926	0.499983
H175	H	-1.166946	0.013453	0.255887
H176	H	-0.666946	0.513453	0.755887
