data_functionalizedCrystal
_audit_creation_method	'MofGen! by Chris Wilmer'
_symmetry_space_group_name_H-M	'P1'
_symmetry_Int_Tables_number	1
_symmetry_cell_setting	triclinic
loop_
_symmetry_equiv_pos_as_xyz
  x,y,z
_cell_length_a	12.759401
_cell_length_b	12.759393
_cell_length_c	12.759400
_cell_angle_alpha	89.968231
_cell_angle_beta	90.014845
_cell_angle_gamma	89.982620
loop_
_atom_site_label
_atom_site_type_symbol
_atom_site_fract_x
_atom_site_fract_y
_atom_site_fract_z
Zn1	Zn	1.606244	-0.593981	-0.418198
Zn2	Zn	1.606142	-0.418301	-0.593917
Zn3	Zn	1.430549	-0.418321	-0.418253
Zn4	Zn	1.430535	-0.593943	-0.593836
O5	O	1.518367	-0.506137	-0.506051
O6	O	1.753251	-0.570685	-0.441518
O7	O	1.582812	-0.271283	-0.570672
O8	O	1.453905	-0.441647	-0.271225
O9	O	1.753176	-0.441614	-0.570618
O10	O	1.582987	-0.570704	-0.271184
O11	O	1.453805	-0.271297	-0.441613
O12	O	1.283526	-0.441609	-0.441534
O13	O	1.453879	-0.740969	-0.570480
O14	O	1.283516	-0.570638	-0.570533
O15	O	1.582972	-0.740997	-0.441439
O16	O	1.582798	-0.441577	-0.740927
O17	O	1.453780	-0.570620	-0.740868
C18	C	1.245400	-0.506122	-0.506032
C19	C	1.128623	-0.506141	-0.506049
C20	C	1.073783	-0.573215	-0.573326
C21	C	0.964059	-0.573227	-0.573340
C22	C	0.964025	-0.439081	-0.438795
C23	C	1.073747	-0.439075	-0.438777
C24	C	1.073802	-0.650660	-0.651008
C25	C	0.964078	-0.650672	-0.651021
C26	C	1.518436	-0.780170	-0.505944
C27	C	1.518465	-0.896947	-0.505898
C28	C	1.451319	-0.951822	-0.438685
C29	C	1.451351	-1.061546	-0.438653
C30	C	1.585683	-1.061510	-0.573052
C31	C	1.585645	-0.951788	-0.573088
C32	C	1.373767	-0.951844	-0.361087
C33	C	1.373799	-1.061568	-0.361056
C34	C	1.792401	-0.506152	-0.506071
C35	C	1.909177	-0.506158	-0.506080
C36	C	1.518305	-0.506115	-0.779018
C37	C	1.518374	-0.506140	-0.895795
C38	C	1.518360	-0.233169	-0.506082
C39	C	1.518534	-0.116393	-0.505831
C40	C	1.585629	-0.439022	-0.950653
C41	C	1.585693	-0.439054	-1.060377
C42	C	1.451240	-0.573327	-1.060375
C43	C	1.451182	-0.573299	-0.950653
C44	C	1.663251	-0.361498	-0.950655
C45	C	1.663315	-0.361530	-1.060379
C46	C	1.518459	-0.506182	-0.232018
C47	C	1.518497	-0.506201	-0.115241
H48	H	1.118394	-0.384464	-0.383986
H49	H	1.640306	-0.907112	-0.627835
C50	C	1.377247	-0.647184	-0.890313
N51	N	1.321572	-0.702852	-0.844864
C52	C	1.263818	-0.911611	-0.390532
N53	N	1.181007	-0.881308	-0.412711
H54	H	1.107817	-0.621376	-0.728260
C55	C	0.918141	-0.755163	-0.611770
N56	N	0.883540	-0.833861	-0.582199
H57	H	1.396535	-0.628005	-1.105054
C58	C	0.903651	-0.365309	-0.364803
N59	N	0.858178	-0.309741	-0.309072
C60	C	1.114074	-0.760642	-0.621719
N61	N	1.144407	-0.843481	-0.599669
H62	H	0.934283	-0.628740	-0.732371
H63	H	1.640379	-1.106175	-0.627755
C64	C	1.773138	-0.391020	-0.910314
N65	N	1.855904	-0.413257	-0.879928
H66	H	1.641579	-0.280150	-1.090242
C67	C	1.403306	-1.101828	-0.251124
N68	N	1.425535	-1.132151	-0.168328
H69	H	1.634127	-0.284172	-0.916709
C70	C	1.413156	-0.905885	-0.256685
N71	N	1.442824	-0.871268	-0.178049
C72	C	1.767748	-0.400989	-1.106243
N73	N	1.846405	-0.430708	-1.140788
H74	H	1.296502	-1.095594	-0.390182
