data_functionalizedCrystal
_audit_creation_method	'MofGen! by Chris Wilmer'
_symmetry_space_group_name_H-M	'P1'
_symmetry_Int_Tables_number	1
_symmetry_cell_setting	triclinic
loop_
_symmetry_equiv_pos_as_xyz
  x,y,z
_cell_length_a	16.625548
_cell_length_b	12.759400
_cell_length_c	12.759393
_cell_angle_alpha	90.031564
_cell_angle_beta	89.978332
_cell_angle_gamma	89.984247
loop_
_atom_site_label
_atom_site_type_symbol
_atom_site_fract_x
_atom_site_fract_y
_atom_site_fract_z
Zn1	Zn	1.232733	0.418174	-0.594070
Zn2	Zn	1.232652	0.593893	-0.418390
Zn3	Zn	1.097892	0.418232	-0.418400
Zn4	Zn	1.097883	0.593815	-0.594022
O5	O	1.165290	0.506029	-0.506221
O6	O	1.345554	0.441492	-0.570782
O7	O	1.214745	0.570648	-0.271371
O8	O	1.115817	0.271203	-0.441727
O9	O	1.345495	0.570592	-0.441711
O10	O	1.214883	0.271161	-0.570791
O11	O	1.115738	0.441591	-0.271378
O12	O	0.985059	0.441515	-0.441680
O13	O	1.115802	0.570459	-0.741050
O14	O	0.985052	0.570515	-0.570709
O15	O	1.214875	0.441417	-0.741085
O16	O	1.214737	0.740904	-0.441664
O17	O	1.115723	0.740847	-0.570700
C18	C	1.165242	0.778996	-0.506199
C19	C	1.165295	0.895773	-0.506225
C20	C	0.955799	0.506014	-0.506191
C21	C	0.866178	0.506033	-0.506204
C22	C	1.165346	0.505923	-0.780254
C23	C	1.165371	0.505878	-0.897031
C24	C	0.538002	0.506039	-0.506249
C25	C	0.629311	0.506035	-0.506233
C26	C	0.702087	0.506037	-0.506225
C27	C	0.793402	0.506031	-0.506211
C28	C	1.375599	0.506045	-0.506251
C29	C	1.465220	0.506051	-0.506264
C30	C	1.165360	0.231995	-0.506266
C31	C	1.165390	0.115219	-0.506285
C32	C	1.216909	0.950630	-0.439110
C33	C	1.216959	1.060354	-0.439142
C34	C	1.113774	1.060354	-0.573407
C35	C	1.113729	0.950632	-0.573379
C36	C	1.268476	0.895770	-0.371955
C37	C	1.320093	0.950627	-0.304834
C38	C	1.320142	1.060351	-0.304867
C39	C	1.268575	1.115218	-0.372020
C40	C	1.216965	0.438679	-0.951913
C41	C	1.216984	0.438641	-1.061637
C42	C	1.113812	0.573010	-1.061587
C43	C	1.113789	0.573041	-0.951865
C44	C	1.268546	0.371515	-0.897079
C45	C	1.320146	0.304311	-0.951961
C46	C	1.320165	0.304273	-1.061685
C47	C	1.268585	0.371439	-1.116527
C48	C	1.165280	0.506058	-0.233253
C49	C	1.165412	0.505808	-0.116477
H50	H	1.268439	0.806428	-0.371918
H51	H	1.071701	0.905967	-0.628031
C52	C	1.057084	0.646893	-1.121906
H53	H	1.026347	0.686915	-1.073504
H54	H	1.087925	0.692659	-1.164701
H55	H	1.021969	0.606681	-1.164713
C56	C	1.268599	0.371395	-1.237221
H57	H	1.230490	0.421016	-1.262019
H58	H	1.320630	0.389556	-1.262053
H59	H	1.254671	0.303582	-1.262050
C60	C	1.376817	0.890284	-0.230975
H61	H	1.407570	0.938673	-0.191016
H62	H	1.345975	0.847553	-0.185149
H63	H	1.411917	0.847411	-0.271201
C64	C	1.376877	0.230434	-0.891640
H65	H	1.369483	0.240086	-0.818433
H66	H	1.365102	0.159836	-0.909634
H67	H	1.431054	0.245818	-0.909631
C68	C	1.057050	1.120700	-0.647265
H69	H	1.026308	1.072314	-0.687240
H70	H	1.021953	1.163573	-0.607046
H71	H	1.087899	1.163432	-0.693092
C72	C	1.057039	0.646957	-0.891486
H73	H	1.064408	0.637347	-0.818287
H74	H	1.068820	0.717546	-0.909447
H75	H	1.002869	0.631561	-0.909463
C76	C	1.268525	0.371550	-0.776387
H77	H	1.306628	0.321922	-0.751587
H78	H	1.282439	0.439359	-0.751551
H79	H	1.216490	0.353372	-0.751563
C80	C	1.376911	1.120697	-0.231035
H81	H	1.369559	1.193901	-0.240672
H82	H	1.365123	1.102781	-0.160430
H83	H	1.431078	1.102646	-0.246465
C84	C	1.268633	1.235912	-0.372059
H85	H	1.306757	1.260728	-0.322468
H86	H	1.282558	1.260661	-0.439882
H87	H	1.216617	1.260807	-0.353829
H88	H	1.362174	0.249546	-1.106367
