data_functionalizedCrystal
_audit_creation_method	'MofGen! by Chris Wilmer'
_symmetry_space_group_name_H-M	'P1'
_symmetry_Int_Tables_number	1
_symmetry_cell_setting	triclinic
loop_
_symmetry_equiv_pos_as_xyz
  x,y,z
_cell_length_a	17.640112
_cell_length_b	16.625545
_cell_length_c	17.640968
_cell_angle_alpha	101.230628
_cell_angle_beta	87.860920
_cell_angle_gamma	101.250346
loop_
_atom_site_label
_atom_site_type_symbol
_atom_site_fract_x
_atom_site_fract_y
_atom_site_fract_z
Zn1	Zn	1.247777	-0.023167	0.195080
Zn2	Zn	1.747777	0.476833	0.695080
Zn3	Zn	1.222000	-0.189521	0.068100
Zn4	Zn	1.722000	0.310479	0.568100
Zn5	Zn	1.095107	-0.075617	0.093727
Zn6	Zn	1.595107	0.424383	0.593727
Zn7	Zn	1.120741	-0.178908	0.220682
Zn8	Zn	1.620741	0.321092	0.720682
O9	O	1.171406	-0.116803	0.144397
O10	O	1.671406	0.383197	0.644397
O11	O	1.350628	-0.027726	0.156797
O12	O	1.850628	0.472274	0.656797
O13	O	1.183651	-0.200804	-0.034773
O14	O	1.683651	0.299196	0.465227
O15	O	1.115419	0.044187	0.107182
O16	O	1.615419	0.544187	0.607182
O17	O	1.331689	-0.149945	0.063505
O18	O	1.831689	0.350055	0.563505
O19	O	1.227585	0.082722	0.181646
O20	O	1.727585	0.582722	0.681646
O21	O	1.090423	-0.117119	-0.015945
O22	O	1.590423	0.382881	0.484055
O23	O	0.992237	-0.106828	0.132007
O24	O	1.492237	0.393172	0.632007
O25	O	1.159109	-0.131856	0.323559
O26	O	1.659109	0.368144	0.823559
O27	O	1.011070	-0.182714	0.225280
O28	O	1.511070	0.317286	0.725280
O29	O	1.252442	-0.017434	0.304749
O30	O	1.752442	0.482566	0.804749
O31	O	1.208508	-0.300960	0.088330
O32	O	1.708508	0.199040	0.588330
O33	O	1.134113	-0.293162	0.200431
O34	O	1.634113	0.206838	0.700431
C35	C	0.974099	-0.149311	0.184203
C36	C	1.474099	0.350689	0.684203
C37	C	0.889694	-0.163233	0.201250
C38	C	1.389694	0.336767	0.701250
C39	C	0.563039	-0.011024	0.014898
C40	C	1.063039	0.488976	0.514898
C41	C	0.483729	-0.024119	0.030927
C42	C	0.983729	0.475881	0.530927
C43	C	0.503361	-0.103324	0.127885
C44	C	1.003361	0.396676	0.627885
C45	C	0.582674	-0.090231	0.111867
C46	C	1.082674	0.409769	0.611867
C47	C	0.612506	-0.044082	0.055372
C48	C	1.112506	0.455918	0.555372
C49	C	0.632142	-0.123289	0.152341
C50	C	1.132142	0.376711	0.652341
C51	C	0.711447	-0.110201	0.136321
C52	C	1.211447	0.389799	0.636321
C53	C	0.741285	-0.064056	0.079827
C54	C	1.241285	0.435944	0.579827
C55	C	0.691812	-0.030994	0.039352
C56	C	1.191812	0.469006	0.539352
C57	C	0.602307	-0.169444	0.208831
C58	C	1.102307	0.330556	0.708831
C59	C	0.651775	-0.202502	0.249305
C60	C	1.151775	0.297498	0.749305
C61	C	0.731083	-0.189409	0.233290
C62	C	1.231083	0.310591	0.733290
C63	C	0.760921	-0.143263	0.176796
C64	C	1.260921	0.356737	0.676796
C65	C	0.780556	-0.222471	0.273765
C66	C	1.280556	0.277529	0.773765
C67	C	0.859862	-0.209383	0.257745
C68	C	1.359862	0.290617	0.757745
C69	C	0.840227	-0.130176	0.160776
C70	C	1.340227	0.369824	0.660776
C71	C	1.171319	-0.326314	0.144390
C72	C	1.671319	0.173686	0.644390
C73	C	1.171356	-0.415925	0.144398
C74	C	1.671356	0.084075	0.644398
C75	C	1.171389	-0.488699	0.144407
C76	C	1.671389	0.011301	0.644407
C77	C	1.171436	-0.579996	0.144415
C78	C	1.671436	-0.079996	0.644415
C79	C	1.171478	-0.652764	0.144417
C80	C	1.671478	-0.152764	0.644417
C81	C	1.171524	-0.744067	0.144424
C82	C	1.671524	-0.244067	0.644424
C83	C	1.369484	-0.084169	0.104436
C84	C	1.869484	0.415831	0.604436
C85	C	1.453892	-0.070262	0.087407
C86	C	1.953892	0.429738	0.587407
C87	C	1.171518	0.093533	0.144417
C88	C	1.671518	0.593533	0.644417
C89	C	1.171566	0.183165	0.144425
C90	C	1.671566	0.683165	0.644425
C91	C	1.211510	-0.067610	0.342480
C92	C	1.711510	0.432390	0.842480
C93	C	1.228600	-0.046647	0.426890
C94	C	1.728600	0.453353	0.926890
C95	C	1.131502	-0.165739	-0.052923
C96	C	1.631502	0.334261	0.447077
C97	C	1.114559	-0.186451	-0.137363
C98	C	1.614559	0.313549	0.362637
C99	C	1.041868	-0.275571	0.753467
C100	C	1.541868	0.224429	1.253467
C101	C	1.057942	-0.255860	0.832780
C102	C	1.557942	0.244140	1.332780
C103	C	1.155122	-0.136723	0.813185
C104	C	1.655122	0.363277	1.313185
C105	C	1.139053	-0.156421	0.733869
C106	C	1.639053	0.343579	1.233869
C107	C	1.082426	-0.225847	0.704016
C108	C	1.582426	0.274153	1.204016
C109	C	1.179610	-0.106697	0.684418
C110	C	1.679610	0.393303	1.184418
C111	C	1.163545	-0.126397	0.605108
C112	C	1.663545	0.373603	1.105108
C113	C	1.106922	-0.195821	0.575249
C114	C	1.606922	0.304179	1.075249
C115	C	1.066361	-0.245547	0.624706
C116	C	1.566361	0.254453	1.124706
C117	C	1.236241	-0.037276	0.714272
C118	C	1.736241	0.462724	1.214272
C119	C	1.276799	0.012448	0.664821
C120	C	1.776799	0.512448	1.164821
C121	C	1.260730	-0.007248	0.585510
C122	C	1.760730	0.492752	1.085510
C123	C	1.204107	-0.076672	0.555651
C124	C	1.704107	0.423328	1.055651
C125	C	1.301292	0.042478	0.536053
C126	C	1.801292	0.542478	1.036053
C127	C	1.285227	0.022778	0.456743
C128	C	1.785227	0.522778	0.956743
C129	C	1.188042	-0.096371	0.476341
C130	C	1.688042	0.403629	0.976341
H131	H	0.716105	0.006601	-0.006640
H132	H	1.216105	0.506601	0.493360
H133	H	1.318252	0.063269	0.416479
H134	H	1.818252	0.563269	0.916479
H135	H	0.864519	-0.092581	0.114784
H136	H	1.364519	0.407419	0.614784
H137	H	0.805861	-0.053403	0.066784
H138	H	1.305861	0.446597	0.566784
H139	H	1.141913	-0.152888	0.452037
H140	H	1.641913	0.347112	0.952037
H141	H	0.995738	-0.332088	0.729163
H142	H	1.495738	0.167912	1.229163
C143	C	0.470541	-0.154081	0.190028
C144	C	0.970541	0.345919	0.690028
H145	H	0.416225	-0.157137	0.193776
H146	H	0.916225	0.342863	0.693776
H147	H	0.481258	-0.208877	0.176209
H148	H	0.981258	0.291123	0.676209
H149	H	0.493888	-0.127528	0.238446
H150	H	0.993888	0.372472	0.738446
H151	H	0.900140	-0.236301	0.290704
H152	H	1.400140	0.263699	0.790704
H153	H	0.587331	0.026571	-0.031094
H154	H	1.087331	0.526571	0.468906
C155	C	1.363583	0.118836	0.568893
C156	C	1.863583	0.618836	1.068893
H157	H	1.385441	0.145626	0.528082
H158	H	1.885441	0.645626	1.028082
H159	H	1.340825	0.156872	0.605704
H160	H	1.840825	0.656872	1.105704
H161	H	1.402924	0.101113	0.593144
H162	H	1.902924	0.601113	1.093144
C163	C	1.013323	-0.310555	0.887178
C164	C	1.513323	0.189445	1.387178
H165	H	1.031003	-0.288885	0.938688
H166	H	1.531003	0.211115	1.438688
H167	H	0.959673	-0.310390	0.884479
H168	H	1.459673	0.189610	1.384479
H169	H	1.021782	-0.366137	0.871933
H170	H	1.521782	0.133863	1.371933
C171	C	0.429317	0.012253	-0.013594
C172	C	0.929317	0.512253	0.486406
H173	H	0.458446	0.041617	-0.049529
H174	H	0.958446	0.541617	0.450471
H175	H	0.391654	-0.031872	-0.040481
H176	H	0.891654	0.468128	0.459519
H177	H	0.404292	0.049469	0.021766
H178	H	0.904292	0.549469	0.521766
C179	C	0.618955	-0.253259	0.311448
C180	C	1.118955	0.246741	0.811448
H181	H	0.564639	-0.256315	0.315197
H182	H	1.064639	0.243685	0.815197
H183	H	0.629672	-0.308055	0.297629
H184	H	1.129672	0.191945	0.797629
H185	H	0.642302	-0.226706	0.359866
H186	H	1.142302	0.273294	0.859866
C187	C	1.089246	-0.217497	0.488010
C188	C	1.589246	0.282503	0.988010
H189	H	1.049718	-0.265968	0.477314
H190	H	1.549718	0.234032	0.977314
H191	H	1.072507	-0.172080	0.472720
H192	H	1.572507	0.327920	0.972720
H193	H	1.134613	-0.227830	0.460176
H194	H	1.634613	0.272170	0.960176
C195	C	0.747734	-0.273235	0.335902
C196	C	1.247734	0.226765	0.835902
H197	H	0.693417	-0.276293	0.339647
H198	H	1.193417	0.223707	0.839647
H199	H	0.758452	-0.328030	0.322078
H200	H	1.258452	0.171970	0.822078
H201	H	0.771077	-0.246687	0.384323
H202	H	1.271077	0.253313	0.884323
C203	C	1.217403	-0.060356	0.846029
C204	C	1.717403	0.439644	1.346029
H205	H	1.221159	-0.055741	0.900347
H206	H	1.721159	0.444259	1.400347
H207	H	1.265789	-0.066972	0.822732
H208	H	1.765789	0.433028	1.322732
H209	H	1.203672	-0.011235	0.835281
H210	H	1.703672	0.488765	1.335281
H211	H	1.020231	-0.302064	0.600402
H212	H	1.520231	0.197936	1.100402
C213	C	1.339080	0.088815	0.697665
C214	C	1.839080	0.588815	1.197665
H215	H	1.342836	0.093430	0.751983
H216	H	1.842836	0.593430	1.251983
H217	H	1.387466	0.082199	0.674368
H218	H	1.887466	0.582199	1.174368
H219	H	1.325349	0.137936	0.686917
H220	H	1.825349	0.637936	1.186917
H221	H	0.537731	-0.180099	0.221873
H222	H	1.037731	0.319901	0.721873
H223	H	1.249321	-0.021240	0.778851
H224	H	1.749321	0.478760	1.278851
