data_functionalizedCrystal
_audit_creation_method	'MofGen! by Chris Wilmer'
_symmetry_space_group_name_H-M	'P1'
_symmetry_Int_Tables_number	1
_symmetry_cell_setting	triclinic
loop_
_symmetry_equiv_pos_as_xyz
  x,y,z
_cell_length_a	23.532361
_cell_length_b	23.532407
_cell_length_c	12.996460
_cell_angle_alpha	89.989202
_cell_angle_beta	89.998689
_cell_angle_gamma	82.839173
loop_
_atom_site_label
_atom_site_type_symbol
_atom_site_fract_x
_atom_site_fract_y
_atom_site_fract_z
O1	O	0.755277	0.069010	-0.085474
O2	O	0.589410	0.079041	-0.085500
O3	O	0.677346	-0.008907	-0.085467
O4	O	0.667342	0.156958	-0.085507
O5	O	0.677337	-0.008912	0.085666
O6	O	0.589401	0.079036	0.085634
O7	O	0.755268	0.069005	0.085660
Cu8	Cu	0.672334	0.074020	0.101273
Cu9	Cu	0.672345	0.074025	-0.101113
O10	O	0.667333	0.156953	0.085627
C11	C	0.568189	0.078787	0.000064
C12	C	0.504971	0.078032	0.000055
C13	C	0.231732	0.074731	-0.093224
C14	C	0.291132	0.075446	-0.093226
O15	O	0.321862	0.075798	-0.172560
N16	N	0.320832	0.075804	0.000059
C17	C	0.291131	0.075442	0.093353
O18	O	0.321848	0.075812	0.172699
C19	C	0.231733	0.074723	0.093355
C20	C	0.202035	0.074370	0.000063
C21	C	0.202034	0.074377	-0.186507
C22	C	0.142638	0.073664	-0.186504
C23	C	0.112940	0.073303	-0.093217
C24	C	0.142639	0.073657	0.000066
C25	C	0.202033	0.074357	0.186648
C26	C	0.142631	0.073637	0.186641
C27	C	0.112933	0.073285	0.093350
C28	C	0.053546	0.072582	0.093356
N29	N	0.023845	0.072224	0.000071
C30	C	0.053542	0.072584	-0.093216
C31	C	0.415871	0.076951	0.093343
C32	C	0.475268	0.077674	0.093342
C33	C	0.475264	0.077677	-0.093238
C34	C	0.415866	0.076958	-0.093236
C35	C	0.386171	0.076593	0.000057
C36	C	-0.071193	0.071086	-0.093202
C37	C	-0.130595	0.070374	-0.093191
C38	C	-0.130586	0.070369	0.093388
C39	C	-0.071190	0.071083	0.093378
C40	C	-0.041495	0.071440	0.000074
O41	O	0.022778	0.072227	0.172650
O42	O	0.022819	0.072206	-0.172549
C43	C	0.677086	-0.030126	0.000102
C44	C	0.676320	-0.093343	0.000110
C45	C	0.723555	-0.492454	0.000061
C46	C	0.722844	-0.551854	0.000053
O47	O	0.766630	-0.588606	0.000022
N48	N	0.670566	-0.574471	0.000045
C49	C	0.618997	-0.537685	0.000035
O50	O	0.574465	-0.562377	0.000027
C51	C	0.619709	-0.478286	0.000036
C52	C	0.671990	-0.455672	0.000054
C53	C	0.775832	-0.469839	0.000078
C54	C	0.776543	-0.410443	0.000087
C55	C	0.724977	-0.373662	0.000081
C56	C	0.672701	-0.396276	0.000064
C57	C	0.568140	-0.441501	0.000019
C58	C	0.568857	-0.382099	0.000018
C59	C	0.621137	-0.359485	0.000036
C60	C	0.621847	-0.300099	0.000067
N61	N	0.674124	-0.277481	0.000074
C62	C	0.725690	-0.314263	0.000081
C63	C	0.617505	-0.662427	0.000032
C64	C	0.616793	-0.721825	0.000039
C65	C	0.720640	-0.735990	0.000055
C66	C	0.721352	-0.676591	0.000055
C67	C	0.669783	-0.639810	0.000040
C68	C	0.727179	-0.189526	0.000103
C69	C	0.727886	-0.130124	0.000117
C70	C	0.624039	-0.115965	0.000096
C71	C	0.623332	-0.175361	0.000087
C72	C	0.674907	-0.212141	0.000087
O73	O	0.578083	-0.263312	0.000094
O74	O	0.770214	-0.289562	0.000076
C75	C	0.776489	0.069258	0.000094
C76	C	0.839708	0.070014	0.000096
C77	C	0.667592	0.178171	0.000055
C78	C	0.668358	0.241388	0.000041
N79	N	0.672331	0.074015	0.243620
N80	N	0.672353	0.074025	-0.243460
C81	C	0.672344	0.074026	0.663434
C82	C	0.672339	0.074025	0.546629
C83	C	0.672338	0.074021	0.453531
C84	C	0.672332	0.074019	0.336718
H85	H	0.118455	0.073345	0.262614
C86	C	-0.038521	0.071475	0.196002
N87	N	-0.013918	0.071765	0.273301
H88	H	0.763923	-0.658183	0.000069
C89	C	0.777363	-0.776461	0.000052
N90	N	0.820084	-0.806946	0.000048
H91	H	0.769176	-0.219466	0.000099
C92	C	0.559280	-0.746693	0.000032
N93	N	0.515959	-0.765421	0.000020
C94	C	-0.163264	0.069970	0.195999
N95	N	-0.187878	0.069665	0.273286
C96	C	-0.038538	0.071481	-0.195841
N97	N	-0.013943	0.071783	-0.273149
C98	C	0.560771	-0.621972	0.000029
N99	N	0.518039	-0.591505	0.000025
C100	C	0.383205	0.076564	-0.195863
N101	N	0.358607	0.076264	-0.273166
H102	H	-0.154773	0.070089	-0.169163
H103	H	0.525567	-0.459902	-0.000002
C104	C	0.109979	0.073263	-0.289133
N105	N	0.085385	0.072957	-0.366439
C106	C	0.834056	-0.385576	0.000096
N107	N	0.877379	-0.366851	0.000099
H108	H	0.526862	-0.352154	0.000004
H109	H	0.580761	-0.193774	0.000101
H110	H	0.226207	0.074669	-0.262477
H111	H	0.499455	0.077970	-0.169197
H112	H	0.499442	0.077971	0.169309
H113	H	0.226204	0.074642	0.262616
C114	C	0.383210	0.076563	0.195980
N115	N	0.358611	0.076272	0.273286
C116	C	0.785401	-0.105253	0.000134
N117	N	0.828721	-0.086523	0.000143
H118	H	0.582056	-0.086007	0.000094
C119	C	0.832563	-0.510291	0.000096
N120	N	0.875297	-0.540756	0.000122
