data_functionalizedCrystal
_audit_creation_method	'MofGen! by Chris Wilmer'
_symmetry_space_group_name_H-M	'P1'
_symmetry_Int_Tables_number	1
_symmetry_cell_setting	triclinic
loop_
_symmetry_equiv_pos_as_xyz
  x,y,z
_cell_length_a	19.288864
_cell_length_b	11.792254
_cell_length_c	18.366186
_cell_angle_alpha	89.993617
_cell_angle_beta	89.977106
_cell_angle_gamma	83.667422
loop_
_atom_site_label
_atom_site_type_symbol
_atom_site_fract_x
_atom_site_fract_y
_atom_site_fract_z
O1	O	0.922161	0.141581	-0.060784
O2	O	0.720009	0.160680	-0.060734
O3	O	0.825986	-0.014113	-0.060755
O4	O	0.816184	0.316375	-0.060763
O5	O	0.825968	-0.014122	0.060345
O6	O	0.719991	0.160672	0.060365
O7	O	0.922143	0.141573	0.060316
Zn8	Zn	0.821064	0.151121	0.079568
Zn9	Zn	0.821088	0.151132	-0.079986
O10	O	0.816166	0.316366	0.060337
C11	C	0.694120	0.160062	-0.000178
C12	C	0.617006	0.158217	-0.000159
C13	C	0.825360	-0.056399	-0.000205
C14	C	0.823512	-0.182384	-0.000205
C15	C	0.572895	0.260778	-0.000173
C16	C	0.500438	0.259045	-0.000181
C17	C	0.472095	0.154745	-0.000189
C18	C	0.516216	0.052170	-0.000171
C19	C	0.588671	0.053906	-0.000156
C20	C	0.363372	0.072756	-0.042638
C21	C	0.290917	0.071025	-0.042658
C22	C	0.248619	0.149386	-0.000233
C23	C	0.278783	0.229498	0.042202
C24	C	0.351238	0.231234	0.042217
C25	C	0.393531	0.152851	-0.000206
C26	C	0.125942	0.250075	-0.000255
C27	C	0.053484	0.248337	-0.000258
C28	C	0.069263	0.041460	-0.000256
C29	C	0.141719	0.043200	-0.000246
C30	C	0.170054	0.147511	-0.000248
C31	C	0.822010	-0.284697	-0.000208
C32	C	0.820132	-0.413056	-0.000214
C33	C	0.948032	0.142192	-0.000242
C34	C	1.025146	0.144036	-0.000266
C35	C	0.816792	0.358652	-0.000215
C36	C	0.818641	0.484637	-0.000219
N37	N	0.821053	0.151113	0.188459
N38	N	0.821105	0.151132	-0.188877
C39	C	0.867995	0.073752	0.226550
C40	C	0.867999	0.073747	0.302778
C41	C	0.821068	0.151122	0.340912
C42	C	0.774117	0.228488	0.302811
C43	C	0.774110	0.228484	0.226585
C44	C	0.812360	0.254532	0.461671
C45	C	0.812373	0.254539	0.537896
C46	C	0.821088	0.151136	0.576019
C47	C	0.829805	0.047723	0.537908
C48	C	0.829798	0.047718	0.461682
C49	C	0.821071	0.151135	0.423566
C50	C	0.868038	0.073764	0.696765
C51	C	0.868037	0.073757	0.772994
C52	C	0.774158	0.228508	0.773026
C53	C	0.774155	0.228505	0.696799
C54	C	0.821099	0.151134	0.658673
H55	H	0.595960	0.345715	-0.000176
N56	N	0.233179	0.314029	0.087968
H57	H	0.199415	0.362057	0.055467
H58	H	0.206326	0.271549	0.124244
N59	N	0.452849	0.369667	-0.000197
H60	H	0.481794	0.436009	-0.000196
H61	H	0.422472	0.373442	-0.045099
N62	N	0.038702	-0.071035	-0.000269
H63	H	0.077644	-0.135747	-0.000260
H64	H	0.008959	-0.076264	0.044619
H65	H	0.735904	0.291487	0.333864
N66	N	0.918664	-0.009684	0.655637
H67	H	0.948400	-0.058701	0.691337
H68	H	0.891884	-0.059748	0.624026
N69	N	0.189302	-0.067419	-0.000230
H70	H	0.160354	-0.133758	-0.000236
H71	H	0.219735	-0.071206	-0.045116
H72	H	0.906217	0.010749	0.195510
N73	N	0.636251	-0.056719	-0.000152
H74	H	0.686451	-0.039792	-0.000145
H75	H	0.627010	-0.102196	0.044739
N76	N	0.723474	0.311929	0.185502
H77	H	0.731774	0.392449	0.198756
H78	H	0.730614	0.300090	0.131440
N79	N	0.156505	0.362577	-0.000253
H80	H	0.140425	0.407489	0.044637
H81	H	0.209094	0.348022	-0.000274
N82	N	0.485649	-0.060324	-0.000188
H83	H	0.524591	-0.125035	-0.000178
H84	H	0.455902	-0.065553	0.044697
H85	H	0.266364	0.005797	-0.077214
N86	N	0.918630	-0.009698	0.343874
H87	H	0.948365	-0.058713	0.308155
H88	H	0.949497	0.033636	0.375480
N89	N	0.839198	-0.063811	0.420578
H90	H	0.837873	-0.048118	0.366505
H91	H	0.885604	-0.107009	0.433882
H92	H	0.397806	0.008943	-0.077190
N93	N	0.839210	-0.063815	0.579014
H94	H	0.837889	-0.048125	0.633086
H95	H	0.800418	-0.110922	0.565712
N96	N	0.802965	0.366071	0.578997
H97	H	0.845175	0.372648	0.610599
H98	H	0.797412	0.431505	0.543233
H99	H	0.906261	0.010755	0.804009
N100	N	0.383774	0.317628	0.087985
H101	H	0.345989	0.367010	0.114861
H102	H	0.417000	0.276575	0.124229
H103	H	0.805252	0.338741	0.430637
H104	H	0.735943	0.291504	0.804074
H105	H	0.735933	0.291504	0.665783
H106	H	0.017569	0.331858	-0.000265
