data_functionalizedCrystal
_audit_creation_method	'MofGen! by Chris Wilmer'
_symmetry_space_group_name_H-M	'P1'
_symmetry_Int_Tables_number	1
_symmetry_cell_setting	triclinic
loop_
_symmetry_equiv_pos_as_xyz
  x,y,z
_cell_length_a	19.077105
_cell_length_b	12.759394
_cell_length_c	19.077579
_cell_angle_alpha	87.677447
_cell_angle_beta	85.300666
_cell_angle_gamma	87.711291
loop_
_atom_site_label
_atom_site_type_symbol
_atom_site_fract_x
_atom_site_fract_y
_atom_site_fract_z
Zn1	Zn	1.093758	-0.457488	-0.441863
Zn2	Zn	1.088964	-0.639965	-0.323979
Zn3	Zn	0.971143	-0.457506	-0.319259
Zn4	Zn	0.975856	-0.626329	-0.437098
O5	O	1.032430	-0.545322	-0.380550
O6	O	1.191773	-0.487393	-0.430195
O7	O	1.069356	-0.621475	-0.224702
O8	O	0.987442	-0.310483	-0.335542
O9	O	1.188251	-0.621458	-0.343586
O10	O	1.077526	-0.310470	-0.425618
O11	O	0.982794	-0.487423	-0.221234
O12	O	0.873117	-0.474202	-0.330921
O13	O	0.995475	-0.598218	-0.536381
O14	O	0.876580	-0.598235	-0.417497
O15	O	1.082096	-0.474171	-0.539882
O16	O	1.073926	-0.785176	-0.338966
O17	O	0.990826	-0.775158	-0.422074
C18	C	0.849270	-0.534742	-0.373180
C19	C	0.770914	-0.530240	-0.370044
C20	C	0.735920	-0.592808	-0.413575
C21	C	0.662296	-0.588563	-0.410632
C22	C	0.623667	-0.521756	-0.364153
C23	C	0.658666	-0.459181	-0.320620
C24	C	0.732288	-0.463420	-0.323568
C25	C	0.403284	-0.502136	-0.350516
C26	C	0.329656	-0.497903	-0.347571
C27	C	0.333292	-0.627285	-0.437583
C28	C	0.406916	-0.631523	-0.440524
C29	C	0.441908	-0.568944	-0.396993
N30	N	0.548412	-0.517419	-0.361142
N31	N	0.517162	-0.573276	-0.400009
C32	C	1.032387	-0.818288	-0.380531
C33	C	1.032434	-0.935067	-0.380549
C34	C	1.119036	-0.945445	-0.294079
C35	C	1.162356	-1.005495	-0.250853
C36	C	1.162398	-1.115218	-0.250874
C37	C	1.119118	-1.164893	-0.294127
C38	C	1.075798	-1.104842	-0.337353
C39	C	1.075759	-0.995117	-0.337326
C40	C	0.989200	-1.094464	-0.423826
C41	C	0.989153	-0.984741	-0.423802
C42	C	0.945919	-1.144138	-0.467079
C43	C	0.902595	-1.084087	-0.510302
C44	C	0.902554	-0.974358	-0.510279
C45	C	0.945834	-0.924690	-0.467028
C46	C	1.216306	-0.555945	-0.387949
C47	C	1.294663	-0.560471	-0.391102
C48	C	1.039846	-0.534672	-0.564426
C49	C	1.043006	-0.530133	-0.642783
C50	C	1.032493	-0.271290	-0.380585
C51	C	1.032520	-0.154514	-0.380600
C52	C	1.065672	-0.497659	-1.084048
C53	C	1.062698	-0.501928	-1.010423
C54	C	1.016109	-0.568641	-0.971791
C55	C	0.972495	-0.631097	-1.006788
C56	C	0.975473	-0.626832	-1.080412
C57	C	1.002370	-0.588325	-0.751404
C58	C	0.999394	-0.592582	-0.677775
C59	C	1.089599	-0.463414	-0.681415
C60	C	1.092570	-0.459151	-0.755040
C61	C	1.048958	-0.521611	-0.790031
N62	N	1.013066	-0.573004	-0.896534
N63	N	1.052005	-0.517253	-0.865286
C64	C	1.025084	-0.555857	-0.197391
C65	C	1.022060	-0.560108	-0.119040
H66	H	0.431765	-0.451188	-0.315065
H67	H	0.966858	-0.639182	-0.779884
H68	H	0.760779	-0.412465	-0.288124
H69	H	1.119162	-1.254235	-0.294146
O70	O	1.204381	-1.173672	-0.208851
C71	C	1.210140	-1.303640	-0.114071
C72	C	1.162513	-1.237522	-0.161622
H73	H	1.176308	-1.355263	-0.075865
H74	H	1.248285	-1.355262	-0.147924
H75	H	1.241088	-1.249278	-0.083188
H76	H	1.131520	-1.291805	-0.192514
H77	H	1.124412	-1.185890	-0.127730
O78	O	0.954240	-0.657458	-0.640163
C79	C	0.941399	-0.803586	-0.556650
C80	C	0.992604	-0.730179	-0.599199
H81	H	0.972397	-0.862413	-0.523531
H82	H	0.903168	-0.755274	-0.520660
H83	H	0.910720	-0.847462	-0.594305
H84	H	1.023331	-0.686288	-0.561597
H85	H	1.030789	-0.778548	-0.635198
O86	O	0.773335	-0.657728	-0.458788
C87	C	0.769161	-0.785647	-0.547732
C88	C	0.726706	-0.712155	-0.496569
H89	H	0.731479	-0.829686	-0.578281
H90	H	0.805114	-0.737390	-0.586076
H91	H	0.802326	-0.844328	-0.516673
H92	H	0.693500	-0.653460	-0.527570
H93	H	0.690797	-0.760480	-0.458225
O94	O	0.628218	-0.649397	-0.452812
C95	C	0.545481	-0.785977	-0.458790
C96	C	0.584016	-0.717132	-0.410939
H97	H	0.509745	-0.840773	-0.424954
H98	H	0.512469	-0.733763	-0.494317
H99	H	0.585746	-0.834415	-0.492530
H100	H	0.543800	-0.668684	-0.377154
H101	H	0.617041	-0.769405	-0.375458
H102	H	0.438363	-0.685927	-0.478370
H103	H	1.118997	-0.856103	-0.294048
O104	O	0.927256	-0.695811	-0.969155
C105	C	0.882717	-0.759668	-0.854124
C106	C	0.933973	-0.686317	-0.896654
H107	H	0.888141	-0.752034	-0.795500
H108	H	0.826446	-0.737092	-0.866270
H109	H	0.895653	-0.844248	-0.869126
H110	H	0.921101	-0.601715	-0.881676
H111	H	0.990229	-0.708983	-0.884504
H112	H	0.304793	-0.678232	-0.473024
O113	O	1.105088	-0.441158	-0.976542
C114	C	1.194898	-0.312632	-0.987922
C115	C	1.146917	-0.381381	-1.026380
H116	H	1.228740	-0.264301	-1.028200
H117	H	1.161187	-0.257755	-0.952181
H118	H	1.230325	-0.365010	-0.954908
H119	H	1.111482	-0.329085	-1.059432
H120	H	1.180670	-0.436266	-1.062079
H121	H	0.867362	-1.124541	-0.545519
O122	O	1.137893	-0.394328	-0.792459
C123	C	1.227022	-0.266620	-0.788296
C124	C	1.175740	-0.340008	-0.745834
H125	H	1.257625	-0.222667	-0.750617
H126	H	1.265310	-0.314947	-0.824220
H127	H	1.196055	-0.207860	-0.821492
H128	H	1.206649	-0.398781	-0.712597
H129	H	1.137452	-0.291613	-0.709954
H130	H	0.867281	-0.925470	-0.545482
H131	H	1.125105	-0.412564	-0.652918
H132	H	0.627208	-0.404780	-0.282780
O133	O	0.933036	-0.687529	-1.114293
C134	C	0.843283	-0.816144	-1.102919
C135	C	0.891289	-0.747437	-1.064460
H136	H	0.809529	-0.864613	-1.062646
H137	H	0.807780	-0.763832	-1.135895
H138	H	0.877043	-0.870909	-1.138698
H139	H	0.857584	-0.692663	-1.028645
H140	H	0.926795	-0.799812	-1.031528
H141	H	0.945960	-1.233481	-0.467096
H142	H	0.298206	-0.443488	-0.309726
H143	H	1.197597	-0.965041	-0.215638
H144	H	0.945800	-0.835349	-0.467001
H145	H	1.103606	-0.443327	-1.115496
