data_functionalizedCrystal
_audit_creation_method	'MofGen! by Chris Wilmer'
_symmetry_space_group_name_H-M	'P1'
_symmetry_Int_Tables_number	1
_symmetry_cell_setting	triclinic
loop_
_symmetry_equiv_pos_as_xyz
  x,y,z
_cell_length_a	14.853567
_cell_length_b	10.654549
_cell_length_c	9.730223
_cell_angle_alpha	89.996580
_cell_angle_beta	89.999682
_cell_angle_gamma	84.059854
loop_
_atom_site_label
_atom_site_type_symbol
_atom_site_fract_x
_atom_site_fract_y
_atom_site_fract_z
O1	O	1.197241	0.163961	-0.114192
O2	O	0.934886	0.183492	-0.114215
O3	O	1.072096	-0.009076	-0.114197
O4	O	1.060031	0.356528	-0.114210
O5	O	1.072087	-0.009081	0.114383
O6	O	0.934877	0.183487	0.114365
O7	O	1.197232	0.163955	0.114388
Zn8	Zn	1.066053	0.173720	0.150668
Zn9	Zn	1.066065	0.173727	-0.150496
O10	O	1.060022	0.356523	0.114370
C11	C	1.071205	-0.055867	0.000091
C12	C	1.068555	-0.195283	0.000086
C13	C	0.901288	0.182605	0.000072
C14	C	0.801190	0.179953	0.000063
C15	C	1.146845	-0.406611	0.000084
C16	C	1.149342	-0.275616	0.000095
C17	C	0.985266	-0.245950	0.000081
C18	C	0.982770	-0.376942	0.000079
C19	C	0.387984	0.054353	0.000098
C20	C	0.367928	0.283128	0.000089
C21	C	0.461975	0.285621	0.000084
C22	C	0.519031	0.172479	0.000085
C23	C	0.482040	0.056843	0.000089
C24	C	0.498973	0.401255	0.000066
C25	C	0.593025	0.403753	0.000060
C26	C	0.650083	0.290610	0.000070
C27	C	0.613087	0.174969	0.000076
C28	C	0.670143	0.061826	0.000076
C29	C	0.633149	-0.053816	0.000092
C30	C	0.539098	-0.056301	0.000099
C31	C	0.744134	0.293095	0.000063
C32	C	0.764199	0.064317	0.000068
C33	C	1.230830	0.164843	0.000098
C34	C	1.330928	0.167495	0.000098
C35	C	1.060912	0.403314	0.000079
C36	C	1.063563	0.542730	0.000074
N37	N	1.066052	0.173715	0.356205
N38	N	1.066073	0.173723	-0.356032
C39	C	1.126829	0.088482	0.428138
C40	C	1.126838	0.088482	0.572021
C41	C	1.005289	0.258960	0.572024
C42	C	1.005277	0.258953	0.428144
H43	H	1.212632	-0.472011	0.000080
H44	H	1.217159	-0.234377	0.000105
C45	C	0.305170	0.407573	0.000091
H46	H	0.243858	0.389528	0.000105
H47	H	0.316459	0.454990	-0.079617
H48	H	0.316463	0.454971	0.079814
H49	H	0.623137	0.497916	0.000046
H50	H	0.919488	-0.180532	0.000082
C51	C	0.891155	-0.432671	0.000063
H52	H	0.843395	-0.366072	0.000046
H53	H	0.886767	-0.483161	0.079772
H54	H	0.886778	-0.483149	-0.079660
H55	H	0.955780	0.328360	0.369571
C56	C	0.826954	-0.060143	0.000061
H57	H	0.791450	-0.129364	0.000060
H58	H	0.864070	-0.063932	0.079762
H59	H	0.864051	-0.063923	-0.079670
H60	H	0.679616	-0.145936	0.000083
C61	C	0.938451	0.352725	0.651161
H62	H	0.947169	0.340533	0.747154
H63	H	0.878197	0.338934	0.627601
H64	H	0.948768	0.436567	0.627563
H65	H	0.357859	-0.039800	0.000116
C66	C	0.498402	-0.183492	0.000102
H67	H	0.434218	-0.168767	0.000090
H68	H	0.517934	-0.230092	0.079812
H69	H	0.517935	-0.230076	-0.079620
C70	C	1.193697	-0.005270	0.651143
H71	H	1.229892	-0.056025	0.587687
H72	H	1.160952	-0.057634	0.707284
H73	H	1.231509	0.040017	0.707255
C74	C	0.436213	0.525699	0.000071
H75	H	0.374902	0.507651	0.000097
H76	H	0.447494	0.573114	-0.079642
H77	H	0.447511	0.573101	0.079789
H78	H	0.774251	0.387249	0.000052
C79	C	1.193670	-0.005286	0.349010
H80	H	1.229861	-0.056055	0.412464
H81	H	1.231474	0.039978	0.292865
H82	H	1.160904	-0.057654	0.292901
