data_functionalizedCrystal
_audit_creation_method	'MofGen! by Chris Wilmer'
_symmetry_space_group_name_H-M	'P1'
_symmetry_Int_Tables_number	1
_symmetry_cell_setting	triclinic
loop_
_symmetry_equiv_pos_as_xyz
  x,y,z
_cell_length_a	10.540539
_cell_length_b	10.540539
_cell_length_c	11.295483
_cell_angle_alpha	94.138588
_cell_angle_beta	85.855350
_cell_angle_gamma	84.525492
loop_
_atom_site_label
_atom_site_type_symbol
_atom_site_fract_x
_atom_site_fract_y
_atom_site_fract_z
O1	O	1.694355	0.170434	-0.098963
O2	O	1.324943	0.187289	-0.098977
O3	O	1.518077	-0.005845	-0.098968
O4	O	1.501222	0.363568	-0.098972
O5	O	1.501114	0.011092	0.099082
O6	O	1.307980	0.204226	0.099073
O7	O	1.677392	0.187371	0.099087
Cu8	Cu	1.491137	0.197345	0.117164
Cu9	Cu	1.511198	0.177315	-0.117053
O10	O	1.484258	0.380505	0.099078
C11	C	1.269159	0.194493	0.000046
C12	C	1.128211	0.190711	0.000041
C13	C	0.944745	0.045833	0.000505
C14	C	1.091402	0.049628	0.000046
C15	C	1.076225	0.248934	-0.113052
C16	C	0.929688	0.244112	-0.113134
C17	C	0.909909	0.266243	0.112086
C18	C	1.056764	0.267669	0.113568
C19	C	1.508331	-0.044679	0.000055
C20	C	1.504550	-0.185628	0.000048
C21	C	1.359672	-0.369093	-0.000402
C22	C	1.363467	-0.222437	0.000044
C23	C	1.562759	-0.237614	0.113147
C24	C	1.557935	-0.384150	0.113242
C25	C	1.580096	-0.403929	-0.111977
C26	C	1.581523	-0.257075	-0.113473
C27	C	1.733177	0.180167	0.000062
C28	C	1.874125	0.183948	0.000059
C29	C	1.494004	0.419339	0.000053
C30	C	1.497786	0.560287	0.000052
N31	N	1.477036	0.211432	0.281899
N32	N	1.525309	0.163218	-0.281789
C33	C	1.626814	0.061739	0.531196
C34	C	1.616167	0.072394	0.655859
C35	C	1.445090	0.243390	0.655891
C36	C	1.455737	0.232735	0.531228
C37	C	1.546603	0.141908	0.468885
C38	C	1.557256	0.131260	0.344219
C39	C	1.386173	0.302249	0.344254
C40	C	1.375525	0.312904	0.468917
H41	H	0.908718	0.186702	-0.197671
H42	H	1.320863	0.367532	0.293506
Cl43	Cl	1.093251	0.427384	0.124108
H44	H	1.297259	-0.392404	0.080245
Cl45	Cl	0.889878	-0.029513	0.125725
Cl46	Cl	1.713904	-0.457536	0.121187
H47	H	1.500516	-0.405120	0.197782
Cl48	Cl	1.671489	0.017081	0.265847
Cl49	Cl	1.261296	0.427079	0.547300
H50	H	1.302713	-0.173737	0.081249
Cl51	Cl	1.146480	-0.022153	0.125209
Cl52	Cl	1.722165	-0.202548	0.119653
H53	H	1.681482	0.007111	0.706589
Cl54	Cl	1.166576	-0.043812	-0.125548
Cl55	Cl	1.478813	-0.160739	0.243089
H56	H	1.371100	0.317331	0.706667
H57	H	0.882159	0.345138	-0.118268
H58	H	1.126023	0.194572	-0.197217
Cl59	Cl	1.111332	0.408327	-0.119581
Cl60	Cl	0.908767	-0.050513	-0.124008
Cl61	Cl	0.849877	0.207064	0.244437
Cl62	Cl	1.108783	0.202009	0.242742
H63	H	0.862616	0.368212	0.112849
Cl64	Cl	1.520921	-0.463942	-0.244326
Cl65	Cl	1.741236	-0.220577	-0.124020
Cl66	Cl	1.291704	-0.167359	-0.125126
Cl67	Cl	1.284344	-0.423955	-0.125623
Cl68	Cl	1.516531	-0.204293	-0.242671
H69	H	1.700810	-0.012208	0.480435
Cl70	Cl	1.737525	-0.476944	-0.113150
