data_functionalizedCrystal
_audit_creation_method	'MofGen! by Chris Wilmer'
_symmetry_space_group_name_H-M	'P1'
_symmetry_Int_Tables_number	1
_symmetry_cell_setting	triclinic
loop_
_symmetry_equiv_pos_as_xyz
  x,y,z
_cell_length_a	15.995350
_cell_length_b	12.503572
_cell_length_c	14.044220
_cell_angle_alpha	86.156832
_cell_angle_beta	91.659374
_cell_angle_gamma	86.485305
loop_
_atom_site_label
_atom_site_type_symbol
_atom_site_fract_x
_atom_site_fract_y
_atom_site_fract_z
O1	O	1.124525	-0.089231	-0.116702
O2	O	1.374525	0.160769	0.133298
O3	O	1.624525	0.410769	0.383298
O4	O	1.874525	0.660769	0.633298
O5	O	0.881878	-0.089254	-0.131788
O6	O	1.131878	0.160746	0.118212
O7	O	1.381878	0.410746	0.368212
O8	O	1.631878	0.660746	0.618212
O9	O	0.999559	-0.089232	0.013739
O10	O	1.249559	0.160768	0.263739
O11	O	1.499559	0.410768	0.513739
O12	O	1.749559	0.660768	0.763739
O13	O	1.006844	-0.089253	-0.262229
O14	O	1.256844	0.160747	-0.012229
O15	O	1.506844	0.410747	0.237771
O16	O	1.756844	0.660747	0.487771
O17	O	0.990710	0.089408	0.002777
O18	O	1.240710	0.339408	0.252777
O19	O	1.490710	0.589408	0.502777
O20	O	1.740710	0.839408	0.752777
O21	O	0.873029	0.089386	-0.142751
O22	O	1.123029	0.339386	0.107249
O23	O	1.373029	0.589386	0.357249
O24	O	1.623029	0.839386	0.607249
O25	O	1.115676	0.089409	-0.127664
O26	O	1.365676	0.339409	0.122336
O27	O	1.615676	0.589409	0.372336
O28	O	1.865676	0.839409	0.622336
Cu29	Cu	0.993545	0.105709	-0.136208
Cu30	Cu	1.243545	0.355709	0.113792
Cu31	Cu	1.493545	0.605709	0.363792
Cu32	Cu	1.743545	0.855709	0.613792
Cu33	Cu	1.004010	-0.105554	-0.123244
Cu34	Cu	1.254010	0.144446	0.126756
Cu35	Cu	1.504010	0.394446	0.376756
Cu36	Cu	1.754010	0.644446	0.626756
O37	O	0.997995	0.089387	-0.273191
O38	O	1.247995	0.339387	-0.023191
O39	O	1.497995	0.589387	0.226809
O40	O	1.747995	0.839387	0.476809
C41	C	0.846212	0.000064	-0.136645
C42	C	1.096212	0.250064	0.113355
C43	C	1.346212	0.500064	0.363355
C44	C	1.596212	0.750064	0.613355
C45	C	0.753123	0.000055	-0.134775
C46	C	1.003123	0.250055	0.115225
C47	C	1.253123	0.500055	0.365225
C48	C	1.503123	0.750055	0.615225
N49	N	0.986190	0.254300	-0.145326
N50	N	1.236190	0.504300	0.104674
N51	N	1.486190	0.754300	0.354674
N52	N	1.736190	1.004300	0.604674
N53	N	1.011370	-0.254145	-0.114118
N54	N	1.261370	-0.004145	0.135882
N55	N	1.511370	0.245855	0.385882
N56	N	1.761370	0.495855	0.635882
C57	C	0.414873	0.000078	-0.128061
C58	C	0.664873	0.250078	0.121939
C59	C	0.914873	0.500078	0.371939
C60	C	1.164873	0.750078	0.621939
C61	C	0.454546	0.000484	-0.024443
C62	C	0.704546	0.250484	0.225557
C63	C	0.954546	0.500484	0.475557
C64	C	1.204546	0.750484	0.725557
C65	C	0.551396	0.000074	-0.026288
C66	C	0.801396	0.250074	0.223712
C67	C	1.051396	0.500074	0.473712
C68	C	1.301396	0.750074	0.723712
C69	C	0.582682	0.000067	-0.131391
C70	C	0.832682	0.250067	0.118609
C71	C	1.082682	0.500067	0.368609
C72	C	1.332682	0.750067	0.618609
C73	C	0.550467	-0.101944	-0.176251
C74	C	0.800467	0.148056	0.073749
C75	C	1.050467	0.398056	0.323749
C76	C	1.300467	0.648056	0.573749
C77	C	0.453640	-0.102022	-0.173643
C78	C	0.703640	0.147978	0.076357
C79	C	0.953640	0.397978	0.326357
C80	C	1.203640	0.647978	0.576357
C81	C	0.443398	0.101125	-0.188250
C82	C	0.693398	0.351125	0.061750
C83	C	0.943398	0.601125	0.311750
C84	C	1.193398	0.851125	0.561750
C85	C	0.540276	0.102466	-0.188308
C86	C	0.790276	0.352466	0.061692
C87	C	1.040276	0.602466	0.311692
C88	C	1.290276	0.852466	0.561692
C89	C	0.677521	0.000058	-0.133279
C90	C	0.927521	0.250058	0.116721
C91	C	1.177521	0.500058	0.366721
C92	C	1.427521	0.750058	0.616721
C93	C	0.320034	0.000081	-0.126176
C94	C	0.570034	0.250081	0.123824
C95	C	0.820034	0.500081	0.373824
C96	C	1.070034	0.750081	0.623824
C97	C	1.151342	0.000089	-0.122807
C98	C	1.401342	0.250089	0.127193
C99	C	1.651342	0.500089	0.377193
C100	C	1.901342	0.750089	0.627193
C101	C	1.244432	0.000090	-0.124677
C102	C	1.494432	0.250090	0.125323
C103	C	1.744432	0.500090	0.375323
C104	C	1.994432	0.750090	0.625323
C105	C	0.991946	0.000088	0.043572
C106	C	1.241946	0.250088	0.293572
C107	C	1.491946	0.500088	0.543572
C108	C	1.741946	0.750088	0.793572
C109	C	0.982435	0.000088	0.148798
C110	C	1.232435	0.250088	0.398798
C111	C	1.482435	0.500088	0.648798
C112	C	1.732435	0.750088	0.898798
C113	C	0.975372	0.473413	-0.158747
C114	C	1.225372	0.723413	0.091253
C115	C	1.475372	0.973413	0.341253
C116	C	1.725372	1.223413	0.591253
C117	C	1.022186	0.526749	-0.100701
C118	C	1.272186	0.776749	0.149299
C119	C	1.522186	1.026749	0.399299
C120	C	1.772186	1.276749	0.649299
C121	C	1.016166	0.648671	-0.108168
C122	C	1.266166	0.898671	0.141832
C123	C	1.516166	1.148671	0.391832
C124	C	1.766166	1.398671	0.641832
C125	C	0.981391	0.351480	-0.151281
C126	C	1.231391	0.601480	0.098719
C127	C	1.481391	0.851480	0.348719
C128	C	1.731391	1.101480	0.598719
C129	C	1.005609	0.000065	-0.303024
C130	C	1.255609	0.250065	-0.053024
C131	C	1.505609	0.500065	0.196976
C132	C	1.755609	0.750065	0.446976
C133	C	1.015120	0.000057	-0.408250
C134	C	1.265120	0.250057	-0.158250
C135	C	1.515120	0.500057	0.091750
C136	C	1.765120	0.750057	0.341750
C137	C	0.965048	0.000071	0.341460
C138	C	1.215048	0.250071	0.591460
C139	C	1.465048	0.500071	0.841460
C140	C	1.715048	0.750071	1.091460
C141	C	1.032504	0.000074	0.399093
C142	C	1.282504	0.250074	0.649093
C143	C	1.532504	0.500074	0.899093
C144	C	1.782504	0.750074	1.149093
C145	C	1.022829	0.000065	0.506297
C146	C	1.272829	0.250065	0.756297
C147	C	1.522829	0.500065	1.006297
C148	C	1.772829	0.750065	1.256297
C149	C	0.974721	0.000081	0.234246
C150	C	1.224721	0.250081	0.484246
C151	C	1.474721	0.500081	0.734246
C152	C	1.724721	0.750081	0.984246
H153	H	0.573201	0.073201	0.009407
H154	H	0.823201	0.323201	0.259407
H155	H	1.073201	0.573201	0.509407
H156	H	1.323201	0.823201	0.759407
H157	H	0.930777	0.519312	-0.214048
H158	H	1.180777	0.769312	0.035952
H159	H	1.430777	1.019312	0.285952
H160	H	1.680777	1.269312	0.535952
H161	H	1.097524	0.000008	0.367926
H162	H	1.347524	0.250008	0.617926
H163	H	1.597524	0.500008	0.867926
H164	H	1.847524	0.750008	1.117926
H165	H	0.429305	0.073642	0.012496
H166	H	0.679305	0.323642	0.262496
H167	H	0.929305	0.573642	0.512496
H168	H	1.179305	0.823642	0.762496
H169	H	0.435475	-0.072263	0.021259
H170	H	0.685475	0.177737	0.271259
H171	H	0.935475	0.427737	0.521259
H172	H	1.185475	0.677737	0.771259
H173	H	1.066785	0.480844	-0.045397
H174	H	1.316785	0.730844	0.204603
H175	H	1.566785	0.980844	0.454603
H176	H	1.816785	1.230844	0.704603
H177	H	0.436325	-0.178274	-0.131684
H178	H	0.686325	0.071726	0.118316
H179	H	0.936325	0.321726	0.368316
H180	H	1.186325	0.571726	0.618316
H181	H	0.579860	-0.073174	0.018662
H182	H	0.829860	0.176826	0.268662
H183	H	1.079860	0.426826	0.518662
H184	H	1.329860	0.676826	0.768662
H185	H	0.427305	-0.106656	-0.249451
H186	H	0.677305	0.143344	0.000549
H187	H	0.927305	0.393344	0.250549
H188	H	1.177305	0.643344	0.500549
H189	H	0.900036	0.000063	0.372630
H190	H	1.150036	0.250063	0.622630
H191	H	1.400036	0.500063	0.872630
H192	H	1.650036	0.750063	1.122630
H193	H	0.570547	-0.105743	-0.253235
H194	H	0.820547	0.144257	-0.003235
H195	H	1.070547	0.394257	0.246765
H196	H	1.320547	0.644257	0.496765
H197	H	0.416502	0.178448	-0.159112
H198	H	0.666502	0.428448	0.090888
H199	H	0.916502	0.678448	0.340888
H200	H	1.166502	0.928448	0.590888
H201	H	0.579949	-0.177859	-0.136087
H202	H	0.829949	0.072141	0.113913
H203	H	1.079949	0.322141	0.363913
H204	H	1.329949	0.572141	0.613913
H205	H	0.561067	0.177934	-0.155622
H206	H	0.811067	0.427934	0.094378
H207	H	1.061067	0.677934	0.344378
H208	H	1.311067	0.927934	0.594378
H209	H	0.561060	0.108623	-0.265331
H210	H	0.811060	0.358623	-0.015331
H211	H	1.061060	0.608623	0.234669
H212	H	1.311060	0.858623	0.484669
H213	H	0.417310	0.101810	-0.264707
H214	H	0.667310	0.351810	-0.014707
H215	H	0.917310	0.601810	0.235293
H216	H	1.167310	0.851810	0.485293
