data_functionalizedCrystal
_audit_creation_method	'MofGen! by Chris Wilmer'
_symmetry_space_group_name_H-M	'P1'
_symmetry_Int_Tables_number	1
_symmetry_cell_setting	triclinic
loop_
_symmetry_equiv_pos_as_xyz
  x,y,z
_cell_length_a	17.077404
_cell_length_b	12.759394
_cell_length_c	17.077396
_cell_angle_alpha	89.972850
_cell_angle_beta	89.982756
_cell_angle_gamma	90.015062
loop_
_atom_site_label
_atom_site_type_symbol
_atom_site_fract_x
_atom_site_fract_y
_atom_site_fract_z
Zn1	Zn	1.200081	-0.418252	-0.443855
Zn2	Zn	1.200012	-0.593955	-0.312593
Zn3	Zn	1.068818	-0.418291	-0.312602
Zn4	Zn	1.068799	-0.593890	-0.443817
O5	O	1.134428	-0.506097	-0.378217
O6	O	1.309919	-0.441570	-0.426454
O7	O	1.182587	-0.570696	-0.202748
O8	O	1.086267	-0.271265	-0.330033
O9	O	1.309868	-0.570658	-0.330017
O10	O	1.182706	-0.271236	-0.426463
O11	O	1.086200	-0.441637	-0.202754
O12	O	0.958969	-0.441574	-0.329996
O13	O	1.086235	-0.570547	-0.553669
O14	O	0.958955	-0.570586	-0.426399
O15	O	1.182687	-0.441507	-0.553697
O16	O	1.182569	-0.740967	-0.329981
O17	O	1.086168	-0.740920	-0.426391
C18	C	0.930480	-0.506078	-0.378195
C19	C	0.843230	-0.506095	-0.378205
C20	C	0.802253	-0.573373	-0.428321
C21	C	0.720273	-0.573375	-0.428334
C22	C	0.679270	-0.506104	-0.378225
C23	C	0.720253	-0.438819	-0.328107
C24	C	0.802232	-0.438812	-0.328099
C25	C	0.549383	-0.438839	-0.328125
C26	C	0.467398	-0.438847	-0.328132
C27	C	0.467424	-0.573402	-0.428360
C28	C	0.549403	-0.573396	-0.428352
C29	C	0.590379	-0.506112	-0.378233
C30	C	1.134380	-0.779064	-0.378198
C31	C	1.134432	-0.895841	-0.378216
C32	C	1.234890	-0.895837	-0.277900
C33	C	1.285139	-0.950696	-0.227751
C34	C	1.285185	-1.060418	-0.227773
C35	C	1.234978	-1.115283	-0.277950
C36	C	1.184729	-1.060424	-0.328099
C37	C	1.184687	-0.950700	-0.328070
C38	C	1.084276	-1.060428	-0.428417
C39	C	1.084225	-0.950706	-0.428393
C40	C	1.034069	-1.115293	-0.478594
C41	C	0.983814	-1.060434	-0.528740
C42	C	0.983770	-0.950706	-0.528716
C43	C	1.033975	-0.895847	-0.478542
C44	C	1.339172	-0.506117	-0.378239
C45	C	1.426422	-0.506125	-0.378249
C46	C	1.134467	-0.506015	-0.582961
C47	C	1.134484	-0.505981	-0.670211
C48	C	1.134496	-0.232063	-0.378253
C49	C	1.134525	-0.115287	-0.378269
C50	C	1.084310	-0.438771	-0.711204
C51	C	1.084323	-0.438748	-0.793185
C52	C	1.134514	-0.505928	-0.834171
C53	C	1.184690	-0.573145	-0.793172
C54	C	1.184672	-0.573174	-0.711193
C55	C	1.184724	-0.573079	-0.964042
C56	C	1.184742	-0.573050	-1.046027
C57	C	1.084374	-0.438654	-1.046034
C58	C	1.084357	-0.438682	-0.964055
C59	C	1.134534	-0.505897	-0.923062
C60	C	1.134433	-0.506102	-0.174269
C61	C	1.134569	-0.505841	-0.087020
H62	H	0.582784	-0.628179	-0.469151
H63	H	1.033939	-0.806506	-0.478512
C64	C	1.234837	-0.775140	-0.277865
N65	N	1.234798	-0.684230	-0.277837
C66	C	0.594456	-0.364826	-0.272989
N67	N	0.628404	-0.309085	-0.231457
C68	C	1.034119	-1.235990	-0.478615
N69	N	1.034153	-1.326900	-0.478628
C70	C	1.029146	-0.364778	-0.918972
N71	N	0.987558	-0.309114	-0.885015
H72	H	1.235027	-1.204624	-0.277970
C73	C	1.340363	-0.890337	-0.172557
N74	N	1.381956	-0.844876	-0.130984
H75	H	0.686862	-0.384041	-0.287311
H76	H	1.326107	-1.105084	-0.186941
C77	C	1.029095	-0.364866	-0.666127
N78	N	0.987502	-0.309202	-0.632177
C79	C	1.029174	-0.364722	-1.091128
N80	N	0.987600	-0.309037	-1.125096
C81	C	0.847306	-0.364803	-0.272965
N82	N	0.881255	-0.309056	-0.231438
H83	H	0.434017	-0.384057	-0.287339
C84	C	0.675202	-0.647406	-0.483451
N85	N	0.641255	-0.703176	-0.524962
C86	C	1.239722	-0.647283	-0.838259
N87	N	1.281112	-0.703208	-0.872218
C88	C	0.847348	-0.647378	-0.483445
N89	N	0.881311	-0.703118	-0.524968
H90	H	0.942943	-1.105114	-0.569594
H91	H	0.434056	-0.628184	-0.469172
H92	H	0.942854	-0.906045	-0.569557
H93	H	1.043464	-0.384023	-0.826557
H94	H	1.225612	-0.627755	-1.079395
H95	H	1.225590	-0.627804	-0.930668
H96	H	1.225535	-0.627894	-0.677817
