data_functionalizedCrystal
_audit_creation_method	'MofGen! by Chris Wilmer'
_symmetry_space_group_name_H-M	'P1'
_symmetry_Int_Tables_number	1
_symmetry_cell_setting	triclinic
loop_
_symmetry_equiv_pos_as_xyz
  x,y,z
_cell_length_a	11.792241
_cell_length_b	19.188924
_cell_length_c	17.666332
_cell_angle_alpha	90.007291
_cell_angle_beta	90.005047
_cell_angle_gamma	83.667690
loop_
_atom_site_label
_atom_site_type_symbol
_atom_site_fract_x
_atom_site_fract_y
_atom_site_fract_z
O1	O	1.505480	0.095695	0.062879
O2	O	1.838814	0.429028	0.396212
O3	O	2.172147	0.762362	0.729545
O4	O	1.174991	0.105557	0.062897
O5	O	1.508325	0.438891	0.396230
O6	O	1.841658	0.772224	0.729563
O7	O	1.349777	-0.000976	0.062878
O8	O	1.683110	0.332358	0.396212
O9	O	2.016444	0.665691	0.729545
O10	O	1.330695	0.202228	0.062897
O11	O	1.664028	0.535561	0.396230
O12	O	1.997361	0.868895	0.729564
O13	O	1.349746	-0.000979	-0.063019
O14	O	1.683080	0.332354	0.270315
O15	O	2.016413	0.665688	0.603648
O16	O	1.174961	0.105554	-0.063000
O17	O	1.508294	0.438887	0.270333
O18	O	1.841627	0.772221	0.603667
O19	O	1.505450	0.095692	-0.063018
O20	O	1.838783	0.429025	0.270315
O21	O	2.172116	0.762358	0.603649
Cu22	Cu	1.340202	0.100623	-0.074504
Cu23	Cu	1.673536	0.433956	0.258829
Cu24	Cu	2.006869	0.767289	0.592162
Cu25	Cu	1.340239	0.100626	0.074383
Cu26	Cu	1.673572	0.433960	0.407716
Cu27	Cu	2.006905	0.767293	0.741050
O28	O	1.330664	0.202225	-0.063000
O29	O	1.663997	0.535558	0.270334
O30	O	1.997331	0.868891	0.603667
C31	C	1.132694	0.104936	-0.000050
C32	C	1.466028	0.438270	0.333284
C33	C	1.799361	0.771603	0.666617
C34	C	1.006708	0.103082	-0.000043
C35	C	1.340042	0.436415	0.333290
C36	C	1.673375	0.769749	0.666624
C37	C	1.349145	-0.026992	-0.000071
C38	C	1.682478	0.306341	0.333263
C39	C	2.015812	0.639675	0.666596
C40	C	1.347294	-0.104507	-0.000073
C41	C	1.680627	0.228826	0.333261
C42	C	2.013961	0.562159	0.666594
C43	C	0.776047	0.099672	-0.000065
C44	C	1.109381	0.433006	0.333268
C45	C	1.442714	0.766339	0.666602
C46	C	0.904404	0.101567	-0.000053
C47	C	1.237738	0.434900	0.333280
C48	C	1.571071	0.768233	0.666614
C49	C	1.346447	-0.140909	0.068554
C50	C	1.679780	0.192424	0.401887
C51	C	2.013114	0.525757	0.735220
C52	C	1.344691	-0.213742	0.068560
C53	C	1.678025	0.119591	0.401893
C54	C	2.011358	0.452925	0.735226
C55	C	1.343806	-0.250172	-0.000065
C56	C	1.677139	0.083162	0.333268
C57	C	2.010473	0.416495	0.666602
C58	C	1.344647	-0.213760	-0.068701
C59	C	1.677980	0.119573	0.264633
C60	C	2.011314	0.452906	0.597966
C61	C	1.346391	-0.140928	-0.068704
C62	C	1.679724	0.192405	0.264629
C63	C	2.013058	0.525739	0.597962
N64	N	1.405641	-0.369486	-0.051144
N65	N	1.738975	-0.036152	0.282189
N66	N	2.072308	0.297181	0.615523
N67	N	1.403987	-0.438673	-0.051136
N68	N	1.737320	-0.105340	0.282198
N69	N	2.070654	0.227993	0.615531
C70	C	1.338549	-0.469610	-0.000057
C71	C	1.671882	-0.136277	0.333276
C72	C	2.005216	0.197056	0.666609
N73	N	1.274842	-0.428747	0.051024
N74	N	1.608175	-0.095414	0.384357
N75	N	1.941509	0.237919	0.717690
N76	N	1.276501	-0.359554	0.051018
N77	N	1.609835	-0.026220	0.384351
N78	N	1.943168	0.307113	0.717684
C79	C	1.341914	-0.329146	-0.000068
C80	C	1.675248	0.004188	0.333265
C81	C	2.008581	0.337521	0.666598
C82	C	1.335797	-0.584986	0.068580
C83	C	1.669130	-0.251652	0.401914
C84	C	2.002463	0.081681	0.735247
C85	C	1.334034	-0.657819	0.068583
C86	C	1.667367	-0.324486	0.401917
C87	C	2.000701	0.008847	0.735250
C88	C	1.334001	-0.657837	-0.068679
C89	C	1.667335	-0.324504	0.264654
C90	C	2.000668	0.008830	0.597988
C91	C	1.335752	-0.585004	-0.068680
C92	C	1.669086	-0.251671	0.264653
C93	C	2.002419	0.081663	0.597987
C94	C	1.336655	-0.548583	-0.000048
C95	C	1.669989	-0.215250	0.333285
C96	C	2.003322	0.118083	0.666618
C97	C	1.547747	0.096313	-0.000070
C98	C	1.881080	0.429646	0.333263
C99	C	2.214413	0.762979	0.666596
C100	C	1.673733	0.098167	-0.000072
C101	C	2.007066	0.431500	0.333261
C102	C	2.340399	0.764834	0.666595
C103	C	1.331296	0.228241	-0.000049
C104	C	1.664629	0.561574	0.333284
C105	C	1.997963	0.894908	0.666618
C106	C	1.333147	0.305756	-0.000042
C107	C	1.666480	0.639090	0.333291
C108	C	1.999814	0.972423	0.666625
N109	N	1.340185	0.100619	-0.179224
N110	N	1.673518	0.433953	0.154109
N111	N	2.006852	0.767286	0.487443
C112	C	1.408795	0.143254	-0.218827
C113	C	1.742129	0.476587	0.114506
C114	C	2.075462	0.809920	0.447840
C115	C	1.408813	0.143252	-0.298075
C116	C	1.742147	0.476585	0.035259
C117	C	2.075480	0.809918	0.368592
C118	C	1.340200	0.100624	-0.337716
C119	C	1.673534	0.433957	-0.004383
C120	C	2.006867	0.767290	0.328951
C121	C	1.271586	0.057981	-0.298103
C122	C	1.604919	0.391314	0.035230
C123	C	1.938252	0.724647	0.368563
C124	C	1.271578	0.057979	-0.218857
C125	C	1.604912	0.391312	0.114476
C126	C	1.938245	0.724645	0.447809
N127	N	1.240802	0.098340	-0.462150
N128	N	1.574135	0.431674	-0.128817
N129	N	1.907469	0.765007	0.204516
N130	N	1.240812	0.098346	-0.537431
N131	N	1.574145	0.431680	-0.204098
N132	N	1.907479	0.765013	0.129236
C133	C	1.340221	0.100626	-0.576480
C134	C	1.673554	0.433959	-0.243147
C135	C	2.006888	0.767293	0.090187
N136	N	1.439620	0.102913	-0.537405
N137	N	1.772954	0.436247	-0.204072
N138	N	2.106287	0.769580	0.129262
N139	N	1.439609	0.102911	-0.462117
N140	N	1.772942	0.436244	-0.128784
N141	N	2.106275	0.769578	0.204549
C142	C	1.340201	0.100621	-0.423645
C143	C	1.673535	0.433954	-0.090312
C144	C	2.006868	0.767287	0.243021
C145	C	1.408857	0.143260	-0.702013
C146	C	1.742190	0.476594	-0.368679
C147	C	2.075523	0.809927	-0.035346
C148	C	1.408877	0.143254	-0.781262
C149	C	1.742211	0.476587	-0.447928
C150	C	2.075544	0.809920	-0.114595
C151	C	1.271639	0.057987	-0.781289
C152	C	1.604972	0.391320	-0.447955
C153	C	1.938306	0.724653	-0.114622
C154	C	1.271629	0.057989	-0.702041
C155	C	1.604962	0.391323	-0.368708
C156	C	1.938296	0.724656	-0.035375
C157	C	1.340236	0.100630	-0.662408
C158	C	1.673569	0.433964	-0.329075
C159	C	2.006903	0.767297	0.004259
N160	N	1.340265	0.100624	0.179102
N161	N	1.673598	0.433957	0.512436
N162	N	2.006932	0.767291	0.845769
H163	H	1.347179	-0.111260	0.124439
H164	H	1.680512	0.222074	0.457772
H165	H	2.013845	0.555407	0.791106
Br166	Br	1.502009	0.201114	-0.835011
Br167	Br	1.835342	0.534447	-0.501678
Br168	Br	2.168676	0.867781	-0.168344
H169	H	1.215705	0.023260	-0.186613
H170	H	1.549039	0.356593	0.146721
H171	H	1.882372	0.689927	0.480054
Br172	Br	1.501989	0.201113	-0.648220
Br173	Br	1.835322	0.534446	-0.314887
Br174	Br	2.168655	0.867779	0.018447
H175	H	1.343994	-0.243386	0.124445
H176	H	1.677328	0.089948	0.457779
H177	H	2.010661	0.423281	0.791112
H178	H	1.464685	0.177971	-0.330326
H179	H	1.798018	0.511305	0.003007
H180	H	2.131351	0.844638	0.336341
H181	H	1.347076	-0.111290	-0.124590
H182	H	1.680409	0.222044	0.208743
H183	H	2.013743	0.555377	0.542076
Br184	Br	1.343431	-0.263197	-0.161835
Br185	Br	1.676764	0.070136	0.171498
Br186	Br	2.010098	0.403469	0.504832
Br187	Br	1.337016	-0.535553	0.161720
Br188	Br	1.670349	-0.202219	0.495054
Br189	Br	2.003683	0.131114	0.828387
Br190	Br	1.332872	-0.707223	0.161728
Br191	Br	1.666205	-0.373890	0.495061
Br192	Br	1.999538	-0.040556	0.828394
Br193	Br	1.332788	-0.707268	-0.161814
Br194	Br	1.666121	-0.373935	0.171519
Br195	Br	1.999455	-0.040602	0.504852
H196	H	1.215774	0.023277	-0.813564
H197	H	1.549108	0.356610	-0.480231
H198	H	1.882441	0.689944	-0.146897
Br199	Br	1.336897	-0.535597	-0.161821
Br200	Br	1.670230	-0.202264	0.171512
Br201	Br	2.003564	0.131069	0.504845
H202	H	1.464665	0.177972	-0.186563
H203	H	1.797998	0.511306	0.146771
H204	H	2.131332	0.844639	0.480104
H205	H	1.215722	0.023272	-0.330384
H206	H	1.549055	0.356605	0.002949
H207	H	1.882388	0.689939	0.336282
H208	H	1.215754	0.023275	-0.669796
H209	H	1.549088	0.356608	-0.336463
H210	H	1.882421	0.689942	-0.003129
