data_functionalizedCrystal
_audit_creation_method	'MofGen! by Chris Wilmer'
_symmetry_space_group_name_H-M	'P1'
_symmetry_Int_Tables_number	1
_symmetry_cell_setting	triclinic
loop_
_symmetry_equiv_pos_as_xyz
  x,y,z
_cell_length_a	19.077105
_cell_length_b	25.639239
_cell_length_c	25.639233
_cell_angle_alpha	90.018747
_cell_angle_beta	92.310062
_cell_angle_gamma	87.734929
loop_
_atom_site_label
_atom_site_type_symbol
_atom_site_fract_x
_atom_site_fract_y
_atom_site_fract_z
Zn1	Zn	1.075857	-0.240381	0.327689
Zn2	Zn	1.575857	0.259619	0.827689
Zn3	Zn	1.075754	-0.327797	0.240250
Zn4	Zn	1.575754	0.172203	0.740250
Zn5	Zn	0.958174	-0.236862	0.236758
Zn6	Zn	1.458174	0.263138	0.736758
Zn7	Zn	0.958100	-0.324267	0.324146
Zn8	Zn	1.458100	0.175733	0.824146
O9	O	1.016971	-0.282327	0.282211
O10	O	1.516971	0.217673	0.782211
O11	O	1.174333	-0.254928	0.319033
O12	O	1.674333	0.245072	0.819033
O13	O	1.060145	-0.315739	0.166621
O14	O	1.560145	0.184261	0.666621
O15	O	0.973859	-0.164166	0.248842
O16	O	1.473859	0.335834	0.748842
O17	O	1.174257	-0.319152	0.254793
O18	O	1.674257	0.180848	0.754793
O19	O	1.060320	-0.166752	0.315648
O20	O	1.560320	0.333248	0.815648
O21	O	0.973759	-0.248929	0.164056
O22	O	1.473759	0.251071	0.664056
O23	O	0.859674	-0.245506	0.245407
O24	O	1.359674	0.254494	0.745407
O25	O	0.973733	-0.313135	0.397782
O26	O	1.473733	0.186865	0.897782
O27	O	0.859620	-0.309722	0.309610
O28	O	1.359620	0.190278	0.809610
O29	O	1.060248	-0.251505	0.400384
O30	O	1.560248	0.248495	0.900384
O31	O	1.060073	-0.400492	0.251358
O32	O	1.560073	0.099508	0.751358
O33	O	0.973633	-0.397898	0.312996
O34	O	1.473633	0.102102	0.812996
C35	C	0.834110	-0.276850	0.276745
C36	C	1.334110	0.223150	0.776745
C37	C	0.755881	-0.274519	0.274420
C38	C	1.255881	0.225481	0.774420
C39	C	0.719119	-0.306908	0.306702
C40	C	1.219119	0.193092	0.806702
C41	C	0.645615	-0.304711	0.304519
C42	C	1.145615	0.195289	0.804519
C43	C	0.608874	-0.270128	0.270051
C44	C	1.108874	0.229872	0.770051
C45	C	0.645641	-0.237735	0.237768
C46	C	1.145641	0.262265	0.737768
C47	C	0.719144	-0.239929	0.239954
C48	C	1.219144	0.260071	0.739954
C49	C	0.389045	-0.259971	0.259938
C50	C	0.889045	0.240029	0.759938
C51	C	0.315537	-0.257780	0.257754
C52	C	0.815537	0.242220	0.757754
C53	C	0.315516	-0.324756	0.324506
C54	C	0.815516	0.175244	0.824506
C55	C	0.389020	-0.326950	0.326686
C56	C	0.889020	0.173050	0.826686
C57	C	0.425781	-0.294555	0.294405
C58	C	0.925781	0.205445	0.794405
N59	N	0.533741	-0.267882	0.267818
N60	N	1.033741	0.232118	0.767818
N61	N	0.500913	-0.296798	0.296641
N62	N	1.000913	0.203202	0.796641
C63	C	1.016853	-0.418166	0.282183
C64	C	1.516853	0.081834	0.782183
C65	C	1.016867	-0.476280	0.282191
C66	C	1.516867	0.023720	0.782191
C67	C	1.062098	-0.837988	0.250176
C68	C	1.562098	-0.337988	0.750176
C69	C	1.062125	-0.892593	0.250184
C70	C	1.562125	-0.392593	0.750184
O71	O	1.100460	-0.921969	0.222934
O72	O	1.600460	-0.421969	0.722934
N73	N	1.017095	-0.918570	0.282249
N74	N	1.517095	-0.418570	0.782249
C75	C	0.972039	-0.889938	0.314312
C76	C	1.472039	-0.389938	0.814312
O77	O	0.933741	-0.917047	0.341587
O78	O	1.433741	-0.417047	0.841587
C79	C	0.972016	-0.835334	0.314307
C80	C	1.472016	-0.335334	0.814307
C81	C	1.017044	-0.809361	0.282236
C82	C	1.517044	-0.309361	0.782236
C83	C	1.107123	-0.812014	0.218108
C84	C	1.607123	-0.312014	0.718108
C85	C	1.107095	-0.757413	0.218100
C86	C	1.607095	-0.257413	0.718100
C87	C	1.062041	-0.728785	0.250159
C88	C	1.562041	-0.228785	0.750159
C89	C	1.017016	-0.754759	0.282227
C90	C	1.517016	-0.254759	0.782227
C91	C	0.926965	-0.806704	0.346372
C92	C	1.426965	-0.306704	0.846372
C93	C	0.926946	-0.752096	0.346365
C94	C	1.426946	-0.252096	0.846365
C95	C	0.971974	-0.726123	0.314293
C96	C	1.471974	-0.226123	0.814293
C97	C	0.971934	-0.671530	0.314279
C98	C	1.471934	-0.171530	0.814279
N99	N	1.016964	-0.645554	0.282214
N100	N	1.516964	-0.145554	0.782214
C101	C	1.062018	-0.674181	0.250154
C102	C	1.562018	-0.174181	0.750154
C103	C	0.972092	-1.004610	0.314322
C104	C	1.472092	-0.504610	0.814322
C105	C	0.972112	-1.059213	0.314325
C106	C	1.472112	-0.559213	0.814325
C107	C	1.062198	-1.061864	0.250197
C108	C	1.562198	-0.561864	0.750197
C109	C	1.062175	-1.007260	0.250192
C110	C	1.562175	-0.507260	0.750192
C111	C	1.017123	-0.978634	0.282257
C112	C	1.517123	-0.478634	0.782257
C113	C	1.061954	-0.559514	0.250138
C114	C	1.561954	-0.059514	0.750138
C115	C	1.061920	-0.504908	0.250131
C116	C	1.561920	-0.004908	0.750131
C117	C	0.971836	-0.502262	0.314261
C118	C	1.471836	-0.002262	0.814261
C119	C	0.971868	-0.556863	0.314266
C120	C	1.471868	-0.056863	0.814266
C121	C	1.016932	-0.585488	0.282203
C122	C	1.516932	-0.085488	0.782203
O123	O	0.933621	-0.642120	0.341516
O124	O	1.433621	-0.142120	0.841516
O125	O	1.100317	-0.647066	0.222889
O126	O	1.600317	-0.147066	0.722889
C127	C	1.200546	-0.287826	0.287698
C128	C	1.700546	0.212174	0.787698
C129	C	1.278775	-0.290169	0.290036
C130	C	1.778775	0.209831	0.790036
C131	C	1.016994	-0.282318	0.418584
C132	C	1.516994	0.217682	0.918584
C133	C	1.017004	-0.282315	0.476699
C134	C	1.517004	0.217685	0.976699
C135	C	1.017109	-0.145958	0.282250
C136	C	1.517109	0.354042	0.782250
C137	C	1.017168	-0.087846	0.282267
C138	C	1.517168	0.412154	0.782267
C139	C	1.016989	-0.282299	0.146369
C140	C	1.516989	0.217701	0.646369
C141	C	1.017116	-0.282159	0.088259
C142	C	1.517116	0.217841	0.588259
C143	C	1.062109	-0.250126	0.838424
C144	C	1.562109	0.249874	1.338424
C145	C	1.062118	-0.250112	0.893029
C146	C	1.562118	0.249888	1.393029
O147	O	1.100412	-0.222804	0.922423
O148	O	1.600412	0.277196	1.422423
N149	N	1.017081	-0.282195	0.918984
N150	N	1.517081	0.217805	1.418984
C151	C	0.972028	-0.314289	0.890331
C152	C	1.472028	0.185711	1.390331
O153	O	0.933720	-0.341576	0.917421
O154	O	1.433720	0.158424	1.417421
C155	C	0.972016	-0.314300	0.835727
C156	C	1.472016	0.185700	1.335727
C157	C	1.017061	-0.282220	0.809775
C158	C	1.517061	0.217780	1.309775
C159	C	1.107150	-0.218048	0.812473
C160	C	1.607150	0.281952	1.312473
C161	C	1.107142	-0.218063	0.757872
C162	C	1.607142	0.281937	1.257872
C163	C	1.062093	-0.250156	0.729223
C164	C	1.562093	0.249844	1.229223
C165	C	1.017053	-0.282235	0.755175
C166	C	1.517053	0.217765	1.255175
C167	C	0.926959	-0.346392	0.807075
C168	C	1.426959	0.153608	1.307075
C169	C	0.926951	-0.346400	0.752468
C170	C	1.426951	0.153600	1.252468
C171	C	0.971996	-0.314320	0.726516
C172	C	1.471996	0.185680	1.226516
C173	C	0.971996	-0.314343	0.671925
C174	C	1.471996	0.185657	1.171925
N175	N	1.017033	-0.282261	0.645970
N176	N	1.517033	0.217739	1.145970
C177	C	1.062082	-0.250167	0.674619
C178	C	1.562082	0.249833	1.174619
C179	C	0.972055	-0.314263	1.005002
C180	C	1.472055	0.185737	1.505002
C181	C	0.972069	-0.314255	1.059605
C182	C	1.472069	0.185745	1.559605
C183	C	1.062159	-0.250077	1.062300
C184	C	1.562159	0.249923	1.562300
C185	C	1.062148	-0.250088	1.007696
C186	C	1.562148	0.249912	1.507696
C187	C	1.017092	-0.282181	0.979048
C188	C	1.517092	0.217819	1.479048
C189	C	1.062062	-0.250202	0.559953
C190	C	1.562062	0.249798	1.059953
C191	C	1.062052	-0.250221	0.505348
C192	C	1.562052	0.249779	1.005348
C193	C	0.971960	-0.314397	0.502658
C194	C	1.471960	0.185603	1.002658
C195	C	0.971972	-0.314380	0.557259
C196	C	1.471972	0.185620	1.057259
C197	C	1.017026	-0.282278	0.585905
C198	C	1.517026	0.217722	1.085905
O199	O	0.933720	-0.341636	0.642497
O200	O	1.433720	0.158364	1.142497
O201	O	1.100376	-0.222880	0.647522
O202	O	1.600376	0.277120	1.147522
H203	H	1.098587	-0.483762	0.224013
H204	H	1.598587	0.016238	0.724013
C205	C	0.877413	-0.381683	0.835612
C206	C	1.377413	0.118317	1.335612
H207	H	0.883869	-0.377089	0.872237
H208	H	1.383869	0.122911	1.372237
H209	H	0.830132	-0.372617	0.825249
H210	H	1.330132	0.127383	1.325249
H211	H	0.887684	-0.417122	0.826962
H212	H	1.387684	0.082878	1.326962
H213	H	1.098652	-0.582815	0.224031
H214	H	1.598652	-0.082815	0.724031
C215	C	1.156716	-0.182750	0.843981
C216	C	1.656716	0.317250	1.343981
H217	H	1.150280	-0.187331	0.880220
H218	H	1.650280	0.312669	1.380220
H219	H	1.203989	-0.191828	0.836435
H220	H	1.703989	0.308172	1.336435
H221	H	1.146452	-0.147312	0.834730
H222	H	1.646452	0.352688	1.334730
H223	H	0.285624	-0.229612	0.229689
H224	H	0.785624	0.270388	0.729689
C225	C	1.111599	-0.214928	0.476804
C226	C	1.611599	0.285072	0.976804
H227	H	1.138423	-0.195809	0.501690
H228	H	1.638423	0.304191	1.001690
H229	H	1.142244	-0.235849	0.456417
H230	H	1.642244	0.264151	0.956417
H231	H	1.084691	-0.191344	0.454702
H232	H	1.584691	0.308656	0.954702
C233	C	0.605177	-0.340340	0.340027
C234	C	1.105177	0.159660	0.840027
H235	H	0.556139	-0.334076	0.333795
H236	H	1.056139	0.165924	0.833795
H237	H	0.617189	-0.375816	0.332668
H238	H	1.117189	0.124184	0.832668
H239	H	0.617247	-0.333099	0.375532
H240	H	1.117247	0.166901	0.875532
C241	C	1.111755	-1.093362	0.214930
C242	C	1.611755	-0.593362	0.714930
H243	H	1.105320	-1.129601	0.219532
H244	H	1.605320	-0.629601	0.719532
H245	H	1.101482	-1.084130	0.179487
H246	H	1.601482	-0.584130	0.679487
H247	H	1.159037	-1.085792	0.224023
H248	H	1.659037	-0.585792	0.724023
C249	C	0.429430	-0.364989	0.364604
C250	C	0.929430	0.135011	0.864604
H251	H	0.397008	-0.383961	0.383522
H252	H	0.897008	0.116039	0.883522
H253	H	0.458078	-0.388595	0.345416
H254	H	0.958078	0.111405	0.845416
H255	H	0.458128	-0.345874	0.388276
H256	H	0.958128	0.154126	0.888276
C257	C	1.111714	-0.214776	1.093821
C258	C	1.611714	0.285224	1.593821
H259	H	1.105263	-0.219364	1.130056
H260	H	1.605263	0.280636	1.630056
H261	H	1.158994	-0.223846	1.086285
H262	H	1.658994	0.276154	1.586285
H263	H	1.101447	-0.179337	1.084572
H264	H	1.601447	0.320663	1.584572
H265	H	0.285578	-0.351130	0.350788
H266	H	0.785578	0.148870	0.850788
H267	H	0.418967	-0.233597	0.233648
H268	H	0.918967	0.266403	0.733648
H269	H	0.615721	-0.209574	0.209706
H270	H	1.115721	0.290426	0.709706
H271	H	0.935300	-0.340508	0.578390
H272	H	1.435300	0.159492	1.078390
H273	H	1.143762	-0.736268	0.191986
H274	H	1.643762	-0.236268	0.691986
C275	C	0.922284	-0.470765	0.349526
C276	C	1.422284	0.029235	0.849526
H277	H	0.928727	-0.434525	0.344930
H278	H	1.428727	0.065475	0.844930
H279	H	0.875004	-0.478335	0.340440
H280	H	1.375004	0.021665	0.840440
H281	H	0.932567	-0.479996	0.384972
H282	H	1.432567	0.020004	0.884972
H283	H	1.143815	-0.835317	0.192001
H284	H	1.643815	-0.335317	0.692001
H285	H	0.935399	-0.981305	0.340431
H286	H	1.435399	-0.481305	0.840431
H287	H	0.749075	-0.213552	0.213669
H288	H	1.249075	0.286448	0.713669
H289	H	0.935397	-0.340384	1.080730
H290	H	1.435397	0.159616	1.580730
H291	H	0.935285	-0.340529	0.479322
H292	H	1.435285	0.159471	0.979322
C293	C	0.877391	-0.381703	0.720955
C294	C	1.377391	0.118297	1.220955
H295	H	0.883829	-0.377116	0.684718
H296	H	1.383829	0.122884	1.184718
H297	H	0.887653	-0.417137	0.730210
H298	H	1.387653	0.082863	1.230210
H299	H	0.830110	-0.372626	0.728493
H300	H	1.330110	0.127374	1.228493
C301	C	1.156685	-0.182769	0.729332
C302	C	1.656685	0.317231	1.229332
H303	H	1.183507	-0.163652	0.754221
H304	H	1.683507	0.336348	1.254221
H305	H	1.187332	-0.203686	0.708943
H306	H	1.687332	0.296314	1.208943
H307	H	1.129777	-0.159183	0.707232
H308	H	1.629777	0.340817	1.207232
H309	H	1.098841	-0.986116	0.224077
H310	H	1.598841	-0.486116	0.724077
C311	C	0.922576	-1.087778	0.349600
C312	C	1.422576	-0.587778	0.849600
H313	H	0.895746	-1.062904	0.368693
H314	H	1.395746	-0.562904	0.868693
H315	H	0.891937	-1.108197	0.328671
H316	H	1.391937	-0.608197	0.828671
H317	H	0.949492	-1.109850	0.373208
H318	H	1.449492	-0.609850	0.873208
H319	H	0.749029	-0.335072	0.334768
H320	H	1.249029	0.164928	0.834768
C321	C	1.111689	-0.214794	0.979154
C322	C	1.611689	0.285206	1.479154
H323	H	1.138514	-0.195678	1.004041
H324	H	1.638514	0.304322	1.504041
H325	H	1.142332	-0.235711	0.958763
H326	H	1.642332	0.264289	1.458763
H327	H	1.084778	-0.191207	0.957056
H328	H	1.584778	0.308793	1.457056
H329	H	0.890295	-0.827842	0.372486
H330	H	1.390295	-0.327842	0.872486
H331	H	0.890259	-0.728791	0.372478
H332	H	1.390259	-0.228791	0.872478
H333	H	0.935204	-0.578012	0.340383
H334	H	1.435204	-0.078012	0.840383
C335	C	1.111625	-0.214895	0.591457
C336	C	1.611625	0.285105	1.091457
H337	H	1.138450	-0.195799	0.568175
H338	H	1.638450	0.304201	1.068175
H339	H	1.084737	-0.191299	0.611957
H340	H	1.584737	0.308701	1.111957
H341	H	1.142278	-0.235812	0.613670
H342	H	1.642278	0.264188	1.113670
H343	H	0.935364	-0.340399	0.981680
H344	H	1.435364	0.159601	1.481680
