data_functionalizedCrystal
_audit_creation_method	'MofGen! by Chris Wilmer'
_symmetry_space_group_name_H-M	'P1'
_symmetry_Int_Tables_number	1
_symmetry_cell_setting	triclinic
loop_
_symmetry_equiv_pos_as_xyz
  x,y,z
_cell_length_a	29.917948
_cell_length_b	29.917021
_cell_length_c	29.913391
_cell_angle_alpha	60.005297
_cell_angle_beta	60.010472
_cell_angle_gamma	59.993667
loop_
_atom_site_label
_atom_site_type_symbol
_atom_site_fract_x
_atom_site_fract_y
_atom_site_fract_z
O1	O	0.061938	-0.653075	0.546110
O2	O	0.023328	-0.508466	0.440017
O3	O	0.114898	-0.599963	0.439941
O4	O	-0.029633	-0.561578	0.546186
O5	O	0.145278	-0.569587	0.470242
O6	O	0.053708	-0.478090	0.470318
O7	O	0.092318	-0.622699	0.576411
Zn8	Zn	0.077836	-0.545572	0.528175
Zn9	Zn	0.037809	-0.585593	0.488253
O10	O	0.000747	-0.531202	0.576487
N11	N	0.105154	-0.518262	0.555424
N12	N	0.010496	-0.612908	0.461004
C13	C	0.164136	-0.309209	0.614352
C14	C	0.164251	-0.459335	0.764424
C15	C	0.164150	-0.459313	0.614341
C16	C	0.314282	-0.459305	0.614278
C17	C	0.180666	-0.358742	0.630849
C18	C	0.180732	-0.442815	0.714891
C19	C	0.264747	-0.442797	0.630809
C20	C	0.180676	-0.442802	0.630843
C21	C	0.143097	-0.246161	0.593354
C22	C	0.143120	-0.480326	0.593337
C23	C	0.201706	-0.421790	0.651848
C24	C	0.405963	-0.443499	0.565998
C25	C	0.463273	-0.462598	0.546874
C26	C	0.463297	-0.555329	0.582235
C27	C	0.405988	-0.536228	0.601360
C28	C	0.156905	-0.217495	0.537012
C29	C	0.137776	-0.160180	0.517926
C30	C	0.091035	-0.160201	0.611524
C31	C	0.110164	-0.217516	0.630611
C32	C	0.086772	-0.466488	0.607209
C33	C	0.067659	-0.485590	0.588108
C34	C	0.161236	-0.532368	0.541277
C35	C	0.180352	-0.513266	0.560371
C36	C	0.086942	-0.466529	0.856152
C37	C	0.067877	-0.485647	0.913465
C38	C	0.161489	-0.532436	0.913415
C39	C	0.180552	-0.513318	0.856101
C40	C	0.143277	-0.480363	0.827471
C41	C	0.377323	-0.480313	0.593239
C42	C	-0.111377	-0.650681	0.422736
C43	C	-0.027364	-0.650787	0.422929
C44	C	-0.048335	-0.671770	0.401835
C45	C	-0.064214	-0.763416	0.450041
C46	C	-0.045160	-0.820731	0.469172
C47	C	0.047573	-0.820841	0.433980
C48	C	0.028517	-0.763527	0.414847
C49	C	-0.140115	-0.664483	0.479060
C50	C	-0.197425	-0.645309	0.498058
C51	C	-0.197256	-0.598535	0.404405
C52	C	-0.139946	-0.617709	0.385407
C53	C	-0.041168	-0.594444	0.409067
C54	C	-0.022104	-0.575374	0.428250
C55	C	0.024568	-0.668986	0.475143
C56	C	0.005504	-0.688059	0.455967
C57	C	-0.041000	-0.594453	0.310105
C58	C	-0.021803	-0.575386	0.252792
C59	C	0.024951	-0.669004	0.252854
C60	C	0.005755	-0.688070	0.310168
C61	C	-0.027222	-0.650793	0.338792
C62	C	-0.027377	-0.734817	0.422881
N63	N	0.491125	-0.518235	0.555255
O64	O	0.678406	-0.527360	0.420422
O65	O	0.678588	-0.633782	0.564887
O66	O	0.678516	-0.633539	0.473265
O67	O	0.678478	-0.527602	0.512044
O68	O	0.587469	-0.603251	0.503685
O69	O	0.587541	-0.603493	0.595307
O70	O	0.587359	-0.497071	0.450842
Zn71	Zn	0.572994	-0.545473	0.527905
Zn72	Zn	0.692953	-0.585380	0.487825
O73	O	0.587431	-0.497313	0.542465
N74	N	0.774821	-0.612618	0.460470
N75	N	0.105125	-0.132348	0.555445
O76	O	-0.029633	0.055031	0.546198
O77	O	0.114837	0.055047	0.439777
O78	O	0.023189	0.055024	0.440050
O79	O	0.062016	0.055054	0.545925
O80	O	0.053572	-0.036031	0.470398
O81	O	0.145220	-0.036008	0.470125
O82	O	0.000750	-0.036024	0.576546
Zn83	Zn	0.077809	-0.050473	0.528154
Zn84	Zn	0.037778	0.069496	0.488169
O85	O	0.092399	-0.036001	0.576273
N86	N	0.010456	0.151371	0.460879
N87	N	0.105414	-0.518315	0.941279
O88	O	0.096182	-0.653057	1.128644
O89	O	-0.010215	-0.508539	1.128670
O90	O	-0.009968	-0.600172	1.128636
O91	O	0.095935	-0.561424	1.128678
O92	O	0.020367	-0.569808	1.037586
O93	O	0.020121	-0.478175	1.037620
O94	O	0.126517	-0.622693	1.037594
Zn95	Zn	0.078135	-0.545613	1.023151
Zn96	Zn	0.038167	-0.585619	1.143113
O97	O	0.126270	-0.531061	1.037628
N98	N	0.010887	-0.612923	1.224985
C99	C	0.034899	-0.475056	0.440551
C100	C	0.148298	-0.588365	0.440456
C101	C	0.080746	-0.656109	0.575876
C102	C	-0.032653	-0.542801	0.575971
C103	C	0.633086	-0.633292	0.598298
C104	C	0.632998	-0.632993	0.484834
C105	C	0.632857	-0.497559	0.417433
C106	C	0.632949	-0.497860	0.530895
C107	C	0.148191	0.009634	0.440259
C108	C	0.034733	0.009493	0.440634
C109	C	-0.032641	0.009502	0.576027
C110	C	0.080854	0.009529	0.575690
C111	C	-0.009699	-0.475150	1.083148
C112	C	-0.009388	-0.588620	1.083088
C113	C	0.126001	-0.656082	1.083116
C114	C	0.125697	-0.542605	1.083155
H115	H	0.056584	-0.439691	0.832846
O116	O	0.012918	-0.472220	0.601675
C117	C	-0.010845	-0.491831	0.659081
H118	H	0.021811	-0.527178	0.677532
H119	H	-0.028938	-0.457455	0.676071
C120	C	-0.096584	-0.468527	0.651255
C121	C	-0.056475	-0.511944	0.673916
H122	H	-0.124732	-0.480931	0.660406
H123	H	-0.080575	-0.455312	0.612579
H124	H	-0.111655	-0.439884	0.665415
H125	H	-0.041400	-0.540582	0.659750
H126	H	-0.072483	-0.525163	0.712590
O127	O	-0.081016	-0.848427	0.495530
C128	C	-0.107825	-0.834418	0.460418
H129	H	-0.106418	-0.792846	0.427751
H130	H	-0.086463	-0.866720	0.439954
C131	C	-0.169593	-0.882696	0.533955
C132	C	-0.167869	-0.831634	0.493836
H133	H	-0.206630	-0.880981	0.554569
H134	H	-0.151531	-0.892136	0.557611
H135	H	-0.151789	-0.909609	0.516896
H136	H	-0.185666	-0.804724	0.510896
H137	H	-0.185936	-0.822189	0.470184
H138	H	0.026418	0.009490	0.407371
H139	H	0.633132	-0.666701	0.639790
O140	O	0.197777	-0.598127	0.400601
C141	C	0.190576	-0.591980	0.354475
H142	H	0.150472	-0.597998	0.367660
H143	H	0.189363	-0.549184	0.323523
C144	C	0.287781	-0.627557	0.311893
C145	C	0.238526	-0.634952	0.328089
H146	H	0.317359	-0.654062	0.295615
H147	H	0.292633	-0.631697	0.342968
H148	H	0.286762	-0.591892	0.286103
H149	H	0.239542	-0.670614	0.353884
H150	H	0.233675	-0.630819	0.297017
H151	H	-0.042644	-0.596897	1.083039
H152	H	-0.043102	-0.433644	1.083156
H153	H	0.088995	-0.697649	0.609197
O154	O	-0.082152	-0.533144	0.615828
C155	C	-0.082191	-0.580223	0.663003
H156	H	-0.049794	-0.617797	0.650935
H157	H	-0.072634	-0.575825	0.692747
C158	C	-0.178696	-0.540686	0.705480
C159	C	-0.138909	-0.586835	0.690657
H160	H	-0.213682	-0.544764	0.722541
H161	H	-0.178670	-0.508967	0.673698
H162	H	-0.170725	-0.537026	0.730265
H163	H	-0.146876	-0.590491	0.665868
H164	H	-0.138937	-0.618556	0.722436
O165	O	0.632990	-0.672629	0.474856
C166	C	0.632949	-0.652689	0.421047
H167	H	0.615671	-0.606056	0.406660
H168	H	0.676617	-0.666508	0.392697
C169	C	0.618474	-0.732509	0.437668
C170	C	0.597249	-0.675233	0.420000
H171	H	0.596455	-0.746417	0.437021
H172	H	0.618504	-0.745944	0.473920
H173	H	0.654864	-0.744018	0.414041
H174	H	0.560862	-0.663725	0.443631
H175	H	0.597212	-0.661796	0.383752
H176	H	-0.074131	0.009496	0.609437
H177	H	0.632798	-0.464146	0.375944
O178	O	0.165377	-0.532778	1.083258
C179	C	0.180131	-0.570321	1.130403
H180	H	0.145065	-0.586366	1.163360
H181	H	0.218253	-0.605963	1.119734
C182	C	0.235188	-0.521800	1.111318
C183	C	0.192117	-0.541504	1.151798
H184	H	0.242585	-0.504026	1.124514
H185	H	0.225250	-0.496508	1.079554
H186	H	0.266952	-0.551506	1.102430
H187	H	0.160354	-0.511797	1.160679
H188	H	0.202050	-0.566791	1.183563
O189	O	0.013133	-0.472127	0.941236
C190	C	-0.015674	-0.438950	0.903672
H191	H	0.011640	-0.418110	0.862813
H192	H	-0.028039	-0.465386	0.897580
C193	C	-0.100881	-0.420747	0.976247
C194	C	-0.067335	-0.395147	0.926064
H195	H	-0.132749	-0.393729	0.990059
H196	H	-0.081474	-0.443101	1.001555
H197	H	-0.111179	-0.442777	0.971163
H198	H	-0.057032	-0.373124	0.931150
H199	H	-0.086741	-0.372789	0.900758
O200	O	0.090869	0.009504	0.615324
C201	C	0.144679	0.009523	0.595367
H202	H	0.170564	-0.007708	0.560219
H203	H	0.143865	0.053208	0.580100
C204	C	0.137799	-0.005025	0.684839
C205	C	0.169593	-0.026194	0.641673
H206	H	0.153167	-0.027055	0.713403
H207	H	0.101546	-0.005036	0.698285
H208	H	0.137123	0.031378	0.672109
H209	H	0.170263	-0.062594	0.654402
H210	H	0.205847	-0.026189	0.628231
H211	H	0.632941	-0.464583	0.539193
O212	O	0.025005	-0.425525	0.400781
C213	C	-0.019331	-0.415751	0.388194
H214	H	-0.023683	-0.456417	0.400272
H215	H	-0.058574	-0.389386	0.411755
C216	C	-0.003524	-0.335808	0.311469
C217	C	-0.008867	-0.385755	0.326299
H218	H	0.002928	-0.317303	0.273289
H219	H	0.026344	-0.342391	0.319950
H220	H	-0.036229	-0.313844	0.331107
H221	H	0.023840	-0.407721	0.306665
H222	H	-0.038730	-0.379174	0.317813
O223	O	0.165787	-0.705634	1.083129
C224	C	0.146088	-0.739694	1.083095
H225	H	0.099456	-0.724864	1.100332
H226	H	0.159998	-0.738206	1.039407
C227	C	0.226044	-0.817157	1.097617
C228	C	0.168770	-0.798945	1.118793
H229	H	0.240037	-0.853707	1.119635
H230	H	0.239317	-0.794211	1.097638
H231	H	0.237628	-0.815913	1.061211
H232	H	0.157187	-0.800184	1.155195
H233	H	0.155496	-0.821894	1.118778
O234	O	0.197633	0.009868	0.400368
C235	C	0.239110	-0.037186	0.418858
H236	H	0.224205	-0.053085	0.465521
H237	H	0.249482	-0.070157	0.403188
C238	C	0.308847	-0.003044	0.339877
C239	C	0.290542	-0.022568	0.397189
H240	H	0.340574	0.005972	0.326509
H241	H	0.280903	0.028657	0.327418
H242	H	0.317486	-0.030523	0.326826
H243	H	0.281897	0.004913	0.410239
H244	H	0.318486	-0.054264	0.409650
O245	O	0.197772	-0.564459	0.941142
C246	C	0.251584	-0.572559	0.903537
H247	H	0.251453	-0.566142	0.862687
H248	H	0.268002	-0.542057	0.897443
C249	C	0.288527	-0.639161	0.976048
C250	C	0.288366	-0.631284	0.925876
H251	H	0.311217	-0.675384	0.989828
H252	H	0.252273	-0.633702	1.001383
H253	H	0.302207	-0.613738	0.970962
H254	H	0.274680	-0.656701	0.930964
H255	H	0.324619	-0.636748	0.900542
H256	H	0.056452	-0.439666	0.634048
O257	O	0.235275	-0.526823	0.828218
C258	C	0.249107	-0.555658	0.795051
H259	H	0.216805	-0.575056	0.812333
H260	H	0.250982	-0.526181	0.751622
C261	C	0.344995	-0.576946	0.772917
C262	C	0.305323	-0.600775	0.794146
H263	H	0.379672	-0.604775	0.772356
H264	H	0.335676	-0.557518	0.795260
H265	H	0.346550	-0.552382	0.736728
H266	H	0.303763	-0.625333	0.830336
H267	H	0.314643	-0.620208	0.771809
H268	H	-0.067855	-0.564093	0.333408
H269	H	0.226235	-0.524529	0.549071
O270	O	0.197481	-0.564346	0.509242
C271	C	0.251313	-0.572475	0.501111
H272	H	0.251213	-0.537924	0.507517
H273	H	0.267758	-0.613308	0.531602
C274	C	0.288162	-0.615307	0.434520
C275	C	0.288039	-0.572868	0.442383
H276	H	0.310817	-0.615552	0.398295
H277	H	0.251894	-0.609832	0.439999
H278	H	0.301864	-0.649330	0.459933
H279	H	0.274330	-0.538846	0.416975
H280	H	0.324305	-0.578338	0.436898
H281	H	0.382671	-0.566208	0.623544
H282	H	0.486634	-0.600858	0.588843
H283	H	0.382624	-0.397967	0.559385
O284	O	0.491014	-0.426760	0.520398
C285	C	0.453425	-0.373312	0.517343
H286	H	0.412564	-0.371080	0.521117
H287	H	0.447355	-0.362613	0.552061
C288	C	0.525948	-0.335137	0.457371
C289	C	0.475763	-0.332395	0.462002
H290	H	0.539728	-0.309897	0.423236
H291	H	0.551273	-0.371146	0.459431
H292	H	0.520883	-0.326223	0.486306
H293	H	0.480830	-0.341316	0.433071
H294	H	0.450440	-0.296386	0.459936
H295	H	0.149018	-0.136838	0.472047
O296	O	0.188813	-0.245294	0.500798
C297	C	0.159849	-0.231277	0.467675
H298	H	0.114003	-0.215532	0.489825
H299	H	0.172022	-0.198000	0.427410
C300	C	0.230007	-0.301526	0.428758
C301	C	0.173698	-0.282192	0.455965
H302	H	0.238551	-0.332931	0.421532
H303	H	0.249522	-0.310968	0.451072
H304	H	0.240144	-0.273790	0.395206
H305	H	0.163563	-0.309925	0.489519
H306	H	0.154182	-0.272756	0.433656
O307	O	0.059035	-0.132457	0.647789
C308	C	0.050969	-0.170051	0.701612
H309	H	0.057377	-0.210907	0.701508
H310	H	0.081493	-0.176143	0.718010
C311	C	-0.015601	-0.097518	0.738525
C312	C	-0.007735	-0.147697	0.738397
H313	H	-0.051812	-0.083729	0.761216
H314	H	-0.010166	-0.072190	0.702263
H315	H	0.009839	-0.102602	0.752188
H316	H	-0.033171	-0.142611	0.724727
H317	H	-0.013177	-0.173024	0.774657
H318	H	-0.033030	-0.529506	0.229442
O319	O	0.096816	-0.245445	0.685323
C320	C	0.120788	-0.302176	0.694185
H321	H	0.129375	-0.310007	0.656596
H322	H	0.160799	-0.318412	0.701758
C323	C	0.070778	-0.322015	0.790576
C324	C	0.081321	-0.331634	0.744411
H325	H	0.046435	-0.340188	0.821559
H326	H	0.054629	-0.283795	0.784607
H327	H	0.104124	-0.335546	0.796880
H328	H	0.047977	-0.318098	0.738104
H329	H	0.097464	-0.369853	0.750380
O330	O	0.056912	-0.705270	0.225113
C331	C	0.027948	-0.738343	0.239042
H332	H	-0.005466	-0.738855	0.280615
H333	H	0.008565	-0.721089	0.206720
C334	C	0.108670	-0.796458	0.190701
C335	C	0.067634	-0.797090	0.241764
H336	H	0.133150	-0.832696	0.192378
H337	H	0.128183	-0.774175	0.181315
H338	H	0.092511	-0.782077	0.163771
H339	H	0.083792	-0.811464	0.268691
H340	H	0.048124	-0.819377	0.251154
H341	H	0.016979	-0.733950	0.333522
O342	O	-0.073111	-0.558164	0.377003
C343	C	-0.081197	-0.504345	0.368876
H344	H	-0.074858	-0.504454	0.403478
H345	H	-0.050638	-0.487969	0.328090
C346	C	-0.147660	-0.467396	0.325856
C347	C	-0.139879	-0.467529	0.368357
H348	H	-0.183856	-0.444684	0.325533
H349	H	-0.142211	-0.503654	0.331329
H350	H	-0.122190	-0.453751	0.291872
H351	H	-0.165343	-0.481180	0.402340
H352	H	-0.145333	-0.431271	0.362889
H353	H	0.051334	-0.699339	0.502037
O354	O	0.018983	-0.742809	0.469458
C355	C	0.052070	-0.771618	0.502741
H356	H	0.072909	-0.744321	0.495487
H357	H	0.025566	-0.783938	0.547607
C358	C	0.070271	-0.856847	0.497199
C359	C	0.095870	-0.823321	0.488286
H360	H	0.097287	-0.888742	0.488285
H361	H	0.047978	-0.837439	0.474777
H362	H	0.048185	-0.867108	0.534588
H363	H	0.117950	-0.813056	0.450897
H364	H	0.118168	-0.842730	0.510702
H365	H	-0.033345	-0.529494	0.416965
H366	H	0.058518	-0.740243	0.392731
H367	H	-0.109727	-0.740044	0.456586
O368	O	0.101886	-0.848712	0.426083
C369	C	0.131535	-0.834740	0.369517
H370	H	0.103428	-0.818955	0.345765
H371	H	0.148010	-0.801506	0.356752
C372	C	0.214156	-0.905082	0.386227
C373	C	0.179636	-0.885698	0.357055
H374	H	0.243829	-0.936514	0.378539
H375	H	0.194182	-0.914494	0.424337
H376	H	0.227880	-0.877382	0.375587
H377	H	0.165908	-0.913395	0.367700
H378	H	0.199608	-0.876292	0.318946
H379	H	-0.116855	-0.691337	0.509456
H380	H	-0.220518	-0.571693	0.374008
O381	O	-0.225260	-0.658790	0.552793
C382	C	-0.187755	-0.691994	0.581666
H383	H	-0.146878	-0.712869	0.554385
H384	H	-0.181684	-0.665574	0.594071
C385	C	-0.260411	-0.710117	0.666805
C386	C	-0.210206	-0.735760	0.633300
H387	H	-0.274261	-0.737113	0.698657
H388	H	-0.285679	-0.687745	0.647354
H389	H	-0.255345	-0.688101	0.677138
H390	H	-0.215274	-0.757770	0.622963
H391	H	-0.184939	-0.758137	0.652751
H392	H	-0.116547	-0.606465	0.339541
