data_functionalizedCrystal
_audit_creation_method	'MofGen! by Chris Wilmer'
_symmetry_space_group_name_H-M	'P1'
_symmetry_Int_Tables_number	1
_symmetry_cell_setting	triclinic
loop_
_symmetry_equiv_pos_as_xyz
  x,y,z
_cell_length_a	15.995350
_cell_length_b	15.072220
_cell_length_c	13.339070
_cell_angle_alpha	89.993295
_cell_angle_beta	80.439165
_cell_angle_gamma	90.000308
loop_
_atom_site_label
_atom_site_type_symbol
_atom_site_fract_x
_atom_site_fract_y
_atom_site_fract_z
O1	O	1.141279	0.073702	-0.130403
O2	O	0.901245	0.073720	-0.146505
O3	O	0.993714	0.073710	0.008810
O4	O	1.048810	0.073712	-0.285718
O5	O	0.993701	-0.073855	0.008828
O6	O	0.901232	-0.073845	-0.146486
O7	O	1.141266	-0.073863	-0.130384
Zn8	Zn	1.021247	-0.097283	-0.138432
Zn9	Zn	1.021264	0.097140	-0.138457
O10	O	1.048797	-0.073853	-0.285699
C11	C	0.869889	-0.000060	-0.145830
C12	C	0.776475	-0.000053	-0.143834
N13	N	1.021242	-0.229972	-0.138415
C14	C	1.021263	-0.589174	-0.138449
C15	C	1.071029	-0.551544	-0.055621
C16	C	1.070778	-0.448718	-0.055315
C17	C	1.021253	-0.410969	-0.138432
C18	C	0.928540	-0.448306	-0.115379
C19	C	0.928813	-0.551164	-0.114794
C20	C	1.063479	-0.551251	-0.244575
C21	C	1.065297	-0.448387	-0.243864
C22	C	1.021242	-0.310256	-0.138424
C23	C	1.021267	-0.689887	-0.138455
C24	C	0.437062	-0.000072	-0.136667
C25	C	0.458799	-0.000402	-0.026055
C26	C	0.555953	-0.000063	-0.028051
C27	C	0.605449	-0.000063	-0.140222
C28	C	0.577044	0.084200	-0.194791
C29	C	0.479762	0.084265	-0.192012
C30	C	0.479940	-0.083544	-0.194276
C31	C	0.576879	-0.084652	-0.194250
C32	C	0.700614	-0.000055	-0.142237
C33	C	0.341897	-0.000074	-0.134655
C34	C	1.172622	-0.000081	-0.131059
C35	C	1.266036	-0.000082	-0.133055
C36	C	0.984400	-0.000070	0.046508
C37	C	0.956659	-0.000065	0.158810
N38	N	1.021274	0.229829	-0.138466
C39	C	1.058111	-0.000071	-0.323397
C40	C	1.085852	-0.000071	-0.435699
C41	C	1.172362	-0.000081	0.523603
C42	C	1.198430	-0.000091	0.418090
C43	C	1.137989	-0.000084	0.353265
C44	C	1.051477	-0.000068	0.393963
C45	C	1.025407	-0.000064	0.499486
C46	C	0.991034	-0.000068	0.329148
C47	C	0.904522	-0.000051	0.369846
C48	C	0.878457	-0.000047	0.475359
C49	C	0.938897	-0.000054	0.540184
C50	C	1.017104	-0.000071	0.223625
C51	C	0.870149	-0.000054	0.199508
C52	C	0.844081	-0.000044	0.305021
H53	H	1.138903	-0.423474	-0.069042
C54	C	1.238836	-0.000095	0.594915
N55	N	1.288909	-0.000106	0.648631
C56	C	0.783291	-0.000038	0.520123
N57	N	0.711612	-0.000030	0.553837
C58	C	0.748919	-0.000038	0.349803
N59	N	0.677243	-0.000037	0.383534
C60	C	1.014843	-0.584134	-0.327847
N61	N	0.978208	-0.608907	-0.390560
H62	H	1.159218	-0.000093	0.267352
C63	C	1.112265	-0.000083	0.178870
N64	N	1.183945	-0.000089	0.145162
C65	C	0.803659	-0.000044	0.128204
N66	N	0.753584	-0.000037	0.074492
C67	C	0.621994	0.088439	-0.306121
N68	N	0.655853	0.091631	-0.389976
H69	H	0.917677	-0.000042	0.626102
C70	C	0.875919	-0.415269	-0.194702
N71	N	0.836286	-0.390381	-0.254449
C72	C	0.601237	-0.168869	-0.140404
N73	N	0.619579	-0.232300	-0.099839
H74	H	1.041260	-0.424120	0.023442
H75	H	1.268867	-0.000106	0.384962
C76	C	0.603482	0.168922	-0.143605
N77	N	0.623392	0.232732	-0.105044
H78	H	0.467125	-0.084115	-0.275829
C79	C	0.883614	-0.583588	-0.010234
N80	N	0.849569	-0.608005	0.068524
H81	H	0.452216	0.147254	-0.152234
H82	H	1.139321	-0.576278	-0.069127
C83	C	1.031509	-0.586466	0.050176
N84	N	1.001740	-0.612770	0.129862
H85	H	0.889402	-0.576057	-0.172828
H86	H	0.894906	-0.422553	-0.038864
C87	C	1.154654	-0.586285	-0.274503
N88	N	1.223329	-0.612673	-0.297034
H89	H	1.133624	-0.423985	-0.261356
H90	H	1.033282	-0.422689	-0.308387
H91	H	0.574414	-0.060467	0.014842
H92	H	0.466381	0.088088	-0.273222
C93	C	0.418509	0.080774	0.033402
N94	N	0.388159	0.141915	0.078182
C95	C	0.419883	-0.082036	0.033689
N96	N	0.390565	-0.143525	0.078690
H97	H	0.573786	0.060446	0.015116
H98	H	0.611247	-0.089742	-0.276048
C99	C	0.440848	-0.169831	-0.145405
N100	N	0.411402	-0.234817	-0.108583
