data_functionalizedCrystal
_audit_creation_method	'MofGen! by Chris Wilmer'
_symmetry_space_group_name_H-M	'P1'
_symmetry_Int_Tables_number	1
_symmetry_cell_setting	triclinic
loop_
_symmetry_equiv_pos_as_xyz
  x,y,z
_cell_length_a	13.033291
_cell_length_b	13.032721
_cell_length_c	13.032268
_cell_angle_alpha	103.289627
_cell_angle_beta	89.079236
_cell_angle_gamma	105.184202
loop_
_atom_site_label
_atom_site_type_symbol
_atom_site_fract_x
_atom_site_fract_y
_atom_site_fract_z
Zn1	Zn	1.451144	-0.335773	-0.818085
Zn2	Zn	1.451030	-0.490870	-0.663020
Zn3	Zn	1.301807	-0.330074	-0.623640
Zn4	Zn	1.250940	-0.535862	-0.817965
O5	O	1.363731	-0.423145	-0.730678
O6	O	1.597365	-0.339903	-0.814047
O7	O	1.452476	-0.448326	-0.511575
O8	O	1.342953	-0.179798	-0.633003
O9	O	1.597281	-0.453852	-0.700121
O10	O	1.452670	-0.183985	-0.775861
O11	O	1.342843	-0.330190	-0.482642
O12	O	1.148824	-0.373816	-0.632886
O13	O	1.256257	-0.530534	-0.964202
O14	O	1.111452	-0.525007	-0.775656
O15	O	1.403346	-0.383529	-0.964290
O16	O	1.403152	-0.647870	-0.700004
O17	O	1.256147	-0.680925	-0.813842
C18	C	1.092220	-0.453676	-0.699986
C19	C	0.976060	-0.466768	-0.686883
C20	C	1.324142	-0.703558	-0.761209
C21	C	1.307297	-0.823515	-0.774317
C22	C	0.804229	-0.429861	-0.723984
C23	C	0.924287	-0.416333	-0.737526
C24	C	1.372571	-0.860606	-0.723890
C25	C	1.355162	-0.984587	-0.737436
C26	C	1.636301	-0.392495	-0.761490
C27	C	1.752454	-0.379433	-0.774620
C28	C	1.324141	-0.462686	-1.003220
C29	C	1.307270	-0.479536	-1.119361
C30	C	1.403498	-0.141636	-0.700052
C31	C	1.420445	-0.021674	-0.687002
C32	C	1.372525	-0.414313	-1.171184
C33	C	1.355089	-0.431727	-1.291222
C34	C	1.403238	-0.383673	-0.459194
C35	C	1.420354	-0.366496	-0.343043
H36	H	0.759675	-0.483044	-0.670603
H37	H	1.286304	-0.500457	-1.335717
H38	H	0.797011	-0.326240	-0.827991
H39	H	1.441297	-0.345579	-1.126683
O40	O	1.502281	-0.284423	-1.289840
C41	C	1.461719	-0.212299	-1.212433
H42	H	1.379497	-0.256942	-1.191371
H43	H	1.455456	-0.139675	-1.244448
C44	C	1.637924	-0.116480	-1.138948
C45	C	1.536942	-0.171314	-1.113073
H46	H	1.684326	-0.091195	-1.077660
H47	H	1.665252	-0.165069	-1.191101
H48	H	1.632690	-0.055967	-1.165629
H49	H	1.542174	-0.231833	-1.086406
H50	H	1.509616	-0.122735	-1.060913
H51	H	1.238489	-0.548261	-1.163860
H52	H	1.286389	-1.044616	-0.790645
H53	H	0.968840	-0.363136	-0.790901
H54	H	1.441347	-0.800577	-0.670693
H55	H	1.238528	-0.883546	-0.827522
H56	H	0.931509	-0.519960	-0.633503
H57	H	1.489226	-0.961647	-0.633801
