data_functionalizedCrystal
_audit_creation_method	'MofGen! by Chris Wilmer'
_symmetry_space_group_name_H-M	'P1'
_symmetry_Int_Tables_number	1
_symmetry_cell_setting	triclinic
loop_
_symmetry_equiv_pos_as_xyz
  x,y,z
_cell_length_a	15.944493
_cell_length_b	15.021413
_cell_length_c	10.489741
_cell_angle_alpha	90.004340
_cell_angle_beta	95.992891
_cell_angle_gamma	90.006749
loop_
_atom_site_label
_atom_site_type_symbol
_atom_site_fract_x
_atom_site_fract_y
_atom_site_fract_z
O1	O	1.115546	0.074020	-0.164133
O2	O	0.871112	0.074024	-0.184492
O3	O	0.998891	0.074016	0.011364
O4	O	0.987767	0.074027	-0.359989
O5	O	0.998871	-0.074048	0.011336
O6	O	0.871092	-0.074040	-0.184520
O7	O	1.115526	-0.074044	-0.164161
Zn8	Zn	0.993305	-0.097551	-0.174345
Zn9	Zn	0.993332	0.097530	-0.174308
O10	O	0.987747	-0.074037	-0.360017
C11	C	0.839802	-0.000008	-0.183674
C12	C	0.746538	-0.000006	-0.181179
N13	N	0.993293	-0.230688	-0.174369
C14	C	0.934199	-0.470368	-0.264891
C15	C	1.010250	-0.529703	-0.289629
C16	C	0.993315	-0.412295	-0.174337
C17	C	0.917284	-0.529702	-0.149628
C18	C	0.993328	-0.587719	-0.174310
C19	C	1.069404	-0.470324	-0.199133
C20	C	0.976388	-0.470317	-0.059082
C21	C	1.052494	-0.529626	-0.083771
C22	C	0.993305	-0.311238	-0.174357
C23	C	0.993346	-0.688774	-0.174289
C24	C	0.511472	-0.000002	-0.296465
C25	C	0.460530	-0.073011	-0.234310
C26	C	0.575790	-0.000008	-0.176557
C27	C	0.460554	0.072969	-0.234254
C28	C	0.410853	-0.000006	-0.172101
C29	C	0.526076	-0.073077	-0.114434
C30	C	0.526104	0.072968	-0.114396
C31	C	0.475194	-0.000059	-0.052153
C32	C	0.670805	-0.000010	-0.179127
C33	C	0.315841	-0.000010	-0.169521
C34	C	1.146836	-0.000011	-0.164979
C35	C	1.240099	-0.000007	-0.167474
C36	C	0.998041	-0.000015	0.058870
C37	C	0.995527	-0.000013	0.200464
N38	N	0.993351	0.230668	-0.174274
C39	C	0.988597	-0.000003	-0.407523
C40	C	0.991111	0.000001	-0.549117
C41	C	0.914225	-0.000005	0.267451
C42	C	0.952621	-0.073009	0.360104
C43	C	0.952661	0.072970	0.360107
C44	C	1.033957	-0.073078	0.291252
C45	C	1.033985	0.072968	0.291245
C46	C	1.072440	-0.000054	0.383872
H47	H	0.884258	-0.444350	-0.341531
C48	C	1.080430	0.156352	0.249973
N49	N	1.115407	0.219164	0.218884
C50	C	0.830413	-0.564934	-0.121402
N51	N	0.764979	-0.591467	-0.100152
C52	C	1.080376	-0.156554	0.250246
N53	N	1.115334	-0.219429	0.219356
C54	C	1.162824	-0.000113	0.451936
N55	N	1.230899	-0.000162	0.503207
H56	H	0.962036	-0.444212	0.038344
H57	H	0.847379	-0.000078	0.216852
C58	C	0.564595	-0.156552	-0.046094
N59	N	0.593608	-0.219426	0.005373
H60	H	0.431929	0.134683	-0.284905
C61	C	0.906181	0.156350	0.401313
N62	N	0.871167	0.219149	0.432342
H63	H	0.527716	-0.000067	-0.399752
H64	H	0.459107	-0.000104	0.051213
C65	C	1.156295	-0.435239	-0.227516
N66	N	1.221738	-0.408811	-0.248899
C67	C	1.120113	-0.564571	0.019693
N68	N	1.171047	-0.590897	0.097613
H69	H	0.554754	0.134691	-0.063783
C70	C	0.421827	-0.156386	-0.302738
N71	N	0.392676	-0.219180	-0.354288
C72	C	1.029603	-0.564953	-0.421286
N73	N	1.044172	-0.591502	-0.520452
C74	C	0.906136	-0.156386	0.401332
N75	N	0.871117	-0.219182	0.432381
