data_functionalizedCrystal
_audit_creation_method	'MofGen! by Chris Wilmer'
_symmetry_space_group_name_H-M	'P1'
_symmetry_Int_Tables_number	1
_symmetry_cell_setting	triclinic
loop_
_symmetry_equiv_pos_as_xyz
  x,y,z
_cell_length_a	12.970454
_cell_length_b	14.560438
_cell_length_c	14.560438
_cell_angle_alpha	60.000905
_cell_angle_beta	89.999937
_cell_angle_gamma	59.999012
loop_
_atom_site_label
_atom_site_type_symbol
_atom_site_fract_x
_atom_site_fract_y
_atom_site_fract_z
Zr1	Zr	0.993220	1.005272	-0.120521
O2	O	0.828592	1.196876	-0.267164
O3	O	1.043687	0.813670	-0.075569
O4	O	1.043682	1.005274	-0.267170
O5	O	0.828601	1.005270	0.075578
O6	O	1.213349	1.005274	-0.267173
O7	O	0.828597	1.005272	-0.075563
O8	O	1.213358	0.662529	0.075566
O9	O	0.828592	1.348014	-0.267161
O10	O	1.191832	0.892478	-0.056397
O11	O	1.065214	0.892476	0.056399
O12	O	1.065208	1.118065	-0.169186
O13	O	0.938591	1.118064	-0.056389
Zr14	Zr	1.263827	1.005267	0.120528
Zr15	Zr	1.263820	1.005271	-0.120525
Zr16	Zr	0.993227	1.005268	0.120531
Zr17	Zr	0.993220	1.246320	-0.120516
Zr18	Zr	1.263826	0.764219	0.120523
O19	O	1.213360	1.196868	0.075576
O20	O	1.213350	1.196874	-0.267169
O21	O	0.828601	1.196870	0.075581
O22	O	1.428455	0.813663	0.267170
O23	O	1.428445	0.813669	-0.075575
O24	O	1.043697	0.813665	0.267176
O25	O	1.428446	1.005269	-0.075571
O26	O	1.213365	1.005265	0.267177
O27	O	1.043697	1.005265	0.267179
O28	O	1.428450	1.005267	0.075570
O29	O	1.043683	1.348013	-0.267164
O30	O	1.213364	0.662526	0.267170
O31	O	1.428455	0.662525	0.267167
O32	O	1.428449	0.662528	0.075563
O33	O	0.828597	1.348011	-0.075556
O34	O	1.043688	1.348010	-0.075559
O35	O	1.191838	0.892474	0.169192
O36	O	1.318456	0.892475	0.056396
O37	O	1.191832	1.118063	-0.056393
O38	O	1.065215	1.118061	0.056404
C39	C	1.128523	0.703756	-0.000002
C40	C	1.128522	0.601425	-0.000004
C41	C	1.194613	0.553349	-0.058883
C42	C	1.194618	0.457190	-0.058872
C43	C	1.062432	0.457194	0.058897
C44	C	1.062435	0.553345	0.058892
C45	C	0.790044	1.005271	0.000008
C46	C	0.675167	1.005272	0.000010
C47	C	1.467003	1.005268	-0.000001
C48	C	1.581879	1.005267	-0.000003
C49	C	1.128515	1.005275	-0.301516
C50	C	1.128512	1.005276	-0.403849
C51	C	1.128524	1.306783	0.000009
C52	C	1.128524	1.409114	0.000011
C53	C	1.062417	1.123029	-0.510800
C54	C	1.062432	1.123022	-0.606949
C55	C	1.194638	0.887501	-0.489182
C56	C	1.194630	0.887509	-0.393036
C57	C	1.128532	1.005264	0.301523
C58	C	1.128535	1.005263	0.403856
C59	C	1.467002	0.703754	-0.000007
C60	C	1.581879	0.601422	-0.000010
C61	C	1.128531	0.703751	0.301517
C62	C	1.128534	0.601418	0.403848
C63	C	1.467011	0.703749	0.301513
C64	C	1.581890	0.601416	0.403842
C65	C	0.790036	1.306790	-0.301506
C66	C	0.675157	1.409123	-0.403835
C67	C	0.790045	1.306785	0.000014
C68	C	0.675168	1.409116	0.000017
C69	C	1.128515	1.306788	-0.301510
C70	C	1.128513	1.409121	-0.403841
C71	C	1.635829	0.470089	0.083256
C72	C	1.743757	0.373924	0.083256
C73	C	1.797737	0.409096	-0.000006
C74	C	1.743777	0.540442	-0.083280
C75	C	1.635846	0.636604	-0.083284
C76	C	1.635847	0.470083	0.451895
C77	C	1.743801	0.373915	0.548033
C78	C	1.797790	0.409083	0.596122
C79	C	1.743828	0.540428	0.548061
C80	C	1.635881	0.636593	0.451919
C81	C	0.621209	1.540456	-0.451897
C82	C	0.513279	1.636623	-0.548056
C83	C	0.459294	1.601456	-0.596149
C84	C	0.513252	1.470110	-0.548083
C85	C	0.621185	1.373945	-0.451929
C86	C	0.621222	1.373904	0.083294
C87	C	0.513294	1.470043	0.083320
C88	C	0.459309	1.601392	0.000064
C89	C	0.513265	1.636603	-0.083217
C90	C	0.621196	1.540466	-0.083238
C91	C	1.194631	0.553338	0.510800
C92	C	1.194619	0.457195	0.606947
C93	C	1.062412	0.457215	0.489176
C94	C	1.062417	0.553363	0.393032
H95	H	1.008580	1.218922	-0.519611
C96	C	1.576524	0.781056	0.399080
H97	H	1.624135	0.788218	0.441501
H98	H	1.576682	0.822055	0.323901
H99	H	1.492137	0.822014	0.399262
H100	H	1.248439	0.418055	0.694029
C101	C	0.989701	0.606260	0.275378
H102	H	0.950336	0.563861	0.282704
H103	H	0.927161	0.697036	0.235432
H104	H	1.046756	0.590496	0.235419
H105	H	1.008615	0.592487	0.106843
H106	H	1.591932	0.743541	-0.151088
C107	C	0.989720	1.252550	-0.724591
H108	H	0.950337	1.322683	-0.717255
H109	H	1.046767	1.257453	-0.764548
H110	H	0.927174	1.257435	-0.764543
H111	H	1.248467	0.791619	-0.480392
H112	H	1.787717	0.266975	0.587156
C113	C	1.803208	0.579102	0.600975
H114	H	1.755621	0.671093	0.558591
H115	H	1.803031	0.545030	0.676150
H116	H	1.887603	0.545053	0.600813
C117	C	1.267334	0.757975	-0.275383
H118	H	1.306697	0.687836	-0.282712
H119	H	1.329874	0.753085	-0.235427
H120	H	1.210271	0.753086	-0.235434
H121	H	1.248428	0.592492	-0.106838
H122	H	0.665096	1.267009	-0.412800
C123	C	0.680581	1.579158	-0.399011
H124	H	0.752585	1.503086	-0.334855
H125	H	0.705179	1.629121	-0.452435
H126	H	0.620602	1.629136	-0.377104
C127	C	0.680594	1.229429	0.174883
H128	H	0.752598	1.177202	0.162951
H129	H	0.705195	1.210977	0.246759
H130	H	0.620614	1.210975	0.171432
H131	H	1.591903	0.441425	0.412753
C132	C	0.680740	1.579208	-0.174658
H133	H	0.752824	1.503150	-0.162694
H134	H	0.620929	1.629263	-0.246646
H135	H	0.705287	1.629104	-0.170961
H136	H	1.885686	0.330766	0.674407
H137	H	0.469376	1.441347	0.151138
C138	C	0.340579	1.707129	0.000092
H139	H	0.316182	1.667335	0.061610
H140	H	0.358429	1.759641	0.007008
H141	H	0.273865	1.759629	-0.068324
H142	H	0.469360	1.743563	-0.587176
C143	C	1.267335	0.606214	0.522698
H144	H	1.306685	0.563817	0.600168
H145	H	1.329885	0.590459	0.487641
H146	H	1.210271	0.696995	0.487641
C147	C	1.916465	0.303312	0.000010
H148	H	1.940890	0.343060	-0.061505
H149	H	1.983158	0.250807	0.068434
H150	H	1.898581	0.250816	-0.006907
C151	C	1.803109	0.579114	-0.174910
H152	H	1.875103	0.503025	-0.162981
H153	H	1.743099	0.629067	-0.246764
H154	H	1.827739	0.629090	-0.171512
C155	C	1.267311	0.404317	-0.123645
H156	H	1.306660	0.446732	-0.158726
H157	H	1.329862	0.313541	-0.072829
H158	H	1.210246	0.420083	-0.179361
C159	C	0.340563	1.707242	-0.701909
H160	H	0.316134	1.667496	-0.723678
H161	H	0.273874	1.759744	-0.685983
H162	H	0.358443	1.759741	-0.761323
C163	C	0.989705	0.404338	0.477287
H164	H	0.999179	0.340179	0.549864
H165	H	0.902748	0.473363	0.437337
H166	H	1.022358	0.366825	0.437335
H167	H	1.008624	0.418037	0.106847
H168	H	1.591892	0.441427	0.151060
H169	H	0.469295	1.743560	-0.151001
H170	H	0.469280	1.441494	-0.587254
H171	H	1.787677	0.266983	0.151071
