data_functionalizedCrystal
_audit_creation_method	'MofGen! by Chris Wilmer'
_symmetry_space_group_name_H-M	'P1'
_symmetry_Int_Tables_number	1
_symmetry_cell_setting	triclinic
loop_
_symmetry_equiv_pos_as_xyz
  x,y,z
_cell_length_a	8.597213
_cell_length_b	12.503552
_cell_length_c	8.559649
_cell_angle_alpha	86.975164
_cell_angle_beta	77.624681
_cell_angle_gamma	101.266738
loop_
_atom_site_label
_atom_site_type_symbol
_atom_site_fract_x
_atom_site_fract_y
_atom_site_fract_z
O1	O	2.085880	0.282346	0.209349
O2	O	1.621856	0.239406	0.231974
O3	O	1.894749	0.264658	-0.011693
O4	O	1.812987	0.257094	0.453016
O5	O	1.874203	0.084114	0.006648
O6	O	1.601310	0.058862	0.250315
O7	O	2.065334	0.101802	0.227691
Cu8	Cu	1.831446	0.063847	0.240677
Cu9	Cu	1.855744	0.277361	0.218987
O10	O	1.792441	0.076550	0.471357
C11	C	1.552728	0.143688	0.239737
C12	C	1.377360	0.127460	0.235523
N13	N	1.814368	-0.086326	0.255933
C14	C	1.897952	-0.351025	0.181273
C15	C	1.789258	-0.307759	0.278373
C16	C	1.803232	-0.184542	0.265884
C17	C	1.883980	-0.474252	0.193760
C18	C	2.134463	0.197522	0.219927
C19	C	2.309832	0.213758	0.224141
C20	C	1.890672	0.174961	-0.062015
C21	C	1.909116	0.176674	-0.239284
N22	N	1.872837	0.427535	0.203719
C23	C	1.796518	0.166249	0.521679
C24	C	1.778075	0.164543	0.698947
H25	H	1.386176	0.300051	0.217633
N26	N	1.281559	0.019201	0.243722
N27	N	1.134455	0.005729	0.240180
H28	H	1.066792	-0.070728	0.245974
H29	H	2.035424	0.188354	-0.322024
N30	N	1.659357	-0.377387	0.394416
N31	N	1.648040	-0.478832	0.404531
H32	H	1.556303	-0.528012	0.486485
H33	H	1.651774	0.152852	-0.218320
H34	H	2.001497	-0.295533	0.088771
