data_functionalizedCrystal
_audit_creation_method	'MofGen! by Chris Wilmer'
_symmetry_space_group_name_H-M	'P1'
_symmetry_Int_Tables_number	1
_symmetry_cell_setting	triclinic
loop_
_symmetry_equiv_pos_as_xyz
  x,y,z
_cell_length_a	10.489741
_cell_length_b	10.489741
_cell_length_c	13.596369
_cell_angle_alpha	89.994306
_cell_angle_beta	89.997383
_cell_angle_gamma	84.539174
loop_
_atom_site_label
_atom_site_type_symbol
_atom_site_fract_x
_atom_site_fract_y
_atom_site_fract_z
O1	O	1.694055	0.179970	-0.081730
O2	O	1.322859	0.196863	-0.081745
O3	O	1.516904	0.002819	-0.081731
O4	O	1.500011	0.374014	-0.081744
O5	O	1.516884	0.002808	0.081851
O6	O	1.322840	0.196852	0.081838
O7	O	1.694035	0.179960	0.081853
Zn8	Zn	1.508434	0.188404	0.107818
Zn9	Zn	1.508460	0.188418	-0.107710
O10	O	1.499991	0.374004	0.081839
C11	C	1.275318	0.195582	0.000044
C12	C	1.133688	0.191765	0.000039
C13	C	1.065548	0.068300	0.000052
C14	C	0.973431	0.126629	-0.080603
C15	C	0.973446	0.126648	0.080677
C16	C	1.043437	0.250144	-0.080683
C17	C	1.043461	0.250146	0.080670
C18	C	0.951371	0.308564	-0.000005
C19	C	1.515618	-0.044718	0.000059
C20	C	1.511801	-0.186348	0.000057
C21	C	1.388336	-0.254488	0.000045
C22	C	1.446650	-0.346616	0.080702
C23	C	1.446698	-0.346580	-0.080577
C24	C	1.570165	-0.276610	0.080781
C25	C	1.570197	-0.276565	-0.080571
C26	C	1.628600	-0.368665	0.000106
C27	C	1.741577	0.181241	0.000061
C28	C	1.883206	0.185058	0.000060
C29	C	1.501277	0.421541	0.000046
C30	C	1.505094	0.563170	0.000042
N31	N	1.508426	0.188394	0.254909
N32	N	1.508479	0.188418	-0.254802
C33	C	1.508459	0.188420	0.656200
C34	C	1.508446	0.188417	0.544549
C35	C	1.508443	0.188408	0.455558
C36	C	1.508429	0.188403	0.343900
H37	H	1.115238	-0.033196	-0.000046
H38	H	1.394450	-0.377539	-0.148773
H39	H	1.394401	-0.377631	0.148888
O40	O	1.639398	-0.235427	-0.170870
H41	H	1.574095	-0.167719	-0.214441
H42	H	1.074273	0.302348	-0.148947
O43	O	1.763221	-0.434045	0.000173
H44	H	1.814747	-0.404656	-0.066151
O45	O	0.885909	0.443151	-0.000065
H46	H	0.780524	0.439386	0.000581
O47	O	1.084604	0.319268	0.170992
H48	H	0.999248	0.350065	0.216391
O49	O	0.932334	0.057444	-0.170917
H50	H	0.978472	-0.042271	-0.170749
H51	H	0.942460	0.074380	0.148865
O52	O	1.253881	-0.188700	0.000140
H53	H	1.202931	-0.216576	0.067194
H54	H	1.622352	-0.245782	0.149047
