data_functionalizedCrystal
_audit_creation_method	'MofGen! by Chris Wilmer'
_symmetry_space_group_name_H-M	'P1'
_symmetry_Int_Tables_number	1
_symmetry_cell_setting	triclinic
loop_
_symmetry_equiv_pos_as_xyz
  x,y,z
_cell_length_a	23.532407
_cell_length_b	11.792241
_cell_length_c	10.268362
_cell_angle_alpha	89.995478
_cell_angle_beta	89.990027
_cell_angle_gamma	96.478953
loop_
_atom_site_label
_atom_site_type_symbol
_atom_site_fract_x
_atom_site_fract_y
_atom_site_fract_z
O1	O	0.756068	-0.137772	0.108138
O2	O	0.590323	-0.157706	0.108177
O3	O	0.677218	0.017526	0.108147
O4	O	0.669174	-0.313004	0.108168
O5	O	0.677226	0.017534	-0.108453
O6	O	0.590331	-0.157699	-0.108424
O7	O	0.756076	-0.137765	-0.108462
Cu8	Cu	0.673204	-0.147731	-0.128221
Cu9	Cu	0.673195	-0.147740	0.127935
O10	O	0.669181	-0.312997	-0.108433
C11	C	0.569108	-0.157195	-0.000119
C12	C	0.505882	-0.155669	-0.000104
C13	C	0.676716	0.059809	-0.000152
C14	C	0.675204	0.185787	-0.000151
N15	N	0.673215	-0.147724	-0.308386
C16	C	0.107337	-0.249795	-0.000158
C17	C	0.047928	-0.248377	-0.000166
O18	O	0.011701	-0.335633	-0.000208
N19	N	0.024684	-0.144202	-0.000170
C20	C	0.060853	-0.041437	-0.000179
O21	O	0.035627	0.047303	-0.000185
C22	C	0.120260	-0.042856	-0.000181
C23	C	0.143501	-0.147038	-0.000163
C24	C	0.130577	-0.353969	-0.000142
C25	C	0.189982	-0.355386	-0.000131
C26	C	0.226146	-0.252630	-0.000137
C27	C	0.202905	-0.148456	-0.000153
C28	C	0.156428	0.059907	-0.000199
C29	C	0.215839	0.058479	-0.000202
C30	C	0.239079	-0.045703	-0.000184
C31	C	0.298474	-0.047116	-0.000148
N32	N	0.321717	-0.151292	-0.000144
C33	C	0.285553	-0.254049	-0.000138
C34	C	-0.063907	-0.038465	-0.000179
C35	C	-0.123313	-0.037045	-0.000168
C36	C	-0.136234	-0.243985	-0.000157
C37	C	-0.076827	-0.245404	-0.000159
C38	C	-0.040664	-0.142641	-0.000175
C39	C	0.410308	-0.257017	-0.000115
C40	C	0.469718	-0.258425	-0.000099
C41	C	0.482634	-0.051485	-0.000117
C42	C	0.423229	-0.050077	-0.000126
C43	C	0.387066	-0.152852	-0.000129
O44	O	0.334736	0.040094	-0.000111
O45	O	0.310787	-0.342774	-0.000150
C46	C	0.777291	-0.138276	-0.000164
C47	C	0.840517	-0.139802	-0.000170
C48	C	0.669683	-0.355280	-0.000130
C49	C	0.671195	-0.481258	-0.000124
C50	C	0.672423	0.416434	-0.000128
C51	C	0.673968	0.288085	-0.000141
N52	N	0.673189	-0.147738	0.308101
C53	C	0.673193	-0.147738	0.425943
C54	C	0.673203	-0.147733	0.573781
H55	H	0.380871	-0.340707	-0.000122
H56	H	0.137517	0.144743	-0.000215
H57	H	0.101138	-0.437650	-0.000142
H58	H	0.488636	-0.343267	-0.000084
H59	H	-0.057909	-0.330239	-0.000152
O60	O	-0.171452	-0.343703	-0.000216
C61	C	-0.228868	-0.320098	-0.000188
H62	H	-0.231418	-0.230978	-0.041200
H63	H	-0.255571	-0.385630	-0.063072
H64	H	-0.246042	-0.324601	0.103725
O65	O	-0.145791	0.064258	-0.000227
C66	C	-0.101126	0.154641	-0.000194
H67	H	-0.060670	0.123288	-0.041193
H68	H	-0.113759	0.227423	-0.063085
H69	H	-0.092830	0.186297	0.103720
O70	O	0.212480	-0.456667	0.000050
C71	C	0.194024	-0.519249	0.112248
H72	H	0.152731	-0.488771	0.149645
H73	H	0.186066	-0.613853	0.087022
H74	H	0.228349	-0.505732	0.190801
O75	O	-0.028722	0.061293	0.000001
C76	C	0.006008	0.066676	0.112200
H77	H	0.009300	-0.023372	0.149598
H78	H	0.050518	0.109486	0.086975
H79	H	-0.013711	0.118268	0.190751
H80	H	0.404306	0.034757	-0.000121
O81	O	0.250886	0.158412	-0.000152
C82	C	0.217628	0.250659	-0.000200
H83	H	0.173382	0.221329	0.040801
H84	H	0.239303	0.322615	0.062682
H85	H	0.213308	0.282625	-0.104118
H86	H	0.512089	0.032176	-0.000117
