data_functionalizedCrystal
_audit_creation_method	'MofGen! by Chris Wilmer'
_symmetry_space_group_name_H-M	'P1'
_symmetry_Int_Tables_number	1
_symmetry_cell_setting	triclinic
loop_
_symmetry_equiv_pos_as_xyz
  x,y,z
_cell_length_a	21.395362
_cell_length_b	21.295416
_cell_length_c	21.395355
_cell_angle_alpha	90.018978
_cell_angle_beta	89.956060
_cell_angle_gamma	89.953791
loop_
_atom_site_label
_atom_site_type_symbol
_atom_site_fract_x
_atom_site_fract_y
_atom_site_fract_z
Zn1	Zn	0.957861	0.250415	-0.354584
Zn2	Zn	1.291194	0.583749	-0.021250
Zn3	Zn	1.624528	0.917082	0.312083
Zn4	Zn	0.957764	0.355667	-0.249805
Zn5	Zn	1.291098	0.689000	0.083528
Zn6	Zn	1.624431	1.022334	0.416861
Zn7	Zn	0.853076	0.250445	-0.249785
Zn8	Zn	1.186409	0.583778	0.083548
Zn9	Zn	1.519743	0.917111	0.416882
Zn10	Zn	0.853046	0.355680	-0.354510
Zn11	Zn	1.186379	0.689013	-0.021177
Zn12	Zn	1.519713	1.022346	0.312157
O13	O	0.905437	0.303052	-0.302171
O14	O	1.238770	0.636385	0.031162
O15	O	1.572104	0.969718	0.364496
O16	O	1.045526	0.264359	-0.340724
O17	O	1.378860	0.597693	-0.007391
O18	O	1.712193	0.931026	0.325943
O19	O	0.943849	0.341716	-0.162125
O20	O	1.277183	0.675049	0.171209
O21	O	1.610516	1.008382	0.504542
O22	O	0.867029	0.162351	-0.263709
O23	O	1.200363	0.495685	0.069624
O24	O	1.533696	0.829018	0.402958
O25	O	1.045455	0.341687	-0.263744
O26	O	1.378788	0.675021	0.069590
O27	O	1.712122	1.008354	0.402923
O28	O	0.944014	0.162330	-0.340704
O29	O	1.277348	0.495663	-0.007371
O30	O	1.610681	0.828996	0.325963
O31	O	0.866935	0.264409	-0.162110
O32	O	1.200269	0.597743	0.171224
O33	O	1.533602	0.931076	0.504557
O34	O	0.765394	0.264422	-0.263638
O35	O	1.098727	0.597755	0.069696
O36	O	1.432061	0.931089	0.403029
O37	O	0.866978	0.341709	-0.442198
O38	O	1.200311	0.675043	-0.108864
O39	O	1.533644	1.008376	0.224469
O40	O	0.765372	0.341738	-0.340579
O41	O	1.098705	0.675071	-0.007245
O42	O	1.432039	1.008404	0.326088
O43	O	0.943985	0.264372	-0.442252
O44	O	1.277318	0.597705	-0.108918
O45	O	1.610652	0.931039	0.224415
O46	O	0.943820	0.443758	-0.263672
O47	O	1.277153	0.777091	0.069661
O48	O	1.610487	1.110425	0.402994
O49	O	0.866884	0.443767	-0.340598
O50	O	1.200217	0.777101	-0.007265
O51	O	1.533551	1.110434	0.326068
C52	C	0.742649	0.303085	-0.302098
C53	C	1.075983	0.636418	0.031235
C54	C	1.409316	0.969752	0.364568
C55	C	0.673008	0.303114	-0.302082
C56	C	1.006341	0.636448	0.031251
C57	C	1.339675	0.969781	0.364585
C58	C	0.640300	0.343426	-0.342085
C59	C	0.973633	0.676759	-0.008752
C60	C	1.306966	1.010093	0.324581
C61	C	0.574864	0.343411	-0.342113
C62	C	0.908198	0.676744	-0.008780
C63	C	1.241531	1.010077	0.324554
C64	C	0.542140	0.303090	-0.302127
C65	C	0.875473	0.636423	0.031207
C66	C	1.208806	0.969757	0.364540
C67	C	0.574856	0.262771	-0.262121
C68	C	0.908189	0.596104	0.071213
C69	C	1.241522	0.929437	0.404546
C70	C	0.640290	0.262783	-0.262098
C71	C	0.973623	0.596116	0.071235
C72	C	1.306957	0.929449	0.404568
C73	C	0.438415	0.298019	-0.245721
C74	C	0.771748	0.631352	0.087612
C75	C	1.105082	0.964686	0.420945
C76	C	0.372982	0.298011	-0.245743
C77	C	0.706315	0.631345	0.087591
C78	C	1.039649	0.964678	0.420924
C79	C	0.340319	0.303049	-0.302196
C80	C	0.673652	0.636382	0.031138
C81	C	1.006986	0.969716	0.364471
C82	C	0.373097	0.308108	-0.358629
C83	C	0.706430	0.641441	-0.025296
C84	C	1.039764	0.974774	0.308037
C85	C	0.438531	0.308120	-0.358607
C86	C	0.771864	0.641453	-0.025274
C87	C	1.105198	0.974787	0.308060
C88	C	0.471187	0.303072	-0.302147
C89	C	0.804521	0.636406	0.031187
C90	C	1.137854	0.969739	0.364520
C91	C	0.236658	0.343346	-0.342233
C92	C	0.569992	0.676679	-0.008899
C93	C	0.903325	1.010013	0.324434
C94	C	0.171222	0.343326	-0.342262
C95	C	0.504555	0.676660	-0.008928
C96	C	0.837888	1.009993	0.324405
C97	C	0.171214	0.262690	-0.262264
C98	C	0.504548	0.596023	0.071070
C99	C	0.837881	0.929356	0.404403
C100	C	0.236650	0.262706	-0.262240
C101	C	0.569983	0.596039	0.071093
C102	C	0.903316	0.929373	0.404427
C103	C	0.269368	0.303038	-0.302224
C104	C	0.602701	0.636371	0.031109
C105	C	0.936034	0.969704	0.364443
C106	C	0.905355	0.466603	-0.302143
C107	C	1.238689	0.799937	0.031190
C108	C	1.572022	1.133270	0.364523
C109	C	0.905378	0.536571	-0.302152
C110	C	1.238711	0.869905	0.031181
C111	C	1.572044	1.203238	0.364514
C112	C	0.945474	0.569412	-0.262139
C113	C	1.278807	0.902746	0.071194
C114	C	1.612141	1.236079	0.404527
C115	C	0.945504	0.635155	-0.262156
C116	C	1.278837	0.968488	0.071177
C117	C	1.612170	1.301821	0.404510
C118	C	0.905426	0.668054	-0.302180
C119	C	1.238759	1.001387	0.031154
C120	C	1.572092	1.334721	0.364487
C121	C	0.865326	0.635205	-0.342200
C122	C	1.198660	0.968538	-0.008867
C123	C	1.531993	1.301872	0.324466
C124	C	0.865302	0.569464	-0.342187
C125	C	1.198636	0.902797	-0.008853
C126	C	1.531969	1.236131	0.324480
N127	N	0.850616	0.771336	-0.306936
N128	N	1.183949	1.104669	0.026397
N129	N	1.517283	1.438002	0.359731
N130	N	0.850641	0.833787	-0.306945
N131	N	1.183974	1.167121	0.026388
N132	N	1.517307	1.500454	0.359721
C133	C	0.905496	0.866129	-0.302224
C134	C	1.238830	1.199462	0.031109
C135	C	1.572163	1.532795	0.364443
N136	N	0.960328	0.833659	-0.297481
N137	N	1.293661	1.166993	0.035852
N138	N	1.626994	1.500326	0.369186
N139	N	0.960303	0.771202	-0.297468
N140	N	1.293636	1.104535	0.035865
N141	N	1.626969	1.437869	0.369198
C142	C	0.905447	0.739339	-0.302199
C143	C	1.238781	1.072673	0.031134
C144	C	1.572114	1.406006	0.364468
C145	C	0.945628	0.970255	-0.262227
C146	C	1.278961	1.303588	0.071106
C147	C	1.612295	1.636922	0.404439
C148	C	0.945659	1.035999	-0.262249
C149	C	1.278992	1.369332	0.071085
C150	C	1.612325	1.702665	0.404418
C151	C	0.865476	1.036048	-0.342289
C152	C	1.198809	1.369381	-0.008956
C153	C	1.532143	1.702714	0.324377
C154	C	0.865451	0.970305	-0.342271
C155	C	1.198784	1.303639	-0.008938
C156	C	1.532118	1.636972	0.324395
C157	C	0.905526	0.937413	-0.302237
C158	C	1.238860	1.270746	0.031096
C159	C	1.572193	1.604079	0.364430
C160	C	1.068860	0.303019	-0.302244
C161	C	1.402194	0.636352	0.031089
C162	C	1.735527	0.969685	0.364422
C163	C	1.138501	0.303005	-0.302275
C164	C	1.471835	0.636338	0.031058
C165	C	1.805168	0.969671	0.364391
C166	C	0.905489	0.303039	-0.465594
C167	C	1.238822	0.636372	-0.132261
C168	C	1.572156	0.969706	0.201072
C169	C	0.905511	0.303033	-0.535236
C170	C	1.238844	0.636367	-0.201902
C171	C	1.572178	0.969700	0.131431
C172	C	0.905537	1.138861	-0.302223
C173	C	1.238870	1.472195	0.031110
C174	C	1.572203	1.805528	0.364443
C175	C	0.905581	1.068893	-0.302273
C176	C	1.238914	1.402227	0.031060
C177	C	1.572248	1.735560	0.364394
C178	C	0.945607	0.262762	-0.567978
C179	C	1.278940	0.596096	-0.234645
C180	C	1.612274	0.929429	0.098689
C181	C	0.945606	0.262735	-0.633413
C182	C	1.278939	0.596068	-0.300080
C183	C	1.612273	0.929402	0.033253
C184	C	0.905516	0.302991	-0.666104
C185	C	1.238849	0.636324	-0.332771
C186	C	1.572183	0.969657	0.000563
C187	C	0.865412	0.343265	-0.633354
C188	C	1.198746	0.676598	-0.300020
C189	C	1.532079	1.009931	0.033313
C190	C	0.865410	0.343286	-0.567920
C191	C	1.198743	0.676619	-0.234586
C192	C	1.532076	1.009953	0.098747
C193	C	0.900540	0.359672	-0.769767
C194	C	1.233874	0.693005	-0.436434
C195	C	1.567207	1.026339	-0.103101
C196	C	0.900547	0.359652	-0.835200
C197	C	1.233881	0.692985	-0.501867
C198	C	1.567214	1.026318	-0.168534
C199	C	0.905520	0.302924	-0.867925
C200	C	1.238853	0.636257	-0.534591
C201	C	1.572186	0.969591	-0.201258
C202	C	0.910499	0.246215	-0.835208
C203	C	1.243832	0.579548	-0.501875
C204	C	1.577165	0.912882	-0.168542
C205	C	0.910496	0.246237	-0.769774
C206	C	1.243830	0.579570	-0.436441
C207	C	1.577163	0.912903	-0.103107
C208	C	0.905514	0.302972	-0.737056
C209	C	1.238847	0.636305	-0.403723
C210	C	1.572180	0.969638	-0.070390
C211	C	0.945617	0.262620	-0.971620
C212	C	1.278950	0.595953	-0.638286
C213	C	1.612284	0.929287	-0.304953
C214	C	0.945612	0.262592	-1.037056
C215	C	1.278945	0.595925	-0.703723
C216	C	1.612278	0.929259	-0.370390
C217	C	0.865421	0.343127	-1.036996
C218	C	1.198754	0.676460	-0.703662
C219	C	1.532088	1.009794	-0.370329
C220	C	0.865423	0.343150	-0.971560
C221	C	1.198756	0.676483	-0.638227
C222	C	1.532090	1.009816	-0.304893
C223	C	0.905524	0.302897	-0.938876
C224	C	1.238858	0.636230	-0.605543
C225	C	1.572191	0.969564	-0.272209
C226	C	0.905421	0.303019	-0.139383
C227	C	1.238754	0.636352	0.193950
C228	C	1.572088	0.969686	0.527283
C229	C	0.905520	0.302847	-0.069742
C230	C	1.238854	0.636180	0.263591
C231	C	1.572187	0.969514	0.596924
H232	H	0.346504	0.312209	-0.404599
H233	H	0.679838	0.645542	-0.071266
H234	H	1.013171	0.978876	0.262068
H235	H	0.548228	0.376237	-0.374691
H236	H	0.881561	0.709570	-0.041358
H237	H	1.214895	1.042904	0.291976
Cl238	Cl	0.479736	0.314475	-0.429549
Cl239	Cl	0.813069	0.647808	-0.096215
Cl240	Cl	1.146402	0.981142	0.237118
H241	H	0.832696	0.661996	-0.374789
H242	H	1.166029	0.995329	-0.041455
H243	H	1.499362	1.328663	0.291878
H244	H	0.263281	0.229883	-0.229662
H245	H	0.596614	0.563216	0.103671
H246	H	0.929948	0.896550	0.437005
H247	H	0.978260	0.229985	-0.541371
H248	H	1.311593	0.563318	-0.208037
H249	H	1.644927	0.896651	0.125296
H250	H	0.896323	0.405855	-0.743129
H251	H	1.229657	0.739188	-0.409795
H252	H	1.562990	1.072521	-0.076462
H253	H	0.548207	0.229940	-0.229564
H254	H	0.881541	0.563274	0.103769
H255	H	1.214874	0.896607	0.437102
H256	H	0.832847	1.062834	-0.374880
H257	H	1.166180	1.396167	-0.041547
H258	H	1.499513	1.729500	0.291787
H259	H	0.832768	0.376039	-0.659975
H260	H	1.166102	0.709372	-0.326641
H261	H	1.499435	1.042706	0.006692
H262	H	0.263299	0.376183	-0.374793
H263	H	0.596632	0.709517	-0.041460
H264	H	0.929965	1.042850	0.291874
H265	H	0.978157	0.661899	-0.229573
H266	H	1.311490	0.995232	0.103760
H267	H	1.644824	1.328566	0.437094
H268	H	0.978314	1.062736	-0.229667
H269	H	1.311647	1.396070	0.103667
H270	H	1.644981	1.729403	0.437000
H271	H	0.346299	0.293896	-0.199791
H272	H	0.679632	0.627229	0.133542
H273	H	1.012966	0.960563	0.466876
Cl274	Cl	0.479470	0.291688	-0.174744
Cl275	Cl	0.812803	0.625021	0.158589
Cl276	Cl	1.146137	0.958354	0.491922
H277	H	0.978256	0.229938	-0.660077
H278	H	1.311589	0.563271	-0.326744
H279	H	1.644922	0.896605	0.006589
H280	H	0.144592	0.376152	-0.374841
H281	H	0.477925	0.709485	-0.041508
H282	H	0.811258	1.042818	0.291826
H283	H	0.914549	0.200062	-0.743139
H284	H	1.247882	0.533396	-0.409806
H285	H	1.581215	0.866729	-0.076472
H286	H	0.914549	0.200022	-0.861851
H287	H	1.247882	0.533355	-0.528518
H288	H	1.581216	0.866689	-0.195184
Cl289	Cl	0.815038	0.929017	-0.392573
Cl290	Cl	1.148372	1.262351	-0.059240
Cl291	Cl	1.481705	1.595684	0.274093
Cl292	Cl	0.130081	0.211996	-0.211998
Cl293	Cl	0.463414	0.545330	0.121335
Cl294	Cl	0.796748	0.878663	0.454669
Cl295	Cl	0.681411	0.212101	-0.211804
Cl296	Cl	1.014744	0.545434	0.121529
Cl297	Cl	1.348078	0.878768	0.454863
H298	H	0.978107	0.542633	-0.229543
H299	H	1.311440	0.875966	0.103791
H300	H	1.644774	1.209300	0.437124
H301	H	0.832772	0.375897	-1.063612
H302	H	1.166106	0.709231	-0.730278
H303	H	1.499439	1.042564	-0.396945
Cl304	Cl	0.815000	0.393918	-0.526756
Cl305	Cl	1.148333	0.727251	-0.193422
Cl306	Cl	1.481666	1.060584	0.139911
Cl307	Cl	0.814891	0.528176	-0.392492
Cl308	Cl	1.148224	0.861509	-0.059159
Cl309	Cl	1.481557	1.194843	0.274174
H310	H	0.978262	0.943473	-0.229631
H311	H	1.311595	1.276806	0.103703
H312	H	1.644929	1.610139	0.437036
H313	H	0.978266	0.229840	-0.945007
H314	H	1.311600	0.563174	-0.611674
H315	H	1.644933	0.896507	-0.278340
H316	H	0.978262	0.229795	-1.063714
H317	H	1.311595	0.563128	-0.730381
H318	H	1.644928	0.896461	-0.397047
H319	H	0.832776	0.375947	-0.944901
H320	H	1.166110	0.709280	-0.611568
H321	H	1.499443	1.042613	-0.278234
H322	H	0.666935	0.376266	-0.374644
H323	H	1.000268	0.709600	-0.041311
H324	H	1.333601	1.042933	0.292023
Cl325	Cl	0.894294	0.430942	-0.876323
Cl326	Cl	1.227627	0.764276	-0.542990
Cl327	Cl	1.560961	1.097609	-0.209656
