data_functionalizedCrystal
_audit_creation_method	'MofGen! by Chris Wilmer'
_symmetry_space_group_name_H-M	'P1'
_symmetry_Int_Tables_number	1
_symmetry_cell_setting	triclinic
loop_
_symmetry_equiv_pos_as_xyz
  x,y,z
_cell_length_a	19.121324
_cell_length_b	19.077105
_cell_length_c	19.076808
_cell_angle_alpha	90.072392
_cell_angle_beta	85.138196
_cell_angle_gamma	89.971547
loop_
_atom_site_label
_atom_site_type_symbol
_atom_site_fract_x
_atom_site_fract_y
_atom_site_fract_z
Zn1	Zn	-0.426783	-1.045509	-0.304069
Zn2	Zn	-0.093450	-0.712175	0.029264
Zn3	Zn	0.239883	-0.378842	0.362597
Zn4	Zn	-0.304408	-1.045715	-0.427013
Zn5	Zn	0.028925	-0.712382	-0.093679
Zn6	Zn	0.362258	-0.379049	0.239654
Zn7	Zn	-0.304814	-0.933000	-0.304773
Zn8	Zn	0.028519	-0.599667	0.028560
Zn9	Zn	0.361853	-0.266333	0.361893
Zn10	Zn	-0.417323	-0.923635	-0.417237
Zn11	Zn	-0.083989	-0.590302	-0.083904
Zn12	Zn	0.249344	-0.256969	0.249430
O13	O	-0.363332	-0.986965	-0.363273
O14	O	-0.029999	-0.653631	-0.029940
O15	O	0.303335	-0.320298	0.303394
O16	O	-0.414340	-1.143712	-0.324175
O17	O	-0.081006	-0.810379	0.009159
O18	O	0.252327	-0.477046	0.342492
O19	O	-0.206162	-1.034769	-0.415183
O20	O	0.127171	-0.701436	-0.081850
O21	O	0.460504	-0.368102	0.251484
O22	O	-0.325123	-0.951757	-0.206161
O23	O	0.008211	-0.618424	0.127172
O24	O	0.341544	-0.285090	0.460505
O25	O	-0.324431	-1.143864	-0.414500
O26	O	0.008902	-0.810531	-0.081167
O27	O	0.342235	-0.477197	0.252166
O28	O	-0.414733	-1.034417	-0.205644
O29	O	-0.081400	-0.701083	0.127689
O30	O	0.251934	-0.367750	0.461023
O31	O	-0.206460	-0.951957	-0.325374
O32	O	0.126873	-0.618624	0.007959
O33	O	0.460206	-0.285291	0.341292
O34	O	-0.315949	-0.833581	-0.315895
O35	O	0.017385	-0.500248	0.017438
O36	O	0.350718	-0.166915	0.350771
O37	O	-0.516877	-0.935797	-0.397839
O38	O	-0.183544	-0.602463	-0.064506
O39	O	0.149789	-0.269130	0.268827
O40	O	-0.398608	-0.826701	-0.398522
O41	O	-0.065275	-0.493368	-0.065189
O42	O	0.268058	-0.160035	0.268145
O43	O	-0.523828	-1.025336	-0.314695
O44	O	-0.190495	-0.692003	0.018638
O45	O	0.142838	-0.358670	0.351971
O46	O	-0.315257	-1.025689	-0.524234
O47	O	0.018076	-0.692355	-0.190901
O48	O	0.351409	-0.359022	0.142432
O49	O	-0.398215	-0.935997	-0.517052
O50	O	-0.064882	-0.602664	-0.183719
O51	O	0.268452	-0.269330	0.149614
C52	C	-0.356296	-0.804685	-0.356225
C53	C	-0.022963	-0.471352	-0.022891
C54	C	0.310370	-0.138019	0.310442
C55	C	-0.353302	-0.726704	-0.353226
C56	C	-0.019969	-0.393371	-0.019892
C57	C	0.313364	-0.060037	0.313441
C58	C	-0.355682	-0.979867	-0.546188
C59	C	-0.022348	-0.646534	-0.212855
C60	C	0.310985	-0.313201	0.120478
C61	C	-0.352435	-0.976894	-0.624442
C62	C	-0.019101	-0.643561	-0.291108
C63	C	0.314232	-0.310228	0.042225
C64	C	-0.546553	-0.979499	-0.355098
C65	C	-0.213220	-0.646165	-0.021765
C66	C	0.120113	-0.312832	0.311568
C67	C	-0.624632	-0.976317	-0.351615
C68	C	-0.291298	-0.642984	-0.018281
C69	C	0.042035	-0.309651	0.315052
C70	C	-0.661160	-1.017935	-0.396734
C71	C	-0.327827	-0.684601	-0.063401
C72	C	0.005506	-0.351268	0.269932
C73	C	-0.734523	-1.014946	-0.393452
C74	C	-0.401190	-0.681612	-0.060119
C75	C	-0.067857	-0.348279	0.273214
C76	C	-0.771356	-0.970335	-0.345054
C77	C	-0.438023	-0.637001	-0.011721
C78	C	-0.104689	-0.303668	0.321613
C79	C	-0.734822	-0.928716	-0.299930
C80	C	-0.401489	-0.595382	0.033403
C81	C	-0.068155	-0.262049	0.366737
C82	C	-0.661461	-0.931709	-0.303209
C83	C	-0.328127	-0.598376	0.030125
C84	C	0.005206	-0.265042	0.363458
C85	C	-0.992868	-0.959143	-0.332812
C86	C	-0.659534	-0.625810	0.000522
C87	C	-0.326201	-0.292477	0.333855
C88	C	-1.066234	-0.956152	-0.329538
C89	C	-0.732901	-0.622818	0.003796
C90	C	-0.399567	-0.289485	0.337129
C91	C	-1.065930	-1.042383	-0.423060
C92	C	-0.732597	-0.709050	-0.089727
C93	C	-0.399264	-0.375716	0.243607
C94	C	-0.992567	-1.045369	-0.426337
C95	C	-0.659234	-0.712036	-0.093004
C96	C	-0.325901	-0.378702	0.240329
C97	C	-0.956040	-1.003753	-0.381211
C98	C	-0.622707	-0.670419	-0.047877
C99	C	-0.289373	-0.337086	0.285456
C100	C	-0.846345	-0.967277	-0.341700
C101	C	-0.513011	-0.633943	-0.008367
C102	C	-0.179678	-0.300610	0.324967
C103	C	-0.881053	-1.006815	-0.384562
C104	C	-0.547720	-0.673482	-0.051228
C105	C	-0.214386	-0.340148	0.282105
C106	C	-0.180827	-0.994444	-0.371367
C107	C	0.152506	-0.661111	-0.038033
C108	C	0.485840	-0.327777	0.295300
C109	C	-0.102763	-0.997769	-0.374657
C110	C	0.230570	-0.664436	-0.041324
C111	C	0.563904	-0.331103	0.292009
C112	C	-0.370396	-1.169956	-0.370349
C113	C	-0.037062	-0.836623	-0.037016
C114	C	0.296271	-0.503289	0.296317
C115	C	-0.373406	-1.247936	-0.373365
C116	C	-0.040072	-0.914603	-0.040032
C117	C	0.293261	-0.581269	0.293302
C118	C	-0.394859	-0.686505	-0.394907
C119	C	-0.061525	-0.353172	-0.061573
C120	C	0.271808	-0.019838	0.271760
C121	C	-0.392049	-0.613233	-0.392079
C122	C	-0.058716	-0.279900	-0.058746
C123	C	0.274617	0.053433	0.274587
C124	C	-0.347679	-0.580162	-0.347574
C125	C	-0.014346	-0.246829	-0.014241
C126	C	0.318987	0.086504	0.319093
C127	C	-0.306121	-0.620367	-0.305888
C128	C	0.027212	-0.287034	0.027445
C129	C	0.360545	0.046300	0.360779
C130	C	-0.308935	-0.693637	-0.308712
C131	C	0.024398	-0.360304	0.024621
C132	C	0.357732	-0.026970	0.357954
C133	C	-0.334661	-0.361411	-0.334503
C134	C	-0.001328	-0.028077	-0.001170
C135	C	0.332005	0.305256	0.332163
C136	C	-0.331849	-0.288135	-0.331684
C137	C	0.001484	0.045198	0.001650
C138	C	0.334817	0.378532	0.334983
C139	C	-0.417779	-0.281007	-0.417874
C140	C	-0.084445	0.052327	-0.084541
C141	C	0.248888	0.385660	0.248792
C142	C	-0.420585	-0.354278	-0.420698
C143	C	-0.087252	-0.020945	-0.087364
C144	C	0.246082	0.312388	0.245969
C145	C	-0.379030	-0.394477	-0.379009
C146	C	-0.045696	-0.061143	-0.045676
C147	C	0.287637	0.272190	0.287657
N148	N	-0.344805	-0.505267	-0.344684
N149	N	-0.011472	-0.171934	-0.011351
N150	N	0.321862	0.161399	0.321982
N151	N	-0.381908	-0.469370	-0.381895
N152	N	-0.048575	-0.136037	-0.048562
N153	N	0.284758	0.197296	0.284771
C154	C	-0.397600	-1.018499	-0.660872
C155	C	-0.064266	-0.685166	-0.327539
C156	C	0.269067	-0.351832	0.005794
C157	C	-0.394550	-1.015703	-0.734399
C158	C	-0.061217	-0.682369	-0.401066
C159	C	0.272117	-0.349036	-0.067733
C160	C	-0.346331	-0.971305	-0.771495
C161	C	-0.012998	-0.637971	-0.438161
C162	C	0.320335	-0.304638	-0.104828
C163	C	-0.301164	-0.929695	-0.735059
C164	C	0.032169	-0.596362	-0.401725
C165	C	0.365502	-0.263029	-0.068392
C166	C	-0.304218	-0.932489	-0.661533
C167	C	0.029115	-0.599155	-0.328199
C168	C	0.362449	-0.265822	0.005134
C169	C	-0.332195	-0.958336	-0.991430
C170	C	0.001138	-0.625003	-0.658096
C171	C	0.334472	-0.291670	-0.324763
C172	C	-0.329143	-0.955548	-1.064961
C173	C	0.004190	-0.622215	-0.731628
C174	C	0.337523	-0.288881	-0.398294
C175	C	-0.422530	-1.041555	-1.064297
C176	C	-0.089197	-0.708221	-0.730963
C177	C	0.244136	-0.374888	-0.397630
C178	C	-0.425577	-1.044347	-0.990769
C179	C	-0.092243	-0.711014	-0.657436
C180	C	0.241090	-0.377680	-0.324103
C181	C	-0.380412	-1.002735	-0.954340
C182	C	-0.047079	-0.669402	-0.621006
C183	C	0.286254	-0.336068	-0.287673
N184	N	-0.343211	-0.968447	-0.846651
N185	N	-0.009878	-0.635114	-0.513318
N186	N	0.323455	-0.301780	-0.179985
N187	N	-0.383536	-1.005589	-0.879184
N188	N	-0.050203	-0.672256	-0.545851
N189	N	0.283131	-0.338923	-0.212517
C190	C	-0.371028	-0.994108	-0.179644
C191	C	-0.037695	-0.660775	0.153690
C192	C	0.295638	-0.327442	0.487023
C193	C	-0.374308	-0.997153	-0.101392
C194	C	-0.040975	-0.663819	0.231942
C195	C	0.292358	-0.330486	0.565275
H196	H	-0.631177	-1.054264	-0.436143
H197	H	-0.297843	-0.720931	-0.102810
H198	H	0.035490	-0.387597	0.230523
N199	N	-0.264111	-0.737002	-0.263762
N200	N	0.069222	-0.403669	0.069571
N201	N	0.402555	-0.070335	0.402905
H202	H	-0.295245	-0.767503	-0.231078
H203	H	0.038089	-0.434170	0.102256
H204	H	0.371422	-0.100837	0.435589
H205	H	-0.235579	-0.704891	-0.235184
H206	H	0.097754	-0.371558	0.098149
H207	H	0.431087	-0.038225	0.431483
H208	H	-0.962582	-1.081684	-0.465759
H209	H	-0.629249	-0.748351	-0.132426
H210	H	-0.295916	-0.415018	0.200908
H211	H	-0.876342	-0.930953	-0.302295
H212	H	-0.543008	-0.597620	0.031038
H213	H	-0.209675	-0.264286	0.364371
H214	H	-0.764262	-1.048835	-0.430193
H215	H	-0.430929	-0.715502	-0.096860
H216	H	-0.097595	-0.382168	0.236473
N217	N	-0.283476	-0.913464	-0.952146
N218	N	0.049858	-0.580130	-0.618813
N219	N	0.383191	-0.246797	-0.285480
H220	H	-0.253317	-0.944488	-0.924179
H221	H	0.080016	-0.611154	-0.590846
H222	H	0.413349	-0.277821	-0.257512
H223	H	-0.312052	-0.880926	-0.919170
H224	H	0.021281	-0.547593	-0.585836
H225	H	0.354615	-0.214260	-0.252503
N226	N	-1.105950	-0.908014	-0.277345
N227	N	-0.772617	-0.574680	0.055989
N228	N	-0.439283	-0.241347	0.389322
H229	H	-1.133918	-0.873146	-0.303354
H230	H	-0.800584	-0.539813	0.029979
H231	H	-0.467251	-0.206479	0.363313
H232	H	-1.071625	-0.882153	-0.249280
H233	H	-0.738291	-0.548820	0.084053
H234	H	-0.404958	-0.215487	0.417386
N235	N	-0.622064	-0.886823	-0.254539
N236	N	-0.288731	-0.553490	0.078795
N237	N	0.044602	-0.220156	0.412128
H238	H	-0.632434	-0.835749	-0.262961
H239	H	-0.299101	-0.502415	0.070372
H240	H	0.034232	-0.169082	0.403706
H241	H	-0.570015	-0.895547	-0.263979
H242	H	-0.236682	-0.562213	0.069355
H243	H	0.096651	-0.228880	0.402688
H244	H	-0.295722	-0.261211	-0.295434
H245	H	0.037611	0.072122	0.037900
H246	H	0.370944	0.405455	0.371233
H247	H	-0.261906	-0.893543	-0.765267
H248	H	0.071427	-0.560209	-0.431934
H249	H	0.404760	-0.226876	-0.098601
N250	N	-0.436864	-0.569875	-0.437042
N251	N	-0.103531	-0.236542	-0.103709
N252	N	0.229803	0.096792	0.229624
H253	H	-0.405726	-0.539372	-0.469721
H254	H	-0.072393	-0.206038	-0.136387
H255	H	0.260940	0.127295	0.196946
H256	H	-0.469489	-0.539303	-0.405812
H257	H	-0.136155	-0.205970	-0.072479
H258	H	0.197178	0.127363	0.260855
H259	H	-0.464840	-1.080499	-0.960568
H260	H	-0.131507	-0.747166	-0.627235
H261	H	0.201827	-0.413832	-0.293901
H262	H	-0.267441	-0.898609	-0.631871
H263	H	0.065893	-0.565275	-0.298538
H264	H	0.399226	-0.231942	0.034795
N265	N	-0.471242	-1.086433	-1.103588
N266	N	-0.137908	-0.753099	-0.770255
N267	N	0.195425	-0.419766	-0.436921
H268	H	-0.461993	-1.077928	-1.155795
H269	H	-0.128660	-0.744595	-0.822462
H270	H	0.204673	-0.411261	-0.489129
H271	H	-0.521512	-1.073916	-1.088066
H272	H	-0.188179	-0.740583	-0.754732
H273	H	0.145155	-0.407249	-0.421399
N274	N	-0.277132	-0.907661	-1.104974
N275	N	0.056201	-0.574328	-0.771640
N276	N	0.389534	-0.240995	-0.438307
H277	H	-0.248984	-0.881723	-1.070739
H278	H	0.084349	-0.548389	-0.737406
H279	H	0.417682	-0.215056	-0.404073
H280	H	-0.303180	-0.872852	-1.132973
H281	H	0.030153	-0.539518	-0.799640
H282	H	0.363487	-0.206185	-0.466306
N283	N	-0.449605	-1.066384	-0.620860
N284	N	-0.116272	-0.733051	-0.287527
N285	N	0.217061	-0.399718	0.045806
H286	H	-0.440144	-1.116479	-0.636037
H287	H	-0.106811	-0.783146	-0.302703
H288	H	0.226522	-0.449812	0.030630
H289	H	-0.498811	-1.052856	-0.631000
H290	H	-0.165478	-0.719522	-0.297667
H291	H	0.167856	-0.386189	0.035667
N292	N	-1.105327	-1.087265	-0.471732
N293	N	-0.771993	-0.753931	-0.138399
N294	N	-0.438660	-0.420598	0.194935
H295	H	-1.157390	-1.078601	-0.462314
H296	H	-0.824056	-0.745267	-0.128980
H297	H	-0.490723	-0.411934	0.204353
H298	H	-1.094899	-1.138320	-0.463287
H299	H	-0.761566	-0.804987	-0.129954
H300	H	-0.428232	-0.471654	0.203380
H301	H	-0.269998	-0.593435	-0.269648
H302	H	0.063336	-0.260102	0.063686
H303	H	0.396669	0.073232	0.397019
N304	N	-0.442712	-0.722168	-0.442915
N305	N	-0.109379	-0.388834	-0.109582
N306	N	0.223954	-0.055501	0.223751
H307	H	-0.492885	-0.707803	-0.429328
H308	H	-0.159552	-0.374470	-0.095995
H309	H	0.173781	-0.041136	0.237339
H310	H	-0.438130	-0.774675	-0.438363
H311	H	-0.104796	-0.441342	-0.105030
H312	H	0.228537	-0.108008	0.228303
N313	N	-0.953477	-0.914271	-0.284131
N314	N	-0.620143	-0.580938	0.049202
N315	N	-0.286810	-0.247605	0.382536
H316	H	-0.987944	-0.885560	-0.252973
H317	H	-0.654611	-0.552226	0.080360
H318	H	-0.321277	-0.218893	0.413694
H319	H	-0.920576	-0.881927	-0.312878
H320	H	-0.587243	-0.548593	0.020455
H321	H	-0.253910	-0.215260	0.353788
H322	H	-0.451611	-0.248269	-0.451814
H323	H	-0.118278	0.085064	-0.118481
H324	H	0.215055	0.418397	0.214853
N325	N	-0.468437	-0.389947	-0.468704
N326	N	-0.135104	-0.056613	-0.135371
N327	N	0.198230	0.276720	0.197963
H328	H	-0.494337	-0.353362	-0.494681
H329	H	-0.161004	-0.020028	-0.161348
H330	H	0.172330	0.313305	0.171985
H331	H	-0.503356	-0.420138	-0.439820
H332	H	-0.170023	-0.086805	-0.106486
H333	H	0.163310	0.246528	0.226847
H334	H	-0.764817	-0.892396	-0.260520
H335	H	-0.431484	-0.559062	0.072813
H336	H	-0.098151	-0.225729	0.406147
N337	N	-0.443297	-1.060539	-0.773691
N338	N	-0.109964	-0.727206	-0.440357
N339	N	0.223369	-0.393872	-0.107024
H340	H	-0.474315	-1.089080	-0.739033
H341	H	-0.140981	-0.755746	-0.405700
H342	H	0.192352	-0.422413	-0.072367
H343	H	-0.414753	-1.093043	-0.806728
H344	H	-0.081419	-0.759710	-0.473395
H345	H	0.251914	-0.426377	-0.140062
H346	H	-0.300818	-0.394131	-0.300563
H347	H	0.032515	-0.060798	0.032770
H348	H	0.365848	0.272535	0.366104
H349	H	-0.851061	-1.043140	-0.423965
H350	H	-0.517728	-0.709806	-0.090631
H351	H	-0.184395	-0.376473	0.242702
