data_functionalizedCrystal
_audit_creation_method	'MofGen! by Chris Wilmer'
_symmetry_space_group_name_H-M	'P1'
_symmetry_Int_Tables_number	1
_symmetry_cell_setting	triclinic
loop_
_symmetry_equiv_pos_as_xyz
  x,y,z
_cell_length_a	25.639239
_cell_length_b	25.639242
_cell_length_c	25.639233
_cell_angle_alpha	90.022166
_cell_angle_beta	89.981253
_cell_angle_gamma	89.965787
loop_
_atom_site_label
_atom_site_type_symbol
_atom_site_fract_x
_atom_site_fract_y
_atom_site_fract_z
Zn1	Zn	-0.208277	-0.799225	-0.295742
Zn2	Zn	-0.295696	-0.799149	-0.208307
Zn3	Zn	-0.208269	-0.711801	-0.208306
Zn4	Zn	-0.295676	-0.711746	-0.295696
O5	O	-0.251979	-0.755480	-0.252013
O6	O	-0.219884	-0.872380	-0.284163
O7	O	-0.284103	-0.787553	-0.135141
O8	O	-0.135105	-0.723453	-0.219924
O9	O	-0.284111	-0.872324	-0.219924
O10	O	-0.135111	-0.787683	-0.284163
O11	O	-0.219871	-0.723379	-0.135141
O12	O	-0.219853	-0.638629	-0.219880
O13	O	-0.284078	-0.723360	-0.368868
O14	O	-0.284070	-0.638589	-0.284085
O15	O	-0.219866	-0.787630	-0.368901
O16	O	-0.368858	-0.787499	-0.219880
O17	O	-0.368844	-0.723286	-0.284085
C18	C	-0.251959	-0.619638	-0.251977
C19	C	-0.251963	-0.561524	-0.251975
C20	C	-0.387822	-0.755392	-0.251989
C21	C	-0.445936	-0.755403	-0.251996
C22	C	-0.251970	-0.755497	-0.388386
C23	C	-0.251966	-0.755504	-0.446500
C24	C	-0.806294	-0.789004	-0.218638
C25	C	-0.860898	-0.789024	-0.218645
O26	O	-0.889131	-0.817502	-0.190257
N27	N	-0.888218	-0.755572	-0.252048
C28	C	-0.860932	-0.722102	-0.285449
O29	O	-0.889184	-0.693651	-0.313861
C30	C	-0.806328	-0.722085	-0.285444
C31	C	-0.779011	-0.755535	-0.252036
C32	C	-0.778976	-0.822452	-0.185233
C33	C	-0.724376	-0.822431	-0.185226
C34	C	-0.697093	-0.788962	-0.218623
C35	C	-0.724410	-0.755514	-0.252028
C36	C	-0.779042	-0.688617	-0.318847
C37	C	-0.724435	-0.688603	-0.318840
C38	C	-0.697118	-0.722053	-0.285432
C39	C	-0.642527	-0.722024	-0.285418
N40	N	-0.615206	-0.755475	-0.252016
C41	C	-0.642490	-0.788944	-0.218618
C42	C	-0.975602	-0.722141	-0.285457
C43	C	-1.030204	-0.722155	-0.285459
C44	C	-1.030167	-0.789078	-0.218656
C45	C	-0.975564	-0.789061	-0.218652
C46	C	-0.948282	-0.755593	-0.252055
C47	C	-0.527824	-0.788897	-0.218605
C48	C	-0.473219	-0.788872	-0.218599
C49	C	-0.473261	-0.721951	-0.285403
C50	C	-0.527862	-0.721974	-0.285408
C51	C	-0.555142	-0.755452	-0.252007
O52	O	-0.614260	-0.693562	-0.313793
O53	O	-0.614231	-0.817396	-0.190216
C54	C	-0.115606	-0.755583	-0.252048
C55	C	-0.057492	-0.755627	-0.252064
C56	C	-0.252000	-0.891853	-0.252049
C57	C	-0.252009	-0.949967	-0.252064
C58	C	-0.285473	-0.201149	-0.285413
C59	C	-0.285477	-0.146544	-0.285421
O60	O	-0.313943	-0.118297	-0.313821
N61	N	-0.251994	-0.119241	-0.252047
C62	C	-0.218502	-0.146545	-0.218666
O63	O	-0.190022	-0.118308	-0.190280
C64	C	-0.218496	-0.201149	-0.218661
C65	C	-0.251985	-0.228449	-0.252034
C66	C	-0.318959	-0.228449	-0.318783
C67	C	-0.318956	-0.283049	-0.318774
C68	C	-0.285468	-0.310350	-0.285395
C69	C	-0.251983	-0.283049	-0.252024
C70	C	-0.185002	-0.228452	-0.185283
C71	C	-0.185000	-0.283059	-0.185281
C72	C	-0.218488	-0.310359	-0.218654
C73	C	-0.218492	-0.364950	-0.218636
N74	N	-0.251974	-0.392253	-0.252010
C75	C	-0.285463	-0.364953	-0.285389
C76	C	-0.218515	-0.031875	-0.218680
C77	C	-0.218523	0.022728	-0.218683
C78	C	-0.285497	0.022725	-0.285438
C79	C	-0.285492	-0.031878	-0.285433
C80	C	-0.251998	-0.059178	-0.252054
C81	C	-0.285455	-0.479618	-0.285368
C82	C	-0.285451	-0.534223	-0.285354
C83	C	-0.218475	-0.534216	-0.218601
C84	C	-0.218481	-0.479615	-0.218612
C85	C	-0.251972	-0.452318	-0.252000
O86	O	-0.190038	-0.393232	-0.190252
O87	O	-0.313933	-0.393197	-0.313776
C88	C	-0.218432	-0.789012	-0.806886
C89	C	-0.218417	-0.789019	-0.861491
O90	O	-0.189967	-0.817466	-0.889747
N91	N	-0.251844	-0.755562	-0.888783
C92	C	-0.285283	-0.722093	-0.861468
O93	O	-0.313713	-0.693636	-0.889695
C94	C	-0.285294	-0.722084	-0.806864
C95	C	-0.251870	-0.755547	-0.779575
C96	C	-0.185009	-0.822472	-0.779597
C97	C	-0.185025	-0.822466	-0.724997
C98	C	-0.218462	-0.789000	-0.697685
C99	C	-0.251885	-0.755541	-0.724974
C100	C	-0.318731	-0.688613	-0.779550
C101	C	-0.318739	-0.688607	-0.724943
C102	C	-0.285314	-0.722069	-0.697654
C103	C	-0.285338	-0.722070	-0.643063
N104	N	-0.251912	-0.755526	-0.615771
C105	C	-0.218474	-0.788992	-0.643082
C106	C	-0.285256	-0.722113	-0.976138
C107	C	-0.285247	-0.722124	-1.030741
C108	C	-0.218381	-0.789049	-1.030760
C109	C	-0.218392	-0.789041	-0.976157
C110	C	-0.251829	-0.755570	-0.948846
C111	C	-0.218509	-0.788977	-0.528417
C112	C	-0.218529	-0.788970	-0.473811
C113	C	-0.285393	-0.722043	-0.473797
C114	C	-0.285375	-0.722052	-0.528397
C115	C	-0.251929	-0.755521	-0.555706
O116	O	-0.313773	-0.693635	-0.614771
O117	O	-0.190044	-0.817439	-0.614847
C118	C	-0.251951	-0.755494	-0.116170
C119	C	-0.251807	-0.755588	-0.058057
H120	H	-0.450979	-0.816111	-0.191392
H121	H	-0.157721	-0.305283	-0.158103
C122	C	-0.148134	-0.418257	-0.211498
C123	C	-0.181663	-0.449608	-0.181932
H124	H	-0.125401	-0.399735	-0.188856
H125	H	-0.128181	-0.439589	-0.234310
H126	H	-0.168082	-0.394179	-0.231373
H127	H	-0.161715	-0.473689	-0.162061
H128	H	-0.201618	-0.428275	-0.159111
C129	C	-0.211233	-0.859324	-0.589834
C130	C	-0.181747	-0.825767	-0.558431
H131	H	-0.188538	-0.882035	-0.608366
H132	H	-0.234019	-0.879299	-0.568536
H133	H	-0.231131	-0.839394	-0.613905
H134	H	-0.161852	-0.845697	-0.534358
H135	H	-0.158951	-0.805791	-0.579731
C136	C	-0.351472	-0.655899	-0.522891
C137	C	-0.322118	-0.685273	-0.558397
H138	H	-0.374151	-0.633189	-0.541409
H139	H	-0.371481	-0.678664	-0.501603
H140	H	-0.328690	-0.635918	-0.501585
H141	H	-0.344901	-0.705257	-0.579700
H142	H	-0.302108	-0.662506	-0.579693
C143	C	-0.589258	-0.796251	-0.148295
C144	C	-0.557813	-0.825698	-0.181898
H145	H	-0.607775	-0.818971	-0.125638
H146	H	-0.567991	-0.773483	-0.128265
H147	H	-0.613341	-0.776333	-0.168195
H148	H	-0.533727	-0.845613	-0.161998
H149	H	-0.579082	-0.848475	-0.201931
H150	H	-0.312723	-0.556449	-0.312530
C151	C	-0.355604	-0.714788	-0.914726
C152	C	-0.322019	-0.685327	-0.946118
H153	H	-0.378297	-0.692077	-0.896193
H154	H	-0.375597	-0.737553	-0.936032
H155	H	-0.335694	-0.734708	-0.890658
H156	H	-0.341930	-0.665410	-0.970190
H157	H	-0.302024	-0.662552	-0.924811
C158	C	-0.351690	-0.026384	-0.351419
C159	C	-0.322298	-0.061884	-0.322122
H160	H	-0.374410	-0.044907	-0.374072
H161	H	-0.371657	-0.005069	-0.328603
H162	H	-0.328935	-0.005104	-0.371456
H163	H	-0.345053	-0.083161	-0.302081
H164	H	-0.302330	-0.083208	-0.344941
H165	H	-0.702137	-0.849670	-0.158024
C166	C	-0.188733	-0.617923	-0.188962
C167	C	-0.181663	-0.564232	-0.181914
H168	H	-0.166002	-0.636453	-0.166317
H169	H	-0.223846	-0.626845	-0.181240
H170	H	-0.181137	-0.626884	-0.224108
H171	H	-0.189262	-0.555270	-0.146769
H172	H	-0.146542	-0.555307	-0.189632
H173	H	-0.346225	-0.305272	-0.345950
C174	C	-0.385163	-0.233950	-0.384758
C175	C	-0.355777	-0.198446	-0.355475
H176	H	-0.407899	-0.215430	-0.407406
H177	H	-0.362409	-0.255265	-0.404796
H178	H	-0.405118	-0.255229	-0.361929
H179	H	-0.335819	-0.177170	-0.378304
H180	H	-0.378534	-0.177123	-0.335435
C181	C	-0.152428	-0.855123	-0.479324
C182	C	-0.181783	-0.825752	-0.443816
H183	H	-0.129742	-0.877826	-0.460806
H184	H	-0.175206	-0.875106	-0.500623
H185	H	-0.132423	-0.832353	-0.500617
H186	H	-0.201791	-0.848522	-0.422525
H187	H	-0.159002	-0.805767	-0.422507
H188	H	-0.801185	-0.849709	-0.158037
C189	C	-0.663009	-0.681270	-0.389160
C190	C	-0.694447	-0.651813	-0.355558
H191	H	-0.644499	-0.658556	-0.411829
H192	H	-0.638926	-0.701181	-0.369264
H193	H	-0.684285	-0.704044	-0.409183
H194	H	-0.673170	-0.629041	-0.335533
H195	H	-0.718533	-0.631893	-0.375456
C196	C	-0.981025	-0.855211	-0.152621
C197	C	-0.945539	-0.825834	-0.181932
H198	H	-0.962490	-0.877916	-0.129954
H199	H	-1.002348	-0.832449	-0.132601
H200	H	-1.002296	-0.875198	-0.175431
H201	H	-0.924270	-0.805843	-0.159122
H202	H	-0.924207	-0.848598	-0.201953
H203	H	-1.052391	-0.816333	-0.191464
C204	C	-0.118925	-0.888611	-0.730517
C205	C	-0.148276	-0.859243	-0.695005
H206	H	-0.096234	-0.911313	-0.712003
H207	H	-0.141704	-0.908596	-0.751814
H208	H	-0.098924	-0.865839	-0.751813
H209	H	-0.168280	-0.882015	-0.673711
H210	H	-0.125494	-0.839257	-0.673699
C211	C	-0.384840	-0.622461	-0.730413
C212	C	-0.355505	-0.651823	-0.694924
H213	H	-0.407542	-0.599758	-0.711880
H214	H	-0.362052	-0.602477	-0.751700
H215	H	-0.404829	-0.645237	-0.751720
H216	H	-0.335513	-0.629047	-0.673619
H217	H	-0.378296	-0.671808	-0.673628
C218	C	-1.024743	-0.656005	-0.351490
C219	C	-1.060228	-0.685383	-0.322180
H220	H	-1.043278	-0.633307	-0.374164
H221	H	-1.003478	-0.636015	-0.328684
H222	H	-1.003413	-0.678771	-0.371507
H223	H	-1.081556	-0.662617	-0.302159
H224	H	-1.081502	-0.705374	-0.344989
C225	C	-0.795819	-0.663108	-0.407360
C226	C	-0.809059	-0.651851	-0.355576
H227	H	-0.814353	-0.640410	-0.430037
H228	H	-0.759398	-0.658310	-0.412126
H229	H	-0.804738	-0.698236	-0.415040
H230	H	-0.800138	-0.616723	-0.347895
H231	H	-0.845489	-0.656644	-0.350808
H232	H	-0.191241	-0.054099	-0.191496
H233	H	-0.312619	-0.694798	-0.451550
C234	C	-0.914180	-0.714795	-0.355780
C235	C	-0.945616	-0.685344	-0.322172
H236	H	-0.895673	-0.692078	-0.378448
H237	H	-0.890094	-0.734708	-0.335889
H238	H	-0.935457	-0.737568	-0.375804
H239	H	-0.924339	-0.662574	-0.302146
H240	H	-0.969706	-0.665423	-0.342065
H241	H	-0.312763	0.044963	-0.312619
H242	H	-0.191258	0.044951	-0.191502
C243	C	-0.522411	-0.655825	-0.351442
C244	C	-0.557892	-0.685206	-0.322130
H245	H	-0.540949	-0.633131	-0.374118
H246	H	-0.501149	-0.635830	-0.328637
H247	H	-0.501077	-0.678589	-0.371457
H248	H	-0.579224	-0.662442	-0.302112
H249	H	-0.579162	-0.705202	-0.344938
C250	C	-0.389569	-0.692219	-0.315053
C251	C	-0.443264	-0.685165	-0.322115
H252	H	-0.371051	-0.669513	-0.337723
H253	H	-0.380648	-0.684583	-0.279919
H254	H	-0.380594	-0.727343	-0.322737
H255	H	-0.452241	-0.650041	-0.314427
H256	H	-0.452189	-0.692797	-0.357257
C257	C	-0.292837	-0.418257	-0.355704
C258	C	-0.322270	-0.449617	-0.322066
H259	H	-0.315567	-0.399738	-0.378360
H260	H	-0.272902	-0.394180	-0.335833
H261	H	-0.270086	-0.439586	-0.375739
H262	H	-0.345018	-0.428287	-0.302028
H263	H	-0.342214	-0.473696	-0.341939
C264	C	-0.118791	-0.233957	-0.119313
C265	C	-0.148185	-0.198453	-0.148603
H266	H	-0.096057	-0.215437	-0.096671
H267	H	-0.141540	-0.255229	-0.099269
H268	H	-0.098833	-0.255280	-0.142138
H269	H	-0.168146	-0.177133	-0.125778
H270	H	-0.125433	-0.177173	-0.168649
C271	C	-0.211143	-0.859368	-0.914768
C272	C	-0.181647	-0.825818	-0.946162
H273	H	-0.188454	-0.882074	-0.896256
H274	H	-0.231051	-0.839437	-0.890687
H275	H	-0.233920	-0.879354	-0.936075
H276	H	-0.158871	-0.805830	-0.924855
H277	H	-0.161729	-0.845751	-0.970246
H278	H	-0.157777	-0.849723	-0.801828
H279	H	-0.191153	-0.816298	-1.053007
C280	C	-0.373777	-0.696592	-1.047525
C281	C	-0.321995	-0.685345	-1.060730
H282	H	-0.396462	-0.673881	-1.066035
H283	H	-0.381428	-0.731711	-1.056489
H284	H	-0.378559	-0.691803	-1.011094
H285	H	-0.317212	-0.690138	-1.097161
H286	H	-0.314341	-0.650217	-1.051769
C287	C	-0.325975	-0.618287	-0.840936
C288	C	-0.355474	-0.651835	-0.809543
H289	H	-0.348662	-0.595585	-0.859455
H290	H	-0.303201	-0.598302	-0.819634
H291	H	-0.306062	-0.638224	-0.865018
H292	H	-0.375384	-0.631898	-0.785459
H293	H	-0.378257	-0.671821	-0.830848
