data_functionalizedCrystal
_audit_creation_method	'MofGen! by Chris Wilmer'
_symmetry_space_group_name_H-M	'P1'
_symmetry_Int_Tables_number	1
_symmetry_cell_setting	triclinic
loop_
_symmetry_equiv_pos_as_xyz
  x,y,z
_cell_length_a	23.532355
_cell_length_b	11.792241
_cell_length_c	10.268362
_cell_angle_alpha	90.005428
_cell_angle_beta	90.001234
_cell_angle_gamma	96.489543
loop_
_atom_site_label
_atom_site_type_symbol
_atom_site_fract_x
_atom_site_fract_y
_atom_site_fract_z
O1	O	0.756094	-0.137491	-0.108124
O2	O	1.256094	0.362509	0.391876
O3	O	0.590344	-0.157487	-0.108165
O4	O	1.090344	0.342513	0.391835
O5	O	0.677241	0.017778	-0.108134
O6	O	1.177241	0.517778	0.391866
O7	O	0.669197	-0.312756	-0.108155
O8	O	1.169197	0.187244	0.391845
O9	O	0.677234	0.017785	0.108466
O10	O	1.177234	0.517785	0.608466
O11	O	0.590337	-0.157480	0.108435
O12	O	1.090337	0.342520	0.608435
O13	O	0.756086	-0.137484	0.108477
O14	O	1.256086	0.362516	0.608477
Cu15	Cu	0.673211	-0.147481	0.128234
Cu16	Cu	1.173211	0.352519	0.628234
Cu17	Cu	0.673220	-0.147490	-0.127922
Cu18	Cu	1.173220	0.352510	0.372078
O19	O	0.669189	-0.312749	0.108446
O20	O	1.169189	0.187251	0.608446
C21	C	0.569121	-0.156984	0.000130
C22	C	1.069121	0.343016	0.500130
C23	C	0.505894	-0.155481	0.000114
C24	C	1.005894	0.344519	0.500114
C25	C	0.113820	-0.146035	0.118238
C26	C	0.613820	0.353965	0.618238
C27	C	0.054412	-0.144605	0.118243
C28	C	0.554412	0.355395	0.618243
O29	O	0.023685	-0.143824	0.218655
O30	O	0.523685	0.356176	0.718655
N31	N	0.024703	-0.143900	0.000175
N32	N	0.524703	0.356100	0.500175
C33	C	0.054406	-0.144613	-0.117906
C34	C	0.554406	0.355387	0.382094
O35	O	0.023682	-0.143881	-0.218332
O36	O	0.523682	0.356119	0.281668
C37	C	0.113814	-0.146035	-0.117910
C38	C	0.613814	0.353965	0.382090
C39	C	0.143518	-0.146751	0.000166
C40	C	0.643518	0.353249	0.500166
C41	C	0.143525	-0.146750	0.236305
C42	C	0.643525	0.353250	0.736305
C43	C	0.202928	-0.148182	0.236299
C44	C	0.702928	0.351818	0.736299
C45	C	0.232627	-0.148899	0.118227
C46	C	0.732627	0.351101	0.618227
C47	C	0.202922	-0.148183	0.000160
C48	C	0.702922	0.351817	0.500160
C49	C	0.143516	-0.146740	-0.235990
C50	C	0.643516	0.353260	0.264010
C51	C	0.202928	-0.148161	-0.235984
C52	C	0.702928	0.351839	0.264016
C53	C	0.232632	-0.148877	-0.117908
C54	C	0.732632	0.351123	0.382092
C55	C	0.292025	-0.150331	-0.117917
C56	C	0.792025	0.349669	0.382083
N57	N	0.321733	-0.151037	0.000151
N58	N	0.821733	0.348963	0.500151
C59	C	0.292034	-0.150320	0.118223
C60	C	0.792034	0.349680	0.618223
C61	C	-0.070353	-0.141626	-0.117889
C62	C	0.429647	0.358374	0.382111
C63	C	-0.129760	-0.140213	-0.117887
C64	C	0.370240	0.359787	0.382113
C65	C	-0.129750	-0.140203	0.118263
C66	C	0.370250	0.359797	0.618263
C67	C	-0.070343	-0.141624	0.118260
C68	C	0.429657	0.358376	0.618260
C69	C	-0.040644	-0.142331	0.000179
C70	C	0.459356	0.357669	0.500179
C71	C	0.416786	-0.153328	0.118203
C72	C	0.916786	0.346672	0.618203
C73	C	0.476195	-0.154764	0.118187
C74	C	0.976195	0.345236	0.618187
C75	C	0.476180	-0.154768	-0.117963
C76	C	0.976180	0.345232	0.382037
C77	C	0.416777	-0.153338	-0.117948
C78	C	0.916777	0.346662	0.382052
C79	C	0.387081	-0.152614	0.000146
C80	C	0.887081	0.347386	0.500146
O81	O	0.322789	-0.151109	-0.218278
O82	O	0.822789	0.348891	0.281722
O83	O	0.322767	-0.151037	0.218633
O84	O	0.822767	0.348963	0.718633
C85	C	0.676732	0.060060	0.000165
C86	C	1.176732	0.560060	0.500165
C87	C	0.675220	0.186038	0.000164
C88	C	1.175220	0.686038	0.500164
C89	C	0.777309	-0.137987	0.000179
C90	C	1.277309	0.362013	0.500179
C91	C	0.840537	-0.139490	0.000186
C92	C	1.340537	0.360510	0.500186
C93	C	0.669698	-0.355031	0.000143
C94	C	1.169698	0.144969	0.500143
C95	C	0.671211	-0.481009	0.000136
C96	C	1.171211	0.018991	0.500136
N97	N	0.673209	-0.147475	0.308399
N98	N	1.173209	0.352525	0.808399
C99	C	0.672439	0.416683	0.000141
C100	C	1.172439	0.916683	0.500141
C101	C	0.673984	0.288335	0.000154
C102	C	1.173984	0.788335	0.500154
N103	N	0.673226	-0.147487	-0.308088
N104	N	1.173226	0.352513	0.191912
C105	C	0.673217	-0.147487	0.574070
C106	C	1.173217	0.352513	1.074070
C107	C	0.673210	-0.147484	0.426232
C108	C	1.173210	0.352516	0.926232
H109	H	0.500372	-0.155357	-0.214094
H110	H	1.000372	0.344643	0.285906
C111	C	0.384095	-0.152553	-0.247827
C112	C	0.884095	0.347447	0.252173
C113	C	0.398435	-0.054183	-0.345220
C114	C	0.898435	0.445817	0.154780
C115	C	0.365759	-0.053383	-0.475100
C116	C	0.865759	0.446617	0.024900
C117	C	0.318742	-0.150953	-0.507586
C118	C	0.818742	0.349047	-0.007586
C119	C	0.304400	-0.249331	-0.410189
C120	C	0.804400	0.250669	0.089811
C121	C	0.337076	-0.250131	-0.280310
C122	C	0.837076	0.249869	0.219690
H123	H	0.433242	0.018051	-0.321175
H124	H	0.933242	0.518051	0.178825
H125	H	0.376376	0.019443	-0.547199
H126	H	0.876376	0.519443	-0.047199
H127	H	0.294553	-0.150361	-0.603730
H128	H	0.794553	0.349639	-0.103730
H129	H	0.269593	-0.321564	-0.434235
H130	H	0.769593	0.178436	0.065765
H131	H	0.326459	-0.322957	-0.208211
H132	H	0.826459	0.177043	0.291789
H133	H	0.227109	-0.148759	0.332449
H134	H	0.727109	0.351241	0.832449
C135	C	0.508868	-0.155539	0.248081
C136	C	1.008868	0.344461	0.748081
C137	C	0.494529	-0.253895	0.345494
C138	C	0.994529	0.246105	0.845494
C139	C	0.527199	-0.254663	0.475384
C140	C	1.027199	0.245337	0.975384
C141	C	0.574208	-0.157076	0.507862
C142	C	1.074208	0.342924	1.007862
C143	C	0.588549	-0.058713	0.410446
C144	C	1.088549	0.441287	0.910446
C145	C	0.555879	-0.057945	0.280555
C146	C	1.055879	0.442055	0.780555
H147	H	0.459728	-0.326141	0.321455
H148	H	0.959728	0.173859	0.821455
H149	H	0.516583	-0.327479	0.547498
H150	H	1.016583	0.172521	1.047498
H151	H	0.598393	-0.157645	0.604014
H152	H	1.098393	0.342355	1.104014
H153	H	0.623350	0.013533	0.434485
H154	H	1.123350	0.513533	0.934485
H155	H	0.566496	0.014870	0.208442
H156	H	1.066496	0.514870	0.708442
H157	H	0.392615	-0.152749	0.214365
H158	H	0.892615	0.347251	0.714365
H159	H	-0.153941	-0.139647	-0.214037
H160	H	0.346059	0.360353	0.285963
H161	H	0.119350	-0.146164	0.332459
H162	H	0.619350	0.353836	0.832459
H163	H	0.119341	-0.146155	-0.332141
H164	H	0.619341	0.353845	0.167859
H165	H	-0.046161	-0.142209	0.214408
H166	H	0.453839	0.357791	0.714408
H167	H	-0.153941	-0.139617	0.214404
H168	H	0.346059	0.360383	0.714404
C169	C	-0.037689	-0.142423	-0.247790
C170	C	0.462311	0.357577	0.252210
C171	C	-0.039700	-0.043673	-0.345197
C172	C	0.460300	0.456327	0.154803
C173	C	-0.007039	-0.044469	-0.475096
C174	C	0.492961	0.455531	0.024904
C175	C	0.027631	-0.144015	-0.507587
C176	C	0.527631	0.355985	-0.007587
C177	C	0.029643	-0.242773	-0.410176
C178	C	0.529643	0.257227	0.089824
C179	C	-0.003017	-0.241977	-0.280278
C180	C	0.496983	0.258023	0.219722
H181	H	-0.065366	0.030024	-0.321148
H182	H	0.434634	0.530024	0.178852
H183	H	-0.008529	0.028639	-0.547205
H184	H	0.491471	0.528639	-0.047205
H185	H	0.051808	-0.144604	-0.603745
H186	H	0.551808	0.355396	-0.103745
H187	H	0.055310	-0.316470	-0.434226
H188	H	0.555310	0.183530	0.065774
H189	H	-0.001527	-0.315085	-0.208169
H190	H	0.498473	0.184915	0.291831
H191	H	0.227105	-0.148737	-0.332142
H192	H	0.727105	0.351263	0.167858
