data_functionalizedCrystal
_audit_creation_method	'MofGen! by Chris Wilmer'
_symmetry_space_group_name_H-M	'P1'
_symmetry_Int_Tables_number	1
_symmetry_cell_setting	triclinic
loop_
_symmetry_equiv_pos_as_xyz
  x,y,z
_cell_length_a	16.992694
_cell_length_b	15.944499
_cell_length_c	16.053802
_cell_angle_alpha	92.568450
_cell_angle_beta	87.249047
_cell_angle_gamma	87.072916
loop_
_atom_site_label
_atom_site_type_symbol
_atom_site_fract_x
_atom_site_fract_y
_atom_site_fract_z
O1	O	1.043673	0.174801	-0.069315
O2	O	1.377006	0.508134	0.264019
O3	O	1.710339	0.841468	0.597352
O4	O	0.815389	0.172846	-0.069339
O5	O	1.148722	0.506179	0.263994
O6	O	1.482055	0.839512	0.597327
O7	O	0.935786	0.051965	-0.069328
O8	O	1.269119	0.385298	0.264006
O9	O	1.602452	0.718632	0.597339
O10	O	0.923276	0.295682	-0.069326
O11	O	1.256609	0.629015	0.264007
O12	O	1.589942	0.962348	0.597340
O13	O	0.929159	0.058589	0.069531
O14	O	1.262492	0.391923	0.402864
O15	O	1.595825	0.725256	0.736197
O16	O	0.808762	0.179470	0.069519
O17	O	1.142095	0.512803	0.402852
O18	O	1.475428	0.846137	0.736186
O19	O	1.037046	0.181425	0.069544
O20	O	1.370379	0.514759	0.402877
O21	O	1.703712	0.848092	0.736210
Zn22	Zn	0.921852	0.181499	0.091578
Zn23	Zn	1.255185	0.514833	0.424911
Zn24	Zn	1.588518	0.848166	0.758245
Zn25	Zn	0.930583	0.172772	-0.091374
Zn26	Zn	1.263916	0.506105	0.241960
Zn27	Zn	1.597250	0.839438	0.575293
O28	O	0.916649	0.302306	0.069532
O29	O	1.249982	0.635639	0.402865
O30	O	1.583315	0.968973	0.736199
C31	C	0.782863	0.173644	0.000087
C32	C	1.116196	0.506977	0.333420
C33	C	1.449530	0.840311	0.666753
C34	C	0.695820	0.166143	0.000077
C35	C	1.029154	0.499477	0.333410
C36	C	1.362487	0.832810	0.666744
C37	C	0.645571	0.238509	0.000078
C38	C	0.978904	0.571843	0.333411
C39	C	1.312238	0.905176	0.666745
C40	C	0.563785	0.231458	0.000089
C41	C	0.897118	0.564791	0.333423
C42	C	1.230451	0.898124	0.666756
C43	C	0.532250	0.152039	0.000094
C44	C	0.865583	0.485373	0.333427
C45	C	1.198916	0.818706	0.666761
C46	C	0.582505	0.079668	0.000095
C47	C	0.915839	0.413001	0.333429
C48	C	1.249172	0.746335	0.666762
C49	C	0.664290	0.086721	0.000090
C50	C	0.997623	0.420054	0.333423
C51	C	1.330956	0.753387	0.666756
C52	C	0.288654	0.122809	0.000116
C53	C	0.621988	0.456142	0.333449
C54	C	0.955321	0.789475	0.666783
C55	C	0.206864	0.115761	0.000119
C56	C	0.540197	0.449095	0.333452
C57	C	0.873530	0.782428	0.666786
C58	C	0.188149	0.267552	0.000115
C59	C	0.521482	0.600885	0.333448
C60	C	0.854815	0.934219	0.666781
C61	C	0.269936	0.274597	0.000104
C62	C	0.603269	0.607931	0.333437
C63	C	0.936603	0.941264	0.666771
C64	C	0.320184	0.202226	0.000110
C65	C	0.653517	0.535560	0.333443
C66	C	0.986851	0.868893	0.666777
N67	N	0.448651	0.144829	0.000103
N68	N	0.781985	0.478163	0.333436
N69	N	1.115318	0.811496	0.666770
N70	N	0.403781	0.209437	0.000107
N71	N	0.737114	0.542771	0.333440
N72	N	1.070447	0.876104	0.666774
C73	C	0.931960	0.023948	0.000099
C74	C	1.265294	0.357281	0.333433
C75	C	1.598627	0.690615	0.666766
C76	C	0.930425	-0.069404	0.000093
C77	C	1.263758	0.263930	0.333426
C78	C	1.597092	0.597263	0.666759
C79	C	1.000372	-0.356248	0.000105
C80	C	1.333706	-0.022914	0.333438
C81	C	1.667039	0.310419	0.666772
C82	C	0.960744	-0.294395	0.068568
C83	C	1.294078	0.038938	0.401902
C84	C	1.627411	0.372272	0.735235
C85	C	0.924846	-0.405414	0.000102
C86	C	1.258179	-0.072080	0.333435
C87	C	1.591513	0.261253	0.666769
C88	C	0.967258	-0.300934	-0.068335
C89	C	1.300591	0.032400	0.264998
C90	C	1.633924	0.365733	0.598332
C91	C	0.927591	-0.240321	0.000096
C92	C	1.260925	0.093012	0.333429
C93	C	1.594258	0.426345	0.666763
C94	C	0.885194	-0.344788	0.068622
C95	C	1.218527	-0.011455	0.401955
C96	C	1.551861	0.321879	0.735288
C97	C	0.891721	-0.351335	-0.068343
C98	C	1.225054	-0.018002	0.264990
C99	C	1.558388	0.315331	0.598324
C100	C	0.852037	-0.289503	0.000137
C101	C	1.185371	0.043830	0.333470
C102	C	1.518704	0.377164	0.666804
C103	C	0.923267	-0.500520	0.000106
C104	C	1.256600	-0.167186	0.333439
C105	C	1.589933	0.166147	0.666773
C106	C	0.929164	-0.145217	0.000098
C107	C	1.262498	0.188117	0.333431
C108	C	1.595831	0.521450	0.666765
C109	C	1.069571	0.180627	0.000116
C110	C	1.402905	0.513960	0.333449
C111	C	1.736238	0.847294	0.666783
C112	C	1.156614	0.188127	0.000120
C113	C	1.489948	0.521461	0.333453
C114	C	1.823281	0.854794	0.666787
C115	C	0.920474	0.330323	0.000103
C116	C	1.253808	0.663656	0.333437
C117	C	1.587141	0.996990	0.666770
C118	C	0.922010	0.423674	0.000104
C119	C	1.255343	0.757008	0.333438
C120	C	1.588676	1.090341	0.666771
N121	N	0.915898	0.187456	0.216438
N122	N	1.249232	0.520789	0.549771
N123	N	1.582565	0.854123	0.883104
N124	N	0.936542	0.166809	-0.216233
N125	N	1.269876	0.500142	0.117100
N126	N	1.603209	0.833476	0.450433
C127	C	0.967146	0.136042	0.260137
C128	C	1.300480	0.469375	0.593470
C129	C	1.633813	0.802708	0.926803
C130	C	0.962989	0.140217	0.347543
C131	C	1.296322	0.473550	0.680876
C132	C	1.629656	0.806883	1.014210
C133	C	0.907587	0.195811	0.391249
C134	C	1.240921	0.529144	0.724582
C135	C	1.574254	0.862477	1.057916
C136	C	0.856334	0.247227	0.347544
C137	C	1.189668	0.580560	0.680877
C138	C	1.523001	0.913894	1.014211
C139	C	0.860488	0.243047	0.260139
C140	C	1.193821	0.576380	0.593472
C141	C	1.527155	0.909714	0.926806
C142	C	0.889443	0.214045	0.652657
C143	C	1.222776	0.547379	0.985990
C144	C	1.556110	0.880712	1.319323
C145	C	0.885294	0.218223	0.740068
C146	C	1.218628	0.551556	1.073401
C147	C	1.551961	0.884890	1.406734
C148	C	0.991949	0.111211	0.740061
C149	C	1.325282	0.444545	1.073394
C150	C	1.658615	0.777878	1.406727
C151	C	0.996101	0.107040	0.652654
C152	C	1.329434	0.440373	0.985988
C153	C	1.662768	0.773707	1.319321
C154	C	0.944845	0.158453	0.608957
C155	C	1.278178	0.491786	0.942290
C156	C	1.611512	0.825120	1.275624
N157	N	0.903339	0.200082	0.480592
N158	N	1.236672	0.533415	0.813926
N159	N	1.570005	0.866748	1.147259
N160	N	0.949091	0.154177	0.519615
N161	N	1.282424	0.487511	0.852948
N162	N	1.615757	0.820844	1.186282
H163	H	0.181192	0.051086	0.000122
H164	H	0.514525	0.384419	0.333455
H165	H	0.847858	0.717753	0.666788
N166	N	1.015314	0.087692	0.392202
N167	N	1.348647	0.421025	0.725535
N168	N	1.681980	0.754359	1.058868
N169	N	1.061650	0.119945	0.440994
N170	N	1.394983	0.453279	0.774327
N171	N	1.728316	0.786612	1.107660
H172	H	1.098593	0.082840	0.472543
H173	H	1.431926	0.416173	0.805876
H174	H	1.765259	0.749506	1.139209
H175	H	0.847710	0.255909	0.617085
H176	H	1.181043	0.589243	0.950419
H177	H	1.514376	0.922576	1.283752
N178	N	1.010793	-0.276520	-0.140952
N179	N	1.344126	0.056814	0.192381
N180	N	1.677459	0.390147	0.525715
N181	N	0.977801	-0.231534	-0.192224
N182	N	1.311134	0.101800	0.141109
N183	N	1.644468	0.435133	0.474443
H184	H	1.008551	-0.214293	-0.243508
H185	H	1.341884	0.119040	0.089826
H186	H	1.675217	0.452373	0.423159
H187	H	0.671240	0.303180	0.000074
H188	H	1.004573	0.636514	0.333407
H189	H	1.337907	0.969847	0.666740
N190	N	0.512468	0.305387	0.000095
N191	N	0.845801	0.638720	0.333428
N192	N	1.179134	0.972054	0.666762
N193	N	0.540634	0.376291	0.000087
N194	N	0.873967	0.709624	0.333421
N195	N	1.207301	1.042957	0.666754
H196	H	0.504392	0.428508	0.000092
H197	H	0.837725	0.761841	0.333426
H198	H	1.171058	1.095174	0.666759
H199	H	0.850510	-0.364146	0.126563
H200	H	1.183843	-0.030813	0.459896
H201	H	1.517177	0.302520	0.793230
H202	H	1.041213	0.061771	0.617071
H203	H	1.374547	0.395104	0.950404
H204	H	1.707880	0.728437	1.283737
H205	H	0.789302	-0.260526	0.000170
H206	H	1.122635	0.072807	0.333504
H207	H	1.455968	0.406140	0.666837
H208	H	0.862565	-0.376350	-0.126232
H209	H	1.195898	-0.043017	0.207102
H210	H	1.529232	0.290317	0.540435
H211	H	0.556822	0.015004	0.000111
H212	H	0.890156	0.348338	0.333444
H213	H	1.223489	0.681671	0.666777
N214	N	0.339963	0.048877	0.000118
N215	N	0.673297	0.382211	0.333452
N216	N	1.006630	0.715544	0.666785
N217	N	0.311794	-0.022025	0.000118
N218	N	0.645127	0.311308	0.333451
N219	N	0.978460	0.644642	0.666784
H220	H	0.348033	-0.074244	0.000117
H221	H	0.681367	0.259090	0.333451
H222	H	1.014700	0.592423	0.666784
H223	H	1.012263	0.090775	0.224557
H224	H	1.345597	0.424108	0.557890
H225	H	1.678930	0.757442	0.891224
H226	H	0.295606	0.339268	0.000091
H227	H	0.628939	0.672601	0.333424
H228	H	0.962272	1.005934	0.666758
N229	N	0.997336	-0.263028	0.141191
N230	N	1.330670	0.070305	0.474525
N231	N	1.664003	0.403639	0.807858
N232	N	0.959439	-0.213146	0.192443
N233	N	1.292772	0.120187	0.525777
N234	N	1.626105	0.453520	0.859110
H235	H	0.985283	-0.190999	0.243735
H236	H	1.318617	0.142334	0.577068
H237	H	1.651950	0.475668	0.910401
H238	H	0.840177	0.263498	0.775649
H239	H	1.173511	0.596831	1.108982
H240	H	1.506844	0.930164	1.442316
H241	H	1.033678	0.069352	0.775647
H242	H	1.367012	0.402686	1.108980
H243	H	1.700345	0.736019	1.442314
H244	H	0.705203	0.027792	0.000088
H245	H	1.038536	0.361126	0.333422
H246	H	1.371869	0.694459	0.666755
H247	H	0.147228	0.326472	0.000112
H248	H	0.480562	0.659805	0.333445
H249	H	0.813895	0.993139	0.666778
H250	H	1.063048	-0.385370	0.000177
H251	H	1.396382	-0.052037	0.333511
H252	H	1.729715	0.281296	0.666844
N253	N	0.799741	0.304004	0.392198
N254	N	1.133074	0.637337	0.725532
N255	N	1.466408	0.970671	1.058865
N256	N	0.796039	0.307730	0.470237
N257	N	1.129372	0.641063	0.803571
N258	N	1.462705	0.974397	1.136904
H259	H	0.756069	0.347831	0.501775
H260	H	1.089403	0.681164	0.835108
H261	H	1.422736	1.014498	1.168442
N262	N	0.808131	0.295568	0.215512
N263	N	1.141464	0.628901	0.548845
N264	N	1.474797	0.962234	0.882178
N265	N	0.758667	0.345202	0.254542
N266	N	1.092001	0.678535	0.587875
N267	N	1.425334	1.011868	0.921209
H268	H	0.721685	0.382294	0.223026
H269	H	1.055019	0.715628	0.556359
H270	H	1.388352	1.048961	0.889692
