data_functionalizedCrystal
_audit_creation_method	'MofGen! by Chris Wilmer'
_symmetry_space_group_name_H-M	'P1'
_symmetry_Int_Tables_number	1
_symmetry_cell_setting	triclinic
loop_
_symmetry_equiv_pos_as_xyz
  x,y,z
_cell_length_a	21.295418
_cell_length_b	25.639239
_cell_length_c	21.295411
_cell_angle_alpha	89.980474
_cell_angle_beta	89.956262
_cell_angle_gamma	90.054499
loop_
_atom_site_label
_atom_site_type_symbol
_atom_site_fract_x
_atom_site_fract_y
_atom_site_fract_z
Zn1	Zn	0.962320	-0.207990	-0.356243
Zn2	Zn	1.462320	0.292010	0.143757
Zn3	Zn	0.962207	-0.295410	-0.250972
Zn4	Zn	1.462207	0.204590	0.249028
Zn5	Zn	0.857043	-0.208014	-0.250953
Zn6	Zn	1.357043	0.291986	0.249047
Zn7	Zn	0.856998	-0.295420	-0.356169
Zn8	Zn	1.356998	0.204580	0.143831
O9	O	0.909642	-0.251708	-0.303584
O10	O	1.409642	0.248292	0.196416
O11	O	1.050395	-0.219572	-0.342318
O12	O	1.550395	0.280428	0.157682
O13	O	0.948229	-0.283822	-0.162880
O14	O	1.448229	0.216178	0.337120
O15	O	0.871075	-0.134846	-0.264943
O16	O	1.371075	0.365154	0.235057
O17	O	1.050312	-0.283799	-0.264976
O18	O	1.550312	0.216201	0.235024
O19	O	0.948421	-0.134828	-0.342299
O20	O	1.448421	0.365172	0.157701
O21	O	0.870965	-0.219613	-0.162866
O22	O	1.370965	0.280387	0.337134
O23	O	0.768948	-0.219623	-0.264871
O24	O	1.268948	0.280377	0.235129
O25	O	0.870997	-0.283816	-0.444268
O26	O	1.370997	0.216184	0.055732
O27	O	0.768914	-0.283840	-0.342172
O28	O	1.268914	0.216160	0.157828
O29	O	0.948377	-0.219582	-0.444322
O30	O	1.448377	0.280418	0.055678
O31	O	0.948185	-0.368576	-0.264904
O32	O	1.448185	0.131424	0.235096
O33	O	0.870888	-0.368584	-0.342191
O34	O	1.370888	0.131416	0.157809
C35	C	0.746090	-0.251736	-0.303512
C36	C	1.246090	0.248264	0.196488
C37	C	0.676122	-0.251760	-0.303496
C38	C	1.176122	0.248240	0.196504
C39	C	0.643255	-0.285242	-0.343686
C40	C	1.143255	0.214758	0.156314
C41	C	0.577512	-0.285229	-0.343715
C42	C	1.077512	0.214771	0.156285
C43	C	0.544640	-0.251740	-0.303541
C44	C	1.044640	0.248260	0.196459
C45	C	0.577515	-0.218252	-0.263347
C46	C	1.077515	0.281748	0.236653
C47	C	0.643257	-0.218262	-0.263325
C48	C	1.143257	0.281738	0.236675
N49	N	0.441365	-0.247648	-0.248483
N50	N	0.941365	0.252352	0.251517
N51	N	0.378913	-0.247641	-0.248506
N52	N	0.878913	0.252359	0.251494
C53	C	0.346565	-0.251707	-0.303608
C54	C	0.846565	0.248293	0.196392
N55	N	0.379028	-0.255789	-0.358686
N56	N	0.879028	0.244211	0.141314
N57	N	0.441485	-0.255799	-0.358662
N58	N	0.941485	0.244201	0.141338
C59	C	0.473354	-0.251725	-0.303561
C60	C	0.973354	0.248275	0.196439
C61	C	0.242412	-0.285176	-0.343832
C62	C	0.742412	0.214824	0.156168
C63	C	0.176668	-0.285160	-0.343862
C64	C	0.676668	0.214840	0.156138
C65	C	0.176673	-0.218185	-0.263489
C66	C	0.676673	0.281815	0.236511
C67	C	0.242415	-0.218199	-0.263465
C68	C	0.742415	0.281801	0.236535
C69	C	0.275281	-0.251697	-0.303636
C70	C	0.775281	0.248303	0.196364
C71	C	0.909536	-0.387551	-0.303555
C72	C	1.409536	0.112449	0.196445
C73	C	0.909548	-0.445665	-0.303564
C74	C	1.409548	0.054335	0.196436
C75	C	0.949996	-0.806011	-0.263409
C76	C	1.449996	-0.306011	0.236591
C77	C	0.950020	-0.860616	-0.263418
C78	C	1.450020	-0.360616	0.236582
O79	O	0.984300	-0.888838	-0.229245
O80	O	1.484300	-0.388838	0.270755
N81	N	0.909753	-0.887947	-0.303626
N82	N	1.409753	-0.387947	0.196374
C83	C	0.869463	-0.860672	-0.343833
C84	C	1.369463	-0.360672	0.156167
O85	O	0.835215	-0.888934	-0.378034
O86	O	1.335215	-0.388934	0.121966
C87	C	0.869442	-0.806069	-0.343827
C88	C	1.369442	-0.306069	0.156173
C89	C	0.909708	-0.778740	-0.303612
C90	C	1.409708	-0.278740	0.196388
C91	C	0.990259	-0.778683	-0.223198
C92	C	1.490259	-0.278683	0.276802
C93	C	0.990233	-0.724082	-0.223188
C94	C	1.490233	-0.224082	0.276812
C95	C	0.949945	-0.696810	-0.263391
C96	C	1.449945	-0.196810	0.236609
C97	C	0.909682	-0.724139	-0.303603
C98	C	1.409682	-0.224139	0.196397
C99	C	0.829156	-0.778794	-0.384037
C100	C	1.329156	-0.278794	0.115963
C101	C	0.829139	-0.724187	-0.384028
C102	C	1.329139	-0.224187	0.115972
C103	C	0.869404	-0.696858	-0.343812
C104	C	1.369404	-0.196858	0.156188
C105	C	0.869369	-0.642267	-0.343796
C106	C	1.369369	-0.142267	0.156204
N107	N	0.909636	-0.614935	-0.303588
N108	N	1.409636	-0.114935	0.196412
C109	C	0.949924	-0.642207	-0.263385
C110	C	1.449924	-0.142207	0.236615
C111	C	0.869510	-0.975343	-0.343842
C112	C	1.369510	-0.475343	0.156158
C113	C	0.869527	-1.029945	-0.343845
C114	C	1.369527	-0.529945	0.156155
C115	C	0.950086	-1.029885	-0.263431
C116	C	1.450086	-0.529885	0.236569
C117	C	0.950065	-0.975282	-0.263425
C118	C	1.450065	-0.475282	0.236575
C119	C	0.909778	-0.948011	-0.303634
C120	C	1.409778	-0.448011	0.196366
C121	C	0.949868	-0.527542	-0.263369
C122	C	1.449868	-0.027542	0.236631
C123	C	0.949837	-0.472937	-0.263361
C124	C	1.449837	0.027063	0.236639
C125	C	0.869281	-0.473001	-0.343778
C126	C	1.369281	0.026999	0.156222
C127	C	0.869309	-0.527602	-0.343783
C128	C	1.369309	-0.027602	0.156217
C129	C	0.909607	-0.554871	-0.303577
C130	C	1.409607	-0.054871	0.196423
O131	O	0.835108	-0.614010	-0.377953
O132	O	1.335108	-0.114010	0.122047
O133	O	0.984172	-0.613939	-0.229195
O134	O	1.484172	-0.113939	0.270805
C135	C	1.073832	-0.251681	-0.303657
C136	C	1.573832	0.248319	0.196343
C137	C	1.143801	-0.251670	-0.303688
C138	C	1.643801	0.248330	0.196312
C139	C	0.909694	-0.251697	-0.467774
C140	C	1.409694	0.248303	0.032226
C141	C	0.909717	-0.251693	-0.537743
C142	C	1.409717	0.248307	-0.037743
C143	C	0.909766	-0.115335	-0.303627
C144	C	1.409766	0.384665	0.196373
C145	C	0.909818	-0.057221	-0.303645
C146	C	1.409818	0.442779	0.196355
C147	C	0.950007	-0.218244	-0.570639
C148	C	1.450007	0.281756	-0.070639
C149	C	0.950006	-0.218221	-0.636381
C150	C	1.450006	0.281779	-0.136381
C151	C	0.909721	-0.251657	-0.669225
C152	C	1.409721	0.248343	-0.169225
C153	C	0.869424	-0.285108	-0.636321
C154	C	1.369424	0.214892	-0.136321
C155	C	0.869421	-0.285126	-0.570580
C156	C	1.369421	0.214874	-0.070580
N157	N	0.904857	-0.297396	-0.772441
N158	N	1.404857	0.202604	-0.272441
N159	N	0.904863	-0.297377	-0.834892
N160	N	1.404863	0.202623	-0.334892
C161	C	0.909725	-0.251604	-0.867300
C162	C	1.409725	0.248396	-0.367300
N163	N	0.914594	-0.205848	-0.834897
N164	N	1.414594	0.294152	-0.334897
N165	N	0.914591	-0.205867	-0.772440
N166	N	1.414591	0.294133	-0.272440
C167	C	0.909719	-0.251641	-0.740511
C168	C	1.409719	0.248359	-0.240511
C169	C	0.950017	-0.218128	-0.971482
C170	C	1.450017	0.281872	-0.471482
C171	C	0.950011	-0.218104	-1.037225
C172	C	1.450011	0.281896	-0.537225
C173	C	0.869433	-0.284995	-1.037164
C174	C	1.369433	0.215005	-0.537164
C175	C	0.869435	-0.285014	-0.971422
C176	C	1.369435	0.214986	-0.471422
C177	C	0.909730	-0.251581	-0.938584
C178	C	1.409730	0.248419	-0.438584
C179	C	0.909626	-0.251682	-0.140032
C180	C	1.409626	0.248318	0.359968
C181	C	0.909726	-0.251539	-0.070065
C182	C	1.409726	0.248461	0.429935
H183	H	0.149909	-0.190915	-0.230781
H184	H	0.649909	0.309085	0.269219
H185	H	0.836733	-1.052191	-0.376587
H186	H	1.336733	-0.552191	0.123413
C187	C	0.762820	-0.310476	-1.057331
C188	C	1.262820	0.189524	-0.557331
C189	C	0.825152	-0.321747	-1.073263
C190	C	1.325152	0.178253	-0.573263
H191	H	0.735483	-0.333163	-1.079624
H192	H	1.235483	0.166837	-0.579624
H193	H	0.757055	-0.315279	-1.013476
H194	H	1.257055	0.184721	-0.513476
H195	H	0.753648	-0.275344	-1.068100
H196	H	1.253648	0.224656	-0.568100
H197	H	0.834326	-0.356878	-1.062490
H198	H	1.334326	0.143122	-0.562490
H199	H	0.830920	-0.316948	-1.117128
H200	H	1.330920	0.183052	-0.617128
C201	C	0.838693	-0.373559	-0.951156
C202	C	1.338693	0.126441	-0.451156
C203	C	0.825151	-0.321786	-0.935258
C204	C	1.325151	0.178214	-0.435258
H205	H	0.811353	-0.396260	-0.928827
H206	H	1.311353	0.103740	-0.428827
H207	H	0.832927	-0.378329	-0.995003
H208	H	1.332927	0.121671	-0.495003
H209	H	0.880982	-0.381200	-0.940408
H210	H	1.380982	0.118800	-0.440408
H211	H	0.782863	-0.314144	-0.946010
H212	H	1.282863	0.185856	-0.446010
H213	H	0.830912	-0.317014	-0.891400
H214	H	1.330912	0.182986	-0.391400
C215	C	0.503509	-0.210880	-0.178704
C216	C	1.003509	0.289120	0.321296
C217	C	0.541388	-0.181442	-0.219181
C218	C	1.041388	0.318558	0.280819
H219	H	0.481211	-0.188152	-0.151435
H220	H	0.981211	0.311848	0.348565
H221	H	0.474524	-0.230812	-0.202645
H222	H	0.974524	0.269188	0.297355
H223	H	0.529108	-0.233633	-0.154573
H224	H	1.029108	0.266367	0.345427
H225	H	0.515789	-0.158691	-0.243316
H226	H	1.015789	0.341309	0.256684
H227	H	0.570376	-0.161501	-0.195238
H228	H	1.070376	0.338499	0.304762
C229	C	0.636642	-0.351443	-0.423133
C230	C	1.136642	0.148557	0.076867
C231	C	0.679380	-0.322058	-0.387848
C232	C	1.179380	0.177942	0.112152
H233	H	0.658946	-0.374168	-0.450399
H234	H	1.158946	0.125832	0.049601
H235	H	0.610946	-0.371404	-0.395670
H236	H	1.110946	0.128596	0.104330
H237	H	0.611055	-0.328683	-0.447268
H238	H	1.111055	0.171317	0.052732
H239	H	0.704963	-0.344818	-0.363709
H240	H	1.204963	0.155182	0.136291
H241	H	0.705086	-0.302096	-0.415314
H242	H	1.205086	0.197904	0.084686
H243	H	0.149909	-0.312424	-0.376594
H244	H	0.649909	0.187576	0.123406
H245	H	0.982818	-0.191020	-0.543907
H246	H	1.482818	0.308980	-0.043907
H247	H	0.836698	-0.953141	-0.376584
H248	H	1.336698	-0.453141	0.123416
C249	C	1.029659	-0.152003	-0.978143
C250	C	1.529659	0.347997	-0.478143
C251	C	0.994300	-0.181373	-0.935382
C252	C	1.494300	0.318627	-0.435382
H253	H	1.056994	-0.129310	-0.955856
H254	H	1.556994	0.370690	-0.455856
H255	H	1.053718	-0.174770	-1.003801
H256	H	1.553718	0.325230	-0.503801
H257	H	1.002242	-0.132003	-1.003765
H258	H	1.502242	0.367997	-0.503765
H259	H	1.021717	-0.201376	-0.909763
H260	H	1.521717	0.298624	-0.409763
H261	H	0.970239	-0.158604	-0.909712
H262	H	1.470239	0.341396	-0.409712
H263	H	1.023070	-0.800881	-0.190460
H264	H	1.523070	-0.300881	0.309540
H265	H	0.982819	-0.190863	-1.064008
H266	H	1.482819	0.309137	-0.564008
C267	C	0.503490	-0.355558	-0.352324
C268	C	1.003490	0.144442	0.147676
C269	C	0.541375	-0.322037	-0.387895
C270	C	1.041375	0.177963	0.112105
H271	H	0.481181	-0.378279	-0.379601
H272	H	0.981181	0.121721	0.120399
H273	H	0.529080	-0.375524	-0.324850
H274	H	1.029080	0.124476	0.175150
H275	H	0.474508	-0.335604	-0.328407
H276	H	0.974508	0.164396	0.171593
H277	H	0.570361	-0.341992	-0.411809
H278	H	1.070361	0.158008	0.088191
H279	H	0.515783	-0.302069	-0.415380
H280	H	1.015783	0.197931	0.084620
H281	H	0.982813	-0.190981	-0.663170
H282	H	1.482813	0.309019	-0.163170
H283	H	0.836477	-0.450788	-0.376509
H284	H	1.336477	0.049212	0.123491
C285	C	0.235814	-0.152002	-0.184020
C286	C	0.735814	0.347998	0.315980
C287	C	0.278548	-0.181399	-0.219279
C288	C	0.778548	0.318601	0.280721
H289	H	0.258122	-0.129284	-0.156739
H290	H	0.758122	0.370716	0.343261
H291	H	0.210233	-0.132032	-0.211499
H292	H	0.710233	0.367968	0.288501
H293	H	0.210113	-0.174754	-0.159903
H294	H	0.710113	0.325246	0.340097
H295	H	0.304246	-0.158647	-0.243400
H296	H	0.804246	0.341353	0.256600
H297	H	0.304140	-0.201370	-0.191797
H298	H	0.804140	0.298630	0.308203
C299	C	0.663415	-0.192669	-0.156780
C300	C	1.163415	0.307331	0.343220
C301	C	0.679390	-0.181461	-0.219139
C302	C	1.179390	0.318539	0.280861
H303	H	0.685727	-0.169952	-0.129502
H304	H	1.185727	0.330048	0.370498
H305	H	0.619564	-0.187864	-0.151049
H306	H	1.119564	0.312136	0.348951
H307	H	0.674130	-0.227791	-0.147496
H308	H	1.174130	0.272209	0.352504
H309	H	0.668671	-0.146340	-0.228425
H310	H	1.168671	0.353660	0.271575
H311	H	0.723251	-0.186261	-0.224872
H312	H	1.223251	0.313739	0.275128
H313	H	0.269173	-0.312450	-0.376545
H314	H	0.769173	0.187550	0.123455
H315	H	0.836524	-0.549854	-0.376532
H316	H	1.336524	-0.049854	0.123468
H317	H	0.982853	-0.953034	-0.230679
H318	H	1.482853	-0.453034	0.269321
C319	C	0.833659	-0.314787	-0.737072
C320	C	1.333659	0.185213	-0.237072
C321	C	0.825146	-0.321863	-0.672421
C322	C	1.325146	0.178137	-0.172421
H323	H	0.806324	-0.337482	-0.759356
H324	H	1.306324	0.162518	-0.259356
H325	H	0.824477	-0.279661	-0.747838
H326	H	1.324477	0.220339	-0.247838
H327	H	0.875951	-0.322430	-0.747867
H328	H	1.375951	0.177570	-0.247867
H329	H	0.782855	-0.314217	-0.661625
H330	H	1.282855	0.185783	-0.161625
H331	H	0.834324	-0.356997	-0.661650
H332	H	1.334324	0.143003	-0.161650
C333	C	1.029472	-0.478371	-0.183876
C334	C	1.529472	0.021629	0.316124
C335	C	0.994102	-0.442898	-0.219156
C336	C	1.494102	0.057102	0.280844
H337	H	1.056801	-0.459826	-0.156591
H338	H	1.556801	0.040174	0.343409
H339	H	1.002066	-0.499706	-0.159768
H340	H	1.502066	0.000294	0.340232
H341	H	1.053543	-0.499631	-0.211345
H342	H	1.553543	0.000369	0.288655
H343	H	0.970027	-0.421639	-0.191687
H344	H	1.470027	0.078361	0.308313
H345	H	1.021511	-0.421553	-0.243266
H346	H	1.521511	0.078447	0.256734
H347	H	0.982684	-0.549738	-0.230630
H348	H	1.482684	-0.049738	0.269370
C349	C	1.069871	-0.729525	-0.143715
C350	C	1.569871	-0.229525	0.356285
C351	C	1.034504	-0.694047	-0.178991
C352	C	1.534504	-0.194047	0.321009
H353	H	1.097208	-0.710984	-0.116434
H354	H	1.597208	-0.210984	0.383566
H355	H	1.042464	-0.750856	-0.119603
H356	H	1.542464	-0.250856	0.380397
H357	H	1.093934	-0.750789	-0.171187
H358	H	1.593934	-0.250789	0.328813
H359	H	1.010437	-0.672785	-0.151519
H360	H	1.510437	-0.172785	0.348481
H361	H	1.061914	-0.672707	-0.203105
H362	H	1.561914	-0.172707	0.296895
H363	H	0.796364	-0.801036	-0.416781
H364	H	1.296364	-0.301036	0.083219
C365	C	0.985966	-1.113566	-0.227823
C366	C	1.485966	-0.613566	0.272177
C367	C	0.994429	-1.059869	-0.219295
C368	C	1.494429	-0.559869	0.280705
H369	H	1.013357	-1.132077	-0.200594
H370	H	1.513357	-0.632077	0.299406
H371	H	0.943701	-1.122582	-0.218506
H372	H	1.443701	-0.622582	0.281494
H373	H	0.995109	-1.122457	-0.270153
H374	H	1.495109	-0.622457	0.229847
H375	H	0.985280	-1.050977	-0.176966
H376	H	1.485280	-0.550977	0.323034
H377	H	1.036703	-1.050850	-0.228607
H378	H	1.536703	-0.550850	0.271393
C379	C	0.789778	-0.351245	-0.577124
C380	C	1.289778	0.148755	-0.077124
C381	C	0.825138	-0.321901	-0.534416
C382	C	1.325138	0.178099	-0.034416
H383	H	0.762444	-0.373951	-0.554796
H384	H	1.262444	0.126049	-0.054796
H385	H	0.765717	-0.328462	-0.602743
H386	H	1.265717	0.171538	-0.102743
H387	H	0.817193	-0.371229	-0.602791
H388	H	1.317193	0.128771	-0.102791
H389	H	0.797723	-0.301914	-0.508753
H390	H	1.297723	0.198086	-0.008753
H391	H	0.849200	-0.344686	-0.508787
H392	H	1.349200	0.155314	-0.008787
H393	H	0.796333	-0.701986	-0.416773
H394	H	1.296333	-0.201986	0.083227
