data_functionalizedCrystal
_audit_creation_method	'MofGen! by Chris Wilmer'
_symmetry_space_group_name_H-M	'P1'
_symmetry_Int_Tables_number	1
_symmetry_cell_setting	triclinic
loop_
_symmetry_equiv_pos_as_xyz
  x,y,z
_cell_length_a	6.817900
_cell_length_b	11.452831
_cell_length_c	10.773894
_cell_angle_alpha	83.899974
_cell_angle_beta	96.645922
_cell_angle_gamma	108.696887
loop_
_atom_site_label
_atom_site_type_symbol
_atom_site_fract_x
_atom_site_fract_y
_atom_site_fract_z
V1	V	-3.967650	-0.164839	-0.353163
O2	O	-3.936515	0.012549	-0.384264
O3	O	-3.938588	-0.331299	-0.314370
O4	O	-3.884792	-0.160273	-0.523786
O5	O	-3.990683	-0.159661	-0.173398
V6	V	-4.453237	-0.143861	-0.336081
O7	O	-4.224380	-0.210855	-0.390634
O8	O	-4.646703	-0.097845	-0.298610
O9	O	-4.259092	0.022599	-0.374874
O10	O	-4.601768	-0.321249	-0.304980
O11	O	-4.547600	-0.149039	-0.515846
O12	O	-4.312888	-0.148428	-0.165458
C13	C	-3.789408	-0.371942	-0.299412
C14	C	-3.846704	-0.508012	-0.268831
C15	C	-3.949740	-0.724671	-0.328823
C16	C	-3.890521	-0.584036	-0.360437
C17	C	-3.720785	-0.153779	-0.566542
C18	C	-3.734452	-0.151147	-0.705788
C19	C	-3.913056	-0.155709	-0.772660
C20	C	-3.927185	-0.152989	-0.916579
C21	C	-4.071615	0.063235	-0.389827
C22	C	-3.993556	0.199304	-0.420416
C23	C	-4.140238	-0.154925	-0.122695
C24	C	-4.105810	-0.157551	0.016552
H25	H	-3.884185	-0.545014	-0.462264
O26	O	-3.564567	-0.143922	-0.764736
C27	C	-3.321715	-0.027761	-0.912866
C28	C	-3.514156	-0.035807	-0.846223
H29	H	-3.280873	0.059656	-0.978744
H30	H	-3.356606	-0.112135	-0.969002
H31	H	-3.185099	-0.024812	-0.840108
H32	H	-3.650857	-0.038718	-0.918897
H33	H	-3.479092	0.048565	-0.790063
H34	H	-3.956059	-0.763698	-0.227003
O35	O	-3.757287	-0.145763	-0.975521
C36	C	-3.514435	-0.029602	-1.123651
C37	C	-3.706876	-0.037648	-1.057009
H38	H	-3.473593	0.057815	-1.189529
H39	H	-3.549326	-0.113976	-1.179788
H40	H	-3.377820	-0.026653	-1.050893
H41	H	-3.843578	-0.040559	-1.129683
H42	H	-3.671812	0.046724	-1.000849
H43	H	-4.055502	-0.161620	-0.723366
H44	H	-4.248277	-0.163475	-0.934160
O45	O	-3.853874	-0.554489	-0.147324
C46	C	-3.665094	-0.560336	0.055436
C47	C	-3.656662	-0.507627	-0.082137
H48	H	-3.505680	-0.522449	0.108186
H49	H	-3.711379	-0.665464	0.059359
H50	H	-3.784535	-0.532051	0.100633
H51	H	-3.537213	-0.535819	-0.127418
H52	H	-3.610475	-0.402507	-0.085972
H53	H	-3.987217	-0.761668	-0.522235
