data_functionalizedCrystal
_audit_creation_method	'MofGen! by Chris Wilmer'
_symmetry_space_group_name_H-M	'P1'
_symmetry_Int_Tables_number	1
_symmetry_cell_setting	triclinic
loop_
_symmetry_equiv_pos_as_xyz
  x,y,z
_cell_length_a	15.297327
_cell_length_b	15.297621
_cell_length_c	15.296720
_cell_angle_alpha	91.615729
_cell_angle_beta	72.680778
_cell_angle_gamma	88.375711
loop_
_atom_site_label
_atom_site_type_symbol
_atom_site_fract_x
_atom_site_fract_y
_atom_site_fract_z
Zn1	Zn	-0.695117	-1.116329	0.823160
Zn2	Zn	-0.195117	-0.616329	1.323160
Zn3	Zn	-0.823718	-1.116234	0.694534
Zn4	Zn	-0.323718	-0.616234	1.194534
Zn5	Zn	-0.644940	-1.005101	0.644430
Zn6	Zn	-0.144940	-0.505101	1.144430
Zn7	Zn	-0.814934	-0.946193	0.814438
Zn8	Zn	-0.314934	-0.446193	1.314438
O9	O	-0.744677	-1.045964	0.744141
O10	O	-0.244677	-0.545964	1.244141
O11	O	-0.736851	-1.234028	0.830717
O12	O	-0.236851	-0.734028	1.330717
O13	O	-0.782680	-1.126105	0.562908
O14	O	-0.282680	-0.626105	1.062908
O15	O	-0.526633	-1.044550	0.650820
O16	O	-0.026633	-0.544550	1.150820
O17	O	-0.831334	-1.233958	0.736216
O18	O	-0.331334	-0.733958	1.236216
O19	O	-0.563497	-1.126268	0.782133
O20	O	-0.063497	-0.626268	1.282133
O21	O	-0.651333	-1.044457	0.526097
O22	O	-0.151333	-0.544457	1.026097
O23	O	-0.642815	-0.879575	0.642363
O24	O	-0.142815	-0.379575	1.142363
O25	O	-0.816362	-0.944148	0.940574
O26	O	-0.316362	-0.444148	1.440574
O27	O	-0.767709	-0.836295	0.767267
O28	O	-0.267709	-0.336295	1.267267
O29	O	-0.728333	-1.069147	0.946983
O30	O	-0.228333	-0.569147	1.446983
O31	O	-0.947516	-1.068984	0.727758
O32	O	-0.447516	-0.568984	1.227758
O33	O	-0.941062	-0.944056	0.815851
O34	O	-0.441062	-0.444056	1.315851
C35	C	-0.698864	-0.827414	0.698432
C36	C	-0.198864	-0.327414	1.198432
C37	C	-0.679290	-0.733908	0.678902
C38	C	-0.179290	-0.233908	1.178902
C39	C	-0.884543	-0.380291	0.883684
C40	C	-0.384543	0.119709	1.383684
C41	C	-0.902940	-0.468144	0.902032
C42	C	-0.402940	0.031856	1.402032
C43	C	-0.847029	-0.534589	0.846251
C44	C	-0.347029	-0.034589	1.346251
C45	C	-0.772718	-0.513174	0.772119
C46	C	-0.272718	-0.013174	1.272119
C47	C	-0.754323	-0.425313	0.753765
C48	C	-0.254323	0.074687	1.253765
C49	C	-0.716809	-0.579611	0.716332
C50	C	-0.216809	-0.079611	1.216332
C51	C	-0.642498	-0.558196	0.642199
C52	C	-0.142498	-0.058196	1.142199
C53	C	-0.624106	-0.470343	0.623849
C54	C	-0.124106	0.029657	1.123849
C55	C	-0.680017	-0.403898	0.679630
C56	C	-0.180017	0.096102	1.179630
C57	C	-0.735204	-0.667471	0.734686
C58	C	-0.235204	-0.167471	1.234686
C59	C	-0.604984	-0.712493	0.604767
C60	C	-0.104984	-0.212493	1.104767
C61	C	-0.586587	-0.624641	0.586419
C62	C	-0.086587	-0.124641	1.086419
C63	C	-0.976698	-1.000136	0.776320
C64	C	-0.476698	-0.500136	1.276320
C65	C	-1.075978	-0.980601	0.790132
C66	C	-0.575978	-0.480601	1.290132
C67	C	-1.369207	-1.185867	0.645799
C68	C	-0.869207	-0.685867	1.145799
C69	C	-1.275928	-1.204221	0.632817
C70	C	-0.775928	-0.704221	1.132817
C71	C	-1.225936	-1.148318	0.672145
C72	C	-0.725936	-0.648318	1.172145
C73	C	-1.269232	-1.074057	0.724456
C74	C	-0.769232	-0.574057	1.224456
C75	C	-1.362518	-1.055697	0.737434
C76	C	-0.862518	-0.555697	1.237434
C77	C	-1.219247	-1.018149	0.763780
C78	C	-0.719247	-0.518149	1.263780
C79	C	-1.262543	-0.943888	0.816091
C80	C	-0.762543	-0.443888	1.316091
C81	C	-1.355821	-0.925532	0.829067
C82	C	-0.855821	-0.425532	1.329067
C83	C	-1.405813	-0.981435	0.789739
C84	C	-0.905813	-0.481435	1.289739
C85	C	-1.125961	-1.036508	0.750802
C86	C	-0.625961	-0.536508	1.250802
C87	C	-1.119272	-0.906339	0.842437
C88	C	-0.619272	-0.406339	1.342437
C89	C	-1.212551	-0.887985	0.855419
C90	C	-0.712551	-0.387985	1.355419
C91	C	-0.511758	-1.091991	0.711860
C92	C	-0.011758	-0.591991	1.211860
C93	C	-0.412501	-1.111604	0.698104
C94	C	0.087499	-0.611604	1.198104
C95	C	-0.776965	-1.000087	0.977090
C96	C	-0.276965	-0.500087	1.477090
C97	C	-0.790724	-0.980537	1.076360
C98	C	-0.290724	-0.480537	1.576360
C99	C	-0.790662	-0.265371	0.790020
C100	C	-0.290662	0.234629	1.290020
C101	C	-0.810237	-0.358876	0.809549
C102	C	-0.310237	0.141124	1.309549
C103	C	-0.712461	-1.091724	0.512098
C104	C	-0.212461	-0.591724	1.012098
C105	C	-0.698484	-1.111487	0.412829
C106	C	-0.198484	-0.611487	0.912829
C107	C	-0.646189	-1.185754	1.369531
C108	C	-0.146189	-0.685754	1.869531
C109	C	-0.633264	-1.204127	1.276264
C110	C	-0.133264	-0.704127	1.776264
C111	C	-0.672627	-1.148231	1.226284
C112	C	-0.172627	-0.648231	1.726284
C113	C	-0.724919	-1.073959	1.269579
C114	C	-0.224919	-0.573959	1.769579
C115	C	-0.737851	-1.055587	1.362857
C116	C	-0.237851	-0.555587	1.862857
C117	C	-0.764290	-1.018065	1.219609
C118	C	-0.264290	-0.518065	1.719609
C119	C	-0.816581	-0.943792	1.262905
C120	C	-0.316581	-0.443792	1.762905
C121	C	-0.829510	-0.925424	1.356173
C122	C	-0.329510	-0.425424	1.856173
C123	C	-0.790146	-0.981320	1.406154
C124	C	-0.290146	-0.481320	1.906154
C125	C	-0.751358	-1.036436	1.126331
C126	C	-0.251358	-0.536436	1.626331
C127	C	-0.843020	-0.906269	1.119657
C128	C	-0.343020	-0.406269	1.619657
C129	C	-0.855944	-0.887896	1.212924
C130	C	-0.355944	-0.387896	1.712924
H131	H	-0.559458	-0.766594	0.559344
H132	H	-0.059458	-0.266594	1.059344
F133	F	-1.504997	-0.961693	0.803213
F134	F	-1.004997	-0.461693	1.303213
F135	F	-0.604310	-1.245239	1.422731
F136	F	-0.104310	-0.745239	1.922731
F137	F	-1.079893	-1.115539	0.695130
F138	F	-0.579893	-0.615539	1.195130
F139	F	-0.884921	-0.846780	1.066470
F140	F	-0.384921	-0.346780	1.566470
H141	H	-0.898520	-0.827422	1.248188
H142	H	-0.398520	-0.327422	1.748188
F143	F	-1.066070	-0.846835	0.884290
F144	F	-0.566070	-0.346835	1.384290
H145	H	-0.662101	-1.163196	1.150341
H146	H	-0.162101	-0.663196	1.650341
F147	F	-1.126724	-1.167997	0.658556
F148	F	-0.626724	-0.667997	1.158556
F149	F	-1.229858	-1.283256	0.577153
F150	F	-0.729858	-0.783256	1.077153
F151	F	-0.695707	-1.115480	1.080263
F152	F	-0.195707	-0.615480	1.580263
H153	H	-1.409917	-1.231371	0.613778
H154	H	-0.909917	-0.731371	1.113778
H155	H	-1.391066	-0.865056	0.871650
H156	H	-0.891066	-0.365056	1.371650
H157	H	-1.247816	-0.827521	0.898011
H158	H	-0.747816	-0.327521	1.398011
H159	H	-0.590691	-1.264602	1.241020
H160	H	-0.090691	-0.764602	1.741020
F161	F	-0.866610	-0.628089	0.865782
F162	F	-0.366610	-0.128089	1.365782
H163	H	-0.526082	-0.607192	0.526059
H164	H	-0.026082	-0.107192	1.026059
F165	F	-0.803904	-0.961772	1.505423
F166	F	-0.303904	-0.461772	2.005423
F167	F	-0.885178	-0.846386	1.402254
F168	F	-0.385178	-0.346386	1.902254
H169	H	-0.795709	-0.684898	0.795046
H170	H	-0.295709	-0.184898	1.295046
H171	H	-0.930062	-0.326186	0.929088
H172	H	-0.430062	0.173814	1.429088
F173	F	-0.982026	-0.490929	0.980925
F174	F	-0.482026	0.009071	1.480925
F175	F	-0.545022	-0.447555	0.544945
F176	F	-0.045022	0.052445	1.044945
F177	F	-0.660436	-0.310393	0.660110
F178	F	-0.160436	0.189607	1.160110
