data_functionalizedCrystal
_audit_creation_method	'MofGen! by Chris Wilmer'
_symmetry_space_group_name_H-M	'P1'
_symmetry_Int_Tables_number	1
_symmetry_cell_setting	triclinic
loop_
_symmetry_equiv_pos_as_xyz
  x,y,z
_cell_length_a	15.625950
_cell_length_b	10.654550
_cell_length_c	9.730223
_cell_angle_alpha	90.004253
_cell_angle_beta	108.070118
_cell_angle_gamma	95.641308
loop_
_atom_site_label
_atom_site_type_symbol
_atom_site_fract_x
_atom_site_fract_y
_atom_site_fract_z
O1	O	1.197098	-0.164068	0.482120
O2	O	0.934774	-0.183576	0.351424
O3	O	1.071968	0.008979	0.419786
O4	O	1.059905	-0.356623	0.413759
O5	O	1.071959	0.008985	0.648361
O6	O	0.934766	-0.183571	0.580000
O7	O	1.197089	-0.164063	0.710696
Zn8	Zn	1.065926	-0.173816	0.681639
Zn9	Zn	1.065938	-0.173823	0.380481
O10	O	1.059896	-0.356618	0.642334
C11	C	0.901181	-0.182685	0.448977
C12	C	0.801095	-0.180024	0.399112
C13	C	0.471807	-0.171327	0.857927
C14	C	0.377759	-0.168852	0.811006
C15	C	0.377816	-0.168859	0.561846
C16	C	0.471865	-0.171340	0.608745
C17	C	0.518854	-0.172573	0.756787
C18	C	0.518911	-0.172586	0.507605
C19	C	0.612953	-0.175061	0.554501
C20	C	0.659949	-0.176290	0.702537
C21	C	0.612896	-0.175048	0.803683
C22	C	0.471922	-0.171345	0.359564
C23	C	0.518968	-0.172590	0.258425
C24	C	0.613011	-0.175074	0.305320
C25	C	0.660006	-0.176304	0.453356
C26	C	0.660064	-0.176317	0.204174
C27	C	0.754106	-0.178792	0.251070
C28	C	0.754048	-0.178779	0.500252
C29	C	1.071077	0.055771	0.533631
C30	C	1.068428	0.195187	0.532309
C31	C	1.230683	-0.164953	0.613140
C32	C	1.330769	-0.167614	0.662996
C33	C	1.060786	-0.403409	0.528485
C34	C	1.063436	-0.542825	0.529799
N35	N	1.065925	-0.173810	0.887175
C36	C	1.149205	0.275505	0.572554
C37	C	1.146709	0.406500	0.571294
C38	C	0.982653	0.376847	0.489547
C39	C	0.985149	0.245854	0.490797
N40	N	1.065946	-0.173818	0.174949
C41	C	1.126695	-0.088583	0.989381
C42	C	1.126704	-0.088583	1.133269
C43	C	1.005170	-0.259050	1.072729
C44	C	1.005157	-0.259043	0.928842
H45	H	0.736524	-0.178304	0.740718
H46	H	1.212487	0.471890	0.604062
C47	C	0.368472	-0.168622	0.307981
N48	N	0.290553	-0.166574	0.269130
C49	C	0.938343	-0.352862	0.816426
N50	N	0.888035	-0.423543	0.731763
C51	C	0.891051	0.432594	0.443913
N52	N	0.822055	0.474581	0.409551
C53	C	0.896283	0.157498	0.446516
N54	N	0.829352	0.090949	0.413160
C55	C	1.193548	0.005184	1.245689
N56	N	1.243895	0.075819	1.330362
C57	C	1.240813	0.219776	0.618202
N58	N	1.309816	0.177805	0.652580
C59	C	1.193533	0.005185	0.943550
N60	N	1.243875	0.075818	0.909033
H61	H	0.792308	-0.179802	0.620801
C62	C	0.664588	-0.176412	0.966537
N63	N	0.703523	-0.177436	1.089194
H64	H	0.510067	-0.172350	0.978476
C65	C	0.326012	-0.167479	0.922281
N66	N	0.287036	-0.166441	1.006092
H67	H	0.339545	-0.167849	0.441310
H68	H	0.955695	-0.328446	1.106670
C69	C	0.467270	-0.171235	0.095582
N70	N	0.428331	-0.170218	-0.027074
H71	H	0.621793	-0.175300	0.083638
C72	C	0.805859	-0.180172	0.139811
N73	N	0.844840	-0.181212	0.056007
