data_functionalizedCrystal
_audit_creation_method	'MofGen! by Chris Wilmer'
_symmetry_space_group_name_H-M	'P1'
_symmetry_Int_Tables_number	1
_symmetry_cell_setting	triclinic
loop_
_symmetry_equiv_pos_as_xyz
  x,y,z
_cell_length_a	18.215407
_cell_length_b	16.959454
_cell_length_c	18.215399
_cell_angle_alpha	89.976304
_cell_angle_beta	89.980167
_cell_angle_gamma	90.020523
loop_
_atom_site_label
_atom_site_type_symbol
_atom_site_fract_x
_atom_site_fract_y
_atom_site_fract_z
Zn1	Zn	1.125097	-0.314680	-0.416138
Zn2	Zn	1.458430	0.018653	-0.082804
Zn3	Zn	1.791763	0.351986	0.250529
Zn4	Zn	1.125015	-0.446866	-0.293080
Zn5	Zn	1.458349	-0.113532	0.040253
Zn6	Zn	1.791682	0.219801	0.373586
Zn7	Zn	1.002029	-0.314706	-0.293085
Zn8	Zn	1.335362	0.018627	0.040248
Zn9	Zn	1.668696	0.351961	0.373582
Zn10	Zn	1.002005	-0.446822	-0.416105
Zn11	Zn	1.335339	-0.113488	-0.082772
Zn12	Zn	1.668672	0.219845	0.250561
O13	O	1.063537	-0.380768	-0.354602
O14	O	1.396870	-0.047435	-0.021269
O15	O	1.730203	0.285898	0.312065
O16	O	1.228070	-0.332222	-0.399825
O17	O	1.561403	0.001111	-0.066492
O18	O	1.894737	0.334444	0.266841
O19	O	1.108677	-0.429364	-0.190097
O20	O	1.442010	-0.096030	0.143237
O21	O	1.775344	0.237303	0.476570
O22	O	1.018398	-0.204092	-0.309424
O23	O	1.351732	0.129242	0.023910
O24	O	1.685065	0.462575	0.357243
O25	O	1.228010	-0.429339	-0.309416
O26	O	1.561344	-0.096005	0.023917
O27	O	1.894677	0.237328	0.357251
O28	O	1.108815	-0.204073	-0.399830
O29	O	1.442149	0.129261	-0.066496
O30	O	1.775482	0.462594	0.266837
O31	O	1.018319	-0.332267	-0.190100
O32	O	1.351653	0.001067	0.143233
O33	O	1.684986	0.334400	0.476567
O34	O	0.899042	-0.332224	-0.309392
O35	O	1.232375	0.001109	0.023941
O36	O	1.565708	0.334443	0.357274
O37	O	1.018358	-0.429264	-0.519094
O38	O	1.351691	-0.095930	-0.185761
O39	O	1.685024	0.237403	0.147573
O40	O	0.899024	-0.429289	-0.399775
O41	O	1.232358	-0.095955	-0.066442
O42	O	1.565691	0.237378	0.266892
O43	O	1.108792	-0.332180	-0.519118
O44	O	1.442126	0.001154	-0.185784
O45	O	1.775459	0.334487	0.147549
O46	O	1.108654	-0.557471	-0.309385
O47	O	1.441987	-0.224137	0.023949
O48	O	1.775320	0.109196	0.357282
O49	O	1.018279	-0.557438	-0.399770
O50	O	1.351612	-0.224105	-0.066437
O51	O	1.684946	0.109228	0.266896
C52	C	0.872330	-0.380755	-0.354581
C53	C	1.205664	-0.047422	-0.021248
C54	C	1.538997	0.285912	0.312086
C55	C	0.790531	-0.380768	-0.354589
C56	C	1.123865	-0.047435	-0.021256
C57	C	1.457198	0.285899	0.312077
C58	C	1.063475	-0.586135	-0.354590
C59	C	1.396808	-0.252801	-0.021256
C60	C	1.730142	0.080532	0.312077
C61	C	1.063516	-0.673991	-0.354609
C62	C	1.396849	-0.340658	-0.021276
C63	C	1.730183	-0.007325	0.312058
C64	C	0.602348	-0.431389	-0.401593
C65	C	0.935681	-0.098056	-0.068259
C66	C	1.269014	0.235277	0.265074
C67	C	0.525489	-0.431392	-0.401602
C68	C	0.858822	-0.098058	-0.068268
C69	C	1.192156	0.235275	0.265065
C70	C	0.525478	-0.330162	-0.307628
C71	C	0.858811	0.003171	0.025706
C72	C	1.192144	0.336505	0.359039
C73	C	0.602335	-0.330156	-0.307623
C74	C	0.935668	0.003177	0.025711
C75	C	1.269002	0.336511	0.359044
C76	C	0.640768	-0.380774	-0.354604
C77	C	0.974101	-0.047441	-0.021271
C78	C	1.307435	0.285893	0.312063
C79	C	0.487052	-0.380782	-0.354618
C80	C	0.820385	-0.047449	-0.021285
C81	C	1.153719	0.285884	0.312048
C82	C	0.403718	-0.380785	-0.354628
C83	C	0.737052	-0.047451	-0.021294
C84	C	1.070385	0.285882	0.312039
C85	C	0.724107	-0.380771	-0.354596
C86	C	1.057440	-0.047438	-0.021262
C87	C	1.390774	0.285896	0.312071
C88	C	1.016547	-1.045480	-0.401661
C89	C	1.349880	-0.712147	-0.068328
C90	C	1.683213	-0.378813	0.265006
C91	C	1.110731	-1.045454	-0.307618
C92	C	1.444065	-0.712120	0.025715
C93	C	1.777398	-0.378787	0.359048
C94	C	1.110706	-0.962908	-0.307611
C95	C	1.444039	-0.629574	0.025722
C96	C	1.777372	-0.296241	0.359055
C97	C	1.063599	-0.921644	-0.354629
C98	C	1.396932	-0.588311	-0.021296
C99	C	1.730266	-0.254977	0.312037
C100	C	1.016518	-0.962926	-0.401654
C101	C	1.349851	-0.629593	-0.068321
C102	C	1.683185	-0.296260	0.265013
C103	C	1.157781	-0.921619	-0.260582
C104	C	1.491114	-0.588286	0.072751
C105	C	1.824447	-0.254953	0.406084
C106	C	1.157756	-0.839068	-0.260573
C107	C	1.491090	-0.505735	0.072760
C108	C	1.824423	-0.172402	0.406094
C109	C	1.110653	-0.797803	-0.307595
C110	C	1.443986	-0.464470	0.025738
C111	C	1.777319	-0.131137	0.359071
C112	C	1.063570	-0.839091	-0.354622
C113	C	1.396904	-0.505757	-0.021289
C114	C	1.730237	-0.172424	0.312044
C115	C	1.016464	-0.797827	-0.401640
C116	C	1.349797	-0.464494	-0.068307
C117	C	1.683130	-0.131160	0.265026
C118	C	0.969384	-0.839113	-0.448672
C119	C	1.302718	-0.505779	-0.115339
C120	C	1.636051	-0.172446	0.217995
C121	C	0.969414	-0.921661	-0.448676
C122	C	1.302748	-0.588328	-0.115343
C123	C	1.636081	-0.254995	0.217990
C124	C	1.110623	-0.715255	-0.307591
C125	C	1.443956	-0.381922	0.025742
C126	C	1.777289	-0.048588	0.359076
C127	C	1.016435	-0.715273	-0.401634
C128	C	1.349768	-0.381940	-0.068300
C129	C	1.683101	-0.048607	0.265033
C130	C	1.255489	-0.380783	-0.354624
C131	C	1.588823	-0.047449	-0.021290
C132	C	1.922156	0.285884	0.312043
C133	C	1.337288	-0.380789	-0.354633
C134	C	1.670622	-0.047455	-0.021300
C135	C	2.003955	0.285878	0.312034
C136	C	1.063581	-0.380714	-0.546555
C137	C	1.396915	-0.047381	-0.213222
C138	C	1.730248	0.285953	0.120112
C139	C	1.063601	-0.380691	-0.628354
C140	C	1.396934	-0.047357	-0.295021
C141	C	1.730267	0.285976	0.038313
C142	C	1.063619	-0.174600	-0.354631
C143	C	1.396952	0.158733	-0.021297
C144	C	1.730285	0.492067	0.312036
C145	C	1.063653	-0.086744	-0.354643
C146	C	1.396987	0.246590	-0.021310
C147	C	1.730320	0.579923	0.312024
C148	C	1.110707	-0.330092	-0.816562
C149	C	1.444040	0.003241	-0.483228
C150	C	1.777373	0.336575	-0.149895
C151	C	1.110716	-0.330069	-0.893420
C152	C	1.444049	0.003265	-0.560087
C153	C	1.777382	0.336598	-0.226754
C154	C	1.016546	-0.431167	-0.893384
C155	C	1.349880	-0.097834	-0.560051
C156	C	1.683213	0.235499	-0.226718
C157	C	1.016534	-0.431186	-0.816527
C158	C	1.349868	-0.097852	-0.483194
C159	C	1.683201	0.235481	-0.149860
C160	C	1.063619	-0.380649	-0.778118
C161	C	1.396952	-0.047316	-0.444784
C162	C	1.730285	0.286018	-0.111451
C163	C	1.063639	-0.380608	-0.931834
C164	C	1.396973	-0.047274	-0.598500
C165	C	1.730306	0.286059	-0.265167
C166	C	1.063649	-0.380583	-1.015168
C167	C	1.396982	-0.047250	-0.681834
C168	C	1.730315	0.286084	-0.348501
C169	C	1.063609	-0.380672	-0.694779
C170	C	1.396942	-0.047339	-0.361445
C171	C	1.730275	0.285994	-0.028112
C172	C	1.063534	-0.380766	-0.163396
C173	C	1.396868	-0.047432	0.169937
C174	C	1.730201	0.285901	0.503271
C175	C	1.063658	-0.380566	-0.081597
C176	C	1.396991	-0.047233	0.251736
C177	C	1.730324	0.286101	0.585069
H178	H	0.494211	-0.472606	-0.439866
H179	H	0.827544	-0.139273	-0.106532
H180	H	1.160877	0.194060	0.226801
H181	H	1.149058	-0.288899	-0.924718
H182	H	1.482391	0.044435	-0.591385
H183	H	1.815725	0.377768	-0.258051
N184	N	0.965621	-0.670777	-0.452347
N185	N	1.298954	-0.337444	-0.119014
N186	N	1.632287	-0.004110	0.214320
H187	H	0.931520	-0.636574	-0.422404
H188	H	1.264853	-0.303240	-0.089070
H189	H	1.598187	0.030093	0.244263
H190	H	0.995545	-0.636528	-0.486467
H191	H	1.328878	-0.303194	-0.153133
H192	H	1.662212	0.030139	0.180200
N193	N	0.918581	-0.794601	-0.499385
N194	N	1.251915	-0.461268	-0.166052
N195	N	1.585248	-0.127935	0.167281
H196	H	0.888762	-0.833277	-0.529182
H197	H	1.222095	-0.499943	-0.195849
H198	H	1.555428	-0.166610	0.137485
H199	H	0.884530	-0.760397	-0.469391
H200	H	1.217863	-0.427064	-0.136057
H201	H	1.551196	-0.093731	0.197276
H202	H	0.633638	-0.472604	-0.439850
H203	H	0.966971	-0.139270	-0.106516
H204	H	1.300304	0.194063	0.226817
N205	N	1.161487	-0.275587	-0.775133
N206	N	1.494820	0.057747	-0.441799
N207	N	1.828154	0.391080	-0.108466
H208	H	1.191317	-0.243555	-0.811152
H209	H	1.524650	0.089778	-0.477819
H210	H	1.857984	0.423112	-0.144486
H211	H	1.131539	-0.239014	-0.743244
H212	H	1.464873	0.094319	-0.409910
H213	H	1.798206	0.427652	-0.076577
N214	N	0.643786	-0.275567	-0.256940
N215	N	0.977120	0.057767	0.076393
N216	N	1.310453	0.391100	0.409727
H217	H	0.675695	-0.238978	-0.286908
H218	H	1.009028	0.094355	0.046426
H219	H	1.342362	0.427689	0.379759
H220	H	0.607737	-0.243556	-0.227182
H221	H	0.941070	0.089778	0.106152
H222	H	1.274403	0.423111	0.439485
N223	N	0.484025	-0.275590	-0.256938
N224	N	0.817358	0.057744	0.076396
N225	N	1.150691	0.391077	0.409729
H226	H	0.429505	-0.283281	-0.264062
H227	H	0.762839	0.050053	0.069271
H228	H	1.096172	0.383386	0.402604
H229	H	0.497446	-0.287841	-0.204365
H230	H	0.830779	0.045492	0.128968
H231	H	1.164113	0.378826	0.462301
N232	N	1.208542	-0.794542	-0.209860
N233	N	1.541875	-0.461209	0.123473
N234	N	1.875208	-0.127875	0.456807
H235	H	1.178649	-0.760330	-0.175723
H236	H	1.511982	-0.426996	0.157610
H237	H	1.845316	-0.093663	0.490944
H238	H	1.238377	-0.833260	-0.180127
H239	H	1.571711	-0.499926	0.153206
H240	H	1.905044	-0.166593	0.486540
N241	N	0.965729	-0.485711	-0.775067
N242	N	1.299062	-0.152378	-0.441734
N243	N	1.632395	0.180956	-0.108400
H244	H	0.977132	-0.542188	-0.788431
H245	H	1.310465	-0.208854	-0.455097
H246	H	1.643798	0.124479	-0.121764
H247	H	0.972879	-0.477987	-0.720562
H248	H	1.306212	-0.144654	-0.387229
H249	H	1.639545	0.188680	-0.053896
H250	H	0.931084	-0.955284	-0.486966
H251	H	1.264418	-0.621950	-0.153633
H252	H	1.597751	-0.288617	0.179701
H253	H	0.978214	-0.472314	-0.924667
H254	H	1.311547	-0.138981	-0.591333
H255	H	1.644880	0.194353	-0.258000
H256	H	0.978218	-1.079098	-0.439955
H257	H	1.311551	-0.745765	-0.106622
H258	H	1.644885	-0.412432	0.226712
N259	N	1.161525	-1.089954	-0.256896
N260	N	1.494858	-0.756621	0.076437
N261	N	1.828192	-0.423288	0.409771
H262	H	1.154395	-1.148513	-0.264032
H263	H	1.487729	-0.815180	0.069301
H264	H	1.821062	-0.481847	0.402634
H265	H	1.214076	-1.075486	-0.268392
H266	H	1.547410	-0.742153	0.064942
H267	H	1.880743	-0.408819	0.398275
H268	H	1.196127	-0.955222	-0.222297
H269	H	1.529460	-0.621889	0.111036
H270	H	1.862794	-0.288556	0.444369
H271	H	1.148950	-0.681644	-0.269295
H272	H	1.482284	-0.348310	0.064038
H273	H	1.815617	-0.014977	0.397372
