data_functionalizedCrystal
_audit_creation_method	'MofGen! by Chris Wilmer'
_symmetry_space_group_name_H-M	'P1'
_symmetry_Int_Tables_number	1
_symmetry_cell_setting	triclinic
loop_
_symmetry_equiv_pos_as_xyz
  x,y,z
_cell_length_a	15.298068
_cell_length_b	16.625545
_cell_length_c	15.296720
_cell_angle_alpha	99.644199
_cell_angle_beta	88.354818
_cell_angle_gamma	99.685208
loop_
_atom_site_label
_atom_site_type_symbol
_atom_site_fract_x
_atom_site_fract_y
_atom_site_fract_z
Zn1	Zn	1.253364	-0.239865	-0.727359
Zn2	Zn	1.278620	-0.348155	-0.580888
Zn3	Zn	1.132245	-0.232030	-0.555526
Zn4	Zn	1.106846	-0.393358	-0.701911
O5	O	1.192769	-0.303352	-0.641421
O6	O	1.379291	-0.238591	-0.729194
O7	O	1.280402	-0.310555	-0.454963
O8	O	1.148371	-0.120233	-0.578357
O9	O	1.397846	-0.318152	-0.621582
O10	O	1.237357	-0.125990	-0.704602
O11	O	1.172860	-0.225238	-0.436329
O12	O	1.006299	-0.269069	-0.553680
O13	O	1.105083	-0.395193	-0.827848
O14	O	0.987639	-0.387596	-0.661228
O15	O	1.212729	-0.282422	-0.846545
O16	O	1.255774	-0.466988	-0.596906
O17	O	1.129573	-0.500198	-0.685821
C18	C	0.965186	-0.332388	-0.601941
C19	C	0.867821	-0.344833	-0.585072
C20	C	0.554665	-0.214609	-0.761988
C21	C	0.646143	-0.202920	-0.777843
C22	C	0.701567	-0.238397	-0.729651
C23	C	0.665504	-0.285566	-0.665603
C24	C	0.574016	-0.297262	-0.649752
C25	C	0.720918	-0.321049	-0.617415
C26	C	0.684855	-0.368218	-0.553367
C27	C	0.593376	-0.379912	-0.537518
C28	C	0.537952	-0.344435	-0.585710
C29	C	0.812406	-0.309353	-0.633266
C30	C	0.831757	-0.392006	-0.521030
C31	C	0.740279	-0.403695	-0.505175
C32	C	1.192678	-0.512850	-0.641377
C33	C	1.192715	-0.602469	-0.641401
C34	C	1.192746	-0.675251	-0.641425
C35	C	1.192793	-0.766556	-0.641453
C36	C	1.192837	-0.839329	-0.641472
C37	C	1.192884	-0.930640	-0.641499
C38	C	1.421240	-0.274203	-0.681056
C39	C	1.518601	-0.261782	-0.697946
C40	C	1.153256	-0.344724	-0.869864
C41	C	1.136418	-0.362354	-0.967212
C42	C	1.192880	-0.093036	-0.641489
C43	C	1.192927	-0.003412	-0.641518
C44	C	1.313144	-0.177201	-1.280561
C45	C	1.328970	-0.160637	-1.189098
C46	C	1.280833	-0.211065	-1.133622
C47	C	1.216869	-0.278059	-1.169618
C48	C	1.201046	-0.294629	-1.261091
C49	C	1.168735	-0.328492	-1.114152
C50	C	1.104770	-0.395487	-1.150148
C51	C	1.088951	-0.412053	-1.241611
C52	C	1.137087	-0.361625	-1.297087
C53	C	1.184557	-0.311923	-1.022679
C54	C	1.072459	-0.429351	-1.003209
C55	C	1.056634	-0.445914	-1.094672
C56	C	1.232178	-0.262077	-0.413876
C57	C	1.249186	-0.244198	-0.316558
H58	H	0.841759	-0.270947	-0.685414
H59	H	1.381052	-0.106092	-1.159797
Cl60	Cl	0.548043	-0.439207	-0.456998
Cl61	Cl	0.484985	-0.170027	-0.822574
Cl62	Cl	0.976225	-0.530134	-1.139935
Cl63	Cl	1.008552	-0.496286	-1.286864
H64	H	0.776052	-0.228873	-0.742561
H65	H	0.675498	-0.164517	-0.829993
H66	H	0.463462	-0.353956	-0.572810
Cl67	Cl	0.694932	-0.462992	-0.424661
Cl68	Cl	1.011946	-0.492753	-0.933475
H69	H	0.876883	-0.420899	-0.481792
H70	H	1.124206	-0.375108	-1.371565
H71	H	1.236637	-0.257375	-0.993381
H72	H	1.293722	-0.197575	-1.059150
Cl73	Cl	1.373659	-0.113822	-1.350306
