data_functionalizedCrystal
_audit_creation_method	'MofGen! by Chris Wilmer'
_symmetry_space_group_name_H-M	'P1'
_symmetry_Int_Tables_number	1
_symmetry_cell_setting	triclinic
loop_
_symmetry_equiv_pos_as_xyz
  x,y,z
_cell_length_a	14.044191
_cell_length_b	15.711784
_cell_length_c	14.185569
_cell_angle_alpha	72.820611
_cell_angle_beta	104.380485
_cell_angle_gamma	106.390289
loop_
_atom_site_label
_atom_site_type_symbol
_atom_site_fract_x
_atom_site_fract_y
_atom_site_fract_z
O1	O	1.316866	0.232571	-0.083358
O2	O	1.038213	0.224841	-0.083371
O3	O	1.140459	0.100014	-0.083364
O4	O	1.214620	0.357397	-0.083364
O5	O	1.170665	0.063143	0.083472
O6	O	1.068419	0.187970	0.083466
O7	O	1.347072	0.195700	0.083479
Cu8	Cu	1.210504	0.188469	0.098706
Cu9	Cu	1.174781	0.232072	-0.098598
O10	O	1.244826	0.320527	0.083473
C11	C	1.016828	0.203023	0.000046
C12	C	0.908102	0.192933	0.000040
C13	C	1.143448	0.048441	0.000052
C14	C	1.107337	-0.050301	0.000045
C15	C	0.971396	-0.185731	0.000032
C16	C	1.005337	-0.092948	0.000038
C17	C	1.175437	-0.100428	0.000051
C18	C	1.141511	-0.193215	0.000049
C19	C	1.039490	-0.235858	0.000039
C20	C	1.209605	-0.243342	0.000056
C21	C	1.175680	-0.336119	0.000050
C22	C	1.073662	-0.378768	0.000037
C23	C	1.005565	-0.328635	0.000033
C24	C	1.311625	-0.200695	0.000060
C25	C	1.379719	-0.250822	0.000067
C26	C	1.345796	-0.343602	0.000067
C27	C	1.243777	-0.386252	0.000054
C28	C	1.413893	-0.393736	0.000071
C29	C	1.379968	-0.486513	0.000065
C30	C	1.209853	-0.479029	0.000048
C31	C	0.676237	0.246050	0.000051
C32	C	0.709054	0.174497	0.000049
C33	C	0.819815	0.184757	0.000044
C34	C	0.565466	0.235791	0.000055
C35	C	1.368457	0.217519	0.000060
C36	C	1.477182	0.227610	0.000059
C37	C	1.241837	0.372101	0.000054
C38	C	1.277946	0.470844	0.000055
N39	N	1.235636	0.157800	0.237478
N40	N	1.149655	0.262734	-0.237370
C41	C	1.075804	0.352800	0.605118
C42	C	1.094849	0.329575	0.710141
C43	C	1.185431	0.219088	0.710108
C44	C	1.166389	0.242300	0.605083
C45	C	1.111575	0.309157	0.552596
C46	C	1.202161	0.198658	0.552561
C47	C	1.183124	0.221872	0.447545
C48	C	1.128315	0.288728	0.395051
C49	C	1.092539	0.332371	0.447581
C50	C	1.256980	0.131806	0.605049
C51	C	1.292752	0.088163	0.552527
C52	C	1.273709	0.111372	0.447510
C53	C	1.218900	0.178229	0.395016
C54	C	1.309486	0.067729	0.394980
C55	C	1.290449	0.090943	0.289965
C56	C	1.199864	0.201442	0.290000
H57	H	1.126781	-0.513757	0.000062
H58	H	0.731321	0.315010	0.000048
O59	O	1.238562	0.154039	0.760991
C60	C	1.187565	0.070559	0.735346
H61	H	1.136243	0.084613	0.659103
H62	H	1.244953	0.033288	0.731742
H63	H	1.140264	0.026273	0.794455
H64	H	1.046041	-0.454312	0.000026
O65	O	1.274489	-0.058869	-0.000071
C66	C	1.283568	0.013656	-0.086487
H67	H	1.209586	0.037169	-0.115306
H68	H	1.346936	0.073020	-0.067045
H69	H	1.301522	-0.010573	-0.146986
O70	O	1.039411	0.397383	0.396474
C71	C	1.099567	0.469667	0.335739
H72	H	1.160677	0.443697	0.319998
H73	H	1.050398	0.496874	0.261896
H74	H	1.136269	0.526881	0.376208
O75	O	1.345883	0.023114	0.603410
C76	C	1.294886	-0.060366	0.577766
H77	H	1.243564	-0.046312	0.501522
H78	H	1.352273	-0.097637	0.574162
H79	H	1.247585	-0.104652	0.636875
H80	H	1.112820	0.307631	0.309541
H81	H	1.031160	0.407234	0.562382
H82	H	0.922493	-0.363363	0.000047
O83	O	0.872249	-0.227012	-0.000021
C84	C	0.819421	-0.162884	0.000006
H85	H	0.862817	-0.090861	-0.031570
H86	H	0.741365	-0.176369	-0.048439
H87	H	0.811361	-0.169565	0.080045
O88	O	0.939194	-0.044175	-0.000142
C89	C	0.938111	0.028829	-0.086531
H90	H	0.965222	0.012095	-0.146922
H91	H	0.858020	0.039605	-0.115542
H92	H	0.990211	0.093818	-0.066988
O93	O	1.344578	-0.110612	0.000259
C94	C	1.324883	-0.096674	0.086663
H95	H	1.317751	-0.163565	0.147038
H96	H	1.389487	-0.042644	0.115688
H97	H	1.251487	-0.072543	0.067133
O98	O	1.478793	-0.209264	0.000123
C99	C	1.494132	-0.116621	0.000099
H100	H	1.431381	-0.107713	0.031673
H101	H	1.570111	-0.094457	0.048547
H102	H	1.493309	-0.072779	-0.079939
H103	H	1.155220	0.255877	0.247264
H104	H	1.435416	-0.527326	0.000065
O105	O	1.362624	0.002686	0.445865
C106	C	1.311637	-0.080799	0.420229
H107	H	1.260310	-0.066755	0.343987
H108	H	1.369031	-0.118064	0.416626
H109	H	1.264342	-0.125087	0.479343
O110	O	1.512942	-0.352173	-0.000059
C111	C	1.522008	-0.279652	-0.086480
H112	H	1.448023	-0.256144	-0.115292
H113	H	1.585376	-0.220284	-0.067048
H114	H	1.539957	-0.303883	-0.146981
H115	H	0.653952	0.105548	-0.000022
O116	O	1.059975	0.372025	0.761006
C117	C	1.007535	0.436025	0.692156
H118	H	0.980248	0.416077	0.617293
H119	H	0.939942	0.436817	0.722511
H120	H	1.060008	0.506931	0.680991
O121	O	1.275602	0.109174	0.707062
C122	C	1.331637	0.040797	0.742126
H123	H	1.373319	0.043196	0.681592
H124	H	1.388536	0.053047	0.812375
H125	H	1.278372	-0.029141	0.760763
O126	O	1.325072	0.048595	0.238791
C127	C	1.242944	0.003173	0.178017
H128	H	1.176096	0.036040	0.162343
H129	H	1.265371	0.008706	0.104144
H130	H	1.220953	-0.071954	0.218418
