data_functionalizedCrystal
_audit_creation_method	'MofGen! by Chris Wilmer'
_symmetry_space_group_name_H-M	'P1'
_symmetry_Int_Tables_number	1
_symmetry_cell_setting	triclinic
loop_
_symmetry_equiv_pos_as_xyz
  x,y,z
_cell_length_a	17.699083
_cell_length_b	14.519709
_cell_length_c	16.176319
_cell_angle_alpha	89.992256
_cell_angle_beta	89.998611
_cell_angle_gamma	83.481580
loop_
_atom_site_label
_atom_site_type_symbol
_atom_site_fract_x
_atom_site_fract_y
_atom_site_fract_z
O1	O	1.004413	0.116624	-0.068632
O2	O	1.504413	0.616624	0.431368
O3	O	0.784078	0.131798	-0.068660
O4	O	1.284078	0.631798	0.431340
O5	O	0.900087	-0.010052	-0.068638
O6	O	1.400087	0.489948	0.431362
O7	O	0.888403	0.258474	-0.068654
O8	O	1.388403	0.758474	0.431346
O9	O	0.900071	-0.010061	0.068855
O10	O	1.400071	0.489939	0.568855
O11	O	0.784062	0.131789	0.068833
O12	O	1.284062	0.631789	0.568833
O13	O	1.004397	0.116615	0.068861
O14	O	1.504397	0.616615	0.568861
Cu15	Cu	0.894228	0.124201	0.081401
Cu16	Cu	1.394228	0.624201	0.581401
Cu17	Cu	0.894247	0.124212	-0.081200
Cu18	Cu	1.394247	0.624212	0.418800
O19	O	0.888387	0.258465	0.068839
O20	O	1.388387	0.758465	0.568839
C21	C	0.755871	0.131249	0.000083
C22	C	1.255871	0.631249	0.500083
C23	C	0.671848	0.129618	0.000073
C24	C	1.171848	0.629618	0.500073
C25	C	0.623466	0.212881	0.000068
C26	C	1.123466	0.712881	0.500068
C27	C	0.544518	0.211343	0.000079
C28	C	1.044518	0.711343	0.500079
C29	C	0.513954	0.126541	0.000089
C30	C	1.013954	0.626541	0.500089
C31	C	0.562343	0.043272	0.000096
C32	C	1.062343	0.543272	0.500096
C33	C	0.641289	0.044811	0.000091
C34	C	1.141289	0.544811	0.500091
C35	C	0.243962	0.037064	0.000117
C36	C	0.743962	0.537064	0.500117
C37	C	0.165010	0.035531	0.000119
C38	C	0.665010	0.535531	0.500119
C39	C	0.147191	0.203596	0.000105
C40	C	0.647191	0.703596	0.500105
C41	C	0.226137	0.205135	0.000100
C42	C	0.726137	0.705135	0.500100
C43	C	0.274519	0.121866	0.000112
C44	C	0.774519	0.621866	0.500112
C45	C	0.360123	0.123535	0.000102
C46	C	0.860123	0.623535	0.500102
C47	C	0.428352	0.124872	0.000093
C48	C	0.928352	0.624872	0.500093
C49	C	0.899534	-0.044414	0.000109
C50	C	1.399534	0.455586	0.500109
C51	C	0.897903	-0.146789	0.000109
C52	C	1.397903	0.353211	0.500109
C53	C	0.891896	-0.521659	0.000087
C54	C	1.391896	-0.021659	0.500087
C55	C	0.893564	-0.417358	0.000093
C56	C	1.393564	0.082642	0.500093
C57	C	0.894899	-0.334227	0.000099
C58	C	1.394899	0.165773	0.500099
C59	C	0.896568	-0.229920	0.000104
C60	C	1.396568	0.270080	0.500104
C61	C	1.032603	0.117164	0.000116
C62	C	1.532603	0.617164	0.500116
C63	C	1.116626	0.118795	0.000121
C64	C	1.616626	0.618795	0.500121
C65	C	0.888940	0.292827	0.000090
C66	C	1.388940	0.792827	0.500090
C67	C	0.890572	0.395202	0.000085
C68	C	1.390572	0.895202	0.500085
N69	N	0.894220	0.124193	0.195767
N70	N	1.394220	0.624193	0.695767
N71	N	0.894260	0.124213	-0.195565
N72	N	1.394260	0.624213	0.304435
C73	C	0.945604	0.061408	0.239040
C74	C	1.445604	0.561408	0.739040
C75	C	0.945608	0.061407	0.325588
C76	C	1.445608	0.561407	0.825588
C77	C	0.894231	0.124196	0.368859
C78	C	1.394231	0.624196	0.868859
C79	C	0.842841	0.186985	0.325579
C80	C	1.342841	0.686985	0.825579
C81	C	0.842834	0.186981	0.239034
C82	C	1.342834	0.686981	0.739034
C83	C	0.842867	0.187002	0.674608
C84	C	1.342867	0.687002	1.174608
C85	C	0.842879	0.187003	0.761159
C86	C	1.342879	0.687003	1.261159
C87	C	0.945641	0.061428	0.761161
C88	C	1.445641	0.561428	1.261161
C89	C	0.945634	0.061424	0.674616
C90	C	1.445634	0.561424	1.174616
C91	C	0.894242	0.124209	0.631343
C92	C	1.394242	0.624209	1.131343
C93	C	0.894237	0.124208	0.537499
C94	C	1.394237	0.624208	1.037499
C95	C	0.894238	0.124202	0.462702
C96	C	1.394238	0.624202	0.962702
H97	H	0.505128	0.279144	0.000074
H98	H	1.005128	0.779144	0.500074
H99	H	0.801004	0.238106	0.360816
H100	H	1.301004	0.738106	0.860816
O101	O	0.135194	-0.046770	0.000098
O102	O	0.635194	0.453230	0.500098
C103	C	0.055139	-0.030268	0.000116
C104	C	0.555139	0.469732	0.500116
H105	H	0.036703	0.041742	-0.025925
H106	H	0.536703	0.541742	0.474075
H107	H	0.030824	-0.084520	-0.039793
H108	H	0.530824	0.415480	0.460207
H109	H	0.033157	-0.034682	0.066080
H110	H	0.533157	0.465318	0.566080
O111	O	0.995525	0.000301	0.803108
O112	O	1.495525	0.500301	1.303108
C113	C	0.983088	-0.090973	0.781987
C114	C	1.483088	0.409027	1.281987
H115	H	0.953913	-0.090813	0.719152
H116	H	1.453913	0.409187	1.219152
H117	H	1.039916	-0.136479	0.779027
H118	H	1.539916	0.363521	1.279027
H119	H	0.945380	-0.119435	0.830702
H120	H	1.445380	0.380565	1.330702
H121	H	0.800990	0.238106	0.203801
H122	H	1.300990	0.738106	0.703801
O123	O	0.995381	0.000257	0.632560
O124	O	1.495381	0.500257	1.132560
C125	C	0.954665	-0.056577	0.582628
C126	C	1.454665	0.443423	1.082628
H127	H	0.895547	-0.019631	0.569600
H128	H	1.395547	0.480369	1.069600
H129	H	0.986223	-0.071434	0.521793
H130	H	1.486223	0.428566	1.021793
H131	H	0.949303	-0.124623	0.616113
H132	H	1.449303	0.375377	1.116113
O133	O	0.792859	0.247904	0.803158
O134	O	1.292859	0.747904	1.303158
C135	C	0.717920	0.233029	0.782013
C136	C	1.217920	0.733029	1.282013
H137	H	0.717458	0.159191	0.758231
H138	H	1.217458	0.659191	1.258231
H139	H	0.679960	0.243687	0.838935
H140	H	1.179960	0.743687	1.338935
H141	H	0.695745	0.284178	0.731775
H142	H	1.195745	0.784178	1.231775
O143	O	0.653026	0.295340	0.000095
O144	O	1.153026	0.795340	0.500095
C145	C	0.593389	0.368499	0.000073
C146	C	1.093389	0.868499	0.500073
H147	H	0.539728	0.342763	0.026109
H148	H	1.039728	0.842763	0.526109
H149	H	0.609966	0.427714	0.039986
H150	H	1.109966	0.927714	0.539986
H151	H	0.582249	0.394178	-0.065890
H152	H	1.082249	0.894178	0.434110
O153	O	0.995605	0.000392	0.367495
O154	O	1.495605	0.500392	0.867495
C155	C	1.040944	-0.055034	0.310744
C156	C	1.540944	0.444966	0.810744
H157	H	1.041833	-0.017228	0.249044
H158	H	1.541833	0.482772	0.749044
H159	H	1.101371	-0.069177	0.335741
H160	H	1.601371	0.430823	0.835741
H161	H	1.016294	-0.123517	0.301558
H162	H	1.516294	0.376483	0.801558
O163	O	0.290845	-0.043905	0.000088
O164	O	0.790845	0.456095	0.500088
C165	C	0.246937	-0.119079	0.000116
C166	C	0.746937	0.380921	0.500116
H167	H	0.188050	-0.095535	-0.025917
H168	H	0.688050	0.404465	0.474083
H169	H	0.275978	-0.177409	-0.039795
H170	H	0.775978	0.322591	0.460205
H171	H	0.241278	-0.145082	0.066081
H172	H	0.741278	0.354918	0.566081
H173	H	0.107789	0.271397	0.000100
H174	H	0.607789	0.771397	0.500100
O175	O	0.255700	0.287592	0.000128
O176	O	0.755700	0.787592	0.500128
C177	C	0.196066	0.360754	0.000107
C178	C	0.696066	0.860754	0.500107
H179	H	0.142403	0.335021	0.026140
H180	H	0.642403	0.835021	0.526140
H181	H	0.212645	0.419967	0.040021
H182	H	0.712645	0.919967	0.540021
H183	H	0.184929	0.386436	-0.065856
H184	H	0.684929	0.886436	0.434144
O185	O	0.532531	-0.039025	0.000070
O186	O	1.032531	0.460975	0.500070
C187	C	0.452476	-0.022531	0.000092
C188	C	0.952476	0.477469	0.500092
H189	H	0.434033	0.049480	-0.025944
H190	H	0.934033	0.549480	0.474056
H191	H	0.428164	-0.076783	-0.039820
H192	H	0.928164	0.423217	0.460180
H193	H	0.430495	-0.026954	0.066056
H194	H	0.930495	0.473046	0.566056
H195	H	0.680683	-0.022990	0.000095
H196	H	1.180683	0.477010	0.500095
O197	O	0.995395	0.000338	0.196938
O198	O	1.495395	0.500338	0.696938
C199	C	0.954757	-0.056510	0.146933
C200	C	1.454757	0.443490	0.646933
H201	H	0.895598	-0.019655	0.133949
H202	H	1.395598	0.480345	0.633949
H203	H	0.986322	-0.071211	0.086081
H204	H	1.486322	0.428789	0.586081
H205	H	0.949491	-0.124631	0.180333
H206	H	1.449491	0.375369	0.680333
H207	H	0.801023	0.238125	0.639382
H208	H	1.301023	0.738125	1.139382
