data_functionalizedCrystal
_audit_creation_method	'MofGen! by Chris Wilmer'
_symmetry_space_group_name_H-M	'P1'
_symmetry_Int_Tables_number	1
_symmetry_cell_setting	triclinic
loop_
_symmetry_equiv_pos_as_xyz
  x,y,z
_cell_length_a	12.645331
_cell_length_b	21.295417
_cell_length_c	12.645324
_cell_angle_alpha	89.959112
_cell_angle_beta	89.977038
_cell_angle_gamma	90.029485
loop_
_atom_site_label
_atom_site_type_symbol
_atom_site_fract_x
_atom_site_fract_y
_atom_site_fract_z
Zn1	Zn	1.620640	-0.250579	-0.599379
Zn2	Zn	2.120640	0.249421	-0.099379
Zn3	Zn	1.620481	-0.355866	-0.422091
Zn4	Zn	2.120481	0.144134	0.077909
Zn5	Zn	1.443354	-0.250612	-0.422123
Zn6	Zn	1.943354	0.249388	0.077877
Zn7	Zn	1.443297	-0.355812	-0.599306
Zn8	Zn	1.943297	0.144188	-0.099306
O9	O	1.531943	-0.303217	-0.510725
O10	O	2.031943	0.196783	-0.010725
O11	O	1.768966	-0.264553	-0.575878
O12	O	2.268966	0.235447	-0.075878
O13	O	1.596942	-0.341940	-0.273748
O14	O	2.096942	0.158060	0.226252
O15	O	1.466961	-0.162519	-0.445681
O16	O	1.966961	0.337481	0.054319
O17	O	1.768849	-0.341907	-0.445625
O18	O	2.268849	0.158093	0.054375
O19	O	1.597213	-0.162494	-0.575910
O20	O	2.097213	0.337506	-0.075910
O21	O	1.466807	-0.264611	-0.273772
O22	O	1.966807	0.235389	0.226228
O23	O	1.294999	-0.264559	-0.445610
O24	O	1.794999	0.235441	0.054390
O25	O	1.466864	-0.341816	-0.747663
O26	O	1.966864	0.158184	-0.247663
O27	O	1.294957	-0.341849	-0.575786
O28	O	1.794957	0.158151	-0.075786
O29	O	1.597158	-0.264501	-0.747717
O30	O	2.097158	0.235499	-0.247717
O31	O	1.596887	-0.443948	-0.445555
O32	O	2.096887	0.056052	0.054445
O33	O	1.466710	-0.443908	-0.575754
O34	O	1.966710	0.056092	-0.075754
C35	C	1.256513	-0.303202	-0.510694
C36	C	1.756513	0.196798	-0.010694
C37	C	1.138683	-0.303211	-0.510706
C38	C	1.638683	0.196789	-0.010706
C39	C	1.531804	-0.466769	-0.510666
C40	C	2.031804	0.033231	-0.010666
C41	C	1.531841	-0.536737	-0.510677
C42	C	2.031841	-0.036737	-0.010677
C43	C	0.971110	-0.254364	-0.429265
C44	C	1.471110	0.245636	0.070735
C45	C	1.093670	-0.254491	-0.428906
C46	C	1.593670	0.245509	0.071094
C47	C	1.094138	-0.369526	-0.480174
C48	C	1.594138	0.130474	0.019826
C49	C	0.971539	-0.369259	-0.479618
C50	C	1.471539	0.130741	0.020382
C51	C	0.971541	-0.286374	-0.622995
C52	C	1.471541	0.213626	-0.122995
C53	C	1.094147	-0.284893	-0.622372
C54	C	1.594147	0.215107	-0.122372
C55	C	1.599684	-0.569603	-0.442951
C56	C	2.099684	-0.069603	0.057049
C57	C	1.599734	-0.635346	-0.442975
C58	C	2.099734	-0.135346	0.057025
C59	C	1.531922	-0.668219	-0.510713
C60	C	2.031922	-0.168219	-0.010713
C61	C	1.464074	-0.635345	-0.578452
C62	C	1.964074	-0.135345	-0.078452
C63	C	1.464034	-0.569604	-0.578433
C64	C	1.964034	-0.069604	-0.078433
N65	N	1.439186	-0.771483	-0.518784
N66	N	1.939186	-0.271483	-0.018784
N67	N	1.439227	-0.833935	-0.518796
N68	N	1.939227	-0.333935	-0.018796
C69	C	1.532040	-0.866294	-0.510774
C70	C	2.032040	-0.366294	-0.010774
N71	N	1.624813	-0.833843	-0.502720
N72	N	2.124813	-0.333843	-0.002720
N73	N	1.624771	-0.771385	-0.502703
N74	N	2.124771	-0.271385	-0.002703
C75	C	1.531958	-0.739505	-0.510741
C76	C	2.031958	-0.239505	-0.010741
C77	C	1.599943	-0.970446	-0.443071
C78	C	2.099943	-0.470446	0.056929
C79	C	1.599995	-1.036190	-0.443102
C80	C	2.099995	-0.536190	0.056898
C81	C	1.464325	-1.036188	-0.578573
C82	C	1.964325	-0.536188	-0.078573
C83	C	1.464283	-0.970445	-0.578547
C84	C	1.964283	-0.470445	-0.078547
C85	C	1.532091	-0.937578	-0.510791
C86	C	2.032091	-0.437578	-0.010791
C87	C	1.808448	-0.303233	-0.510756
C88	C	2.308448	0.196767	-0.010756
C89	C	1.926278	-0.303239	-0.510770
C90	C	2.426278	0.196761	-0.010770
C91	C	1.532022	-0.303149	-0.787230
C92	C	2.032022	0.196851	-0.287230
C93	C	1.532056	-0.303120	-0.905061
C94	C	2.032056	0.196880	-0.405061
C95	C	1.532111	-0.139027	-0.510807
C96	C	2.032111	0.360973	-0.010807
C97	C	1.532183	-0.069059	-0.510842
C98	C	2.032183	0.430941	-0.010842
C99	C	1.614343	-0.254622	-1.072658
C100	C	2.114343	0.245378	-0.572658
C101	C	1.614079	-0.254447	-0.950098
C102	C	2.114079	0.245553	-0.450098
C103	C	1.420381	-0.285092	-0.949543
C104	C	1.920381	0.214908	-0.449543
C105	C	1.420880	-0.284723	-1.072142
C106	C	1.920880	0.215277	-0.572142
C107	C	1.560538	-0.369716	-1.072241
C108	C	2.060538	0.130284	-0.572241
C109	C	1.562982	-0.369381	-0.949635
C110	C	2.062982	0.130619	-0.449635
C111	C	1.531925	-0.303240	-0.235295
C112	C	2.031925	0.196760	0.264705
C113	C	1.532096	-0.303092	-0.117466
C114	C	2.032096	0.196908	0.382534
H115	H	1.123789	-0.205316	-0.448045
H116	H	1.623789	0.294684	0.051955
H117	H	1.595755	-0.205541	-1.103495
H118	H	2.095755	0.294459	-0.603495
N119	N	1.589163	-0.189071	-0.911274
N120	N	2.089163	0.310929	-0.411274
H121	H	1.578299	-0.160255	-0.973802
H122	H	2.078299	0.339745	-0.473802
H123	H	1.522666	-0.190177	-0.867044
H124	H	2.022666	0.309823	-0.367044
H125	H	1.655160	-0.943685	-0.387902
H126	H	2.155160	-0.443685	0.112098
H127	H	0.942549	-0.321972	-0.683723
H128	H	1.442549	0.178028	-0.183723
H129	H	0.941881	-0.406908	-0.536393
H130	H	1.441881	0.093092	-0.036393
N131	N	1.387855	-0.221297	-0.908919
N132	N	1.887855	0.278703	-0.408919
H133	H	1.315898	-0.210115	-0.937982
H134	H	1.815898	0.289885	-0.437982
H135	H	1.384773	-0.222253	-0.829124
H136	H	1.884773	0.277747	-0.329124
N137	N	0.932097	-0.189029	-0.454324
N138	N	1.432097	0.310971	0.045676
H139	H	0.884981	-0.190475	-0.518752
H140	H	1.384981	0.309525	-0.018752
H141	H	0.890753	-0.172235	-0.392131
H142	H	1.390753	0.327765	0.107869
H143	H	1.654900	-0.542845	-0.387782
H144	H	2.154900	-0.042845	0.112218
N145	N	1.388937	-0.220216	-1.110067
N146	N	1.888937	0.279784	-0.610067
H147	H	1.374665	-0.192286	-1.047145
H148	H	1.874665	0.307714	-0.547145
H149	H	1.447924	-0.201620	-1.153938
H150	H	1.947924	0.298380	-0.653938
H151	H	0.940257	-0.265388	-0.346591
H152	H	1.440257	0.234612	0.153409
H153	H	1.507430	-0.407438	-0.918972
H154	H	2.007430	0.092562	-0.418972
N155	N	1.390853	-0.534147	-0.651474
N156	N	1.890853	-0.034147	-0.151474
H157	H	1.407283	-0.545537	-0.727238
H158	H	1.907283	-0.045537	-0.227238
H159	H	1.315154	-0.545652	-0.634853
H160	H	1.815154	-0.045652	-0.134853
H161	H	1.357434	-0.319310	-0.920367
H162	H	1.857434	0.180690	-0.420367
H163	H	1.357516	-0.318491	-1.101780
H164	H	1.857516	0.181509	-0.601780
N165	N	1.666557	-0.391438	-1.113205
N166	N	2.166557	0.108562	-0.613205
H167	H	1.697225	-0.358307	-1.161502
H168	H	2.197225	0.141693	-0.661502
H169	H	1.716040	-0.398656	-1.051718
H170	H	2.216040	0.101344	-0.551718
N171	N	1.391181	-1.071630	-0.651642
N172	N	1.891181	-0.571630	-0.151642
H173	H	1.434253	-1.098857	-0.700818
H174	H	1.934253	-0.598857	-0.200818
H175	H	1.342105	-1.098918	-0.608452
H176	H	1.842105	-0.598918	-0.108452
N177	N	1.671841	-0.387394	-0.911128
N178	N	2.171841	0.112606	-0.411128
H179	H	1.701011	-0.352783	-0.864999
H180	H	2.201011	0.147217	-0.364999
H181	H	1.667172	-0.427563	-0.868871
H182	H	2.167172	0.072437	-0.368871
N183	N	1.723774	-0.269384	-0.910256
N184	N	2.223774	0.230616	-0.410256
H185	H	1.723813	-0.269295	-0.830385
H186	H	2.223813	0.230705	-0.330385
H187	H	1.745795	-0.312157	-0.936741
H188	H	2.245795	0.187843	-0.436741
H189	H	1.124787	-0.384073	-0.399012
H190	H	1.624787	0.115927	0.100988
N191	N	1.481191	-0.417557	-1.110612
N192	N	1.981191	0.082443	-0.610612
H193	H	1.427079	-0.396213	-1.157063
H194	H	1.927079	0.103787	-0.657063
H195	H	1.518906	-0.451135	-1.152501
H196	H	2.018906	0.048865	-0.652501
N197	N	0.930639	-0.223440	-0.659783
N198	N	1.430639	0.276560	-0.159783
H199	H	0.882347	-0.205224	-0.604066
H200	H	1.382347	0.294776	-0.104066
H201	H	0.992155	-0.194046	-0.671991
H202	H	1.492155	0.305954	-0.171991
H203	H	1.123269	-0.236092	-0.645395
H204	H	1.623269	0.263908	-0.145395
N205	N	1.134729	-0.328605	-0.707123
N206	N	1.634729	0.171395	-0.207123
H207	H	1.182771	-0.361048	-0.674187
H208	H	1.682771	0.138952	-0.174187
H209	H	1.073051	-0.350294	-0.742328
H210	H	1.573051	0.149706	-0.242328
N211	N	1.673178	-1.071642	-0.370058
N212	N	2.173178	-0.571642	0.129942
H213	H	1.716123	-1.040842	-0.327133
H214	H	2.216123	-0.540842	0.172867
H215	H	1.630065	-1.098969	-0.320973
H216	H	2.130065	-0.598969	0.179027
N217	N	1.672912	-0.670805	-0.369927
N218	N	2.172912	-0.170805	0.130073
H219	H	1.715862	-0.640008	-0.327003
H220	H	2.215862	-0.140008	0.172997
H221	H	1.629793	-0.698129	-0.320842
H222	H	2.129793	-0.198129	0.179158
H223	H	1.122943	-0.265638	-0.345743
H224	H	1.622943	0.234362	0.154257
N225	N	1.391101	-0.934992	-0.651587
N226	N	1.891101	-0.434992	-0.151587
H227	H	1.348146	-0.965791	-0.694502
H228	H	1.848146	-0.465791	-0.194502
H229	H	1.342050	-0.907765	-0.608377
H230	H	1.842050	-0.407765	-0.108377
N231	N	1.724403	-0.269384	-1.111714
N232	N	2.224403	0.230616	-0.611714
H233	H	1.722022	-0.307632	-1.158835
H234	H	2.222022	0.192368	-0.658835
H235	H	1.752689	-0.232416	-1.153059
H236	H	2.252689	0.267584	-0.653059
H237	H	1.123293	-0.406915	-0.537674
H238	H	1.623293	0.093085	-0.037674
N239	N	0.933576	-0.388201	-0.370947
N240	N	1.433576	0.111799	0.129053
H241	H	0.996481	-0.396645	-0.323854
H242	H	1.496481	0.103355	0.176146
H243	H	0.889729	-0.353174	-0.339758
H244	H	1.389729	0.146826	0.160242
H245	H	1.408862	-0.662115	-0.633606
H246	H	1.908862	-0.162115	-0.133606
