data_functionalizedCrystal
_audit_creation_method	'MofGen! by Chris Wilmer'
_symmetry_space_group_name_H-M	'P1'
_symmetry_Int_Tables_number	1
_symmetry_cell_setting	triclinic
loop_
_symmetry_equiv_pos_as_xyz
  x,y,z
_cell_length_a	12.759395
_cell_length_b	19.077068
_cell_length_c	19.076919
_cell_angle_alpha	85.529249
_cell_angle_beta	92.282406
_cell_angle_gamma	87.672323
loop_
_atom_site_label
_atom_site_type_symbol
_atom_site_fract_x
_atom_site_fract_y
_atom_site_fract_z
Zn1	Zn	1.563742	0.296669	-0.409823
Zn2	Zn	1.563612	0.409823	-0.296668
Zn3	Zn	1.395410	0.291955	-0.291956
Zn4	Zn	1.380644	0.414521	-0.414514
O5	O	1.475852	0.353242	-0.353240
O6	O	1.710745	0.311686	-0.394821
O7	O	1.547425	0.390248	-0.197396
O8	O	1.423974	0.193931	-0.303656
O9	O	1.710649	0.394819	-0.311687
O10	O	1.547646	0.197395	-0.390253
O11	O	1.423848	0.303651	-0.193934
O12	O	1.246431	0.308207	-0.308205
O13	O	1.398806	0.402827	-0.512539
O14	O	1.235582	0.398256	-0.398248
O15	O	1.533328	0.316242	-0.509093
O16	O	1.533106	0.509095	-0.316236
O17	O	1.398680	0.512547	-0.402817
C18	C	1.202886	0.353230	-0.353225
C19	C	1.086108	0.353243	-0.353236
C20	C	0.855423	0.447167	-0.446885
C21	C	0.904667	0.494114	-0.493693
C22	C	1.014389	0.494105	-0.493683
C23	C	1.074872	0.447146	-0.446860
C24	C	1.025628	0.400199	-0.400052
C25	C	0.915903	0.400211	-0.400068
C26	C	1.036864	0.306295	-0.306428
C27	C	0.927142	0.306300	-0.306440
C28	C	1.097347	0.259336	-0.259605
C29	C	1.048104	0.212384	-0.212800
C30	C	0.938374	0.212395	-0.212811
C31	C	0.877898	0.259353	-0.259632
C32	C	1.464304	0.536400	-0.360562
C33	C	1.459459	0.614757	-0.363718
C34	C	1.464434	0.360584	-0.537109
C35	C	1.459569	0.363713	-0.615463
C36	C	1.749883	0.353254	-0.353256
C37	C	1.866659	0.353260	-0.353263
C38	C	1.487472	0.169369	-0.345905
C39	C	1.492423	0.091013	-0.342780
C40	C	1.527221	0.649750	-0.320160
C41	C	1.522670	0.723375	-0.323132
C42	C	1.450351	0.762006	-0.369660
C43	C	1.382586	0.727007	-0.413223
C44	C	1.387143	0.653384	-0.410253
C45	C	1.429216	0.982392	-0.383373
C46	C	1.424662	1.056020	-0.386338
C47	C	1.564747	1.052383	-0.296248
C48	C	1.569294	0.978758	-0.293280
C49	C	1.501533	0.943766	-0.336845
N50	N	1.445695	0.837262	-0.372697
N51	N	1.506195	0.868511	-0.333810
C52	C	1.527318	0.320105	-0.650481
C53	C	1.522734	0.323042	-0.724103
C54	C	1.450405	0.369592	-0.762706
C55	C	1.382649	0.413202	-0.727683
C56	C	1.387229	0.410260	-0.654062
C57	C	1.429193	0.383219	-0.983080
C58	C	1.424621	0.386158	-1.056706
C59	C	1.564704	0.295997	-1.053120
C60	C	1.569282	0.293063	-0.979498
C61	C	1.501522	0.336671	-0.944482
N62	N	1.445720	0.372596	-0.837959
N63	N	1.506203	0.333661	-0.869230
C64	C	1.487288	0.345877	-0.170085
C65	C	1.492369	0.342550	-0.091723
H66	H	1.054482	0.532336	-0.531796
H67	H	1.164213	0.447148	-0.446850
C68	C	1.114633	0.160734	-0.161298
C69	C	1.235324	0.160728	-0.161282
C70	C	1.301858	0.109076	-0.109780
C71	C	1.247700	0.057431	-0.058295
C72	C	1.127002	0.057435	-0.058310
C73	C	1.060468	0.109087	-0.109811
H74	H	1.275421	0.198961	-0.199396
H75	H	1.391207	0.109073	-0.109770
H76	H	1.296952	0.019195	-0.020171
H77	H	1.086905	0.019202	-0.020196
H78	H	0.971120	0.109090	-0.109822
H79	H	1.374040	0.953907	-0.418845
H80	H	0.766081	0.447173	-0.446904
H81	H	1.186689	0.259335	-0.259597
H82	H	1.365783	1.087471	-0.424239
H83	H	1.628181	0.947307	-0.255393
C84	C	1.606776	0.607261	-0.268978
C85	C	1.690459	0.557809	-0.297531
C86	C	1.770019	0.515322	-0.246350
C87	C	1.765896	0.522288	-0.166617
C88	C	1.682209	0.571742	-0.138060
C89	C	1.602649	0.614228	-0.189241
H90	H	1.693514	0.552651	-0.356558
H91	H	1.831969	0.478713	-0.267490
H92	H	1.824791	0.490836	-0.128729
H93	H	1.679154	0.576899	-0.079033
H94	H	1.540699	0.650837	-0.168101
C95	C	1.303032	0.769498	-0.464404
C96	C	1.228496	0.731005	-0.512318
C97	C	1.148938	0.773494	-0.563498
C98	C	1.143915	0.854477	-0.566764
C99	C	1.218454	0.892975	-0.518848
C100	C	1.298013	0.850486	-0.467667
H101	H	1.232212	0.671052	-0.509903
H102	H	1.093759	0.744994	-0.598969
H103	H	1.085021	0.885929	-0.604650
H104	H	1.214739	0.952927	-0.521263
H105	H	1.353191	0.878985	-0.432197
H106	H	0.788556	0.259363	-0.259650
H107	H	1.331966	0.624893	-0.445724
H108	H	1.577848	0.751863	-0.287662
H109	H	0.898287	0.174165	-0.174694
C110	C	1.354647	0.431191	-0.944583
C111	C	1.234951	0.425829	-0.954492
C112	C	1.160393	0.473805	-0.915999
C113	C	1.205531	0.527144	-0.867599
C114	C	1.325233	0.532509	-0.857688
C115	C	1.399791	0.484533	-0.896180
H116	H	1.201532	0.386342	-0.990323
H117	H	1.071782	0.469833	-0.923336
H118	H	1.150338	0.562659	-0.839104
H119	H	1.358652	0.571996	-0.821857
H120	H	1.488402	0.488505	-0.888844
C121	C	1.639289	1.090875	-0.248334
C122	C	1.634287	1.171858	-0.251597
C123	C	1.708836	1.210349	-0.203683
C124	C	1.788387	1.167858	-0.152505
C125	C	1.793392	1.086870	-0.149240
C126	C	1.718843	1.048379	-0.197154
H127	H	1.575396	1.203316	-0.289483
H128	H	1.705130	1.270301	-0.206100
H129	H	1.843572	1.196351	-0.117037
H130	H	1.852283	1.055411	-0.111354
H131	H	1.722549	0.988426	-0.194737
H132	H	1.332051	0.445764	-0.625552
C133	C	1.597266	0.275074	-0.762619
C134	C	1.674668	0.307647	-0.814459
C135	C	1.749204	0.259675	-0.852973
C136	C	1.746338	0.179130	-0.839646
C137	C	1.668932	0.146553	-0.787803
C138	C	1.594396	0.194525	-0.749289
H139	H	1.676793	0.367274	-0.824327
H140	H	1.806505	0.283791	-0.891351
H141	H	1.801514	0.143618	-0.868157
H142	H	1.666808	0.086925	-0.777936
H143	H	1.537096	0.170408	-0.710911
H144	H	1.586219	0.282201	-0.619055
C145	C	0.838136	0.545766	-0.545199
C146	C	0.717444	0.545778	-0.545219
C147	C	0.650918	0.597429	-0.596725
C148	C	0.705083	0.649069	-0.648212
C149	C	0.825782	0.649059	-0.648194
C150	C	0.892308	0.597407	-0.596688
H151	H	0.677341	0.507549	-0.507104
H152	H	0.561568	0.597436	-0.596738
H153	H	0.655837	0.687304	-0.686340
H154	H	0.865884	0.687287	-0.686310
H155	H	0.981657	0.597400	-0.596675
H156	H	1.628182	0.255160	-0.948073
H157	H	1.619869	0.260494	-1.081638
C158	C	1.345085	0.437388	-1.099172
C159	C	1.270575	0.485372	-1.060658
C160	C	1.191064	0.536611	-1.103125
C161	C	1.186062	0.539866	-1.184106
C162	C	1.260575	0.491881	-1.222624
C163	C	1.340086	0.440641	-1.180157
H164	H	1.274276	0.482963	-1.000708
H165	H	1.135905	0.572133	-1.074611
H166	H	1.127203	0.577797	-1.215542
H167	H	1.256874	0.494289	-1.282574
H168	H	1.395245	0.405119	-1.208671
H169	H	1.323754	0.451101	-0.759119
