data_functionalizedCrystal
_audit_creation_method	'MofGen! by Chris Wilmer'
_symmetry_space_group_name_H-M	'P1'
_symmetry_Int_Tables_number	1
_symmetry_cell_setting	triclinic
loop_
_symmetry_equiv_pos_as_xyz
  x,y,z
_cell_length_a	16.793024
_cell_length_b	16.793047
_cell_length_c	33.586455
_cell_angle_alpha	113.253857
_cell_angle_beta	66.219990
_cell_angle_gamma	112.758327
loop_
_atom_site_label
_atom_site_type_symbol
_atom_site_fract_x
_atom_site_fract_y
_atom_site_fract_z
O1	O	0.005016	-0.570216	-0.583573
O2	O	-0.034529	-0.474528	-0.453458
O3	O	0.114723	-0.474535	-0.528082
O4	O	-0.144235	-0.570209	-0.508949
O5	O	0.108729	-0.346329	-0.530229
O6	O	-0.040523	-0.346322	-0.455605
O7	O	-0.000977	-0.442010	-0.585721
Zn8	Zn	-0.021701	-0.373810	-0.521004
Zn9	Zn	-0.013805	-0.542728	-0.518175
O10	O	-0.150229	-0.442003	-0.511097
C11	C	0.005100	-0.790970	-0.238461
C12	C	0.009223	-0.693065	-0.217557
C13	C	0.003804	-0.645758	-0.241627
C14	C	-0.075059	-0.538459	-0.266316
C15	C	0.049838	-0.422849	-0.250165
C16	C	-0.040584	-0.395375	-0.435637
C17	C	-0.044693	-0.353446	-0.386631
C18	C	-0.039275	-0.401741	-0.363054
C19	C	-0.040566	-0.125547	-0.300731
C20	C	-0.044689	-0.223451	-0.321635
C21	C	-0.039266	-0.270752	-0.297563
C22	C	0.039597	-0.378051	-0.272874
C23	C	-0.085304	-0.493667	-0.289026
C24	C	0.005118	-0.521142	-0.103554
C25	C	0.009231	-0.563064	-0.152559
C26	C	0.003809	-0.514775	-0.176138
C27	C	0.010758	-0.652581	-0.172822
C28	C	0.001010	-0.556371	-0.220792
C29	C	-0.008251	-0.506059	-0.245823
C30	C	-0.046224	-0.263935	-0.366370
C31	C	-0.036476	-0.360146	-0.318399
C32	C	-0.027211	-0.410451	-0.293367
C33	C	0.815184	-0.521162	-0.508596
C34	C	0.415541	-0.125553	-0.528781
C35	C	0.375032	-0.223457	-0.531493
C36	C	0.423813	-0.270761	-0.529101
C37	C	0.149318	-0.395376	-0.530584
C38	C	0.246774	-0.353455	-0.532364
C39	C	0.294574	-0.401748	-0.529976
C40	C	0.548961	-0.790984	-0.510398
C41	C	0.286104	-0.263940	-0.532530
C42	C	0.383336	-0.360149	-0.528302
C43	C	0.432207	-0.407971	-0.525810
C44	C	0.392316	-0.497392	-0.524993
C45	C	0.303554	-0.538991	-0.526667
C46	C	0.254683	-0.491169	-0.529159
C47	C	0.263666	-0.628421	-0.525851
C48	C	0.312537	-0.676243	-0.523359
C49	C	0.401299	-0.634644	-0.521685
C50	C	0.441190	-0.545223	-0.522502
C51	C	0.529952	-0.503624	-0.520828
C52	C	0.578823	-0.551446	-0.518336
C53	C	0.538939	-0.640864	-0.517520
C54	C	0.450177	-0.682463	-0.519194
C55	C	0.587810	-0.688687	-0.515028
C56	C	0.676572	-0.647088	-0.513354
C57	C	0.716463	-0.557666	-0.514172
C58	C	0.667586	-0.509847	-0.516662
C59	C	0.569840	-0.414195	-0.521644
C60	C	0.658602	-0.372596	-0.519970
C61	C	0.707476	-0.420426	-0.517480
C62	C	0.698493	-0.283174	-0.520788
C63	C	0.649622	-0.235352	-0.523280
C64	C	0.560860	-0.276951	-0.524954
C65	C	0.520969	-0.366372	-0.524136
C66	C	0.511989	-0.229129	-0.527446
C67	C	-0.040530	-0.395407	-0.935652
C68	C	0.005063	-0.791004	-0.738448
C69	C	0.009186	-0.693099	-0.717543
C70	C	0.003779	-0.645796	-0.741620
C71	C	0.005077	-0.521171	-0.603544
C72	C	0.009198	-0.563096	-0.652550
C73	C	0.003786	-0.514804	-0.676131
C74	C	-0.040516	-0.125574	-0.800747
C75	C	0.010719	-0.652613	-0.672809
C76	C	0.000994	-0.556406	-0.720789
C77	C	-0.004621	-0.508585	-0.744908
C78	C	-0.007444	-0.419162	-0.724369
C79	C	-0.004651	-0.377560	-0.679711
C80	C	0.000964	-0.425381	-0.655592
C81	C	-0.007471	-0.288129	-0.659174
C82	C	-0.013086	-0.240308	-0.683293
C83	C	-0.015878	-0.281910	-0.727951
C84	C	-0.013056	-0.371333	-0.748490
C85	C	-0.015848	-0.412935	-0.793148
C86	C	-0.021463	-0.365114	-0.817267
C87	C	-0.024282	-0.275694	-0.796731
C88	C	-0.021490	-0.234092	-0.752073
C89	C	-0.029897	-0.227873	-0.820850
C90	C	-0.032690	-0.269476	-0.865508
C91	C	-0.029867	-0.358899	-0.886047
C92	C	-0.024255	-0.406717	-0.861925
C93	C	-0.013028	-0.502367	-0.813685
C94	C	-0.015821	-0.543969	-0.858343
C95	C	-0.021433	-0.496140	-0.882464
C96	C	-0.012998	-0.633392	-0.878882
C97	C	-0.007383	-0.681213	-0.854763
C98	C	-0.004591	-0.639611	-0.810105
C99	C	-0.007414	-0.550188	-0.789566
C100	C	0.001024	-0.687432	-0.785986
O101	O	-0.000965	0.173549	-0.277957
O102	O	-0.040516	-0.085616	-0.325254
O103	O	0.108737	0.059592	-0.327284
O104	O	-0.150219	0.028341	-0.275927
O105	O	0.114753	0.055151	-0.263265
O106	O	-0.034500	-0.090057	-0.261234
O107	O	0.005051	0.169108	-0.213937
Zn108	Zn	-0.013769	0.038820	-0.227421
Zn109	Zn	-0.021696	0.044672	-0.311770
O110	O	-0.144202	0.023900	-0.211907
O111	O	-0.034458	-0.474571	0.046517
O112	O	0.005076	-0.570190	-0.083599
O113	O	-0.144170	-0.570237	-0.008972
O114	O	0.114787	-0.474523	-0.028110
O115	O	-0.150200	-0.442024	-0.011093
O116	O	-0.000954	-0.441976	-0.085720
O117	O	-0.040488	-0.346357	0.044396
Zn118	Zn	-0.021679	-0.373810	-0.020999
Zn119	Zn	-0.013734	-0.542737	-0.018204
O120	O	0.108757	-0.346309	-0.030231
C121	C	-0.850734	0.086244	-0.289716
C122	C	-0.753280	0.087165	-0.312001
C123	C	-0.705462	0.081107	-0.288506
C124	C	-0.599592	0.000085	-0.264184
C125	C	-0.481080	0.121287	-0.283645
C126	C	-0.450996	0.035117	-0.097351
C127	C	-0.410501	0.028587	-0.146852
C128	C	-0.459292	0.034683	-0.169840
C129	C	-0.184802	0.024283	-0.235878
C130	C	-0.282257	0.023363	-0.213592
C131	C	-0.330068	0.029423	-0.237088
C132	C	-0.435938	0.110445	-0.261411
C133	C	-0.554456	-0.010759	-0.241948
C134	C	-0.584541	0.075410	-0.428242
C135	C	-0.625029	0.081943	-0.378743
C136	C	-0.576244	0.075844	-0.355753
C137	C	-0.713963	0.086424	-0.357292
C138	C	-0.616708	0.075351	-0.310510
C139	C	-0.565963	0.065400	-0.286043
C140	C	-0.321573	0.024104	-0.168302
C141	C	-0.418828	0.035176	-0.215083
C142	C	-0.469568	0.045131	-0.239552
O143	O	0.585213	0.169090	-0.504004
O144	O	0.494056	-0.090076	-0.525516
O145	O	0.488081	0.055124	-0.449918
O146	O	0.591189	0.023889	-0.579602
O147	O	0.359978	0.059584	-0.452885
O148	O	0.365953	-0.085616	-0.528483
O149	O	0.457110	0.173550	-0.506971
Zn150	Zn	0.391193	0.044675	-0.518198
Zn151	Zn	0.559974	0.038798	-0.514289
O152	O	0.463086	0.028349	-0.582569
C153	C	0.815354	-0.521094	-0.008709
C154	C	0.717898	-0.563028	-0.006927
C155	C	0.670072	-0.514739	-0.009298
C156	C	0.564182	-0.463204	-0.048354
C157	C	0.445681	-0.498945	0.013847
C158	C	0.415547	-0.125494	-0.028771
C159	C	0.375059	-0.223405	-0.031498
C160	C	0.423859	-0.270708	-0.029121
C161	C	0.149365	-0.395355	-0.030599
C162	C	0.246820	-0.353421	-0.032381
C163	C	0.294640	-0.401713	-0.030008
C164	C	0.400530	-0.453248	0.009048
C165	C	0.519038	-0.417504	-0.053155
C166	C	0.549171	-0.790955	-0.010537
C167	C	0.589653	-0.693047	-0.007809
C168	C	0.540859	-0.645741	-0.010187
C169	C	0.678588	-0.652551	-0.006775
C170	C	0.581317	-0.556344	-0.010973
C171	C	0.530562	-0.506029	-0.015250
C172	C	0.286131	-0.263897	-0.032533
C173	C	0.383402	-0.360104	-0.028335
C174	C	0.434150	-0.410423	-0.024057
O175	O	-0.620614	0.089309	0.052274
O176	O	-0.529507	0.043784	-0.078544
O177	O	-0.523494	0.194833	-0.006033
O178	O	-0.626628	-0.061740	-0.020236
O179	O	-0.395386	0.185419	-0.005549
O180	O	-0.401400	0.034370	-0.078059
O181	O	-0.492507	0.079895	0.052758
Zn182	Zn	-0.426614	0.055638	-0.012574
Zn183	Zn	-0.595401	0.068041	-0.013212
O184	O	-0.498521	-0.071154	-0.019752
C185	C	-0.437537	0.048335	0.402491
C186	C	-0.397043	0.041789	0.352989
C187	C	-0.445822	0.047883	0.329994
C188	C	-0.496646	0.126653	0.277022
C189	C	-0.465894	-0.000633	0.218811
C190	C	-0.837226	0.099430	0.210091
C191	C	-0.739773	0.100339	0.187806
C192	C	-0.691967	0.094287	0.211308
C193	C	-0.571027	0.088563	0.071568
C194	C	-0.611521	0.095108	0.121070
C195	C	-0.562739	0.089011	0.144061
C196	C	-0.511915	0.010241	0.197033
C197	C	-0.542670	0.137531	0.255247
C198	C	-0.171338	0.037467	0.263967
C199	C	-0.268788	0.036555	0.286249
C200	C	-0.316597	0.042611	0.262750
C201	C	-0.308112	0.037305	0.331542
C202	C	-0.405351	0.048369	0.284750
C203	C	-0.456092	0.058317	0.260279
C204	C	-0.700452	0.099593	0.142516
C205	C	-0.603213	0.088528	0.189308
C206	C	-0.552469	0.078578	0.213776
O207	O	-0.040608	-1.085661	-0.825229
O208	O	-0.001018	-0.826491	-0.777938
O209	O	-0.150287	-0.971682	-0.775894
O210	O	0.108661	-0.940470	-0.827272
O211	O	-0.144253	-0.976123	-0.711878
O212	O	0.005016	-0.830932	-0.713922
O213	O	-0.034575	-1.090102	-0.761213
Zn214	Zn	-0.013821	-0.961222	-0.727403
Zn215	Zn	-0.021771	-0.955371	-0.811747
O216	O	0.114695	-0.944911	-0.763256
O217	O	-0.036816	-0.230509	-0.253950
C218	C	-0.108548	-0.232108	-0.175907
C219	C	-0.111412	-0.277782	-0.225281
H220	H	-0.168861	-0.270299	-0.152713
H221	H	-0.043215	-0.232514	-0.173174
H222	H	-0.111476	-0.159649	-0.165280
H223	H	-0.108519	-0.350259	-0.235940
H224	H	-0.176740	-0.277305	-0.227987
H225	H	-0.015274	-0.667410	-0.915397
H226	H	-0.531920	0.039247	-0.151930
H227	H	-0.518563	-0.039000	0.162804
H228	H	0.245727	-0.224039	-0.533582
O229	O	-0.050616	-0.224902	-0.885685
C230	C	0.002096	-0.159672	-0.947147
C231	C	0.022502	-0.210169	-0.924350
H232	H	0.061208	-0.147729	-0.978407
H233	H	-0.061878	-0.201630	-0.957677
H234	H	-0.008128	-0.092211	-0.922212
H235	H	0.032771	-0.277631	-0.949261
H236	H	0.086456	-0.168145	-0.913811
H237	H	0.013390	-0.692483	-0.152899
H238	H	-0.489994	0.175891	0.311254
O239	O	0.168104	-0.531869	-0.530770
C240	C	0.045171	-0.667445	-0.531389
C241	C	0.143224	-0.621456	-0.529553
H242	H	0.025031	-0.739889	-0.530415
H243	H	-0.001945	-0.629395	-0.501043
H244	H	0.039858	-0.667108	-0.564104
H245	H	0.148623	-0.621782	-0.496858
H246	H	0.190294	-0.659520	-0.559921
O247	O	0.317015	-0.448070	0.038059
C248	C	0.197579	-0.489245	0.102622
C249	C	0.292181	-0.495153	0.069807
H250	H	0.177464	-0.527322	0.128292
H251	H	0.198675	-0.415661	0.121221
H252	H	0.146532	-0.520432	0.082620
H253	H	0.343281	-0.464013	0.089773
H254	H	0.291011	-0.568752	0.051206
H255	H	0.001650	-0.679613	-0.278166
H256	H	0.544602	-0.156012	-0.528109
H257	H	-0.015393	-0.167196	-0.666497
H258	H	-0.023718	-0.530163	-0.918978
O259	O	-0.260034	0.033353	0.354694
C260	C	-0.249285	-0.048189	0.396600
C261	C	-0.303811	-0.043839	0.370382
H262	H	-0.284667	-0.110583	0.409299
H263	H	-0.178459	-0.051727	0.373207
H264	H	-0.244392	0.014571	0.426734
H265	H	-0.308775	-0.106583	0.340248
H266	H	-0.374607	-0.040255	0.393806
O267	O	-0.748604	0.103549	0.119403
C268	C	-0.830609	0.188003	0.114579
C269	C	-0.776073	0.183650	0.140791
H270	H	-0.852849	0.252750	0.131866
H271	H	-0.786673	0.186858	0.078254
H272	H	-0.892737	0.127581	0.114228
H273	H	-0.713942	0.244060	0.141178
H274	H	-0.820072	0.184752	0.177102
H275	H	0.496488	-0.236853	-0.027824
H276	H	0.682238	-0.162236	-0.523943
O277	O	0.238083	-0.216167	-0.033781
C278	C	0.237881	-0.073753	-0.035024
C279	C	0.292408	-0.127712	-0.033628
H280	H	0.281774	-0.002222	-0.034891
H281	H	0.215831	-0.107489	-0.067153
H282	H	0.175637	-0.071589	-0.004028
H283	H	0.354689	-0.129894	-0.064602
H284	H	0.314389	-0.093957	-0.001479
O285	O	-0.580515	0.207447	0.274040
C286	C	-0.667103	0.283667	0.266535
C287	C	-0.624305	0.204439	0.245207
H288	H	-0.702501	0.281273	0.243228
H289	H	-0.718398	0.278578	0.300883
H290	H	-0.612030	0.349849	0.271271
H291	H	-0.679315	0.138218	0.240441
H292	H	-0.572989	0.209608	0.210873
H293	H	-0.142704	-0.524425	-0.305055
O294	O	0.097565	-0.296230	-0.276345
C295	C	0.252015	-0.211967	-0.302533
C296	C	0.186460	-0.304691	-0.298645
H297	H	0.323903	-0.218773	-0.320553
H298	H	0.232489	-0.185388	-0.322747
H299	H	0.248184	-0.163077	-0.267144
H300	H	0.190258	-0.353647	-0.334015
H301	H	0.206007	-0.331195	-0.278407
H302	H	-0.490116	0.084434	0.126151
H303	H	0.107243	-0.392097	-0.234140
H304	H	0.001660	-0.441639	-0.159184
H305	H	-0.123560	-0.607102	-0.263443
H306	H	-0.281187	0.020914	-0.148901
H307	H	-0.005085	-0.754331	-0.871556
O308	O	-0.290821	0.029578	-0.281271
C309	C	-0.220791	-0.050593	-0.357318
C310	C	-0.265234	-0.050882	-0.307297
H311	H	-0.200074	-0.115629	-0.378372
H312	H	-0.270919	-0.045271	-0.370446
H313	H	-0.158416	0.009378	-0.360159
H314	H	-0.327602	-0.110846	-0.304417
H315	H	-0.215046	-0.056158	-0.294191
H316	H	0.013347	-0.692513	-0.652885
H317	H	-0.365918	0.157102	-0.260160
O318	O	-0.442940	0.188208	-0.304210
C319	C	-0.314200	0.312569	-0.320989
C320	C	-0.357277	0.236809	-0.297688
H321	H	-0.244943	0.351896	-0.315716
H322	H	-0.306380	0.282116	-0.358851
H323	H	-0.359425	0.359824	-0.305621
H324	H	-0.312092	0.189528	-0.313019
H325	H	-0.365113	0.267324	-0.259826
H326	H	0.417564	-0.755580	-0.518528
H327	H	-0.037138	-0.474881	-0.380005
H328	H	0.261721	-0.474856	-0.029430
H329	H	-0.586315	-0.066836	-0.224702
H330	H	0.468233	-0.679598	-0.011487
O331	O	-0.428162	-0.070648	0.199893
C332	C	-0.403286	-0.201277	0.136734
C333	C	-0.446046	-0.122015	0.158100
H334	H	-0.417746	-0.242840	0.102945
H335	H	-0.327105	-0.174250	0.130883
H336	H	-0.433408	-0.245457	0.160576
H337	H	-0.415996	-0.077805	0.134279
H338	H	-0.522226	-0.149103	0.163960
H339	H	-0.283673	0.042875	0.225734
O340	O	0.407803	-0.538958	0.047846
C341	C	0.420808	-0.547857	0.114756
C342	C	0.463791	-0.502453	0.076285
H343	H	0.466064	-0.518374	0.137754
H344	H	0.351528	-0.535509	0.135381
H345	H	0.413036	-0.623357	0.099594
H346	H	0.471625	-0.426941	0.091409
H347	H	0.533042	-0.514873	0.055666
O348	O	0.003642	-0.384678	-0.612031
C349	C	0.003076	-0.249097	-0.549664
C350	C	0.000019	-0.295089	-0.598997
H351	H	0.000167	-0.176652	-0.539114
H352	H	-0.057113	-0.287143	-0.526360
H353	H	0.068508	-0.249437	-0.547009
H354	H	-0.065373	-0.294761	-0.601697
H355	H	0.060252	-0.257030	-0.622279
O356	O	-0.049204	-0.216238	-0.390138
C357	C	0.023934	-0.087413	-0.419426
C358	C	0.027428	-0.141358	-0.392509
H359	H	0.085873	-0.026851	-0.421343
H360	H	0.023187	-0.132201	-0.455182
H361	H	-0.039891	-0.063219	-0.401649
H362	H	0.091245	-0.165561	-0.410246
H363	H	0.028125	-0.096536	-0.356753
O364	O	0.726642	-0.700197	-0.005461
C365	C	0.737571	-0.783979	0.035268
C366	C	0.683050	-0.730072	0.033823
H367	H	0.702359	-0.808133	0.067031
H368	H	0.742314	-0.844552	0.003903
H369	H	0.808451	-0.739099	0.035953
H370	H	0.612144	-0.774879	0.033153
H371	H	0.678382	-0.669491	0.065186
H372	H	-0.518447	0.052455	0.347905
O373	O	-0.004796	-0.247429	-0.615613
C374	C	-0.005360	-0.111845	-0.553248
C375	C	-0.008420	-0.157841	-0.602580
H376	H	-0.008269	-0.039400	-0.542699
H377	H	-0.065546	-0.149889	-0.529942
H378	H	0.060074	-0.112183	-0.550593
H379	H	-0.073814	-0.157514	-0.605279
H380	H	0.051811	-0.119783	-0.625863
H381	H	0.191099	-0.662437	-0.527221
O382	O	-0.024081	-0.146820	-0.732043
C383	C	0.051891	0.003725	-0.696235
C384	C	0.054953	-0.095070	-0.718917
H385	H	0.115773	0.045589	-0.685608
H386	H	0.047437	0.030937	-0.721237
H387	H	-0.009847	0.007773	-0.665037
H388	H	0.116685	-0.099197	-0.750112
H389	H	0.059359	-0.122239	-0.693885
O390	O	0.647726	-0.468341	-0.077346
C391	C	0.767106	-0.427305	-0.141957
C392	C	0.672497	-0.421405	-0.109149
H393	H	0.787154	-0.389379	-0.167683
H394	H	0.818238	-0.396049	-0.122000
H395	H	0.765938	-0.500922	-0.160493
H396	H	0.673576	-0.347813	-0.090605
H397	H	0.621405	-0.452716	-0.129130
O398	O	0.273508	-0.763471	-0.522589
C399	C	0.140183	-0.888881	-0.523681
C400	C	0.184280	-0.790098	-0.524568
H401	H	0.068030	-0.910434	-0.525271
H402	H	0.180744	-0.933608	-0.554070
H403	H	0.139117	-0.895714	-0.491009
H404	H	0.185355	-0.783179	-0.557220
H405	H	0.143705	-0.745419	-0.494156
O406	O	-0.731176	0.093847	0.255453
C407	C	-0.777253	0.012712	0.309876
C408	C	-0.732814	0.013102	0.259869
H409	H	-0.778609	-0.052572	0.313461
H410	H	-0.736795	0.072430	0.331726
H411	H	-0.849320	0.017969	0.321457
H412	H	-0.660750	0.007816	0.248246
H413	H	-0.773339	-0.046607	0.238049
O414	O	-0.489647	0.070282	-0.377182
C415	C	-0.389764	-0.013334	-0.438981
C416	C	-0.487872	-0.007132	-0.414763
H417	H	-0.388299	-0.075928	-0.469364
H418	H	-0.346708	0.049091	-0.451076
H419	H	-0.361659	-0.017784	-0.414408
H420	H	-0.516058	-0.002710	-0.439310
H421	H	-0.530866	-0.069557	-0.402660
H422	H	0.702991	-0.441593	-0.009870
O423	O	-0.762008	0.090359	-0.380466
C424	C	-0.772921	0.172120	-0.422211
C425	C	-0.718411	0.167752	-0.395990
H426	H	-0.737705	0.234697	-0.434762
H427	H	-0.777653	0.109521	-0.452435
H428	H	-0.843804	0.175404	-0.398817
H429	H	-0.647502	0.164498	-0.419348
H430	H	-0.713753	0.230351	-0.365761
H431	H	-0.738384	0.080845	-0.251490
H432	H	0.550886	-0.383867	-0.081621
H433	H	0.710767	-0.684484	-0.506030
H434	H	0.780052	-0.386407	-0.516111
H435	H	0.771070	-0.249160	-0.519423
H436	H	-0.669612	-0.046576	-0.265443
H437	H	0.003321	-0.760550	-0.802778
