data_functionalizedCrystal
_audit_creation_method	'MofGen! by Chris Wilmer'
_symmetry_space_group_name_H-M	'P1'
_symmetry_Int_Tables_number	1
_symmetry_cell_setting	triclinic
loop_
_symmetry_equiv_pos_as_xyz
  x,y,z
_cell_length_a	17.699097
_cell_length_b	11.792254
_cell_length_c	16.176319
_cell_angle_alpha	89.993043
_cell_angle_beta	89.988988
_cell_angle_gamma	83.743514
loop_
_atom_site_label
_atom_site_type_symbol
_atom_site_fract_x
_atom_site_fract_y
_atom_site_fract_z
O1	O	1.004842	0.143598	-0.068816
O2	O	0.784565	0.162255	-0.068802
O3	O	0.900044	-0.012307	-0.068803
O4	O	0.889363	0.318160	-0.068814
O5	O	0.900028	-0.012318	0.068690
O6	O	0.784549	0.162244	0.068691
O7	O	1.004826	0.143587	0.068678
Cu8	Cu	0.894686	0.152914	0.081238
Cu9	Cu	0.894705	0.152927	-0.081363
O10	O	0.889347	0.318149	0.068679
C11	C	0.756357	0.161578	-0.000054
C12	C	0.672328	0.159565	-0.000049
C13	C	0.156553	0.147231	-0.075029
C14	C	0.235507	0.149115	-0.075025
C15	C	0.274969	0.150053	-0.000074
C16	C	0.235474	0.149095	0.074877
C17	C	0.156522	0.147203	0.074873
C18	C	0.553879	0.156723	0.074899
C19	C	0.632836	0.158619	0.074898
C20	C	0.632864	0.158636	-0.074999
C21	C	0.553912	0.156744	-0.075004
C22	C	0.514424	0.155780	-0.000052
C23	C	0.428813	0.153735	-0.000058
C24	C	0.360578	0.152106	-0.000068
C25	C	0.899363	-0.054595	-0.000057
C26	C	0.897349	-0.180584	-0.000058
C27	C	0.895713	-0.282901	-0.000061
C28	C	0.893667	-0.411263	-0.000068
C29	C	1.033035	0.144263	-0.000073
C30	C	1.117063	0.146277	-0.000083
C31	C	0.890028	0.360437	-0.000069
C32	C	0.892042	0.486426	-0.000074
N33	N	0.894678	0.152904	0.195604
N34	N	0.894719	0.152928	-0.195728
C35	C	0.945828	0.075640	0.238867
C36	C	0.945832	0.075639	0.325414
C37	C	0.894689	0.152908	0.368696
C38	C	0.843534	0.230176	0.325427
C39	C	0.843527	0.230171	0.238881
C40	C	0.843560	0.230198	0.674455
C41	C	0.843572	0.230199	0.761006
C42	C	0.945865	0.075665	0.760988
C43	C	0.945858	0.075660	0.674443
C44	C	0.894700	0.152924	0.631181
C45	C	0.894696	0.152923	0.537336
C46	C	0.894697	0.152916	0.462539
H47	H	0.267611	0.149851	0.135904
C48	C	0.799891	0.426734	0.212217
C49	C	0.787306	0.315106	0.191320
H50	H	0.765182	0.479166	0.182850
H51	H	0.792572	0.437790	0.269946
H52	H	0.850451	0.438953	0.198011
H53	H	0.736746	0.302884	0.205531
H54	H	0.794617	0.304046	0.133578
H55	H	0.124428	0.146475	-0.136063
H56	H	0.801923	0.293124	0.796245
H57	H	0.267657	0.149885	-0.136054
H58	H	0.124369	0.146437	0.135901
H59	H	0.521785	0.155986	-0.136036
H60	H	0.521739	0.155922	0.135929
H61	H	0.801889	0.293087	0.360672
H62	H	0.987478	0.012723	0.203633
H63	H	0.665025	0.159416	-0.136028
C64	C	0.742453	0.382960	0.683178
C65	C	0.787334	0.315134	0.626908
H66	H	0.707744	0.435403	0.653821
H67	H	0.715042	0.335766	0.716947
H68	H	0.774137	0.423724	0.716919
H69	H	0.755650	0.274363	0.593171
H70	H	0.814747	0.362334	0.593125
H71	H	0.987481	0.012724	0.360639
H72	H	0.664964	0.159382	0.135936
C73	C	1.046968	-0.077105	0.683120
C74	C	1.002073	-0.009281	0.626868
H75	H	1.081668	-0.129551	0.653749
H76	H	1.074389	-0.029911	0.716858
H77	H	1.015292	-0.117867	0.716894
H78	H	1.033749	0.031487	0.593098
H79	H	0.974650	-0.056481	0.593116
H80	H	0.987518	0.012749	0.796222
