data_functionalizedCrystal
_audit_creation_method	'MofGen! by Chris Wilmer'
_symmetry_space_group_name_H-M	'P1'
_symmetry_Int_Tables_number	1
_symmetry_cell_setting	triclinic
loop_
_symmetry_equiv_pos_as_xyz
  x,y,z
_cell_length_a	14.853566
_cell_length_b	14.853559
_cell_length_c	14.048226
_cell_angle_alpha	89.995761
_cell_angle_beta	89.996390
_cell_angle_gamma	83.632934
loop_
_atom_site_label
_atom_site_type_symbol
_atom_site_fract_x
_atom_site_fract_y
_atom_site_fract_z
O1	O	1.196364	0.117701	-0.079093
O2	O	1.696364	0.617701	0.420907
O3	O	0.933904	0.131724	-0.079108
O4	O	1.433904	0.631724	0.420892
O5	O	1.072149	-0.006518	-0.079099
O6	O	1.572149	0.493482	0.420901
O7	O	1.058119	0.255943	-0.079102
O8	O	1.558119	0.755943	0.420898
O9	O	1.072132	-0.006526	0.079222
O10	O	1.572132	0.493474	0.579222
O11	O	0.933887	0.131716	0.079213
O12	O	1.433887	0.631716	0.579213
O13	O	1.196348	0.117693	0.079228
O14	O	1.696348	0.617693	0.579228
Zn15	Zn	1.065115	0.124703	0.104358
Zn16	Zn	1.565115	0.624703	0.604358
Zn17	Zn	1.065137	0.124714	-0.104237
Zn18	Zn	1.565137	0.624714	0.395763
O19	O	1.058103	0.255935	0.079219
O20	O	1.558103	0.755935	0.579219
C21	C	0.900307	0.131085	0.000051
C22	C	1.400307	0.631085	0.500051
C23	C	0.800223	0.129181	0.000045
C24	C	1.300223	0.629181	0.500045
C25	C	0.377048	0.121135	-0.086240
C26	C	0.877048	0.621135	0.413760
C27	C	0.377051	0.121127	0.086368
C28	C	0.877051	0.621127	0.586368
C29	C	0.471085	0.122914	0.086366
C30	C	0.971085	0.622914	0.586366
C31	C	0.518105	0.123813	0.000059
C32	C	1.018105	0.623813	0.500059
C33	C	0.471090	0.122925	-0.086245
C34	C	0.971090	0.622925	0.413755
C35	C	0.518105	0.123811	0.172668
C36	C	1.018105	0.623811	0.672668
C37	C	0.612145	0.125600	0.172668
C38	C	1.112145	0.625600	0.672668
C39	C	0.659167	0.126493	0.086360
C40	C	1.159167	0.626493	0.586360
C41	C	0.612147	0.125604	0.000053
C42	C	1.112147	0.625604	0.500053
C43	C	0.659167	0.126503	-0.086254
C44	C	1.159167	0.626503	0.413746
C45	C	0.612149	0.125607	-0.172562
C46	C	1.112149	0.625607	0.327438
C47	C	0.518112	0.123818	-0.172553
C48	C	1.018112	0.623818	0.327447
C49	C	0.753204	0.128282	0.086351
C50	C	1.253204	0.628282	0.586351
C51	C	0.753209	0.128293	-0.086259
C52	C	1.253209	0.628293	0.413741
C53	C	1.071506	-0.040111	0.000060
C54	C	1.571506	0.459889	0.500060
C55	C	1.069605	-0.140195	0.000054
C56	C	1.569605	0.359805	0.500054
C57	C	1.061551	-0.563365	-0.086247
C58	C	1.561551	-0.063365	0.413753
C59	C	1.061533	-0.563369	0.086361
C60	C	1.561533	-0.063369	0.586361
C61	C	1.063326	-0.469336	0.086362
C62	C	1.563326	0.030664	0.586362
C63	C	1.064230	-0.422313	0.000057
C64	C	1.564230	0.077687	0.500057
C65	C	1.063342	-0.469323	-0.086249
C66	C	1.563342	0.030677	0.413751
C67	C	1.064206	-0.422317	0.172666
C68	C	1.564206	0.077683	0.672666
C69	C	1.065998	-0.328278	0.172670
C70	C	1.565998	0.171722	0.672670
C71	C	1.066909	-0.281254	0.086364
C72	C	1.566909	0.218746	0.586364
C73	C	1.066021	-0.328270	0.000055
C74	C	1.566021	0.171730	0.500055
C75	C	1.066926	-0.281247	-0.086250
C76	C	1.566926	0.218753	0.413750
C77	C	1.066044	-0.328263	-0.172560
C78	C	1.566044	0.171737	0.327440
C79	C	1.064253	-0.422299	-0.172555
C80	C	1.564253	0.077701	0.327445
C81	C	1.068701	-0.187218	0.086359
C82	C	1.568701	0.312782	0.586359
C83	C	1.068717	-0.187205	-0.086252
C84	C	1.568717	0.312795	0.413748
C85	C	1.229945	0.118332	0.000068
C86	C	1.729945	0.618332	0.500068
C87	C	1.330028	0.120236	0.000067
C88	C	1.830028	0.620236	0.500067
C89	C	1.058745	0.289528	0.000058
C90	C	1.558745	0.789528	0.500058
C91	C	1.060646	0.389612	0.000058
C92	C	1.560646	0.889612	0.500058
N93	N	1.065106	0.124695	0.246718
N94	N	1.565106	0.624695	0.746718
N95	N	1.065152	0.124715	-0.246598
N96	N	1.565152	0.624715	0.253402
C97	C	1.126341	0.063507	0.296540
C98	C	1.626341	0.563507	0.796540
C99	C	1.126347	0.063507	0.396198
C100	C	1.626347	0.563507	0.896198
C101	C	1.065122	0.124699	0.446032
C102	C	1.565122	0.624699	0.946032
C103	C	1.003882	0.185890	0.396203
C104	C	1.503882	0.685890	0.896203
C105	C	1.003872	0.185886	0.296547
C106	C	1.503872	0.685886	0.796547
C107	C	1.003908	0.185897	0.603917
C108	C	1.503908	0.685897	1.103917
C109	C	1.003918	0.185903	0.703580
C110	C	1.503918	0.685903	1.203580
C111	C	1.126382	0.063518	0.703568
C112	C	1.626382	0.563518	1.203568
C113	C	1.126373	0.063513	0.603912
C114	C	1.626373	0.563513	1.103912
C115	C	1.065133	0.124705	0.554090
C116	C	1.565133	0.624705	1.054090
H117	H	0.338762	0.120402	-0.156510
H118	H	0.838762	0.620402	0.343490
Cl119	Cl	0.926916	0.262824	0.541287
Cl120	Cl	1.426916	0.762824	1.041287
Cl121	Cl	0.671270	0.126744	-0.281057
Cl122	Cl	1.171270	0.626744	0.218943
H123	H	0.650419	0.126327	0.242946
H124	H	1.150419	0.626327	0.742946
H125	H	1.063464	-0.460610	0.242931
H126	H	1.563464	0.039390	0.742931
Cl127	Cl	1.060452	-0.622468	-0.194746
Cl128	Cl	1.560452	-0.122468	0.305254
Cl129	Cl	1.067103	-0.269181	0.281172
Cl130	Cl	1.567103	0.230819	0.781172
H131	H	1.176245	0.013693	0.744139
H132	H	1.676245	0.513693	1.244139
H133	H	0.954062	0.235731	0.744150
H134	H	1.454062	0.735731	1.244150
Cl135	Cl	0.458990	0.122692	0.281160
Cl136	Cl	0.958990	0.622692	0.781160
Cl137	Cl	1.203327	-0.013418	0.458833
Cl138	Cl	1.703327	0.486582	0.958833
Cl139	Cl	0.317939	0.120006	0.194862
Cl140	Cl	0.817939	0.620006	0.694862
Cl141	Cl	1.069807	-0.128117	0.194854
Cl142	Cl	1.569807	0.371883	0.694854
Cl143	Cl	0.459004	0.122658	-0.281044
Cl144	Cl	0.959004	0.622658	0.218956
Cl145	Cl	1.203318	-0.013422	0.233903
Cl146	Cl	1.703318	0.486578	0.733903
H147	H	0.954027	0.235711	0.436783
H148	H	1.454027	0.735711	0.936783
H149	H	0.791486	0.129022	-0.156542
H150	H	1.291486	0.629022	0.343458
H151	H	0.791480	0.129020	0.156622
H152	H	1.291480	0.629020	0.656622
Cl153	Cl	0.926885	0.262808	0.233914
Cl154	Cl	1.426885	0.762808	0.733914
H155	H	1.066774	-0.289964	-0.242829
H156	H	1.566774	0.210036	0.257171
H157	H	1.069457	-0.148926	-0.156532
H158	H	1.569457	0.351074	0.343468
Cl159	Cl	1.063148	-0.481410	-0.281049
Cl160	Cl	1.563148	0.018590	0.218951
Cl161	Cl	1.060380	-0.622482	0.194852
Cl162	Cl	1.560380	-0.122482	0.694852
H163	H	1.176230	0.013690	0.563338
H164	H	1.676230	0.513690	1.063338
