data_functionalizedCrystal
_audit_creation_method	'MofGen! by Chris Wilmer'
_symmetry_space_group_name_H-M	'P1'
_symmetry_Int_Tables_number	1
_symmetry_cell_setting	triclinic
loop_
_symmetry_equiv_pos_as_xyz
  x,y,z
_cell_length_a	15.500227
_cell_length_b	17.038272
_cell_length_c	17.038272
_cell_angle_alpha	91.111556
_cell_angle_beta	93.033254
_cell_angle_gamma	86.956295
loop_
_atom_site_label
_atom_site_type_symbol
_atom_site_fract_x
_atom_site_fract_y
_atom_site_fract_z
O1	O	0.071836	-1.052160	-0.167139
O2	O	0.071862	-0.824350	-0.164430
O3	O	0.071842	-0.936901	-0.051879
O4	O	0.071856	-0.939609	-0.279690
O5	O	-0.072045	-0.930069	-0.058680
O6	O	-0.072026	-0.817518	-0.171231
O7	O	-0.072051	-1.045328	-0.173940
Cu8	Cu	-0.085177	-0.930799	-0.173207
Cu9	Cu	0.084987	-0.938879	-0.165164
O10	O	-0.072032	-0.932777	-0.286491
C11	C	-0.000079	-0.791641	-0.165368
C12	C	-0.000069	-0.704358	-0.158019
C13	C	-0.000101	-0.931022	-0.025987
C14	C	-0.000100	-0.923674	0.061297
N15	N	-0.204861	-0.925122	-0.178864
C16	C	-0.250145	-0.972833	-0.131192
C17	C	-0.340718	-0.968547	-0.135478
C18	C	-0.386003	-0.916555	-0.187440
C19	C	-0.340712	-0.868839	-0.235114
C20	C	-0.250142	-0.873121	-0.230823
C21	C	-0.659467	-0.901128	-0.202884
C22	C	-0.750044	-0.896851	-0.207172
C23	C	-0.750044	-0.996559	-0.107535
C24	C	-0.659471	-1.000840	-0.103252
C25	C	-0.614188	-0.953121	-0.150923
C26	C	-0.478582	-0.912174	-0.191824
C27	C	-0.521610	-0.957498	-0.146534
N28	N	0.204671	-0.944561	-0.159501
C29	C	-0.000109	-1.078037	-0.173003
C30	C	-0.000113	-1.165320	-0.180351
C31	C	-0.000066	-0.658749	-0.225482
C32	C	-0.000078	-0.576737	-0.218574
C33	C	-0.000088	-0.540335	-0.144201
C34	C	-0.000094	-0.585950	-0.076733
C35	C	-0.000088	-0.667961	-0.083642
C36	C	-0.000112	-0.292946	-0.119792
C37	C	-0.000116	-0.210929	-0.112887
C38	C	-0.000102	-0.201721	-0.254729
C39	C	-0.000091	-0.283734	-0.261632
C40	C	-0.000101	-0.329342	-0.194164
C41	C	-0.000098	-0.456505	-0.137138
C42	C	-0.000098	-0.413170	-0.201228
C43	C	-0.000087	-0.938656	-0.312383
C44	C	-0.000082	-0.946004	-0.399667
C45	C	-0.000108	-0.991137	0.106906
C46	C	-0.000100	-0.984229	0.188918
C47	C	-0.000088	-0.909856	0.225320
C48	C	-0.000077	-0.842388	0.179705
C49	C	-0.000080	-0.849297	0.097694
C50	C	-0.000074	-0.885446	0.472708
C51	C	-0.000074	-0.878541	0.554725
C52	C	-0.000094	-1.020383	0.563932
C53	C	-0.000102	-1.027286	0.481919
C54	C	-0.000087	-0.959818	0.436312
C55	C	-0.000082	-0.902792	0.309149
C56	C	-0.000087	-0.966882	0.352484
H57	H	-0.213280	-1.015175	-0.088882
H58	H	-0.000078	-0.817974	0.584359
Br59	Br	-0.000147	-0.161527	-0.011947
Br60	Br	-0.598016	-0.836370	-0.267579
H61	H	-0.000123	-1.051699	0.077273
Br62	Br	-0.000044	-0.708143	-0.326422
H63	H	-0.000095	-0.442811	-0.261782
Br64	Br	-0.000129	-0.354832	-0.028227
Br65	Br	-0.402179	-1.033296	-0.070777
Br66	Br	-0.188683	-0.808362	-0.295518
Br67	Br	-0.000111	-1.075790	0.250813
Br68	Br	-0.000071	-0.514841	-0.310136
Br69	Br	-0.000068	-0.333131	-0.362570
H70	H	-0.000063	-0.781832	0.209350
Br71	Br	-0.598011	-1.071405	-0.032735
H72	H	-0.000073	-0.794361	0.060560
Br73	Br	-0.000058	-0.801860	0.358558
H74	H	-0.000096	-0.164579	-0.309658
H75	H	-0.000111	-1.087848	0.452287
H76	H	-0.000114	-0.556305	-0.016177
H77	H	-0.000130	-0.426857	-0.076584
H78	H	-0.484736	-0.999827	-0.104223
H79	H	-0.000061	-0.830508	0.435584
Br80	Br	-0.000115	-1.111941	0.625831
H81	H	-0.000077	-1.027437	0.322844
H82	H	-0.786921	-1.035409	-0.068723
Br83	Br	-0.000100	-0.729860	0.007919
H84	H	-0.377589	-0.826501	-0.277420
H85	H	-0.786912	-0.854510	-0.249490
H86	H	-0.515461	-0.869842	-0.234135
