data_functionalizedCrystal
_audit_creation_method	'MofGen! by Chris Wilmer'
_symmetry_space_group_name_H-M	'P1'
_symmetry_Int_Tables_number	1
_symmetry_cell_setting	triclinic
loop_
_symmetry_equiv_pos_as_xyz
  x,y,z
_cell_length_a	17.019282
_cell_length_b	16.098538
_cell_length_c	12.837942
_cell_angle_alpha	86.987046
_cell_angle_beta	89.095764
_cell_angle_gamma	88.859428
loop_
_atom_site_label
_atom_site_type_symbol
_atom_site_fract_x
_atom_site_fract_y
_atom_site_fract_z
O1	O	1.056301	-0.006527	0.132415
O2	O	1.556301	0.493473	0.632415
O3	O	0.828654	0.009807	0.148176
O4	O	1.328654	0.509807	0.648176
O5	O	0.937429	0.001997	-0.010623
O6	O	1.437429	0.501997	0.489377
O7	O	0.947526	0.001283	0.291214
O8	O	1.447526	0.501283	0.791214
O9	O	0.931073	-0.136060	-0.001384
O10	O	1.431073	0.363940	0.498616
O11	O	0.822297	-0.128250	0.157416
O12	O	1.322297	0.371750	0.657416
O13	O	1.049944	-0.144584	0.141655
O14	O	1.549944	0.355416	0.641655
Zn15	Zn	0.935111	-0.158336	0.151002
Zn16	Zn	1.435111	0.341664	0.651002
Zn17	Zn	0.943487	0.023559	0.138828
Zn18	Zn	1.443487	0.523559	0.638828
O19	O	0.941169	-0.136774	0.300454
O20	O	1.441169	0.363226	0.800454
C21	C	0.796135	-0.057116	0.152018
C22	C	1.296135	0.442884	0.652018
C23	C	0.708710	-0.050844	0.149690
C24	C	1.208710	0.449156	0.649690
N25	N	0.929401	-0.282475	0.159310
N26	N	1.429401	0.217525	0.659310
C27	C	0.664176	-0.123153	0.153630
C28	C	1.164176	0.376847	0.653630
C29	C	0.582031	-0.117262	0.151425
C30	C	1.082031	0.382738	0.651425
C31	C	0.544420	-0.039060	0.145288
C32	C	1.044420	0.460940	0.645288
C33	C	0.588960	0.033255	0.141344
C34	C	1.088960	0.533255	0.641344
C35	C	0.671104	0.027363	0.143541
C36	C	1.171104	0.527363	0.643541
C37	C	0.296572	-0.017504	0.138395
C38	C	0.796572	0.482496	0.638395
C39	C	0.214422	-0.011617	0.136201
C40	C	0.714422	0.488383	0.636201
C41	C	0.207499	-0.162134	0.146280
C42	C	0.707499	0.337866	0.646280
C43	C	0.289645	-0.168020	0.148483
C44	C	0.789645	0.331980	0.648483
C45	C	0.334177	-0.095705	0.144534
C46	C	0.834177	0.404295	0.644534
C47	C	0.460455	-0.033036	0.143037
C48	C	0.960455	0.466964	0.643037
C49	C	0.418141	-0.101730	0.146777
C50	C	0.918141	0.398270	0.646777
C51	C	0.975590	-0.329377	0.091933
C52	C	1.475590	0.170623	0.591933
C53	C	0.971604	-0.416280	0.097755
C54	C	1.471604	0.083720	0.597755
C55	C	0.921431	-0.456280	0.170959
C56	C	1.421431	0.043720	0.670959
C57	C	0.875237	-0.409372	0.238338
C58	C	1.375237	0.090628	0.738338
C59	C	0.879220	-0.322470	0.232511
C60	C	1.379220	0.177530	0.732511
C61	C	0.906991	-0.718493	0.192065
C62	C	1.406991	-0.218493	0.692065
C63	C	0.903013	-0.805401	0.197889
C64	C	1.403013	-0.305401	0.697889
C65	C	0.999380	-0.812302	0.057304
C66	C	1.499380	-0.312302	0.557304
C67	C	1.003362	-0.725399	0.051487
C68	C	1.503362	-0.225399	0.551487
C69	C	0.957164	-0.678499	0.118863
C70	C	1.457164	-0.178499	0.618863
C71	C	0.917357	-0.545108	0.176913
C72	C	1.417357	-0.045108	0.676913
C73	C	0.961235	-0.589672	0.112903
C74	C	1.461235	-0.089672	0.612903
C75	C	1.082463	-0.077659	0.137812
C76	C	1.582463	0.422341	0.637812
C77	C	1.169889	-0.083926	0.140141
C78	C	1.669889	0.416074	0.640141
C79	C	0.930841	-0.066786	-0.044635
C80	C	1.430841	0.433214	0.455365
C81	C	0.920669	-0.066055	-0.159745
C82	C	1.420669	0.433945	0.340255
N83	N	0.949203	0.147698	0.130512
N84	N	1.449203	0.647698	0.630512
C85	C	1.042952	-0.074812	-0.400308
C86	C	1.542952	0.425188	0.099692
C87	C	1.033398	-0.074125	-0.508465
C88	C	1.533398	0.425875	-0.008465
C89	C	0.892010	-0.063989	-0.484219
C90	C	1.392010	0.436011	0.015781
C91	C	0.901563	-0.064675	-0.376062
C92	C	1.401563	0.435325	0.123938
C93	C	0.977036	-0.070088	-0.334111
C94	C	1.477036	0.429912	0.165889
C95	C	0.986589	-0.070781	-0.225951
C96	C	1.486589	0.429219	0.274049
C97	C	0.845201	-0.060639	-0.201708
C98	C	1.345201	0.439361	0.298292
C99	C	0.835648	-0.059952	-0.309864
C100	C	1.335648	0.440048	0.190136
C101	C	0.947758	-0.067989	0.334466
C102	C	1.447758	0.432011	0.834466
C103	C	0.957930	-0.068715	0.449576
C104	C	1.457930	0.431285	0.949576
H105	H	0.694792	-0.186834	0.158636
H106	H	1.194792	0.313166	0.658636
H107	H	0.332821	0.041381	0.135176
H108	H	0.832821	0.541381	0.635176
C109	C	0.547585	0.119279	0.134590
C110	C	1.047585	0.619279	0.634590
N111	N	0.516423	0.184073	0.129506
N112	N	1.016423	0.684073	0.629506
C113	C	0.720090	0.106909	0.139209
C114	C	1.220090	0.606909	0.639209
N115	N	0.756986	0.166827	0.135943
N116	N	1.256986	0.666827	0.635943
C117	C	0.808995	-0.058043	-0.530385
C118	C	1.308995	0.441957	-0.030385
N119	N	0.746467	-0.053570	-0.565157
N120	N	1.246467	0.446430	-0.065157
H121	H	1.104404	-0.079227	-0.366150
H122	H	1.604404	0.420773	0.133850
C123	C	0.459515	-0.187749	0.153556
C124	C	0.959515	0.312251	0.653556
N125	N	0.490684	-0.252540	0.158677
N126	N	0.990684	0.247460	0.658677
C127	C	1.105910	-0.079326	-0.581279
C128	C	1.605910	0.420674	-0.081279
N129	N	1.160529	-0.083246	-0.636122
N130	N	1.660529	0.416754	-0.136122
H131	H	0.545776	-0.176144	0.154616
H132	H	1.045776	0.323856	0.654616
C133	C	0.772690	-0.055444	-0.128881
C134	C	1.272690	0.444556	0.371119
N135	N	0.718076	-0.051533	-0.074027
N136	N	1.218076	0.448467	0.425973
H137	H	0.320261	-0.231700	0.153475
H138	H	0.820261	0.268300	0.653475
C139	C	0.158507	-0.241675	0.150612
C140	C	0.658507	0.258325	0.650612
N141	N	0.121607	-0.301589	0.153871
N142	N	0.621607	0.198411	0.653871
C143	C	0.419075	0.052985	0.136292
C144	C	0.919075	0.552985	0.636292
N145	N	0.387905	0.117775	0.131210
N146	N	0.887905	0.617775	0.631210
C147	C	1.030784	-0.285385	0.011402
C148	C	1.530784	0.214615	0.511402
N149	N	1.072354	-0.252253	-0.049260
N150	N	1.572354	0.247747	0.450740
C151	C	0.856284	-0.666922	0.266316
C152	C	1.356284	-0.166922	0.766316
N153	N	0.818129	-0.628078	0.322294
N154	N	1.318129	-0.128078	0.822294
C155	C	0.173053	0.074415	0.129448
C156	C	0.673053	0.574415	0.629448
N157	N	0.141893	0.139211	0.124364
N158	N	0.641893	0.639211	0.624364
C159	C	0.752631	-0.054008	-0.356023
C160	C	1.252631	0.445992	0.143977
N161	N	0.690100	-0.049537	-0.390788
N162	N	1.190100	0.450463	0.109212
H163	H	1.009214	-0.454466	0.042891
H164	H	1.509214	0.045534	0.542891
C165	C	1.058551	-0.681406	-0.029048
C166	C	1.558551	-0.181406	0.470952
N167	N	1.100120	-0.648270	-0.089708
N168	N	1.600120	-0.148270	0.410292
H169	H	1.048043	-0.075192	-0.191796
H170	H	1.548043	0.424808	0.308204
H171	H	1.036991	-0.850496	0.002448
H172	H	1.536991	-0.350496	0.502448
C173	C	0.847815	-0.849398	0.278420
C174	C	1.347815	-0.349398	0.778420
N175	N	0.806242	-0.882538	0.339073
N176	N	1.306242	-0.382538	0.839073
C177	C	0.828415	-0.270880	0.306640
C178	C	1.328415	0.229120	0.806640
N179	N	0.790147	-0.232022	0.362476
N180	N	1.290147	0.267978	0.862476
C181	C	1.016415	-0.545668	0.032372
C182	C	1.516415	-0.045668	0.532372
N183	N	1.057978	-0.512517	-0.028284
N184	N	1.557978	-0.012517	0.471716
C185	C	0.820039	-0.453374	0.318854
C186	C	1.320039	0.046626	0.818854
N187	N	0.778462	-0.486516	0.379500
N188	N	1.278462	0.013484	0.879500
H189	H	0.876507	-0.577683	0.236519
H190	H	1.376507	-0.077683	0.736519
