data_functionalizedCrystal
_audit_creation_method	'MofGen! by Chris Wilmer'
_symmetry_space_group_name_H-M	'P1'
_symmetry_Int_Tables_number	1
_symmetry_cell_setting	triclinic
loop_
_symmetry_equiv_pos_as_xyz
  x,y,z
_cell_length_a	13.032831
_cell_length_b	12.759393
_cell_length_c	12.759400
_cell_angle_alpha	89.969615
_cell_angle_beta	82.819144
_cell_angle_gamma	82.806365
loop_
_atom_site_label
_atom_site_type_symbol
_atom_site_fract_x
_atom_site_fract_y
_atom_site_fract_z
Zn1	Zn	1.597755	-0.797728	-0.622491
Zn2	Zn	1.931089	-0.464395	-0.289158
Zn3	Zn	2.264422	-0.131061	0.044175
Zn4	Zn	1.597653	-0.622039	-0.798197
Zn5	Zn	1.930986	-0.288706	-0.464864
Zn6	Zn	2.264319	0.044628	-0.131530
Zn7	Zn	1.422988	-0.599782	-0.600200
Zn8	Zn	1.756321	-0.266449	-0.266867
Zn9	Zn	2.089654	0.066885	0.066466
Zn10	Zn	1.422978	-0.775407	-0.775782
Zn11	Zn	1.756312	-0.442073	-0.442449
Zn12	Zn	2.089645	-0.108740	-0.109115
O13	O	1.510344	-0.698739	-0.699168
O14	O	1.843677	-0.365406	-0.365834
O15	O	2.177010	-0.032072	-0.032501
O16	O	1.743984	-0.793079	-0.664509
O17	O	2.077318	-0.459745	-0.331175
O18	O	2.410651	-0.126412	0.002158
O19	O	1.574444	-0.472060	-0.771984
O20	O	1.907777	-0.138727	-0.438651
O21	O	2.241110	0.194606	-0.105318
O22	O	1.446218	-0.626067	-0.456142
O23	O	1.779551	-0.292734	-0.122809
O24	O	2.112885	0.040600	0.210524
O25	O	1.743909	-0.664001	-0.793599
O26	O	2.077242	-0.330667	-0.460266
O27	O	2.410575	0.002666	-0.126932
O28	O	1.574619	-0.771497	-0.472519
O29	O	1.907953	-0.438164	-0.139186
O30	O	2.241286	-0.104830	0.194147
O31	O	1.446118	-0.455708	-0.626517
O32	O	1.779452	-0.122375	-0.293184
O33	O	2.112785	0.210958	0.040150
O34	O	1.276744	-0.604423	-0.604782
O35	O	1.610077	-0.271090	-0.271449
O36	O	1.943411	0.062244	0.061885
O37	O	1.446202	-0.925394	-0.755396
O38	O	1.779535	-0.592061	-0.422062
O39	O	2.112869	-0.258727	-0.088729
O40	O	1.276737	-0.733454	-0.733781
O41	O	1.610070	-0.400120	-0.400448
O42	O	1.943404	-0.066787	-0.067114
O43	O	1.574610	-0.941793	-0.642774
O44	O	1.907943	-0.608460	-0.309440
O45	O	2.241277	-0.275127	0.023893
O46	O	1.574435	-0.642356	-0.942239
O47	O	1.907768	-0.309023	-0.608905
O48	O	2.241101	0.024310	-0.275572
O49	O	1.446102	-0.755035	-0.925770
O50	O	1.779436	-0.421702	-0.592437
O51	O	2.112769	-0.088369	-0.259104
C52	C	1.238821	-0.664102	-0.664431
C53	C	1.572155	-0.330768	-0.331098
C54	C	1.905488	0.002565	0.002236
C55	C	1.122663	-0.649308	-0.649596
C56	C	1.455996	-0.315975	-0.316262
C57	C	1.789330	0.017358	0.017071
C58	C	1.510417	-0.972782	-0.699071
C59	C	1.843750	-0.639448	-0.365737
C60	C	2.177083	-0.306115	-0.032404
C61	C	1.510448	-1.089562	-0.699029
C62	C	1.843781	-0.756229	-0.365696
C63	C	2.177114	-0.422896	-0.032363
C64	C	1.510285	-0.698715	-0.972128
C65	C	1.843618	-0.365382	-0.638794
C66	C	2.176951	-0.032049	-0.305461
C67	C	1.510355	-0.698753	-1.088913
C68	C	1.843688	-0.365419	-0.755580
C69	C	2.177022	-0.032086	-0.422246
C70	C	1.070900	-0.706459	-0.706910
C71	C	1.404234	-0.373126	-0.373577
C72	C	1.737567	-0.039793	-0.040244
C73	C	0.950844	-0.691172	-0.691579
C74	C	1.284178	-0.357838	-0.358246
C75	C	1.617511	-0.024505	-0.024912
C76	C	1.782926	-0.733512	-0.734041
C77	C	2.116259	-0.400179	-0.400707
C78	C	2.449593	-0.066846	-0.067374
C79	C	1.899084	-0.748331	-0.748902
C80	C	2.232418	-0.414997	-0.415568
C81	C	2.565751	-0.081664	-0.082235
C82	C	1.443653	-1.135912	-0.623275
C83	C	1.776986	-0.802579	-0.289942
C84	C	2.110319	-0.469246	0.043391
C85	C	1.443677	-1.245640	-0.623246
C86	C	1.777010	-0.912306	-0.289913
C87	C	2.110344	-0.578973	0.043420
C88	C	1.577300	-1.262658	-0.774729
C89	C	1.910634	-0.929325	-0.441396
C90	C	2.243967	-0.595992	-0.108063
C91	C	1.577270	-1.152932	-0.774762
C92	C	1.910603	-0.819599	-0.441429
C93	C	2.243937	-0.486266	-0.108095
C94	C	1.510331	-0.425770	-0.699196
C95	C	1.843664	-0.092437	-0.365863
C96	C	2.176998	0.240897	-0.032529
C97	C	1.510502	-0.309016	-0.698967
C98	C	1.843836	0.024318	-0.365634
C99	C	2.177169	0.357651	-0.032301
C100	C	1.577236	-0.774561	-1.261952
C101	C	1.910569	-0.441228	-0.928619
C102	C	2.243903	-0.107894	-0.595286
C103	C	1.577182	-0.774530	-1.152222
C104	C	1.910516	-0.441197	-0.818888
C105	C	2.243849	-0.107864	-0.485555
C106	C	1.443585	-0.622994	-1.135342
C107	C	1.776918	-0.289661	-0.802008
C108	C	2.110251	0.043672	-0.468675
C109	C	1.443644	-0.623021	-1.245071
C110	C	1.776978	-0.289688	-0.911738
C111	C	2.110311	0.043645	-0.578405
C112	C	1.510431	-0.698789	-0.425146
C113	C	1.843765	-0.365456	-0.091812
C114	C	2.177098	-0.032123	0.241521
C115	C	1.510469	-0.698811	-0.308374
C116	C	1.843802	-0.365477	0.024960
C117	C	2.177135	-0.032144	0.358293
H118	H	1.115465	-0.766710	-0.767326
H119	H	1.448798	-0.433377	-0.433993
H120	H	1.782132	-0.100044	-0.100660
Br121	Br	0.876582	-0.590756	-0.590858
Br122	Br	1.209916	-0.257422	-0.257525
Br123	Br	1.543249	0.075911	0.075808
H124	H	0.943644	-0.808588	-0.809319
H125	H	1.276977	-0.475255	-0.475986
H126	H	1.610310	-0.141922	-0.142653
Br127	Br	1.048397	-0.548897	-0.548879
Br128	Br	1.381730	-0.215564	-0.215546
Br129	Br	1.715064	0.117770	0.117787
Br130	Br	1.352964	-1.049913	-0.520498
Br131	Br	1.686297	-0.716580	-0.187165
Br132	Br	2.019630	-0.383247	0.146169
H133	H	1.389285	-1.283372	-0.561560
H134	H	1.722618	-0.950039	-0.228227
H135	H	2.055951	-0.616705	0.105106
H136	H	1.631552	-0.836212	-1.114429
H137	H	1.964885	-0.502879	-0.781096
H138	H	2.298218	-0.169545	-0.447763
Br139	Br	1.352896	-0.520145	-1.049425
Br140	Br	1.686230	-0.186812	-0.716092
Br141	Br	2.019563	0.146521	-0.382758
H142	H	1.389273	-0.561331	-1.282868
H143	H	1.722607	-0.227997	-0.949534
H144	H	2.055940	0.105336	-0.616201
Br145	Br	1.667984	-1.348666	-0.877504
Br146	Br	2.001317	-1.015333	-0.544170
Br147	Br	2.334651	-0.682000	-0.210837
Br148	Br	1.667920	-1.090021	-0.877586
Br149	Br	2.001253	-0.756688	-0.544252
Br150	Br	2.334586	-0.423355	-0.210919
Br151	Br	1.667929	-0.877414	-1.347860
Br152	Br	2.001262	-0.544080	-1.014527
Br153	Br	2.334596	-0.210747	-0.681194
