data_functionalizedCrystal
_audit_creation_method	'MofGen! by Chris Wilmer'
_symmetry_space_group_name_H-M	'P1'
_symmetry_Int_Tables_number	1
_symmetry_cell_setting	triclinic
loop_
_symmetry_equiv_pos_as_xyz
  x,y,z
_cell_length_a	13.262390
_cell_length_b	23.532407
_cell_length_c	11.804365
_cell_angle_alpha	101.750517
_cell_angle_beta	62.657606
_cell_angle_gamma	83.670349
loop_
_atom_site_label
_atom_site_type_symbol
_atom_site_fract_x
_atom_site_fract_y
_atom_site_fract_z
O1	O	1.519181	0.008376	-0.591067
O2	O	1.190588	0.029019	-0.484646
O3	O	1.364788	-0.064552	-0.541042
O4	O	1.344981	0.101947	-0.534671
O5	O	1.318928	-0.039942	-0.328140
O6	O	1.144728	0.053630	-0.271744
O7	O	1.473321	0.032987	-0.378164
Cu8	Cu	1.304837	0.045555	-0.305514
Cu9	Cu	1.359072	0.016450	-0.557296
O10	O	1.299121	0.126558	-0.321768
C11	C	1.125626	0.042431	-0.364582
C12	C	1.000386	0.045720	-0.324020
C13	C	1.341353	-0.073446	-0.434424
C14	C	1.339834	-0.136613	-0.433923
C15	C	0.747361	0.001322	-0.673916
C16	C	0.865032	-0.001772	-0.712028
C17	C	0.898877	0.010101	-0.615029
C18	C	0.815039	0.025068	-0.479912
C19	C	0.697358	0.028157	-0.441796
C20	C	0.848873	0.036937	-0.382910
C21	C	0.765035	0.051903	-0.247792
C22	C	0.647366	0.054993	-0.209683
C23	C	0.613522	0.043120	-0.306682
C24	C	0.966554	0.033847	-0.421026
C25	C	0.916550	0.060683	-0.188906
C26	C	0.798880	0.063776	-0.150794
C27	C	1.433423	-0.538754	-0.464299
C28	C	1.432016	-0.598110	-0.463852
O29	O	1.518771	-0.637669	-0.491993
N30	N	1.328451	-0.617383	-0.430310
C31	C	1.226289	-0.577297	-0.397225
O32	O	1.138069	-0.599140	-0.368655
C33	C	1.227699	-0.517944	-0.397682
C34	C	1.331269	-0.498673	-0.431213
C35	C	1.536984	-0.519483	-0.497829
C36	C	1.538391	-0.460131	-0.498273
C37	C	1.436236	-0.420050	-0.465187
C38	C	1.332675	-0.439321	-0.431657
C39	C	1.125541	-0.477861	-0.364607
C40	C	1.126960	-0.418504	-0.365067
C41	C	1.230530	-0.399234	-0.398598
C42	C	1.231927	-0.339889	-0.399016
N43	N	1.335492	-0.320616	-0.432558
C44	C	1.437647	-0.360697	-0.465644
C45	C	1.223335	-0.701944	-0.396272
C46	C	1.221921	-0.761296	-0.395806
C47	C	1.427649	-0.782105	-0.462435
C48	C	1.429060	-0.722751	-0.462892
C49	C	1.326900	-0.682672	-0.429814
C50	C	1.440592	-0.236053	-0.466573
C51	C	1.441988	-0.176694	-0.467009
C52	C	1.236262	-0.155891	-0.400386
C53	C	1.234864	-0.215244	-0.399944
C54	C	1.337039	-0.255324	-0.433044
O55	O	1.145218	-0.300297	-0.370895
O56	O	1.525855	-0.338847	-0.494226
C57	C	1.538283	0.019575	-0.498231
C58	C	1.663525	0.016284	-0.538801
C59	C	1.322557	0.135452	-0.428389
C60	C	1.324078	0.198618	-0.428899
N61	N	1.266700	0.066025	-0.128427
N62	N	1.397219	-0.004024	-0.734387
C63	C	1.488801	-0.053192	0.173618
C64	C	1.517651	-0.068680	0.039617
C65	C	1.454915	-0.035005	-0.002401
C66	C	1.363325	0.014161	0.089597
C67	C	1.334479	0.029653	0.223609
C68	C	1.300593	0.047840	0.047590
C69	C	1.209003	0.097006	0.139587
C70	C	1.180160	0.112495	0.273587
C71	C	1.242896	0.078820	0.315604
C72	C	1.329440	0.032348	-0.086423
C73	C	1.175117	0.115193	-0.036432
C74	C	1.146267	0.130681	0.097570
H75	H	1.034804	0.021662	-0.531039
C76	C	1.430179	-0.021736	-0.187602
N77	N	1.506060	-0.062477	-0.263811
C78	C	1.211143	0.095845	0.463021
N79	N	1.187222	0.108663	0.574058
H80	H	0.579109	0.067169	-0.099663
C81	C	1.028320	0.006692	-0.656959
N82	N	1.125823	0.004123	-0.688547
H83	H	1.620177	-0.552113	-0.524778
C84	C	1.107984	-0.782484	-0.358903
N85	N	1.022164	-0.798441	-0.331115
C86	C	1.557801	-0.090227	0.219849
N87	N	1.609776	-0.118125	0.254670
H88	H	0.730603	0.075962	-0.040779
H89	H	1.105591	0.152533	0.348490
H90	H	0.944105	0.070350	-0.109921
H91	H	1.140137	-0.669312	-0.369323
H92	H	1.622729	-0.444448	-0.525583
C93	C	1.120932	-0.236441	-0.363049
N94	N	1.035118	-0.252403	-0.335274
H95	H	1.071693	0.170713	0.172490
H96	H	1.124034	0.142615	-0.070641
H97	H	1.526330	-0.161008	-0.494312
C98	C	1.542995	-0.701561	-0.499789
N99	N	1.628817	-0.685605	-0.527587
C100	C	0.957246	-0.018241	-0.860653
N101	N	1.026704	-0.030648	-0.972605
H102	H	0.719793	-0.008349	-0.752878
C103	C	0.484076	0.046530	-0.264764
N104	N	0.386576	0.049100	-0.233195
H105	H	1.478409	-0.047618	-0.111512
H106	H	1.041205	-0.493540	-0.337310
H107	H	1.153090	-0.123246	-0.373444
C108	C	1.540025	-0.826207	-0.498844
N109	N	1.624661	-0.859426	-0.526267
C110	C	1.014572	-0.374419	-0.328673
N111	N	0.929921	-0.341215	-0.301257
C112	C	1.552988	-0.280132	-0.502973
N113	N	1.637642	-0.313331	-0.530379
C114	C	1.618390	-0.122763	-0.061568
N115	N	1.694270	-0.163502	-0.137782
