data_functionalizedCrystal
_audit_creation_method	'MofGen! by Chris Wilmer'
_symmetry_space_group_name_H-M	'P1'
_symmetry_Int_Tables_number	1
_symmetry_cell_setting	triclinic
loop_
_symmetry_equiv_pos_as_xyz
  x,y,z
_cell_length_a	19.288864
_cell_length_b	15.995292
_cell_length_c	18.366186
_cell_angle_alpha	89.996953
_cell_angle_beta	89.977106
_cell_angle_gamma	83.302432
loop_
_atom_site_label
_atom_site_type_symbol
_atom_site_fract_x
_atom_site_fract_y
_atom_site_fract_z
O1	O	0.921606	0.104454	-0.060778
O2	O	0.719379	0.118545	-0.060728
O3	O	0.826042	-0.010412	-0.060755
O4	O	0.814944	0.233412	-0.060750
O5	O	0.826023	-0.010419	0.060344
O6	O	0.719361	0.118539	0.060372
O7	O	0.921588	0.104448	0.060321
Zn8	Zn	0.820472	0.111492	0.079574
Zn9	Zn	0.820495	0.111501	-0.079980
O10	O	0.814925	0.233405	0.060349
C11	C	0.693493	0.118089	-0.000172
C12	C	0.616386	0.116727	-0.000153
C13	C	0.571873	0.192394	-0.000162
C14	C	0.499423	0.191115	-0.000171
C15	C	0.471489	0.114166	-0.000183
C16	C	0.516011	0.038490	-0.000169
C17	C	0.588460	0.039770	-0.000154
C18	C	0.363087	0.053677	-0.042636
C19	C	0.290639	0.052400	-0.042655
C20	C	0.248034	0.110212	-0.000227
C21	C	0.277883	0.169317	0.042211
C22	C	0.350332	0.170597	0.042226
C23	C	0.392931	0.112769	-0.000200
C24	C	0.124961	0.184497	-0.000245
C25	C	0.052510	0.183215	-0.000249
C26	C	0.069101	0.030588	-0.000255
C27	C	0.141550	0.031872	-0.000244
C28	C	0.169476	0.108829	-0.000243
C29	C	0.825581	-0.041609	-0.000207
C30	C	0.824227	-0.134557	-0.000213
C31	C	0.819248	-0.472277	-0.000205
C32	C	0.896234	-0.449255	0.000047
C33	C	0.897698	-0.352585	-0.000229
C34	C	0.821719	-0.304730	-0.000208
C35	C	0.783240	-0.333682	-0.069350
C36	C	0.782313	-0.430469	-0.069405
C37	C	0.780720	-0.430328	0.068308
C38	C	0.783573	-0.333846	0.069219
C39	C	0.823111	-0.210039	-0.000213
C40	C	0.817854	-0.566967	-0.000205
C41	C	0.947474	0.104905	-0.000236
C42	C	1.024581	0.106266	-0.000260
C43	C	0.815386	0.264602	-0.000201
C44	C	0.816740	0.357550	-0.000200
N45	N	0.820460	0.111486	0.188465
N46	N	0.820512	0.111500	-0.188871
C47	C	0.867706	0.054412	0.226553
C48	C	0.867710	0.054408	0.302781
C49	C	0.820476	0.111493	0.340917
C50	C	0.773221	0.168572	0.302820
C51	C	0.773214	0.168568	0.226594
C52	C	0.811362	0.187786	0.461681
C53	C	0.811375	0.187791	0.537906
C54	C	0.820495	0.111504	0.576025
C55	C	0.829618	0.035209	0.537910
C56	C	0.829611	0.035205	0.461684
C57	C	0.820479	0.111503	0.423572
C58	C	0.867748	0.054420	0.696768
C59	C	0.867748	0.054416	0.772997
C60	C	0.773262	0.168587	0.773035
C61	C	0.773259	0.168584	0.696808
C62	C	0.820506	0.111502	0.658678
H63	H	0.147699	0.247160	-0.000233
H64	H	0.809975	-0.313720	-0.120820
F65	F	0.934817	-0.487323	-0.064419
H66	H	0.724053	-0.444105	0.068790
F67	F	0.382098	0.233496	0.087393
H68	H	0.928027	-0.334292	-0.049894
H69	H	0.016268	0.244835	-0.000253
H70	H	0.808977	-0.457384	-0.121105
F71	F	0.801705	0.268989	0.421119
F72	F	0.188926	-0.048664	-0.000237
F73	F	0.039376	-0.051308	-0.000261
H74	H	0.266341	0.004277	-0.077214
F75	F	0.408424	-0.007859	-0.087796
F76	F	0.486281	-0.043405	-0.000180
H77	H	0.725867	-0.444807	-0.072523
F78	F	0.801671	0.268990	0.578463
F79	F	0.710162	-0.291751	-0.072695
H80	H	0.906218	0.007938	0.665722
F81	F	0.812193	-0.467434	0.136809
F82	F	0.635836	-0.040768	-0.000143
H83	H	0.811591	-0.315389	0.120369
H84	H	0.728115	-0.300668	0.073410
H85	H	0.906219	0.007934	0.804009
H86	H	0.906175	0.007930	0.195510
H87	H	0.927834	-0.333676	0.049333
F88	F	0.722927	0.229317	0.186056
H89	H	0.594605	0.255058	-0.000163
F90	F	0.232545	0.230851	0.087369
F91	F	0.935013	-0.485997	0.064857
F92	F	0.917998	-0.006341	0.343324
H93	H	0.837037	-0.026917	0.430653
F94	F	0.722948	0.229323	0.343408
F95	F	0.839330	-0.045988	0.578473
H96	H	0.734800	0.215063	0.804086
H97	H	0.463173	0.252734	-0.000177
F98	F	0.722977	0.229334	0.656268
