data_functionalizedCrystal
_audit_creation_method	'MofGen! by Chris Wilmer'
_symmetry_space_group_name_H-M	'P1'
_symmetry_Int_Tables_number	1
_symmetry_cell_setting	triclinic
loop_
_symmetry_equiv_pos_as_xyz
  x,y,z
_cell_length_a	16.109301
_cell_length_b	14.044190
_cell_length_c	14.586319
_cell_angle_alpha	89.991348
_cell_angle_beta	89.999213
_cell_angle_gamma	88.326629
loop_
_atom_site_label
_atom_site_type_symbol
_atom_site_fract_x
_atom_site_fract_y
_atom_site_fract_z
O1	O	1.112198	0.121835	-0.076192
O2	O	0.871264	0.136997	-0.076208
O3	O	0.988112	-0.008568	-0.076183
O4	O	0.995351	0.267399	-0.076218
O5	O	0.988103	-0.008570	0.076298
O6	O	0.871255	0.136995	0.076273
O7	O	1.112189	0.121833	0.076288
Cu8	Cu	0.991721	0.129413	0.090203
Cu9	Cu	0.991732	0.129416	-0.090123
O10	O	0.995342	0.267397	0.076263
C11	C	0.840239	0.136382	0.000030
C12	C	0.747807	0.134540	0.000025
C13	C	0.531644	0.216634	0.000025
C14	C	0.444795	0.214896	0.000031
C15	C	0.451816	0.042189	0.000050
C16	C	0.538664	0.043927	0.000050
C17	C	0.578576	0.131153	0.000033
C18	C	0.404878	0.127677	0.000039
C19	C	0.310712	0.125792	0.000045
C20	C	0.672748	0.133038	0.000028
C21	C	0.984940	-0.043882	0.000060
C22	C	0.975494	-0.149105	0.000068
C23	C	1.025219	-0.399407	0.000035
C24	C	0.958238	-0.341758	0.000037
C25	C	0.967842	-0.234556	0.000054
C26	C	1.015617	-0.506619	0.000018
C27	C	1.143214	0.122448	0.000048
C28	C	1.235646	0.124289	0.000047
C29	C	0.998513	0.302712	0.000018
C30	C	1.007959	0.407935	0.000004
N31	N	0.991720	0.129411	0.217035
N32	N	0.991740	0.129411	-0.216955
C33	C	1.043480	0.064977	0.452053
C34	C	1.043482	0.064974	0.548034
C35	C	0.939974	0.193848	0.548021
C36	C	0.939968	0.193845	0.452041
C37	C	0.991726	0.129411	0.404060
C38	C	0.991734	0.129411	0.596020
C39	C	0.991736	0.129409	0.700088
C40	C	0.991723	0.129411	0.299986
H41	H	0.893681	-0.372913	0.000028
C42	C	1.099594	-0.004925	0.399792
C43	C	1.088512	0.008857	0.305464
C44	C	1.140177	-0.055535	0.257296
H45	H	1.085884	-0.068211	0.415448
H46	H	1.155877	0.005346	0.415438
H47	H	1.032241	-0.001422	0.289824
H48	H	1.102228	0.072129	0.289780
H49	H	1.196460	-0.045263	0.272942
H50	H	1.126463	-0.118816	0.272960
H51	H	1.132671	-0.046187	0.193289
C52	C	1.111224	-0.357689	0.000106
C53	C	1.103769	-0.258113	0.000146
C54	C	1.182977	-0.219638	0.000228
H55	H	1.140657	-0.378364	-0.053050
H56	H	1.140575	-0.378452	0.053304
H57	H	1.074430	-0.237358	-0.053047
H58	H	1.074350	-0.237412	0.053297
H59	H	1.212328	-0.240401	0.053426
H60	H	1.212404	-0.240319	-0.052929
H61	H	1.177929	-0.152072	0.000263
C62	C	1.099766	-0.005024	0.599975
C63	C	1.145103	-0.061434	0.537408
C64	C	1.196969	-0.125922	0.585221
H65	H	1.067027	-0.044584	0.637428
H66	H	1.136948	0.029062	0.637390
H67	H	1.107926	-0.095518	0.500009
H68	H	1.177859	-0.021901	0.499953
H69	H	1.234151	-0.091836	0.622636
H70	H	1.164223	-0.165475	0.622673
H71	H	1.227742	-0.164198	0.542777
C72	C	0.883878	0.263768	0.600283
C73	C	0.894977	0.250001	0.694611
C74	C	0.843325	0.314406	0.742780
H75	H	0.827594	0.253521	0.584673
H76	H	0.897609	0.327051	0.584592
H77	H	0.881241	0.186733	0.710296
H78	H	0.951250	0.260256	0.710248
H79	H	0.857056	0.377688	0.727089
H80	H	0.787044	0.304153	0.727163
H81	H	0.850854	0.305079	0.806786
C82	C	0.883881	0.263962	0.399977
C83	C	0.904288	0.357112	0.423285
C84	C	0.852646	0.421723	0.375333
H85	H	0.827605	0.253780	0.415674
H86	H	0.891297	0.254794	0.335935
H87	H	0.896865	0.366277	0.487313
H88	H	0.960555	0.367325	0.407586
H89	H	0.860063	0.412554	0.311291
H90	H	0.796373	0.411532	0.391034
H91	H	0.866490	0.484932	0.391135
C92	C	0.574868	0.311402	-0.000127
C93	C	0.551606	0.363092	-0.078566
C94	C	0.591395	0.450404	-0.078729
H95	H	0.633321	0.300335	-0.000174
H96	H	0.559170	0.346643	0.053017
H97	H	0.567309	0.327858	-0.131696
H98	H	0.493159	0.374185	-0.078535
H99	H	0.575697	0.485646	-0.025585
H100	H	0.649846	0.439328	-0.078774
H101	H	0.575611	0.485490	-0.131944
C102	C	0.393695	0.307604	0.000061
C103	C	0.309093	0.287418	0.000090
C104	C	0.261996	0.372800	0.000130
H105	H	0.406383	0.343436	-0.053104
H106	H	0.406438	0.343378	0.053250
H107	H	0.296355	0.251660	-0.053093
H108	H	0.296379	0.251600	0.053252
H109	H	0.274739	0.408574	0.053319
H110	H	0.274691	0.408626	-0.053036
H111	H	0.204589	0.359116	0.000158
C112	C	0.408434	-0.052480	-0.000131
C113	C	0.358800	-0.058527	-0.078593
C114	C	0.318835	-0.145729	-0.078800
H115	H	0.374633	-0.056846	0.052979
H116	H	0.448800	-0.103170	-0.000174
H117	H	0.318440	-0.007851	-0.078541
H118	H	0.392581	-0.054179	-0.131715
H119	H	0.359201	-0.196419	-0.078843
H120	H	0.285039	-0.150087	-0.025687
H121	H	0.285160	-0.149847	-0.132039
C122	C	0.589479	-0.048989	0.000011
C123	C	0.535939	-0.125750	-0.000006
C124	C	0.582720	-0.211354	-0.000050
H125	H	0.623511	-0.052036	0.053171
H126	H	0.623490	-0.051948	-0.053182
H127	H	0.501942	-0.122793	0.053182
H128	H	0.501906	-0.122734	-0.053162
H129	H	0.616731	-0.214313	-0.053244
H130	H	0.616751	-0.214391	0.053111
H131	H	0.546401	-0.263446	-0.000071
