data_functionalizedCrystal
_audit_creation_method	'MofGen! by Chris Wilmer'
_symmetry_space_group_name_H-M	'P1'
_symmetry_Int_Tables_number	1
_symmetry_cell_setting	triclinic
loop_
_symmetry_equiv_pos_as_xyz
  x,y,z
_cell_length_a	9.065218
_cell_length_b	16.992695
_cell_length_c	8.140239
_cell_angle_alpha	89.996131
_cell_angle_beta	89.997198
_cell_angle_gamma	87.842054
loop_
_atom_site_label
_atom_site_type_symbol
_atom_site_fract_x
_atom_site_fract_y
_atom_site_fract_z
O1	O	1.971073	0.115065	-0.136620
O2	O	1.542664	0.124504	-0.136623
O3	O	1.755151	0.005630	-0.136608
O4	O	1.758586	0.233939	-0.136634
O5	O	1.755138	0.005628	0.136619
O6	O	1.542651	0.124502	0.136605
O7	O	1.971060	0.115064	0.136607
Zn8	Zn	1.756854	0.119783	0.179986
Zn9	Zn	1.756871	0.119785	-0.180002
O10	O	1.758573	0.233938	0.136593
C11	C	1.487587	0.123596	-0.000009
C12	C	1.323492	0.120884	-0.000010
C13	C	1.750726	-0.023615	0.000005
C14	C	1.737542	-0.110753	0.000005
C15	C	1.864748	-0.160090	0.000007
C16	C	1.852352	-0.241964	-0.000009
C17	C	1.712748	-0.274500	-0.000015
C18	C	1.585533	-0.225157	-0.000022
C19	C	1.597931	-0.143284	-0.000019
C20	C	1.661364	-0.518463	-0.000038
C21	C	1.648976	-0.600343	-0.000037
C22	C	1.915797	-0.617144	-0.000026
C23	C	1.928182	-0.535269	-0.000012
C24	C	1.800967	-0.485933	-0.000029
N25	N	1.700074	-0.358189	-0.000026
N26	N	1.813642	-0.402245	-0.000029
C27	C	2.026138	0.115972	-0.000010
C28	C	2.190232	0.118684	-0.000020
C29	C	1.762998	0.263183	-0.000024
C30	C	1.776182	0.350320	-0.000034
N31	N	1.756853	0.119781	0.425669
N32	N	1.756882	0.119780	-0.425685
H33	H	1.978428	-0.133606	0.000022
H34	H	1.955937	-0.282132	-0.000003
H35	H	2.041862	-0.508785	-0.000007
O36	O	2.039215	-0.665182	-0.000098
C37	C	1.998347	-0.744423	-0.000062
H38	H	1.882002	-0.748383	-0.051787
H39	H	2.001151	-0.768062	0.131017
C40	C	2.249973	-0.788836	-0.043689
C41	C	2.107081	-0.793701	-0.107232
H42	H	2.317048	-0.819234	-0.109789
H43	H	2.277509	-0.735450	-0.043707
H44	H	2.252289	-0.808534	0.065542
H45	H	2.104763	-0.773994	-0.216453
H46	H	2.079547	-0.847084	-0.107234
O47	O	1.474257	-0.095435	-0.000238
C48	C	1.390099	-0.110311	-0.141770
H49	H	1.419033	-0.172145	-0.188942
H50	H	1.415582	-0.065395	-0.240858
C51	C	1.189126	-0.027763	-0.040857
C52	C	1.224654	-0.103711	-0.098788
H53	H	1.087071	-0.023688	-0.014349
H54	H	1.245825	-0.017738	0.054493
H55	H	1.210372	0.009659	-0.123441
H56	H	1.203424	-0.141130	-0.016197
H57	H	1.167946	-0.113743	-0.194124
O58	O	1.537642	-0.470658	0.000041
C59	C	1.411772	-0.516935	0.000007
H60	H	1.442055	-0.577762	0.051727
H61	H	1.369432	-0.523054	-0.131072
C62	C	1.253373	-0.402344	0.043645
C63	C	1.290564	-0.477051	0.107182
H64	H	1.178603	-0.377741	0.109749
H65	H	1.338173	-0.371165	0.043662
H66	H	1.218098	-0.407453	-0.065586
H67	H	1.325855	-0.471940	0.216402
H68	H	1.205767	-0.508228	0.107186
H69	H	1.471864	-0.251654	-0.000038
H70	H	1.535289	-0.626830	-0.000016
