data_functionalizedCrystal
_audit_creation_method	'MofGen! by Chris Wilmer'
_symmetry_space_group_name_H-M	'P1'
_symmetry_Int_Tables_number	1
_symmetry_cell_setting	triclinic
loop_
_symmetry_equiv_pos_as_xyz
  x,y,z
_cell_length_a	19.077105
_cell_length_b	10.686285
_cell_length_c	19.076919
_cell_angle_alpha	88.081200
_cell_angle_beta	90.076224
_cell_angle_gamma	83.162422
loop_
_atom_site_label
_atom_site_type_symbol
_atom_site_fract_x
_atom_site_fract_y
_atom_site_fract_z
Zn1	Zn	1.085506	-0.610610	-0.415453
Zn2	Zn	1.099198	-0.813548	-0.289649
Zn3	Zn	0.971970	-0.593702	-0.293938
Zn4	Zn	0.976985	-0.812786	-0.402433
O5	O	1.033415	-0.707661	-0.350368
O6	O	1.185984	-0.644924	-0.402419
O7	O	1.085952	-0.777627	-0.192163
O8	O	0.979201	-0.419327	-0.317301
O9	O	1.196043	-0.794022	-0.309992
O10	O	1.062616	-0.431749	-0.406578
O11	O	0.992478	-0.616107	-0.195314
O12	O	0.873973	-0.615369	-0.304676
O13	O	0.987750	-0.792725	-0.502215
O14	O	0.877659	-0.776330	-0.384387
O15	O	1.067480	-0.644186	-0.511781
O16	O	1.090815	-0.990065	-0.297367
O17	O	1.001026	-0.989505	-0.380228
C18	C	0.850234	-0.693933	-0.343584
C19	C	0.771869	-0.688092	-0.340697
C20	C	0.736999	-0.769268	-0.380767
C21	C	0.663366	-0.763763	-0.378058
C22	C	0.624605	-0.677087	-0.335276
C23	C	0.659481	-0.595902	-0.295205
C24	C	0.733112	-0.601402	-0.297918
C25	C	0.404183	-0.651633	-0.322724
C26	C	0.330547	-0.646142	-0.320013
C27	C	0.334437	-0.814001	-0.402867
C28	C	0.408069	-0.819499	-0.405573
C29	C	0.442938	-0.738310	-0.365505
N30	N	0.549341	-0.671460	-0.332505
N31	N	0.518201	-0.743931	-0.368280
C32	C	1.047969	-1.035583	-0.336935
C33	C	1.054260	-1.175875	-0.331214
C34	C	1.217311	-0.721444	-0.357180
C35	C	1.295676	-0.727318	-0.360082
C36	C	1.026647	-0.720257	-0.533134
C37	C	1.023763	-0.725624	-0.611017
C38	C	1.018822	-0.378462	-0.363870
C39	C	1.012603	-0.238177	-0.369624
C40	C	1.063917	-0.650813	-0.652589
C41	C	1.061198	-0.655851	-0.725768
C42	C	1.018329	-0.735707	-0.757375
C43	C	0.978171	-0.810521	-0.715799
C44	C	0.980886	-0.805476	-0.642621
C45	C	1.005754	-0.759083	-0.975701
C46	C	1.003043	-0.764125	-1.048885
C47	C	1.086070	-0.609453	-1.058849
C48	C	1.088785	-0.604420	-0.985669
C49	C	1.048624	-0.679229	-0.944099
N50	N	1.015551	-0.740861	-0.832177
N51	N	1.051398	-0.674067	-0.869299
C52	C	1.040193	-0.695027	-0.168319
C53	C	1.043197	-0.689314	-0.090456
H54	H	0.439623	-0.890082	-0.440409
H55	H	1.094733	-1.229869	-0.293946
H56	H	0.972128	-1.184190	-0.406885
C57	C	1.111070	-0.562964	-0.617827
H58	H	1.134588	-0.519122	-0.653069
H59	H	1.144990	-0.611570	-0.588438
H60	H	1.082713	-0.503979	-0.590538
H61	H	1.093898	-0.594935	-0.759613
H62	H	0.306038	-0.880099	-0.435489
H63	H	0.634977	-0.829866	-0.410686
H64	H	1.123696	-0.539397	-0.959940
C65	C	1.130238	-0.527161	-1.104577
H66	H	1.122478	-0.541592	-1.152687
H67	H	1.178873	-0.548352	-1.093584
H68	H	1.116598	-0.440756	-1.095679
H69	H	0.968132	-0.829157	-1.074616
C70	C	0.961563	-0.841342	-0.929984
H71	H	0.935644	-0.889621	-0.959291
H72	H	0.929765	-0.788764	-0.902289
H73	H	0.992016	-0.896404	-0.900171
C74	C	0.931017	-0.898362	-0.750565
H75	H	0.935155	-0.890664	-0.800101
H76	H	0.883271	-0.875516	-0.737573
H77	H	0.945545	-0.983114	-0.735474
H78	H	0.948181	-0.866381	-0.608774
H79	H	0.768552	-0.839853	-0.415602
C80	C	0.287911	-0.550786	-0.272955
H81	H	0.319222	-0.503211	-0.249485
H82	H	0.262453	-0.594724	-0.239346
H83	H	0.255760	-0.495580	-0.301010
H84	H	0.432565	-0.585532	-0.290092
C85	C	0.616847	-0.500564	-0.248143
H86	H	0.568001	-0.508923	-0.252259
H87	H	0.624767	-0.417402	-0.262389
H88	H	0.631466	-0.516571	-0.200737
C89	C	0.771470	-0.512106	-0.253843
H90	H	0.737842	-0.459703	-0.227970
H91	H	0.796765	-0.461188	-0.284008
H92	H	0.803460	-0.560341	-0.222348
