data_functionalizedCrystal
_audit_creation_method	'MofGen! by Chris Wilmer'
_symmetry_space_group_name_H-M	'P1'
_symmetry_Int_Tables_number	1
_symmetry_cell_setting	triclinic
loop_
_symmetry_equiv_pos_as_xyz
  x,y,z
_cell_length_a	29.839131
_cell_length_b	29.839134
_cell_length_c	29.839111
_cell_angle_alpha	90.071095
_cell_angle_beta	89.880971
_cell_angle_gamma	89.963719
loop_
_atom_site_label
_atom_site_type_symbol
_atom_site_fract_x
_atom_site_fract_y
_atom_site_fract_z
Zn1	Zn	-0.178528	-0.686938	-0.254126
Zn2	Zn	-0.253773	-0.686805	-0.178996
Zn3	Zn	-0.178651	-0.611756	-0.178995
Zn4	Zn	-0.253625	-0.611768	-0.254084
O5	O	-0.216145	-0.649317	-0.216550
O6	O	-0.188520	-0.749787	-0.244177
O7	O	-0.243922	-0.676789	-0.116128
O8	O	-0.115768	-0.621779	-0.188979
O9	O	-0.243802	-0.749690	-0.188979
O10	O	-0.115678	-0.677015	-0.244177
O11	O	-0.188730	-0.621651	-0.116128
O12	O	-0.188586	-0.548891	-0.188938
O13	O	-0.243550	-0.621800	-0.316957
O14	O	-0.243670	-0.548899	-0.244106
O15	O	-0.188377	-0.677027	-0.316988
O16	O	-0.316621	-0.676801	-0.188939
O17	O	-0.316512	-0.621672	-0.244106
C18	C	-0.216126	-0.532594	-0.216518
C19	C	-0.216128	-0.482660	-0.216515
C20	C	-0.332867	-0.649236	-0.216528
C21	C	-0.382802	-0.649242	-0.216533
C22	C	-0.215933	-0.649430	-0.333729
C23	C	-0.215843	-0.649478	-0.383664
C24	C	-0.692489	-0.678075	-0.187867
C25	C	-0.880162	-0.678130	-0.187884
O26	O	-0.904464	-0.702581	-0.163493
N27	N	-0.903587	-0.649410	-0.216584
C28	C	-0.880090	-0.620676	-0.245284
O29	O	-0.904321	-0.596252	-0.269699
C30	C	-0.692418	-0.620623	-0.245268
C31	C	-0.668996	-0.649342	-0.216563
C32	C	-0.669067	-0.706792	-0.159164
C33	C	-0.622151	-0.706776	-0.159158
C34	C	-0.598658	-0.678043	-0.187855
C35	C	-0.622080	-0.649326	-0.216557
C36	C	-0.668922	-0.591891	-0.273970
C37	C	-0.622001	-0.591881	-0.273965
C38	C	-0.598579	-0.620600	-0.245259
C39	C	-0.551672	-0.620577	-0.245248
N40	N	-0.528247	-0.649298	-0.216548
C41	C	-0.551740	-0.678031	-0.187852
C42	C	-0.978621	-0.620705	-0.245289
C43	C	-1.025539	-0.620717	-0.245293
C44	C	-1.025607	-0.678173	-0.187893
C45	C	-0.978688	-0.678158	-0.187888
C46	C	-0.955196	-0.649425	-0.216589
C47	C	-0.453214	-0.677995	-0.187841
C48	C	-0.406295	-0.677975	-0.187837
C49	C	-0.406230	-0.620522	-0.245238
C50	C	-0.453146	-0.620539	-0.245241
C51	C	-0.476637	-0.649280	-0.216541
O52	O	-0.527341	-0.596143	-0.269630
O53	O	-0.527502	-0.702458	-0.163447
C54	C	-0.739404	-0.678091	-0.187872
C55	C	-0.762827	-0.649374	-0.216575
C56	C	-0.739334	-0.620641	-0.245272
C57	C	-0.809744	-0.649386	-0.216578
C58	C	-0.833238	-0.678119	-0.187882
C59	C	-0.809813	-0.706840	-0.159181
C60	C	-0.762897	-0.706824	-0.159176
C61	C	-0.762758	-0.591920	-0.273972
C62	C	-0.809674	-0.591938	-0.273975
C63	C	-0.833167	-0.620671	-0.245278
C64	C	-0.098966	-0.649411	-0.216582
C65	C	-0.049032	-0.649450	-0.216596
C66	C	-0.216164	-0.766495	-0.216583
C67	C	-0.216172	-0.816430	-0.216597
C68	C	-0.244869	-0.173031	-0.245241
C69	C	-0.244882	0.014642	-0.245261
O70	O	-0.269297	0.038895	-0.269666
N71	N	-0.216161	0.038125	-0.216584
C72	C	-0.187433	0.014687	-0.187902
O73	O	-0.163002	0.038967	-0.163515
C74	C	-0.187419	-0.172985	-0.187885
C75	C	-0.216144	-0.196466	-0.216560
C76	C	-0.273592	-0.196511	-0.273914
C77	C	-0.273590	-0.243426	-0.273907
C78	C	-0.244865	-0.266861	-0.245227
C79	C	-0.216143	-0.243381	-0.216553
C80	C	-0.158689	-0.196423	-0.159206
C81	C	-0.158687	-0.243344	-0.159205
C82	C	-0.187413	-0.266824	-0.187880
C83	C	-0.187416	-0.313732	-0.187866
N84	N	-0.216137	-0.337214	-0.216543
C85	C	-0.244861	-0.313779	-0.245223
C86	C	-0.187444	0.113217	-0.187913
C87	C	-0.187448	0.160135	-0.187917
C88	C	-0.244896	0.160088	-0.245276
C89	C	-0.244893	0.113169	-0.245269
C90	C	-0.216164	0.089735	-0.216590
C91	C	-0.244856	-0.412305	-0.245206
C92	C	-0.244853	-0.459225	-0.245195
C93	C	-0.187404	-0.459173	-0.187838
C94	C	-0.187408	-0.412258	-0.187847
C95	C	-0.216136	-0.388825	-0.216534
O96	O	-0.163010	-0.338013	-0.163477
O97	O	-0.269282	-0.338067	-0.269614
C98	C	-0.244871	-0.126115	-0.245248
C99	C	-0.216148	-0.102635	-0.216574
C100	C	-0.187423	-0.126070	-0.187894
C101	C	-0.216152	-0.055717	-0.216578
C102	C	-0.244876	-0.032282	-0.245258
C103	C	-0.273597	-0.055765	-0.273935
C104	C	-0.273595	-0.102680	-0.273928
C105	C	-0.158703	-0.102587	-0.159217
C106	C	-0.158707	-0.055672	-0.159226
C107	C	-0.187432	-0.032237	-0.187907
C108	C	-0.216323	-0.649230	-0.099827
C109	C	-0.216286	-0.649269	-0.049893
C110	C	-0.187107	-0.677923	0.306561
C111	C	-0.187235	-0.677865	0.118888
O112	O	-0.162633	-0.702119	0.094511
N113	N	-0.216184	-0.649313	0.095552
C114	C	-0.245102	-0.620772	0.119137
O115	O	-0.269725	-0.596483	0.094982
C116	C	-0.244972	-0.620829	0.306809
C117	C	-0.216023	-0.649385	0.330143
C118	C	-0.158160	-0.706477	0.329895
C119	C	-0.158130	-0.706493	0.376810
C120	C	-0.187047	-0.677955	0.400392
C121	C	-0.215993	-0.649401	0.377058
C122	C	-0.273887	-0.592286	0.330393
C123	C	-0.273851	-0.592302	0.377314
C124	C	-0.244902	-0.620858	0.400648
C125	C	-0.244880	-0.620879	0.447555
N126	N	-0.215930	-0.649431	0.470891
C127	C	-0.187013	-0.677969	0.447310
C128	C	-0.245169	-0.620745	0.020606
C129	C	-0.245203	-0.620732	-0.026311
C130	C	-0.187334	-0.677824	-0.026557
C131	C	-0.187304	-0.677839	0.020362
C132	C	-0.216220	-0.649297	0.043943
C133	C	-0.186953	-0.678001	0.545835
C134	C	-0.186927	-0.678015	0.592755
C135	C	-0.244793	-0.620922	0.592996
C136	C	-0.244821	-0.620909	0.546081
C137	C	-0.215897	-0.649449	0.522501
O138	O	-0.269465	-0.596634	0.471961
O139	O	-0.162387	-0.702248	0.471473
C140	C	-0.187137	-0.677907	0.259646
C141	C	-0.216083	-0.649353	0.236312
C142	C	-0.245000	-0.620815	0.259893
C143	C	-0.216116	-0.649340	0.189394
C144	C	-0.187200	-0.677877	0.165812
C145	C	-0.158250	-0.706429	0.189149
C146	C	-0.158220	-0.706445	0.236064
C147	C	-0.273949	-0.592264	0.236557
C148	C	-0.273977	-0.592250	0.189642
C149	C	-0.245061	-0.620788	0.166060
H150	H	-0.472335	-0.701399	-0.164472
O151	O	-0.301544	-0.125506	-0.301722
C152	C	-0.330562	-0.152603	-0.276095
H153	H	-0.333348	-0.138420	-0.240707
H154	H	-0.365130	-0.153133	-0.292283
H155	H	-0.316673	-0.188169	-0.274573
O156	O	-0.599471	-0.734721	-0.131264
C157	C	-0.630276	-0.760075	-0.105934
H158	H	-0.663678	-0.761635	-0.124343
H159	H	-0.616704	-0.795470	-0.101183
H160	H	-0.635355	-0.743624	-0.071795
O161	O	-0.272804	-0.482053	-0.272989
C162	C	-0.301821	-0.509149	-0.247358
H163	H	-0.304607	-0.494961	-0.211972
H164	H	-0.336389	-0.509681	-0.263546
H165	H	-0.287930	-0.544714	-0.245832
H166	H	-0.135316	-0.036558	-0.135871
O167	O	-0.130862	-0.125397	-0.131331
C168	C	-0.156446	-0.152470	-0.102255
H169	H	-0.190486	-0.159506	-0.118038
H170	H	-0.138145	-0.185462	-0.096256
H171	H	-0.161396	-0.134334	-0.068959
H172	H	-0.268284	0.094054	-0.268620
H173	H	-0.268284	0.179177	-0.268628
H174	H	-0.387095	-0.597126	-0.268601
H175	H	-0.297555	-0.568997	0.170647
H176	H	-0.163353	-0.701271	0.611751
O177	O	-0.130071	-0.734117	0.258774
C178	C	-0.101207	-0.708360	0.285860
H179	H	-0.117291	-0.674423	0.292995
H180	H	-0.095022	-0.726633	0.318803
H181	H	-0.067968	-0.703196	0.267686
H182	H	-0.743830	-0.730210	-0.135801
H183	H	-0.297460	-0.569032	0.311403
O184	O	-0.301505	-0.266162	-0.301808
C185	C	-0.326863	-0.235409	-0.327113
H186	H	-0.308460	-0.201979	-0.328699
H187	H	-0.331644	-0.249004	-0.362501
H188	H	-0.360988	-0.230377	-0.310601
O189	O	-0.159569	0.182888	-0.159992
C190	C	-0.169410	0.171488	-0.115200
H191	H	-0.186683	0.137437	-0.114242
H192	H	-0.136993	0.169882	-0.095113
H193	H	-0.192509	0.197928	-0.100024
O194	O	-0.158844	-0.705768	0.523004
C195	C	-0.133284	-0.730963	0.553668
H196	H	-0.151656	-0.732642	0.587158
H197	H	-0.128252	-0.766326	0.540048
H198	H	-0.099277	-0.714296	0.558592
H199	H	-0.134557	-0.729746	0.395804
H200	H	-0.828740	-0.568548	-0.297350
O201	O	-0.301540	-0.033065	-0.301813
C202	C	-0.326885	-0.063845	-0.327135
H203	H	-0.328452	-0.097265	-0.308729
H204	H	-0.362277	-0.050268	-0.331868
H205	H	-0.310420	-0.068891	-0.361282
O206	O	-0.301989	-0.564566	0.400150
C207	C	-0.327538	-0.539356	0.369490
H208	H	-0.328977	-0.557754	0.336020
H209	H	-0.362961	-0.534801	0.383145
H210	H	-0.311335	-0.505127	0.364514
H211	H	-1.044743	-0.701569	-0.164527
H212	H	-0.387226	-0.701362	-0.164460
O213	O	-0.955889	-0.706079	-0.160069
C214	C	-0.928678	-0.735103	-0.185674
H215	H	-0.921587	-0.719263	-0.219702
H216	H	-0.895722	-0.741116	-0.167377
H217	H	-0.946723	-0.768400	-0.190648
H218	H	-0.163731	-0.701092	0.039357
H219	H	-1.044605	-0.597327	-0.268663
O220	O	-0.955873	-0.592746	-0.273183
C221	C	-0.986615	-0.567410	-0.298518
H222	H	-1.020099	-0.565868	-0.280114
H223	H	-0.973087	-0.532008	-0.303268
H224	H	-0.991517	-0.583865	-0.332657
H225	H	-0.134611	-0.729716	0.310700
H226	H	-0.268397	-0.597660	0.527081
O227	O	-0.159228	-0.705586	-0.049399
C228	C	-0.133655	-0.730782	-0.018748
H229	H	-0.152018	-0.732474	0.014747
H230	H	-0.128617	-0.766140	-0.032377
H231	H	-0.099651	-0.714108	-0.013827
O232	O	-0.691598	-0.563980	-0.301899
C233	C	-0.660792	-0.538616	-0.327217
H234	H	-0.627329	-0.557011	-0.328781
H235	H	-0.674269	-0.533835	-0.362612
H236	H	-0.655869	-0.504490	-0.310730
H237	H	-0.134707	-0.729667	0.169940
O238	O	-0.130777	-0.173563	-0.131406
C239	C	-0.101746	-0.146473	-0.157026
H240	H	-0.117571	-0.139483	-0.191050
H241	H	-0.095749	-0.113459	-0.138737
H242	H	-0.068444	-0.164570	-0.162010
H243	H	-0.268780	-0.597483	-0.045306
O244	O	-0.273303	-0.593003	0.043440
C245	C	-0.298850	-0.567795	0.012777
H246	H	-0.300296	-0.586201	-0.020690
H247	H	-0.334271	-0.563231	0.026434
H248	H	-0.282641	-0.533570	0.007791
H249	H	-0.164048	0.094141	-0.164556
H250	H	-0.268338	-0.597689	0.612205
O251	O	-0.599161	-0.564034	-0.301893
C252	C	-0.571925	-0.589607	-0.330926
H253	H	-0.586023	-0.624996	-0.333739
H254	H	-0.571334	-0.573366	-0.365483
H255	H	-0.536395	-0.591139	-0.317034
O256	O	-0.302082	-0.564526	0.259391
C257	C	-0.327628	-0.539316	0.228728
H258	H	-0.329071	-0.557720	0.195260
H259	H	-0.363050	-0.534755	0.242384
H260	H	-0.311420	-0.505090	0.223746
H261	H	-0.135289	-0.262422	-0.135853
H262	H	-0.688190	-0.730193	-0.135796
H263	H	-0.472217	-0.597155	-0.268616
O264	O	-0.159466	-0.389516	-0.159975
C265	C	-0.134123	-0.420263	-0.134649
H266	H	-0.132564	-0.453735	-0.153047
H267	H	-0.098727	-0.406725	-0.129924
H268	H	-0.150583	-0.425193	-0.100499
O269	O	-0.159564	-0.481994	-0.159958
C270	C	-0.185149	-0.509072	-0.130886
H271	H	-0.219193	-0.516095	-0.146665
H272	H	-0.166853	-0.542070	-0.124902
H273	H	-0.190089	-0.490946	-0.097583
O274	O	-0.832583	-0.734819	-0.131328
C275	C	-0.821058	-0.779590	-0.141209
H276	H	-0.786954	-0.780507	-0.158476
H277	H	-0.819503	-0.799735	-0.108811
H278	H	-0.847397	-0.794732	-0.164329
O279	O	-0.739991	-0.564027	-0.301909
C280	C	-0.751341	-0.573859	-0.346698
H281	H	-0.785385	-0.591147	-0.347651
H282	H	-0.752941	-0.541438	-0.366803
H283	H	-0.724877	-0.596944	-0.361857
O284	O	-0.272803	-0.389616	-0.273087
C285	C	-0.298142	-0.420409	-0.298399
H286	H	-0.299698	-0.453825	-0.279986
H287	H	-0.333540	-0.406843	-0.303131
H288	H	-0.281681	-0.425459	-0.332547
O289	O	-0.301434	-0.173731	-0.301824
C290	C	-0.275861	-0.146634	-0.330887
H291	H	-0.240473	-0.160789	-0.333728
H292	H	-0.292105	-0.146146	-0.365430
H293	H	-0.274326	-0.111056	-0.317007
