data_functionalizedCrystal
_audit_creation_method	'MofGen! by Chris Wilmer'
_symmetry_space_group_name_H-M	'P1'
_symmetry_Int_Tables_number	1
_symmetry_cell_setting	triclinic
loop_
_symmetry_equiv_pos_as_xyz
  x,y,z
_cell_length_a	16.625548
_cell_length_b	19.120786
_cell_length_c	16.625539
_cell_angle_alpha	92.471374
_cell_angle_beta	90.020568
_cell_angle_gamma	92.466188
loop_
_atom_site_label
_atom_site_type_symbol
_atom_site_fract_x
_atom_site_fract_y
_atom_site_fract_z
Zn1	Zn	1.218970	-0.279609	0.442197
Zn2	Zn	1.213114	-0.397074	0.301603
Zn3	Zn	1.084131	-0.279636	0.307376
Zn4	Zn	1.078345	-0.397034	0.436395
O5	O	1.148640	-0.338338	0.371893
O6	O	1.331025	-0.295197	0.423559
O7	O	1.195974	-0.381524	0.189535
O8	O	1.106890	-0.181342	0.330104
O9	O	1.326723	-0.381498	0.320265
O10	O	1.205956	-0.181323	0.429156
O11	O	1.101211	-0.295243	0.193776
O12	O	0.970531	-0.295204	0.324478
O13	O	1.097028	-0.381429	0.549998
O14	O	0.966280	-0.381455	0.419268
O15	O	1.200345	-0.295158	0.554261
O16	O	1.190364	-0.495359	0.314640
O17	O	1.091350	-0.495329	0.413671
C18	C	0.939149	-0.338328	0.371871
C19	C	0.849528	-0.338341	0.371879
C20	C	0.521352	-0.338345	0.371914
C21	C	0.612660	-0.338342	0.371902
C22	C	0.685437	-0.338344	0.371896
C23	C	0.776751	-0.338340	0.371885
C24	C	1.139615	-0.520830	0.362917
C25	C	1.135828	-0.598901	0.359104
C26	C	1.185589	-0.635508	0.408925
C27	C	1.182027	-0.708863	0.405344
C28	C	1.128709	-0.745611	0.351936
C29	C	1.078942	-0.708998	0.302113
C30	C	1.082500	-0.635644	0.305699
C31	C	1.115383	-0.967097	0.338531
C32	C	1.111831	-1.040456	0.334947
C33	C	1.214915	-1.040316	0.438180
C34	C	1.218472	-0.966960	0.441758
C35	C	1.168703	-0.930355	0.391937
C36	C	1.125069	-0.820592	0.348273
C37	C	1.172339	-0.855375	0.395605
C38	C	1.358948	-0.338349	0.371915
C39	C	1.448569	-0.338353	0.371925
C40	C	1.148695	-0.338286	0.582204
C41	C	1.148718	-0.338264	0.671826
C42	C	1.157722	-0.155134	0.380921
C43	C	1.161592	-0.077063	0.384769
C44	C	1.148634	-0.338340	0.162402
C45	C	1.148776	-0.338164	0.072790
C46	C	1.148759	-0.338185	1.000006
C47	C	1.148745	-0.338209	0.908696
C48	C	1.148739	-0.338225	0.835919
C49	C	1.148724	-0.338248	0.744604
H50	H	1.229010	-0.605593	0.452412
H51	H	1.255434	-1.070129	0.478742
O52	O	1.066959	-0.931516	0.290247
C53	C	0.962139	-0.848766	0.283328
C54	C	1.016920	-0.889032	0.338108
H55	H	0.921681	-0.814397	0.322002
H56	H	0.923369	-0.887605	0.244557
H57	H	1.000860	-0.814449	0.242861
H58	H	0.978262	-0.923350	0.378624
H59	H	1.055694	-0.850155	0.376825
H60	H	1.068408	-1.070374	0.291455
H61	H	1.222554	-0.738666	0.445908
O62	O	1.027105	-0.744770	0.250340
C63	C	0.914202	-0.827649	0.235339
C64	C	0.972864	-0.787196	0.294063
H65	H	0.870322	-0.861949	0.270667
H66	H	0.949534	-0.862032	0.191545
H67	H	0.879284	-0.788870	0.200329
H68	H	1.007797	-0.825925	0.329128
H69	H	0.937486	-0.752802	0.337805
H70	H	1.081659	-0.850520	0.304786
H71	H	1.261888	-0.937042	0.485246
O72	O	1.034080	-0.600049	0.257418
C73	C	0.929272	-0.517286	0.250524
C74	C	0.984051	-0.557565	0.305292
H75	H	0.888821	-0.482917	0.289207
H76	H	0.890494	-0.556116	0.211749
H77	H	0.967994	-0.482967	0.210059
H78	H	0.945391	-0.591884	0.345805
H79	H	1.022833	-0.518697	0.344011
H80	H	1.215749	-0.825453	0.439093
