data_functionalizedCrystal
_audit_creation_method	'MofGen! by Chris Wilmer'
_symmetry_space_group_name_H-M	'P1'
_symmetry_Int_Tables_number	1
_symmetry_cell_setting	triclinic
loop_
_symmetry_equiv_pos_as_xyz
  x,y,z
_cell_length_a	16.625547
_cell_length_b	29.839126
_cell_length_c	16.625546
_cell_angle_alpha	90.022454
_cell_angle_beta	89.977595
_cell_angle_gamma	89.975854
loop_
_atom_site_label
_atom_site_type_symbol
_atom_site_fract_x
_atom_site_fract_y
_atom_site_fract_z
Zn1	Zn	1.232675	-0.254065	0.321065
Zn2	Zn	1.732675	0.245935	0.821065
Zn3	Zn	1.232580	-0.178937	0.455889
Zn4	Zn	1.732580	0.321063	0.955889
Zn5	Zn	1.097839	-0.178941	0.321074
Zn6	Zn	1.597839	0.321059	0.821074
Zn7	Zn	1.097807	-0.254032	0.455859
Zn8	Zn	1.597807	0.245968	0.955859
O9	O	1.165225	-0.216494	0.388472
O10	O	1.665225	0.283506	0.888472
O11	O	1.345495	-0.244110	0.338958
O12	O	1.845495	0.255890	0.838958
O13	O	1.214679	-0.116070	0.438022
O14	O	1.714679	0.383930	0.938022
O15	O	1.115778	-0.188922	0.208240
O16	O	1.615778	0.311078	0.708240
O17	O	1.345425	-0.188914	0.438013
O18	O	1.845425	0.311086	0.938013
O19	O	1.214842	-0.244115	0.208234
O20	O	1.714842	0.255885	0.708234
O21	O	1.115685	-0.116074	0.338974
O22	O	1.615685	0.383926	0.838974
O23	O	0.985002	-0.188891	0.338945
O24	O	1.485002	0.311109	0.838945
O25	O	1.115725	-0.316904	0.437962
O26	O	1.615725	0.183096	0.937962
O27	O	0.984979	-0.244060	0.437971
O28	O	1.484979	0.255940	0.937971
O29	O	1.214811	-0.316927	0.338929
O30	O	1.714811	0.183073	0.838929
O31	O	1.214649	-0.188883	0.568718
O32	O	1.714649	0.311117	1.068718
O33	O	1.115632	-0.244055	0.568695
O34	O	1.615632	0.255945	1.068695
C35	C	0.955734	-0.216473	0.388456
C36	C	1.455734	0.283527	0.888456
C37	C	0.866113	-0.216474	0.388469
C38	C	1.366113	0.283526	0.888469
C39	C	0.793331	-0.216480	0.388470
C40	C	1.293331	0.283520	0.888470
C41	C	0.702022	-0.216491	0.388475
C42	C	1.202022	0.283509	0.888475
C43	C	0.629246	-0.216502	0.388482
C44	C	1.129246	0.283498	0.888482
C45	C	0.537932	-0.216513	0.388488
C46	C	1.037932	0.283487	0.888488
C47	C	1.165275	-0.333672	0.388441
C48	C	1.665275	0.166328	0.888441
C49	C	1.165296	-0.383607	0.388428
C50	C	1.665296	0.116393	0.888428
C51	C	1.113766	-0.693255	0.336773
C52	C	1.613766	-0.193255	0.836773
C53	C	1.113789	-0.880928	0.336717
C54	C	1.613789	-0.380928	0.836717
O55	O	1.069936	-0.905197	0.292878
O56	O	1.569936	-0.405197	0.792878
N57	N	1.165335	-0.904392	0.388276
N58	N	1.665335	-0.404392	0.888276
C59	C	1.216874	-0.880935	0.439857
C60	C	1.716874	-0.380935	0.939857
O61	O	1.260711	-0.905199	0.483717
O62	O	1.760711	-0.405199	0.983717
C63	C	1.216847	-0.693262	0.439917
C64	C	1.716847	-0.193262	0.939917
C65	C	1.165304	-0.669801	0.388348
C66	C	1.665304	-0.169801	0.888348
C67	C	1.062227	-0.669793	0.285209
C68	C	1.562227	-0.169793	0.785209
C69	C	1.062225	-0.622878	0.285220
C70	C	1.562225	-0.122878	0.785220
C71	C	1.113762	-0.599424	0.336795
C72	C	1.613762	-0.099424	0.836795
C73	C	1.165302	-0.622885	0.388359
C74	C	1.665302	-0.122885	0.888359
C75	C	1.268382	-0.669806	0.491501
C76	C	1.768382	-0.169806	0.991501
C77	C	1.268369	-0.622885	0.491513
C78	C	1.768369	-0.122885	0.991513
C79	C	1.216826	-0.599424	0.439944
C80	C	1.716826	-0.099424	0.939944
C81	C	1.216837	-0.552516	0.439946
C82	C	1.716837	-0.052516	0.939946
N83	N	1.165292	-0.529052	0.388387
N84	N	1.665292	-0.029052	0.888387
C85	C	1.113754	-0.552506	0.336811
C86	C	1.613754	-0.052506	0.836811
C87	C	1.216886	-0.979465	0.439821
C88	C	1.716886	-0.479465	0.939821
C89	C	1.216894	-1.026383	0.439806
C90	C	1.716894	-0.526383	0.939806
C91	C	1.113808	-1.026373	0.336666
C92	C	1.613808	-0.526373	0.836666
C93	C	1.113804	-0.979454	0.336678
C94	C	1.613804	-0.479454	0.836678
C95	C	1.165341	-0.956001	0.388262
C96	C	1.665341	-0.456001	0.888262
C97	C	1.113754	-0.453980	0.336839
C98	C	1.613754	0.046020	0.836839
C99	C	1.113759	-0.407060	0.336852
C100	C	1.613759	0.092940	0.836852
C101	C	1.216842	-0.407075	0.439995
C102	C	1.716842	0.092925	0.939995
C103	C	1.216841	-0.453990	0.439978
C104	C	1.716841	0.046010	0.939978
C105	C	1.165290	-0.477442	0.388398
C106	C	1.665290	0.022558	0.888398
O107	O	1.260661	-0.528218	0.483768
O108	O	1.760661	-0.028218	0.983768
O109	O	1.069911	-0.528234	0.292971
O110	O	1.569911	-0.028234	0.792971
C111	C	1.113768	-0.740170	0.336761
C112	C	1.613768	-0.240170	0.836761
C113	C	1.165308	-0.763632	0.388325
C114	C	1.665308	-0.263632	0.888325
C115	C	1.216845	-0.740178	0.439901
C116	C	1.716845	-0.240178	0.939901
C117	C	1.165316	-0.810550	0.388309
C118	C	1.665316	-0.310550	0.888309
C119	C	1.113779	-0.834004	0.336734
C120	C	1.613779	-0.334004	0.836734
C121	C	1.062233	-0.810539	0.285174
C122	C	1.562233	-0.310539	0.785174
C123	C	1.062231	-0.763624	0.285186
C124	C	1.562231	-0.263624	0.785186
C125	C	1.268391	-0.763642	0.491460
C126	C	1.768391	-0.263642	0.991460
C127	C	1.268389	-0.810557	0.491444
C128	C	1.768389	-0.310557	0.991444
C129	C	1.216852	-0.834011	0.439869
C130	C	1.716852	-0.334011	0.939869
C131	C	1.375534	-0.216515	0.388488
C132	C	1.875534	0.283485	0.888488
C133	C	1.465155	-0.216524	0.388495
C134	C	1.965155	0.283476	0.888495
C135	C	1.165149	-0.216475	0.597963
C136	C	1.665149	0.283525	1.097963
C137	C	1.165190	-0.216482	0.687584
C138	C	1.665190	0.283518	1.187584
C139	C	1.165222	-0.099771	0.388444
C140	C	1.665222	0.400229	0.888444
C141	C	1.165357	-0.049837	0.388230
C142	C	1.665357	0.450163	0.888230
C143	C	1.165324	-0.216522	0.178163
C144	C	1.665324	0.283478	0.678163
C145	C	1.165366	-0.216535	0.088542
C146	C	1.665366	0.283465	0.588542
C147	C	1.165331	-0.216529	1.015759
C148	C	1.665331	0.283471	1.515759
C149	C	1.165289	-0.216517	0.924451
C150	C	1.665289	0.283483	1.424451
C151	C	1.165260	-0.216505	0.851674
C152	C	1.665260	0.283495	1.351674
C153	C	1.165219	-0.216494	0.760360
C154	C	1.665219	0.283506	1.260360
H155	H	1.071787	-0.387960	0.294855
H156	H	1.571787	0.112040	0.794855
F157	F	1.271763	-1.051348	0.494683
F158	F	1.771763	-0.551348	0.994683
F159	F	1.323248	-0.738687	0.546356
F160	F	1.823248	-0.238687	1.046356
H161	H	1.310342	-0.603792	0.533515
H162	H	1.810342	-0.103792	1.033515
F163	F	1.271711	-0.478961	0.494851
F164	F	1.771711	0.021039	0.994851
H165	H	1.071778	-0.473069	0.294836
H166	H	1.571778	0.026931	0.794836
H167	H	1.020273	-0.829644	0.243177
H168	H	1.520273	-0.329644	0.743177
F169	F	1.007371	-0.738660	0.230299
F170	F	1.507371	-0.238660	0.730299
H171	H	1.020255	-0.688884	0.243209
H172	H	1.520255	-0.188884	0.743209
F173	F	1.271693	-0.382105	0.494878
F174	F	1.771693	0.117895	0.994878
F175	F	1.323237	-0.694766	0.546394
F176	F	1.823237	-0.194766	1.046394
F177	F	1.323255	-0.835522	0.546332
F178	F	1.823255	-0.335522	1.046332
H179	H	1.020250	-0.603779	0.243231
H180	H	1.520250	-0.103779	0.743231
F181	F	1.058945	-0.954489	0.281793
F182	F	1.558945	-0.454489	0.781793
H183	H	1.071846	-1.045477	0.294669
H184	H	1.571846	-0.545477	0.794669
F185	F	1.271745	-0.954511	0.494725
F186	F	1.771745	-0.454511	0.994725
