data_functionalizedCrystal
_audit_creation_method	'MofGen! by Chris Wilmer'
_symmetry_space_group_name_H-M	'P1'
_symmetry_Int_Tables_number	1
_symmetry_cell_setting	triclinic
loop_
_symmetry_equiv_pos_as_xyz
  x,y,z
_cell_length_a	13.635800
_cell_length_b	13.563541
_cell_length_c	11.168136
_cell_angle_alpha	72.258758
_cell_angle_beta	71.491317
_cell_angle_gamma	104.704624
loop_
_atom_site_label
_atom_site_type_symbol
_atom_site_fract_x
_atom_site_fract_y
_atom_site_fract_z
V1	V	-2.062219	-0.153634	0.447228
O2	O	-2.034384	0.007366	0.383638
O3	O	-2.057516	-0.304614	0.497139
O4	O	-2.050253	-0.151278	0.618113
O5	O	-2.041697	-0.147032	0.261827
V6	V	-2.299922	-0.134376	0.418618
O7	O	-2.201752	-0.195879	0.509987
O8	O	-2.385487	-0.092131	0.355859
O9	O	-2.193022	0.016604	0.368706
O10	O	-2.386455	-0.295376	0.482207
O11	O	-2.379142	-0.140978	0.604018
O12	O	-2.200285	-0.136732	0.247733
C13	C	-1.984363	-0.341420	0.503752
C14	C	-2.021242	-0.464848	0.545699
V15	V	-1.562219	-0.153634	0.447228
O16	O	-1.534384	0.007366	0.383638
O17	O	-1.557516	-0.304614	0.497139
O18	O	-1.550253	-0.151278	0.618113
O19	O	-1.541697	-0.147032	0.261827
V20	V	-1.799922	-0.134376	0.418618
O21	O	-1.701752	-0.195879	0.509987
O22	O	-1.885487	-0.092131	0.355859
O23	O	-1.693022	0.016604	0.368706
O24	O	-1.886455	-0.295376	0.482207
O25	O	-1.879142	-0.140978	0.604018
O26	O	-1.700285	-0.136732	0.247733
C27	C	-2.002615	-0.749323	0.179280
C28	C	-1.967957	-0.633356	0.139866
C29	C	-1.981277	-0.591223	0.241321
C30	C	-2.029257	-0.665069	0.382197
C31	C	-2.063910	-0.781048	0.421615
C32	C	-2.042572	-0.622947	0.483655
C33	C	-2.090552	-0.696794	0.624532
C34	C	-2.125201	-0.812761	0.663943
C35	C	-2.111882	-0.854894	0.562488
C36	C	-2.007919	-0.506969	0.444237
C37	C	-2.069214	-0.538693	0.686572
C38	C	-2.103872	-0.654661	0.725987
C39	C	-1.975098	-0.145823	0.658064
C40	C	-2.006085	-0.144896	0.798111
C41	C	-2.097846	0.053404	0.362092
C42	C	-2.050587	0.176831	0.320153
C43	C	-2.107111	-0.142190	0.207776
C44	C	-2.065742	-0.143112	0.067726
C45	C	-1.484363	-0.341420	0.503752
C46	C	-1.521242	-0.464848	0.545699
C47	C	-1.475098	-0.145823	0.658064
C48	C	-1.506085	-0.144896	0.798111
C49	C	-2.107569	-0.149749	0.868494
C50	C	-2.139598	-0.148791	1.013241
C51	C	-1.597846	0.053404	0.362092
C52	C	-1.550587	0.176831	0.320153
C53	C	-1.607111	-0.142190	0.207776
C54	C	-1.565742	-0.143112	0.067726
C55	C	-1.630828	-0.528473	0.573680
C56	C	-1.665499	-0.644450	0.613114
C57	C	-1.590581	-0.696799	0.624558
C58	C	-1.480986	-0.633166	0.596578
C59	C	-1.446319	-0.517192	0.557154
C60	C	-1.613495	0.240455	0.292177
C61	C	-1.569096	0.356431	0.252748
C62	C	-1.461792	0.408780	0.241307
C63	C	-1.398879	0.345148	0.269284
C64	C	-1.443275	0.229175	0.308701
C65	C	-1.607569	-0.149749	0.868494
C66	C	-1.639598	-0.148791	1.013241
H67	H	-1.953052	-0.496796	0.209220
H68	H	-1.754739	-0.696244	0.635887
H69	H	-2.170739	-0.154605	0.821587
H70	H	-1.928896	-0.573238	0.025164
H71	H	-1.419995	-0.675807	0.605902
H72	H	-1.478805	-0.138964	1.007240
H73	H	-1.942910	-0.140025	0.845010
H74	H	-1.991769	-0.783640	0.096691
H75	H	-1.691844	-0.485865	0.564360
N76	N	-1.729429	0.183935	0.305106
H77	H	-1.748090	0.100783	0.334527
H78	H	-1.785971	0.196053	0.377158
H79	H	-1.442910	-0.140025	0.845010
H80	H	-1.968853	-0.446854	0.329535
H81	H	-1.618823	-0.791233	0.656661
H82	H	-2.140106	-0.949323	0.594573
H83	H	-1.620339	0.408225	0.229977
N84	N	-2.176935	-0.892411	0.815883
H85	H	-2.180117	-0.848127	0.874176
H86	H	-2.255387	-0.945066	0.843138
H87	H	-1.357082	-0.465396	0.534367
N88	N	-1.950576	-0.137609	0.987618
H89	H	-1.958039	-0.206873	0.969004
H90	H	-1.910895	-0.068536	0.896346
H91	H	-2.142940	-0.714803	0.840691
H92	H	-1.425655	0.503214	0.209209
H93	H	-1.311508	0.387789	0.259961
H94	H	-2.080059	-0.504390	0.769186
H95	H	-1.392043	0.177379	0.331490
N96	N	-2.254763	-0.154302	1.093366
H97	H	-2.261319	-0.152838	1.185411
H98	H	-2.266393	-0.087725	1.037725
H99	H	-1.670739	-0.154605	0.821587
H100	H	-1.726537	-0.152951	1.073741
