data_functionalizedCrystal
_audit_creation_method	'MofGen! by Chris Wilmer'
_symmetry_space_group_name_H-M	'P1'
_symmetry_Int_Tables_number	1
_symmetry_cell_setting	triclinic
loop_
_symmetry_equiv_pos_as_xyz
  x,y,z
_cell_length_a	10.654553
_cell_length_b	10.540535
_cell_length_c	9.730223
_cell_angle_alpha	89.997287
_cell_angle_beta	89.999314
_cell_angle_gamma	84.504910
loop_
_atom_site_label
_atom_site_type_symbol
_atom_site_fract_x
_atom_site_fract_y
_atom_site_fract_z
O1	O	1.667892	0.178314	-0.114310
O2	O	1.302419	0.195297	-0.114310
O3	O	1.493496	0.002096	-0.114296
O4	O	1.476814	0.371516	-0.114324
O5	O	1.493494	0.002101	0.114284
O6	O	1.302417	0.195302	0.114270
O7	O	1.667889	0.178319	0.114270
Zn8	Zn	1.485153	0.186812	0.150562
Zn9	Zn	1.485156	0.186805	-0.150602
O10	O	1.476812	0.371521	0.114256
C11	C	1.255620	0.194052	-0.000020
C12	C	1.116176	0.190319	-0.000019
C13	C	0.919632	0.185052	0.124571
C14	C	1.050654	0.188567	0.124578
C15	C	1.050667	0.188569	-0.124632
C16	C	0.919646	0.185063	-0.124638
C17	C	0.919627	0.185045	0.268450
C18	C	1.050649	0.188560	0.268458
C19	C	1.492245	-0.045204	-0.000006
C20	C	1.488506	-0.186151	-0.000004
C21	C	1.348997	-0.222773	-0.000013
C22	C	1.345062	-0.369372	-0.000557
C23	C	1.552191	-0.395501	-0.130311
C24	C	1.555160	-0.248737	-0.130396
C25	C	1.557187	-0.248870	0.129551
C26	C	1.550735	-0.395214	0.131239
C27	C	1.714689	0.179564	-0.000023
C28	C	1.854133	0.183298	-0.000033
C29	C	1.478063	0.418821	-0.000038
C30	C	1.481802	0.559768	-0.000048
N31	N	1.485160	0.186815	0.356098
N32	N	1.485158	0.186791	-0.356138
C33	C	1.569791	0.101295	0.428030
C34	C	1.569788	0.101279	0.571913
C35	C	1.400518	0.272316	0.571919
C36	C	1.400517	0.272324	0.428039
C37	C	1.667521	0.002552	0.428028
C38	C	1.667518	0.002536	0.571911
H39	H	0.873372	0.272772	0.323689
H40	H	1.096903	0.100828	0.323701
H41	H	1.331593	0.341950	0.369473
H42	H	1.104023	0.190008	-0.226082
H43	H	1.507626	-0.208542	-0.228144
N44	N	0.882497	0.068893	0.324451
N45	N	0.964256	-0.015157	0.366396
H46	H	0.938034	-0.097193	0.405943
N47	N	1.675944	-0.456751	0.141627
N48	N	1.744713	-0.432141	0.240302
H49	H	1.833146	-0.475606	0.247636
N50	N	1.781933	0.041317	0.372046
N51	N	1.849227	-0.032795	0.296149
H52	H	1.930032	-0.005412	0.256617
H53	H	1.646045	-0.095022	0.388982
H54	H	1.636974	-0.089670	0.616534
N55	N	1.486506	-0.431106	0.252146
N56	N	1.543085	-0.503187	0.338716
H57	H	1.497724	-0.528543	0.424107
N58	N	1.788603	0.029813	0.620888
N59	N	1.873912	0.049053	0.537402
H60	H	1.959427	0.068317	0.571990
N61	N	1.683453	-0.219871	-0.137332
N62	N	1.759429	-0.258149	-0.045012
H63	H	1.850034	-0.237764	-0.049914
N64	N	0.852755	0.183303	-0.251930
N65	N	0.911267	0.184885	-0.363168
H66	H	0.864026	0.183646	-0.453075
N67	N	1.314081	0.359677	0.645406
N68	N	1.316842	0.477034	0.629345
H69	H	1.255793	0.538737	0.681242
N70	N	1.087763	0.304708	0.324482
N71	N	1.059428	0.335290	0.445474
H72	H	1.085637	0.417322	0.485036
N73	N	1.276021	-0.406151	0.116577
N74	N	1.230409	-0.323473	0.199299
H75	H	1.181647	-0.349440	0.282031
H76	H	1.295422	-0.180790	0.093392
H77	H	1.290290	-0.397800	-0.094495
N78	N	1.282934	-0.168230	-0.117041
N79	N	1.321305	-0.196855	-0.235469
H80	H	1.274655	-0.158331	-0.318123
N81	N	1.678493	-0.454953	-0.135919
N82	N	1.718130	-0.531139	-0.043753
H83	H	1.807331	-0.573129	-0.047709
H84	H	1.503900	-0.426378	-0.227632
N85	N	1.502547	-0.195617	0.253459
N86	N	1.388666	-0.204180	0.278868
H87	H	1.350061	-0.166572	0.366374
N88	N	1.685949	-0.221077	0.131124
N89	N	1.727103	-0.155385	0.037345
H90	H	1.818038	-0.135750	0.038444
