data_functionalizedCrystal
_audit_creation_method	'MofGen! by Chris Wilmer'
_symmetry_space_group_name_H-M	'P1'
_symmetry_Int_Tables_number	1
_symmetry_cell_setting	triclinic
loop_
_symmetry_equiv_pos_as_xyz
  x,y,z
_cell_length_a	12.827893
_cell_length_b	12.645330
_cell_length_c	12.827885
_cell_angle_alpha	89.971022
_cell_angle_beta	89.980728
_cell_angle_gamma	90.017662
loop_
_atom_site_label
_atom_site_type_symbol
_atom_site_fract_x
_atom_site_fract_y
_atom_site_fract_z
Zn1	Zn	1.597653	-0.421989	-0.590855
Zn2	Zn	2.097653	0.078011	-0.090855
Zn3	Zn	1.597540	-0.599290	-0.416117
Zn4	Zn	2.097540	-0.099290	0.083883
Zn5	Zn	1.422894	-0.422040	-0.416128
Zn6	Zn	1.922894	0.077960	0.083872
Zn7	Zn	1.422873	-0.599211	-0.590817
Zn8	Zn	1.922873	-0.099211	-0.090817
O9	O	1.510240	-0.510632	-0.503479
O10	O	2.010240	-0.010632	-0.003479
O11	O	1.743874	-0.445520	-0.567686
O12	O	2.243874	0.054480	-0.067686
O13	O	1.574335	-0.575832	-0.269883
O14	O	2.074335	-0.075832	0.230117
O15	O	1.446133	-0.273686	-0.439326
O16	O	1.946133	0.226314	0.060674
O17	O	1.743791	-0.575782	-0.439308
O18	O	2.243791	-0.075782	0.060692
O19	O	1.574527	-0.273648	-0.567697
O20	O	2.074527	0.226352	-0.067697
O21	O	1.446023	-0.445608	-0.269891
O22	O	1.946023	0.054392	0.230109
O23	O	1.276655	-0.445531	-0.439290
O24	O	1.776655	0.054469	0.060710
O25	O	1.446096	-0.575647	-0.737058
O26	O	1.946096	-0.075647	-0.237058
O27	O	1.276639	-0.575697	-0.567633
O28	O	1.776639	-0.075697	-0.067633
O29	O	1.574506	-0.445443	-0.737086
O30	O	2.074506	0.054557	-0.237086
O31	O	1.574314	-0.747626	-0.439271
O32	O	2.074314	-0.247626	0.060729
O33	O	1.445986	-0.747568	-0.567623
O34	O	1.945986	-0.247568	-0.067623
C35	C	1.238730	-0.510612	-0.503459
C36	C	1.738730	-0.010612	-0.003459
C37	C	1.122577	-0.510629	-0.503476
C38	C	1.622577	-0.010629	-0.003476
C39	C	1.070812	-0.575140	-0.566886
C40	C	1.570812	-0.075140	-0.066886
C41	C	0.950762	-0.575159	-0.566904
C42	C	1.450762	-0.075159	-0.066904
C43	C	1.510164	-0.786062	-0.503465
C44	C	2.010164	-0.286062	-0.003465
C45	C	1.510227	-0.903892	-0.503493
C46	C	2.010227	-0.403892	-0.003493
C47	C	1.429829	-1.071464	-0.584488
C48	C	1.929829	-0.571464	-0.084488
C49	C	1.429418	-0.948904	-0.584228
C50	C	1.929418	-0.448904	-0.084228
C51	C	1.480414	-0.948494	-0.393362
C52	C	1.980414	-0.448494	0.106638
C53	C	1.479923	-1.071093	-0.393854
C54	C	1.979923	-0.571093	0.106146
C55	C	1.620929	-1.070979	-0.531736
C56	C	2.120929	-0.570979	-0.031736
C57	C	1.620251	-0.948372	-0.534144
C58	C	2.120251	-0.448372	-0.034144
C59	C	1.782810	-0.510654	-0.503500
C60	C	2.282810	-0.010654	-0.003500
C61	C	1.898963	-0.510663	-0.503509
C62	C	2.398963	-0.010663	-0.003509
C63	C	1.510311	-0.510531	-0.776050
C64	C	2.010311	-0.010531	-0.276050
C65	C	1.510341	-0.510487	-0.892203
C66	C	2.010341	-0.010487	-0.392203
C67	C	1.510345	-0.234127	-0.503517
C68	C	2.010345	0.265873	-0.003517
C69	C	1.510390	-0.116297	-0.503533
C70	C	2.010390	0.383703	-0.003533
C71	C	1.573890	-0.446045	-0.944001
C72	C	2.073890	0.053955	-0.444001
C73	C	1.573923	-0.445999	-1.064052
C74	C	2.073923	0.054001	-0.564052
C75	C	1.510229	-0.510657	-0.231969
C76	C	2.010229	-0.010657	0.268031
C77	C	1.510401	-0.510402	-0.115817
C78	C	2.010401	-0.010402	0.384183
H79	H	0.943473	-0.455433	-0.449214
H80	H	1.443473	0.044567	0.050786
H81	H	1.628268	-0.390905	-0.899471
H82	H	2.128268	0.109095	-0.399471
H83	H	1.115371	-0.630352	-0.621164
H84	H	1.615371	-0.130352	-0.121164
N85	N	1.063567	-0.437492	-0.431570
N86	N	1.563567	0.062508	0.068430
H87	H	1.018304	-0.388464	-0.474161
H88	H	1.518304	0.111536	0.025839
H89	H	1.018315	-0.480650	-0.383138
H90	H	1.518315	0.019350	0.116862
H91	H	1.455996	-0.565580	-1.071278
H92	H	1.955996	-0.065580	-0.571278
H93	H	1.628332	-0.390832	-1.108597
H94	H	2.128332	0.109168	-0.608597
N95	N	1.372887	-1.109107	-0.362220
N96	N	1.872887	-0.609107	0.137780
H97	H	1.371496	-1.188966	-0.362225
H98	H	1.871496	-0.688966	0.137775
H99	H	1.356091	-1.082196	-0.290030
H100	H	1.856091	-0.582196	0.209970
N101	N	1.656971	-1.111852	-0.636287
N102	N	2.156971	-0.611852	-0.136287
H103	H	1.728038	-1.081805	-0.652840
H104	H	2.228038	-0.581805	-0.152840
H105	H	1.661114	-1.191576	-0.634013
H106	H	2.161114	-0.691576	-0.134013
N107	N	1.454116	-0.908943	-0.692395
N108	N	1.954116	-0.408943	-0.192395
H109	H	1.465370	-0.970968	-0.740676
H110	H	1.965370	-0.470968	-0.240676
H111	H	1.394088	-0.864732	-0.718746
H112	H	1.894088	-0.364732	-0.218746
N113	N	1.703945	-0.907799	-0.461718
N114	N	2.203945	-0.407799	0.038282
H115	H	1.773689	-0.937684	-0.483309
H116	H	2.273689	-0.437684	0.016691
H117	H	1.706394	-0.828054	-0.465375
H118	H	2.206394	-0.328054	0.034625
H119	H	1.455953	-0.565617	-0.936733
H120	H	1.955953	-0.065617	-0.436733
N121	N	1.454293	-1.110417	-0.693017
N122	N	1.954293	-0.610417	-0.193017
H123	H	1.517834	-1.157507	-0.690764
H124	H	2.017834	-0.657507	-0.190764
H125	H	1.392941	-1.151774	-0.720796
H126	H	1.892941	-0.651774	-0.220796
N127	N	1.554253	-1.110411	-0.311229
N128	N	2.054253	-0.610411	0.188771
H129	H	1.626815	-1.083632	-0.326700
H130	H	2.126815	-0.583632	0.173300
H131	H	1.531147	-1.083654	-0.240746
H132	H	2.031147	-0.583654	0.259254
H133	H	0.906245	-0.630392	-0.621189
H134	H	1.406245	-0.130392	-0.121189
N135	N	1.321953	-1.112388	-0.560063
N136	N	1.821953	-0.612388	-0.060063
H137	H	1.325040	-1.159843	-0.496786
H138	H	1.825040	-0.659843	0.003214
H139	H	1.273963	-1.050827	-0.545547
H140	H	1.773963	-0.550827	-0.045547
H141	H	1.537231	-0.919340	-0.331396
H142	H	2.037231	-0.419340	0.168604
H143	H	1.347469	-0.919671	-0.565543
H144	H	1.847469	-0.419671	-0.065543
N145	N	1.374498	-0.907953	-0.361130
N146	N	1.874498	-0.407953	0.138870
H147	H	1.345675	-0.860708	-0.417699
H148	H	1.845675	-0.360708	0.082301
H149	H	1.325824	-0.969697	-0.349819
H150	H	1.825824	-0.469697	0.150181
H151	H	1.642733	-0.919216	-0.615195
H152	H	2.142733	-0.419216	-0.115195
H153	H	1.680949	-1.099972	-0.472773
H154	H	2.180949	-0.599972	0.027227
