data_functionalizedCrystal
_audit_creation_method	'MofGen! by Chris Wilmer'
_symmetry_space_group_name_H-M	'P1'
_symmetry_Int_Tables_number	1
_symmetry_cell_setting	triclinic
loop_
_symmetry_equiv_pos_as_xyz
  x,y,z
_cell_length_a	19.188930
_cell_length_b	16.974800
_cell_length_c	17.666332
_cell_angle_alpha	93.650238
_cell_angle_beta	89.993235
_cell_angle_gamma	83.267966
loop_
_atom_site_label
_atom_site_type_symbol
_atom_site_fract_x
_atom_site_fract_y
_atom_site_fract_z
O1	O	0.088938	1.048841	0.001320
O2	O	0.422272	1.382174	0.334653
O3	O	0.755605	1.715507	0.667987
O4	O	0.100283	0.818595	-0.012793
O5	O	0.433616	1.151929	0.320540
O6	O	0.766950	1.485262	0.653874
O7	O	-0.007034	0.940362	-0.005314
O8	O	0.326300	1.273696	0.328019
O9	O	0.659633	1.607029	0.661352
O10	O	0.196255	0.927074	-0.006159
O11	O	0.529589	1.260407	0.327175
O12	O	0.862922	1.593740	0.660508
O13	O	-0.007030	0.940346	0.120581
O14	O	0.326303	1.273680	0.453915
O15	O	0.659637	1.607013	0.787248
O16	O	0.100287	0.818579	0.113103
O17	O	0.433620	1.151913	0.446436
O18	O	0.766953	1.485246	0.779769
O19	O	0.088942	1.048825	0.127216
O20	O	0.422275	1.382158	0.460549
O21	O	0.755609	1.715491	0.793882
Cu22	Cu	0.094615	0.933700	0.131654
Cu23	Cu	0.427948	1.267034	0.464988
Cu24	Cu	0.761281	1.600367	0.798321
Cu25	Cu	0.094610	0.933720	-0.017232
Cu26	Cu	0.427944	1.267053	0.316102
Cu27	Cu	0.761277	1.600386	0.649435
O28	O	0.196259	0.927058	0.119737
O29	O	0.529592	1.260391	0.453070
O30	O	0.862925	1.593724	0.786404
C31	C	0.099855	0.789130	0.048350
C32	C	0.433188	1.122464	0.381683
C33	C	0.766522	1.455797	0.715016
C34	C	0.098566	0.701358	0.042970
C35	C	0.431899	1.034692	0.376304
C36	C	0.765233	1.368025	0.709637
C37	C	0.097961	0.660119	0.109070
C38	C	0.431294	0.993452	0.442404
C39	C	0.764627	1.326785	0.775737
C40	C	0.096738	0.577649	0.104018
C41	C	0.430071	0.910983	0.437352
C42	C	0.763405	1.244316	0.770685
C43	C	0.096126	0.536420	0.032865
C44	C	0.429459	0.869753	0.366198
C45	C	0.762793	1.203087	0.699532
C46	C	0.096729	0.577666	-0.033240
C47	C	0.430063	0.910999	0.300093
C48	C	0.763396	1.244332	0.633426
C49	C	0.097947	0.660134	-0.028187
C50	C	0.431280	0.993468	0.305146
C51	C	0.764614	1.326801	0.638479
C52	C	0.092480	0.289776	0.010394
C53	C	0.425813	0.623109	0.343727
C54	C	0.759147	0.956443	0.677060
C55	C	0.091265	0.207301	0.005346
C56	C	0.424598	0.540635	0.338679
C57	C	0.757931	0.873968	0.672012
C58	C	0.091272	0.207291	0.142605
C59	C	0.424605	0.540624	0.475938
C60	C	0.757939	0.873957	0.809271
C61	C	0.092494	0.289761	0.147651
C62	C	0.425827	0.623094	0.480985
C63	C	0.759160	0.956427	0.814318
C64	C	0.093093	0.330999	0.081546
C65	C	0.426427	0.664333	0.414880
C66	C	0.759760	0.997666	0.748213
N67	N	0.094879	0.452123	0.027699
N68	N	0.428212	0.785456	0.361032
N69	N	0.761545	1.118789	0.694366
N70	N	0.094336	0.415296	0.086713
N71	N	0.427669	0.748630	0.420046
N72	N	0.761002	1.081963	0.753380
C73	C	-0.033044	0.939924	0.057609
C74	C	0.300290	1.273257	0.390943
C75	C	0.633623	1.606591	0.724276
C76	C	-0.110550	0.938632	0.057537
C77	C	0.222783	1.271966	0.390870
C78	C	0.556116	1.605299	0.724203
C79	C	-0.155353	1.010081	0.061920
C80	C	0.177980	1.343415	0.395253
C81	C	0.511313	1.676748	0.728586
C82	C	-0.228179	1.008868	0.061833
C83	C	0.105154	1.342201	0.395166
C84	C	0.438487	1.675534	0.728500
C85	C	-0.256199	0.936201	0.057378
C86	C	0.077135	1.269534	0.390712
C87	C	0.410468	1.602868	0.724045
C88	C	-0.211386	0.864743	0.052990
C89	C	0.121948	1.198076	0.386324
C90	C	0.455281	1.531409	0.719657
C91	C	-0.138562	0.865958	0.053070
C92	C	0.194772	1.199292	0.386403
C93	C	0.528105	1.532625	0.719736
N94	N	-0.364296	0.880650	0.096819
N95	N	-0.030963	1.213984	0.430152
N96	N	0.302370	1.547317	0.763485
N97	N	-0.433477	0.879500	0.096745
N98	N	-0.100144	1.212834	0.430079
N99	N	0.233190	1.546167	0.763412
C100	C	-0.475614	0.932534	0.057138
C101	C	-0.142280	1.265867	0.390472
C102	C	0.191053	1.599200	0.723805
N103	N	-0.445958	0.986773	0.017618
N104	N	-0.112624	1.320106	0.350951
N105	N	0.220709	1.653439	0.684284
N106	N	-0.376771	0.987925	0.017694
N107	N	-0.043438	1.321258	0.351028
N108	N	0.289896	1.654592	0.684361
C109	C	-0.335163	0.934875	0.057292
C110	C	-0.001830	1.268208	0.390625
C111	C	0.331503	1.601541	0.723958
C112	C	-0.599383	1.002672	0.061427
C113	C	-0.266050	1.336005	0.394760
C114	C	0.067283	1.669338	0.728094
C115	C	-0.672210	1.001455	0.061335
C116	C	-0.338877	1.334788	0.394669
C117	C	-0.005544	1.668122	0.728002
C118	C	-0.655415	0.857328	0.052500
C119	C	-0.322082	1.190661	0.385834
C120	C	0.011252	1.523995	0.719167
C121	C	-0.582590	0.858547	0.052584
C122	C	-0.249257	1.191880	0.385918
C123	C	0.084077	1.525213	0.719251
C124	C	-0.554579	0.931221	0.057051
C125	C	-0.221245	1.264554	0.390385
C126	C	0.112088	1.597887	0.723718
C127	C	0.222269	0.927496	0.056812
C128	C	0.555602	1.260829	0.390145
C129	C	0.888935	1.594163	0.723478
C130	C	0.299775	0.928788	0.056879
C131	C	0.633109	1.262121	0.390213
C132	C	0.966442	1.595454	0.723546
C133	C	0.089370	1.078290	0.066071
C134	C	0.422703	1.411623	0.399405
C135	C	0.756037	1.744956	0.732738
C136	C	0.090659	1.166062	0.071446
C137	C	0.423992	1.499395	0.404779
C138	C	0.757326	1.832728	0.738113
N139	N	0.094617	0.933693	0.236373
N140	N	0.427950	1.267026	0.569707
N141	N	0.761284	1.600359	0.903040
N142	N	0.094602	0.933733	-0.121950
N143	N	0.427936	1.267067	0.211383
N144	N	0.761269	1.600400	0.544716
C145	C	0.136919	0.981540	0.841349
C146	C	0.470252	1.314874	1.174682
C147	C	0.803586	1.648207	1.508016
C148	C	0.136926	0.981532	0.762101
C149	C	0.470259	1.314866	1.095434
C150	C	0.803592	1.648199	1.428768
C151	C	0.094603	0.933727	0.719557
C152	C	0.427937	1.267060	1.052890
C153	C	0.761270	1.600394	1.386224
C154	C	0.052284	0.885911	0.756267
C155	C	0.385617	1.219244	1.089600
C156	C	0.718951	1.552577	1.422933
C157	C	0.052284	0.885914	0.835513
C158	C	0.385617	1.219247	1.168846
C159	C	0.718950	1.552580	1.502179
N160	N	0.033440	0.931812	0.595024
N161	N	0.366773	1.265146	0.928357
N162	N	0.700106	1.598479	1.261691
N163	N	0.033442	0.931814	0.519744
N164	N	0.366775	1.265147	0.853077
N165	N	0.700108	1.598480	1.186410
C166	C	0.094603	0.933713	0.480792
C167	C	0.427937	1.267046	0.814125
C168	C	0.761270	1.600379	1.147459
N169	N	0.155763	0.935626	0.519966
N170	N	0.489096	1.268959	0.853299
N171	N	0.822430	1.602292	1.186633
N172	N	0.155760	0.935629	0.595253
N173	N	0.489093	1.268962	0.928587
N174	N	0.822426	1.602295	1.261920
C175	C	0.094599	0.933718	0.633627
C176	C	0.427933	1.267051	0.966961
C177	C	0.761266	1.600384	1.300294
C178	C	0.136931	0.981513	0.358162
C179	C	0.470264	1.314847	0.691495
C180	C	0.803597	1.648180	1.024829
C181	C	0.136939	0.981500	0.278912
C182	C	0.470273	1.314833	0.612245
C183	C	0.803606	1.648166	0.945579
C184	C	0.052291	0.885883	0.273079
C185	C	0.385624	1.219216	0.606413
C186	C	0.718958	1.552549	0.939746
C187	C	0.052289	0.885892	0.352327
C188	C	0.385623	1.219225	0.685661
C189	C	0.718956	1.552558	1.018994
C190	C	0.094608	0.933711	0.394864
C191	C	0.427941	1.267045	0.728198
C192	C	0.761275	1.600378	1.061531
H193	H	0.096233	0.544077	0.157844
H194	H	0.429567	0.877411	0.491178
H195	H	0.762900	1.210744	0.824511
Cl196	Cl	0.190116	1.041650	0.715954
Cl197	Cl	0.523450	1.374983	1.049287
Cl198	Cl	0.856783	1.708316	1.382620
H199	H	0.017826	0.846985	0.721622
H200	H	0.351160	1.180319	1.054955
H201	H	0.684493	1.513652	1.388289
Cl202	Cl	-0.690633	0.765974	0.046896
Cl203	Cl	-0.357299	1.099308	0.380229
Cl204	Cl	-0.023966	1.432641	0.713562
H205	H	0.098465	0.693681	0.167011
H206	H	0.431798	1.027014	0.500345
H207	H	0.765131	1.360348	0.833678
H208	H	0.096226	0.544091	-0.091175
H209	H	0.429560	0.877424	0.242158
H210	H	0.762893	1.210758	0.575492
Cl211	Cl	-0.526263	0.768720	0.047077
Cl212	Cl	-0.192929	1.102053	0.380411
Cl213	Cl	0.140404	1.435386	0.713744
Cl214	Cl	0.190158	1.041587	0.232773
Cl215	Cl	0.523491	1.374921	0.566106
Cl216	Cl	0.856825	1.708254	0.899439
H217	H	0.098441	0.693710	-0.082013
H218	H	0.431775	1.027044	0.251320
H219	H	0.765108	1.360377	0.584653
Cl220	Cl	-0.000919	0.825809	0.881653
Cl221	Cl	0.332414	1.159143	1.214986
Cl222	Cl	0.665747	1.492476	1.548320
Cl223	Cl	0.093268	0.341585	0.237105
Cl224	Cl	0.426601	0.674918	0.570438
Cl225	Cl	0.759934	1.008252	0.903772
H226	H	0.171393	1.020447	0.392797
H227	H	0.504726	1.353780	0.726130
H228	H	0.838059	1.687114	1.059464
H229	H	-0.132552	1.069258	0.065554
H230	H	0.200782	1.402591	0.398888
H231	H	0.534115	1.735925	0.732221
H232	H	0.090783	0.173705	0.196424
H233	H	0.424116	0.507039	0.529757
H234	H	0.757449	0.840372	0.863090
H235	H	0.092966	0.323343	-0.043434
H236	H	0.426299	0.656677	0.289899
H237	H	0.759633	0.990010	0.623233
Cl238	Cl	-0.284514	1.098696	0.067343
Cl239	Cl	0.048820	1.432029	0.400676
Cl240	Cl	0.382153	1.765363	0.734010
Cl241	Cl	-0.246609	0.773390	0.047384
Cl242	Cl	0.086724	1.106723	0.380718
Cl243	Cl	0.420057	1.440057	0.714051
H244	H	0.017835	0.846954	0.238441
H245	H	0.351169	1.180287	0.571774
H246	H	0.684502	1.513620	0.905107
Cl247	Cl	0.090497	0.155471	-0.084111
Cl248	Cl	0.423831	0.488804	0.249222
Cl249	Cl	0.757164	0.822137	0.582555
Cl250	Cl	-0.082234	0.776129	0.047559
Cl251	Cl	0.251099	1.109462	0.380893
Cl252	Cl	0.584432	1.442796	0.714226
H253	H	0.017827	0.846966	0.382209
H254	H	0.351161	1.180299	0.715543
H255	H	0.684494	1.513632	1.048876
H256	H	-0.576575	1.061847	0.065061
H257	H	-0.243242	1.395181	0.398394
H258	H	0.090091	1.728514	0.731727
Cl259	Cl	-0.728536	1.091285	0.066841
Cl260	Cl	-0.395203	1.424619	0.400174
Cl261	Cl	-0.061869	1.757952	0.733508
Cl262	Cl	0.190125	1.041650	0.894819
Cl263	Cl	0.523459	1.374983	1.228153
Cl264	Cl	0.856792	1.708316	1.561486
