data_functionalizedCrystal
_audit_creation_method	'MofGen! by Chris Wilmer'
_symmetry_space_group_name_H-M	'P1'
_symmetry_Int_Tables_number	1
_symmetry_cell_setting	triclinic
loop_
_symmetry_equiv_pos_as_xyz
  x,y,z
_cell_length_a	19.188930
_cell_length_b	12.837943
_cell_length_c	11.892095
_cell_angle_alpha	94.310562
_cell_angle_beta	93.870839
_cell_angle_gamma	91.013139
loop_
_atom_site_label
_atom_site_type_symbol
_atom_site_fract_x
_atom_site_fract_y
_atom_site_fract_z
O1	O	0.177430	-1.381278	-0.094009
O2	O	0.677430	-0.881278	0.405991
O3	O	0.168466	-1.079513	-0.094014
O4	O	0.668466	-0.579513	0.405986
O5	O	0.071891	-1.239102	-0.093990
O6	O	0.571891	-0.739102	0.406010
O7	O	0.274006	-1.221689	-0.094034
O8	O	0.774006	-0.721689	0.405966
O9	O	0.079929	-1.225796	0.094016
O10	O	0.579929	-0.725796	0.594016
O11	O	0.176505	-1.066207	0.093991
O12	O	0.676505	-0.566207	0.593991
O13	O	0.185469	-1.367972	0.093996
O14	O	0.685469	-0.867972	0.593996
Zn15	Zn	0.182263	-1.214977	0.123844
Zn16	Zn	0.682263	-0.714977	0.623844
Zn17	Zn	0.171672	-1.232508	-0.123862
Zn18	Zn	0.671672	-0.732508	0.376138
O19	O	0.282044	-1.208383	0.093971
O20	O	0.782044	-0.708383	0.593971
C21	C	0.169458	-1.034253	-0.000012
C22	C	0.669458	-0.534253	0.499988
C23	C	0.160427	-0.919217	-0.000013
C24	C	0.660427	-0.419217	0.499987
C25	C	0.049861	-1.231885	0.000016
C26	C	0.549861	-0.731885	0.500016
C27	C	-0.027760	-1.230191	0.000026
C28	C	0.472240	-0.730191	0.500026
N29	N	0.189491	-1.203020	0.292896
N30	N	0.689491	-0.703020	0.792896
C31	C	-0.066260	-1.323833	0.000033
C32	C	0.433740	-0.823833	0.500033
C33	C	-0.139194	-1.322244	0.000015
C34	C	0.360806	-0.822244	0.500015
C35	C	-0.173623	-1.227006	0.000012
C36	C	0.326377	-0.727006	0.500012
C37	C	-0.135114	-1.133352	-0.000001
C38	C	0.364886	-0.633352	0.499999
C39	C	-0.062182	-1.134944	0.000006
C40	C	0.437818	-0.634944	0.500006
N41	N	-0.283886	-1.149679	0.063993
N42	N	0.216114	-0.649679	0.563993
N43	N	-0.353168	-1.148172	0.063989
N44	N	0.146832	-0.648172	0.563989
C45	C	-0.393362	-1.222201	-0.000010
C46	C	0.106638	-0.722201	0.499990
N47	N	-0.361657	-1.297809	-0.063992
N48	N	0.138343	-0.797809	0.436008
N49	N	-0.292369	-1.299318	-0.063982
N50	N	0.207631	-0.799318	0.436018
C51	C	-0.252705	-1.225268	0.000004
C52	C	0.247295	-0.725268	0.500004
C53	C	-0.510946	-1.314126	-0.000025
C54	C	-0.010946	-0.814126	0.499975
C55	C	-0.583882	-1.312534	-0.000050
C56	C	-0.083882	-0.812534	0.499950
C57	C	-0.579799	-1.123638	-0.000054
C58	C	-0.079799	-0.623638	0.499946
C59	C	-0.506866	-1.125234	-0.000041
C60	C	-0.006866	-0.625234	0.499959
C61	C	-0.472444	-1.220481	-0.000020
C62	C	0.027556	-0.720481	0.499980
C63	C	0.304074	-1.215600	-0.000037
C64	C	0.804074	-0.715600	0.499963
C65	C	0.381694	-1.217294	-0.000054
C66	C	0.881694	-0.717294	0.499946
C67	C	0.184477	-1.413232	-0.000009
C68	C	0.684477	-0.913232	0.499991
C69	C	0.193508	-1.528268	-0.000015
C70	C	0.693508	-1.028268	0.499985
C71	C	0.268994	-0.677767	-0.000021
C72	C	0.768994	-0.177767	0.499979
C73	C	0.260512	-0.569680	-0.000021
C74	C	0.760512	-0.069680	0.499979
C75	C	0.134982	-0.594952	-0.000005
C76	C	0.634982	-0.094952	0.499995
C77	C	0.143464	-0.703040	-0.000005
C78	C	0.643464	-0.203040	0.499995
C79	C	0.210472	-0.744443	-0.000015
C80	C	0.710472	-0.244443	0.499985
C81	C	0.218953	-0.852533	-0.000023
C82	C	0.718953	-0.352533	0.499977
C83	C	0.093423	-0.877803	0.000001
C84	C	0.593423	-0.377803	0.500001
C85	C	0.084941	-0.769716	0.000001
C86	C	0.584941	-0.269716	0.500001
N87	N	0.164439	-1.244474	-0.292914
N88	N	0.664439	-0.744474	0.207086
C89	C	0.114101	-1.327677	0.529563
C90	C	0.614101	-0.827677	1.029563
C91	C	0.119160	-1.319327	0.647904
C92	C	0.619160	-0.819327	1.147904
C93	C	0.204661	-1.177964	0.647920
C94	C	0.704661	-0.677964	1.147920
C95	C	0.199603	-1.186314	0.529579
C96	C	0.699603	-0.686314	1.029579
C97	C	0.154323	-1.261175	0.470405
C98	C	0.654323	-0.761175	0.970405
C99	C	0.149269	-1.269529	0.352062
C100	C	0.649269	-0.769529	0.852062
C101	C	0.234767	-1.128162	0.352080
C102	C	0.734767	-0.628162	0.852080
C103	C	0.239825	-1.119812	0.470421
C104	C	0.739825	-0.619812	0.970421
H105	H	-0.038239	-1.401391	0.000046
H106	H	0.461761	-0.901391	0.500046
H107	H	0.045770	-0.932104	-0.000002
H108	H	0.545770	-0.432104	0.499998
N109	N	0.100424	-1.350247	0.288222
N110	N	0.600424	-0.850247	0.788222
H111	H	0.128059	-1.399479	0.239100
H112	H	0.628059	-0.899479	0.739100
H113	H	0.075714	-1.391032	0.343721
H114	H	0.575714	-0.891032	0.843721
H115	H	0.077237	-1.388638	0.481383
H116	H	0.577237	-0.888638	0.981383
H117	H	-0.615228	-1.388792	-0.000050
H118	H	-0.115228	-0.888792	0.499950
N119	N	-0.180732	-1.423247	0.000020
N120	N	0.319268	-0.923247	0.500020
H121	H	-0.147859	-1.483826	0.000032
H122	H	0.352141	-0.983826	0.500032
H123	H	-0.208108	-1.421757	0.069715
H124	H	0.291892	-0.921757	0.569715
H125	H	-0.163150	-1.055808	-0.000005
H126	H	0.336850	-0.555808	0.499995
H127	H	0.267520	-1.074014	0.303900
H128	H	0.767520	-0.574014	0.803900
H129	H	0.241523	-1.117008	0.696115
H130	H	0.741523	-0.617008	1.196115
H131	H	0.086407	-1.373479	0.696067
H132	H	0.586407	-0.873479	1.196067
H133	H	-0.030834	-1.058687	0.000001
H134	H	0.469166	-0.558687	0.500001
H135	H	-0.482919	-1.391682	-0.000013
H136	H	0.017081	-0.891682	0.499987
H137	H	0.276689	-1.058859	0.518614
H138	H	0.776689	-0.558859	1.018614
H139	H	0.273515	-0.886241	-0.000028
H140	H	0.773515	-0.386241	0.499972
H141	H	-0.607831	-1.046093	-0.000062
H142	H	-0.107831	-0.546093	0.499938
N143	N	0.323623	-0.497747	-0.000030
N144	N	0.823623	0.002253	0.499970
H145	H	0.325871	-0.447411	0.069666
H146	H	0.825871	0.052589	0.569666
H147	H	0.367328	-0.540441	-0.000076
H148	H	0.867328	-0.040441	0.499924
N149	N	-0.465334	-1.024233	-0.000042
N150	N	0.034666	-0.524233	0.499958
H151	H	-0.498209	-0.963657	-0.000045
H152	H	0.001791	-0.463657	0.499955
H153	H	-0.432014	-1.015848	0.069657
H154	H	0.067986	-0.515848	0.569657
H155	H	0.030385	-0.735989	0.000021
H156	H	0.530385	-0.235989	0.500021
N157	N	0.341261	-0.722434	-0.000049
N158	N	0.841261	-0.222434	0.499951
H159	H	0.377049	-0.663793	-0.000060
H160	H	0.877049	-0.163793	0.499940
H161	H	0.350497	-0.761799	0.069645
H162	H	0.850497	-0.261799	0.569645
H163	H	0.080430	-0.561216	0.000095
H164	H	0.580430	-0.061216	0.500095
