data_functionalizedCrystal
_audit_creation_method	'MofGen! by Chris Wilmer'
_symmetry_space_group_name_H-M	'P1'
_symmetry_Int_Tables_number	1
_symmetry_cell_setting	triclinic
loop_
_symmetry_equiv_pos_as_xyz
  x,y,z
_cell_length_a	19.288864
_cell_length_b	11.792241
_cell_length_c	17.766277
_cell_angle_alpha	89.993523
_cell_angle_beta	89.976791
_cell_angle_gamma	83.664831
loop_
_atom_site_label
_atom_site_type_symbol
_atom_site_fract_x
_atom_site_fract_y
_atom_site_fract_z
O1	O	0.922157	0.141582	-0.062836
O2	O	1.422157	0.641582	0.437164
O3	O	0.720005	0.160681	-0.062785
O4	O	1.220005	0.660681	0.437215
O5	O	0.825987	-0.014113	-0.062806
O6	O	1.325987	0.485887	0.437194
O7	O	0.816176	0.316377	-0.062814
O8	O	1.316176	0.816377	0.437186
O9	O	0.825968	-0.014122	0.062382
O10	O	1.325968	0.485878	0.562382
O11	O	0.719986	0.160673	0.062404
O12	O	1.219986	0.660673	0.562404
O13	O	0.922139	0.141573	0.062352
O14	O	1.422139	0.641573	0.562352
Cu15	Cu	0.821061	0.151122	0.073809
Cu16	Cu	1.321061	0.651122	0.573809
Cu17	Cu	0.821083	0.151133	-0.074241
Cu18	Cu	1.321083	0.651133	0.425759
O19	O	0.816157	0.316368	0.062374
O20	O	1.316157	0.816368	0.562374
C21	C	0.694116	0.160063	-0.000184
C22	C	1.194116	0.660063	0.499816
C23	C	0.617002	0.158218	-0.000164
C24	C	1.117002	0.658218	0.499836
C25	C	0.825361	-0.056399	-0.000212
C26	C	1.325361	0.443601	0.499788
C27	C	0.823517	-0.182385	-0.000212
C28	C	1.323517	0.317615	0.499788
C29	C	0.572888	0.260779	-0.000178
C30	C	1.072888	0.760779	0.499822
C31	C	0.500431	0.259046	-0.000187
C32	C	1.000431	0.759046	0.499813
C33	C	0.472091	0.154746	-0.000196
C34	C	0.972091	0.654746	0.499804
C35	C	0.516215	0.052171	-0.000177
C36	C	1.016215	0.552171	0.499823
C37	C	0.588670	0.053907	-0.000161
C38	C	1.088670	0.553907	0.499839
C39	C	0.363370	0.072757	-0.044078
C40	C	0.863370	0.572757	0.455922
C41	C	0.290916	0.071025	-0.044099
C42	C	0.790916	0.571025	0.455901
C43	C	0.248615	0.149387	-0.000241
C44	C	0.748615	0.649387	0.499759
C45	C	0.278776	0.229499	0.043627
C46	C	0.778776	0.729499	0.543627
C47	C	0.351232	0.231235	0.043643
C48	C	0.851232	0.731235	0.543643
C49	C	0.393526	0.152852	-0.000212
C50	C	0.893526	0.652852	0.499788
C51	C	0.125935	0.250076	-0.000263
C52	C	0.625935	0.750076	0.499737
C53	C	0.053477	0.248339	-0.000267
C54	C	0.553477	0.748339	0.499733
C55	C	0.069262	0.041460	-0.000265
C56	C	0.569262	0.541460	0.499735
C57	C	0.141718	0.043201	-0.000254
C58	C	0.641718	0.543201	0.499746
C59	C	0.170050	0.147512	-0.000257
C60	C	0.670050	0.647512	0.499743
C61	C	0.820125	-0.413045	-0.000224
C62	C	1.320125	0.086955	0.499776
C63	C	0.822009	-0.284689	-0.000218
C64	C	1.322009	0.215311	0.499782
C65	C	0.948028	0.142192	-0.000250
C66	C	1.448028	0.642192	0.499750
C67	C	1.025142	0.144037	-0.000275
C68	C	1.525142	0.644037	0.499725
C69	C	0.816783	0.358654	-0.000222
C70	C	1.316783	0.858654	0.499778
C71	C	0.818627	0.484640	-0.000226
C72	C	1.318627	0.984640	0.499774
N73	N	0.821050	0.151114	0.177939
N74	N	1.321050	0.651114	0.677939
N75	N	0.821099	0.151132	-0.178371
N76	N	1.321099	0.651132	0.321629
C77	C	0.867994	0.073753	0.217316
C78	C	1.367994	0.573753	0.717316
C79	C	0.867998	0.073748	0.296118
C80	C	1.367998	0.573748	0.796118
C81	C	0.821065	0.151123	0.335540
C82	C	1.321065	0.651123	0.835540
C83	C	0.774112	0.228490	0.296153
C84	C	1.274112	0.728490	0.796153
C85	C	0.774105	0.228486	0.217353
C86	C	1.274105	0.728486	0.717353
C87	C	0.812354	0.254534	0.460377
C88	C	1.312354	0.754534	0.960377
C89	C	0.812366	0.254540	0.539175
C90	C	1.312366	0.754540	1.039175
C91	C	0.821084	0.151137	0.578586
C92	C	1.321084	0.651137	1.078586
C93	C	0.829804	0.047723	0.539188
C94	C	1.329804	0.547723	1.039188
C95	C	0.829797	0.047719	0.460388
C96	C	1.329797	0.547719	0.960388
C97	C	0.821067	0.151136	0.420985
C98	C	1.321067	0.651136	0.920985
C99	C	0.868035	0.073764	0.703409
C100	C	1.368035	0.573764	1.203409
C101	C	0.868034	0.073757	0.782213
C102	C	1.368034	0.573757	1.282213
C103	C	0.774151	0.228509	0.782246
C104	C	1.274151	0.728509	1.282246
C105	C	0.774148	0.228506	0.703444
C106	C	1.274148	0.728506	1.203444
C107	C	0.821094	0.151135	0.664030
C108	C	1.321094	0.651135	1.164030
H109	H	0.595951	0.345717	-0.000182
H110	H	1.095951	0.845717	0.499818
H111	H	0.906219	0.010750	0.185228
H112	H	1.406219	0.510750	0.685228
H113	H	0.375786	0.296462	0.079364
H114	H	0.875786	0.796462	0.579364
H115	H	0.836902	-0.036478	0.571275
H116	H	1.336902	0.463522	1.071275
H117	H	0.493136	-0.032752	-0.000195
H118	H	0.993136	0.467248	0.499805
H119	H	0.149004	0.335012	-0.000255
H120	H	0.649004	0.835012	0.499745
H121	H	0.906259	0.010759	0.671318
H122	H	1.406259	0.510759	1.171318
O123	O	0.041825	-0.059931	-0.000373
O124	O	0.541825	0.440069	0.499627
C125	C	0.064351	-0.122415	-0.065215
C126	C	0.564351	0.377585	0.434785
H127	H	0.114725	-0.091738	-0.086822
H128	H	0.614725	0.408262	0.413178
H129	H	0.074044	-0.216981	-0.050630
H130	H	0.574044	0.283019	0.449370
H131	H	0.022502	-0.109053	-0.110623
H132	H	0.522502	0.390947	0.389377
H133	H	0.397806	0.008943	-0.079797
H134	H	0.897806	0.508943	0.420203
H135	H	0.464507	0.342567	-0.000196
H136	H	0.964507	0.842567	0.499804
H137	H	0.244336	0.293308	0.079341
H138	H	0.744336	0.793308	0.579341
H139	H	0.017560	0.331860	-0.000274
H140	H	0.517560	0.831860	0.499726
H141	H	0.836895	-0.036484	0.428313
H142	H	1.336895	0.463516	0.928313
H143	H	0.624588	-0.029614	-0.000150
H144	H	1.124588	0.470386	0.499850
H145	H	0.177637	-0.040316	-0.000246
H146	H	0.677637	0.459684	0.499754
O147	O	0.728478	0.303753	0.179214
O148	O	1.228478	0.803753	0.679214
C149	C	0.687038	0.372026	0.230902
C150	C	1.187038	0.872026	0.730902
H151	H	0.715520	0.373191	0.287060
H152	H	1.215520	0.873191	0.787060
H153	H	0.676779	0.462709	0.208131
H154	H	1.176779	0.962709	0.708131
H155	H	0.635306	0.335386	0.239310
H156	H	1.135306	0.835386	0.739310
H157	H	0.266364	0.005797	-0.079822
H158	H	0.766364	0.505797	0.420178
O159	O	0.913706	-0.001438	0.820350
O160	O	1.413706	0.498562	1.320350
C161	C	0.955126	-0.069740	0.768660
C162	C	1.455126	0.430260	1.268660
H163	H	0.956076	-0.023211	0.712484
H164	H	1.456076	0.476789	1.212484
H165	H	1.010530	-0.087271	0.791401
H166	H	1.510530	0.412729	1.291401
H167	H	0.932267	-0.153966	0.760300
H168	H	1.432267	0.346034	1.260300
H169	H	0.906227	0.010749	0.328185
H170	H	1.406227	0.510749	0.828185
O171	O	0.728528	0.303517	0.820612
O172	O	1.228528	0.803517	1.320612
C173	C	0.685445	0.242912	0.866207
C174	C	1.185445	0.742912	1.366207
H175	H	0.712777	0.153986	0.878007
H176	H	1.212777	0.653986	1.378007
H177	H	0.674636	0.290333	0.921620
H178	H	1.174636	0.790333	1.421620
H179	H	0.634084	0.235411	0.835864
H180	H	1.134084	0.735411	1.335864
O181	O	0.728526	0.303775	0.665305
O182	O	1.228526	0.803775	1.165305
C183	C	0.687089	0.372050	0.716994
C184	C	1.187089	0.872050	1.216994
H185	H	0.715573	0.373217	0.773150
H186	H	1.215573	0.873217	1.273150
H187	H	0.676830	0.462732	0.694222
H188	H	1.176830	0.962732	1.194222
H189	H	0.635357	0.335413	0.725406
H190	H	1.135357	0.835413	1.225406
H191	H	0.805270	0.338745	0.571247
H192	H	1.305270	0.838745	1.071247
H193	H	0.805242	0.338743	0.428295
H194	H	1.305242	0.838743	0.928295
H195	H	0.735897	0.291489	0.328254
H196	H	1.235897	0.791489	0.828254
