data_functionalizedCrystal
_audit_creation_method	'MofGen! by Chris Wilmer'
_symmetry_space_group_name_H-M	'P1'
_symmetry_Int_Tables_number	1
_symmetry_cell_setting	triclinic
loop_
_symmetry_equiv_pos_as_xyz
  x,y,z
_cell_length_a	18.050591
_cell_length_b	19.121063
_cell_length_c	18.050591
_cell_angle_alpha	87.585417
_cell_angle_beta	90.011897
_cell_angle_gamma	92.465257
loop_
_atom_site_label
_atom_site_type_symbol
_atom_site_fract_x
_atom_site_fract_y
_atom_site_fract_z
Zn1	Zn	1.122608	-0.279733	0.432629
Zn2	Zn	1.117241	-0.397178	0.313729
Zn3	Zn	0.998447	-0.279736	0.308441
Zn4	Zn	0.993079	-0.397140	0.437863
O5	O	1.057844	-0.338447	0.373165
O6	O	1.225820	-0.295327	0.416880
O7	O	1.101482	-0.381616	0.209104
O8	O	1.019410	-0.181451	0.320512
O9	O	1.221877	-0.381613	0.329524
O10	O	1.110630	-0.181449	0.411752
O11	O	1.014205	-0.295332	0.205218
O12	O	0.893811	-0.295296	0.325586
O13	O	1.010262	-0.381549	0.541092
O14	O	0.889867	-0.381552	0.420672
O15	O	1.105426	-0.295291	0.537247
O16	O	1.096278	-0.495457	0.334599
O17	O	1.005057	-0.495430	0.425799
C18	C	0.864893	-0.338421	0.373123
C19	C	0.782347	-0.338426	0.373123
C20	C	1.049523	-0.520928	0.381357
C21	C	1.046031	-0.598994	0.384886
C22	C	0.585021	-0.291466	0.321528
C23	C	0.532715	-0.355526	0.306137
C24	C	0.631215	-0.338448	0.373158
C25	C	0.536439	-0.274410	0.388548
C26	C	0.485230	-0.338463	0.373190
C27	C	0.579995	-0.402541	0.357733
C28	C	0.583725	-0.321382	0.440174
C29	C	0.531439	-0.385487	0.424811
C30	C	0.715314	-0.338438	0.373138
C31	C	0.401132	-0.338479	0.373210
C32	C	1.091921	-0.635660	0.339100
C33	C	1.088642	-0.709012	0.342423
C34	C	1.039467	-0.745695	0.391530
C35	C	0.993575	-0.709024	0.437321
C36	C	0.996859	-0.635674	0.434000
C37	C	1.027178	-0.967166	0.403932
C38	C	1.023896	-1.040521	0.407247
C39	C	1.118963	-1.040504	0.312350
C40	C	1.122240	-0.967152	0.309031
C41	C	1.076350	-0.930487	0.354825
C42	C	1.036112	-0.820672	0.394926
C43	C	1.079710	-0.855512	0.351432
C44	C	1.251548	-0.338474	0.373208
C45	C	1.334093	-0.338485	0.373227
C46	C	1.057844	-0.338416	0.566870
C47	C	1.057844	-0.338402	0.649415
C48	C	1.066217	-0.155253	0.364958
C49	C	1.069786	-0.077187	0.361461
C50	C	1.109607	-0.291517	0.846776
C51	C	1.042640	-0.274334	0.895389
C52	C	1.057846	-0.338424	0.800546
C53	C	1.124815	-0.355596	0.899013
C54	C	1.057854	-0.338444	0.946532
C55	C	0.990844	-0.321208	0.848071
C56	C	1.073063	-0.402499	0.851692
C57	C	1.006048	-0.385341	0.900285
C58	C	1.057842	-0.338411	0.716447
C59	C	1.057850	-0.338457	1.030629
C60	C	1.057842	-0.338484	1.180215
C61	C	1.057855	-0.338468	1.097668
H62	H	0.608476	-0.251778	0.277822
H63	H	0.983861	-1.070386	0.447248
O64	O	0.510970	-0.202669	0.405785
H65	H	0.532496	-0.163765	0.362838
H66	H	0.962230	-0.425017	0.923575
O67	O	0.503059	-0.374664	0.231089
H68	H	0.524576	-0.335584	0.188312
O69	O	1.175270	-0.927583	0.256062
H70	H	1.214520	-0.894110	0.287821
O71	O	1.167523	-0.238941	0.815717
H72	H	1.167349	-0.239768	0.754270
H73	H	1.156325	-1.070365	0.275069
O74	O	1.090142	-0.474239	0.826100
H75	H	1.145787	-0.488366	0.846479
O76	O	1.199830	-0.374824	0.928618
H77	H	1.198991	-0.375137	0.990116
O78	O	0.977663	-0.927623	0.453298
H79	H	0.942906	-0.965456	0.487988
O80	O	0.605333	-0.474306	0.340409
H81	H	0.666847	-0.473728	0.340500
H82	H	0.953540	-0.738897	0.477307
H83	H	1.029768	-0.220156	0.914679
O84	O	0.915811	-0.301887	0.818593
H85	H	0.916407	-0.302002	0.757110
O86	O	0.500526	-0.438178	0.482662
H87	H	0.517993	-0.491267	0.469719
O88	O	0.613407	-0.302226	0.515201
H89	H	0.596087	-0.249014	0.527837
H90	H	1.126010	-0.738863	0.305139
O91	O	1.144966	-0.596093	0.286143
H92	H	1.131656	-0.610213	0.228480
O93	O	0.947356	-0.596120	0.483374
H94	H	0.912602	-0.633950	0.518072
H95	H	1.119750	-0.825642	0.311452
H96	H	0.996073	-0.850548	0.434907
