data_functionalizedCrystal
_audit_creation_method	'MofGen! by Chris Wilmer'
_symmetry_space_group_name_H-M	'P1'
_symmetry_Int_Tables_number	1
_symmetry_cell_setting	triclinic
loop_
_symmetry_equiv_pos_as_xyz
  x,y,z
_cell_length_a	12.759400
_cell_length_b	12.759401
_cell_length_c	12.759393
_cell_angle_alpha	89.979882
_cell_angle_beta	90.030652
_cell_angle_gamma	89.984494
loop_
_atom_site_label
_atom_site_type_symbol
_atom_site_fract_x
_atom_site_fract_y
_atom_site_fract_z
Zn1	Zn	-0.418191	-1.606242	0.594064
Zn2	Zn	-0.593907	-1.606140	0.418384
Zn3	Zn	-0.418245	-1.430548	0.418394
Zn4	Zn	-0.593831	-1.430532	0.594016
O5	O	-0.506043	-1.518366	0.506215
O6	O	-0.441509	-1.753249	0.570775
O7	O	-0.570659	-1.582811	0.271364
O8	O	-0.271217	-1.453903	0.441721
O9	O	-0.570607	-1.753175	0.441704
O10	O	-0.271177	-1.582985	0.570785
O11	O	-0.441601	-1.453804	0.271372
O12	O	-0.441528	-1.283525	0.441675
O13	O	-0.570477	-1.453877	0.741044
O14	O	-0.570530	-1.283514	0.570704
O15	O	-0.441435	-1.582970	0.741079
O16	O	-0.740918	-1.582797	0.441658
O17	O	-0.740862	-1.453778	0.570694
C18	C	-0.506027	-1.245398	0.506186
C19	C	-0.506045	-1.128622	0.506199
C20	C	-0.573318	-1.073781	0.573277
C21	C	-0.573321	-0.964057	0.573295
C22	C	-0.438775	-0.964023	0.439148
C23	C	-0.438768	-1.073746	0.439136
C24	C	-0.779011	-1.518303	0.506193
C25	C	-0.895787	-1.518373	0.506218
C26	C	-0.950644	-1.585627	0.439103
C27	C	-1.060368	-1.585692	0.439136
C28	C	-1.060369	-1.451238	0.573401
C29	C	-0.950647	-1.451180	0.573373
C30	C	-0.895783	-1.652820	0.371949
C31	C	-0.950640	-1.720079	0.304827
C32	C	-1.060364	-1.720143	0.304860
C33	C	-1.115231	-1.652949	0.372014
C34	C	-0.232010	-1.518457	0.506260
C35	C	-0.115233	-1.518496	0.506279
C36	C	-0.505942	-1.518433	0.780248
C37	C	-0.505898	-1.518462	0.897025
C38	C	-0.506057	-0.792399	0.506237
C39	C	-0.506055	-0.909175	0.506229
C40	C	-0.506069	-1.518359	0.233247
C41	C	-0.505816	-1.518534	0.116471
C42	C	-0.573059	-1.451265	0.951870
C43	C	-0.573021	-1.451304	1.061595
C44	C	-0.438653	-1.585738	1.061618
C45	C	-0.438697	-1.585704	0.951896
C46	C	-0.640260	-1.384023	0.897000
C47	C	-0.707426	-1.316821	0.951845
C48	C	-0.707388	-1.316859	1.061569
C49	C	-0.640184	-1.384100	1.116448
H50	H	-0.383980	-1.118398	0.384513
H51	H	-0.905983	-1.396416	0.628025
Cl52	Cl	-0.757845	-1.653037	0.372197
H53	H	-0.640298	-1.383983	0.807657
H54	H	-1.105025	-1.774916	0.250214
Cl55	Cl	-1.253171	-1.652599	0.371617
H56	H	-1.105051	-1.396531	0.628074
H57	H	-0.384001	-0.919330	0.384546
H58	H	-0.905961	-1.774793	0.250159
H59	H	-0.628098	-1.118458	0.627887
Cl60	Cl	-0.791913	-1.232303	0.882857
Cl61	Cl	-0.354171	-1.670259	1.130609
H62	H	-0.762084	-1.262147	1.106222
Cl63	Cl	-0.640147	-1.384154	1.254388
H64	H	-0.628100	-0.919411	0.627918
Cl65	Cl	-0.354268	-1.670184	0.882942
