data_functionalizedCrystal
_audit_creation_method	'MofGen! by Chris Wilmer'
_symmetry_space_group_name_H-M	'P1'
_symmetry_Int_Tables_number	1
_symmetry_cell_setting	triclinic
loop_
_symmetry_equiv_pos_as_xyz
  x,y,z
_cell_length_a	16.120484
_cell_length_b	13.897449
_cell_length_c	13.897441
_cell_angle_alpha	90.020722
_cell_angle_beta	92.866498
_cell_angle_gamma	87.074557
loop_
_atom_site_label
_atom_site_type_symbol
_atom_site_fract_x
_atom_site_fract_y
_atom_site_fract_z
Zn1	Zn	-0.331892	-1.455159	-0.564880
Zn2	Zn	-0.081892	-1.205159	-0.314880
Zn3	Zn	0.168108	-0.955159	-0.064880
Zn4	Zn	0.418108	-0.705159	0.185120
Zn5	Zn	-0.471321	-1.446857	-0.411750
Zn6	Zn	-0.221321	-1.196857	-0.161750
Zn7	Zn	0.028679	-0.946857	0.088250
Zn8	Zn	0.278679	-0.696857	0.338250
Zn9	Zn	-0.331926	-1.293852	-0.403594
Zn10	Zn	-0.081926	-1.043852	-0.153594
Zn11	Zn	0.168074	-0.793852	0.096406
Zn12	Zn	0.418074	-0.543852	0.346406
Zn13	Zn	-0.471265	-1.285631	-0.572993
Zn14	Zn	-0.221265	-1.035631	-0.322993
Zn15	Zn	0.028735	-0.785631	-0.072993
Zn16	Zn	0.278735	-0.535631	0.177007
O17	O	-0.401601	-1.370375	-0.488304
O18	O	-0.151601	-1.120375	-0.238304
O19	O	0.098399	-0.870375	0.011696
O20	O	0.348399	-0.620375	0.261696
O21	O	-0.350397	-1.589038	-0.544585
O22	O	-0.100397	-1.339038	-0.294585
O23	O	0.149603	-1.089038	-0.044585
O24	O	0.399603	-0.839038	0.205415
O25	O	-0.452867	-1.426526	-0.275688
O26	O	-0.202867	-1.176526	-0.025688
O27	O	0.047133	-0.926526	0.224312
O28	O	0.297133	-0.676526	0.474312
O29	O	-0.215256	-1.322164	-0.418181
O30	O	0.034744	-1.072164	-0.168181
O31	O	0.284744	-0.822164	0.081819
O32	O	0.534744	-0.572164	0.331819
O33	O	-0.452835	-1.582939	-0.432081
O34	O	-0.202835	-1.332939	-0.182081
O35	O	0.047165	-1.082939	0.067919
O36	O	0.297165	-0.832939	0.317919
O37	O	-0.215231	-1.440676	-0.536676
O38	O	0.034769	-1.190676	-0.286676
O39	O	0.284769	-0.940676	-0.036676
O40	O	0.534769	-0.690676	0.213324
O41	O	-0.350454	-1.314114	-0.269697
O42	O	-0.100454	-1.064114	-0.019697
O43	O	0.149546	-0.814114	0.230303
O44	O	0.399546	-0.564114	0.480303
O45	O	-0.350400	-1.157780	-0.426048
O46	O	-0.100400	-0.907780	-0.176048
O47	O	0.149600	-0.657780	0.073952
O48	O	0.399600	-0.407780	0.323952
O49	O	-0.452739	-1.308153	-0.706896
O50	O	-0.202739	-1.058153	-0.456896
O51	O	0.047261	-0.808153	-0.206896
O52	O	0.297261	-0.558153	0.043104
O53	O	-0.452772	-1.151740	-0.550504
O54	O	-0.202772	-0.901740	-0.300504
O55	O	0.047228	-0.651740	-0.050504
O56	O	0.297228	-0.401740	0.199496
O57	O	-0.350342	-1.432704	-0.700936
O58	O	-0.100342	-1.182704	-0.450936
O59	O	0.149658	-0.932704	-0.200936
O60	O	0.399658	-0.682704	0.049064
O61	O	-0.587979	-1.418555	-0.439948
O62	O	-0.337979	-1.168555	-0.189948
O63	O	-0.087979	-0.918555	0.060052
O64	O	0.162021	-0.668555	0.310052
O65	O	-0.587938	-1.300103	-0.558412
O66	O	-0.337938	-1.050103	-0.308412
O67	O	-0.087938	-0.800103	-0.058412
O68	O	0.162062	-0.550103	0.191588
C69	C	-0.401584	-1.119761	-0.488272
C70	C	-0.151584	-0.869761	-0.238272
C71	C	0.098416	-0.619761	0.011728
C72	C	0.348416	-0.369761	0.261728
C73	C	-0.401597	-1.012547	-0.488282
C74	C	-0.151597	-0.762547	-0.238282
C75	C	0.098403	-0.512547	0.011718
C76	C	0.348403	-0.262547	0.261718
C77	C	-0.401596	-0.816251	-0.488300
C78	C	-0.151596	-0.566251	-0.238300
C79	C	0.098404	-0.316251	0.011700
C80	C	0.348404	-0.066251	0.261700
C81	C	-0.401594	-0.925484	-0.488287
C82	C	-0.151594	-0.675484	-0.238287
C83	C	0.098406	-0.425484	0.011713
C84	C	0.348406	-0.175484	0.261713
C85	C	-0.618209	-1.357562	-0.500966
C86	C	-0.368209	-1.107562	-0.250966
C87	C	-0.118209	-0.857562	-0.000966
C88	C	0.131791	-0.607562	0.249034
C89	C	-0.710874	-1.352169	-0.506416
C90	C	-0.460874	-1.102169	-0.256416
C91	C	-0.210874	-0.852169	-0.006416
C92	C	0.039126	-0.602169	0.243584
C93	C	-0.880536	-1.342329	-0.516384
C94	C	-0.630536	-1.092329	-0.266384
C95	C	-0.380536	-0.842329	-0.016384
C96	C	-0.130536	-0.592329	0.233616
C97	C	-0.921826	-1.398593	-0.460240
C98	C	-0.671826	-1.148593	-0.210240
C99	C	-0.421826	-0.898593	0.039760
C100	C	-0.171826	-0.648593	0.289760
C101	C	-1.016231	-1.393118	-0.465787
C102	C	-0.766231	-1.143118	-0.215787
C103	C	-0.516231	-0.893118	0.034213
C104	C	-0.266231	-0.643118	0.284213
C105	C	-0.786122	-1.347803	-0.510839
C106	C	-0.536122	-1.097803	-0.260839
C107	C	-0.286122	-0.847803	-0.010839
C108	C	-0.036122	-0.597803	0.239161
C109	C	-0.184147	-1.383263	-0.475614
C110	C	0.065853	-1.133263	-0.225614
C111	C	0.315853	-0.883263	0.024386
C112	C	0.565853	-0.633263	0.274386
C113	C	-0.091482	-1.388756	-0.470206
C114	C	0.158518	-1.138756	-0.220206
C115	C	0.408518	-0.888756	0.029794
C116	C	0.658518	-0.638756	0.279794
C117	C	-0.401531	-1.370438	-0.739893
C118	C	-0.151531	-1.120438	-0.489893
C119	C	0.098469	-0.870438	-0.239893
C120	C	0.348469	-0.620438	0.010107
C121	C	-0.401501	-1.370465	-0.847106
C122	C	-0.151501	-1.120465	-0.597106
C123	C	0.098499	-0.870465	-0.347106
C124	C	0.348499	-0.620465	-0.097106
C125	C	-0.401613	-0.621967	-0.488328
C126	C	-0.151613	-0.371967	-0.238328
C127	C	0.098387	-0.121967	0.011672
C128	C	0.348387	0.128033	0.261672
C129	C	-0.401604	-0.729181	-0.488313
C130	C	-0.151604	-0.479181	-0.238313
C131	C	0.098396	-0.229181	0.011687
C132	C	0.348396	0.020819	0.261687
C133	C	-0.401477	-1.370486	-0.934174
C134	C	-0.151477	-1.120486	-0.684174
C135	C	0.098523	-0.870486	-0.434174
C136	C	0.348523	-0.620486	-0.184174
C137	C	-0.401440	-1.370516	-1.043404
C138	C	-0.151440	-1.120516	-0.793404
C139	C	0.098560	-0.870516	-0.543404
C140	C	0.348560	-0.620516	-0.293404
C141	C	-0.401610	-1.370371	-0.237690
C142	C	-0.151610	-1.120371	0.012310
C143	C	0.098390	-0.870371	0.262310
C144	C	0.348390	-0.620371	0.512310
C145	C	-0.401405	-1.370544	-0.130465
C146	C	-0.151405	-1.120544	0.119535
C147	C	0.098595	-0.870544	0.369535
C148	C	0.348595	-0.620544	0.619535
H149	H	-0.886274	-1.450874	-0.408008
H150	H	-0.636274	-1.200874	-0.158008
H151	H	-0.386274	-0.950874	0.091992
H152	H	-0.136274	-0.700874	0.341992
H153	H	-0.916085	-1.290051	-0.568611
H154	H	-0.666085	-1.040051	-0.318611
H155	H	-0.416085	-0.790051	-0.068611
H156	H	-0.166085	-0.540051	0.181389
