data_functionalizedCrystal
_audit_creation_method	'MofGen! by Chris Wilmer'
_symmetry_space_group_name_H-M	'P1'
_symmetry_Int_Tables_number	1
_symmetry_cell_setting	triclinic
loop_
_symmetry_equiv_pos_as_xyz
  x,y,z
_cell_length_a	19.077236
_cell_length_b	15.297327
_cell_length_c	19.076919
_cell_angle_alpha	101.510342
_cell_angle_beta	89.887323
_cell_angle_gamma	102.353600
loop_
_atom_site_label
_atom_site_type_symbol
_atom_site_fract_x
_atom_site_fract_y
_atom_site_fract_z
Zn1	Zn	1.011717	-0.332096	-0.483479
Zn2	Zn	1.511717	0.167904	0.016521
Zn3	Zn	0.995795	-0.478709	-0.384927
Zn4	Zn	1.495795	0.021291	0.115073
Zn5	Zn	0.899000	-0.331616	-0.361197
Zn6	Zn	1.399000	0.168384	0.138803
Zn7	Zn	0.871903	-0.490914	-0.499244
Zn8	Zn	1.371903	0.009086	0.000756
O9	O	0.944604	-0.408334	-0.432212
O10	O	1.444604	0.091666	0.067788
O11	O	1.108627	-0.346637	-0.473739
O12	O	1.608627	0.153363	0.026261
O13	O	0.987632	-0.453888	-0.282762
O14	O	1.487632	0.046112	0.217238
O15	O	0.931955	-0.203656	-0.360888
O16	O	1.431955	0.296344	0.139112
O17	O	1.096929	-0.454353	-0.401334
O18	O	1.596929	0.045647	0.098666
O19	O	1.014768	-0.204008	-0.450728
O20	O	1.514768	0.295992	0.049272
O21	O	0.916517	-0.345820	-0.265327
O22	O	1.416517	0.154180	0.234673
O23	O	0.796383	-0.357655	-0.376175
O24	O	1.296383	0.142345	0.123825
O25	O	0.885772	-0.475155	-0.596170
O26	O	1.385772	0.024845	-0.096170
O27	O	0.776475	-0.474690	-0.477598
O28	O	1.276475	0.025310	0.022402
O29	O	0.988493	-0.358472	-0.584587
O30	O	1.488493	0.141528	-0.084587
O31	O	0.961357	-0.608352	-0.416621
O32	O	1.461357	-0.108352	0.083379
O33	O	0.870334	-0.617319	-0.500609
O34	O	1.370334	-0.117319	-0.000609
C35	C	0.760754	-0.417445	-0.426023
C36	C	1.260754	0.082555	0.073977
C37	C	0.682098	-0.421366	-0.423394
C38	C	1.182098	0.078634	0.076606
C39	C	0.651220	-0.367223	-0.459938
C40	C	1.151220	0.132777	0.040062
C41	C	0.577316	-0.370903	-0.457462
C42	C	1.077316	0.129097	0.042538
C43	C	0.534290	-0.428730	-0.418446
C44	C	1.034290	0.071270	0.081554
C45	C	0.565173	-0.482876	-0.381898
C46	C	1.065173	0.017124	0.118102
C47	C	0.639077	-0.479191	-0.384370
C48	C	1.139077	0.020809	0.115630
C49	C	0.312610	-0.445750	-0.406997
C50	C	0.812610	0.054250	0.093003
C51	C	0.238701	-0.449433	-0.404529
C52	C	0.738701	0.050567	0.095471
C53	C	0.250849	-0.337458	-0.480093
C54	C	0.750849	0.162542	0.019907
C55	C	0.324753	-0.333782	-0.482565
C56	C	0.824753	0.166218	0.017435
C57	C	0.355630	-0.387924	-0.446014
C58	C	0.855630	0.112076	0.053986
N59	N	0.458747	-0.432495	-0.415916
N60	N	0.958747	0.067505	0.084084
N61	N	0.431173	-0.384154	-0.448540
N62	N	0.931173	0.115846	0.051460
C63	C	0.911196	-0.646031	-0.462917
C64	C	1.411196	-0.146031	0.037083
C65	C	0.896968	-0.747717	-0.476078
C66	C	1.396968	-0.247717	0.023922
C67	C	1.046575	-1.015551	-0.338395
C68	C	1.546575	-0.515551	0.161605
C69	C	1.059943	-0.920012	-0.326025
C70	C	1.559943	-0.420012	0.173975
C71	C	1.019201	-0.876933	-0.363537
C72	C	1.519201	-0.376933	0.136463
C73	C	0.965088	-0.929403	-0.413421
C74	C	1.465088	-0.429403	0.086579
C75	C	0.951715	-1.024952	-0.425788
C76	C	1.451715	-0.524952	0.074212
C77	C	0.924340	-0.886334	-0.450931
C78	C	1.424340	-0.386334	0.049069
C79	C	0.870227	-0.938804	-0.500815
C80	C	1.370227	-0.438804	-0.000815
C81	C	0.856857	-1.034343	-0.513179
C82	C	1.356857	-0.534343	-0.013179
C83	C	0.897599	-1.077421	-0.475667
C84	C	1.397599	-0.577421	0.024333
C85	C	0.937713	-0.790786	-0.438564
C86	C	1.437713	-0.290786	0.061436
C87	C	0.842852	-0.800186	-0.525957
C88	C	1.342852	-0.300186	-0.025957
C89	C	0.829484	-0.895725	-0.538327
C90	C	1.329484	-0.395725	-0.038327
C91	C	1.129171	-0.399187	-0.438425
C92	C	1.629171	0.100813	0.061575
C93	C	1.207823	-0.395289	-0.441073
C94	C	1.707823	0.104711	0.058927
C95	C	0.935886	-0.418229	-0.616770
C96	C	1.435886	0.081771	-0.116770
C97	C	0.932171	-0.422445	-0.695418
C98	C	1.432171	0.077555	-0.195418
C99	C	0.978160	-0.169708	-0.401403
C100	C	1.478160	0.330292	0.098597
C101	C	0.992460	-0.068021	-0.388274
C102	C	1.492460	0.431979	0.111726
C103	C	0.983905	-0.363678	-0.726338
C104	C	1.483905	0.136322	-0.226338
C105	C	0.980406	-0.367637	-0.800235
C106	C	1.480406	0.132363	-0.300235
C107	C	0.925177	-0.430368	-0.843212
C108	C	1.425177	0.069632	-0.343212
C109	C	0.873438	-0.489137	-0.812287
C110	C	1.373438	0.010863	-0.312287
C111	C	0.876935	-0.485173	-0.738390
C112	C	1.376935	0.014827	-0.238390
C113	C	0.908983	-0.448733	-1.064866
C114	C	1.408983	0.051267	-0.564866
C115	C	0.905492	-0.452695	-1.138768
C116	C	1.405492	0.047305	-0.638768
C117	C	1.012459	-0.331193	-1.126711
C118	C	1.512459	0.168807	-0.626711
C119	C	1.015953	-0.327239	-1.052814
C120	C	1.515953	0.172761	-0.552814
C121	C	0.964213	-0.386004	-1.021894
C122	C	1.464213	0.113996	-0.521894
N123	N	0.921601	-0.434418	-0.918747
N124	N	1.421601	0.065582	-0.418747
N125	N	0.967786	-0.381949	-0.946360
N126	N	1.467786	0.118051	-0.446360
C127	C	0.953337	-0.398409	-0.248364
C128	C	1.453337	0.101591	0.251636
C129	C	0.957225	-0.393928	-0.169688
C130	C	1.457225	0.106072	0.330312
H131	H	0.359780	-0.286696	-0.514339
H132	H	0.859780	0.213304	-0.014339
F133	F	0.345465	-0.503356	-0.368081
F134	F	0.845465	-0.003356	0.131919
H135	H	0.866860	-0.496598	-1.039703
H136	H	1.366860	0.003402	-0.539703
H137	H	0.828467	-0.540211	-0.847284
H138	H	1.328467	-0.040211	-0.347284
H139	H	0.981772	-0.748073	-0.397948
H140	H	1.481772	-0.248073	0.102052
H141	H	1.028880	-0.312599	-0.691351
H142	H	1.528880	0.187401	-0.191351
F143	F	0.519380	-0.544416	-0.340369
F144	F	1.019380	-0.044416	0.159631
F145	F	1.117537	-0.864176	-0.272942
F146	F	1.617537	-0.364176	0.227058
F147	F	0.671939	-0.536818	-0.345476
F148	F	1.171939	-0.036818	0.154524
F149	F	0.799484	-0.754344	-0.565880
F150	F	1.299484	-0.254344	-0.065880
H151	H	1.030088	-0.799141	-0.353462
H152	H	1.530088	-0.299141	0.146538
H153	H	0.225701	-0.293378	-0.509850
H154	H	0.725701	0.206622	-0.009850
H155	H	0.860515	-0.503780	-1.173758
H156	H	1.360515	-0.003780	-0.673758
H157	H	0.886719	-1.155217	-0.485738
H158	H	1.386719	-0.655217	0.014262
H159	H	0.834802	-0.533019	-0.713216
H160	H	1.334802	-0.033019	-0.213216
F161	F	1.089928	-1.061403	-0.298476
F162	F	1.589928	-0.561403	0.201524
F163	F	0.697005	-0.305679	-0.501469
F164	F	1.197005	0.194321	-0.001469
F165	F	0.799261	-1.090183	-0.566267
F166	F	1.299261	-0.590183	-0.066267
H167	H	0.552179	-0.326815	-0.487222
H168	H	1.052179	0.173185	0.012778
H169	H	0.785424	-0.938460	-0.578943
H170	H	1.285424	-0.438460	-0.078943
F171	F	1.035488	-0.305120	-0.833144
F172	F	1.535488	0.194880	-0.333144
F173	F	1.074736	-0.260472	-1.007079
F174	F	1.574736	0.239528	-0.507079
F175	F	0.192907	-0.511001	-0.363016
F176	F	0.692907	-0.011001	0.136984
H177	H	1.054583	-0.283348	-1.151893
H178	H	1.554583	0.216652	-0.651893
