data_functionalizedCrystal
_audit_creation_method	'MofGen! by Chris Wilmer'
_symmetry_space_group_name_H-M	'P1'
_symmetry_Int_Tables_number	1
_symmetry_cell_setting	triclinic
loop_
_symmetry_equiv_pos_as_xyz
  x,y,z
_cell_length_a	19.188930
_cell_length_b	14.519709
_cell_length_c	12.996460
_cell_angle_alpha	90.007090
_cell_angle_beta	90.019467
_cell_angle_gamma	83.412462
loop_
_atom_site_label
_atom_site_type_symbol
_atom_site_fract_x
_atom_site_fract_y
_atom_site_fract_z
O1	O	-0.926556	-0.115137	-0.085900
O2	O	-0.593222	0.218196	0.247433
O3	O	-0.259889	0.551530	0.580767
O4	O	-0.723300	-0.130636	-0.085830
O5	O	-0.389966	0.202697	0.247504
O6	O	-0.056633	0.536030	0.580837
O7	O	-0.830317	0.011385	-0.085857
O8	O	-0.496983	0.344719	0.247476
O9	O	-0.163650	0.678052	0.580809
O10	O	-0.819539	-0.257159	-0.085872
O11	O	-0.486205	0.076175	0.247461
O12	O	-0.152872	0.409508	0.580794
O13	O	-0.830306	0.011393	0.085276
O14	O	-0.496972	0.344726	0.418610
O15	O	-0.163639	0.678060	0.751943
O16	O	-0.723288	-0.130629	0.085304
O17	O	-0.389955	0.202705	0.418637
O18	O	-0.056622	0.536038	0.751971
O19	O	-0.926545	-0.115129	0.085234
O20	O	-0.593211	0.218204	0.418567
O21	O	-0.259878	0.551537	0.751901
Cu22	Cu	-0.824915	-0.122878	0.100895
Cu23	Cu	-0.491582	0.210455	0.434228
Cu24	Cu	-0.158249	0.543788	0.767562
Cu25	Cu	-0.824929	-0.122887	-0.101491
Cu26	Cu	-0.491595	0.210446	0.231843
Cu27	Cu	-0.158262	0.543779	0.565176
O28	O	-0.819527	-0.257151	0.085262
O29	O	-0.486194	0.076182	0.418595
O30	O	-0.152861	0.409516	0.751928
C31	C	-0.697281	-0.130131	-0.000254
C32	C	-0.363948	0.203203	0.333080
C33	C	-0.030615	0.536536	0.666413
C34	C	-0.619771	-0.128624	-0.000227
C35	C	-0.286438	0.204710	0.333107
C36	C	0.046895	0.538043	0.666440
C37	C	-0.829809	0.045746	-0.000290
C38	C	-0.496475	0.379079	0.333043
C39	C	-0.163142	0.712412	0.666377
C40	C	-0.828304	0.148118	-0.000289
C41	C	-0.494970	0.481451	0.333044
C42	C	-0.161637	0.814784	0.666378
C43	C	-0.952563	-0.115635	-0.000344
C44	C	-0.619230	0.217698	0.332989
C45	C	-0.285896	0.551032	0.666322
C46	C	-1.030073	-0.117142	-0.000378
C47	C	-0.696740	0.216191	0.332955
C48	C	-0.363406	0.549525	0.666288
C49	C	-0.575144	-0.211957	-0.000247
C50	C	-0.241811	0.121376	0.333086
C51	C	0.091523	0.454709	0.666419
C52	C	-0.502315	-0.210542	-0.000259
C53	C	-0.168982	0.122791	0.333075
C54	C	0.164351	0.456125	0.666408
C55	C	-0.474117	-0.125788	-0.000270
C56	C	-0.140784	0.207545	0.333064
C57	C	0.192550	0.540879	0.666397
C58	C	-0.518754	-0.042444	-0.000243
C59	C	-0.185421	0.290890	0.333090
C60	C	0.147913	0.624223	0.666423
C61	C	-0.591581	-0.043861	-0.000222
C62	C	-0.258248	0.289472	0.333112
C63	C	0.075085	0.622805	0.666445
N64	N	-0.365910	-0.061007	-0.058552
N65	N	-0.032577	0.272326	0.274781
N66	N	0.300757	0.605660	0.608115
N67	N	-0.296727	-0.059666	-0.058575
N68	N	0.036607	0.273668	0.274759
N69	N	0.369940	0.607001	0.608092
C70	C	-0.254693	-0.121511	-0.000332
C71	C	0.078640	0.211822	0.333001
C72	C	0.411974	0.545156	0.666334
N73	N	-0.284455	-0.184762	0.057920
N74	N	0.048878	0.148571	0.391254
N75	N	0.382211	0.481904	0.724587
N76	N	-0.353645	-0.186106	0.057938
N77	N	-0.020311	0.147227	0.391272
N78	N	0.313022	0.480560	0.724605
C79	C	-0.395149	-0.124241	-0.000292
C80	C	-0.061816	0.209092	0.333041
C81	C	0.271518	0.542425	0.666374
C82	C	-0.131096	-0.203315	-0.000364
C83	C	0.202237	0.130018	0.332969
C84	C	0.535571	0.463351	0.666303
C85	C	-0.058266	-0.201896	-0.000369
C86	C	0.275067	0.131437	0.332965
C87	C	0.608401	0.464770	0.666298
C88	C	-0.074706	-0.033796	-0.000364
C89	C	0.258627	0.299538	0.332970
C90	C	0.591960	0.632871	0.666303
C91	C	-0.147535	-0.035217	-0.000348
C92	C	0.185799	0.298116	0.332985
C93	C	0.519132	0.631450	0.666318
C94	C	-0.175725	-0.119980	-0.000353
C95	C	0.157609	0.213354	0.332980
C96	C	0.490942	0.546687	0.666313
C97	C	-0.820035	-0.291511	-0.000308
C98	C	-0.486702	0.041822	0.333025
C99	C	-0.153369	0.375155	0.666359
C100	C	-0.821541	-0.393883	-0.000316
C101	C	-0.488207	-0.060550	0.333018
C102	C	-0.154874	0.272783	0.666351
N103	N	-0.824911	-0.122871	0.243242
N104	N	-0.491578	0.210462	0.576575
N105	N	-0.158245	0.543795	0.909909
C106	C	-0.822762	0.522979	-0.000314
C107	C	-0.489429	0.856312	0.333019
C108	C	-0.156096	1.189646	0.666353
C109	C	-0.824301	0.418681	-0.000307
C110	C	-0.490968	0.752014	0.333027
C111	C	-0.157634	1.085347	0.666360
C112	C	-0.825533	0.335552	-0.000300
C113	C	-0.492199	0.668885	0.333033
C114	C	-0.158866	1.002218	0.666366
C115	C	-0.827072	0.231247	-0.000295
C116	C	-0.493739	0.564580	0.333038
C117	C	-0.160405	0.897913	0.666371
N118	N	-0.824938	-0.122887	-0.243838
N119	N	-0.491605	0.210446	0.089496
N120	N	-0.158272	0.543779	0.422829
C121	C	-0.824928	-0.122888	0.663056
C122	C	-0.491594	0.210445	0.996390
C123	C	-0.158261	0.543778	1.329723
C124	C	-0.824921	-0.122887	0.546251
C125	C	-0.491588	0.210447	0.879584
C126	C	-0.158254	0.543780	1.212918
C127	C	-0.824920	-0.122880	0.453153
C128	C	-0.491587	0.210453	0.786486
C129	C	-0.158253	0.543786	1.119820
C130	C	-0.824913	-0.122877	0.336340
C131	C	-0.491579	0.210456	0.669674
C132	C	-0.158246	0.543789	1.003007
H133	H	-0.598091	-0.280978	-0.000253
H134	H	-0.264758	0.052356	0.333080
H135	H	0.068575	0.385689	0.666413
H136	H	-0.154049	-0.272334	-0.000353
H137	H	0.179284	0.060999	0.332980
H138	H	0.512617	0.394333	0.666314
Cl139	Cl	-0.002162	-0.306669	-0.000390
Cl140	Cl	0.331172	0.026664	0.332944
Cl141	Cl	0.664505	0.359998	0.666277
H142	H	-0.495790	0.026564	-0.000266
H143	H	-0.162457	0.359897	0.333067
H144	H	0.170876	0.693230	0.666400
Cl145	Cl	-0.039264	0.072753	-0.000366
Cl146	Cl	0.294069	0.406087	0.332968
Cl147	Cl	0.627403	0.739420	0.666301
Cl148	Cl	-0.203641	0.069552	-0.000329
Cl149	Cl	0.129693	0.402885	0.333005
Cl150	Cl	0.463026	0.736218	0.666338
Cl151	Cl	-0.446202	-0.315312	-0.000282
Cl152	Cl	-0.112869	0.018021	0.333051
Cl153	Cl	0.220465	0.351355	0.666384
Cl154	Cl	-0.647687	0.060910	-0.000197
Cl155	Cl	-0.314354	0.394243	0.333137
Cl156	Cl	0.018979	0.727576	0.666470
