data_functionalizedCrystal
_audit_creation_method	'MofGen! by Chris Wilmer'
_symmetry_space_group_name_H-M	'P1'
_symmetry_Int_Tables_number	1
_symmetry_cell_setting	triclinic
loop_
_symmetry_equiv_pos_as_xyz
  x,y,z
_cell_length_a	19.121241
_cell_length_b	17.640280
_cell_length_c	17.640968
_cell_angle_alpha	114.317439
_cell_angle_beta	103.122593
_cell_angle_gamma	80.716666
loop_
_atom_site_label
_atom_site_type_symbol
_atom_site_fract_x
_atom_site_fract_y
_atom_site_fract_z
Zn1	Zn	1.187661	-0.162486	0.471263
Zn2	Zn	1.187604	-0.328158	0.305621
Zn3	Zn	1.050458	-0.198617	0.325197
Zn4	Zn	1.089942	-0.306123	0.437516
O5	O	1.128916	-0.248846	0.384899
O6	O	1.285945	-0.178563	0.455222
O7	O	1.152863	-0.335317	0.191890
O8	O	1.052158	-0.079498	0.366889
O9	O	1.285903	-0.300281	0.333525
O10	O	1.152961	-0.052953	0.474203
O11	O	1.052102	-0.240144	0.206273
O12	O	0.957404	-0.218778	0.334165
O13	O	1.119453	-0.262727	0.558320
O14	O	0.986413	-0.297762	0.416685
O15	O	1.191247	-0.157197	0.583114
O16	O	1.191149	-0.439561	0.300801
O17	O	1.119397	-0.423372	0.397703
C18	C	1.159573	-0.461105	0.343485
C19	C	1.172757	-0.551900	0.325800
C20	C	0.946422	-0.259800	0.373888
C21	C	0.868356	-0.264502	0.369193
C22	C	1.029094	-0.808586	0.519573
C23	C	1.041480	-0.893908	0.502929
C24	C	1.116266	-0.910674	0.402135
C25	C	1.103889	-0.825351	0.418774
C26	C	1.060302	-0.774314	0.477493
C27	C	1.135097	-0.791079	0.376694
C28	C	1.122719	-0.705765	0.393329
C29	C	1.079132	-0.654722	0.452044
C30	C	1.047924	-0.689000	0.494128
C31	C	1.178680	-0.842119	0.317971
C32	C	1.209888	-0.807847	0.275891
C33	C	1.197514	-0.722529	0.292530
C34	C	1.153927	-0.671487	0.351245
C35	C	1.228722	-0.688252	0.250446
C36	C	1.216344	-0.602938	0.267081
C37	C	1.141549	-0.586173	0.367880
C38	C	0.831727	-0.203404	0.430413
C39	C	0.758374	-0.207820	0.425996
C40	C	0.721653	-0.273337	0.360360
C41	C	0.758287	-0.334437	0.299134
C42	C	0.831637	-0.330018	0.303549
C43	C	0.500179	-0.289845	0.343854
C44	C	0.426824	-0.294261	0.339445
C45	C	0.426916	-0.167642	0.466306
C46	C	0.500268	-0.163231	0.470718
C47	C	0.536895	-0.224329	0.409489
C48	C	0.646675	-0.277853	0.355845
C49	C	0.611871	-0.219809	0.414002
C50	C	1.312123	-0.237849	0.395954
C51	C	1.390195	-0.233163	0.400665
C52	C	1.159761	-0.203473	0.601723
C53	C	1.172905	-0.184138	0.694120
C54	C	1.098161	-0.035753	0.426494
C55	C	1.085055	0.055054	0.444220
C56	C	1.098223	-0.293981	0.168933
C57	C	1.085182	-0.313077	0.076589
C58	C	1.029267	-0.395272	0.933458
C59	C	1.041631	-0.377092	1.020282
C60	C	1.116383	-0.267213	1.046088
C61	C	1.104022	-0.285381	0.959265
C62	C	1.060464	-0.349412	0.902956
C63	C	1.135220	-0.239521	0.928763
C64	C	1.122863	-0.257690	0.841946
C65	C	1.079309	-0.321720	0.785632
C66	C	1.048107	-0.367581	0.816140
C67	C	1.178782	-0.175494	0.985072
C68	C	1.209980	-0.129634	0.954570
C69	C	1.197619	-0.147799	0.867753
C70	C	1.154064	-0.211829	0.811439
C71	C	1.228820	-0.101938	0.837245
C72	C	1.216463	-0.120107	0.750429
C73	C	1.141707	-0.229998	0.724622
H74	H	1.106062	-0.544614	0.415701
C75	C	1.093795	-0.300432	0.662664
C76	C	1.014679	-0.296069	0.671070
C77	C	0.966773	-0.366500	0.609107
C78	C	0.997983	-0.441294	0.538738
C79	C	1.077103	-0.445660	0.530328
C80	C	1.125009	-0.375229	0.592292
H81	H	0.991572	-0.240699	0.723164
H82	H	0.908202	-0.363268	0.615333
H83	H	0.962520	-0.493431	0.492869
H84	H	1.100210	-0.501029	0.478234
H85	H	1.183580	-0.378461	0.586066
C86	C	1.164295	-0.196781	1.108030
C87	C	1.143455	-0.106749	1.113873
C88	C	1.191367	-0.036314	1.175812
C89	C	1.260119	-0.055910	1.231908
C90	C	1.280962	-0.145946	1.226066
C91	C	1.233050	-0.216382	1.164127
H92	H	1.092558	-0.092239	1.072347
H93	H	1.175937	0.030337	1.180137
H94	H	1.295586	-0.003770	1.277759
H95	H	1.331859	-0.160457	1.267593
H96	H	1.248481	-0.283032	1.159803
C97	C	1.276736	-0.031511	0.899191
C98	C	1.345486	-0.051119	0.955281
C99	C	1.393402	0.019309	1.017226
C100	C	1.372570	0.109345	1.023080
C101	C	1.303817	0.128957	0.966988
C102	C	1.255900	0.058530	0.905043
H103	H	1.360910	-0.117773	0.950949
H104	H	1.444298	0.004790	1.058749
H105	H	1.408040	0.161480	1.068936
H106	H	1.288392	0.195611	0.971320
H107	H	1.205004	0.073049	0.863520
H108	H	0.728554	-0.158069	0.475849
H109	H	0.993607	-0.767028	0.567395
C110	C	0.872117	-0.131334	0.502614
C111	C	0.831820	-0.064125	0.569952
C112	C	0.872207	0.007949	0.642153
C113	C	0.952890	0.012815	0.647017
C114	C	0.993191	-0.054396	0.579677
C115	C	0.952804	-0.126470	0.507475
H116	H	0.772090	-0.067725	0.566354
H117	H	0.842373	0.057703	0.692003
H118	H	0.982787	0.066169	0.700464
H119	H	1.052921	-0.050796	0.583275
H120	H	0.982638	-0.176224	0.457626
H121	H	0.530163	-0.109883	0.524168
H122	H	1.069049	-0.585256	0.465581
H123	H	0.397086	-0.117898	0.516154
H124	H	1.012437	-0.647441	0.541950
C125	C	1.250673	-0.565228	0.220799
C126	C	1.233272	-0.597092	0.123659
C127	C	1.267598	-0.559381	0.077374
C128	C	1.319326	-0.489806	0.128229
C129	C	1.336729	-0.457938	0.225375
C130	C	1.302402	-0.495649	0.271660
H131	H	1.194978	-0.648599	0.086007
H132	H	1.254715	-0.582973	0.005460
H133	H	1.344736	-0.461890	0.093966
H134	H	1.375023	-0.406431	0.263026
H135	H	1.315286	-0.472057	0.343574
H136	H	0.396928	-0.347617	0.285995
H137	H	1.012618	-0.419703	0.770292
H138	H	1.016073	-0.921805	0.537210
C139	C	0.540461	-0.357061	0.276509
C140	C	0.515929	-0.370641	0.182738
C141	C	0.556214	-0.437863	0.115391
C142	C	0.621032	-0.491506	0.141815
C143	C	0.645568	-0.477928	0.235591
C144	C	0.605283	-0.410705	0.302938
H145	H	0.467944	-0.330930	0.163174
H146	H	0.538051	-0.447915	0.045972
H147	H	0.650853	-0.541268	0.091961
H148	H	0.693553	-0.517639	0.255155
H149	H	0.623446	-0.400654	0.372356
C150	C	0.871933	-0.397227	0.236206
C151	C	0.831545	-0.469296	0.164009
C152	C	0.871839	-0.536504	0.096661
C153	C	0.952520	-0.531643	0.101511
C154	C	0.992913	-0.459571	0.173712
C155	C	0.952619	-0.392363	0.241059
H156	H	0.771816	-0.472897	0.160416
H157	H	0.841937	-0.589856	0.043214
H158	H	0.982348	-0.581395	0.051656
H159	H	1.052642	-0.455970	0.177304
H160	H	0.982521	-0.339011	0.294507
H161	H	0.728382	-0.387780	0.245689
H162	H	0.641771	-0.166463	0.467439
H163	H	1.151752	-0.952241	0.354324
C164	C	0.981354	-0.465705	0.871500
C165	C	0.902238	-0.461343	0.879906
C166	C	0.854332	-0.531774	0.817943
C167	C	0.885542	-0.606567	0.747573
C168	C	0.964662	-0.610933	0.739164
C169	C	1.012568	-0.540502	0.801127
H170	H	0.879131	-0.405973	0.932000
H171	H	0.795761	-0.528541	0.824168
H172	H	0.850079	-0.658705	0.701705
H173	H	0.987769	-0.666303	0.687070
H174	H	1.071139	-0.543735	0.794902
C175	C	1.257890	-0.059201	1.016515
C176	C	1.326640	-0.078797	1.072612
C177	C	1.374549	-0.008361	1.134556
C178	C	1.353707	0.081672	1.140402
C179	C	1.284954	0.101272	1.084303
C180	C	1.237045	0.030836	1.022359
H181	H	1.342071	-0.145448	1.068286
H182	H	1.425445	-0.022871	1.176085
H183	H	1.389172	0.133813	1.186257
H184	H	1.269523	0.167923	1.088629
H185	H	1.186149	0.045346	0.980830
C186	C	1.250776	-0.069662	0.716868
C187	C	1.233334	0.025366	0.746577
C188	C	1.267650	0.075809	0.713014
C189	C	1.319409	0.031223	0.649742
C190	C	1.336853	-0.063810	0.620029
C191	C	1.302537	-0.114253	0.653592
H192	H	1.195017	0.058375	0.793419
H193	H	1.254736	0.146159	0.735010
H194	H	1.344811	0.068564	0.624896
H195	H	1.375170	-0.096819	0.573187
H196	H	1.315451	-0.184603	0.631596
H197	H	1.188759	-0.911586	0.304431
H198	H	1.245374	-0.849413	0.228080
H199	H	1.264205	-0.729821	0.202631
H200	H	0.616769	-0.331197	0.302404
H201	H	1.069252	-0.336515	0.714941
H202	H	1.016223	-0.414442	1.045112
H203	H	1.188844	-0.160705	1.055762
