data_functionalizedCrystal
_audit_creation_method	'MofGen! by Chris Wilmer'
_symmetry_space_group_name_H-M	'P1'
_symmetry_Int_Tables_number	1
_symmetry_cell_setting	triclinic
loop_
_symmetry_equiv_pos_as_xyz
  x,y,z
_cell_length_a	14.519709
_cell_length_b	14.519709
_cell_length_c	14.048226
_cell_angle_alpha	89.992623
_cell_angle_beta	89.999158
_cell_angle_gamma	83.680145
loop_
_atom_site_label
_atom_site_type_symbol
_atom_site_fract_x
_atom_site_fract_y
_atom_site_fract_z
O1	O	1.223870	0.120893	-0.079039
O2	O	1.557203	0.454227	0.254295
O3	O	1.890537	0.787560	0.587628
O4	O	0.955393	0.135130	-0.079068
O5	O	1.288726	0.468463	0.254265
O6	O	1.622060	0.801796	0.587599
O7	O	1.096750	-0.006227	-0.079044
O8	O	1.430083	0.327106	0.254289
O9	O	1.763416	0.660440	0.587623
O10	O	1.082513	0.262250	-0.079063
O11	O	1.415846	0.595583	0.254271
O12	O	1.749180	0.928917	0.587604
O13	O	1.096733	-0.006235	0.079277
O14	O	1.430066	0.327098	0.412611
O15	O	1.763399	0.660431	0.745944
O16	O	0.955376	0.135121	0.079253
O17	O	1.288709	0.468455	0.412587
O18	O	1.622043	0.801788	0.745920
O19	O	1.223853	0.120885	0.079283
O20	O	1.557186	0.454218	0.412616
O21	O	1.890520	0.787551	0.745949
Zn22	Zn	1.089612	0.128002	0.104405
Zn23	Zn	1.422945	0.461335	0.437738
Zn24	Zn	1.756278	0.794668	0.771072
Zn25	Zn	1.089634	0.128013	-0.104190
Zn26	Zn	1.422967	0.461346	0.229143
Zn27	Zn	1.756301	0.794679	0.562476
O28	O	1.082496	0.262242	0.079259
O29	O	1.415829	0.595575	0.412592
O30	O	1.749163	0.928908	0.745925
C31	C	0.921025	0.134462	0.000089
C32	C	1.254358	0.467795	0.333422
C33	C	1.587691	0.801129	0.666756
C34	C	0.818643	0.132474	0.000078
C35	C	1.151977	0.465807	0.333411
C36	C	1.485310	0.799141	0.666745
C37	C	0.443748	0.125154	0.000122
C38	C	0.777081	0.458488	0.333455
C39	C	1.110414	0.791821	0.666788
C40	C	0.548056	0.127187	0.000109
C41	C	0.881389	0.460520	0.333443
C42	C	1.214722	0.793854	0.666776
C43	C	0.631192	0.128814	0.000099
C44	C	0.964526	0.462147	0.333432
C45	C	1.297859	0.795481	0.666766
C46	C	0.735507	0.130847	0.000088
C47	C	1.068840	0.464180	0.333422
C48	C	1.402173	0.797514	0.666755
C49	C	1.096078	-0.040591	0.000117
C50	C	1.429411	0.292742	0.333450
C51	C	1.762744	0.626076	0.666783
C52	C	1.094090	-0.142972	0.000117
C53	C	1.427423	0.190361	0.333450
C54	C	1.760756	0.523694	0.666784
C55	C	1.086770	-0.517868	0.000091
C56	C	1.420103	-0.184535	0.333425
C57	C	1.753437	0.148799	0.666758
C58	C	1.088803	-0.413560	0.000099
C59	C	1.422136	-0.080227	0.333432
C60	C	1.755469	0.253107	0.666766
C61	C	1.090430	-0.330423	0.000105
C62	C	1.423763	0.002910	0.333438
C63	C	1.757096	0.336243	0.666772
C64	C	1.092463	-0.226109	0.000111
C65	C	1.425796	0.107224	0.333444
C66	C	1.759129	0.440558	0.666777
C67	C	1.258221	0.121553	0.000124
C68	C	1.591554	0.454886	0.333457
C69	C	1.924888	0.788219	0.666790
C70	C	1.360602	0.123541	0.000128
C71	C	1.693936	0.456874	0.333462
C72	C	2.027269	0.790207	0.666795
C73	C	1.083168	0.296605	0.000096
C74	C	1.416501	0.629939	0.333429
C75	C	1.749835	0.963272	0.666762
C76	C	1.085156	0.398987	0.000089
C77	C	1.418490	0.732320	0.333422
C78	C	1.751823	1.065653	0.666756
N79	N	1.089603	0.127994	0.246766
N80	N	1.422936	0.461327	0.580099
N81	N	1.756270	0.794660	0.913432
N82	N	1.089650	0.128014	-0.246551
N83	N	1.422983	0.461347	0.086782
N84	N	1.756317	0.794680	0.420116
C85	C	1.152216	0.065427	0.296594
C86	C	1.485549	0.398760	0.629928
C87	C	1.818882	0.732093	0.963261
C88	C	1.152222	0.065426	0.396252
C89	C	1.485555	0.398760	0.729585
C90	C	1.818888	0.732093	1.062919
C91	C	1.089619	0.127998	0.446079
C92	C	1.422953	0.461331	0.779412
C93	C	1.756286	0.794664	1.112746
C94	C	1.027000	0.190568	0.396243
C95	C	1.360333	0.523901	0.729577
C96	C	1.693667	0.857234	1.062910
C97	C	1.026990	0.190563	0.296588
C98	C	1.360324	0.523896	0.629921
C99	C	1.693657	0.857230	0.963254
C100	C	1.027027	0.190574	0.603958
C101	C	1.360360	0.523908	0.937291
C102	C	1.693693	0.857241	1.270624
C103	C	1.027038	0.190580	0.703620
C104	C	1.360371	0.523914	1.036954
C105	C	1.693704	0.857247	1.370287
C106	C	1.152258	0.065438	0.703622
C107	C	1.485592	0.398771	1.036955
C108	C	1.818925	0.732104	1.370289
C109	C	1.152248	0.065433	0.603966
C110	C	1.485582	0.398766	0.937299
C111	C	1.818915	0.732100	1.270633
C112	C	1.089630	0.128004	0.554137
C113	C	1.422964	0.461338	0.887471
C114	C	1.756297	0.794671	1.220804
H115	H	1.203198	0.014478	0.256031
H116	H	1.536531	0.347811	0.589365
H117	H	1.869864	0.681144	0.922698
H118	H	0.976033	0.241524	0.563390
H119	H	1.309366	0.574857	0.896724
H120	H	1.642700	0.908190	1.230057
H121	H	1.203205	0.014479	0.436822
H122	H	1.536538	0.347812	0.770155
H123	H	1.869872	0.681146	1.103489
O124	O	1.213212	0.004747	0.751980
O125	O	1.546546	0.338080	1.085314
O126	O	1.879879	0.671413	1.418647
C127	C	1.373481	-0.048952	0.782423
C128	C	1.706815	0.284381	1.115757
C129	C	2.040148	0.617714	1.449090
C130	C	1.304552	0.019836	0.727609
C131	C	1.637886	0.353169	1.060942
C132	C	1.971219	0.686502	1.394276
H133	H	1.447345	-0.036790	0.762724
H134	H	1.780678	0.296543	1.096058
H135	H	2.114011	0.629877	1.429391
H136	H	1.362813	-0.038204	0.862219
H137	H	1.696146	0.295129	1.195553
H138	H	2.029480	0.628463	1.528886
H139	H	1.361306	-0.122841	0.762856
H140	H	1.694640	0.210492	1.096190
H141	H	2.027973	0.543825	1.429523
H142	H	1.316686	0.093752	0.747096
H143	H	1.650019	0.427085	1.080430
H144	H	1.983352	0.760419	1.413763
H145	H	1.315237	0.009006	0.647826
H146	H	1.648571	0.342340	0.981160
H147	H	1.981904	0.675673	1.314493
H148	H	0.976059	0.241532	0.744185
H149	H	1.309392	0.574865	1.077518
H150	H	1.642726	0.908198	1.410851
O151	O	1.212837	0.004427	0.555567
O152	O	1.546171	0.337761	0.888901
O153	O	1.879504	0.671094	1.222234
C154	C	1.231901	-0.121832	0.443466
C155	C	1.565234	0.211501	0.776799
C156	C	1.898568	0.544834	1.110132
C157	C	1.163249	-0.052656	0.498128
C158	C	1.496582	0.280678	0.831462
C159	C	1.829915	0.614011	1.164795
H160	H	1.191836	-0.168015	0.397028
H161	H	1.525169	0.165319	0.730362
H162	H	1.858502	0.498652	1.063695
H163	H	1.278168	-0.082243	0.396621
H164	H	1.611501	0.251091	0.729955
H165	H	1.944835	0.584424	1.063288
H166	H	1.276533	-0.166496	0.496341
H167	H	1.609867	0.166837	0.829674
H168	H	1.943200	0.500170	1.163008
H169	H	1.118556	-0.007974	0.445322
H170	H	1.451889	0.325359	0.778655
H171	H	1.785222	0.658692	1.111988
H172	H	1.117046	-0.092302	0.544987
H173	H	1.450379	0.241031	0.878320
H174	H	1.783712	0.574365	1.211654
H175	H	0.976023	0.241512	0.436818
H176	H	1.309357	0.574845	0.770152
H177	H	1.642690	0.908178	1.103485
H178	H	0.976004	0.241510	0.256018
H179	H	1.309337	0.574843	0.589351
H180	H	1.642670	0.908177	0.922685
