data_functionalizedCrystal
_audit_creation_method	'MofGen! by Chris Wilmer'
_symmetry_space_group_name_H-M	'P1'
_symmetry_Int_Tables_number	1
_symmetry_cell_setting	triclinic
loop_
_symmetry_equiv_pos_as_xyz
  x,y,z
_cell_length_a	10.686285
_cell_length_b	10.685661
_cell_length_c	10.685880
_cell_angle_alpha	81.602365
_cell_angle_beta	89.638885
_cell_angle_gamma	80.943086
loop_
_atom_site_label
_atom_site_type_symbol
_atom_site_fract_x
_atom_site_fract_y
_atom_site_fract_z
Zn1	Zn	-0.721841	2.047208	-0.814826
Zn2	Zn	-0.915365	2.044615	-0.588816
Zn3	Zn	-0.686856	1.816158	-0.588847
Zn4	Zn	-0.915251	1.848726	-0.784780
O5	O	-0.809828	1.939177	-0.694317
O6	O	-0.762202	2.225539	-0.797408
O7	O	-0.870459	1.999595	-0.412236
O8	O	-0.514922	1.834262	-0.631411
O9	O	-0.904383	2.223635	-0.631359
O10	O	-0.540625	2.004013	-0.797437
O11	O	-0.702574	1.831748	-0.412258
O12	O	-0.702464	1.641803	-0.602276
O13	O	-0.904188	1.889770	-0.965350
O14	O	-0.870265	1.665731	-0.746227
O15	O	-0.762091	2.035594	-0.987425
O16	O	-1.091925	2.031175	-0.602224
O17	O	-1.091841	1.887257	-0.746198
C18	C	-0.782556	1.607438	-0.670995
C19	C	-0.770922	1.465524	-0.661045
C20	C	-1.137672	1.962506	-0.670977
C21	C	-1.277938	1.972606	-0.661043
C22	C	-0.480709	1.915794	-0.717779
C23	C	-0.340458	1.905830	-0.727777
C24	C	-0.837029	1.966604	-1.023455
C25	C	-0.848621	1.978292	-1.163713
C26	C	-0.837208	2.272211	-0.717732
C27	C	-0.848875	2.414130	-0.727709
C28	C	-0.782648	1.911923	-0.366472
C29	C	-0.770721	1.900457	-0.226257
H30	H	-0.695275	1.400948	-0.596358
H31	H	-1.331725	2.037497	-0.596293
O32	O	-0.680415	1.810340	-1.162292
C33	C	-0.559568	1.831974	-1.205308
H34	H	-0.568804	1.888764	-1.304668
H35	H	-0.495771	1.736165	-1.207246
H36	H	-0.516407	1.888484	-1.138795
O37	O	-0.939148	1.490966	-0.804988
C38	C	-1.009312	1.414693	-0.864945
H39	H	-0.950301	1.316300	-0.866485
H40	H	-1.034272	1.462589	-0.966056
H41	H	-1.100098	1.403516	-0.810781
O42	O	-1.276276	1.828603	-0.805168
C43	C	-1.212629	1.902596	-0.897160
H44	H	-1.261257	2.006632	-0.909322
H45	H	-1.215231	1.864312	-0.991097
H46	H	-1.109936	1.896675	-0.865450
O47	O	-0.938608	2.068606	-1.227916
C48	C	-0.879775	2.152233	-1.315091
H49	H	-0.777790	2.149771	-1.282937
H50	H	-0.933616	2.253873	-1.320357
H51	H	-0.880347	2.120682	-1.412469
