data_functionalizedCrystal
_audit_creation_method	'MofGen! by Chris Wilmer'
_symmetry_space_group_name_H-M	'P1'
_symmetry_Int_Tables_number	1
_symmetry_cell_setting	triclinic
loop_
_symmetry_equiv_pos_as_xyz
  x,y,z
_cell_length_a	10.540539
_cell_length_b	17.038272
_cell_length_c	9.616153
_cell_angle_alpha	89.997688
_cell_angle_beta	89.995174
_cell_angle_gamma	87.818524
loop_
_atom_site_label
_atom_site_type_symbol
_atom_site_fract_x
_atom_site_fract_y
_atom_site_fract_z
O1	O	1.696176	0.110247	-0.115581
O2	O	1.327732	0.120634	-0.115599
O3	O	1.509764	0.001613	-0.115579
O4	O	1.514144	0.229269	-0.115601
O5	O	1.509738	0.001615	0.115712
O6	O	1.327705	0.120637	0.115693
O7	O	1.696149	0.110249	0.115710
Zn8	Zn	1.511923	0.115443	0.152424
Zn9	Zn	1.511958	0.115440	-0.152313
O10	O	1.514117	0.229271	0.115690
C11	C	1.280343	0.119857	0.000045
C12	C	1.139177	0.117526	0.000039
C13	C	1.505768	-0.027537	0.000066
C14	C	1.493883	-0.114398	0.000065
C15	C	0.947420	0.028219	0.000587
C16	C	1.094259	0.030581	0.000051
C17	C	1.081423	0.159366	-0.132039
C18	C	0.934602	0.156399	-0.132135
C19	C	0.934248	0.158170	0.130886
C20	C	1.081305	0.158971	0.132618
C21	C	1.602994	-0.163886	0.000072
C22	C	1.591820	-0.245501	0.000058
C23	C	1.471534	-0.277626	0.000048
C24	C	1.362416	-0.228133	0.000037
C25	C	1.373591	-0.146519	0.000041
C26	C	1.432055	-0.523611	0.000027
C27	C	1.420888	-0.605231	0.000027
C28	C	1.650293	-0.622593	0.000046
C29	C	1.661457	-0.540977	0.000058
C30	C	1.552339	-0.491491	0.000040
C31	C	1.460110	-0.361050	0.000038
C32	C	1.563764	-0.408069	0.000040
C33	C	1.743538	0.111027	0.000063
C34	C	1.884704	0.113358	0.000061
C35	C	1.518114	0.258421	0.000042
C36	C	1.529998	0.345282	0.000034
N37	N	1.511909	0.115445	0.360398
N38	N	1.511982	0.115432	-0.360287
C39	C	1.414198	0.178900	0.580758
C40	C	1.414448	0.179138	0.419590
C41	C	1.646364	0.134015	0.418852
C42	C	1.645842	0.134465	0.580070
C43	C	1.476466	0.033212	0.580316
C44	C	1.473469	0.033745	0.419089
H45	H	0.915620	-0.006128	0.095308
H46	H	1.721346	0.090100	0.619066
C47	C	1.689988	0.018332	0.281784
C48	C	1.747434	0.073323	0.367084
H49	H	1.752387	-0.019133	0.249817
H50	H	1.627103	-0.007611	0.333275
H51	H	1.651534	0.044448	0.204395
H52	H	1.785881	0.047207	0.444478
H53	H	1.810343	0.099268	0.315591
C54	C	1.735028	-0.755409	0.000034
C55	C	1.770230	-0.676990	0.000046
H56	H	1.809078	-0.788990	0.000021
H57	H	1.686074	-0.765218	0.080685
H58	H	1.686074	-0.765205	-0.080629
H59	H	1.819176	-0.667193	0.080714
H60	H	1.819205	-0.667178	-0.080614
H61	H	1.680669	-0.285790	0.000066
C62	C	1.216785	-0.309843	-0.118869
C63	C	1.230197	-0.263446	0.000026
H64	H	1.135160	-0.331646	-0.118865
H65	H	1.225915	-0.278364	-0.199510
H66	H	1.280177	-0.350994	-0.118849
H67	H	1.166810	-0.222292	0.000001
H68	H	1.221055	-0.294928	0.080688
C69	C	1.686344	0.216888	0.776410
C70	C	1.686284	0.215438	0.630820
H71	H	1.711324	0.266877	0.807732
H72	H	1.603492	0.207408	0.809738
H73	H	1.744276	0.177370	0.810495
H74	H	1.628345	0.254953	0.596734
H75	H	1.769149	0.224927	0.597478
H76	H	1.322932	-0.631384	0.000041
C77	C	1.470888	0.310122	0.523087
C78	C	1.445672	0.260788	0.635406
H79	H	1.490313	0.360677	0.556828
H80	H	1.541037	0.288751	0.471783
H81	H	1.398404	0.314406	0.464489
H82	H	1.518160	0.256499	0.693999
H83	H	1.375517	0.282164	0.686733
H84	H	1.362173	-0.387215	0.000033
C85	C	1.243472	0.089678	0.589536
C86	C	1.279267	0.164054	0.633160
H87	H	1.160173	0.080511	0.621904
H88	H	1.244897	0.087322	0.490860
H89	H	1.301064	0.050761	0.626279
H90	H	1.221681	0.202972	0.596408
H91	H	1.277833	0.166417	0.731856
H92	H	1.438038	0.240138	0.381006
C93	C	1.540211	-0.103590	0.578376
C94	C	1.572578	-0.030565	0.631786
H95	H	1.599554	-0.142956	0.610153
H96	H	1.457509	-0.115551	0.609095
H97	H	1.541640	-0.101790	0.479655
H98	H	1.571140	-0.032364	0.730508
H99	H	1.655301	-0.018601	0.601076
H100	H	1.343202	-0.483328	0.000013
C101	C	0.923042	0.282415	0.248957
C102	C	0.878403	0.242947	0.132095
H103	H	0.888565	0.334751	0.249687
H104	H	0.897782	0.256062	0.330880
H105	H	1.013053	0.283210	0.245541
H106	H	0.788392	0.242147	0.135516
H107	H	0.903655	0.269307	0.050151
C108	C	1.236172	0.228003	0.285652
C109	C	1.279894	0.164093	0.366252
H110	H	1.153097	0.218721	0.252731
H111	H	1.234250	0.274307	0.340731
H112	H	1.291509	0.234316	0.208817
H113	H	1.224562	0.157784	0.443094
H114	H	1.281807	0.117777	0.311171
H115	H	1.676794	0.193323	0.378457
H116	H	0.900066	0.130034	0.231000
H117	H	1.380080	0.015538	0.621051
H118	H	1.374518	0.019669	0.380886
H119	H	1.539379	-0.015754	0.378802
H120	H	1.284741	-0.106227	0.000035
C121	C	1.035729	0.090767	-0.343214
C122	C	1.135261	0.120139	-0.264742
H123	H	1.068969	0.066555	-0.425141
H124	H	0.992670	0.053179	-0.289787
H125	H	0.978057	0.132652	-0.367950
H126	H	1.192928	0.078253	-0.239997
H127	H	1.178340	0.157731	-0.318179
C128	C	1.709418	-0.326354	-0.118841
C129	C	1.695978	-0.372756	0.000052
H130	H	1.791039	-0.304545	-0.118821
H131	H	1.700321	-0.357832	-0.199483
H132	H	1.646019	-0.285208	-0.118834
H133	H	1.759372	-0.413906	0.000041
H134	H	1.705089	-0.341276	0.080716
H135	H	1.132922	-0.002574	-0.094786
C136	C	1.047325	-0.042868	0.205600
C137	C	1.147636	-0.013867	0.127856
H138	H	1.080277	-0.070316	0.284497
H139	H	0.992980	-0.000385	0.235315
H140	H	1.000700	-0.077585	0.149716
H141	H	1.194256	0.020854	0.183737
H142	H	1.202003	-0.056356	0.098142
H143	H	1.119404	0.128406	0.230328
H144	H	0.914033	-0.005985	-0.093600
H145	H	1.700943	-0.137736	0.000089
C146	C	0.918660	0.276519	-0.262609
C147	C	0.877701	0.240804	-0.140264
H148	H	0.883526	0.328624	-0.267637
H149	H	1.008672	0.277758	-0.262477
H150	H	0.891538	0.247403	-0.340685
H151	H	0.904831	0.269918	-0.062187
H152	H	0.787669	0.239570	-0.140383
H153	H	1.109732	0.223216	-0.136959
C154	C	1.887092	-0.566340	0.000074
C155	C	1.793679	-0.505667	0.000071
H156	H	1.968720	-0.544540	0.000081
H157	H	1.877948	-0.597814	0.080720
H158	H	1.877971	-0.597808	-0.080593
H159	H	1.802795	-0.474203	0.080744
H160	H	1.802828	-0.474181	-0.080583
H161	H	1.111443	0.222359	0.140586
H162	H	0.903518	0.125473	-0.230858
