data_functionalizedCrystal
_audit_creation_method	'MofGen! by Chris Wilmer'
_symmetry_space_group_name_H-M	'P1'
_symmetry_Int_Tables_number	1
_symmetry_cell_setting	triclinic
loop_
_symmetry_equiv_pos_as_xyz
  x,y,z
_cell_length_a	19.288840
_cell_length_b	11.792254
_cell_length_c	18.366186
_cell_angle_alpha	89.993617
_cell_angle_beta	89.983729
_cell_angle_gamma	83.662307
loop_
_atom_site_label
_atom_site_type_symbol
_atom_site_fract_x
_atom_site_fract_y
_atom_site_fract_z
O1	O	0.922171	0.141446	-0.060672
O2	O	1.422171	0.641446	0.439328
O3	O	0.720017	0.160575	-0.060647
O4	O	1.220017	0.660575	0.439353
O5	O	0.825995	-0.014234	-0.060655
O6	O	1.325995	0.485766	0.439345
O7	O	0.816193	0.316255	-0.060664
O8	O	1.316193	0.816255	0.439336
O9	O	0.825977	-0.014243	0.060445
O10	O	1.325977	0.485757	0.560445
O11	O	0.719999	0.160566	0.060453
O12	O	1.219999	0.660566	0.560453
O13	O	0.922153	0.141437	0.060428
O14	O	1.422153	0.641437	0.560428
Zn15	Zn	0.821073	0.151000	0.079667
Zn16	Zn	1.321073	0.651000	0.579667
Zn17	Zn	0.821097	0.151012	-0.079886
Zn18	Zn	1.321097	0.651012	0.420114
O19	O	0.816175	0.316246	0.060436
O20	O	1.316175	0.816246	0.560436
C21	C	0.694128	0.159960	-0.000094
C22	C	1.194128	0.659960	0.499906
C23	C	0.617013	0.158126	-0.000084
C24	C	1.117013	0.658126	0.499916
C25	C	0.580814	0.157250	-0.066097
C26	C	1.080814	0.657250	0.433903
C27	C	0.508358	0.155515	-0.066106
C28	C	1.008358	0.655515	0.433894
C29	C	0.472104	0.154633	-0.000098
C30	C	0.972104	0.654633	0.499902
C31	C	0.508311	0.155515	0.065924
C32	C	1.008311	0.655515	0.565924
C33	C	0.580765	0.157262	0.065931
C34	C	1.080765	0.657262	0.565931
C35	C	0.362373	0.085385	0.050465
C36	C	0.862373	0.585385	0.550465
C37	C	0.289921	0.083631	0.050456
C38	C	0.789921	0.583631	0.550456
C39	C	0.248630	0.149250	-0.000117
C40	C	0.748630	0.649250	0.499883
C41	C	0.279801	0.216608	-0.050691
C42	C	0.779801	0.716608	0.449309
C43	C	0.352256	0.218355	-0.050684
C44	C	0.852256	0.718355	0.449316
C45	C	0.393539	0.152739	-0.000098
C46	C	0.893539	0.652739	0.499902
C47	C	0.133865	0.146494	-0.066144
C48	C	0.633865	0.646494	0.433856
C49	C	0.061406	0.144766	-0.066150
C50	C	0.561406	0.644766	0.433850
C51	C	0.061362	0.144755	0.065882
C52	C	0.561362	0.644755	0.565882
C53	C	0.133818	0.146495	0.065886
C54	C	0.633818	0.646495	0.565886
C55	C	0.170066	0.147359	-0.000129
C56	C	0.670066	0.647359	0.499871
C57	C	0.825369	-0.056520	-0.000105
C58	C	1.325369	0.443480	0.499895
C59	C	0.823521	-0.182505	-0.000105
C60	C	1.323521	0.317495	0.499895
C61	C	0.822019	-0.284818	-0.000108
C62	C	1.322019	0.215182	0.499892
C63	C	0.820141	-0.413176	-0.000114
C64	C	1.320141	0.086824	0.499886
C65	C	0.948042	0.142052	-0.000127
C66	C	1.448042	0.642052	0.499873
C67	C	1.025157	0.143886	-0.000141
C68	C	1.525157	0.643886	0.499859
C69	C	0.816802	0.358532	-0.000115
C70	C	1.316802	0.858532	0.499885
C71	C	0.818650	0.484517	-0.000120
C72	C	1.318650	0.984517	0.499880
N73	N	0.821062	0.150992	0.188559
N74	N	1.321062	0.650992	0.688559
N75	N	0.821114	0.151011	-0.188777
N76	N	1.321114	0.651011	0.311223
C77	C	0.868005	0.073624	0.226655
C78	C	1.368005	0.573624	0.726655
C79	C	0.868009	0.073619	0.302883
C80	C	1.368009	0.573619	0.802883
C81	C	0.821077	0.151001	0.341011
C82	C	1.321077	0.651001	0.841011
C83	C	0.774126	0.228375	0.302905
C84	C	1.274126	0.728375	0.802905
C85	C	0.774118	0.228370	0.226679
C86	C	1.274118	0.728370	0.726679
C87	C	0.812370	0.254413	0.461769
C88	C	1.312370	0.754413	0.961769
C89	C	0.812382	0.254419	0.537994
C90	C	1.312382	0.754419	1.037994
C91	C	0.821097	0.151015	0.576119
C92	C	1.321097	0.651015	1.076119
C93	C	0.829815	0.047601	0.538009
C94	C	1.329815	0.547601	1.038009
C95	C	0.829807	0.047596	0.461782
C96	C	1.329807	0.547596	0.961782
C97	C	0.821080	0.151014	0.423666
C98	C	1.321080	0.651014	0.923666
C99	C	0.868047	0.073636	0.696871
C100	C	1.368047	0.573636	1.196871
C101	C	0.868047	0.073629	0.773100
C102	C	1.368047	0.573629	1.273100
C103	C	0.774167	0.228395	0.773120
C104	C	1.274167	0.728395	1.273120
C105	C	0.774164	0.228391	0.696893
C106	C	1.274164	0.728391	1.196893
C107	C	0.821108	0.151013	0.658772
C108	C	1.321108	0.651013	1.158772
H109	H	0.377632	0.273203	-0.091863
H110	H	0.877632	0.773203	0.408137
H111	H	0.163292	0.147201	0.119641
H112	H	0.663292	0.647201	0.619641
H113	H	0.395987	0.031947	0.091651
H114	H	0.895987	0.531947	0.591651
C115	C	0.468431	0.154543	0.138533
C116	C	0.968431	0.654543	0.638533
N117	N	0.438393	0.153814	0.193224
N118	N	0.938393	0.653814	0.693224
H119	H	0.735952	0.291396	0.804164
H120	H	1.235952	0.791396	1.304164
H121	H	0.906237	0.010615	0.333907
H122	H	1.406237	0.510615	0.833907
C123	C	0.722573	0.313585	0.654984
C124	C	1.222573	0.813585	1.154984
N125	N	0.683728	0.377782	0.623420
N126	N	1.183728	0.877782	1.123420
H127	H	0.264547	0.028779	0.091633
H128	H	0.764547	0.528779	0.591633
H129	H	0.836903	-0.036607	0.430756
H130	H	1.336903	0.463393	0.930756
C131	C	0.919679	-0.011505	0.815006
C132	C	1.419679	0.488495	1.315006
N133	N	0.958566	-0.075635	0.846571
N134	N	1.458566	0.424365	1.346571
C135	C	0.839400	-0.066153	0.579940
C136	C	1.339400	0.433847	1.079940
N137	N	0.846620	-0.151829	0.611526
N138	N	1.346620	0.348171	1.111526
H139	H	0.906270	0.010626	0.665832
H140	H	1.406270	0.510626	1.165832
H141	H	0.610238	0.157977	0.119689
H142	H	1.110238	0.657977	0.619689
H143	H	0.805288	0.338625	0.569018
H144	H	1.305288	0.838625	1.069018
C145	C	0.919638	-0.011505	0.184727
C146	C	1.419638	0.488495	0.684727
N147	N	0.958526	-0.075629	0.153146
N148	N	1.458526	0.424371	0.653146
C149	C	0.802782	0.368173	0.419840
C150	C	1.302782	0.868173	0.919840
N151	N	0.795561	0.453854	0.388260
N152	N	1.295561	0.953854	0.888260
H153	H	0.031934	0.144059	-0.119908
H154	H	0.531934	0.644059	0.380092
H155	H	0.163378	0.147210	-0.119897
H156	H	0.663378	0.647210	0.380103
H157	H	0.735912	0.291379	0.333953
H158	H	1.235912	0.791379	0.833953
H159	H	0.246183	0.270046	-0.091870
H160	H	0.746183	0.770046	0.408130
H161	H	0.031844	0.144044	0.119627
H162	H	0.531844	0.644044	0.619627
C163	C	0.468532	0.154543	-0.138728
C164	C	0.968532	0.654543	0.361272
N165	N	0.438537	0.153808	-0.193428
N166	N	0.938537	0.653808	0.306572
H167	H	0.610323	0.157954	-0.119851
H168	H	1.110323	0.657954	0.380149
C169	C	0.722506	0.313533	0.184771
C170	C	1.222506	0.813533	0.684771
N171	N	0.683642	0.377698	0.153205
N172	N	1.183642	0.877698	0.653205
