data_functionalizedCrystal
_audit_creation_method	'MofGen! by Chris Wilmer'
_symmetry_space_group_name_H-M	'P1'
_symmetry_Int_Tables_number	1
_symmetry_cell_setting	triclinic
loop_
_symmetry_equiv_pos_as_xyz
  x,y,z
_cell_length_a	10.654558
_cell_length_b	10.489716
_cell_length_c	9.130313
_cell_angle_alpha	90.002761
_cell_angle_beta	90.000369
_cell_angle_gamma	84.508726
loop_
_atom_site_label
_atom_site_type_symbol
_atom_site_fract_x
_atom_site_fract_y
_atom_site_fract_z
O1	O	1.667896	0.179209	-0.121765
O2	O	1.302426	0.196267	-0.121771
O3	O	1.493493	0.002134	-0.121773
O4	O	1.476829	0.373342	-0.121762
O5	O	1.493491	0.002140	0.121826
O6	O	1.302423	0.196273	0.121828
O7	O	1.667894	0.179214	0.121834
Cu8	Cu	1.485158	0.187744	0.144074
Cu9	Cu	1.485161	0.187738	-0.144010
O10	O	1.476827	0.373347	0.121836
C11	C	1.255626	0.195015	0.000028
C12	C	1.116182	0.191261	0.000025
C13	C	0.919643	0.185981	-0.132761
C14	C	1.050667	0.189497	-0.132763
C15	C	1.050668	0.189496	0.132822
C16	C	0.919648	0.185971	0.132822
C17	C	0.854133	0.184231	-0.265557
C18	C	0.919638	0.185993	-0.398355
C19	C	1.050662	0.189509	-0.398357
C20	C	1.116181	0.191262	-0.265560
C21	C	1.492240	-0.045395	0.000022
C22	C	1.488494	-0.187024	0.000009
C23	C	1.605662	-0.284751	0.000024
C24	C	1.543749	-0.362086	-0.120080
C25	C	1.543720	-0.362045	0.120089
C26	C	1.426629	-0.262494	-0.120195
C27	C	1.426617	-0.262447	0.120083
C28	C	1.364618	-0.339733	-0.000051
C29	C	1.714693	0.180466	0.000033
C30	C	1.854138	0.184220	0.000026
C31	C	1.478080	0.420876	0.000038
C32	C	1.481826	0.562505	0.000042
N33	N	1.485166	0.187747	0.346696
N34	N	1.485164	0.187724	-0.346633
C35	C	1.569792	0.101815	0.423347
C36	C	1.569789	0.101800	0.576684
C37	C	1.400528	0.273661	0.576705
C38	C	1.400527	0.273669	0.423371
C39	C	1.654431	0.015894	0.346672
C40	C	1.739066	-0.070045	0.423324
C41	C	1.739062	-0.070060	0.576660
C42	C	1.654425	0.015863	0.653346
H43	H	0.866309	0.184561	0.240949
C44	C	1.328749	0.493805	0.376163
C45	C	1.307513	0.368130	0.339099
H46	H	1.271327	0.552117	0.324127
H47	H	1.316627	0.506096	0.478442
H48	H	1.412692	0.508437	0.351033
H49	H	1.223572	0.353495	0.364239
H50	H	1.319623	0.355834	0.236797
H51	H	1.807968	-0.140008	0.360878
C52	C	1.772995	0.042771	0.127037
C53	C	1.654441	0.015903	0.178124
H54	H	1.773001	0.042770	0.022983
H55	H	1.790883	0.124458	0.161735
H56	H	1.835499	-0.020710	0.161730
H57	H	1.591937	0.079389	0.143440
H58	H	1.636538	-0.065796	0.143410
C59	C	1.420834	-0.255613	-0.382980
C60	C	1.359910	-0.204032	-0.257440
H61	H	1.379642	-0.219526	-0.467708
H62	H	1.506174	-0.236448	-0.382630
H63	H	1.417985	-0.345847	-0.383751
H64	H	1.362767	-0.113798	-0.256663
H65	H	1.274548	-0.223188	-0.257790
C66	C	1.077872	0.300061	-0.624710
C67	C	1.122670	0.191445	-0.544321
H68	H	1.122331	0.301262	-0.714821
H69	H	0.990476	0.297704	-0.643709
H70	H	1.090447	0.374881	-0.570125
H71	H	1.110086	0.116624	-0.598902
H72	H	1.210086	0.193791	-0.525326
C73	C	1.814209	-0.146401	0.811699
C74	C	1.832082	-0.164526	0.660920
H75	H	1.871635	-0.204727	0.863712
H76	H	1.828604	-0.061149	0.836837
H77	H	1.730267	-0.161059	0.836808
H78	H	1.916021	-0.149859	0.635810
H79	H	1.817696	-0.249799	0.635773
C80	C	1.805188	-0.303932	0.124317
C81	C	1.743241	-0.251489	-0.000170
H82	H	1.890122	-0.283401	0.124172
H83	H	1.763760	-0.269634	0.209740
H84	H	1.803709	-0.394332	0.123446
H85	H	1.744711	-0.161087	0.000706
H86	H	1.784680	-0.285781	-0.085616
H87	H	0.747446	0.181372	-0.265571
C88	C	0.718788	0.180613	-0.516283
C89	C	0.847625	0.184064	-0.544320
H90	H	0.674335	0.179429	-0.606399
H91	H	0.706227	0.105786	-0.461737
H92	H	0.688425	0.254297	-0.461716
H93	H	0.877991	0.110375	-0.598878
H94	H	0.860194	0.258899	-0.598889
C95	C	1.316988	0.086821	-0.193251
C96	C	1.260207	0.195113	-0.265550
H97	H	1.405902	0.089198	-0.193252
H98	H	1.287344	0.086041	-0.095177
H99	H	1.296242	0.011780	-0.242312
H100	H	1.280946	0.270154	-0.216482
H101	H	1.289863	0.195904	-0.363642
C102	C	1.550400	-0.368487	0.382873
C103	C	1.610508	-0.420751	0.257171
H104	H	1.591637	-0.404736	0.467493
H105	H	1.553968	-0.278359	0.383373
H106	H	1.464834	-0.386943	0.383011
H107	H	1.696072	-0.402287	0.257027
H108	H	1.606954	-0.510900	0.256671
C109	C	1.183784	0.346493	0.623945
C110	C	1.307505	0.368105	0.661000
H111	H	1.126358	0.404797	0.675992
H112	H	1.171675	0.358805	0.521668
H113	H	1.169409	0.261221	0.649068
H114	H	1.321883	0.453374	0.635866
H115	H	1.319618	0.355803	0.763299
H116	H	1.104024	0.190926	0.240939
H117	H	1.377198	-0.218904	0.221626
C118	C	1.736646	-0.393661	-0.256936
C119	C	1.610516	-0.420851	-0.257150
H120	H	1.777870	-0.429946	-0.341549
H121	H	1.740205	-0.303532	-0.257484
H122	H	1.777408	-0.429088	-0.171636
H123	H	1.569752	-0.385416	-0.342445
H124	H	1.606950	-0.510998	-0.256615
C125	C	1.204497	-0.443369	0.125677
C126	C	1.226936	-0.372666	-0.000131
H127	H	1.119497	-0.463694	0.125623
H128	H	1.259485	-0.520180	0.126516
H129	H	1.219274	-0.394169	0.210214
H130	H	1.212168	-0.421869	-0.084669
H131	H	1.171931	-0.295842	-0.000984
H132	H	1.654420	0.015835	0.778203
