data_functionalizedCrystal
_audit_creation_method	'MofGen! by Chris Wilmer'
_symmetry_space_group_name_H-M	'P1'
_symmetry_Int_Tables_number	1
_symmetry_cell_setting	triclinic
loop_
_symmetry_equiv_pos_as_xyz
  x,y,z
_cell_length_a	12.594516
_cell_length_b	12.594517
_cell_length_c	18.101390
_cell_angle_alpha	90.022255
_cell_angle_beta	89.973074
_cell_angle_gamma	89.989009
loop_
_atom_site_label
_atom_site_type_symbol
_atom_site_fract_x
_atom_site_fract_y
_atom_site_fract_z
Zn1	Zn	-0.423846	-1.627230	-0.418859
Zn2	Zn	0.076154	-1.127230	0.081141
Zn3	Zn	-0.601859	-1.627131	-0.295030
Zn4	Zn	-0.101859	-1.127131	0.204970
Zn5	Zn	-0.423879	-1.449245	-0.295021
Zn6	Zn	0.076121	-0.949245	0.204979
Zn7	Zn	-0.601767	-1.449216	-0.418820
Zn8	Zn	-0.101767	-0.949216	0.081180
O9	O	-0.512838	-1.538205	-0.356932
O10	O	-0.012838	-1.038205	0.143068
O11	O	-0.447484	-1.776162	-0.402453
O12	O	0.052516	-1.276162	0.097547
O13	O	-0.578301	-1.603505	-0.191396
O14	O	-0.078301	-1.103505	0.308604
O15	O	-0.274929	-1.472908	-0.311461
O16	O	0.225071	-0.972908	0.188539
O17	O	-0.578269	-1.776090	-0.311476
O18	O	-0.078269	-1.276090	0.188524
O19	O	-0.274905	-1.603673	-0.402444
O20	O	0.225095	-1.103673	0.097556
O21	O	-0.447540	-1.472813	-0.191389
O22	O	0.052460	-0.972813	0.308611
O23	O	-0.447452	-1.300295	-0.311423
O24	O	0.052548	-0.800295	0.188577
O25	O	-0.578114	-1.472859	-0.522458
O26	O	-0.078114	-0.972859	-0.022458
O27	O	-0.578145	-1.300274	-0.402377
O28	O	-0.078145	-0.800274	0.097623
O29	O	-0.447396	-1.603645	-0.522487
O30	O	0.052604	-1.103645	-0.022487
O31	O	-0.750792	-1.603477	-0.311438
O32	O	-0.250792	-1.103477	0.188562
O33	O	-0.750725	-1.472763	-0.402386
O34	O	-0.250725	-0.972763	0.097614
C35	C	-0.512793	-1.261664	-0.356896
C36	C	-0.012793	-0.761664	0.143104
C37	C	-0.512799	-1.143359	-0.356897
C38	C	-0.012799	-0.643359	0.143103
C39	C	-0.441612	-1.074086	-0.307518
C40	C	0.058388	-0.574086	0.192482
C41	C	-0.538695	-1.003277	-0.289301
C42	C	-0.038695	-0.503277	0.210699
C43	C	-0.415746	-1.003369	-0.375115
C44	C	0.084254	-0.503369	0.124885
C45	C	-0.609934	-1.074108	-0.338645
C46	C	-0.109934	-0.574108	0.161355
C47	C	-0.486919	-1.074206	-0.424491
C48	C	0.013081	-0.574206	0.075509
C49	C	-0.584069	-1.003429	-0.406300
C50	C	-0.084069	-0.503429	0.093700
C51	C	-0.789379	-1.538136	-0.356925
C52	C	-0.289379	-1.038136	0.143075
C53	C	-0.907684	-1.538203	-0.356947
C54	C	-0.407684	-1.038203	0.143053
C55	C	-0.976939	-1.467101	-0.406379
C56	C	-0.476939	-0.967101	0.093621
C57	C	-1.047804	-1.441174	-0.338801
C58	C	-0.547804	-0.941174	0.161199
C59	C	-1.047619	-1.564227	-0.424536
C60	C	-0.547619	-1.064227	0.075464
C61	C	-0.976990	-1.512224	-0.289334
C62	C	-0.476990	-1.012224	0.210666
C63	C	-0.976799	-1.635323	-0.375114
C64	C	-0.476799	-1.135323	0.124886
C65	C	-1.047631	-1.609433	-0.307490
C66	C	-0.547631	-1.109433	0.192510
C67	C	-0.235217	-1.538304	-0.356956
C68	C	0.264783	-1.038304	0.143044
C69	C	-0.116911	-1.538347	-0.356966
C70	C	0.383089	-1.038347	0.143034
C71	C	-0.512741	-1.538259	-0.550094
C72	C	-0.012741	-1.038259	-0.050094
C73	C	-0.512700	-1.538282	-0.632409
C74	C	-0.012700	-1.038282	-0.132409
C75	C	-0.512862	-0.815826	-0.356956
C76	C	-0.012862	-0.315826	0.143044
C77	C	-0.512818	-0.934132	-0.356931
C78	C	-0.012818	-0.434132	0.143069
C79	C	-0.512666	-1.538320	-0.783117
C80	C	-0.012666	-1.038320	-0.283117
C81	C	-0.430415	-1.620610	-0.814489
C82	C	0.069585	-1.120610	-0.314489
C83	C	-0.430638	-1.620954	-0.900107
C84	C	0.069362	-1.120954	-0.400107
C85	C	-0.512632	-1.538358	-0.931500
C86	C	-0.012632	-1.038358	-0.431500
C87	C	-0.624900	-1.568391	-0.900399
C88	C	-0.124900	-1.068391	-0.400399
C89	C	-0.624444	-1.568966	-0.814754
C90	C	-0.124444	-1.068966	-0.314754
C91	C	-0.483624	-1.425798	-0.814666
C92	C	0.016376	-0.925798	-0.314666
C93	C	-0.481130	-1.426423	-0.900317
C94	C	0.018870	-0.926423	-0.400317
C95	C	-0.512619	-1.538377	-1.015359
C96	C	-0.012619	-1.038377	-0.515359
C97	C	-0.512687	-1.538304	-0.699258
C98	C	-0.012687	-1.038304	-0.199258
C99	C	-0.512857	-1.538213	-0.164522
C100	C	-0.012857	-1.038213	0.335478
C101	C	-0.512599	-1.538396	-0.082208
C102	C	-0.012599	-1.038396	0.417792
H103	H	-0.381478	-1.105111	-0.265713
H104	H	0.118522	-0.605111	0.234287
H105	H	-0.649894	-1.649724	-0.921878
H106	H	-0.149894	-1.149724	-0.421878
H107	H	-0.333672	-0.972241	-0.390484
H108	H	0.166328	-0.472241	0.109516
H109	H	-0.560600	-0.972123	-0.232153
H110	H	-0.060600	-0.472123	0.267847
H111	H	-0.946094	-1.490176	-0.232167
H112	H	-0.446094	-0.990176	0.267833
H113	H	-0.945590	-1.717371	-0.390496
H114	H	-0.445590	-1.217371	0.109504
H115	H	-0.644347	-0.972599	-0.448073
H116	H	-0.144347	-0.472599	0.051927
H117	H	-0.945899	-1.406865	-0.448120
H118	H	-0.445899	-0.906865	0.051880
H119	H	-1.079016	-1.359107	-0.323451
H120	H	-0.579016	-0.859107	0.176549
H121	H	-1.078475	-1.669623	-0.265647
H122	H	-0.578475	-1.169623	0.234353
H123	H	-0.464984	-1.105386	-0.481622
H124	H	0.035016	-0.605386	0.018378
H125	H	-1.078643	-1.586181	-0.481687
H126	H	-0.578643	-1.086181	0.018313
H127	H	-0.398509	-1.403767	-0.920646
H128	H	0.101491	-0.903767	-0.420646
H129	H	-0.536629	-1.361873	-0.921683
H130	H	-0.036629	-0.861873	-0.421683
H131	H	-0.346927	-1.602069	-0.793909
H132	H	0.153073	-1.102069	-0.293909
H133	H	-0.347406	-1.602187	-0.921137
H134	H	0.152594	-1.102187	-0.421137
H135	H	-0.449435	-1.703514	-0.792981
H136	H	0.050565	-1.203514	-0.292981
H137	H	-0.543527	-1.364492	-0.794374
H138	H	-0.043527	-0.864492	-0.294374
H139	H	-0.649008	-1.651208	-0.794791
H140	H	-0.149008	-1.151208	-0.294791
H141	H	-0.692043	-1.105051	-0.323187
H142	H	-0.192043	-0.605051	0.176813
H143	H	-0.449882	-1.704342	-0.920610
H144	H	0.050118	-1.204342	-0.420610
H145	H	-0.687815	-1.511592	-0.793998
H146	H	-0.187815	-1.011592	-0.293998
H147	H	-0.687849	-1.510302	-0.920730
H148	H	-0.187849	-1.010302	-0.420730
H149	H	-0.403166	-1.398366	-0.793065
H150	H	0.096834	-0.898366	-0.293065
