data_functionalizedCrystal
_audit_creation_method	'MofGen! by Chris Wilmer'
_symmetry_space_group_name_H-M	'P1'
_symmetry_Int_Tables_number	1
_symmetry_cell_setting	triclinic
loop_
_symmetry_equiv_pos_as_xyz
  x,y,z
_cell_length_a	19.077105
_cell_length_b	13.897448
_cell_length_c	19.076919
_cell_angle_alpha	92.272955
_cell_angle_beta	90.076224
_cell_angle_gamma	87.714101
loop_
_atom_site_label
_atom_site_type_symbol
_atom_site_fract_x
_atom_site_fract_y
_atom_site_fract_z
Zn1	Zn	1.058310	-0.466652	-0.440425
Zn2	Zn	1.062963	-0.621745	-0.322920
Zn3	Zn	0.945527	-0.453730	-0.318218
Zn4	Zn	0.940785	-0.621164	-0.435673
O5	O	1.001896	-0.540823	-0.379309
O6	O	1.157260	-0.492877	-0.428794
O7	O	1.051317	-0.594293	-0.223965
O8	O	0.960525	-0.320466	-0.334450
O9	O	1.160678	-0.606823	-0.342464
O10	O	1.043386	-0.329960	-0.424235
O11	O	0.965037	-0.470854	-0.220510
O12	O	0.846566	-0.470290	-0.329842
O13	O	0.952443	-0.605832	-0.534635
O14	O	0.843082	-0.593302	-0.416136
O15	O	1.038788	-0.492313	-0.538126
O16	O	1.046719	-0.756647	-0.337856
O17	O	0.956955	-0.756219	-0.420695
C18	C	0.819327	-0.530331	-0.371963
C19	C	0.741223	-0.525867	-0.368837
C20	C	0.702736	-0.587905	-0.412227
C21	C	0.629349	-0.583698	-0.409293
C22	C	0.594449	-0.517456	-0.362966
C23	C	0.632940	-0.455412	-0.319575
C24	C	0.706327	-0.459615	-0.322513
C25	C	0.375160	-0.498004	-0.349373
C26	C	0.301769	-0.493807	-0.346437
C27	C	0.298182	-0.622092	-0.436157
C28	C	0.371570	-0.626293	-0.439087
C29	C	0.410055	-0.564245	-0.395699
N30	N	0.519435	-0.513157	-0.359965
N31	N	0.485067	-0.568541	-0.398704
C32	C	1.001846	-0.791433	-0.379287
C33	C	1.001888	-0.898650	-0.379303
C34	C	1.001960	-1.094952	-0.379350
C35	C	1.001918	-0.985716	-0.379326
C36	C	1.185178	-0.551356	-0.386684
C37	C	1.263282	-0.555845	-0.389826
C38	C	0.994568	-0.550449	-0.562589
C39	C	0.991445	-0.554551	-0.640692
C40	C	1.001966	-0.289236	-0.379348
C41	C	1.001995	-0.182024	-0.379364
C42	C	1.034931	-0.497377	-0.679204
C43	C	1.031988	-0.501227	-0.752590
C44	C	0.985562	-0.562257	-0.787463
C45	C	0.942071	-0.619432	-0.748946
C46	C	0.945011	-0.615576	-0.675561
C47	C	0.971945	-0.580121	-1.006744
C48	C	0.969010	-0.583975	-1.080134
C49	C	1.058926	-0.465768	-1.083773
C50	C	1.061865	-0.461922	-1.010387
C51	C	1.018372	-0.519094	-0.971877
N52	N	0.982554	-0.566196	-0.862475
N53	N	1.021376	-0.515149	-0.896866
C54	C	1.009237	-0.531167	-0.196743
C55	C	1.012496	-0.526801	-0.118646
H56	H	0.737661	-0.409092	-0.287184
H57	H	1.072738	-0.447684	-0.650816
C58	C	0.587017	-0.651949	-0.457019
C59	C	0.537767	-0.723116	-0.424450
C60	C	0.495437	-0.791373	-0.472178
C61	C	0.502357	-0.788463	-0.552475
C62	C	0.551609	-0.717293	-0.585048
C63	C	0.593939	-0.649036	-0.537320
H64	H	0.532643	-0.725273	-0.365006
H65	H	0.458978	-0.844058	-0.448065
H66	H	0.471022	-0.838990	-0.587806
H67	H	0.556734	-0.715136	-0.644492
H68	H	0.630399	-0.596351	-0.561432
C69	C	0.924096	-0.643016	-0.964404
C70	C	0.843815	-0.631072	-0.971303
C71	C	0.795958	-0.693971	-0.928966
C72	C	0.828382	-0.768815	-0.879729
C73	C	0.908667	-0.780762	-0.872827
C74	C	0.956524	-0.717863	-0.915164
H75	H	0.819809	-0.575665	-1.007754
H76	H	0.736525	-0.685126	-0.934076
H77	H	0.792955	-0.815377	-0.848389
H78	H	0.932673	-0.836169	-0.836377
H79	H	1.015957	-0.726708	-0.910055
C80	C	0.255848	-0.690333	-0.483888
C81	C	0.175125	-0.685714	-0.480664
C82	C	0.132791	-0.753955	-0.528400
C83	C	0.171179	-0.826815	-0.579360
C84	C	0.251906	-0.831438	-0.582586
C85	C	0.294240	-0.763197	-0.534850
H86	H	0.146704	-0.631775	-0.442938
H87	H	0.073032	-0.750532	-0.526012
H88	H	0.139841	-0.877332	-0.614698
H89	H	0.280327	-0.885376	-0.620312
H90	H	0.353999	-0.766619	-0.537238
H91	H	0.931203	-0.633674	-1.108525
C92	C	0.263384	-0.420926	-0.295477
C93	C	0.215126	-0.456803	-0.238228
C94	C	0.176744	-0.383925	-0.187269
C95	C	0.186620	-0.275171	-0.193560
C96	C	0.234881	-0.239290	-0.250812
C97	C	0.273262	-0.312167	-0.301770
H98	H	0.207813	-0.537313	-0.233569
H99	H	0.141018	-0.410487	-0.144888
H100	H	0.158208	-0.221223	-0.155837
H101	H	0.242194	-0.158779	-0.255470
H102	H	0.308988	-0.285605	-0.344151
H103	H	0.604519	-0.401473	-0.281858
C104	C	0.897180	-0.678470	-0.633193
C105	C	0.816895	-0.666540	-0.640062
C106	C	0.769061	-0.729432	-0.597693
C107	C	0.801512	-0.804254	-0.548454
C108	C	0.881800	-0.816188	-0.541583
C109	C	0.929635	-0.753296	-0.583952
H110	H	0.792870	-0.611149	-0.676513
H111	H	0.709626	-0.720598	-0.602780
H112	H	0.766102	-0.850811	-0.517090
H113	H	0.905826	-0.871578	-0.505132
H114	H	0.989070	-0.762130	-0.578865
H115	H	1.067400	-0.454673	-0.783943
H116	H	0.406486	-0.447487	-0.314038
C117	C	1.112934	-0.394788	-0.972029
C118	C	1.160768	-0.331895	-1.014391
C119	C	1.211841	-0.264765	-0.976033
C120	C	1.215079	-0.260527	-0.895313
C121	C	1.167242	-0.323422	-0.852946
C122	C	1.116170	-0.390552	-0.891304
H123	H	1.158373	-0.335031	-1.074149
H124	H	1.247253	-0.218207	-1.007396
H125	H	1.252886	-0.210833	-0.866918
H126	H	1.169638	-0.320287	-0.793188
H127	H	1.080758	-0.437111	-0.859942
H128	H	0.399980	-0.680236	-0.476810
H129	H	1.094335	-0.419221	-1.115137
H130	H	0.904268	-0.669120	-0.777345
H131	H	0.731147	-0.641849	-0.449949
