data_functionalizedCrystal
_audit_creation_method	'MofGen! by Chris Wilmer'
_symmetry_space_group_name_H-M	'P1'
_symmetry_Int_Tables_number	1
_symmetry_cell_setting	triclinic
loop_
_symmetry_equiv_pos_as_xyz
  x,y,z
_cell_length_a	19.377372
_cell_length_b	14.560438
_cell_length_c	14.560438
_cell_angle_alpha	59.997945
_cell_angle_beta	89.999405
_cell_angle_gamma	72.118850
loop_
_atom_site_label
_atom_site_type_symbol
_atom_site_fract_x
_atom_site_fract_y
_atom_site_fract_z
Zr1	Zr	0.580665	1.278686	-0.257254
O2	O	0.484449	1.424965	-0.381241
O3	O	0.610149	1.100982	-0.219245
O4	O	0.610165	1.292582	-0.410850
O5	O	0.484434	1.233362	-0.038496
O6	O	0.709343	1.339291	-0.434206
O7	O	0.484434	1.233365	-0.189637
O8	O	0.709316	0.996553	-0.091460
O9	O	0.484461	1.576100	-0.381242
O10	O	0.696753	1.220572	-0.220465
O11	O	0.622737	1.185712	-0.090240
O12	O	0.622755	1.411296	-0.315830
O13	O	0.548739	1.376436	-0.185605
Zr14	Zr	0.738843	1.353177	-0.053452
Zr15	Zr	0.738843	1.353181	-0.294505
Zr16	Zr	0.580665	1.278682	-0.016202
Zr17	Zr	0.580684	1.519729	-0.257255
Zr18	Zr	0.738824	1.112135	-0.053452
O19	O	0.709359	1.530882	-0.091462
O20	O	0.709358	1.530887	-0.434207
O21	O	0.484449	1.424959	-0.038496
O22	O	0.835059	1.206899	0.070535
O23	O	0.835058	1.206905	-0.272210
O24	O	0.610149	1.100976	0.123500
O25	O	0.835074	1.398501	-0.272211
O26	O	0.709343	1.339282	0.100143
O27	O	0.610165	1.292573	0.123499
O28	O	0.835074	1.398499	-0.121070
O29	O	0.610192	1.635313	-0.410851
O30	O	0.709316	0.996550	0.100144
O31	O	0.835046	1.055764	0.070535
O32	O	0.835046	1.055767	-0.121069
O33	O	0.484462	1.576096	-0.189638
O34	O	0.610192	1.635310	-0.219247
O35	O	0.696753	1.220568	0.005124
O36	O	0.770769	1.255428	-0.125101
O37	O	0.696771	1.446152	-0.220466
O38	O	0.622755	1.411292	-0.090241
C39	C	0.659730	1.014424	-0.155352
C40	C	0.659721	0.912095	-0.155352
C41	C	0.714372	0.806516	-0.084957
C42	C	0.714404	0.710351	-0.084955
C43	C	0.605130	0.825358	-0.225753
C44	C	0.605096	0.921520	-0.225749
C45	C	0.777463	0.740117	-0.003671
C46	C	0.777494	0.643952	-0.003669
C47	C	0.461897	1.222750	-0.108759
C48	C	0.394746	1.191124	-0.092945
C49	C	-0.019230	1.584881	-0.289835
C50	C	-0.082318	1.555138	-0.274961
C51	C	-0.005061	1.356037	-0.175408
C52	C	0.058035	1.385763	-0.190268
C53	C	0.050944	1.500187	-0.247484
C54	C	0.128210	1.301069	-0.147917
C55	C	0.191300	1.330794	-0.162782
C56	C	0.184216	1.445212	-0.219998
C57	C	0.114035	1.529912	-0.262349
C58	C	0.135299	1.186646	-0.090709
C59	C	0.205473	1.101952	-0.048358
C60	C	0.268565	1.131676	-0.063216
C61	C	0.261482	1.246094	-0.120431
C62	C	0.338747	1.046976	-0.020865
C63	C	0.401837	1.076700	-0.035729
C64	C	0.324572	1.275818	-0.135296
C65	C	0.857611	1.409114	-0.201948
C66	C	0.924762	1.440739	-0.217761
C67	C	0.659754	1.315937	-0.456873
C68	C	0.659754	1.315939	-0.559206
C69	C	0.659778	1.617439	-0.155354
C70	C	0.659786	1.719768	-0.155355
C71	C	0.621125	1.415491	-0.657061
C72	C	0.621127	1.415486	-0.753210
C73	C	0.698388	1.216366	-0.653636
C74	C	0.698390	1.216374	-0.557490
C75	C	0.576516	1.530450	-0.714550
C76	C	0.576518	1.530445	-0.810699
C77	C	0.659754	1.315927	0.146166
C78	C	0.659754	1.315925	0.248499
C79	C	0.857587	1.107607	-0.201947
C80	C	0.924729	1.036903	-0.217760
C81	C	0.659730	1.014419	0.146167
C82	C	0.659722	0.912089	0.248500
C83	C	0.857587	1.107601	0.099573
C84	C	0.924729	1.036896	0.186092
C85	C	0.461921	1.524262	-0.410279
C86	C	0.394778	1.594968	-0.496799
C87	C	0.461921	1.524257	-0.108760
C88	C	0.394779	1.594961	-0.092946
C89	C	0.659778	1.617444	-0.456874
C90	C	0.659786	1.719775	-0.559207
C91	C	0.917625	0.985505	-0.274976
C92	C	0.980706	0.919082	-0.289855
C93	C	1.050892	0.904051	-0.247512
C94	C	1.057995	0.955458	-0.190294
C95	C	0.994914	1.021886	-0.175422
C96	C	0.994902	1.021892	0.158745
C97	C	1.057996	0.955473	0.240029
C98	C	1.050915	0.904052	0.348659
C99	C	0.980735	0.919063	0.376006
C100	C	0.917643	0.985487	0.294723
C101	C	0.324605	1.609983	-0.469452
C102	C	0.261512	1.676432	-0.550735
C103	C	0.268593	1.727858	-0.659365
C104	C	0.338773	1.712841	-0.686712
C105	C	0.401865	1.646400	-0.605429
C106	C	0.401883	1.646369	-0.035741
C107	C	0.338802	1.712818	-0.020888
C108	C	0.268616	1.727852	-0.063235
C109	C	0.261513	1.676441	-0.120448
C110	C	0.324594	1.609999	-0.135306
C111	C	0.698355	0.882204	0.346356
C112	C	0.698341	0.786056	0.442506
C113	C	0.621061	0.749681	0.342932
C114	C	0.621071	0.845832	0.246785
C115	C	0.742974	0.903201	0.403844
C116	C	0.742961	0.807053	0.499994
H117	H	0.560592	1.007483	-0.283068
C118	C	0.610050	1.616768	-0.722466
N119	N	0.635310	1.681780	-0.728427
C120	C	0.496715	1.563371	-0.862418
N121	N	0.436610	1.588168	-0.901371
C122	C	1.120326	0.830977	0.438060
N123	N	1.172609	0.775933	0.505393
H124	H	0.459026	1.634135	-0.001247
H125	H	0.344600	1.754668	0.025703
H126	H	0.802030	0.744853	0.538281
H127	H	0.589603	0.870168	0.167112
H128	H	0.318799	1.568141	-0.181885
C129	C	0.184302	1.692971	-0.167005
N130	N	0.126144	1.705413	-0.202060
H131	H	0.217258	1.781956	-0.051128
C132	C	0.253618	1.477909	-0.236348
N133	N	0.305892	1.502537	-0.248660
C134	C	0.578550	0.676788	0.341057
N135	N	0.546531	0.621884	0.339642
C136	C	0.972876	0.862533	-0.352786
N137	N	0.966976	0.819939	-0.400182
H138	H	0.860482	0.997743	-0.309473
C139	C	0.709468	1.009013	0.411761
N140	N	0.684233	1.088708	0.417725
C141	C	0.740880	1.106849	-0.651759
N142	N	0.772885	1.024357	-0.650343
C143	C	0.499351	1.551112	-0.684583
N144	N	0.441230	1.566676	-0.662012
C145	C	0.762632	0.556295	0.103162
N146	N	0.751443	0.490269	0.183629
C147	C	0.616317	1.606132	-0.888844
N148	N	0.646307	1.663120	-0.947694
H149	H	0.204374	1.688644	-0.528448
H150	H	1.000709	1.063727	-0.128826
H151	H	1.102250	0.849957	-0.259628
H152	H	0.459001	1.634176	-0.627709
C153	C	1.135206	0.938904	-0.143713
N154	N	1.193364	0.926426	-0.108622
H155	H	1.000682	1.063751	0.070298
H156	H	0.000702	1.262874	-0.128826
C157	C	0.820140	0.890738	0.373877
N158	N	0.878261	0.881350	0.351305
H159	H	0.860507	0.997691	0.317005
H160	H	0.560656	0.833018	-0.283068
H161	H	0.713530	0.829320	0.557849
H162	H	0.974980	0.877187	0.464463
C163	C	1.135187	0.938964	0.209924
N164	N	1.193326	0.926528	0.187246
H165	H	0.772016	0.726721	0.079729
H166	H	0.318826	1.568111	-0.381005
C167	C	0.199182	1.800932	-0.748767
N168	N	0.146899	1.855964	-0.816100
C169	C	0.850296	0.593162	-0.032013
N170	N	0.905129	0.554908	-0.053362
C171	C	0.106236	1.655784	-0.325281
N172	N	0.100364	1.750587	-0.372680
C173	C	0.845236	0.772093	-0.042333
N174	N	0.896283	0.796177	-0.071454
H175	H	0.458977	1.007734	-0.001224
H176	H	0.318796	1.368994	-0.181854
C177	C	-0.159514	1.648318	-0.321549
N178	N	-0.217657	1.718500	-0.356638
H179	H	0.344530	1.754720	-0.775168
H180	H	0.083924	1.162449	-0.078616
C181	C	0.213264	0.976089	0.014579
N182	N	0.219133	0.881288	0.061989
H183	H	-0.025006	1.678057	-0.336393
H184	H	0.344509	0.953813	0.025711
C185	C	0.740891	1.106862	-0.449850
N186	N	0.772904	1.024373	-0.368774
