data_functionalizedCrystal
_audit_creation_method	'MofGen! by Chris Wilmer'
_symmetry_space_group_name_H-M	'P1'
_symmetry_Int_Tables_number	1
_symmetry_cell_setting	triclinic
loop_
_symmetry_equiv_pos_as_xyz
  x,y,z
_cell_length_a	10.654554
_cell_length_b	12.811415
_cell_length_c	9.730223
_cell_angle_alpha	84.567795
_cell_angle_beta	89.999030
_cell_angle_gamma	84.264023
loop_
_atom_site_label
_atom_site_type_symbol
_atom_site_fract_x
_atom_site_fract_y
_atom_site_fract_z
O1	O	1.667064	0.147445	-0.132688
O2	O	1.301513	0.161486	-0.134435
O3	O	1.493486	0.001740	-0.114521
O4	O	1.475091	0.307190	-0.152603
O5	O	1.493483	0.001744	0.114058
O6	O	1.301511	0.161490	0.094144
O7	O	1.667062	0.147449	0.095891
Zn8	Zn	1.484286	0.154470	0.131309
Zn9	Zn	1.484289	0.154465	-0.169854
O10	O	1.475089	0.307194	0.075977
C11	C	1.254719	0.160456	-0.020017
C12	C	1.115293	0.157368	-0.019631
C13	C	0.933250	0.057507	-0.007198
C14	C	1.064256	0.060407	-0.007546
C15	C	1.035314	0.251435	-0.031355
C16	C	0.904311	0.248533	-0.030997
C17	C	0.949961	-0.052782	0.006541
C18	C	1.080967	-0.049881	0.006194
C19	C	1.492454	-0.037369	0.004642
C20	C	1.489368	-0.153909	0.019163
C21	C	1.483549	-0.372894	-0.202777
C22	C	1.480649	-0.482394	-0.189140
C23	C	1.480660	-0.482410	0.060073
C24	C	1.483560	-0.372910	0.046436
C25	C	1.485006	-0.318156	-0.084993
C26	C	1.487915	-0.208655	-0.098629
C27	C	1.487916	-0.208673	0.150582
C28	C	1.485017	-0.318173	0.164219
C29	C	1.713855	0.148479	-0.018531
C30	C	1.853282	0.151566	-0.018926
C31	C	1.476121	0.346304	-0.043189
C32	C	1.479207	0.462844	-0.057719
N33	N	1.484293	0.154473	0.336846
N34	N	1.484292	0.154453	-0.375389
C35	C	1.569320	0.083762	0.417587
C36	C	1.569317	0.083749	0.561471
C37	C	1.399255	0.225168	0.543860
C38	C	1.399253	0.225174	0.399978
C39	C	1.667508	0.002118	0.427755
C40	C	1.667505	0.002105	0.571640
H41	H	1.076878	0.330382	-0.041181
H42	H	1.637388	-0.074135	0.625761
C43	C	0.816348	0.352002	-0.043877
C44	C	0.822424	0.431210	-0.172432
C45	C	0.734462	0.534684	-0.185308
C46	C	0.640424	0.558951	-0.069630
C47	C	0.634345	0.479741	0.058933
C48	C	0.722306	0.376267	0.071810
H49	H	0.892040	0.413248	-0.258072
H50	H	0.738963	0.593320	-0.280480
H51	H	0.575310	0.635549	-0.079162
H52	H	0.564729	0.497704	0.144574
H53	H	0.717805	0.317631	0.166982
H54	H	1.483834	-0.362768	0.271225
C55	C	1.142864	-0.094907	0.145134
C56	C	1.217688	-0.024996	0.228231
C57	C	1.279584	-0.070017	0.367170
C58	C	1.266655	-0.184950	0.423013
C59	C	1.191826	-0.254868	0.339915
C60	C	1.129931	-0.209847	0.200976
H61	H	1.227263	0.060090	0.186893
H62	H	1.334977	-0.018259	0.428683
H63	H	1.312473	-0.218278	0.525864
H64	H	1.182252	-0.339954	0.381253
H65	H	1.074538	-0.261605	0.139462
H66	H	1.758559	0.027684	0.379941
C67	C	0.902064	-0.100233	-0.120866
C68	C	0.760235	-0.110013	-0.138732
C69	C	0.712336	-0.157463	-0.266141
C70	C	0.806267	-0.195132	-0.375684
C71	C	0.948104	-0.185353	-0.357822
C72	C	0.996003	-0.137903	-0.230413
H73	H	0.690694	-0.082127	-0.057638
H74	H	0.607338	-0.164702	-0.279363
H75	H	0.770809	-0.230257	-0.470000
H76	H	1.017645	-0.213238	-0.438916
H77	H	1.101001	-0.130664	-0.217191
H78	H	1.479458	-0.526957	-0.285051
H79	H	0.920821	-0.095915	0.107572
C80	C	1.797745	0.026409	0.621391
C81	C	1.916530	-0.046644	0.592269
C82	C	2.046760	-0.022338	0.642027
C83	C	2.058206	0.075021	0.720906
C84	C	1.939418	0.148080	0.750032
C85	C	1.809187	0.123774	0.700275
H86	H	1.908060	-0.118721	0.533875
H87	H	2.134695	-0.076422	0.620465
H88	H	2.154611	0.093014	0.757739
H89	H	1.947887	0.220157	0.808427
H90	H	1.721252	0.177858	0.721836
C91	C	1.305715	0.302949	0.311158
C92	C	1.212241	0.380771	0.380592
C93	C	1.118698	0.458547	0.291769
C94	C	1.118630	0.458500	0.133512
C95	C	1.212108	0.380675	0.064070
C96	C	1.305650	0.302899	0.152893
H97	H	1.212288	0.380808	0.497751
H98	H	1.049500	0.516158	0.343176
H99	H	1.049384	0.516074	0.067760
H100	H	1.212060	0.380638	-0.053089
H101	H	1.374849	0.245287	0.101486
H102	H	1.330017	0.282730	0.595278
C103	C	1.479040	-0.542674	0.204617
C104	C	1.368104	-0.606826	0.246811
C105	C	1.366472	-0.667102	0.391349
C106	C	1.475777	-0.663226	0.493693
C107	C	1.586722	-0.599072	0.451501
C108	C	1.588354	-0.538796	0.306963
H109	H	1.287182	-0.609697	0.171048
H110	H	1.284343	-0.714593	0.422582
H111	H	1.474570	-0.707846	0.600688
H112	H	1.667644	-0.596201	0.527264
H113	H	1.670483	-0.491305	0.275731
H114	H	1.122941	-0.091433	-0.084288
H115	H	1.489096	-0.164076	-0.205645
H116	H	1.484737	-0.328313	-0.309791
H117	H	1.489108	-0.164094	0.246490
H118	H	1.646485	-0.078560	0.398760
