data_functionalizedCrystal
_audit_creation_method	'MofGen! by Chris Wilmer'
_symmetry_space_group_name_H-M	'P1'
_symmetry_Int_Tables_number	1
_symmetry_cell_setting	triclinic
loop_
_symmetry_equiv_pos_as_xyz
  x,y,z
_cell_length_a	9.065215
_cell_length_b	8.559649
_cell_length_c	7.681481
_cell_angle_alpha	94.912555
_cell_angle_beta	95.826309
_cell_angle_gamma	102.603319
loop_
_atom_site_label
_atom_site_type_symbol
_atom_site_fract_x
_atom_site_fract_y
_atom_site_fract_z
O1	O	-0.034313	-2.104524	0.146429
O2	O	0.041753	-1.640420	0.146432
O3	O	-0.212130	-1.882068	0.146423
O4	O	0.219569	-1.862876	0.146438
O5	O	-0.243441	-1.911810	-0.146436
O6	O	0.010441	-1.670162	-0.146427
O7	O	-0.065625	-2.134266	-0.146430
Zn8	Zn	-0.032563	-1.906936	-0.192926
Zn9	Zn	0.008691	-1.867750	0.192928
O10	O	0.188257	-1.892618	-0.146421
C11	C	0.031861	-1.595844	0.000002
C12	C	0.049020	-1.418712	0.000003
C13	C	-0.282540	-1.895095	-0.000005
C14	C	-0.445690	-1.889583	0.000001
C15	C	0.258668	-1.879590	0.000011
C16	C	0.421820	-1.885101	0.000017
N17	N	-0.060721	-1.933691	-0.456261
C18	C	-0.055734	-1.178841	0.000000
C19	C	-0.072892	-1.355973	0.000001
N20	N	0.036835	-1.841007	0.456263
H21	H	-0.190393	-1.437770	0.000006
Cl22	Cl	0.230451	-1.292417	0.000025
H23	H	-0.160294	-2.028321	-0.531470
H24	H	0.136412	-1.746395	-0.468536
