data_functionalizedCrystal
_audit_creation_method	'MofGen! by Chris Wilmer'
_symmetry_space_group_name_H-M	'P1'
_symmetry_Int_Tables_number	1
_symmetry_cell_setting	triclinic
loop_
_symmetry_equiv_pos_as_xyz
  x,y,z
_cell_length_a	13.032831
_cell_length_b	13.032721
_cell_length_c	11.169409
_cell_angle_alpha	97.146003
_cell_angle_beta	82.804574
_cell_angle_gamma	90.902885
loop_
_atom_site_label
_atom_site_type_symbol
_atom_site_fract_x
_atom_site_fract_y
_atom_site_fract_z
Zn1	Zn	1.520321	-0.609291	-0.988812
Zn2	Zn	2.020321	-0.109291	-0.488812
Zn3	Zn	1.498349	-0.781285	-0.809996
Zn4	Zn	1.998349	-0.281285	-0.309996
Zn5	Zn	1.348321	-0.587479	-0.759912
Zn6	Zn	1.848321	-0.087479	-0.259912
Zn7	Zn	1.326469	-0.759339	-0.982404
Zn8	Zn	1.826469	-0.259339	-0.482404
O9	O	1.423365	-0.684348	-0.885281
O10	O	1.923365	-0.184348	-0.385281
O11	O	1.661321	-0.650420	-0.988734
O12	O	2.161321	-0.150420	-0.488734
O13	O	1.478397	-0.755632	-0.635403
O14	O	1.978397	-0.255632	-0.135403
O15	O	1.389478	-0.446468	-0.771997
O16	O	1.889478	0.053532	-0.271997
O17	O	1.645178	-0.776783	-0.857358
O18	O	2.145178	-0.276783	-0.357358
O19	O	1.515845	-0.462494	-0.940169
O20	O	2.015845	0.037506	-0.440169
O21	O	1.368172	-0.613243	-0.598607
O22	O	1.868172	-0.113243	-0.098607
O23	O	1.201507	-0.591963	-0.765784
O24	O	1.701507	-0.091963	-0.265784
O25	O	1.352234	-0.739379	-1.151203
O26	O	1.852234	-0.239379	-0.651203
O27	O	1.185452	-0.718228	-0.929248
O28	O	1.685452	-0.218228	-0.429248
O29	O	1.494656	-0.629139	-1.155911
O30	O	1.994656	-0.129139	-0.655911
O31	O	1.457208	-0.922277	-0.851145
O32	O	1.957208	-0.422277	-0.351145
O33	O	1.330928	-0.906154	-0.977813
O34	O	1.830928	-0.406154	-0.477813
C35	C	1.156164	-0.650348	-0.841387
C36	C	1.656164	-0.150348	-0.341387
C37	C	1.041851	-0.635827	-0.822640
C38	C	1.541851	-0.135827	-0.322640
C39	C	0.982958	-0.691927	-0.895065
C40	C	1.482958	-0.191927	-0.395065
C41	C	0.864810	-0.676920	-0.875691
C42	C	1.364810	-0.176920	-0.375691
C43	C	1.389340	-0.951532	-0.919249
C44	C	1.889340	-0.451532	-0.419249
C45	C	1.374879	-1.065846	-0.933836
C46	C	1.874879	-0.565846	-0.433836
C47	C	1.430967	-1.124761	-0.877731
C48	C	1.930967	-0.624761	-0.377731
C49	C	1.416022	-1.242911	-0.892806
C50	C	1.916022	-0.742911	-0.392806
C51	C	1.691609	-0.718482	-0.929348
C52	C	2.191609	-0.218482	-0.429348
C53	C	1.805918	-0.733028	-0.948126
C54	C	2.305918	-0.233028	-0.448126
C55	C	1.423458	-0.684244	-1.198322
C56	C	1.923458	-0.184244	-0.698322
C57	C	1.423498	-0.684200	-1.331722
C58	C	1.923498	-0.184200	-0.831722
C59	C	1.457550	-0.416125	-0.851211
C60	C	1.957550	0.083875	-0.351211
C61	C	1.472118	-0.301824	-0.836693
C62	C	1.972118	0.198176	-0.336693
C63	C	1.423340	-0.684385	-0.573458
C64	C	1.923340	-0.184385	-0.073458
C65	C	1.423536	-0.684165	-0.440055
C66	C	1.923536	-0.184165	0.059945
H67	H	1.020007	-0.751062	-0.971417
H68	H	1.520007	-0.251062	-0.471417
N69	N	1.337743	-1.291938	-0.971216
N70	N	1.837743	-0.791938	-0.471216
H71	H	1.356024	-1.275249	-1.057231
H72	H	1.856024	-0.775249	-0.557231
H73	H	1.338192	-1.369375	-0.970773
H74	H	1.838192	-0.869375	-0.470773
H75	H	0.827767	-0.617773	-0.799342
H76	H	1.327767	-0.117773	-0.299342
N77	N	1.550396	-1.252795	-0.758283
N78	N	2.050396	-0.752795	-0.258283
H79	H	1.549981	-1.175343	-0.758629
H80	H	2.049981	-0.675343	-0.258629
H81	H	1.532067	-1.269560	-0.672310
H82	H	2.032067	-0.769560	-0.172310
N83	N	1.509229	-1.075713	-0.799318
N84	N	2.009229	-0.575713	-0.299318
H85	H	1.490945	-1.092399	-0.713303
H86	H	1.990945	-0.592399	-0.213303
H87	H	1.580341	-1.103640	-0.832547
H88	H	2.080341	-0.603640	-0.332547
H89	H	0.842961	-0.792165	-1.024486
H90	H	1.342961	-0.292165	-0.524486
H91	H	1.004803	-0.576684	-0.746297
H92	H	1.504803	-0.076684	-0.246297
H93	H	1.315799	-1.102877	-0.993037
H94	H	1.815799	-0.602877	-0.493037
