data_functionalizedCrystal
_audit_creation_method	'MofGen! by Chris Wilmer'
_symmetry_space_group_name_H-M	'P1'
_symmetry_Int_Tables_number	1
_symmetry_cell_setting	triclinic
loop_
_symmetry_equiv_pos_as_xyz
  x,y,z
_cell_length_a	18.215407
_cell_length_b	12.759400
_cell_length_c	18.215398
_cell_angle_alpha	89.977980
_cell_angle_beta	89.980536
_cell_angle_gamma	90.015132
loop_
_atom_site_label
_atom_site_type_symbol
_atom_site_fract_x
_atom_site_fract_y
_atom_site_fract_z
Zn1	Zn	1.125121	-0.418291	-0.416133
Zn2	Zn	1.458455	-0.084957	-0.082800
Zn3	Zn	1.791788	0.248376	0.250533
Zn4	Zn	1.125053	-0.593980	-0.293074
Zn5	Zn	1.458386	-0.260647	0.040259
Zn6	Zn	1.791719	0.072686	0.373592
Zn7	Zn	1.002055	-0.418317	-0.293081
Zn8	Zn	1.335388	-0.084984	0.040253
Zn9	Zn	1.668721	0.248349	0.373586
Zn10	Zn	1.002042	-0.593930	-0.416099
Zn11	Zn	1.335375	-0.260596	-0.082766
Zn12	Zn	1.668708	0.072737	0.250567
O13	O	1.063568	-0.506129	-0.354597
O14	O	1.396901	-0.172796	-0.021264
O15	O	1.730234	0.160537	0.312070
O16	O	1.228097	-0.441606	-0.399821
O17	O	1.561430	-0.108273	-0.066488
O18	O	1.894763	0.225060	0.266846
O19	O	1.108713	-0.570711	-0.190091
O20	O	1.442047	-0.237377	0.143242
O21	O	1.775380	0.095956	0.476576
O22	O	1.018414	-0.271293	-0.309421
O23	O	1.351747	0.062041	0.023913
O24	O	1.685081	0.395374	0.357246
O25	O	1.228046	-0.570685	-0.309410
O26	O	1.561379	-0.237351	0.023923
O27	O	1.894713	0.095982	0.357257
O28	O	1.108831	-0.271273	-0.399827
O29	O	1.442164	0.062060	-0.066494
O30	O	1.775497	0.395393	0.266840
O31	O	1.018347	-0.441652	-0.190096
O32	O	1.351681	-0.108318	0.143238
O33	O	1.685014	0.225015	0.476571
O34	O	0.899069	-0.441603	-0.309388
O35	O	1.232402	-0.108269	0.023946
O36	O	1.565735	0.225064	0.357279
O37	O	1.018392	-0.570598	-0.519088
O38	O	1.351725	-0.237265	-0.185755
O39	O	1.685059	0.096068	0.147579
O40	O	0.899059	-0.570624	-0.399769
O41	O	1.232393	-0.237291	-0.066436
O42	O	1.565726	0.096043	0.266898
O43	O	1.108818	-0.441557	-0.519113
O44	O	1.442151	-0.108224	-0.185780
O45	O	1.775485	0.225109	0.147554
O46	O	1.108701	-0.740995	-0.309377
O47	O	1.442034	-0.407661	0.023956
O48	O	1.775367	-0.074328	0.357290
O49	O	1.018325	-0.740957	-0.399763
O50	O	1.351658	-0.407624	-0.066429
O51	O	1.684992	-0.074291	0.266904
C52	C	0.872361	-0.506111	-0.354576
C53	C	1.205695	-0.172778	-0.021242
C54	C	1.539028	0.160555	0.312091
C55	C	0.790562	-0.506129	-0.354584
C56	C	1.123896	-0.172796	-0.021251
C57	C	1.457229	0.160538	0.312082
C58	C	0.602383	-0.573416	-0.401587
C59	C	0.935716	-0.240083	-0.068253
C60	C	1.269050	0.093250	0.265080
C61	C	0.525524	-0.573420	-0.401596
C62	C	0.858857	-0.240086	-0.068262
C63	C	1.192191	0.093247	0.265071
C64	C	0.525504	-0.438862	-0.307623
C65	C	0.858838	-0.105528	0.025710
C66	C	1.192171	0.227805	0.359043
C67	C	0.602362	-0.438854	-0.307618
C68	C	0.935695	-0.105521	0.025715
C69	C	1.269028	0.227813	0.359048
C70	C	0.640799	-0.506137	-0.354599
C71	C	0.974132	-0.172804	-0.021266
C72	C	1.307466	0.160530	0.312068
C73	C	0.487083	-0.506148	-0.354613
C74	C	0.820416	-0.172815	-0.021280
C75	C	1.153750	0.160518	0.312054
C76	C	0.403749	-0.506151	-0.354623
C77	C	0.737083	-0.172818	-0.021289
C78	C	1.070416	0.160515	0.312044
C79	C	0.724138	-0.506133	-0.354590
C80	C	1.057471	-0.172800	-0.021257
C81	C	1.390805	0.160534	0.312076
C82	C	1.063524	-0.779097	-0.354582
C83	C	1.396857	-0.445764	-0.021248
C84	C	1.730191	-0.112430	0.312085
C85	C	1.063573	-0.895873	-0.354600
C86	C	1.396906	-0.562540	-0.021266
C87	C	1.730239	-0.229207	0.312067
C88	C	1.110683	-0.950720	-0.307588
C89	C	1.444017	-0.617387	0.025746
C90	C	1.777350	-0.284053	0.359079
C91	C	1.110729	-1.060444	-0.307610
C92	C	1.444062	-0.727111	0.025723
C93	C	1.777395	-0.393777	0.359056
C94	C	1.016546	-1.060465	-0.401659
C95	C	1.349879	-0.727132	-0.068326
C96	C	1.683213	-0.393799	0.265008
C97	C	1.016505	-0.950743	-0.401639
C98	C	1.349838	-0.617410	-0.068306
C99	C	1.683172	-0.284077	0.265027
C100	C	1.157751	-0.895850	-0.260548
C101	C	1.491084	-0.562517	0.072785
C102	C	1.824418	-0.229184	0.406119
C103	C	1.204865	-0.950697	-0.213532
C104	C	1.538198	-0.617363	0.119802
C105	C	1.871532	-0.284030	0.453135
C106	C	1.204910	-1.060421	-0.213554
C107	C	1.538243	-0.727088	0.119779
C108	C	1.871577	-0.393754	0.453112
C109	C	1.157841	-1.115298	-0.260593
C110	C	1.491175	-0.781965	0.072740
C111	C	1.824508	-0.448632	0.406073
C112	C	1.255521	-0.506148	-0.354618
C113	C	1.588854	-0.172815	-0.021285
C114	C	1.922187	0.160518	0.312048
C115	C	1.337319	-0.506156	-0.354628
C116	C	1.670653	-0.172823	-0.021294
C117	C	2.003986	0.160510	0.312039
C118	C	1.063611	-0.506069	-0.546550
C119	C	1.396945	-0.172736	-0.213217
C120	C	1.730278	0.160598	0.120117
C121	C	1.063630	-0.506043	-0.628349
C122	C	1.396963	-0.172710	-0.295015
C123	C	1.730296	0.160623	0.038318
C124	C	1.063632	-0.232096	-0.354628
C125	C	1.396965	0.101237	-0.021295
C126	C	1.730298	0.434570	0.312038
C127	C	1.063659	-0.115320	-0.354642
C128	C	1.396992	0.218014	-0.021308
C129	C	1.730325	0.551347	0.312025
C130	C	1.110717	-0.573115	-0.893409
C131	C	1.444050	-0.239781	-0.560075
C132	C	1.777384	0.093552	-0.226742
C133	C	1.110706	-0.573151	-0.816550
C134	C	1.444039	-0.239818	-0.483216
C135	C	1.777372	0.093516	-0.149883
C136	C	1.016598	-0.438769	-0.816538
C137	C	1.349932	-0.105436	-0.483204
C138	C	1.683265	0.227897	-0.149871
C139	C	1.016606	-0.438739	-0.893395
C140	C	1.349940	-0.105406	-0.560062
C141	C	1.683273	0.227928	-0.226729
C142	C	1.063670	-0.505910	-0.931829
C143	C	1.397003	-0.172577	-0.598495
C144	C	1.730336	0.160757	-0.265162
C145	C	1.063651	-0.505977	-0.778112
C146	C	1.396984	-0.172644	-0.444779
C147	C	1.730317	0.160690	-0.111446
C148	C	1.063638	-0.506016	-0.694779
C149	C	1.396971	-0.172683	-0.361445
C150	C	1.730305	0.160651	-0.028112
C151	C	1.063682	-0.505873	-1.015168
C152	C	1.397015	-0.172539	-0.681834
C153	C	1.730348	0.160794	-0.348501
C154	C	1.063567	-0.506114	-0.163391
C155	C	1.396900	-0.172780	0.169943
C156	C	1.730233	0.160553	0.503276
C157	C	1.063691	-0.505844	-0.081592
C158	C	1.397024	-0.172510	0.251741
C159	C	1.730357	0.160823	0.585075
H160	H	0.494200	-0.384084	-0.269372
H161	H	0.827533	-0.050750	0.063961
H162	H	1.160866	0.282583	0.397295
Cl163	Cl	1.169852	-0.657642	-0.768253
Cl164	Cl	1.503186	-0.324309	-0.434920
Cl165	Cl	1.836519	0.009024	-0.101587
Cl166	Cl	1.264144	-1.129368	-0.154456
Cl167	Cl	1.597477	-0.796035	0.178877
Cl168	Cl	1.930811	-0.462702	0.512211
H169	H	0.978282	-0.384080	-0.785236
H170	H	1.311615	-0.050746	-0.451903
H171	H	1.644948	0.282587	-0.118569
Cl172	Cl	0.957445	-0.354262	-0.941698
Cl173	Cl	1.290778	-0.020929	-0.608365
Cl174	Cl	1.624112	0.312405	-0.275032
Cl175	Cl	1.169880	-0.657561	-0.941722
Cl176	Cl	1.503213	-0.324228	-0.608389
Cl177	Cl	1.836547	0.009105	-0.275055
Cl178	Cl	0.957280	-0.881788	-0.460743
Cl179	Cl	1.290614	-0.548455	-0.127409
Cl180	Cl	1.623947	-0.215121	0.205924
Cl181	Cl	1.157903	-0.757912	-0.260722
Cl182	Cl	1.491236	-0.424579	0.072611
Cl183	Cl	1.824570	-0.091246	0.405945
Cl184	Cl	0.650701	-0.657996	-0.460651
Cl185	Cl	0.984035	-0.324663	-0.127318
Cl186	Cl	1.317368	0.008671	0.206016
Cl187	Cl	0.477233	-0.658001	-0.460670
Cl188	Cl	0.810566	-0.324668	-0.127337
Cl189	Cl	1.143899	0.008666	0.205996
H190	H	0.633641	-0.384061	-0.269355
H191	H	0.966974	-0.050727	0.063978
H192	H	1.300308	0.282606	0.397312
H193	H	1.157888	-1.204643	-0.260614
H194	H	1.491221	-0.871310	0.072720
H195	H	1.824554	-0.537976	0.406053
Cl196	Cl	1.264040	-0.881710	-0.154407
Cl197	Cl	1.597374	-0.548377	0.178926
Cl198	Cl	1.930707	-0.215044	0.512259
H199	H	0.978224	-1.105155	-0.439955
H200	H	1.311558	-0.771822	-0.106622
H201	H	1.644891	-0.438488	0.226712
