data_functionalizedCrystal
_audit_creation_method	'MofGen! by Chris Wilmer'
_symmetry_space_group_name_H-M	'P1'
_symmetry_Int_Tables_number	1
_symmetry_cell_setting	triclinic
loop_
_symmetry_equiv_pos_as_xyz
  x,y,z
_cell_length_a	19.188930
_cell_length_b	19.188905
_cell_length_c	18.266242
_cell_angle_alpha	90.016065
_cell_angle_beta	90.010255
_cell_angle_gamma	83.139668
loop_
_atom_site_label
_atom_site_type_symbol
_atom_site_fract_x
_atom_site_fract_y
_atom_site_fract_z
O1	O	0.087084	0.926160	0.061010
O2	O	0.587084	1.426160	0.561010
O3	O	0.098837	0.722847	0.060986
O4	O	0.598837	1.222847	0.560986
O5	O	-0.008696	0.830371	0.060984
O6	O	0.491304	1.330371	0.560984
O7	O	0.194617	0.818636	0.061011
O8	O	0.694617	1.318636	0.561011
O9	O	-0.008699	0.830353	-0.060778
O10	O	0.491301	1.330353	0.439222
O11	O	0.098834	0.722828	-0.060776
O12	O	0.598834	1.222828	0.439224
O13	O	0.087081	0.926142	-0.060752
O14	O	0.587081	1.426142	0.439248
Zn15	Zn	0.092957	0.824482	-0.080097
Zn16	Zn	0.592957	1.324482	0.419903
Zn17	Zn	0.092961	0.824506	0.080330
Zn18	Zn	0.592961	1.324506	0.580330
O19	O	0.194614	0.818618	-0.060751
O20	O	0.694614	1.318618	0.439249
C21	C	0.098458	0.696826	0.000102
C22	C	0.598458	1.196826	0.500102
C23	C	0.097324	0.619321	0.000092
C24	C	0.597324	1.119321	0.500092
C25	C	0.096781	0.582939	0.066466
C26	C	0.596781	1.082939	0.566466
C27	C	0.095708	0.510115	0.066475
C28	C	0.595708	1.010115	0.566475
C29	C	0.095164	0.473678	0.000106
C30	C	0.595164	0.973678	0.500106
C31	C	0.095711	0.510068	-0.066277
C32	C	0.595711	1.010068	0.433723
C33	C	0.096791	0.582890	-0.066284
C34	C	0.596791	1.082890	0.433716
N35	N	0.053734	0.364651	-0.049292
N36	N	0.553734	0.864651	0.450708
N37	N	0.052706	0.295474	-0.049280
N38	N	0.552706	0.795474	0.450720
C39	C	0.091911	0.254272	0.000123
C40	C	0.591911	0.754272	0.500123
N41	N	0.132173	0.284861	0.049526
N42	N	0.632173	0.784861	0.549526
N43	N	0.133198	0.354045	0.049517
N44	N	0.633198	0.854045	0.549517
C45	C	0.093993	0.394716	0.000106
C46	C	0.593993	0.894716	0.500106
C47	C	0.090206	0.138926	0.066512
C48	C	0.590206	0.638926	0.566512
C49	C	0.089137	0.066100	0.066518
C50	C	0.589137	0.566100	0.566518
C51	C	0.089133	0.066056	-0.066236
C52	C	0.589133	0.566056	0.433764
C53	C	0.090209	0.138879	-0.066240
C54	C	0.590209	0.638879	0.433760
C55	C	0.090742	0.175310	0.000136
C56	C	0.590742	0.675310	0.500136
C57	C	-0.034708	0.829982	0.000101
C58	C	0.465292	1.329982	0.500101
C59	C	-0.112213	0.828841	0.000095
C60	C	0.387787	1.328841	0.500095
C61	C	-0.157142	0.891933	0.000099
C62	C	0.342858	1.391933	0.500099
C63	C	-0.229966	0.890861	0.000110
C64	C	0.270034	1.390861	0.500110
C65	C	-0.257857	0.826694	0.000103
C66	C	0.242143	1.326694	0.500103
C67	C	-0.212917	0.763594	0.000103
C68	C	0.287083	1.263594	0.500103
C69	C	-0.140095	0.764668	0.000099
C70	C	0.359905	1.264668	0.500099
N71	N	-0.365858	0.777640	-0.041341
N72	N	0.134142	1.277640	0.458659
N73	N	-0.435037	0.776624	-0.041338
N74	N	0.064963	1.276624	0.458662
C75	C	-0.477265	0.823456	0.000118
C76	C	0.022735	1.323456	0.500118
N77	N	-0.447703	0.871352	0.041561
N78	N	0.052297	1.371352	0.541561
N79	N	-0.378518	0.872369	0.041556
N80	N	0.121482	1.372369	0.541556
C81	C	-0.336819	0.825523	0.000108
C82	C	0.163181	1.325523	0.500108
C83	C	-0.601159	0.885390	0.000135
C84	C	-0.101159	1.385390	0.500135
C85	C	-0.673984	0.884315	0.000151
C86	C	-0.173984	1.384315	0.500151
C87	C	-0.656933	0.757047	0.000137
C88	C	-0.156933	1.257047	0.500137
C89	C	-0.584110	0.758123	0.000128
C90	C	-0.084110	1.258123	0.500128
C91	C	-0.556228	0.822296	0.000124
C92	C	-0.056228	1.322296	0.500124
C93	C	0.220626	0.819007	0.000134
C94	C	0.720626	1.319007	0.500134
C95	C	0.298131	0.820148	0.000145
C96	C	0.798131	1.320148	0.500145
C97	C	0.087460	0.952163	0.000134
C98	C	0.587460	1.452163	0.500134
C99	C	0.088594	1.029668	0.000148
C100	C	0.588594	1.529668	0.500148
N101	N	0.092954	0.824471	-0.189583
N102	N	0.592954	1.324471	0.310417
C103	C	0.135196	0.866681	-0.227875
C104	C	0.635196	1.366681	0.272125
C105	C	0.135194	0.866692	-0.304520
C106	C	0.635194	1.366692	0.195480
C107	C	0.092958	0.824481	-0.342870
C108	C	0.592958	1.324481	0.157130
C109	C	0.050708	0.782269	-0.304570
C110	C	0.550708	1.282269	0.195430
C111	C	0.050706	0.782264	-0.227926
C112	C	0.550706	1.282264	0.272074
N113	N	0.091244	0.763333	-0.463231
N114	N	0.591244	1.263333	0.036769
N115	N	0.091250	0.763339	-0.536039
N116	N	0.591250	1.263339	-0.036039
C117	C	0.092961	0.824495	-0.573793
C118	C	0.592961	1.324495	-0.073793
N119	N	0.094679	0.885645	-0.535988
N120	N	0.594679	1.385645	-0.035988
N121	N	0.094677	0.885637	-0.463173
N122	N	0.594677	1.385637	0.036827
C123	C	0.092955	0.824482	-0.425977
C124	C	0.592955	1.324482	0.074023
C125	C	0.135202	0.866721	-0.695191
C126	C	0.635202	1.366721	-0.195191
C127	C	0.135195	0.866734	-0.771838
C128	C	0.635195	1.366734	-0.271838
C129	C	0.050714	0.782304	-0.771886
C130	C	0.550714	1.282304	-0.271886
C131	C	0.050717	0.782298	-0.695241
C132	C	0.550717	1.282298	-0.195241
C133	C	0.092965	0.824505	-0.656898
C134	C	0.592965	1.324505	-0.156898
N135	N	0.092959	0.824523	0.189817
N136	N	0.592959	1.324523	0.689817
H137	H	0.090646	0.168502	-0.120290
H138	H	0.590646	0.668502	0.379710
O139	O	0.095055	0.474663	-0.130729
O140	O	0.595055	0.974663	0.369271
C141	C	0.033376	0.400494	-0.207754
C142	C	0.533376	0.900494	0.292246
C143	C	0.034019	0.440571	-0.134740
C144	C	0.534019	0.940571	0.365260
H145	H	-0.015958	0.372908	-0.211013
H146	H	0.484042	0.872908	0.288987
H147	H	0.033904	0.438984	-0.255226
H148	H	0.533904	0.938984	0.244774
H149	H	0.081743	0.359877	-0.211053
H150	H	0.581743	0.859877	0.288947
H151	H	-0.014339	0.481187	-0.131370
H152	H	0.485661	0.981187	0.368630
H153	H	0.033528	0.402038	-0.087303
H154	H	0.533528	0.902038	0.412697
H155	H	-0.679641	0.704801	0.000135
H156	H	-0.179641	1.204801	0.500135
O157	O	0.088728	0.030682	-0.130726
O158	O	0.588728	0.530682	0.369274
C159	C	0.148847	0.000285	-0.244197
C160	C	0.648847	0.500285	0.255803
C161	C	0.149398	0.040370	-0.171181
C162	C	0.649398	0.540370	0.328819
H163	H	0.197885	0.008115	-0.276933
H164	H	0.697885	0.508115	0.223067
H165	H	0.148028	-0.058027	-0.232832
H166	H	0.648028	0.441973	0.267168
H167	H	0.100183	0.021132	-0.276905
H168	H	0.600183	0.521132	0.223095
H169	H	0.198054	0.019582	-0.138436
H170	H	0.698054	0.519582	0.361564
H171	H	0.150180	0.098676	-0.182598
H172	H	0.650180	0.598676	0.317402
O173	O	0.176330	0.907645	-0.190714
O174	O	0.676330	1.407645	0.309286
C175	C	0.293778	0.934515	-0.167205
C176	C	0.793778	1.434515	0.332795
C177	C	0.247275	0.888083	-0.209347
C178	C	0.747275	1.388083	0.290653
H179	H	0.351147	0.918706	-0.182242
H180	H	0.851147	1.418706	0.317758
H181	H	0.278122	0.991900	-0.182276
H182	H	0.778122	1.491900	0.317724
H183	H	0.286488	0.927280	-0.105850
H184	H	0.786488	1.427280	0.394150
H185	H	0.254541	0.895257	-0.270711
H186	H	0.754541	1.395257	0.229289
H187	H	0.262941	0.830716	-0.194215
H188	H	0.762941	1.330716	0.305785
O189	O	0.097281	0.618131	-0.130829
O190	O	0.597281	1.118131	0.369171
C191	C	0.097207	0.610396	-0.262500
C192	C	0.597207	1.110396	0.237500
C193	C	0.096636	0.570399	-0.189456
C194	C	0.596636	1.070399	0.310544
H195	H	0.096701	0.571820	-0.309919
H196	H	0.596701	1.071820	0.190081
H197	H	0.048847	0.651016	-0.265877
H198	H	0.548847	1.151016	0.234123
H199	H	0.146550	0.637964	-0.265774
H200	H	0.646550	1.137964	0.234226
H201	H	0.047325	0.542789	-0.186133
H202	H	0.547325	1.042789	0.313867
H203	H	0.145029	0.529819	-0.186109
H204	H	0.645029	1.029819	0.313891
H205	H	0.097215	0.612597	0.120515
H206	H	0.597215	1.112597	0.620515
H207	H	0.090647	0.168589	0.120559
H208	H	0.590647	0.668589	0.620559
O209	O	-0.574100	0.947741	0.000272
O210	O	-0.074100	1.447741	0.500272
C211	C	-0.566403	1.056864	0.063352
C212	C	-0.066403	1.556864	0.563352
C213	C	-0.597079	0.986270	0.063294
C214	C	-0.097079	1.486270	0.563294
H215	H	-0.584981	1.088041	0.114292
H216	H	-0.084981	1.588041	0.614292
H217	H	-0.506634	1.046833	0.063392
H218	H	-0.006634	1.546833	0.563392
H219	H	-0.584923	1.088000	0.012380
H220	H	-0.084923	1.588000	0.512380
H221	H	-0.578612	0.955098	0.114258
H222	H	-0.078612	1.455098	0.614258
H223	H	-0.656845	0.996351	0.063216
H224	H	-0.156845	1.496351	0.563216
O225	O	0.095082	0.474702	0.130909
O226	O	0.595082	0.974702	0.630909
C227	C	0.033357	0.400656	0.207962
C228	C	0.533357	0.900656	0.707962
C229	C	0.033987	0.440712	0.134959
C230	C	0.533987	0.940712	0.634959
H231	H	-0.016041	0.373176	0.211267
H232	H	0.483959	0.873176	0.711267
H233	H	0.081667	0.359972	0.211307
H234	H	0.581667	0.859972	0.711307
H235	H	0.033959	0.439214	0.255386
H236	H	0.533959	0.939214	0.755386
H237	H	0.033360	0.402207	0.087493
H238	H	0.533360	0.902207	0.587493
H239	H	-0.014319	0.481406	0.131678
H240	H	0.485681	0.981406	0.631678
H241	H	0.088699	0.036479	0.120570
H242	H	0.588699	0.536479	0.620570
H243	H	0.016324	0.747936	-0.803110
H244	H	0.516324	1.247936	-0.303110
O245	O	-0.130174	0.954330	0.000131
O246	O	0.369826	1.454330	0.500131
C247	C	-0.154774	1.080446	0.000093
C248	C	0.345226	1.580446	0.500093
C249	C	-0.185410	1.009832	0.000073
C250	C	0.314590	1.509832	0.500073
H251	H	-0.199417	1.125339	0.000030
H252	H	0.300583	1.625339	0.500030
H253	H	-0.121123	1.084191	0.051061
H254	H	0.378877	1.584191	0.551061
H255	H	-0.121093	1.084083	-0.050854
H256	H	0.378907	1.584083	0.449146
H257	H	-0.219123	1.006148	0.050985
H258	H	0.280877	1.506148	0.550985
H259	H	-0.219022	1.006118	-0.050929
H260	H	0.280978	1.506118	0.449071
H261	H	-0.266555	0.942239	0.000116
H262	H	0.233445	1.442239	0.500116
O263	O	-0.240090	0.701306	0.000193
O264	O	0.259910	1.201306	0.500193
C265	C	-0.312370	0.626229	0.063293
C266	C	0.187630	1.126229	0.563293
C267	C	-0.281658	0.696803	0.063269
C268	C	0.218342	1.196803	0.563269
H269	H	-0.345973	0.622559	0.114292
H270	H	0.154027	1.122559	0.614292
H271	H	-0.346092	0.622525	0.012371
H272	H	0.153908	1.122525	0.512371
H273	H	-0.267734	0.581329	0.063254
H274	H	0.232266	1.081329	0.563254
H275	H	-0.326250	0.741743	0.063334
H276	H	0.173750	1.241743	0.563334
H277	H	-0.247918	0.700446	0.114187
H278	H	0.252082	1.200446	0.614187
O279	O	-0.096546	0.703313	0.000059
O280	O	0.403454	1.203313	0.500059
C281	C	-0.087320	0.576969	0.000093
C282	C	0.412680	1.076969	0.500093
C283	C	-0.136720	0.646401	0.000123
C284	C	0.363280	1.146401	0.500123
H285	H	-0.119780	0.530937	0.000161
H286	H	0.380220	1.030937	0.500161
H287	H	-0.052826	0.574233	-0.050880
H288	H	0.447174	1.074233	0.449120
H289	H	-0.052773	0.574339	0.051034
H290	H	0.447227	1.074339	0.551034
H291	H	-0.171311	0.649077	-0.050783
H292	H	0.328689	1.149077	0.449217
H293	H	-0.171166	0.649107	0.051131
H294	H	0.328834	1.149107	0.551131
O295	O	-0.717658	0.945589	0.000288
O296	O	-0.217658	1.445589	0.500288
C297	C	-0.809780	1.018234	0.063362
C298	C	-0.309780	1.518234	0.563362
C299	C	-0.760347	0.948823	0.063306
C300	C	-0.260347	1.448823	0.563306
H301	H	-0.844316	1.020865	0.114299
H302	H	-0.344316	1.520865	0.614299
H303	H	-0.777372	1.064307	0.063405
H304	H	-0.277372	1.564307	0.563405
H305	H	-0.844281	1.020894	0.012387
H306	H	-0.344281	1.520894	0.512387
H307	H	-0.725835	0.946094	0.114272
H308	H	-0.225835	1.446094	0.614272
H309	H	-0.792797	0.902783	0.063225
H310	H	-0.292797	1.402783	0.563225
O311	O	-0.540561	0.696771	0.000083
O312	O	-0.040561	1.196771	0.500083
C313	C	-0.531337	0.570427	0.000111
C314	C	-0.031337	1.070427	0.500111
C315	C	-0.580736	0.639859	0.000143
C316	C	-0.080736	1.139859	0.500143
H317	H	-0.563799	0.524396	0.000175
H318	H	-0.063799	1.024396	0.500175
H319	H	-0.496842	0.567693	-0.050862
H320	H	0.003158	1.067693	0.449138
H321	H	-0.496792	0.567794	0.051053
H322	H	0.003208	1.067794	0.551053
H323	H	-0.615326	0.642539	-0.050765
H324	H	-0.115326	1.142539	0.449235
H325	H	-0.615184	0.642564	0.051149
H326	H	-0.115184	1.142564	0.551149
H327	H	0.169594	0.901065	-0.335703
H328	H	0.669594	1.401065	0.164297
O329	O	0.009794	0.741238	-0.657965
O330	O	0.509794	1.241238	-0.157965
C331	C	0.006026	0.646927	-0.571521
C332	C	0.506026	1.146927	-0.071521
C333	C	0.052452	0.693396	-0.613672
C334	C	0.552452	1.193396	-0.113672
H335	H	0.040497	0.608226	-0.535711
H336	H	0.540497	1.108226	-0.035711
H337	H	-0.032618	0.681329	-0.535578
H338	H	0.467382	1.181329	-0.035578
H339	H	-0.024172	0.616792	-0.612114
H340	H	0.475828	1.116792	-0.112114
H341	H	0.082695	0.723539	-0.573132
H342	H	0.582695	1.223539	-0.073132
H343	H	0.091052	0.658956	-0.649626
H344	H	0.591052	1.158956	-0.149626
H345	H	0.016319	0.747901	-0.335800
H346	H	0.516319	1.247901	0.164200
O347	O	0.176253	0.907789	-0.658053
O348	O	0.676253	1.407789	-0.158053
C349	C	0.260077	0.991500	-0.666093
C350	C	0.760077	1.491500	-0.166093
C351	C	0.213609	0.945037	-0.708239
C352	C	0.713609	1.445037	-0.208239
H353	H	0.290302	1.021616	-0.706650
H354	H	0.790302	1.521616	-0.206650
H355	H	0.225670	1.030207	-0.630220
H356	H	0.725670	1.530207	-0.130220
H357	H	0.298699	0.957028	-0.630198
H358	H	0.798699	1.457028	-0.130198
H359	H	0.174980	0.979453	-0.744174
H360	H	0.674980	1.479453	-0.244174
H361	H	0.248059	0.906325	-0.744066
H362	H	0.748059	1.406325	-0.244066
H363	H	0.016307	0.747890	-0.196750
H364	H	0.516307	1.247890	0.303250
H365	H	0.169592	0.901111	-0.803013
H366	H	0.669592	1.401111	-0.303013
