data_functionalizedCrystal
_audit_creation_method	'MofGen! by Chris Wilmer'
_symmetry_space_group_name_H-M	'P1'
_symmetry_Int_Tables_number	1
_symmetry_cell_setting	triclinic
loop_
_symmetry_equiv_pos_as_xyz
  x,y,z
_cell_length_a	9.065218
_cell_length_b	9.730223
_cell_length_c	9.065218
_cell_angle_alpha	89.999531
_cell_angle_beta	85.015885
_cell_angle_gamma	90.000310
loop_
_atom_site_label
_atom_site_type_symbol
_atom_site_fract_x
_atom_site_fract_y
_atom_site_fract_z
O1	O	1.960393	0.114287	0.216350
O2	O	1.531108	0.114289	0.234097
O3	O	1.754624	0.114285	0.010581
O4	O	1.736877	0.114291	0.439866
O5	O	1.754621	-0.114295	0.010587
O6	O	1.531106	-0.114291	0.234103
O7	O	1.960390	-0.114293	0.216356
Zn8	Zn	1.745748	-0.150584	0.225230
Zn9	Zn	1.745751	0.150580	0.225223
O10	O	1.736875	-0.114289	0.439872
C11	C	1.476120	-0.000001	0.232394
C12	C	1.312277	-0.000000	0.227294
N13	N	1.745756	-0.356120	0.225234
C14	C	1.844755	-0.428048	0.126296
C15	C	1.844751	-0.571931	0.126278
C16	C	1.646745	-0.571946	0.324150
C17	C	1.646743	-0.428066	0.324160
C18	C	1.943768	-0.356103	0.027371
C19	C	2.042776	-0.428030	-0.071575
C20	C	2.042772	-0.571913	-0.071593
C21	C	1.943760	-0.643869	0.027335
C22	C	2.015378	0.000000	0.218059
C23	C	2.179221	0.000008	0.223158
C24	C	1.752917	-0.000003	-0.044403
C25	C	1.747817	0.000004	-0.208245
N26	N	1.745754	0.356116	0.225207
C27	C	1.738582	0.000002	0.494855
C28	C	1.743681	0.000004	0.658698
H29	H	2.123380	-0.369437	-0.152127
H30	H	1.566128	-0.369502	0.404723
O31	O	1.550373	-0.641780	0.420098
C32	C	1.294968	-0.685761	0.503032
C33	C	1.403941	-0.606615	0.394260
H34	H	1.176555	-0.657338	0.482201
H35	H	1.311850	-0.800967	0.486028
H36	H	1.315839	-0.657497	0.621478
H37	H	1.383136	-0.634764	0.275771
H38	H	1.387033	-0.491428	0.411392
H39	H	1.943783	-0.238946	0.027379
O40	O	2.138795	-0.641999	-0.167653
C41	C	2.226614	-0.863644	-0.255313
C42	C	2.117757	-0.784449	-0.146473
H43	H	2.209663	-0.978828	-0.238205
H44	H	2.205824	-0.835444	-0.373800
H45	H	2.345031	-0.835274	-0.234439
H46	H	1.999299	-0.812776	-0.167211
H47	H	2.138676	-0.812655	-0.028023
H48	H	1.943755	-0.761028	0.027302
