data_functionalizedCrystal
_audit_creation_method	'MofGen! by Chris Wilmer'
_symmetry_space_group_name_H-M	'P1'
_symmetry_Int_Tables_number	1
_symmetry_cell_setting	triclinic
loop_
_symmetry_equiv_pos_as_xyz
  x,y,z
_cell_length_a	6.817900
_cell_length_b	19.551823
_cell_length_c	11.168136
_cell_angle_alpha	94.549227
_cell_angle_beta	108.508683
_cell_angle_gamma	101.663376
loop_
_atom_site_label
_atom_site_type_symbol
_atom_site_fract_x
_atom_site_fract_y
_atom_site_fract_z
V1	V	-4.075381	-0.096685	-0.394290
O2	O	-4.071120	0.004635	-0.386176
O3	O	-4.017763	-0.191700	-0.392177
O4	O	-4.052200	-0.095203	-0.565986
O5	O	-4.036445	-0.092530	-0.211164
V6	V	-4.556935	-0.084566	-0.372315
O7	O	-4.340957	-0.123271	-0.442492
O8	O	-4.741556	-0.057980	-0.324113
O9	O	-4.391346	0.010449	-0.374428
O10	O	-4.678592	-0.185886	-0.380429
O11	O	-4.713268	-0.088721	-0.555441
O12	O	-4.356909	-0.086048	-0.200619
C13	C	-3.859706	-0.214863	-0.386108
C14	C	-3.894052	-0.292539	-0.385525
C15	C	-4.092880	-0.332585	-0.391566
C16	C	-4.125159	-0.405571	-0.391031
C17	C	-3.958584	-0.438506	-0.384430
C18	C	-3.759731	-0.398452	-0.378396
C19	C	-3.727465	-0.325468	-0.378944
C20	C	-3.833594	-0.544992	-0.304360
C21	C	-3.865864	-0.617974	-0.303805
C22	C	-4.058099	-0.663612	-0.382747
C23	C	-4.218087	-0.636259	-0.462229
C24	C	-4.185821	-0.563276	-0.462776
C25	C	-3.993551	-0.517644	-0.383837
C26	C	-4.291941	-0.782798	-0.388210
C27	C	-4.324216	-0.855786	-0.387683
C28	C	-3.958776	-0.848664	-0.375035
C29	C	-3.926513	-0.775679	-0.375575
C30	C	-4.093100	-0.742750	-0.382157
C31	C	-3.903632	-0.091770	-0.607817
C32	C	-3.965902	-0.091186	-0.748184
C33	C	-4.167321	-0.094240	-0.816895
C34	C	-4.231684	-0.093638	-0.961971
C35	C	-4.212745	0.033608	-0.380494
C36	C	-4.157638	0.111284	-0.381084
C37	C	-4.168818	-0.089484	-0.158781
C38	C	-4.085787	-0.090063	-0.018413
H39	H	-4.427585	-0.755986	-0.393567
N40	N	-4.538685	-0.898982	-0.394209
H41	H	-4.598456	-0.936203	-0.472952
H42	H	-4.639147	-0.866992	-0.398410
H43	H	-4.404235	-0.096255	-1.021038
N44	N	-4.272567	-0.297072	-0.398705
H45	H	-4.403432	-0.333522	-0.402464
H46	H	-4.305350	-0.273743	-0.477902
N47	N	-3.693295	-0.647461	-0.218074
H48	H	-3.560131	-0.634405	-0.241067
H49	H	-3.743068	-0.700614	-0.229725
N50	N	-3.779109	-0.884177	-0.367929
H51	H	-3.829719	-0.936490	-0.368503
H52	H	-3.655444	-0.863079	-0.286582
H53	H	-4.287074	-0.438183	-0.395950
N54	N	-3.857212	-0.086600	-0.940202
H55	H	-3.850021	-0.130190	-0.897721
H56	H	-3.799904	-0.043131	-0.872730
N57	N	-4.358349	-0.533772	-0.548505
H58	H	-4.485031	-0.573753	-0.598436
H59	H	-4.302032	-0.507534	-0.609687
H60	H	-3.841108	-0.088121	-0.796761
N61	N	-4.332621	-0.098287	-0.752548
H62	H	-4.341504	-0.142182	-0.710631
H63	H	-4.475790	-0.100212	-0.818395
H64	H	-4.374467	-0.673428	-0.526685
H65	H	-3.677040	-0.507838	-0.240081
N66	N	-3.712059	-0.732481	-0.369061
H67	H	-3.611429	-0.764418	-0.364801
H68	H	-3.652469	-0.695255	-0.290333
H69	H	-3.624108	-0.425272	-0.373025
H70	H	-3.565552	-0.292863	-0.374026
