data_functionalizedCrystal
_audit_creation_method	'MofGen! by Chris Wilmer'
_symmetry_space_group_name_H-M	'P1'
_symmetry_Int_Tables_number	1
_symmetry_cell_setting	triclinic
loop_
_symmetry_equiv_pos_as_xyz
  x,y,z
_cell_length_a	19.288864
_cell_length_b	19.188930
_cell_length_c	17.766277
_cell_angle_alpha	89.988508
_cell_angle_beta	89.976791
_cell_angle_gamma	83.140512
loop_
_atom_site_label
_atom_site_type_symbol
_atom_site_fract_x
_atom_site_fract_y
_atom_site_fract_z
O1	O	0.921360	0.087099	-0.062844
O2	O	1.421360	0.587099	0.437156
O3	O	0.719100	0.098849	-0.062794
O4	O	1.219100	0.598849	0.437206
O5	O	0.826066	-0.008682	-0.062806
O6	O	1.326066	0.491318	0.437194
O7	O	0.814393	0.194630	-0.062832
O8	O	1.314393	0.694630	0.437168
O9	O	0.826048	-0.008688	0.062383
O10	O	1.326048	0.491312	0.562383
O11	O	0.719081	0.098843	0.062395
O12	O	1.219081	0.598843	0.562395
O13	O	0.921341	0.087094	0.062345
O14	O	1.421341	0.587094	0.562345
Cu15	Cu	0.820209	0.092968	0.073800
Cu16	Cu	1.320209	0.592968	0.573800
Cu17	Cu	0.820231	0.092974	-0.074250
Cu18	Cu	1.320231	0.592974	0.425750
O19	O	0.814374	0.194625	0.062356
O20	O	1.314374	0.694625	0.562356
C21	C	0.693214	0.098468	-0.000193
C22	C	1.193214	0.598468	0.499807
C23	C	0.616110	0.097333	-0.000173
C24	C	1.116110	0.597333	0.499827
C25	C	0.571419	0.160427	-0.000193
C26	C	1.071419	0.660427	0.499807
C27	C	0.498972	0.159361	-0.000201
C28	C	0.998972	0.659361	0.499799
C29	C	0.471219	0.095197	-0.000204
C30	C	0.971219	0.595197	0.499796
C31	C	0.515921	0.032095	-0.000180
C32	C	1.015921	0.532095	0.499820
C33	C	0.588366	0.033163	-0.000164
C34	C	1.088366	0.533163	0.499836
C35	C	0.362960	0.044759	-0.044082
C36	C	0.862960	0.544759	0.455918
C37	C	0.290515	0.043694	-0.044103
C38	C	0.790515	0.543694	0.455897
C39	C	0.247773	0.091900	-0.000249
C40	C	0.747773	0.591900	0.499751
C41	C	0.277483	0.141184	0.043614
C42	C	0.777483	0.641184	0.543614
C43	C	0.349929	0.142252	0.043630
C44	C	0.849929	0.642252	0.543630
C45	C	0.392665	0.094032	-0.000221
C46	C	0.892665	0.594032	0.499779
C47	C	0.124526	0.153843	-0.000277
C48	C	0.624526	0.653843	0.499723
C49	C	0.052078	0.152774	-0.000281
C50	C	0.552078	0.652774	0.499719
C51	C	0.069028	0.025506	-0.000267
C52	C	0.569028	0.525506	0.499733
C53	C	0.141475	0.026576	-0.000256
C54	C	0.641475	0.526576	0.499744
C55	C	0.169219	0.090747	-0.000265
C56	C	0.669219	0.590747	0.499735
C57	C	0.825679	-0.034696	-0.000209
C58	C	1.325679	0.465304	0.499791
C59	C	0.824544	-0.112200	-0.000202
C60	C	1.324544	0.387800	0.499798
C61	C	0.887309	-0.157129	-0.000214
C62	C	1.387309	0.342871	0.499786
C63	C	0.886243	-0.229953	-0.000226
C64	C	1.386243	0.270047	0.499774
C65	C	0.822408	-0.257844	-0.000211
C66	C	1.322408	0.242156	0.499789
C67	C	0.759636	-0.212906	-0.000203
C68	C	1.259636	0.287094	0.499797
C69	C	0.760704	-0.140084	-0.000199
C70	C	1.260704	0.359916	0.499801
N71	N	0.773608	-0.365848	0.042405
N72	N	1.273608	0.134152	0.542405
N73	N	0.772598	-0.435026	0.042403
N74	N	1.272598	0.064974	0.542403
C75	C	0.819187	-0.477253	-0.000225
C76	C	1.319187	0.022747	0.499775
N77	N	0.866835	-0.447689	-0.042841
N78	N	1.366835	0.052311	0.457159
N79	N	0.867847	-0.378504	-0.042836
N80	N	1.367847	0.121496	0.457164
C81	C	0.821243	-0.336807	-0.000216
C82	C	1.321243	0.163193	0.499784
C83	C	0.880800	-0.601146	-0.000251
C84	C	1.380800	-0.101146	0.499749
C85	C	0.879731	-0.673971	-0.000268
C86	C	1.379731	-0.173971	0.499732
C87	C	0.753122	-0.656922	-0.000237
C88	C	1.253122	-0.156922	0.499763
C89	C	0.754193	-0.584099	-0.000228
C90	C	1.254193	-0.084099	0.499772
C91	C	0.818034	-0.556216	-0.000231
C92	C	1.318034	-0.056216	0.499769
C93	C	0.947227	0.087475	-0.000258
C94	C	1.447227	0.587475	0.499742
C95	C	1.024330	0.088609	-0.000283
C96	C	1.524330	0.588609	0.499717
C97	C	0.814762	0.220638	-0.000242
C98	C	1.314762	0.720638	0.499758
C99	C	0.815896	0.298143	-0.000253
C100	C	1.315896	0.798143	0.499747
N101	N	0.820199	0.092963	0.177931
N102	N	1.320199	0.592963	0.677931
N103	N	0.820247	0.092974	-0.178380
N104	N	1.320247	0.592974	0.321620
C105	C	0.867579	0.045372	0.217312
C106	C	1.367579	0.545372	0.717312
C107	C	0.867583	0.045368	0.296114
C108	C	1.367583	0.545368	0.796114
C109	C	0.820213	0.092969	0.335531
C110	C	1.320213	0.592969	0.835531
C111	C	0.772824	0.140564	0.296140
C112	C	1.272824	0.640564	0.796140
C113	C	0.772817	0.140561	0.217340
C114	C	1.272817	0.640561	0.717340
C115	C	0.810919	0.156585	0.460362
C116	C	1.310919	0.656585	0.960362
C117	C	0.810931	0.156589	0.539161
C118	C	1.310931	0.656589	1.039161
C119	C	0.820232	0.092977	0.578578
C120	C	1.320232	0.592977	1.078578
C121	C	0.829535	0.029359	0.539185
C122	C	1.329535	0.529359	1.039185
C123	C	0.829528	0.029356	0.460385
C124	C	1.329528	0.529356	0.960385
C125	C	0.820216	0.092977	0.420977
C126	C	1.320216	0.592977	0.920977
C127	C	0.867619	0.045378	0.703405
C128	C	1.367619	0.545378	1.203405
C129	C	0.867618	0.045374	0.782208
C130	C	1.367618	0.545374	1.282208
C131	C	0.772863	0.140575	0.782233
C132	C	1.272863	0.640575	1.282233
C133	C	0.772861	0.140573	0.703431
C134	C	1.272861	0.640573	1.203431
C135	C	0.820242	0.092976	0.664022
C136	C	1.320242	0.592976	1.164022
H137	H	0.397756	0.005502	-0.079797
H138	H	0.897756	0.505502	0.420203
H139	H	0.624755	-0.018218	-0.000148
H140	H	1.124755	0.481782	0.499852
H141	H	0.493320	-0.020148	-0.000193
H142	H	0.993320	0.479852	0.499807
H143	H	0.939293	-0.134431	-0.000220
H144	H	1.439293	0.365569	0.499780
N145	N	0.916009	-0.003243	0.822450
N146	N	1.416009	0.496757	1.322450
N147	N	0.959050	0.018790	0.866408
N148	N	1.459050	0.518790	1.366408
H149	H	0.993221	-0.015549	0.894834
H150	H	1.493221	0.484451	1.394834
N151	N	0.260176	-0.006658	-0.088893
N152	N	0.760176	0.493342	0.411107
N153	N	0.225396	-0.049758	-0.058251
N154	N	0.725396	0.450242	0.441749
H155	H	0.203971	-0.085323	-0.089883
H156	H	0.703971	0.414677	0.410117
N157	N	0.915979	-0.003238	0.336369
N158	N	1.415979	0.496762	0.836369
N159	N	0.894090	-0.046518	0.380373
N160	N	1.394090	0.453482	0.880373
H161	H	0.928271	-0.080843	0.408804
H162	H	1.428271	0.419157	0.908804
H163	H	0.937355	-0.266541	-0.000239
H164	H	1.437355	0.233459	0.499761
N165	N	0.687910	-0.685392	-0.000230
N166	N	1.187910	-0.185392	0.499770
N167	N	0.645654	-0.671537	-0.052991
N168	N	1.145654	-0.171537	0.447009
H169	H	0.599595	-0.691646	-0.052990
H170	H	1.099595	-0.191646	0.447010
H171	H	0.930844	-0.710552	-0.000281
H172	H	1.430844	-0.210552	0.499719
H173	H	0.374116	0.182379	0.079348
H174	H	0.874116	0.682379	0.579348
N175	N	0.152883	0.219382	-0.000269
N176	N	0.652883	0.719382	0.499731
N177	N	0.217567	0.220327	-0.000257
N178	N	0.717567	0.720327	0.499743
H179	H	0.237594	0.266614	-0.000250
H180	H	0.737594	0.766614	0.499750
H181	H	0.803334	0.208389	0.428276
H182	H	1.303334	0.708389	0.928276
N183	N	0.946002	-0.572646	-0.000274
N184	N	1.446002	-0.072646	0.499726
N185	N	0.946948	-0.507626	-0.000269
N186	N	1.446948	-0.007626	0.499731
H187	H	0.992996	-0.487498	-0.000287
H188	H	1.492996	0.012502	0.499713
N189	N	0.694436	-0.241405	-0.000194
N190	N	1.194436	0.258595	0.499806
N191	N	0.693491	-0.306425	-0.000197
N192	N	1.193491	0.193575	0.499803
H193	H	0.647442	-0.326552	-0.000195
H194	H	1.147442	0.173448	0.499805
N195	N	0.006433	0.217234	-0.000292
N196	N	0.506433	0.717234	0.499708
N197	N	0.031218	0.274519	-0.000298
N198	N	0.531218	0.774519	0.499702
H199	H	-0.001019	0.320046	-0.000305
H200	H	0.498981	0.820046	0.499695
H201	H	0.734234	0.179316	0.185275
H202	H	1.234234	0.679316	0.685275
H203	H	0.709591	-0.103502	-0.000189
H204	H	1.209591	0.396498	0.499811
N205	N	0.839029	-0.035629	0.420159
N206	N	1.339029	0.464371	0.920159
N207	N	0.847335	-0.092424	0.455352
N208	N	1.347335	0.407576	0.955352
H209	H	0.854044	-0.138321	0.426943
H210	H	1.354044	0.361679	0.926943
N211	N	0.690080	-0.538201	-0.000190
N212	N	1.190080	-0.038201	0.499810
N213	N	0.676546	-0.495678	0.052589
N214	N	1.176546	0.004322	0.552589
H215	H	0.631263	-0.463262	0.052615
H216	H	1.131263	0.036738	0.552615
H217	H	0.734291	0.179330	0.814326
H218	H	1.234291	0.679330	1.314326
H219	H	0.906158	0.006613	0.185228
H220	H	1.406158	0.506613	0.685228
H221	H	0.837108	-0.022440	0.571277
H222	H	1.337108	0.477560	1.071277
N223	N	0.915933	-0.003331	0.663156
N224	N	1.415933	0.496669	1.163156
N225	N	0.958173	-0.045884	0.698332
N226	N	1.458173	0.454116	1.198332
H227	H	0.992263	-0.080318	0.669909
H228	H	1.492263	0.419682	1.169909
H229	H	0.046433	-0.026738	-0.000317
H230	H	0.546433	0.473262	0.499683
N231	N	0.724458	0.189193	0.663211
N232	N	1.224458	0.689193	1.163211
N233	N	0.682164	0.231688	0.698410
N234	N	1.182164	0.731688	1.198410
H235	H	0.647975	0.266026	0.670006
H236	H	1.147975	0.766026	1.170006
N237	N	0.801438	0.221577	0.579384
N238	N	1.301438	0.721577	1.079384
N239	N	0.793128	0.278368	0.544185
N240	N	1.293128	0.778368	1.044185
H241	H	0.786424	0.324268	0.572590
H242	H	1.286424	0.824268	1.072590
H243	H	0.594003	0.212680	-0.000201
H244	H	1.094003	0.712680	0.499799
N245	N	0.724428	0.189176	0.336401
N246	N	1.224428	0.689176	0.836401
N247	N	0.681390	0.167131	0.380401
N248	N	1.181390	0.667131	0.880401
H249	H	0.647206	0.201462	0.408836
H250	H	1.147206	0.701462	0.908836
N251	N	0.453308	0.223812	-0.000211
N252	N	0.953308	0.723812	0.499789
N253	N	0.455687	0.266540	0.052552
N254	N	0.955687	0.766540	0.552552
H255	H	0.423438	0.312059	0.052545
H256	H	0.923438	0.812059	0.552545
N257	N	0.233839	0.190453	0.088394
N258	N	0.733839	0.690453	0.588394
N259	N	0.187779	0.232365	0.057731
N260	N	0.687779	0.732365	0.557731
H261	H	0.156954	0.267167	0.089349
H262	H	0.656954	0.767167	0.589349
N263	N	0.187121	-0.037880	-0.000238
N264	N	0.687121	0.462120	0.499762
N265	N	0.162336	-0.095166	-0.000238
N266	N	0.662336	0.404834	0.499762
H267	H	0.194573	-0.140693	-0.000222
H268	H	0.694573	0.359307	0.499778
