data_functionalizedCrystal
_audit_creation_method	'MofGen! by Chris Wilmer'
_symmetry_space_group_name_H-M	'P1'
_symmetry_Int_Tables_number	1
_symmetry_cell_setting	triclinic
loop_
_symmetry_equiv_pos_as_xyz
  x,y,z
_cell_length_a	10.723024
_cell_length_b	14.044220
_cell_length_c	9.798715
_cell_angle_alpha	89.995876
_cell_angle_beta	89.996609
_cell_angle_gamma	88.828373
loop_
_atom_site_label
_atom_site_type_symbol
_atom_site_fract_x
_atom_site_fract_y
_atom_site_fract_z
O1	O	1.670498	0.133040	-0.113486
O2	O	1.308619	0.145774	-0.113491
O3	O	1.484127	0.001387	-0.113476
O4	O	1.494990	0.277427	-0.113502
O5	O	1.484112	0.001387	0.113507
O6	O	1.308605	0.145774	0.113491
O7	O	1.670483	0.133039	0.113496
Zn8	Zn	1.489542	0.139407	0.149532
Zn9	Zn	1.489561	0.139407	-0.149527
O10	O	1.494976	0.277427	0.113480
C11	C	1.262020	0.144847	-0.000001
C12	C	1.123188	0.142075	-0.000002
C13	C	1.056288	0.222866	-0.000011
C14	C	0.912798	0.220002	-0.000013
C15	C	1.479364	-0.033958	0.000016
C16	C	1.465180	-0.139276	0.000018
C17	C	1.439248	-0.332106	-0.000002
C18	C	1.539849	-0.389085	-0.000005
C19	C	1.525420	-0.496383	-0.000016
C20	C	1.453675	-0.224799	0.000009
C21	C	1.717083	0.133966	0.000002
C22	C	1.855914	0.136739	-0.000005
C23	C	1.499738	0.312772	-0.000015
C24	C	1.513923	0.418090	-0.000025
N25	N	1.489538	0.139406	0.353631
N26	N	1.489573	0.139401	-0.353627
C27	C	1.563202	0.078514	0.421415
C28	C	1.563222	0.078511	0.578578
H29	H	0.855286	0.289166	-0.000026
H30	H	1.342291	-0.363906	-0.000007
C31	C	1.659899	-0.246636	0.000034
C32	C	1.670751	-0.346162	0.000017
H33	H	1.740710	-0.220136	0.000060
H34	H	1.615841	-0.226126	-0.079119
H35	H	1.615801	-0.226148	0.079189
H36	H	1.714842	-0.366651	-0.079143
H37	H	1.714828	-0.366680	0.079179
C38	C	1.617657	-0.085259	0.377068
C39	C	1.648326	0.008159	0.342662
H40	H	1.670208	-0.128687	0.328433
H41	H	1.628864	-0.094510	0.472339
H42	H	1.533102	-0.095938	0.353743
H43	H	1.732879	0.018840	0.365997
H44	H	1.637130	0.017414	0.247370
H45	H	1.626294	0.026383	0.636869
C46	C	1.477414	0.268226	0.485522
C47	C	1.404429	0.209784	0.567700
H48	H	1.424847	0.311673	0.436940
H49	H	1.533266	0.302620	0.541255
H50	H	1.523612	0.230016	0.422621
H51	H	1.358238	0.247994	0.630608
H52	H	1.348555	0.175387	0.511962
C53	C	0.982434	0.039136	-0.116684
C54	C	1.057118	0.045830	0.000001
H55	H	0.941655	-0.020286	-0.116684
H56	H	0.921874	0.089446	-0.116676
H57	H	1.033131	0.043694	-0.195828
H58	H	1.006420	0.041279	0.079145
H59	H	1.117686	-0.004493	0.000005
C60	C	1.251719	0.303317	-0.000014
C61	C	1.122362	0.319109	-0.000017
H62	H	1.292505	0.362737	-0.000024
H63	H	1.275186	0.268261	0.079139
H64	H	1.275196	0.268256	-0.079169
H65	H	1.098883	0.354165	0.079144
H66	H	1.098886	0.354180	-0.079178
H67	H	0.913420	0.067571	-0.000006
H68	H	1.426481	0.191531	0.411950
