data_functionalizedCrystal
_audit_creation_method	'MofGen! by Chris Wilmer'
_symmetry_space_group_name_H-M	'P1'
_symmetry_Int_Tables_number	1
_symmetry_cell_setting	triclinic
loop_
_symmetry_equiv_pos_as_xyz
  x,y,z
_cell_length_a	25.639240
_cell_length_b	12.759401
_cell_length_c	25.639234
_cell_angle_alpha	89.983900
_cell_angle_beta	90.019566
_cell_angle_gamma	89.969792
loop_
_atom_site_label
_atom_site_type_symbol
_atom_site_fract_x
_atom_site_fract_y
_atom_site_fract_z
Zn1	Zn	-0.208210	-1.606093	0.295609
Zn2	Zn	0.291790	-1.106093	0.795609
Zn3	Zn	-0.295638	-1.605944	0.208181
Zn4	Zn	0.204362	-1.105944	0.708181
Zn5	Zn	-0.208215	-1.430405	0.208189
Zn6	Zn	0.291785	-0.930405	0.708189
Zn7	Zn	-0.295613	-1.430330	0.295587
Zn8	Zn	0.204387	-0.930330	0.795587
O9	O	-0.251919	-1.518193	0.251891
O10	O	0.248081	-1.018193	0.751891
O11	O	-0.219816	-1.753094	0.284016
O12	O	0.280184	-1.253094	0.784016
O13	O	-0.284053	-1.582628	0.135016
O14	O	0.215947	-1.082628	0.635016
O15	O	-0.135049	-1.453804	0.219798
O16	O	0.364951	-0.953804	0.719798
O17	O	-0.284048	-1.752985	0.219783
O18	O	0.215952	-1.252985	0.719783
O19	O	-0.135046	-1.582881	0.284025
O20	O	0.364954	-1.082881	0.784025
O21	O	-0.219825	-1.453660	0.135023
O22	O	0.280175	-0.953660	0.635023
O23	O	-0.219801	-1.283374	0.219777
O24	O	0.280199	-0.783374	0.719777
O25	O	-0.284007	-1.453676	0.368755
O26	O	0.215993	-0.953676	0.868755
O27	O	-0.284012	-1.283319	0.283988
O28	O	0.215988	-0.783319	0.783988
O29	O	-0.219792	-1.582808	0.368771
O30	O	0.280208	-1.082808	0.868771
O31	O	-0.368800	-1.582555	0.219763
O32	O	0.131200	-1.082555	0.719763
O33	O	-0.368782	-1.453532	0.283980
O34	O	0.131218	-0.953532	0.783980
C35	C	-0.251905	-1.245226	0.251882
C36	C	0.248095	-0.745226	0.751882
C37	C	-0.251911	-1.128449	0.251890
C38	C	0.248089	-0.628449	0.751890
C39	C	-0.285398	-1.073586	0.285269
C40	C	0.214602	-0.573586	0.785269
C41	C	-0.285403	-0.963862	0.285273
C42	C	0.214597	-0.463862	0.785273
C43	C	-0.218432	-0.963874	0.218516
C44	C	0.281568	-0.463874	0.718516
C45	C	-0.218425	-1.073596	0.218514
C46	C	0.281575	-0.573596	0.718514
C47	C	-0.324065	-1.073578	0.323809
C48	C	0.175935	-0.573578	0.823809
C49	C	-0.324070	-0.963854	0.323814
C50	C	0.175930	-0.463854	0.823814
C51	C	-0.387762	-1.518048	0.251879
C52	C	0.112238	-1.018048	0.751879
C53	C	-0.445876	-1.518082	0.251892
C54	C	0.054124	-1.018082	0.751892
C55	C	-0.697016	-1.585397	0.285368
C56	C	-0.197016	-1.085397	0.785368
C57	C	-0.642412	-1.585366	0.285364
C58	C	-0.142412	-1.085366	0.785364
O59	O	-0.614130	-1.642479	0.313810
O60	O	-0.114130	-1.142479	0.813810
N61	N	-0.615150	-1.518197	0.251898
N62	N	-0.115150	-1.018197	0.751898
C63	C	-0.642495	-1.451063	0.218430
C64	C	-0.142495	-0.951063	0.718430
O65	O	-0.614292	-1.393928	0.189964
O66	O	-0.114292	-0.893928	0.689964
C67	C	-0.697098	-1.451101	0.218432
C68	C	-0.197098	-0.951101	0.718432
C69	C	-0.724357	-1.518266	0.251904
C70	C	-0.224357	-1.018266	0.751904
C71	C	-0.724275	-1.652558	0.318837
C72	C	-0.224275	-1.152558	0.818837
C73	C	-0.778876	-1.652588	0.318842
C74	C	-0.278876	-1.152588	0.818842
C75	C	-0.806217	-1.585457	0.285377
C76	C	-0.306217	-1.085457	0.785377
C77	C	-0.778958	-1.518296	0.251908
C78	C	-0.278958	-1.018296	0.751908
C79	C	-0.724442	-1.383973	0.184961
C80	C	-0.224442	-0.883973	0.684961
C81	C	-0.779049	-1.384017	0.184966
C82	C	-0.279049	-0.884017	0.684966
C83	C	-0.806308	-1.451182	0.218438
C84	C	-0.306308	-0.951182	0.718438
C85	C	-0.860900	-1.451195	0.218448
C86	C	-0.360900	-0.951195	0.718448
N87	N	-0.888162	-1.518364	0.251915
N88	N	-0.388162	-1.018364	0.751915
C89	C	-0.860820	-1.585495	0.285379
C90	C	-0.360820	-1.085495	0.785379
C91	C	-0.527824	-1.450990	0.218428
C92	C	-0.027824	-0.950990	0.718428
C93	C	-0.473222	-1.450947	0.218429
C94	C	0.026778	-0.950947	0.718429
C95	C	-0.473142	-1.585251	0.285363
C96	C	0.026858	-1.085251	0.785363
C97	C	-0.527746	-1.585289	0.285364
C98	C	-0.027746	-1.085289	0.785364
C99	C	-0.555086	-1.518159	0.251894
C100	C	-0.055086	-1.018159	0.751894
C101	C	-0.975485	-1.585552	0.285386
C102	C	-0.475485	-1.085552	0.785386
C103	C	-1.030091	-1.585573	0.285389
C104	C	-0.530091	-1.085573	0.785389
C105	C	-1.030165	-1.451273	0.218454
C106	C	-0.530165	-0.951273	0.718454
C107	C	-0.975565	-1.451247	0.218452
C108	C	-0.475565	-0.951247	0.718452
C109	C	-0.948226	-1.518396	0.251920
C110	C	-0.448226	-1.018396	0.751920
O111	O	-0.889216	-1.394114	0.190016
O112	O	-0.389216	-0.894114	0.690016
O113	O	-0.889029	-1.642630	0.313836
O114	O	-0.389029	-1.142630	0.813836
C115	C	-0.115546	-1.518367	0.251915
C116	C	0.384454	-1.018367	0.751915
C117	C	-0.057432	-1.518442	0.251925
C118	C	0.442568	-1.018442	0.751925
C119	C	-0.251896	-1.518250	0.388264
C120	C	0.248104	-1.018250	0.888264
C121	C	-0.251886	-1.518274	0.446378
C122	C	0.248114	-1.018274	0.946378
C123	C	-0.251930	-0.792226	0.251899
C124	C	0.248070	-0.292226	0.751899
C125	C	-0.251923	-0.909003	0.251896
C126	C	0.248077	-0.409003	0.751896
C127	C	-0.251904	-1.518197	0.116049
C128	C	0.248096	-1.018197	0.616049
C129	C	-0.251767	-1.518376	0.057935
C130	C	0.248233	-1.018376	0.557935
C131	C	-0.285287	-1.585456	0.697561
C132	C	0.214713	-1.085456	1.197561
C133	C	-0.285298	-1.585445	0.642957
C134	C	0.214702	-1.085445	1.142957
O135	O	-0.313755	-1.642515	0.614711
O136	O	0.186245	-1.142515	1.114711
N137	N	-0.251861	-1.518297	0.615652
N138	N	0.248139	-1.018297	1.115652
C139	C	-0.218414	-1.451149	0.642955
C140	C	0.281586	-0.951149	1.142955
O141	O	-0.189975	-1.394033	0.614717
O142	O	0.310025	-0.894033	1.114717
C143	C	-0.218406	-1.451156	0.697559
C144	C	0.281594	-0.951156	1.197559
C145	C	-0.251842	-1.518315	0.724860
C146	C	0.248158	-1.018315	1.224860
C147	C	-0.318721	-1.652609	0.724863
C148	C	0.181279	-1.152609	1.224863
C149	C	-0.318709	-1.652621	0.779463
C150	C	0.181291	-1.152621	1.279463
C151	C	-0.285264	-1.585480	0.806762
C152	C	0.214736	-1.085480	1.306762
C153	C	-0.251830	-1.518327	0.779461
C154	C	0.248170	-1.018327	1.279461
C155	C	-0.184963	-1.384003	0.724860
C156	C	0.315037	-0.884003	1.224860
C157	C	-0.184958	-1.384015	0.779467
C158	C	0.315042	-0.884015	1.279467
C159	C	-0.218394	-1.451174	0.806769
C160	C	0.281606	-0.951174	1.306769
C161	C	-0.218373	-1.451198	0.861360
C162	C	0.281627	-0.951198	1.361360
N163	N	-0.251811	-1.518346	0.888665
N164	N	0.248189	-1.018346	1.388665
C165	C	-0.285256	-1.585487	0.861366
C166	C	0.214744	-1.085487	1.361366
C167	C	-0.218434	-1.451139	0.528285
C168	C	0.281566	-0.951139	1.028285
C169	C	-0.218439	-1.451137	0.473682
C170	C	0.281561	-0.951137	0.973682
C171	C	-0.285324	-1.585432	0.473687
C172	C	0.214676	-1.085432	0.973687
C173	C	-0.285316	-1.585438	0.528291
C174	C	0.214684	-1.085438	1.028291
C175	C	-0.251871	-1.518286	0.555589
C176	C	0.248129	-1.018286	1.055589
C177	C	-0.285228	-1.585508	0.976031
C178	C	0.214772	-1.085508	1.476031
C179	C	-0.285212	-1.585517	1.030636
C180	C	0.214788	-1.085517	1.530636
C181	C	-0.218330	-1.451219	1.030626
C182	C	0.281670	-0.951219	1.530626
C183	C	-0.218344	-1.451213	0.976025
C184	C	0.281656	-0.951213	1.476025
C185	C	-0.251797	-1.518361	0.948729
C186	C	0.248203	-1.018361	1.448729
O187	O	-0.189933	-1.394154	0.889641
O188	O	0.310067	-0.894154	1.389641
O189	O	-0.313696	-1.642583	0.889611
O190	O	0.186304	-1.142583	1.389611
H191	H	-0.309624	-0.929860	0.362308
H192	H	0.190376	-0.429860	0.862308
H193	H	-0.157723	-1.329331	0.801691
H194	H	0.342277	-0.829331	1.301691
C195	C	-0.152222	-1.062582	0.152535
C196	C	0.347778	-0.562582	0.652535
C197	C	-0.181610	-1.133903	0.181829
C198	C	0.318390	-0.633903	0.681829
H199	H	-0.129495	-1.099816	0.129885
H200	H	0.370505	-0.599816	0.629885
H201	H	-0.132263	-1.019818	0.175353
H202	H	0.367737	-0.519818	0.675353
H203	H	-0.174980	-1.019756	0.132494
H204	H	0.325020	-0.519756	0.632494
H205	H	-0.158852	-1.176724	0.201873
H206	H	0.341148	-0.676724	0.701873
H207	H	-0.201571	-1.176686	0.159007
H208	H	0.298429	-0.676686	0.659007
H209	H	-0.191168	-0.919199	0.191343
H210	H	0.308832	-0.419199	0.691343
H211	H	-0.312542	-1.640125	0.550516
H212	H	0.187458	-1.140125	1.050516
C213	C	-0.310812	-1.763298	0.456875
C214	C	0.189188	-1.263298	0.956875
C215	C	-0.322091	-1.659230	0.443672
C216	C	0.177909	-1.159230	0.943672
H217	H	-0.333507	-1.808853	0.438341
H218	H	0.166493	-1.308853	0.938341
H219	H	-0.315598	-1.772916	0.493296
H220	H	0.184402	-1.272916	0.993296
H221	H	-0.275684	-1.778706	0.447933
H222	H	0.224316	-1.278706	0.947933
H223	H	-0.357218	-1.643819	0.452618
H224	H	0.142782	-1.143819	0.952618
H225	H	-0.317310	-1.649607	0.407243
H226	H	0.182690	-1.149607	0.907243
H227	H	-0.191111	-1.396541	0.953795
H228	H	0.308889	-0.896541	1.453795
C229	C	-0.456504	-1.273057	0.192881
C230	C	0.043496	-0.773057	0.692881
C231	C	-0.443263	-1.377106	0.181639
C232	C	0.056737	-0.877106	0.681639
H233	H	-0.438012	-1.227475	0.170164
H234	H	0.061988	-0.727475	0.670164
H235	H	-0.447541	-1.257641	0.227998
H236	H	0.052459	-0.757641	0.727998
H237	H	-0.492939	-1.263489	0.188097
H238	H	0.007061	-0.763489	0.688097
H239	H	-0.406829	-1.386676	0.186427
H240	H	0.093171	-0.886676	0.686427
H241	H	-0.452223	-1.392528	0.146514
H242	H	0.047777	-0.892528	0.646514
H243	H	-0.702255	-1.329281	0.157705
H244	H	-0.202255	-0.829281	0.657705
C245	C	-0.355583	-1.600023	0.914627
C246	C	0.144417	-1.100023	1.414627
C247	C	-0.321999	-1.659319	0.946032
C248	C	0.178001	-1.159319	1.446032
H249	H	-0.378283	-1.645595	0.896110
H250	H	0.121717	-1.145595	1.396110
H251	H	-0.335675	-1.560043	0.890550
H252	H	0.164325	-1.060043	1.390550
H253	H	-0.375572	-1.554227	0.935927
H254	H	0.124428	-1.054227	1.435927
H255	H	-0.302007	-1.705110	0.924732
H256	H	0.197993	-1.205110	1.424732
H257	H	-0.341909	-1.699317	0.970112
H258	H	0.158091	-1.199317	1.470112
H259	H	-0.550081	-1.396315	0.191175
H260	H	-0.050081	-0.896315	0.691175
C261	C	-0.264203	-1.174849	0.375320
C262	C	0.235797	-0.674849	0.875320
C263	C	-0.309502	-1.113839	0.378496
C264	C	0.190498	-0.613839	0.878496
H265	H	-0.255217	-1.199710	0.409080
H266	H	0.244783	-0.699710	0.909080
H267	H	-0.236476	-1.133502	0.361923
H268	H	0.263524	-0.633502	0.861923
H269	H	-0.270201	-1.232723	0.352807
H270	H	0.229799	-0.732723	0.852807
H271	H	-0.303503	-1.055960	0.401005
H272	H	0.196497	-0.555960	0.901005
H273	H	-0.337236	-1.155187	0.391900
H274	H	0.162764	-0.655187	0.891900
C275	C	-0.407261	-1.703689	0.708054
C276	C	0.092739	-1.203689	1.208054
C277	C	-0.355486	-1.726424	0.694863
C278	C	0.144514	-1.226424	1.194863
H279	H	-0.429957	-1.749273	0.689539
H280	H	0.070043	-1.249273	1.189539
H281	H	-0.414911	-1.633102	0.699087
H282	H	0.085089	-1.133102	1.199087
H283	H	-0.412029	-1.713290	0.744484
H284	H	0.087971	-1.213290	1.244484
H285	H	-0.350717	-1.716815	0.658434
H286	H	0.149283	-1.216815	1.158434
H287	H	-0.347834	-1.797028	0.703827
H288	H	0.152166	-1.297028	1.203827
H289	H	-0.953370	-1.396544	0.191202
H290	H	-0.453370	-0.896544	0.691202
H291	H	-0.801307	-1.329351	0.157709
H292	H	-0.301307	-0.829351	0.657709
H293	H	-0.702019	-1.707230	0.346088
H294	H	-0.202019	-1.207230	0.846088
C295	C	-0.410049	-1.037711	0.291223
C296	C	0.089951	-0.537711	0.791223
C297	C	-0.375960	-1.119477	0.304140
C298	C	0.124040	-0.619477	0.804140
H299	H	-0.442087	-1.066051	0.279083
H300	H	0.057913	-0.566051	0.779083
H301	H	-0.394881	-0.995814	0.264629
H302	H	0.105119	-0.495814	0.764629
H303	H	-0.416304	-0.995827	0.321203
H304	H	0.083696	-0.495827	0.821203
H305	H	-0.369702	-1.161358	0.274159
H306	H	0.130298	-0.661358	0.774159
H307	H	-0.391131	-1.161393	0.330737
H308	H	0.108869	-0.661393	0.830737
C309	C	-1.113909	-1.391719	0.188739
C310	C	-0.613909	-0.891719	0.688739
C311	C	-1.060226	-1.377492	0.181667
C312	C	-0.560226	-0.877492	0.681667
H313	H	-1.132467	-1.346179	0.166023
H314	H	-0.632467	-0.846179	0.666023
H315	H	-1.122846	-1.376294	0.223857
H316	H	-0.622846	-0.876294	0.723857
H317	H	-1.122821	-1.462333	0.181125
H318	H	-0.622821	-0.962333	0.681125
H319	H	-1.051314	-1.306880	0.189285
H320	H	-0.551314	-0.806880	0.689285
H321	H	-1.051286	-1.392910	0.146541
H322	H	-0.551286	-0.892910	0.646541
H323	H	-0.191098	-1.396558	1.052863
H324	H	0.308902	-0.896558	1.552863
H325	H	-0.953232	-1.640231	0.312638
H326	H	-0.453232	-1.140231	0.812638
H327	H	-0.364551	-0.934035	0.312898
H328	H	0.135449	-0.434035	0.812898
H329	H	-0.801065	-1.707290	0.346094
H330	H	-0.301065	-1.207290	0.846094
C331	C	-1.024519	-1.718328	0.351551
C332	C	-0.524519	-1.218328	0.851551
C333	C	-1.060053	-1.659409	0.322183
C334	C	-0.560053	-1.159409	0.822183
H335	H	-1.043016	-1.763913	0.374263
H336	H	-0.543016	-1.263913	0.874263
H337	H	-1.003233	-1.672515	0.371527
H338	H	-0.503233	-1.172515	0.871527
H339	H	-1.003215	-1.758527	0.328780
H340	H	-0.503215	-1.258527	0.828780
H341	H	-1.081355	-1.619204	0.344954
H342	H	-0.581355	-1.119204	0.844954
H343	H	-1.081348	-1.705228	0.302206
H344	H	-0.581348	-1.205228	0.802206
H345	H	-0.549937	-1.639976	0.312623
H346	H	-0.049937	-1.139976	0.812623
H347	H	-0.191206	-1.396461	0.451458
H348	H	0.308794	-0.896461	0.951458
H349	H	-0.450871	-1.639915	0.312611
H350	H	0.049129	-1.139915	0.812611
H351	H	-0.312440	-1.640210	1.052863
H352	H	0.187560	-1.140210	1.552863
H353	H	-0.345938	-1.707305	0.801687
H354	H	0.154062	-1.207305	1.301687
C355	C	-0.152315	-1.318406	0.522786
C356	C	0.347685	-0.818406	1.022786
C357	C	-0.181661	-1.377334	0.558288
C358	C	0.318339	-0.877334	1.058288
H359	H	-0.129612	-1.272848	0.541308
H360	H	0.370388	-0.772848	1.041308
H361	H	-0.175097	-1.278188	0.501483
H362	H	0.324903	-0.778188	1.001483
H363	H	-0.132328	-1.364223	0.501495
H364	H	0.367672	-0.864223	1.001495
H365	H	-0.201651	-1.331517	0.579576
H366	H	0.298349	-0.831517	1.079576
H367	H	-0.158876	-1.417555	0.579600
H368	H	0.341124	-0.917555	1.079600
H369	H	-0.157737	-1.329313	0.702641
H370	H	0.342263	-0.829313	1.202641
