data_functionalizedCrystal
_audit_creation_method	'MofGen! by Chris Wilmer'
_symmetry_space_group_name_H-M	'P1'
_symmetry_Int_Tables_number	1
_symmetry_cell_setting	triclinic
loop_
_symmetry_equiv_pos_as_xyz
  x,y,z
_cell_length_a	21.395364
_cell_length_b	21.395362
_cell_length_c	21.395355
_cell_angle_alpha	89.980094
_cell_angle_beta	89.975448
_cell_angle_gamma	90.042450
loop_
_atom_site_label
_atom_site_type_symbol
_atom_site_fract_x
_atom_site_fract_y
_atom_site_fract_z
Zn1	Zn	0.957873	-0.249261	-0.354255
Zn2	Zn	1.291207	0.084072	-0.020922
Zn3	Zn	1.624540	0.417406	0.312411
Zn4	Zn	0.957782	-0.354021	-0.249475
Zn5	Zn	1.291115	-0.020688	0.083858
Zn6	Zn	1.624448	0.312646	0.417191
Zn7	Zn	0.853088	-0.249289	-0.249492
Zn8	Zn	1.186421	0.084045	0.083841
Zn9	Zn	1.519755	0.417378	0.417175
Zn10	Zn	0.853063	-0.354032	-0.354216
Zn11	Zn	1.186397	-0.020699	-0.020882
Zn12	Zn	1.519730	0.312634	0.312451
O13	O	0.905452	-0.301651	-0.301860
O14	O	1.238785	0.031683	0.031474
O15	O	1.572118	0.365016	0.364807
O16	O	1.045539	-0.263142	-0.340366
O17	O	1.378872	0.070192	-0.007032
O18	O	1.712206	0.403525	0.326301
O19	O	0.943866	-0.340135	-0.161800
O20	O	1.277199	-0.006801	0.171534
O21	O	1.610532	0.326532	0.504867
O22	O	0.867037	-0.161607	-0.263413
O23	O	1.200370	0.171726	0.069920
O24	O	1.533704	0.505060	0.403254
O25	O	1.045472	-0.340108	-0.263384
O26	O	1.378805	-0.006775	0.069949
O27	O	1.712138	0.326558	0.403282
O28	O	0.944022	-0.161587	-0.340382
O29	O	1.277355	0.171746	-0.007049
O30	O	1.610689	0.505080	0.326285
O31	O	0.866948	-0.263188	-0.161812
O32	O	1.200281	0.070145	0.171521
O33	O	1.533615	0.403478	0.504855
O34	O	0.765407	-0.263199	-0.263374
O35	O	1.098740	0.070134	0.069959
O36	O	1.432074	0.403467	0.403292
O37	O	0.866994	-0.340127	-0.441899
O38	O	1.200328	-0.006794	-0.108565
O39	O	1.533661	0.326539	0.224768
O40	O	0.765389	-0.340154	-0.340314
O41	O	1.098722	-0.006821	-0.006981
O42	O	1.432055	0.326513	0.326353
O43	O	0.943998	-0.263152	-0.441928
O44	O	1.277331	0.070181	-0.108595
O45	O	1.610664	0.403514	0.224739
O46	O	0.943842	-0.441700	-0.263346
O47	O	1.277175	-0.108367	0.069988
O48	O	1.610508	0.224966	0.403321
O49	O	0.866906	-0.441709	-0.340298
O50	O	1.200239	-0.108375	-0.006965
O51	O	1.533572	0.224958	0.326369
C52	C	0.742664	-0.301681	-0.301842
C53	C	1.075997	0.031652	0.031491
C54	C	1.409331	0.364985	0.364825
C55	C	0.673023	-0.301709	-0.301849
C56	C	1.006356	0.031624	0.031484
C57	C	1.339689	0.364957	0.364817
C58	C	0.640367	-0.261698	-0.341996
C59	C	0.973700	0.071635	-0.008662
C60	C	1.307034	0.404968	0.324671
C61	C	0.574932	-0.261682	-0.341998
C62	C	0.908265	0.071652	-0.008665
C63	C	1.241598	0.404985	0.324669
C64	C	0.542154	-0.301687	-0.301861
C65	C	0.875488	0.031646	0.031473
C66	C	1.208821	0.364979	0.364806
C67	C	0.574818	-0.341701	-0.261707
C68	C	0.908151	-0.008368	0.071627
C69	C	1.241485	0.324966	0.404960
C70	C	0.640252	-0.341712	-0.261701
C71	C	0.973585	-0.008379	0.071632
C72	C	1.306919	0.324955	0.404966
C73	C	0.438433	-0.358112	-0.296822
C74	C	0.771766	-0.024779	0.036511
C75	C	1.105100	0.308555	0.369845
C76	C	0.373000	-0.358102	-0.296832
C77	C	0.706333	-0.024769	0.036501
C78	C	1.039667	0.308565	0.369835
C79	C	0.340334	-0.301653	-0.301875
C80	C	0.673667	0.031681	0.031459
C81	C	1.007000	0.365014	0.364792
C82	C	0.373108	-0.245212	-0.306921
C83	C	0.706441	0.088121	0.026413
C84	C	1.039775	0.421455	0.359746
C85	C	0.438542	-0.245223	-0.306915
C86	C	0.771876	0.088110	0.026418
C87	C	1.105209	0.421444	0.359752
C88	C	0.471202	-0.301679	-0.301862
C89	C	0.804535	0.031654	0.031471
C90	C	1.137869	0.364987	0.364804
C91	C	0.236725	-0.261620	-0.342026
C92	C	0.570059	0.071713	-0.008692
C93	C	0.903392	0.405046	0.324641
C94	C	0.171289	-0.261603	-0.342024
C95	C	0.504622	0.071731	-0.008690
C96	C	0.837955	0.405064	0.324643
C97	C	0.171176	-0.341627	-0.261736
C98	C	0.504510	-0.008294	0.071598
C99	C	0.837843	0.325039	0.404931
C100	C	0.236612	-0.341639	-0.261735
C101	C	0.569945	-0.008306	0.071599
C102	C	0.903278	0.325027	0.404932
C103	C	0.269382	-0.301637	-0.301883
C104	C	0.602716	0.031696	0.031451
C105	C	0.936049	0.365030	0.364784
C106	C	0.905378	-0.464438	-0.301829
C107	C	1.238711	-0.131105	0.031504
C108	C	1.572045	0.202228	0.364837
C109	C	0.905404	-0.534080	-0.301837
C110	C	1.238737	-0.200746	0.031496
C111	C	1.572070	0.132587	0.364829
C112	C	0.945663	-1.035851	-0.261892
C113	C	1.278996	-0.702517	0.071441
C114	C	1.612330	-0.369184	0.404774
C115	C	0.945639	-0.970415	-0.261878
C116	C	1.278973	-0.637082	0.071456
C117	C	1.612306	-0.303748	0.404789
C118	C	0.905540	-0.937718	-0.301904
C119	C	1.238874	-0.604384	0.031429
C120	C	1.572207	-0.271051	0.364762
C121	C	0.865451	-0.970461	-0.341937
C122	C	1.198784	-0.637128	-0.008604
C123	C	1.532117	-0.303795	0.324729
C124	C	0.865471	-1.035895	-0.341947
C125	C	1.198805	-0.702562	-0.008613
C126	C	1.532138	-0.369229	0.324720
C127	C	0.900532	-0.834028	-0.358335
C128	C	1.233866	-0.500695	-0.025002
C129	C	1.567199	-0.167362	0.308332
C130	C	0.900516	-0.768595	-0.358327
C131	C	1.233850	-0.435262	-0.024994
C132	C	1.567183	-0.101929	0.308340
C133	C	0.905474	-0.735897	-0.301876
C134	C	1.238807	-0.402564	0.031457
C135	C	1.572140	-0.069230	0.364791
C136	C	0.910460	-0.768640	-0.245432
C137	C	1.243794	-0.435306	0.087902
C138	C	1.577127	-0.101973	0.421235
C139	C	0.910481	-0.834074	-0.245441
C140	C	1.243814	-0.500741	0.087893
C141	C	1.577147	-0.167407	0.421226
C142	C	0.905513	-0.866765	-0.301899
C143	C	1.238847	-0.533432	0.031435
C144	C	1.572180	-0.200099	0.364768
C145	C	0.945532	-0.632209	-0.261827
C146	C	1.278865	-0.298876	0.071507
C147	C	1.612199	0.034458	0.404840
C148	C	0.945504	-0.566772	-0.261811
C149	C	1.278837	-0.233439	0.071522
C150	C	1.612170	0.099894	0.404856
C151	C	0.865319	-0.566820	-0.341876
C152	C	1.198652	-0.233486	-0.008543
C153	C	1.531985	0.099847	0.324790
C154	C	0.865343	-0.632255	-0.341886
C155	C	1.198677	-0.298922	-0.008553
C156	C	1.532010	0.034412	0.324780
C157	C	0.905453	-0.664946	-0.301862
C158	C	1.238787	-0.331612	0.031471
C159	C	1.572120	0.001721	0.364804
C160	C	1.068875	-0.301621	-0.301878
C161	C	1.402208	0.031713	0.031456
C162	C	1.735541	0.365046	0.364789
C163	C	1.138516	-0.301608	-0.301885
C164	C	1.471849	0.031726	0.031448
C165	C	1.805183	0.365059	0.364781
C166	C	0.905504	-0.301638	-0.465283
C167	C	1.238837	0.031695	-0.131950
C168	C	1.572170	0.365029	0.201384
C169	C	0.905526	-0.301633	-0.534924
C170	C	1.238859	0.031701	-0.201591
C171	C	1.572192	0.365034	0.131742
C172	C	0.905542	-0.138227	-0.301904
C173	C	1.238876	0.195106	0.031430
C174	C	1.572209	0.528439	0.364763
C175	C	0.905581	-0.068586	-0.301923
C176	C	1.238915	0.264747	0.031411
C177	C	1.572248	0.598081	0.364744
C178	C	0.945620	-0.261550	-0.567654
C179	C	1.278953	0.071783	-0.234320
C180	C	1.612286	0.405117	0.099013
C181	C	0.945619	-0.261523	-0.633089
C182	C	1.278952	0.071810	-0.299756
C183	C	1.612285	0.405143	0.033578
C184	C	0.905531	-0.301590	-0.665793
C185	C	1.238864	0.031743	-0.332459
C186	C	1.572197	0.365077	0.000874
C187	C	0.865429	-0.341675	-0.633055
C188	C	1.198762	-0.008342	-0.299722
C189	C	1.532095	0.324991	0.033611
C190	C	0.865426	-0.341697	-0.567621
C191	C	1.198760	-0.008363	-0.234288
C192	C	1.532093	0.324970	0.099045
C193	C	0.900558	-0.358007	-0.769457
C194	C	1.233891	-0.024673	-0.436124
C195	C	1.567224	0.308660	-0.102790
C196	C	0.900565	-0.357986	-0.834890
C197	C	1.233898	-0.024653	-0.501557
C198	C	1.567231	0.308680	-0.168223
C199	C	0.905534	-0.301524	-0.867614
C200	C	1.238868	0.031810	-0.534280
C201	C	1.572201	0.365143	-0.200947
C202	C	0.910511	-0.245080	-0.834896
C203	C	1.243844	0.088254	-0.501563
C204	C	1.577177	0.421587	-0.168230
C205	C	0.910508	-0.245101	-0.769462
C206	C	1.243841	0.088232	-0.436129
C207	C	1.577175	0.421566	-0.102795
C208	C	0.905528	-0.301571	-0.736745
C209	C	1.238862	0.031762	-0.403412
C210	C	1.572195	0.365096	-0.070078
C211	C	0.945630	-0.261409	-0.971295
C212	C	1.278963	0.071925	-0.637962
C213	C	1.612296	0.405258	-0.304629
C214	C	0.945624	-0.261381	-1.036732
C215	C	1.278958	0.071953	-0.703399
C216	C	1.612291	0.405286	-0.370065
C217	C	0.865438	-0.341538	-1.036697
C218	C	1.198771	-0.008205	-0.703364
C219	C	1.532104	0.325128	-0.370031
C220	C	0.865440	-0.341561	-0.971262
C221	C	1.198773	-0.008227	-0.637928
C222	C	1.532106	0.325106	-0.304595
C223	C	0.905539	-0.301497	-0.938565
C224	C	1.238872	0.031837	-0.605232
C225	C	1.572206	0.365170	-0.271898
C226	C	0.905436	-0.301618	-0.139072
C227	C	1.238769	0.031715	0.194261
C228	C	1.572102	0.365049	0.527595
C229	C	0.905535	-0.301447	-0.069431
C230	C	1.238868	0.031886	0.263902
C231	C	1.572202	0.365220	0.597235
H232	H	0.263409	-0.229044	-0.374713
H233	H	0.596742	0.104290	-0.041379
H234	H	0.930075	0.437623	0.291954
H235	H	0.832774	-0.374336	-0.540973
H236	H	1.166107	-0.041002	-0.207640
H237	H	1.499441	0.292331	0.125693
O238	O	0.135830	-0.384771	-0.218440
O239	O	0.469163	-0.051438	0.114894
O240	O	0.802496	0.281896	0.448227
H241	H	0.169534	-0.412594	-0.190519
H242	H	0.502867	-0.079260	0.142814
H243	H	0.836201	0.254073	0.476148
H244	H	0.832801	-0.943836	-0.374527
H245	H	1.166134	-0.610503	-0.041194
H246	H	1.499467	-0.277169	0.292140
H247	H	0.978191	-0.658827	-0.229236
H248	H	1.311524	-0.325494	0.104097
H249	H	1.644858	0.007839	0.437431
O250	O	0.271840	-0.384797	-0.218436
O251	O	0.605173	-0.051463	0.114897
O252	O	0.938507	0.281870	0.448230
H253	H	0.238057	-0.412615	-0.190528
H254	H	0.571390	-0.079282	0.142805
H255	H	0.904724	0.254051	0.476139
O256	O	0.337651	-0.418972	-0.291378
O257	O	0.670985	-0.085639	0.041955
O258	O	1.004318	0.247695	0.375289
H259	H	0.371358	-0.458225	-0.287853
H260	H	0.704691	-0.124892	0.045480
H261	H	1.038024	0.208442	0.378813
O262	O	0.675476	-0.384872	-0.218400
O263	O	1.008809	-0.051539	0.114933
O264	O	1.342142	0.281794	0.448267
H265	H	0.705294	-0.356785	-0.186571
H266	H	1.038627	-0.023452	0.146763
H267	H	1.371961	0.309882	0.480096
H268	H	0.896517	-0.403946	-0.861523
H269	H	1.229850	-0.070613	-0.528190
H270	H	1.563183	0.262720	-0.194857
H271	H	0.914558	-0.199142	-0.742826
H272	H	1.247892	0.134191	-0.409493
H273	H	1.581225	0.467524	-0.076160
O274	O	0.988866	-0.218335	-0.532391
O275	O	1.322199	0.114998	-0.199058
O276	O	1.655533	0.448332	0.134275
H277	H	0.982134	-0.225085	-0.481391
H278	H	1.315467	0.108248	-0.148058
H279	H	1.648800	0.441581	0.185276
H280	H	0.896343	-0.403973	-0.742819
H281	H	1.229676	-0.070640	-0.409485
H282	H	1.563010	0.262693	-0.076152
O283	O	0.136067	-0.218441	-0.385325
O284	O	0.469401	0.114893	-0.051992
O285	O	0.802734	0.448226	0.281342
H286	H	0.085061	-0.225146	-0.378579
H287	H	0.418394	0.108188	-0.045246
H288	H	0.751727	0.441521	0.288088
O289	O	0.822179	-0.384776	-0.935954
O290	O	1.155512	-0.051442	-0.602621
O291	O	1.488845	0.281891	-0.269287
H292	H	0.794297	-0.412628	-0.969686
H293	H	1.127630	-0.079295	-0.636353
H294	H	1.460963	0.254038	-0.303019
H295	H	0.978141	-0.540119	-0.229210
H296	H	1.311474	-0.206785	0.104123
H297	H	1.644808	0.126548	0.437457
H298	H	0.548338	-0.229097	-0.374689
H299	H	0.881671	0.104236	-0.041355
H300	H	1.215005	0.437570	0.291978
H301	H	0.914559	-0.199103	-0.861538
H302	H	1.247892	0.134231	-0.528205
H303	H	1.581225	0.467564	-0.194872
H304	H	0.832706	-0.658909	-0.374485
H305	H	1.166040	-0.325575	-0.041152
H306	H	1.499373	0.007758	0.292181
H307	H	0.667045	-0.229125	-0.374687
H308	H	1.000378	0.104209	-0.041354
H309	H	1.333711	0.437542	0.291980
O310	O	0.988891	-0.935100	-0.218716
O311	O	1.322224	-0.601767	0.114617
O312	O	1.655557	-0.268433	0.447951
H313	H	0.982140	-0.884108	-0.225438
H314	H	1.315473	-0.550774	0.107895
H315	H	1.648807	-0.217441	0.441229
H316	H	0.896609	-0.860646	-0.404317
H317	H	1.229942	-0.527312	-0.070984
H318	H	1.563275	-0.193979	0.262350
O319	O	0.822243	-1.071210	-0.385128
O320	O	1.155576	-0.737876	-0.051794
O321	O	1.488910	-0.404543	0.281539
H322	H	0.794356	-1.037483	-0.412962
H323	H	1.127689	-0.704150	-0.079628
H324	H	1.461023	-0.370816	0.253705
H325	H	0.978277	-0.228783	-0.944672
H326	H	1.311611	0.104551	-0.611339
H327	H	1.644944	0.437884	-0.278006
O328	O	0.915849	-0.869392	-0.184567
O329	O	1.249182	-0.536059	0.148766
O330	O	1.582516	-0.202726	0.482099
H331	H	0.919288	-0.835667	-0.145308
H332	H	1.252621	-0.502334	0.188025
H333	H	1.585955	-0.169001	0.521358
O334	O	0.988870	-0.218296	-0.668403
O335	O	1.322203	0.115038	-0.335069
O336	O	1.655536	0.448371	-0.001736
H337	H	1.016755	-0.190444	-0.634673
H338	H	1.350089	0.142889	-0.301340
H339	H	1.683422	0.476222	0.031993
O340	O	0.473895	-0.184353	-0.312341
O341	O	0.807228	0.148981	0.020993
O342	O	1.140561	0.482314	0.354326
H343	H	0.440192	-0.145094	-0.315841
H344	H	0.773525	0.188239	0.017492
H345	H	1.106859	0.521572	0.350825
H346	H	0.978273	-0.228737	-1.063379
H347	H	1.311606	0.104596	-0.730046
H348	H	1.644939	0.437930	-0.396713
H349	H	0.832791	-0.374155	-1.063324
H350	H	1.166124	-0.040822	-0.729990
H351	H	1.499457	0.292512	-0.396657
O352	O	0.822188	-0.384890	-0.668323
O353	O	1.155521	-0.051557	-0.334989
O354	O	1.488854	0.281777	-0.001656
H355	H	0.828928	-0.378145	-0.719322
H356	H	1.162262	-0.044812	-0.385989
H357	H	1.495595	0.288521	-0.052656
O358	O	0.473665	-0.419000	-0.291387
O359	O	0.806999	-0.085667	0.041946
O360	O	1.140332	0.247667	0.375279
H361	H	0.439884	-0.458244	-0.287891
H362	H	0.773218	-0.124911	0.045442
H363	H	1.106551	0.208423	0.378775
H364	H	0.548127	-0.374273	-0.229026
H365	H	0.881460	-0.040940	0.104307
H366	H	1.214793	0.292394	0.437640
O367	O	0.337885	-0.184321	-0.312353
O368	O	0.671218	0.149013	0.020980
O369	O	1.004551	0.482346	0.354314
H370	H	0.308086	-0.185370	-0.354793
H371	H	0.641419	0.147964	-0.021460
H372	H	0.974752	0.481297	0.311874
O373	O	0.988915	-1.071111	-0.218719
O374	O	1.322248	-0.737778	0.114614
O375	O	1.655582	-0.404445	0.447948
H376	H	1.016778	-1.037351	-0.190876
H377	H	1.350112	-0.704017	0.142457
H378	H	1.683445	-0.370684	0.475791
O379	O	0.915802	-0.733384	-0.184538
O380	O	1.249135	-0.400051	0.148796
O381	O	1.582469	-0.066718	0.482129
H382	H	0.914941	-0.682383	-0.194010
H383	H	1.248274	-0.349050	0.139323
H384	H	1.581608	-0.015717	0.472657
O385	O	0.822068	-0.531564	-0.385051
O386	O	1.155401	-0.198231	-0.051718
O387	O	1.488734	0.135102	0.281615
H388	H	0.828789	-0.480563	-0.378323
H389	H	1.162122	-0.147230	-0.044990
H390	H	1.495456	0.186103	0.288344
H391	H	0.896460	-0.741939	-0.404286
H392	H	1.229793	-0.408606	-0.070953
H393	H	1.563127	-0.075273	0.262381
