data_functionalizedCrystal
_audit_creation_method	'MofGen! by Chris Wilmer'
_symmetry_space_group_name_H-M	'P1'
_symmetry_Int_Tables_number	1
_symmetry_cell_setting	triclinic
loop_
_symmetry_equiv_pos_as_xyz
  x,y,z
_cell_length_a	26.374263
_cell_length_b	26.373608
_cell_length_c	26.370205
_cell_angle_alpha	60.005297
_cell_angle_beta	60.010839
_cell_angle_gamma	59.993700
loop_
_atom_site_label
_atom_site_type_symbol
_atom_site_fract_x
_atom_site_fract_y
_atom_site_fract_z
O1	O	0.070152	-0.740800	0.619517
O2	O	0.570152	-0.240800	1.119517
O3	O	0.026377	-0.576764	0.499159
O4	O	0.526377	-0.076764	0.999159
O5	O	0.130245	-0.680560	0.499088
O6	O	0.630245	-0.180560	0.999088
O7	O	-0.033715	-0.637003	0.619589
O8	O	0.466285	-0.137003	1.119589
O9	O	0.164701	-0.646107	0.533470
O10	O	0.664701	-0.146107	1.033470
O11	O	0.060833	-0.542310	0.533541
O12	O	0.560833	-0.042310	1.033541
O13	O	0.104608	-0.706346	0.653899
O14	O	0.604608	-0.206346	1.153899
Cu15	Cu	0.085867	-0.621182	0.596859
Cu16	Cu	0.585867	-0.121182	1.096859
Cu17	Cu	0.045119	-0.661927	0.556199
Cu18	Cu	0.545119	-0.161927	1.056199
O19	O	0.000741	-0.602549	0.653971
O20	O	0.500741	-0.102549	1.153971
N21	N	0.114528	-0.592529	0.625461
N22	N	0.614528	-0.092529	1.125461
N23	N	0.016463	-0.690587	0.527598
N24	N	0.516463	-0.190587	1.027598
C25	C	0.181428	-0.355400	0.692330
C26	C	0.681428	0.144600	1.192330
C27	C	0.181530	-0.525690	0.862573
C28	C	0.681530	-0.025690	1.362573
C29	C	0.181440	-0.525667	0.692313
C30	C	0.681440	-0.025667	1.192313
C31	C	0.351736	-0.525673	0.692271
C32	C	0.851736	-0.025673	1.192271
C33	C	0.200174	-0.411588	0.711047
C34	C	0.700174	0.088412	1.211047
C35	C	0.200232	-0.506954	0.806384
C36	C	0.700232	-0.006954	1.306384
C37	C	0.295546	-0.506943	0.711016
C38	C	0.795546	-0.006943	1.211016
C39	C	0.200182	-0.506940	0.711037
C40	C	0.700182	-0.006940	1.211037
C41	C	0.157567	-0.283881	0.668507
C42	C	0.657567	0.216119	1.168507
C43	C	0.157587	-0.549500	0.668479
C44	C	0.657587	-0.049500	1.168479
C45	C	0.224035	-0.483107	0.734871
C46	C	0.724035	0.016893	1.234871
C47	C	0.455739	-0.507754	0.637520
C48	C	0.955739	-0.007754	1.137520
C49	C	0.520749	-0.529425	0.615835
C50	C	1.020749	-0.029425	1.115835
C51	C	0.520768	-0.634611	0.655947
C52	C	1.020768	-0.134611	1.155947
C53	C	0.455759	-0.612939	0.677633
C54	C	0.955759	-0.112939	1.177633
C55	C	0.173240	-0.251367	0.604595
C56	C	0.673240	0.248633	1.104595
C57	C	0.151546	-0.186351	0.582941
C58	C	0.651546	0.313649	1.082941
C59	C	0.098512	-0.186369	0.689113
C60	C	0.598512	0.313631	1.189113
C61	C	0.120206	-0.251385	0.710768
C62	C	0.620206	0.248615	1.210768
C63	C	0.093669	-0.533798	0.684205
C64	C	0.593669	-0.033798	1.184205
C65	C	0.071992	-0.555464	0.662532
C66	C	0.571992	-0.055464	1.162532
C67	C	0.178144	-0.608536	0.609422
C68	C	0.678144	-0.108536	1.109422
C69	C	0.199825	-0.586869	0.631088
C70	C	0.699825	-0.086869	1.131088
C71	C	0.093821	-0.533842	0.966616
C72	C	0.593821	-0.033842	1.466616
C73	C	0.072187	-0.555526	1.031630
C74	C	0.572187	-0.055526	1.531630
C75	C	0.178370	-0.608608	1.031591
C76	C	0.678370	-0.108608	1.531591
C77	C	0.200004	-0.586926	0.966576
C78	C	0.700004	-0.086926	1.466576
C79	C	0.157728	-0.549541	0.934090
C80	C	0.657728	-0.049541	1.434090
C81	C	0.423247	-0.549509	0.668416
C82	C	0.923247	-0.049509	1.168416
C83	C	-0.097522	-0.709158	0.508557
C84	C	0.402478	-0.209158	1.008557
C85	C	-0.002050	-0.709295	0.413344
C86	C	0.497950	-0.209295	0.913344
C87	C	-0.002241	-0.804604	0.508735
C88	C	0.497759	-0.304604	1.008735
C89	C	-0.002225	-0.709288	0.508793
C90	C	0.497775	-0.209288	1.008793
C91	C	-0.026009	-0.733087	0.484858
C92	C	0.473991	-0.233087	0.984858
N93	N	0.552340	-0.592538	0.625346
N94	N	1.052340	-0.092538	1.125346
O95	O	0.750867	-0.598274	0.477076
O96	O	1.250867	-0.098274	0.977076
O97	O	0.751048	-0.718989	0.640960
O98	O	1.251048	-0.218989	1.140960
O99	O	0.750981	-0.718715	0.537020
O100	O	1.250981	-0.218715	1.037020
O101	O	0.750934	-0.598547	0.581017
O102	O	1.250934	-0.098547	1.081017
O103	O	0.647701	-0.684348	0.571512
O104	O	1.147701	-0.184348	1.071512
O105	O	0.647768	-0.684622	0.675452
O106	O	1.147768	-0.184622	1.175452
O107	O	0.647587	-0.563907	0.511569
O108	O	1.147587	-0.063907	1.011569
Cu109	Cu	0.638247	-0.621127	0.596660
Cu110	Cu	1.138247	-0.121127	1.096660
Cu111	Cu	0.760388	-0.661769	0.555869
Cu112	Cu	1.260388	-0.161769	1.055869
O113	O	0.647654	-0.564181	0.615509
O114	O	1.147654	-0.064181	1.115509
N115	N	0.846295	-0.690358	0.527176
N116	N	1.346295	-0.190358	1.027176
N117	N	0.114503	-0.154778	0.625499
N118	N	0.614503	0.345222	1.125499
O119	O	-0.033701	0.043855	0.619632
O120	O	0.466299	0.543855	1.119632
O121	O	0.130190	0.043858	0.498933
O122	O	0.630190	0.543858	0.998933
O123	O	0.026233	0.043841	0.499224
O124	O	0.526233	0.543841	0.999224
O125	O	0.070257	0.043872	0.619341
O126	O	0.570257	0.543872	1.119341
O127	O	0.060690	-0.059448	0.533654
O128	O	0.560690	0.440552	1.033654
O129	O	0.164647	-0.059431	0.533363
O130	O	0.664647	0.440569	1.033363
O131	O	0.000756	-0.059434	0.654062
O132	O	0.500756	0.440566	1.154062
Cu133	Cu	0.085848	-0.068863	0.596857
Cu134	Cu	0.585848	0.431137	1.096857
Cu135	Cu	0.045099	0.053287	0.556138
Cu136	Cu	0.545099	0.553287	1.056138
O137	O	0.104714	-0.059417	0.653771
O138	O	0.604714	0.440583	1.153771
N139	N	0.016435	0.139202	0.527497
N140	N	0.516435	0.639202	1.027497
N141	N	0.114760	-0.592585	1.063190
N142	N	0.614760	-0.092585	1.563190
O143	O	0.108896	-0.740779	1.261808
O144	O	0.608896	-0.240779	1.761808
O145	O	-0.011787	-0.576838	1.261822
O146	O	0.488213	-0.076838	1.761822
O147	O	-0.011509	-0.680779	1.261780
O148	O	0.488491	-0.180779	1.761780
O149	O	0.108618	-0.636838	1.261850
O150	O	0.608618	-0.136838	1.761850
O151	O	0.022916	-0.646341	1.158496
O152	O	0.522916	-0.146341	1.658496
O153	O	0.022638	-0.542399	1.158538
O154	O	0.522638	-0.042399	1.658538
O155	O	0.143321	-0.706341	1.158524
O156	O	0.643321	-0.206341	1.658524
Cu157	Cu	0.086123	-0.621225	1.149100
Cu158	Cu	0.586123	-0.121225	1.649100
Cu159	Cu	0.045411	-0.661953	1.271246
Cu160	Cu	0.545411	-0.161953	1.771246
O161	O	0.143044	-0.602399	1.158566
O162	O	0.643044	-0.102399	1.658566
N163	N	0.016774	-0.690600	1.357156
N164	N	0.516774	-0.190600	1.857156
C165	C	0.039504	-0.538867	0.499769
C166	C	0.539504	-0.038867	0.999769
C167	C	0.168130	-0.667407	0.499680
C168	C	0.668130	-0.167407	0.999680
C169	C	0.091482	-0.744243	0.653289
C170	C	0.591482	-0.244243	1.153289
C171	C	-0.037145	-0.615703	0.653378
C172	C	0.462855	-0.115703	1.153378
C173	C	0.699429	-0.718429	0.678853
C174	C	1.199429	-0.218429	1.178853
C175	C	0.699348	-0.718091	0.550135
C176	C	1.199348	-0.218091	1.050135
C177	C	0.699202	-0.564465	0.473677
C178	C	1.199202	-0.064465	0.973677
C179	C	0.699287	-0.564805	0.602393
C180	C	1.199287	-0.064805	1.102393
C181	C	0.168023	-0.007659	0.499484
C182	C	0.668023	0.492341	0.999484
C183	C	0.039327	-0.007807	0.499887
C184	C	0.539327	0.492193	0.999887
C185	C	-0.037119	-0.007789	0.653468
C186	C	0.462881	0.492211	1.153468
C187	C	0.091620	-0.007770	0.653109
C188	C	0.591620	0.492230	1.153109
C189	C	-0.011194	-0.538964	1.210181
C190	C	0.488806	-0.038964	1.710181
C191	C	-0.010843	-0.667676	1.210109
C192	C	0.489157	-0.167676	1.710109
C193	C	0.142729	-0.744214	1.210165
C194	C	0.642729	-0.244214	1.710165
C195	C	0.142386	-0.615494	1.210214
C196	C	0.642386	-0.115494	1.710214
H197	H	0.020147	-0.542732	1.058106
H198	H	0.520147	-0.042732	1.558106
O199	O	0.187953	-0.800386	1.210244
O200	O	0.687953	-0.300386	1.710244
C201	C	0.255827	-0.891564	1.263777
C202	C	0.755827	-0.391564	1.763777
C203	C	0.204623	-0.827955	1.263759
C204	C	0.704623	-0.327955	1.763759
H205	H	0.269312	-0.913877	1.307045
H206	H	0.769312	-0.413877	1.807045
H207	H	0.298213	-0.885075	1.220591
H208	H	0.798213	-0.385075	1.720591
H209	H	0.237831	-0.922850	1.263725
H210	H	0.737831	-0.422850	1.763725
H211	H	0.222562	-0.796635	1.263832
H212	H	0.722562	-0.296635	1.763832
H213	H	0.162248	-0.834491	1.306941
H214	H	0.662248	-0.334491	1.806941
H215	H	0.699474	-0.756325	0.725922
H216	H	1.199474	-0.256325	1.225922
H217	H	-0.048566	-0.677061	1.210046
H218	H	0.451434	-0.177061	1.710046
O219	O	0.028001	-0.007862	0.454950
O220	O	0.528001	0.492138	0.954950
C221	C	-0.045796	-0.007882	0.426563
C222	C	0.454204	0.492118	0.926563
C223	C	-0.033052	-0.007822	0.477509
C224	C	0.466948	0.492178	0.977509
H225	H	-0.095161	-0.007836	0.444778
H226	H	0.404839	0.492164	0.944778
H227	H	-0.011449	-0.051129	0.413012
H228	H	0.488551	0.448871	0.913012
H229	H	-0.040222	0.035323	0.384159
H230	H	0.459778	0.535323	0.884159
H231	H	-0.038634	-0.050998	0.519946
H232	H	0.461366	0.449002	1.019946
H233	H	-0.067397	0.035454	0.491007
H234	H	0.432603	0.535454	0.991007
O235	O	0.699339	-0.763051	0.538814
O236	O	1.199339	-0.263051	1.038814
C237	C	0.699344	-0.791473	0.465021
C238	C	1.199344	-0.291473	0.965021
C239	C	0.699340	-0.740497	0.477765
C240	C	1.199340	-0.240497	0.977765
H241	H	0.699359	-0.773261	0.415660
H242	H	1.199359	-0.273261	0.915660
H243	H	0.656141	-0.805072	0.499379
H244	H	1.156141	-0.305072	0.999379
H245	H	0.742586	-0.833847	0.470582
H246	H	1.242586	-0.333847	0.970582
H247	H	0.656128	-0.698089	0.472196
H248	H	1.156128	-0.198089	0.972196
H249	H	0.742573	-0.726951	0.443409
H250	H	1.242573	-0.226951	0.943409
H251	H	0.699142	-0.526565	0.426612
H252	H	1.199142	-0.026565	0.926612
H253	H	0.699278	-0.527058	0.611808
H254	H	1.199278	-0.027058	1.111808
O255	O	0.224082	-0.007285	0.454219
O256	O	0.724082	0.492715	0.954219
C257	C	0.326227	-0.006803	0.425182
C258	C	0.826227	0.493197	0.925182
C259	C	0.262765	-0.007211	0.476493
C260	C	0.762765	0.492789	0.976493
H261	H	0.357524	-0.006756	0.443176
H262	H	0.857524	0.493244	0.943176
H263	H	0.319480	0.036526	0.382961
H264	H	0.819480	0.536526	0.882961
H265	H	0.348675	-0.049925	0.411433
H266	H	0.848675	0.450075	0.911433
H267	H	0.240283	0.035882	0.490295
H268	H	0.740283	0.535882	0.990295
H269	H	0.269552	-0.050568	0.518680
H270	H	0.769552	0.449432	1.018680
O271	O	0.224352	-0.678574	0.454610
O272	O	0.724352	-0.178574	0.954610
C273	C	0.326602	-0.752178	0.425894
C274	C	0.826602	-0.252178	0.925894
C275	C	0.262964	-0.739610	0.476995
C276	C	0.762964	-0.239610	0.976995
H277	H	0.357833	-0.801529	0.443969
H278	H	0.857833	-0.301529	0.943969
H279	H	0.348989	-0.717778	0.412320
H280	H	0.848989	-0.217778	0.912320
H281	H	0.320077	-0.746540	0.383540
H282	H	0.820077	-0.246540	0.883540
H283	H	0.269434	-0.745256	0.519382
H284	H	0.769434	-0.245256	1.019382
H285	H	0.240598	-0.774008	0.490517
H286	H	0.740598	-0.274008	0.990517
H287	H	0.101045	-0.007760	0.690842
H288	H	0.601045	0.492240	1.190842
O289	O	0.102535	-0.800413	0.698465
O290	O	0.602535	-0.300413	1.198465
C291	C	0.061777	-0.864273	0.803123
C292	C	0.561777	-0.364273	1.303123
C293	C	0.049181	-0.800629	0.752022
C294	C	0.549181	-0.300629	1.252022
H295	H	0.018645	-0.864474	0.846432
H296	H	0.518645	-0.364474	1.346432
H297	H	0.102394	-0.873337	0.814804
H298	H	0.602394	-0.373337	1.314804
H299	H	0.073609	-0.902146	0.785943
H300	H	0.573609	-0.402146	1.285943
H301	H	0.037322	-0.762717	0.769160
H302	H	0.537322	-0.262717	1.269160
H303	H	0.008582	-0.791619	0.740349
H304	H	0.508582	-0.291619	1.240349
O305	O	-0.093225	-0.007895	0.698730
O306	O	0.406775	0.492105	1.198730
C307	C	-0.148657	-0.061372	0.802319
C308	C	0.351343	0.438628	1.302319
C309	C	-0.085078	-0.061339	0.751112
C310	C	0.414922	0.438661	1.251112
H311	H	-0.142091	-0.104570	0.844688
H312	H	0.357909	0.395430	1.344688
H313	H	-0.179994	-0.061419	0.784373
H314	H	0.320006	0.438581	1.284373
H315	H	-0.170954	-0.018120	0.815821
H316	H	0.329046	0.481880	1.315821
H317	H	-0.062728	-0.104583	0.737588
H318	H	0.437272	0.395417	1.237588
H319	H	-0.053785	-0.061259	0.769087
H320	H	0.446215	0.438741	1.269087
O321	O	-0.093349	-0.604519	0.698466
O322	O	0.406651	-0.104519	1.198466
C323	C	-0.195624	-0.530940	0.727156
C324	C	0.304376	-0.030940	1.227156
C325	C	-0.131998	-0.543519	0.676044
C326	C	0.368002	-0.043519	1.176044
H327	H	-0.226894	-0.481628	0.709042
H328	H	0.273106	0.018372	1.209042
H329	H	-0.189159	-0.536497	0.769509
H330	H	0.310841	-0.036497	1.269509
H331	H	-0.217939	-0.565407	0.740745
H332	H	0.282061	-0.065407	1.240745
H333	H	-0.109649	-0.509064	0.662402
H334	H	0.390351	-0.009064	1.162402
H335	H	-0.138504	-0.537984	0.633724
H336	H	0.361496	-0.037984	1.133724
H337	H	-0.049082	-0.491880	1.210184
H338	H	0.450918	0.008120	1.710184
H339	H	0.180125	-0.606093	1.210228
H340	H	0.680125	-0.106093	1.710228
H341	H	0.059391	-0.503396	0.940172
H342	H	0.559391	-0.003396	1.440172
H343	H	0.252044	-0.599714	0.940097
H344	H	0.752044	-0.099714	1.440097
O345	O	0.219522	-0.644937	1.063051
O346	O	0.719522	-0.144937	1.563051
C347	C	0.327125	-0.695276	1.056151
C348	C	0.827125	-0.195276	1.556151
C349	C	0.280591	-0.654133	1.020445
C350	C	0.780591	-0.154133	1.520445
H351	H	0.376509	-0.702712	1.021720
H352	H	0.876509	-0.202712	1.521720
H353	H	0.319697	-0.742068	1.086561
H354	H	0.819697	-0.242068	1.586561
H355	H	0.319612	-0.671466	1.086613
H356	H	0.819612	-0.171466	1.586613
H357	H	0.288075	-0.677887	0.989949
H358	H	0.788075	-0.177887	1.489949
H359	H	0.288030	-0.607342	0.990074
H360	H	0.788030	-0.107342	1.490074
H361	H	0.019945	-0.542665	0.675322
H362	H	0.519945	-0.042665	1.175322
O363	O	0.052556	-0.497478	0.720493
O364	O	0.552556	0.002522	1.220493
C365	C	-0.055024	-0.447147	0.770908
C366	C	0.444976	0.052853	1.270908
C367	C	-0.008531	-0.488273	0.729795
C368	C	0.491469	0.011727	1.229795
H369	H	-0.104423	-0.439703	0.778453
H370	H	0.395577	0.060297	1.278453
H371	H	-0.047592	-0.400357	0.747100
H372	H	0.452408	0.099643	1.247100
H373	H	-0.047473	-0.470975	0.817650
H374	H	0.452527	0.029025	1.317650
H375	H	-0.016055	-0.464499	0.683046
H376	H	0.483945	0.035501	1.183046
H377	H	-0.015975	-0.535060	0.753652
H378	H	0.484025	-0.035060	1.253652
H379	H	0.251872	-0.599651	0.618278
H380	H	0.751872	-0.099651	1.118278
O381	O	0.219206	-0.644746	0.573013
O382	O	0.719206	-0.144746	1.073013
C383	C	0.303309	-0.653048	0.477326
C384	C	0.803309	-0.153048	0.977326
C385	C	0.256833	-0.611974	0.518493
C386	C	0.756833	-0.111974	1.018493
H387	H	0.333750	-0.626572	0.433244
H388	H	0.833750	-0.126572	0.933244
H389	H	0.276873	-0.665827	0.464481
H390	H	0.776873	-0.165827	0.964481
H391	H	0.333739	-0.697177	0.503805
H392	H	0.833739	-0.197177	1.003805
H393	H	0.226390	-0.567819	0.492052
H394	H	0.726390	-0.067819	0.992052
H395	H	0.283306	-0.599245	0.531341
H396	H	0.783306	-0.099245	1.031341
O397	O	0.424231	-0.653517	0.707543
O398	O	0.924231	-0.153517	1.207543
C399	C	0.404385	-0.729973	0.701754
C400	C	0.904385	-0.229973	1.201754
C401	C	0.440114	-0.684027	0.667806
C402	C	0.940114	-0.184027	1.167806
H403	H	0.417223	-0.754662	0.669647
H404	H	0.917223	-0.254662	1.169647
H405	H	0.352326	-0.703625	0.715656
H406	H	0.852326	-0.203625	1.215656
H407	H	0.417188	-0.765680	0.745116
H408	H	0.917188	-0.265680	1.245116
H409	H	0.427363	-0.648309	0.624423
H410	H	0.927363	-0.148309	1.124423
H411	H	0.492165	-0.710417	0.653951
H412	H	0.992165	-0.210417	1.153951
O413	O	0.552288	-0.488824	0.585726
O414	O	1.052288	0.011176	1.085726
C415	C	0.572113	-0.398687	0.498116
C416	C	1.072113	0.101313	0.998116
C417	C	0.536367	-0.444631	0.532149
C418	C	1.036367	0.055369	1.032149
H419	H	0.559244	-0.362937	0.454799
H420	H	1.059244	0.137063	0.954799
H421	H	0.624169	-0.425037	0.484148
H422	H	1.124169	0.074963	0.984148
H423	H	0.559357	-0.374049	0.530236
H424	H	1.059357	0.125951	1.030236
H425	H	0.549071	-0.469281	0.500063
H426	H	1.049071	0.030719	1.000063
H427	H	0.484319	-0.418247	0.546126
H428	H	0.984319	0.081753	1.046126
O429	O	0.424126	-0.446129	0.628490
O430	O	0.924126	0.053871	1.128490
C431	C	0.350669	-0.353771	0.583017
C432	C	0.850669	0.146229	1.083017
C433	C	0.386439	-0.423554	0.593187
C434	C	0.886439	0.076446	1.093187
H435	H	0.320180	-0.335502	0.554486
H436	H	0.820180	0.164498	1.054486
H437	H	0.385035	-0.327615	0.557176
H438	H	0.885035	0.172385	1.057176
H439	H	0.320277	-0.346546	0.629905
H440	H	0.820277	0.153454	1.129905
H441	H	0.416831	-0.430837	0.546327
H442	H	0.916831	0.069163	1.046327
H443	H	0.352039	-0.449677	0.619057
H444	H	0.852039	0.050323	1.119057
H445	H	0.203661	-0.277820	0.570179
H446	H	0.703661	0.222180	1.070179
O447	O	0.166846	-0.154857	0.520834
O448	O	0.666846	0.345143	1.020834
C449	C	0.221700	-0.161699	0.417808
C450	C	0.721700	0.338301	0.917808
C451	C	0.204434	-0.197439	0.488126
C452	C	0.704434	0.302561	0.988126
H453	H	0.252081	-0.196111	0.391343
H454	H	0.752081	0.303889	0.891343
H455	H	0.248198	-0.131272	0.404967
H456	H	0.748198	0.368728	0.904967
H457	H	0.177558	-0.131248	0.405055
H458	H	0.677558	0.368752	0.905055
H459	H	0.248544	-0.227924	0.500930
H460	H	0.748544	0.272076	1.000930
H461	H	0.177912	-0.227826	0.500929
H462	H	0.677912	0.272174	1.000929
H463	H	0.068098	-0.159910	0.723527
H464	H	0.568098	0.340090	1.223527
H465	H	0.547237	-0.686258	0.663446
H466	H	1.047237	-0.186258	1.163446
H467	H	0.030155	-0.491745	0.461969
H468	H	0.530155	0.008255	0.961969
O469	O	0.104946	-0.282872	0.772873
O470	O	0.604946	0.217128	1.272873
C471	C	0.050018	-0.276025	0.875897
C472	C	0.550018	0.223975	1.375897
C473	C	0.067267	-0.240288	0.805578
C474	C	0.567267	0.259712	1.305578
H475	H	0.019541	-0.241612	0.902359
H476	H	0.519541	0.258388	1.402359
H477	H	0.094124	-0.306446	0.888719
H478	H	0.594124	0.193554	1.388719
H479	H	0.023582	-0.306482	0.888671
H480	H	0.523582	0.193518	1.388671
H481	H	0.093687	-0.209797	0.792754
H482	H	0.593687	0.290203	1.292754
H483	H	0.023138	-0.209906	0.792793
H484	H	0.523138	0.290094	1.292793
