data_functionalizedCrystal
_audit_creation_method	'MofGen! by Chris Wilmer'
_symmetry_space_group_name_H-M	'P1'
_symmetry_Int_Tables_number	1
_symmetry_cell_setting	triclinic
loop_
_symmetry_equiv_pos_as_xyz
  x,y,z
_cell_length_a	19.188930
_cell_length_b	13.339070
_cell_length_c	12.376457
_cell_angle_alpha	104.410245
_cell_angle_beta	101.232575
_cell_angle_gamma	80.612963
loop_
_atom_site_label
_atom_site_type_symbol
_atom_site_fract_x
_atom_site_fract_y
_atom_site_fract_z
O1	O	0.340100	-1.360197	-0.094096
O2	O	0.294198	-1.065870	-0.094082
O3	O	0.217159	-1.221523	-0.094067
O4	O	0.417139	-1.204545	-0.094111
O5	O	0.236385	-1.182624	0.093941
O6	O	0.313424	-1.026971	0.093926
O7	O	0.359326	-1.321298	0.093913
Zn8	Zn	0.339428	-1.167958	0.123770
Zn9	Zn	0.314097	-1.219210	-0.123939
O10	O	0.436365	-1.165645	0.093898
C11	C	0.296057	-1.008765	-0.000076
C12	C	0.272945	-0.896565	-0.000070
C13	C	0.200654	-1.201522	-0.000060
C14	C	0.122827	-1.199869	-0.000050
N15	N	0.356716	-1.132988	0.292825
C16	C	0.095789	-1.291202	-0.000049
C17	C	0.022659	-1.289655	-0.000067
C18	C	-0.023428	-1.196764	-0.000063
C19	C	0.003617	-1.105420	-0.000071
C20	C	0.076744	-1.106972	-0.000064
N21	N	-0.138794	-1.112522	0.063923
N22	N	-0.208261	-1.111052	0.063919
C23	C	-0.243757	-1.192081	-0.000086
N24	N	-0.207158	-1.274646	-0.064073
N25	N	-0.137684	-1.276118	-0.064064
C26	C	-0.102723	-1.195070	-0.000071
C27	C	-0.350089	-1.281743	-0.000106
C28	C	-0.423221	-1.280193	-0.000131
C29	C	-0.442261	-1.095953	-0.000124
C30	C	-0.369132	-1.097508	-0.000110
C31	C	-0.323049	-1.190404	-0.000096
C32	C	0.452870	-1.185646	-0.000112
C33	C	0.530696	-1.187301	-0.000130
C34	C	0.357467	-1.378403	-0.000096
C35	C	0.380578	-1.490606	-0.000110
C36	C	0.452652	-0.530988	-0.000127
C37	C	0.474369	-0.636407	-0.000136
C38	C	0.424015	-0.701451	-0.000119
C39	C	0.351940	-0.661067	-0.000094
C40	C	0.330220	-0.555640	-0.000093
C41	C	0.301583	-0.726103	-0.000086
C42	C	0.229508	-0.685719	-0.000060
C43	C	0.207792	-0.580302	-0.000059
C44	C	0.258146	-0.515258	-0.000076
C45	C	0.323303	-0.831530	-0.000086
C46	C	0.200871	-0.856182	-0.000053
C47	C	0.179154	-0.750763	-0.000043
N48	N	0.296804	-1.254188	-0.292994
C49	C	0.256657	-1.335365	0.647829
C50	C	0.244556	-1.359835	0.529492
C51	C	0.272595	-1.303125	0.470319
C52	C	0.312738	-1.221942	0.529496
C53	C	0.324845	-1.197474	0.647845
C54	C	0.340783	-1.165235	0.470335
C55	C	0.380926	-1.084051	0.529511
C56	C	0.393031	-1.059587	0.647849
C57	C	0.364992	-1.116297	0.707021
C58	C	0.328675	-1.189702	0.351986
C59	C	0.396863	-1.051811	0.352001
C60	C	0.408964	-1.027341	0.470339
H61	H	0.000640	-1.364033	-0.000070
C62	C	0.508034	-0.459449	-0.000159
H63	H	0.554069	-0.498596	-0.000181
H64	H	0.508813	-0.404237	0.065397
H65	H	0.495393	-0.431392	-0.065737
C66	C	-0.047075	-1.003242	-0.000063
H67	H	-0.094499	-1.015395	-0.000055
H68	H	-0.045701	-0.979211	-0.065624
H69	H	-0.032302	-0.952083	0.065510
C70	C	0.259277	-1.330034	0.340151
H71	H	0.231348	-1.386499	0.313382
H72	H	0.303806	-1.349196	0.313356
H73	H	0.234442	-1.271006	0.313406
H74	H	0.419696	-1.005634	0.303824
H75	H	0.381987	-0.864399	-0.000102
C76	C	0.128511	-0.535880	-0.000052
H77	H	0.122787	-0.463783	-0.000066
H78	H	0.113617	-0.544652	0.065514
H79	H	0.100218	-0.571795	-0.065620
C80	C	-0.299398	-1.383925	-0.000103
H81	H	-0.325979	-1.438104	-0.000122
H82	H	-0.263780	-1.374796	0.065464
H83	H	-0.277171	-1.401924	-0.065670
H84	H	0.098757	-1.032595	-0.000065
C85	C	0.099875	-0.706335	-0.000028
H86	H	0.094154	-0.634238	-0.000038
H87	H	0.084983	-0.715108	0.065539
H88	H	0.071577	-0.742244	-0.065595
C89	C	-0.452967	-1.380665	-0.000143
H90	H	-0.503121	-1.366441	-0.000166
H91	H	-0.430379	-1.405205	0.065421
H92	H	-0.443764	-1.432332	-0.065713
H93	H	0.425724	-0.993491	0.696030
C94	C	0.447904	-0.817406	-0.000116
H95	H	0.498041	-0.832140	-0.000123
H96	H	0.423503	-0.859382	-0.065667
H97	H	0.436918	-0.832229	0.065467
C98	C	-0.492948	-0.993775	-0.000124
H99	H	-0.540373	-1.005929	-0.000123
H100	H	-0.491571	-0.969746	-0.065683
H101	H	-0.478180	-0.942615	0.065450
H102	H	-0.347117	-1.023133	-0.000105
C103	C	0.553646	-0.680820	-0.000151
H104	H	0.580526	-0.626984	-0.000148
H105	H	0.557962	-0.735002	-0.065712
H106	H	0.571365	-0.707860	0.065421
H107	H	0.211873	-1.425935	0.481314
H108	H	0.240467	-0.429416	-0.000068
H109	H	0.159867	-0.909143	-0.000044
C110	C	0.378306	-1.089386	0.837194
H111	H	0.355858	-1.134790	0.863954
H112	H	0.358961	-1.019292	0.863987
H113	H	0.428318	-1.097494	0.863949
H114	H	0.295991	-1.255802	0.303815
C115	C	0.225817	-1.397737	0.712914
H116	H	0.200177	-1.449593	0.660725
H117	H	0.194447	-1.351962	0.759099
H118	H	0.263807	-1.430158	0.759058
C119	C	0.453104	-0.938025	0.535435
H120	H	0.468060	-0.907739	0.483253
H121	H	0.493924	-0.964683	0.581601
H122	H	0.424542	-0.886531	0.581601
H123	H	0.133305	-1.366847	-0.000041
