data_functionalizedCrystal
_audit_creation_method	'MofGen! by Chris Wilmer'
_symmetry_space_group_name_H-M	'P1'
_symmetry_Int_Tables_number	1
_symmetry_cell_setting	triclinic
loop_
_symmetry_equiv_pos_as_xyz
  x,y,z
_cell_length_a	14.519709
_cell_length_b	14.044190
_cell_length_c	13.101018
_cell_angle_alpha	86.339369
_cell_angle_beta	93.362947
_cell_angle_gamma	88.435961
loop_
_atom_site_label
_atom_site_type_symbol
_atom_site_fract_x
_atom_site_fract_y
_atom_site_fract_z
O1	O	1.238537	0.119059	0.085091
O2	O	1.488537	0.369059	0.335091
O3	O	1.738537	0.619059	0.585091
O4	O	1.988537	0.869059	0.835091
O5	O	0.971243	0.133692	0.085124
O6	O	1.221243	0.383692	0.335124
O7	O	1.471243	0.633692	0.585124
O8	O	1.721243	0.883692	0.835124
O9	O	1.100873	-0.011615	0.085088
O10	O	1.350873	0.238385	0.335088
O11	O	1.600873	0.488385	0.585088
O12	O	1.850873	0.738385	0.835088
O13	O	1.108907	0.264366	0.085127
O14	O	1.358907	0.514366	0.335127
O15	O	1.608907	0.764366	0.585127
O16	O	1.858907	1.014366	0.835127
O17	O	1.091562	-0.001180	-0.085340
O18	O	1.341562	0.248820	0.164660
O19	O	1.591562	0.498820	0.414660
O20	O	1.841562	0.748820	0.664660
O21	O	0.961931	0.144126	-0.085304
O22	O	1.211931	0.394126	0.164696
O23	O	1.461931	0.644126	0.414696
O24	O	1.711931	0.894126	0.664696
O25	O	1.229225	0.129494	-0.085336
O26	O	1.479225	0.379494	0.164664
O27	O	1.729225	0.629494	0.414664
O28	O	1.979225	0.879494	0.664664
Zn29	Zn	1.094100	0.138467	-0.112379
Zn30	Zn	1.344100	0.388467	0.137621
Zn31	Zn	1.594100	0.638467	0.387621
Zn32	Zn	1.844100	0.888467	0.637621
Zn33	Zn	1.106368	0.124719	0.112167
Zn34	Zn	1.356368	0.374719	0.362167
Zn35	Zn	1.606368	0.624719	0.612167
Zn36	Zn	1.856368	0.874719	0.862167
O37	O	1.099595	0.274800	-0.085301
O38	O	1.349595	0.524800	0.164699
O39	O	1.599595	0.774800	0.414699
O40	O	1.849595	1.024800	0.664699
C41	C	0.932172	0.138227	-0.000086
C42	C	1.182172	0.388227	0.249914
C43	C	1.432172	0.638227	0.499914
C44	C	1.682172	0.888227	0.749914
C45	C	0.829627	0.136182	-0.000074
C46	C	1.079627	0.386182	0.249926
C47	C	1.329627	0.636182	0.499926
C48	C	1.579627	0.886182	0.749926
C49	C	0.454121	0.128661	-0.000122
C50	C	0.704121	0.378661	0.249878
C51	C	0.954121	0.628661	0.499878
C52	C	1.204121	0.878661	0.749878
C53	C	0.558599	0.130750	-0.000109
C54	C	0.808599	0.380750	0.249891
C55	C	1.058599	0.630750	0.499891
C56	C	1.308599	0.880750	0.749891
C57	C	0.641871	0.132421	-0.000097
C58	C	0.891871	0.382421	0.249903
C59	C	1.141871	0.632421	0.499903
C60	C	1.391871	0.882421	0.749903
C61	C	0.746355	0.134511	-0.000086
C62	C	0.996355	0.384511	0.249914
C63	C	1.246355	0.634511	0.499914
C64	C	1.496355	0.884511	0.749914
C65	C	1.092704	-0.041718	-0.000129
C66	C	1.342704	0.208282	0.249871
C67	C	1.592704	0.458282	0.499871
C68	C	1.842704	0.708282	0.749871
C69	C	1.082224	-0.146961	-0.000136
C70	C	1.332224	0.103039	0.249864
C71	C	1.582224	0.353039	0.499864
C72	C	1.832224	0.603039	0.749864
C73	C	1.137391	-0.397156	-0.000103
C74	C	1.387391	-0.147156	0.249897
C75	C	1.637391	0.102844	0.499897
C76	C	1.887391	0.352844	0.749897
C77	C	1.063082	-0.339653	-0.000101
C78	C	1.313082	-0.089653	0.249899
C79	C	1.563082	0.160347	0.499899
C80	C	1.813082	0.410347	0.749899
C81	C	1.073735	-0.232430	-0.000121
C82	C	1.323735	0.017570	0.249879
C83	C	1.573735	0.267570	0.499879
C84	C	1.823735	0.517570	0.749879
C85	C	1.126739	-0.504390	-0.000083
C86	C	1.376739	-0.254390	0.249917
C87	C	1.626739	-0.004390	0.499917
C88	C	1.876739	0.245610	0.749917
C89	C	1.268296	0.124959	-0.000124
C90	C	1.518296	0.374959	0.249876
C91	C	1.768296	0.624959	0.499876
C92	C	2.018296	0.874959	0.749876
C93	C	1.370842	0.127003	-0.000129
C94	C	1.620842	0.377003	0.249871
C95	C	1.870842	0.627003	0.499871
C96	C	2.120842	0.877003	0.749871
C97	C	1.107764	0.304903	-0.000082
C98	C	1.357764	0.554903	0.249918
C99	C	1.607764	0.804903	0.499918
C100	C	1.857764	1.054903	0.749918
C101	C	1.118245	0.410146	-0.000067
C102	C	1.368245	0.660146	0.249933
C103	C	1.618245	0.910146	0.499933
C104	C	1.868245	1.160146	0.749933
N105	N	1.085733	0.147849	-0.265626
N106	N	1.335733	0.397849	-0.015626
N107	N	1.585733	0.647849	0.234374
N108	N	1.835733	0.897849	0.484374
C109	C	1.126119	0.102560	-0.525547
C110	C	1.376119	0.352560	-0.275547
C111	C	1.626119	0.602560	-0.025547
C112	C	1.876119	0.852560	0.224453
C113	C	1.074358	0.160614	-0.474659
C114	C	1.324358	0.410614	-0.224659
C115	C	1.574358	0.660614	0.025341
C116	C	1.824358	0.910614	0.275341
C117	C	1.080689	0.153510	-0.358342
C118	C	1.330689	0.403510	-0.108342
C119	C	1.580689	0.653510	0.141658
C120	C	1.830689	0.903510	0.391658
C121	C	1.119790	0.109664	-0.641874
C122	C	1.369790	0.359664	-0.391874
C123	C	1.619790	0.609664	-0.141874
C124	C	1.869790	0.859664	0.108126
N125	N	1.114741	0.115329	0.265413
N126	N	1.364741	0.365329	0.515413
N127	N	1.614741	0.615329	0.765413
N128	N	1.864741	0.865329	1.015413
H129	H	0.991462	-0.370951	-0.000086
H130	H	1.241462	-0.120951	0.249914
H131	H	1.491462	0.129049	0.499914
H132	H	1.741462	0.379049	0.749914
H133	H	1.175185	0.047527	-0.481760
H134	H	1.425185	0.297527	-0.231760
H135	H	1.675185	0.547527	0.018240
H136	H	1.925185	0.797527	0.268240
H137	H	1.209005	-0.365860	-0.000122
H138	H	1.459005	-0.115860	0.249878
H139	H	1.709005	0.134140	0.499878
H140	H	1.959005	0.384140	0.749878
Br141	Br	0.992576	0.252349	-0.547645
Br142	Br	1.242576	0.502349	-0.297645
Br143	Br	1.492576	0.752349	-0.047645
Br144	Br	1.742576	1.002349	0.202355
