data_functionalizedCrystal
_audit_creation_method	'MofGen! by Chris Wilmer'
_symmetry_space_group_name_H-M	'P1'
_symmetry_Int_Tables_number	1
_symmetry_cell_setting	triclinic
loop_
_symmetry_equiv_pos_as_xyz
  x,y,z
_cell_length_a	18.050589
_cell_length_b	19.805407
_cell_length_c	18.050582
_cell_angle_alpha	90.015480
_cell_angle_beta	89.981795
_cell_angle_gamma	89.975629
loop_
_atom_site_label
_atom_site_type_symbol
_atom_site_fract_x
_atom_site_fract_y
_atom_site_fract_z
Zn1	Zn	-0.295783	-1.034702	-0.419946
Zn2	Zn	-0.419966	-1.034621	-0.295766
Zn3	Zn	-0.295786	-0.921524	-0.295769
Zn4	Zn	-0.419927	-0.921477	-0.419913
O5	O	-0.357866	-0.978081	-0.357848
O6	O	-0.312271	-1.129408	-0.403486
O7	O	-0.403511	-1.019604	-0.191841
O8	O	-0.191861	-0.936591	-0.312257
O9	O	-0.403508	-1.129348	-0.312251
O10	O	-0.191859	-1.019743	-0.403489
O11	O	-0.312277	-0.936513	-0.191844
O12	O	-0.312239	-0.826801	-0.312224
O13	O	-0.403442	-0.936511	-0.523842
O14	O	-0.403445	-0.826767	-0.403432
O15	O	-0.312233	-1.019697	-0.523866
O16	O	-0.523886	-1.019558	-0.312219
O17	O	-0.523857	-0.936432	-0.403429
C18	C	-0.357838	-0.802225	-0.357826
C19	C	-0.357845	-0.726993	-0.357834
C20	C	-0.310421	-0.691681	-0.405411
C21	C	-0.310423	-0.620992	-0.405412
C22	C	-0.357854	-0.585618	-0.357839
C23	C	-0.405280	-0.620935	-0.310256
C24	C	-0.405273	-0.691622	-0.310252
C25	C	-0.405307	-0.335862	-0.310271
C26	C	-0.405311	-0.265169	-0.310281
C27	C	-0.310457	-0.265232	-0.405431
C28	C	-0.310450	-0.335919	-0.405427
C29	C	-0.357873	-0.371230	-0.357842
C30	C	-0.357869	-0.447879	-0.357841
C31	C	-0.357862	-0.508970	-0.357843
C32	C	-0.550818	-0.977999	-0.357836
C33	C	-0.633364	-0.978026	-0.357856
C34	C	-0.832826	-0.932867	-0.407439
C35	C	-0.882258	-0.916372	-0.339671
C36	C	-0.784494	-0.978093	-0.357865
C37	C	-0.882143	-0.994620	-0.425641
C38	C	-0.930479	-0.978156	-0.357881
C39	C	-0.832839	-0.961566	-0.290062
C40	C	-0.832720	-1.039843	-0.376077
C41	C	-0.882130	-1.023372	-0.308263
C42	C	-0.700396	-0.978055	-0.357857
C43	C	-1.014575	-0.978194	-0.357881
C44	C	-0.164160	-0.978182	-0.357877
C45	C	-0.081614	-0.978224	-0.357889
C46	C	-0.357833	-0.978108	-0.551554
C47	C	-0.357819	-0.978119	-0.634100
C48	C	-0.357888	-0.154624	-0.357865
C49	C	-0.357883	-0.229856	-0.357855
C50	C	-0.407350	-0.932917	-0.833537
C51	C	-0.425508	-0.994669	-0.882931
C52	C	-0.357762	-0.978152	-0.785230
C53	C	-0.339583	-0.916434	-0.882919
C54	C	-0.357709	-0.978179	-0.931216
C55	C	-0.375956	-1.039937	-0.833536
C56	C	-0.289999	-0.961660	-0.833520
C57	C	-0.308132	-1.023455	-0.882891
C58	C	-0.357795	-0.978136	-0.701132
C59	C	-0.357676	-0.978202	-1.015312
C60	C	-0.357845	-0.978094	-0.164896
C61	C	-0.357650	-0.978214	-0.082351
H62	H	-0.271840	-0.236473	-0.444175
H63	H	-0.324230	-0.864229	-0.904611
H64	H	-0.811176	-0.894564	-0.449302
H65	H	-0.271807	-0.592244	-0.444156
H66	H	-0.811272	-0.947552	-0.232736
C67	C	-0.911655	-0.845862	-0.318864
N68	N	-0.933795	-0.792752	-0.303197
H69	H	-0.271799	-0.720478	-0.444153
C70	C	-0.457453	-0.582020	-0.257924
N71	N	-0.496752	-0.552710	-0.218508
H72	H	-0.903643	-1.061645	-0.266299
C73	C	-0.457485	-0.226259	-0.257938
N74	N	-0.496779	-0.196951	-0.218514
H75	H	-0.232733	-0.947677	-0.811800
C76	C	-0.457444	-0.730465	-0.257915
N77	N	-0.496740	-0.759721	-0.218491
C78	C	-0.258271	-0.374827	-0.457758
N79	N	-0.218964	-0.404132	-0.497172
C80	C	-0.803288	-1.110328	-0.396919
N81	N	-0.781114	-1.163416	-0.412627
C82	C	-0.457476	-0.374695	-0.257930
N83	N	-0.496774	-0.403946	-0.218504
H84	H	-0.903800	-1.008574	-0.482951
H85	H	-0.449340	-0.894699	-0.811868
H86	H	-0.391374	-1.092157	-0.811936
H87	H	-0.266174	-1.061765	-0.904425
H88	H	-0.482791	-1.008634	-0.904634
