data_functionalizedCrystal
_audit_creation_method	'MofGen! by Chris Wilmer'
_symmetry_space_group_name_H-M	'P1'
_symmetry_Int_Tables_number	1
_symmetry_cell_setting	triclinic
loop_
_symmetry_equiv_pos_as_xyz
  x,y,z
_cell_length_a	12.970454
_cell_length_b	23.196402
_cell_length_c	23.196401
_cell_angle_alpha	60.008822
_cell_angle_beta	90.011641
_cell_angle_gamma	59.999880
loop_
_atom_site_label
_atom_site_type_symbol
_atom_site_fract_x
_atom_site_fract_y
_atom_site_fract_z
Zr1	Zr	0.993215	0.631002	-0.075644
O2	O	0.828557	0.751268	-0.167688
O3	O	1.043687	0.510736	-0.047432
O4	O	1.043641	0.631003	-0.167697
O5	O	0.828644	0.630999	0.047449
O6	O	1.213308	0.631004	-0.167700
O7	O	0.828603	0.631001	-0.047423
O8	O	1.213389	0.415868	0.047433
O9	O	0.828562	0.846135	-0.167684
O10	O	1.191838	0.560203	-0.035397
O11	O	1.065248	0.560202	0.035406
O12	O	1.065194	0.701801	-0.106190
O13	O	0.938604	0.701799	-0.035387
Zr14	Zr	1.263878	0.631000	0.075660
Zr15	Zr	1.263813	0.631002	-0.075649
Zr16	Zr	0.993279	0.630999	0.075664
Zr17	Zr	0.993222	0.782304	-0.075638
Zr18	Zr	1.263871	0.479698	0.075653
O19	O	1.213406	0.751266	0.047447
O20	O	1.213314	0.751269	-0.167695
O21	O	0.828649	0.751265	0.047454
O22	O	1.428535	0.510734	0.167703
O23	O	1.428443	0.510737	-0.047438
O24	O	1.043779	0.510733	0.167710
O25	O	1.428449	0.631002	-0.047433
O26	O	1.213451	0.630999	0.167712
O27	O	1.043785	0.630998	0.167715
O28	O	1.428490	0.631001	0.047438
O29	O	1.043652	0.846136	-0.167688
O30	O	1.213441	0.415866	0.167703
O31	O	1.428531	0.415867	0.167699
O32	O	1.428479	0.415868	0.047429
O33	O	0.828614	0.846133	-0.047414
O34	O	1.043703	0.846134	-0.047417
O35	O	1.191898	0.560201	0.106206
O36	O	1.318488	0.560202	0.035402
O37	O	1.191845	0.701800	-0.035391
O38	O	1.065255	0.701799	0.035413
C39	C	1.128537	0.441745	-0.000000
C40	C	1.128534	0.377513	-0.000003
C41	C	1.194604	0.347343	-0.036965
C42	C	1.194616	0.286982	-0.036959
C43	C	1.128534	0.256805	-0.000001
C44	C	1.062461	0.286978	0.036968
C45	C	1.062461	0.347332	0.036967
C46	C	1.017822	0.194775	-0.005274
C47	C	1.017818	0.134426	-0.005278
C48	C	1.128535	0.070650	0.000006
C49	C	1.239255	0.067238	0.005279
C50	C	1.239255	0.127592	0.005278
C51	C	1.128527	0.191360	0.000004
C52	C	1.194624	-0.024971	-0.036951
C53	C	1.194640	-0.085337	-0.036940
C54	C	1.062473	-0.085334	0.036982
C55	C	1.062469	-0.024975	0.036976
C56	C	1.128542	0.005206	0.000005
C57	C	0.790069	0.631000	0.000013
C58	C	0.675193	0.631000	0.000015
C59	C	1.467024	0.631002	0.000002
C60	C	1.581900	0.631002	-0.000000
C61	C	1.128465	0.631004	-0.189257
C62	C	1.128438	0.631005	-0.253491
C63	C	1.128556	0.820257	0.000016
C64	C	1.128559	0.884489	0.000019
C65	C	1.062338	0.704915	-0.320618
C66	C	1.062369	0.704916	-0.380973
C67	C	1.128485	0.631003	-0.374198
C68	C	1.194600	0.557083	-0.307059
C69	C	1.194576	0.557084	-0.246706
C70	C	1.119093	0.574375	-0.441517
C71	C	1.119108	0.574377	-0.501871
C72	C	1.128565	0.630997	-0.560345
C73	C	1.137982	0.687628	-0.558466
C74	C	1.137958	0.687629	-0.498113
C75	C	1.128518	0.630993	-0.439636
C76	C	1.062496	0.704913	-0.692918
C77	C	1.062537	0.704911	-0.753273
C78	C	1.194759	0.557076	-0.679357
C79	C	1.194726	0.557080	-0.619005
C80	C	1.128588	0.631001	-0.625790
C81	C	1.128627	0.630998	0.189272
C82	C	1.128655	0.630997	0.253507
C83	C	1.467015	0.441746	-0.000006
C84	C	1.581888	0.377514	-0.000011
C85	C	1.128618	0.441742	0.189264
C86	C	1.128642	0.377509	0.253496
C87	C	1.467096	0.441743	0.189258
C88	C	1.581996	0.377510	0.253488
C89	C	0.789997	0.820259	-0.189243
C90	C	0.675097	0.884492	-0.253473
C91	C	0.790078	0.820256	0.000022
C92	C	0.675205	0.884488	0.000026
C93	C	1.128475	0.820260	-0.189249
C94	C	1.128450	0.884493	-0.253480
C95	C	1.569723	0.347351	-0.036976
C96	C	1.677648	0.287007	-0.036995
C97	C	1.797737	0.256823	-0.000044
C98	C	1.809899	0.286992	0.036923
C99	C	1.701975	0.347339	0.036937
C100	C	1.194764	0.347344	0.320623
C101	C	1.194782	0.286999	0.380981
C102	C	1.128685	0.256816	0.374211
C103	C	1.062555	0.286986	0.307077
C104	C	1.062531	0.347335	0.246720
C105	C	1.702045	0.347347	0.246692
C106	C	1.810016	0.287002	0.307037
C107	C	1.797937	0.256817	0.374177
C108	C	1.677875	0.286987	0.380972
C109	C	1.569907	0.347335	0.320627
C110	C	0.555048	0.914663	-0.246677
C111	C	0.447077	0.975026	-0.307022
C112	C	0.459156	1.005214	-0.374162
C113	C	0.579217	0.975040	-0.380956
C114	C	0.687186	0.914682	-0.320612
C115	C	0.687370	0.914657	0.036985
C116	C	0.579445	0.975018	0.036987
C117	C	0.459356	1.005204	0.000034
C118	C	0.447194	0.975032	-0.036929
C119	C	0.555118	0.914676	-0.036935
C120	C	1.194560	0.914657	-0.246688
C121	C	1.194562	0.975003	-0.307035
C122	C	1.128446	1.005187	-0.374173
C123	C	1.062334	0.975017	-0.380965
C124	C	1.062340	0.914668	-0.320618
H125	H	1.248430	-0.000400	-0.067052
H126	H	1.711904	0.371914	0.192029
F127	F	1.912589	0.192595	-0.000064
H128	H	1.128451	1.054327	-0.423305
F129	F	1.442145	0.379427	0.327871
H130	H	1.111383	0.528269	-0.393909
H131	H	1.008500	0.890115	-0.326159
F132	F	1.937716	0.254859	0.076248
F133	F	0.344234	1.069453	-0.438380
F134	F	1.264961	-0.117443	-0.076284
F135	F	0.542152	0.882569	-0.076270
H136	H	1.329408	0.124810	0.009574
F137	F	0.319376	1.007164	-0.076253
H138	H	0.371488	1.054349	0.000044
F139	F	1.265138	0.478411	-0.672142
H140	H	1.907765	0.262444	0.301493
F141	F	0.592054	1.007175	-0.452418
F142	F	1.912859	0.192588	0.438396
H143	H	1.248400	0.890090	-0.192026
H144	H	1.329416	0.015305	0.009591
H145	H	1.248396	0.999561	-0.301491
H146	H	1.248408	0.371912	-0.067066
F147	F	0.991964	1.007155	-0.452424
H148	H	0.545188	0.890087	-0.192014
F149	F	1.264951	0.254861	-0.076294
F150	F	0.992142	-0.117447	0.076315
H151	H	1.668059	0.262402	0.435645
H152	H	0.589372	0.999574	0.067090
F153	F	1.265123	0.379454	0.327844
F154	F	1.714941	0.379431	0.076287
F155	F	0.319311	1.007126	-0.299776
H156	H	1.008663	-0.000408	0.067071
H157	H	1.248637	0.262441	0.435638
F158	F	1.664678	0.254907	-0.076338
H159	H	1.128715	0.207676	0.423363
F160	F	0.992216	0.254854	0.299883
F161	F	0.814948	0.882574	-0.327856
F162	F	1.148047	0.747892	-0.620696
F163	F	0.992157	0.379428	0.175280
H164	H	0.927662	0.137212	-0.009576
H165	H	1.471951	0.371926	-0.067075
H166	H	1.248404	0.496895	-0.192047
F167	F	0.899973	0.262649	-0.010898
F168	F	0.992138	0.379442	0.076309
F169	F	0.991925	0.783589	-0.327843
H170	H	1.008657	0.262403	0.067060
H171	H	1.008539	0.765105	-0.435637
H172	H	1.145629	0.733739	-0.496585
H173	H	0.785142	0.890085	0.067081
F174	F	0.992131	0.783585	-0.700138
H175	H	1.008715	0.765100	-0.807932
H176	H	1.248547	0.496894	-0.564346
H177	H	1.248433	0.496902	-0.301546
F178	F	1.109074	0.514110	-0.503868
