data_functionalizedCrystal
_audit_creation_method	'MofGen! by Chris Wilmer'
_symmetry_space_group_name_H-M	'P1'
_symmetry_Int_Tables_number	1
_symmetry_cell_setting	triclinic
loop_
_symmetry_equiv_pos_as_xyz
  x,y,z
_cell_length_a	18.215407
_cell_length_b	19.805405
_cell_length_c	18.215399
_cell_angle_alpha	90.028795
_cell_angle_beta	89.980167
_cell_angle_gamma	89.971825
loop_
_atom_site_label
_atom_site_type_symbol
_atom_site_fract_x
_atom_site_fract_y
_atom_site_fract_z
Zn1	Zn	1.125057	0.269462	-0.416112
Zn2	Zn	1.458391	0.602795	-0.082778
Zn3	Zn	1.791724	0.936129	0.250555
Zn4	Zn	1.124960	0.382653	-0.293043
Zn5	Zn	1.458293	0.715986	0.040290
Zn6	Zn	1.791626	1.049320	0.373623
Zn7	Zn	1.001990	0.269484	-0.293059
Zn8	Zn	1.335323	0.602818	0.040274
Zn9	Zn	1.668657	0.936151	0.373608
Zn10	Zn	1.001950	0.382615	-0.416068
Zn11	Zn	1.335283	0.715949	-0.082735
Zn12	Zn	1.668616	1.049282	0.250598
O13	O	1.063489	0.326054	-0.354571
O14	O	1.396823	0.659387	-0.021237
O15	O	1.730156	0.992720	0.312096
O16	O	1.228029	0.284484	-0.399798
O17	O	1.561362	0.617817	-0.066465
O18	O	1.894695	0.951150	0.266869
O19	O	1.108623	0.367666	-0.190061
O20	O	1.441957	0.700999	0.143272
O21	O	1.775290	1.034333	0.476605
O22	O	1.018373	0.174765	-0.309407
O23	O	1.351706	0.508098	0.023927
O24	O	1.685040	0.841431	0.357260
O25	O	1.227957	0.367644	-0.309380
O26	O	1.561290	0.700978	0.023953
O27	O	1.894624	1.034311	0.357286
O28	O	1.108790	0.174748	-0.399813
O29	O	1.442123	0.508082	-0.066480
O30	O	1.775457	0.841415	0.266854
O31	O	1.018278	0.284521	-0.190073
O32	O	1.351611	0.617855	0.143261
O33	O	1.684945	0.951188	0.476594
O34	O	0.899000	0.284485	-0.309365
O35	O	1.232334	0.617818	0.023969
O36	O	1.565667	0.951151	0.357302
O37	O	1.018304	0.367580	-0.519058
O38	O	1.351638	0.700914	-0.185725
O39	O	1.684971	1.034247	0.147608
O40	O	0.898971	0.367602	-0.399739
O41	O	1.232304	0.700935	-0.066406
O42	O	1.565638	1.034268	0.266927
O43	O	1.108751	0.284447	-0.519090
O44	O	1.442084	0.617780	-0.185757
O45	O	1.775418	0.951114	0.147577
O46	O	1.108584	0.477365	-0.309338
O47	O	1.441918	0.810698	0.023995
O48	O	1.775251	1.144031	0.357328
O49	O	1.018210	0.477337	-0.399724
O50	O	1.351543	0.810670	-0.066391
O51	O	1.684876	1.144004	0.266942
C52	C	0.872283	0.326042	-0.354549
C53	C	1.205616	0.659375	-0.021216
C54	C	1.538950	0.992709	0.312117
C55	C	0.790484	0.326053	-0.354558
C56	C	1.123817	0.659387	-0.021225
C57	C	1.457151	0.992720	0.312109
C58	C	0.602294	0.369400	-0.401557
C59	C	0.935627	0.702734	-0.068223
C60	C	1.268961	1.036067	0.265110
C61	C	0.525435	0.369403	-0.401566
C62	C	0.858769	0.702736	-0.068233
C63	C	1.192102	1.036069	0.265101
C64	C	0.525436	0.282719	-0.307600
C65	C	0.858770	0.616052	0.025733
C66	C	1.192103	0.949386	0.359066
C67	C	0.602294	0.282714	-0.307595
C68	C	0.935627	0.616047	0.025738
C69	C	1.268960	0.949381	0.359071
C70	C	0.640721	0.326059	-0.354573
C71	C	0.974054	0.659392	-0.021239
C72	C	1.307387	0.992725	0.312094
C73	C	0.487004	0.326066	-0.354587
C74	C	0.820338	0.659399	-0.021253
C75	C	1.153671	0.992732	0.312080
C76	C	0.403671	0.326068	-0.354596
C77	C	0.737004	0.659401	-0.021263
C78	C	1.070337	0.992734	0.312070
C79	C	0.724060	0.326056	-0.354564
C80	C	1.057393	0.659389	-0.021231
C81	C	1.390726	0.992723	0.312103
C82	C	1.063402	0.501910	-0.354541
C83	C	1.396735	0.835243	-0.021208
C84	C	1.730069	1.168576	0.312126
C85	C	1.063432	0.577142	-0.354553
C86	C	1.396765	0.910475	-0.021220
C87	C	1.730099	1.243808	0.312114
C88	C	1.110535	0.612478	-0.307540
C89	C	1.443868	0.945811	0.025794
C90	C	1.777202	1.279144	0.359127
C91	C	1.110565	0.683166	-0.307558
C92	C	1.443898	1.016499	0.025775
C93	C	1.777231	1.349833	0.359108
C94	C	1.063487	0.718517	-0.354587
C95	C	1.396820	1.051851	-0.021254
C96	C	1.730153	1.385184	0.312079
C97	C	1.016382	0.683176	-0.401606
C98	C	1.349715	1.016510	-0.068272
C99	C	1.683048	1.349843	0.265061
C100	C	1.016356	0.612489	-0.401590
C101	C	1.349690	0.945822	-0.068257
C102	C	1.683023	1.279156	0.265076
C103	C	1.016483	0.968249	-0.401670
C104	C	1.349816	1.301583	-0.068337
C105	C	1.683150	1.634916	0.264996
C106	C	1.016510	1.038941	-0.401681
C107	C	1.349844	1.372275	-0.068347
C108	C	1.683177	1.705608	0.264986
C109	C	1.110691	1.038927	-0.307638
C110	C	1.444025	1.372260	0.025695
C111	C	1.777358	1.705593	0.359029
C112	C	1.110666	0.968239	-0.307623
C113	C	1.443999	1.301573	0.025711
C114	C	1.777333	1.634906	0.359044
C115	C	1.063564	0.932905	-0.354644
C116	C	1.396897	1.266238	-0.021310
C117	C	1.730231	1.599571	0.312023
C118	C	1.063534	0.856256	-0.354624
C119	C	1.396867	1.189589	-0.021290
C120	C	1.730200	1.522923	0.312043
C121	C	1.063513	0.795164	-0.354604
C122	C	1.396846	1.128498	-0.021271
C123	C	1.730180	1.461831	0.312063
C124	C	1.255442	0.326066	-0.354592
C125	C	1.588775	0.659399	-0.021259
C126	C	1.922109	0.992732	0.312074
C127	C	1.337241	0.326071	-0.354601
C128	C	1.670574	0.659404	-0.021268
C129	C	2.003908	0.992738	0.312065
C130	C	1.063534	0.326007	-0.546524
C131	C	1.396867	0.659340	-0.213190
C132	C	1.730201	0.992674	0.120143
C133	C	1.063553	0.325987	-0.628322
C134	C	1.396886	0.659320	-0.294989
C135	C	1.730220	0.992654	0.038344
C136	C	1.063591	1.149511	-0.354625
C137	C	1.396924	1.482844	-0.021292
C138	C	1.730257	1.816178	0.312042
C139	C	1.063618	1.074279	-0.354670
C140	C	1.396951	1.407612	-0.021337
C141	C	1.730284	1.740946	0.311996
C142	C	1.110666	0.282659	-0.816534
C143	C	1.443999	0.615992	-0.483201
C144	C	1.777332	0.949326	-0.149868
C145	C	1.110674	0.282639	-0.893393
C146	C	1.444008	0.615973	-0.560060
C147	C	1.777341	0.949306	-0.226726
C148	C	1.016493	0.369210	-0.893349
C149	C	1.349826	0.702544	-0.560015
C150	C	1.683159	1.035877	-0.226682
C151	C	1.016481	0.369226	-0.816491
C152	C	1.349814	0.702560	-0.483158
C153	C	1.683147	1.035893	-0.149825
C154	C	1.063571	0.325952	-0.778086
C155	C	1.396905	0.659285	-0.444753
C156	C	1.730238	0.992618	-0.111419
C157	C	1.063592	0.325916	-0.931802
C158	C	1.396925	0.659249	-0.598469
C159	C	1.730259	0.992583	-0.265136
C160	C	1.063601	0.325895	-1.015136
C161	C	1.396935	0.659228	-0.681803
C162	C	1.730268	0.992562	-0.348469
C163	C	1.063561	0.325972	-0.694747
C164	C	1.396895	0.659305	-0.361414
C165	C	1.730228	0.992638	-0.028080
C166	C	1.063487	0.326051	-0.163364
C167	C	1.396820	0.659385	0.169969
C168	C	1.730154	0.992718	0.503302
C169	C	1.063610	0.325880	-0.081566
C170	C	1.396944	0.659214	0.251768
C171	C	1.730277	0.992547	0.585101
H172	H	0.494140	0.247431	-0.269352
H173	H	0.827473	0.580764	0.063981
H174	H	1.160807	0.914097	0.397314
F175	F	0.966282	0.720801	-0.451662
F176	F	1.299615	1.054135	-0.118329
F177	F	1.632949	1.387468	0.215005
F178	F	0.966350	0.415303	-0.775570
F179	F	1.299684	0.748637	-0.442236
F180	F	1.633017	1.081970	-0.108903
H181	H	0.633582	0.247416	-0.269335
H182	H	0.966915	0.580749	0.063998
H183	H	1.300248	0.914082	0.397331
H184	H	1.149008	0.247420	-0.785267
H185	H	1.482341	0.580754	-0.451934
H186	H	1.815675	0.914087	-0.118600
H187	H	0.978155	0.404444	-0.924628
H188	H	1.311488	0.737778	-0.591294
H189	H	1.644821	1.071111	-0.257961
F190	F	0.966402	1.076563	-0.451739
F191	F	1.299736	1.409897	-0.118405
F192	F	1.633069	1.743230	0.214928
H193	H	0.633579	0.404693	-0.439810
H194	H	0.966912	0.738026	-0.106477
H195	H	1.300245	1.071359	0.226856
F196	F	1.160638	0.574861	-0.257479
F197	F	1.493971	0.908194	0.075854
F198	F	1.827305	1.241527	0.409187
F199	F	1.160804	0.236566	-0.934309
F200	F	1.494137	0.569899	-0.600976
F201	F	1.827470	0.903233	-0.267642
F202	F	0.484542	0.415532	-0.451575
F203	F	0.817876	0.748865	-0.118241
F204	F	1.151209	1.082198	0.215092
H205	H	1.148920	0.711934	-0.269275
H206	H	1.482253	1.045267	0.064059
H207	H	1.815587	1.378600	0.397392
H208	H	1.148998	0.939459	-0.269325
H209	H	1.482332	1.272792	0.064009
H210	H	1.815665	1.606125	0.397342
F211	F	1.160825	1.076538	-0.257597
F212	F	1.494159	1.409871	0.075736
F213	F	1.827492	1.743205	0.409070
H214	H	0.978130	0.939485	-0.439955
H215	H	1.311463	1.272819	-0.106622
H216	H	1.644796	1.606152	0.226712
H217	H	0.978001	0.583719	-0.439874
H218	H	1.311335	0.917052	-0.106541
H219	H	1.644668	1.250386	0.226792
