data_functionalizedCrystal
_audit_creation_method	'MofGen! by Chris Wilmer'
_symmetry_space_group_name_H-M	'P1'
_symmetry_Int_Tables_number	1
_symmetry_cell_setting	triclinic
loop_
_symmetry_equiv_pos_as_xyz
  x,y,z
_cell_length_a	16.992695
_cell_length_b	9.065218
_cell_length_c	8.140239
_cell_angle_alpha	90.001686
_cell_angle_beta	89.999195
_cell_angle_gamma	92.157946
loop_
_atom_site_label
_atom_site_type_symbol
_atom_site_fract_x
_atom_site_fract_y
_atom_site_fract_z
O1	O	1.042613	-0.313082	-0.136537
O2	O	1.542613	0.186918	0.363463
O3	O	0.814303	-0.309648	-0.136555
O4	O	1.314303	0.190352	0.363445
O5	O	0.933177	-0.097160	-0.136542
O6	O	1.433177	0.402840	0.363458
O7	O	0.923739	-0.525570	-0.136550
O8	O	1.423739	-0.025570	0.363450
O9	O	0.933170	-0.097157	0.136685
O10	O	1.433170	0.402843	0.636685
O11	O	0.814297	-0.309644	0.136672
O12	O	1.314297	0.190356	0.636672
O13	O	1.042606	-0.313079	0.136690
O14	O	1.542606	0.186921	0.636690
Zn15	Zn	0.928450	-0.311361	0.180062
Zn16	Zn	1.428450	0.188639	0.680062
Zn17	Zn	0.928459	-0.311366	-0.179927
Zn18	Zn	1.428459	0.188634	0.320073
O19	O	0.923732	-0.525566	0.136677
O20	O	1.423732	-0.025566	0.636677
C21	C	0.785056	-0.305227	0.000056
C22	C	1.285056	0.194773	0.500056
C23	C	0.697918	-0.292043	0.000049
C24	C	1.197918	0.207957	0.500049
C25	C	0.932267	-0.042088	0.000068
C26	C	1.432267	0.457912	0.500068
C27	C	0.929555	0.122007	0.000060
C28	C	1.429555	0.622007	0.500060
C29	C	1.071853	-0.317499	0.000075
C30	C	1.571853	0.182501	0.500075
C31	C	1.158991	-0.330683	0.000071
C32	C	1.658991	0.169317	0.500071
C33	C	1.208328	-0.203477	0.000068
C34	C	1.708328	0.296523	0.500068
C35	C	1.290203	-0.215874	0.000073
C36	C	1.790203	0.284126	0.500073
C37	C	1.322739	-0.355477	0.000071
C38	C	1.822739	0.144523	0.500071
C39	C	1.273396	-0.482693	0.000079
C40	C	1.773396	0.017307	0.500079
C41	C	1.191522	-0.470295	0.000085
C42	C	1.691522	0.029705	0.500085
C43	C	1.566702	-0.406861	0.000064
C44	C	2.066702	0.093139	0.500064
C45	C	1.648581	-0.419249	0.000053
C46	C	2.148581	0.080751	0.500053
C47	C	1.665383	-0.152429	0.000050
C48	C	2.165383	0.347571	0.500050
C49	C	1.583507	-0.140043	0.000046
C50	C	2.083507	0.359957	0.500046
C51	C	1.534171	-0.267259	0.000063
C52	C	2.034171	0.232741	0.500063
N53	N	1.406428	-0.368152	0.000071
N54	N	1.906428	0.131848	0.500071
N55	N	1.450484	-0.254583	0.000074
N56	N	1.950484	0.245417	0.500074
C57	C	0.924643	-0.580639	0.000063
C58	C	1.424643	-0.080639	0.500063
C59	C	0.927355	-0.744733	0.000060
C60	C	1.427355	-0.244733	0.500060
N61	N	0.928450	-0.311358	0.425744
N62	N	1.428450	0.188642	0.925744
N63	N	0.928465	-0.311358	-0.425609
N64	N	1.428465	0.188642	0.074391
H65	H	1.181844	-0.089797	0.000060
H66	H	1.681844	0.410203	0.500060
C67	C	1.623753	-0.681759	0.000084
C68	C	2.123753	-0.181759	0.500084
C69	C	1.684346	-0.572713	0.000060
C70	C	2.184346	-0.072713	0.500060
H71	H	1.645835	-0.776493	0.000096
H72	H	2.145835	-0.276493	0.500096
H73	H	1.592167	-0.671387	-0.095185
H74	H	2.092167	-0.171387	0.404815
H75	H	1.592172	-0.671360	0.095377
H76	H	2.092172	-0.171360	0.595377
H77	H	1.715924	-0.583105	-0.095239
H78	H	2.215924	-0.083105	0.404761
H79	H	1.715945	-0.583090	0.095339
H80	H	2.215945	-0.083090	0.595339
C81	C	1.089706	-0.611144	0.140550
C82	C	1.589706	-0.111144	0.640550
C83	C	1.137289	-0.610125	0.000086
C84	C	1.637289	-0.110125	0.500086
H85	H	1.056229	-0.697478	0.140557
H86	H	1.556229	-0.197478	0.640557
H87	H	1.058615	-0.526239	0.140541
H88	H	1.558615	-0.026239	0.640541
H89	H	1.122006	-0.610431	0.235814
H90	H	1.622006	-0.110431	0.735814
H91	H	1.104989	-0.610827	-0.095179
H92	H	1.604989	-0.110827	0.404821
H93	H	1.168383	-0.695053	0.000080
H94	H	1.668383	-0.195053	0.500080
H95	H	1.526541	-0.510450	0.000069
H96	H	2.026541	-0.010450	0.500069
C97	C	1.284284	-0.713927	0.140540
C98	C	1.784284	-0.213927	0.640540
C99	C	1.309156	-0.636150	0.000080
C100	C	1.809156	-0.136150	0.500080
H101	H	1.306364	-0.808663	0.140538
H102	H	1.806364	-0.308663	0.640538
H103	H	1.228469	-0.724745	0.140535
H104	H	1.728469	-0.224745	0.640535
H105	H	1.301163	-0.661128	0.235807
H106	H	1.801163	-0.161128	0.735807
H107	H	1.292272	-0.688944	-0.095188
H108	H	1.792272	-0.188944	0.404812
H109	H	1.364983	-0.625338	0.000070
H110	H	1.864983	-0.125338	0.500070
C111	C	1.298587	0.049107	0.000054
C112	C	1.798587	0.549107	0.500054
C113	C	1.344434	-0.076044	0.000065
C114	C	1.844434	0.423956	0.500065
H115	H	1.332069	0.135434	0.000042
H116	H	1.832069	0.635434	0.500042
H117	H	1.266304	0.048397	0.095327
H118	H	1.766304	0.548397	0.595327
H119	H	1.266303	0.048376	-0.095234
H120	H	1.766303	0.548376	0.404766
H121	H	1.376714	-0.075319	0.095361
H122	H	1.876714	0.424681	0.595361
H123	H	1.376731	-0.075333	-0.095217
H124	H	1.876731	0.424667	0.404783
H125	H	1.557023	-0.026364	0.000049
H126	H	2.057023	0.473636	0.500049
C127	C	1.798349	-0.052954	0.000055
C128	C	2.298349	0.447046	0.500055
C129	C	1.719615	-0.012600	0.000054
C130	C	2.219615	0.487400	0.500054
H131	H	1.831828	0.033378	0.000072
H132	H	2.331828	0.533378	0.500072
H133	H	1.808311	-0.109784	-0.095224
H134	H	2.308311	0.390216	0.404776
H135	H	1.808306	-0.109803	0.095337
H136	H	2.308306	0.390197	0.595337
H137	H	1.709656	0.044241	-0.095235
H138	H	2.209656	0.544241	0.404765
H139	H	1.709648	0.044254	0.095343
H140	H	2.209648	0.544254	0.595343
