data_functionalizedCrystal
_audit_creation_method	'MofGen! by Chris Wilmer'
_symmetry_space_group_name_H-M	'P1'
_symmetry_Int_Tables_number	1
_symmetry_cell_setting	triclinic
loop_
_symmetry_equiv_pos_as_xyz
  x,y,z
_cell_length_a	16.109318
_cell_length_b	11.792254
_cell_length_c	15.186229
_cell_angle_alpha	89.996078
_cell_angle_beta	90.000224
_cell_angle_gamma	83.833580
loop_
_atom_site_label
_atom_site_type_symbol
_atom_site_fract_x
_atom_site_fract_y
_atom_site_fract_z
O1	O	1.103813	0.145978	-0.073156
O2	O	1.603813	0.645978	0.426844
O3	O	0.861839	0.164113	-0.073174
O4	O	1.361839	0.664113	0.426826
O5	O	0.988693	-0.010175	-0.073158
O6	O	1.488693	0.489825	0.426842
O7	O	0.976960	0.320266	-0.073171
O8	O	1.476960	0.820266	0.426829
O9	O	0.988684	-0.010178	0.073299
O10	O	1.488684	0.489822	0.573299
O11	O	0.861831	0.164110	0.073284
O12	O	1.361831	0.664110	0.573284
O13	O	1.103805	0.145976	0.073302
O14	O	1.603805	0.645976	0.573302
Zn15	Zn	0.982817	0.155042	0.096546
Zn16	Zn	1.482817	0.655042	0.596546
Zn17	Zn	0.982828	0.155046	-0.096418
Zn18	Zn	1.482828	0.655046	0.403582
O19	O	0.976951	0.320263	0.073286
O20	O	1.476951	0.820263	0.573286
C21	C	0.830857	0.163373	0.000053
C22	C	1.330857	0.663373	0.500053
C23	C	0.738552	0.161161	0.000046
C24	C	1.238552	0.661161	0.500046
C25	C	0.439449	0.154016	-0.079772
C26	C	0.939449	0.654016	0.420228
C27	C	0.526180	0.156087	-0.079777
C28	C	1.026180	0.656087	0.420223
C29	C	0.526190	0.156069	0.079898
C30	C	1.026190	0.656069	0.579898
C31	C	0.439461	0.153989	0.079903
C32	C	0.939461	0.653989	0.579903
C33	C	0.396092	0.152969	0.000065
C34	C	0.896092	0.652969	0.500065
C35	C	0.569552	0.157120	0.000055
C36	C	1.069552	0.657120	0.500055
C37	C	0.663590	0.159366	0.000050
C38	C	1.163590	0.659366	0.500050
C39	C	0.302049	0.150720	0.000070
C40	C	0.802049	0.650720	0.500070
C41	C	0.987950	-0.052461	0.000070
C42	C	1.487950	0.447539	0.500070
C43	C	0.985737	-0.178455	0.000069
C44	C	1.485737	0.321545	0.500069
C45	C	0.983940	-0.280776	0.000066
C46	C	1.483940	0.219224	0.500066
C47	C	0.981692	-0.409143	0.000058
C48	C	1.481692	0.090857	0.500058
C49	C	1.134787	0.146715	0.000073
C50	C	1.634787	0.646715	0.500073
C51	C	1.227092	0.148928	0.000074
C52	C	1.727092	0.648928	0.500074
C53	C	0.977695	0.362549	0.000056
C54	C	1.477695	0.862549	0.500056
C55	C	0.979907	0.488543	0.000051
C56	C	1.479907	0.988543	0.500051
N57	N	0.982815	0.155040	0.228239
N58	N	1.482815	0.655040	0.728239
N59	N	0.982836	0.155040	-0.228111
N60	N	1.482836	0.655040	0.271889
C61	C	1.039005	0.077891	0.453968
C62	C	1.539005	0.577891	0.953968
C63	C	1.039008	0.077888	0.546158
C64	C	1.539008	0.577888	1.046158
C65	C	0.926640	0.232192	0.546153
C66	C	1.426640	0.732192	1.046153
C67	C	0.926634	0.232188	0.453965
C68	C	1.426634	0.732188	0.953965
C69	C	0.982821	0.155039	0.407875
C70	C	1.482821	0.655039	0.907875
C71	C	0.982830	0.155040	0.592253
C72	C	1.482830	0.655040	1.092253
C73	C	0.982832	0.155038	0.692209
C74	C	1.482832	0.655038	1.192209
C75	C	0.982818	0.155040	0.307913
C76	C	1.482818	0.655040	0.807913
H77	H	0.404141	0.153183	-0.144781
H78	H	0.904141	0.653183	0.355219
H79	H	0.561478	0.156938	-0.144789
H80	H	1.061478	0.656938	0.355211
N81	N	0.570469	0.157130	0.161459
N82	N	1.070469	0.657130	0.661459
N83	N	0.568084	0.076950	0.214926
N84	N	1.068084	0.576950	0.714926
H85	H	0.599351	0.077708	0.272533
H86	H	1.099351	0.577708	0.772533
H87	H	1.084755	0.015070	0.416444
H88	H	1.584755	0.515070	0.916444
H89	H	1.084757	0.015066	0.583685
H90	H	1.584757	0.515066	1.083685
H91	H	0.404159	0.153136	0.144920
H92	H	0.904159	0.653136	0.644920
H93	H	0.880894	0.295007	0.583689
H94	H	1.380894	0.795007	1.083689
H95	H	0.880878	0.295012	0.416434
H96	H	1.380878	0.795012	0.916434
