data_functionalizedCrystal
_audit_creation_method	'MofGen! by Chris Wilmer'
_symmetry_space_group_name_H-M	'P1'
_symmetry_Int_Tables_number	1
_symmetry_cell_setting	triclinic
loop_
_symmetry_equiv_pos_as_xyz
  x,y,z
_cell_length_a	17.038272
_cell_length_b	17.038272
_cell_length_c	7.540329
_cell_angle_alpha	90.003596
_cell_angle_beta	89.996000
_cell_angle_gamma	91.111556
loop_
_atom_site_label
_atom_site_type_symbol
_atom_site_fract_x
_atom_site_fract_y
_atom_site_fract_z
O1	O	-1.048751	-0.170535	-0.147262
O2	O	-0.548751	0.329465	0.352738
O3	O	-0.820940	-0.167827	-0.147314
O4	O	-0.320940	0.332173	0.352686
O5	O	-0.933492	-0.055275	-0.147274
O6	O	-0.433492	0.444725	0.352726
O7	O	-0.936200	-0.283087	-0.147302
O8	O	-0.436200	0.216913	0.352698
O9	O	-0.933487	-0.055274	0.147691
O10	O	-0.433487	0.444726	0.647691
O11	O	-0.820936	-0.167826	0.147651
O12	O	-0.320936	0.332174	0.647651
O13	O	-1.048747	-0.170534	0.147703
O14	O	-0.548747	0.329466	0.647703
Cu15	Cu	-0.934841	-0.169180	0.174610
Cu16	Cu	-0.434841	0.330820	0.674610
Cu17	Cu	-0.934846	-0.169181	-0.174221
Cu18	Cu	-0.434846	0.330819	0.325779
O19	O	-0.936195	-0.283086	0.147663
O20	O	-0.436195	0.216914	0.647663
C21	C	-0.791645	-0.165364	0.000162
C22	C	-0.291645	0.334636	0.500162
C23	C	-0.704361	-0.158016	0.000142
C24	C	-0.204361	0.341984	0.500142
C25	C	-0.931027	-0.025982	0.000207
C26	C	-0.431027	0.474018	0.500207
C27	C	-0.923679	0.061301	0.000205
C28	C	-0.423679	0.561301	0.500205
C29	C	-1.078042	-0.172997	0.000223
C30	C	-0.578042	0.327003	0.500223
C31	C	-1.165326	-0.180346	0.000231
C32	C	-0.665326	0.319654	0.500231
C33	C	-0.658752	-0.225479	0.000135
C34	C	-0.158752	0.274521	0.500135
C35	C	-0.576740	-0.218570	0.000161
C36	C	-0.076740	0.281430	0.500161
C37	C	-0.540339	-0.144197	0.000180
C38	C	-0.040339	0.355803	0.500180
C39	C	-0.585954	-0.076728	0.000192
C40	C	-0.085954	0.423272	0.500192
C41	C	-0.667965	-0.083638	0.000180
C42	C	-0.167965	0.416362	0.500180
C43	C	-0.292951	-0.119787	0.000230
C44	C	0.207049	0.380213	0.500230
C45	C	-0.210935	-0.112882	0.000238
C46	C	0.289065	0.387118	0.500238
C47	C	-0.201726	-0.254725	0.000210
C48	C	0.298274	0.245275	0.500210
C49	C	-0.283739	-0.261628	0.000186
C50	C	0.216261	0.238372	0.500186
C51	C	-0.329347	-0.194159	0.000208
C52	C	0.170653	0.305841	0.500208
C53	C	-0.456510	-0.137133	0.000200
C54	C	0.043490	0.362867	0.500200
C55	C	-0.413174	-0.201224	0.000200
C56	C	0.086826	0.298776	0.500200
C57	C	-0.938660	-0.312379	0.000177
C58	C	-0.438660	0.187621	0.500177
C59	C	-0.946008	-0.399663	0.000168
C60	C	-0.446008	0.100337	0.500168
N61	N	-0.934843	-0.169179	0.419958
N62	N	-0.434843	0.330821	0.919958
C63	C	-0.991142	0.106911	0.000222
C64	C	-0.491142	0.606911	0.500222
C65	C	-0.984233	0.188923	0.000204
C66	C	-0.484233	0.688923	0.500204
C67	C	-0.909860	0.225324	0.000181
C68	C	-0.409860	0.725324	0.500181
C69	C	-0.842391	0.179708	0.000158
C70	C	-0.342391	0.679708	0.500158
C71	C	-0.849301	0.097698	0.000164
C72	C	-0.349301	0.597698	0.500164
C73	C	-0.885449	0.472712	0.000151
C74	C	-0.385449	0.972712	0.500151
C75	C	-0.878545	0.554728	0.000151
C76	C	-0.378545	1.054728	0.500151
C77	C	-1.020387	0.563937	0.000193
C78	C	-0.520387	1.063937	0.500193
C79	C	-1.027291	0.481924	0.000209
C80	C	-0.527291	0.981924	0.500209
C81	C	-0.959822	0.436316	0.000177
C82	C	-0.459822	0.936316	0.500177
C83	C	-0.902796	0.309153	0.000168
C84	C	-0.402796	0.809153	0.500168
C85	C	-0.966886	0.352488	0.000178
C86	C	-0.466886	0.852488	0.500178
N87	N	-0.934850	-0.169177	-0.419569
N88	N	-0.434850	0.330823	0.080431
H89	H	-0.688384	-0.286042	0.000118
H90	H	-0.188384	0.213958	0.500118
H91	H	-0.556310	-0.016172	0.000233
H92	H	-0.056310	0.483828	0.500233
H93	H	-1.027441	0.322847	0.000158
H94	H	-0.527441	0.822847	0.500158
H95	H	-0.539608	-0.273507	0.000153
H96	H	-0.039608	0.226493	0.500153
H97	H	-0.781835	0.209353	0.000129
H98	H	-0.281835	0.709353	0.500129
O99	O	-0.783687	0.053507	0.000226
O100	O	-0.283687	0.553507	0.500226
C101	C	-0.642270	0.053024	0.000064
C102	C	-0.142270	0.553024	0.500064
C103	C	-0.716515	0.103162	0.000049
C104	C	-0.216515	0.603162	0.500049
H105	H	-0.587943	0.093148	-0.000117
H106	H	-0.087943	0.593148	0.499883
H107	H	-0.641897	0.014418	0.123532
H108	H	-0.141897	0.514418	0.623532
H109	H	-0.642009	0.014378	-0.123353
H110	H	-0.142009	0.514378	0.376647
H111	H	-0.716824	0.141854	0.123382
H112	H	-0.216824	0.641854	0.623382
H113	H	-0.716858	0.141716	-0.123501
H114	H	-0.216858	0.641716	0.376499
H115	H	-0.181300	-0.052315	0.000252
H116	H	0.318700	0.447685	0.500252
H117	H	-0.442816	-0.261778	0.000194
H118	H	0.057184	0.238222	0.500194
H119	H	-0.313370	-0.322190	0.000150
H120	H	0.186630	0.177810	0.500150
H121	H	-0.164583	-0.309653	0.000196
H122	H	0.335417	0.190347	0.500196
H123	H	-0.330076	-0.064848	0.000249
H124	H	0.169924	0.435152	0.500249
O125	O	-0.421110	-0.064907	-0.000109
O126	O	0.078890	0.435093	0.499891
C127	C	-0.333803	0.025179	-0.152846
C128	C	0.166197	0.525179	0.347154
C129	C	-0.373860	-0.056633	-0.152742
C130	C	0.126140	0.443367	0.347258
H131	H	-0.295579	0.031888	-0.276217
H132	H	0.204421	0.531888	0.223783
H133	H	-0.380450	0.072252	-0.152967
H134	H	0.119550	0.572252	0.347033
H135	H	-0.295680	0.031942	-0.029338
H136	H	0.204320	0.531942	0.470662
H137	H	-0.411979	-0.063473	-0.276229
H138	H	0.088021	0.436527	0.223771
H139	H	-0.327174	-0.103666	-0.152528
H140	H	0.172826	0.396334	0.347472
H141	H	-0.705099	-0.028702	0.000184
H142	H	-0.205099	0.471298	0.500184
O143	O	-1.063449	0.071680	0.000162
O144	O	-0.563449	0.571680	0.500162
C145	C	-1.203407	0.089479	0.000283
C146	C	-0.703407	0.589479	0.500283
C147	C	-1.121566	0.129475	0.000321
C148	C	-0.621566	0.629475	0.500321
H149	H	-1.250417	0.136188	0.000450
H150	H	-0.750417	0.636188	0.500450
H151	H	-1.210240	0.051336	-0.123187
H152	H	-0.710240	0.551336	0.376813
H153	H	-1.210149	0.051294	0.123698
H154	H	-0.710149	0.551294	0.623698
H155	H	-1.114768	0.167700	-0.123010
H156	H	-0.614768	0.667700	0.376990
H157	H	-1.114771	0.167571	0.123873
H158	H	-0.614771	0.667571	0.623873
H159	H	-0.817978	0.584363	0.000161
H160	H	-0.317978	1.084363	0.500161
O161	O	-0.830595	0.344606	-0.000075
O162	O	-0.330595	0.844606	0.499925
C163	C	-0.740469	0.431820	-0.152959
C164	C	-0.240469	0.931820	0.347041
C165	C	-0.822265	0.391731	-0.152880
C166	C	-0.322265	0.891731	0.347120
H167	H	-0.733702	0.469916	-0.276507
H168	H	-0.233702	0.969916	0.223493
H169	H	-0.733680	0.470044	-0.029605
H170	H	-0.233680	0.970044	0.470395
H171	H	-0.693444	0.385126	-0.152872
H172	H	-0.193444	0.885126	0.347128
H173	H	-0.869339	0.438371	-0.153028
H174	H	-0.369339	0.938371	0.346972
H175	H	-0.828987	0.353490	-0.276223
H176	H	-0.328987	0.853490	0.223777
O177	O	-1.049747	0.233258	-0.000094
O178	O	-0.549747	0.733258	0.499906
C179	C	-1.124255	0.331213	-0.152853
C180	C	-0.624255	0.831213	0.347147
C181	C	-1.050033	0.281040	-0.152749
C182	C	-0.550033	0.781040	0.347251
H183	H	-1.124503	0.369869	-0.276242
H184	H	-0.624503	0.869869	0.223758
H185	H	-1.178623	0.291142	-0.152941
H186	H	-0.678623	0.791142	0.347059
H187	H	-1.124559	0.369811	-0.029363
H188	H	-0.624559	0.869811	0.470637
H189	H	-1.049653	0.242435	-0.276218
H190	H	-0.549653	0.742435	0.223782
H191	H	-0.995699	0.321155	-0.152568
H192	H	-0.495699	0.821155	0.347432
O193	O	-1.099597	0.446693	0.000159
O194	O	-0.599597	0.946693	0.500159
C195	C	-1.239556	0.464484	0.000336
C196	C	-0.739556	0.964484	0.500336
C197	C	-1.157718	0.504485	0.000333
C198	C	-0.657718	1.004485	0.500333
H199	H	-1.286568	0.511190	0.000514
H200	H	-0.786568	1.011190	0.500514
H201	H	-1.246397	0.426336	-0.123125
H202	H	-0.746397	0.926336	0.376875
H203	H	-1.246286	0.426303	0.123760
H204	H	-0.746286	0.926303	0.623760
H205	H	-1.150932	0.542705	-0.123008
H206	H	-0.650932	1.042705	0.376992
H207	H	-1.150914	0.542585	0.123875
H208	H	-0.650914	1.042585	0.623875
H209	H	-0.830511	0.435587	0.000126
H210	H	-0.330511	0.935587	0.500126
H211	H	-1.075316	0.601079	0.000216
H212	H	-0.575316	1.101079	0.500216
