data_functionalizedCrystal
_audit_creation_method	'MofGen! by Chris Wilmer'
_symmetry_space_group_name_H-M	'P1'
_symmetry_Int_Tables_number	1
_symmetry_cell_setting	triclinic
loop_
_symmetry_equiv_pos_as_xyz
  x,y,z
_cell_length_a	29.019771
_cell_length_b	29.019011
_cell_length_c	29.015668
_cell_angle_alpha	60.004890
_cell_angle_beta	60.009825
_cell_angle_gamma	59.993818
loop_
_atom_site_label
_atom_site_type_symbol
_atom_site_fract_x
_atom_site_fract_y
_atom_site_fract_z
O1	O	0.063866	-0.673289	0.563007
O2	O	0.563866	-0.173289	1.063007
O3	O	0.024059	-0.524205	0.453633
O4	O	0.524059	-0.024205	0.953633
O5	O	0.118464	-0.618532	0.453552
O6	O	0.618464	-0.118532	0.953552
O7	O	-0.030540	-0.578962	0.563088
O8	O	0.469460	-0.078962	1.063088
O9	O	0.149785	-0.587215	0.484789
O10	O	0.649785	-0.087215	0.984789
O11	O	0.055379	-0.492888	0.484869
O12	O	0.555379	0.007112	0.984869
O13	O	0.095186	-0.641972	0.594244
O14	O	0.595186	-0.141972	1.094244
Cu15	Cu	0.078143	-0.564571	0.542409
Cu16	Cu	0.578143	-0.064571	1.042409
Cu17	Cu	0.041102	-0.601606	0.505468
Cu18	Cu	0.541102	-0.101606	1.005468
O19	O	0.000781	-0.547645	0.594325
O20	O	0.500781	-0.047645	1.094325
N21	N	0.104196	-0.538525	0.568394
N22	N	0.604196	-0.038525	1.068394
N23	N	0.015054	-0.627656	0.479483
N24	N	0.515054	-0.127656	0.979483
C25	C	0.143783	-0.499167	0.850823
C26	C	0.643783	0.000833	1.350823
C27	C	0.386758	-0.499111	0.607645
C28	C	0.886758	0.000889	1.107645
C29	C	0.143618	-0.499136	0.607763
C30	C	0.643618	0.000864	1.107763
C31	C	0.143598	-0.256029	0.607770
C32	C	0.643598	0.243971	1.107770
C33	C	0.182748	-0.373362	0.646852
C34	C	0.682748	0.126638	1.146852
C35	C	0.182758	-0.460025	0.646847
C36	C	0.682758	0.039975	1.146847
C37	C	0.204440	-0.438361	0.668500
C38	C	0.704440	0.061639	1.168500
C39	C	0.298958	-0.422064	0.618723
C40	C	0.798958	0.077936	1.118723
C41	C	0.358043	-0.441753	0.599006
C42	C	0.858043	0.058247	1.099006
C43	C	0.358069	-0.537354	0.635461
C44	C	0.858069	-0.037354	1.135461
C45	C	0.298985	-0.517664	0.655180
C46	C	0.798985	-0.017664	1.155180
C47	C	0.196983	-0.343808	0.588767
C48	C	0.696983	0.156192	1.088767
C49	C	0.177262	-0.284720	0.569090
C50	C	0.677262	0.215280	1.069090
C51	C	0.129075	-0.284743	0.665586
C52	C	0.629075	0.215257	1.165586
C53	C	0.148797	-0.343831	0.685263
C54	C	0.648797	0.156169	1.185263
C55	C	0.124666	-0.445760	0.661149
C56	C	0.624666	0.054240	1.161149
C57	C	0.104961	-0.465454	0.641458
C58	C	0.604961	0.034546	1.141458
C59	C	0.201435	-0.513678	0.593176
C60	C	0.701435	-0.013678	1.093176
C61	C	0.221143	-0.493984	0.612860
C62	C	0.721143	0.006016	1.112860
C63	C	0.124738	-0.445777	0.763064
C64	C	0.624738	0.054223	1.263064
C65	C	0.105085	-0.465488	0.822151
C66	C	0.605085	0.034512	1.322151
C67	C	0.201594	-0.513722	0.822097
C68	C	0.701594	-0.013722	1.322097
C69	C	0.221247	-0.494012	0.763009
C70	C	0.721247	0.005988	1.263009
C71	C	0.182817	-0.460038	0.733494
C72	C	0.682817	0.039962	1.233494
C73	C	0.269432	-0.460018	0.646809
C74	C	0.769432	0.039982	1.146809
C75	C	0.121399	-0.520450	0.915812
C76	C	0.621399	-0.020450	1.415812
C77	C	0.451745	-0.520012	0.585655
C78	C	0.951745	-0.020012	1.085655
C79	C	0.121177	-0.520429	0.586502
C80	C	0.621177	-0.020429	1.086502
C81	C	0.121544	-0.191035	0.586883
C82	C	0.621544	0.308965	1.086883
C83	C	-0.110592	-0.666601	0.440035
C84	C	0.389408	-0.166601	0.940035
C85	C	-0.023978	-0.666709	0.440231
C86	C	0.476022	-0.166709	0.940231
C87	C	-0.045598	-0.688342	0.418486
C88	C	0.454402	-0.188342	0.918486
C89	C	-0.061967	-0.782825	0.468184
C90	C	0.438033	-0.282825	0.968184
C91	C	-0.042323	-0.841914	0.487907
C92	C	0.457677	-0.341914	0.987907
C93	C	0.053280	-0.842025	0.451623
C94	C	0.553280	-0.342025	0.951623
C95	C	0.033634	-0.782937	0.431899
C96	C	0.533634	-0.282937	0.931899
C97	C	-0.140218	-0.680832	0.498102
C98	C	0.359782	-0.180832	0.998102
C99	C	-0.199302	-0.661065	0.517690
C100	C	0.300698	-0.161065	1.017690
C101	C	-0.199129	-0.612843	0.421140
C102	C	0.300871	-0.112843	0.921140
C103	C	-0.140045	-0.632610	0.401552
C104	C	0.359955	-0.132610	0.901552
C105	C	-0.038209	-0.608622	0.425941
C106	C	0.461791	-0.108622	0.925941
C107	C	-0.018555	-0.588961	0.445716
C108	C	0.481445	-0.088961	0.945716
C109	C	0.029562	-0.685470	0.494059
C110	C	0.529562	-0.185470	0.994059
C111	C	0.009908	-0.705133	0.474291
C112	C	0.509908	-0.205133	0.974291
C113	C	-0.038037	-0.608631	0.323917
C114	C	0.461963	-0.108631	0.823917
C115	C	-0.018247	-0.588973	0.264830
C116	C	0.481753	-0.088973	0.764830
C117	C	0.029955	-0.685489	0.264893
C118	C	0.529955	-0.185489	0.764893
C119	C	0.010165	-0.705145	0.323981
C120	C	0.510165	-0.205145	0.823981
C121	C	-0.023833	-0.666715	0.353492
C122	C	0.476167	-0.166715	0.853492
C123	C	-0.023990	-0.753339	0.440182
C124	C	0.476010	-0.253339	0.940182
N125	N	0.504925	-0.538487	0.568205
N126	N	1.004925	-0.038487	1.068205
O127	O	0.685342	-0.543679	0.433426
O128	O	1.185342	-0.043679	0.933426
O129	O	0.685533	-0.653395	0.582361
O130	O	1.185533	-0.153395	1.082361
O131	O	0.685457	-0.653145	0.487904
O132	O	1.185457	-0.153145	0.987904
O133	O	0.685418	-0.543929	0.527882
O134	O	1.185418	-0.043929	1.027882
O135	O	0.591592	-0.621921	0.519268
O136	O	1.091592	-0.121921	1.019268
O137	O	0.591667	-0.622171	0.613725
O138	O	1.091667	-0.122171	1.113725
O139	O	0.591477	-0.512455	0.464790
O140	O	1.091477	-0.012455	0.964790
Cu141	Cu	0.583001	-0.564462	0.542121
Cu142	Cu	1.083001	-0.064462	1.042121
Cu143	Cu	0.694008	-0.601388	0.505029
Cu144	Cu	1.194008	-0.101388	1.005029
O145	O	0.591553	-0.512705	0.559246
O146	O	1.091553	-0.012705	1.059246
N147	N	0.772084	-0.627363	0.478939
N148	N	1.272084	-0.127363	0.978939
N149	N	0.104168	-0.137853	0.568408
N150	N	0.604168	0.362147	1.068408
O151	O	-0.030538	0.042663	0.563097
O152	O	0.469462	0.542663	1.063097
O153	O	0.118403	0.042683	0.453379
O154	O	0.618403	0.542683	0.953379
O155	O	0.023918	0.042657	0.453664
O156	O	0.523918	0.542657	0.953664
O157	O	0.063947	0.042689	0.562813
O158	O	0.563947	0.542689	1.062813
O159	O	0.055242	-0.051215	0.484950
O160	O	0.555242	0.448785	0.984950
O161	O	0.149727	-0.051189	0.484666
O162	O	0.649727	0.448811	0.984666
O163	O	0.000787	-0.051210	0.594384
O164	O	0.500787	0.448790	1.094384
Cu165	Cu	0.078117	-0.059771	0.542381
Cu166	Cu	0.578117	0.440229	1.042381
Cu167	Cu	0.041072	0.051244	0.505382
Cu168	Cu	0.541072	0.551244	1.005382
O169	O	0.095272	-0.051184	0.594099
O170	O	0.595272	0.448816	1.094099
N171	N	0.015015	0.129326	0.479356
N172	N	0.515015	0.629326	0.979356
N173	N	0.104469	-0.538576	0.968995
N174	N	0.604469	-0.038576	1.468995
O175	O	0.099171	-0.673268	1.149499
O176	O	0.599171	-0.173268	1.649499
O177	O	-0.010519	-0.524279	1.149527
O178	O	0.489481	-0.024279	1.649527
O179	O	-0.010265	-0.618748	1.149494
O180	O	0.489735	-0.118748	1.649494
O181	O	0.098916	-0.578799	1.149533
O182	O	0.598916	-0.078799	1.649533
O183	O	0.021008	-0.587443	1.055625
O184	O	0.521008	-0.087443	1.555625
O185	O	0.020753	-0.492974	1.055659
O186	O	0.520753	0.007026	1.555659
O187	O	0.130444	-0.641963	1.055630
O188	O	0.630444	-0.141963	1.555630
Cu189	Cu	0.078454	-0.564610	1.047074
Cu190	Cu	0.578454	-0.064610	1.547074
Cu191	Cu	0.041470	-0.601632	1.158084
Cu192	Cu	0.541470	-0.101632	1.658084
O193	O	0.130189	-0.547494	1.055664
O194	O	0.630189	-0.047494	1.555664
N195	N	0.015455	-0.627672	1.236163
N196	N	0.515455	-0.127672	1.736163
C197	C	0.035988	-0.489761	0.454182
C198	C	0.535988	0.010239	0.954182
C199	C	0.152897	-0.606574	0.454082
C200	C	0.652897	-0.106574	0.954082
C201	C	0.083257	-0.676417	0.593694
C202	C	0.583257	-0.176417	1.093694
C203	C	-0.033653	-0.559604	0.593794
C204	C	0.466347	-0.059604	1.093794
C205	C	0.638623	-0.652892	0.616806
C206	C	1.138623	-0.152892	1.116806
C207	C	0.638531	-0.652583	0.499833
C208	C	1.138531	-0.152583	0.999833
C209	C	0.638384	-0.512957	0.430345
C210	C	1.138384	-0.012957	0.930345
C211	C	0.638480	-0.513267	0.547317
C212	C	1.138480	-0.013267	1.047317
C213	C	0.152789	-0.004135	0.453875
C214	C	0.652789	0.495865	0.953875
C215	C	0.035820	-0.004282	0.454266
C216	C	0.535820	0.495718	0.954266
C217	C	-0.033639	-0.004275	0.593849
C218	C	0.466361	0.495725	1.093849
C219	C	0.083370	-0.004245	0.593498
C220	C	0.583370	0.495755	1.093498
C221	C	-0.009989	-0.489856	1.102597
C222	C	0.490011	0.010144	1.602597
C223	C	-0.009667	-0.606839	1.102536
C224	C	0.490333	-0.106839	1.602536
C225	C	0.129914	-0.676386	1.102561
C226	C	0.629914	-0.176386	1.602561
C227	C	0.129599	-0.559396	1.102601
C228	C	0.629599	-0.059396	1.602601
H229	H	0.093440	-0.418108	0.739036
H230	H	0.593440	0.081892	1.239036
N231	N	-0.090340	-0.548436	0.639359
N232	N	0.409660	-0.048436	1.139359
H233	H	-0.090463	-0.583163	0.674240
H234	H	0.409537	-0.083163	1.174240
H235	H	-0.120847	-0.538927	0.625554
H236	H	0.379153	-0.038927	1.125554
N237	N	0.638312	-0.467329	0.373688
N238	N	1.138312	0.032671	0.873688
H239	H	0.638290	-0.432475	0.373612
H240	H	1.138290	0.067525	0.873612
H241	H	0.603501	-0.457942	0.366404
H242	H	1.103501	0.042058	0.866404
N243	N	0.209582	-0.617735	0.408513
N244	N	0.709582	-0.117735	0.908513
H245	H	0.216899	-0.650447	0.399109
H246	H	0.716899	-0.150447	0.899109
H247	H	0.240087	-0.627204	0.422299
H248	H	0.740087	-0.127204	0.922299
N249	N	0.243050	-0.550355	0.853921
N250	N	0.743050	-0.050355	1.353921
H251	H	0.237056	-0.588023	0.878433
H252	H	0.737056	-0.088023	1.378433
H253	H	0.237024	-0.531148	0.878402
H254	H	0.737024	-0.031148	1.378402
H255	H	0.091761	-0.719242	0.628046
H256	H	0.591761	-0.219242	1.128046
N257	N	0.283894	-0.509396	0.731123
N258	N	0.783894	-0.009396	1.231123
H259	H	0.294196	-0.473881	0.706611
H260	H	0.794196	0.026119	1.206611
H261	H	0.294166	-0.530722	0.706638
H262	H	0.794166	-0.030722	1.206638
N263	N	0.042438	-0.450092	0.854037
N264	N	0.542438	0.049908	1.354037
H265	H	0.035816	-0.467730	0.895947
H266	H	0.535816	0.032270	1.395947
H267	H	0.024801	-0.464525	0.843719
H268	H	0.524801	0.035475	1.343719
N269	N	-0.055081	-0.618134	1.102459
N270	N	0.444919	-0.118134	1.602459
H271	H	-0.090013	-0.583452	1.102450
H272	H	0.409987	-0.083452	1.602450
H273	H	-0.064398	-0.650885	1.137237
H274	H	0.435602	-0.150885	1.637237
H275	H	0.638671	-0.687334	0.659583
H276	H	1.138671	-0.187334	1.159583
N277	N	0.209283	-0.003643	0.408087
N278	N	0.709283	0.496357	0.908087
H279	H	0.209305	-0.003527	0.373209
H280	H	0.709305	0.496473	0.873209
H281	H	0.240036	-0.038315	0.421612
H282	H	0.740036	0.461685	0.921612
H283	H	0.091941	-0.004235	0.627787
H284	H	0.591941	0.495765	1.127787
N285	N	0.175529	-0.733067	1.102564
N286	N	0.675529	-0.233067	1.602564
H287	H	0.161061	-0.758298	1.102556
H288	H	0.661061	-0.258298	1.602556
H289	H	0.186424	-0.750987	1.137370
H290	H	0.686424	-0.250987	1.637370
N291	N	0.638556	-0.698036	0.488505
N292	N	1.138556	-0.198036	0.988505
H293	H	0.638516	-0.683392	0.448783
H294	H	1.138516	-0.183392	0.948783
H295	H	0.603787	-0.708993	0.516229
H296	H	1.103787	-0.208993	1.016229
N297	N	0.175036	-0.548082	1.102613
N298	N	0.675036	-0.048082	1.602613
H299	H	0.160394	-0.508351	1.102624
H300	H	0.660394	-0.008351	1.602624
H301	H	0.209153	-0.552584	1.067813
H302	H	0.709153	-0.052584	1.567813
N303	N	0.638468	-0.467819	0.558641
N304	N	1.138468	0.032181	1.058641
H305	H	0.638510	-0.482464	0.598362
H306	H	1.138510	0.017536	1.098362
H307	H	0.603644	-0.433710	0.554171
H308	H	1.103644	0.066290	1.054171
H309	H	-0.044426	-0.447066	1.102605
H310	H	0.455574	0.052934	1.602605
N311	N	-0.090292	-0.004291	0.639482
N312	N	0.409708	0.495709	1.139482
H313	H	-0.108266	0.030506	0.650404
H314	H	0.391734	0.530506	1.150404
H315	H	-0.084983	-0.039114	0.673557
H316	H	0.415017	0.460886	1.173557
N317	N	0.024472	-0.004298	0.408844
N318	N	0.524472	0.495702	0.908844
H319	H	0.059132	-0.004295	0.373903
H320	H	0.559132	0.495705	0.873903
H321	H	-0.008287	0.030497	0.399546
H322	H	0.491713	0.530497	0.899546
H323	H	0.093408	-0.418110	0.688821
H324	H	0.593408	0.081890	1.188821
H325	H	0.057658	-0.453826	0.653091
H326	H	0.557658	0.046174	1.153091
N327	N	0.133445	-0.375706	0.747916
N328	N	0.633445	0.124294	1.247916
H329	H	0.168968	-0.400218	0.758219
H330	H	0.668968	0.099782	1.258219
H331	H	0.112123	-0.400195	0.758203
H332	H	0.612123	0.099805	1.258203
H333	H	0.232695	-0.541333	0.565509
H334	H	0.732695	-0.041333	1.065509
H335	H	0.268446	-0.505593	0.601208
H336	H	0.768446	-0.005593	1.101208
H337	H	0.382132	-0.584293	0.642268
H338	H	0.882132	-0.084293	1.142268
N339	N	0.267137	-0.558601	0.685476
N340	N	0.767137	-0.058601	1.185476
H341	H	0.294826	-0.598107	0.687783
H342	H	0.794826	-0.098107	1.187783
H343	H	0.242601	-0.548059	0.664081
H344	H	0.742601	-0.048059	1.164081
N345	N	0.024726	-0.433037	0.408675
N346	N	0.524726	0.066963	0.908675
H347	H	0.059416	-0.432849	0.373764
H348	H	0.559416	0.067151	0.873764
H349	H	0.015204	-0.402550	0.422513
H350	H	0.515204	0.097450	0.922513
H351	H	0.382082	-0.410845	0.576135
H352	H	0.882082	0.089155	1.076135
N353	N	0.267087	-0.359893	0.609719
N354	N	0.767087	0.140107	1.109719
H355	H	0.225177	-0.353176	0.626478
H356	H	0.725177	0.146824	1.126478
H357	H	0.277380	-0.337990	0.567945
H358	H	0.777380	0.162010	1.067945
H359	H	0.224626	-0.367851	0.557490
H360	H	0.724626	0.132149	1.057490
H361	H	0.101438	-0.260698	0.696864
H362	H	0.601438	0.239302	1.196864
N363	N	0.192608	-0.252839	0.506438
N364	N	0.692608	0.247161	1.006438
H365	H	0.217110	-0.280513	0.485091
H366	H	0.717110	0.219487	0.985091
H367	H	0.213893	-0.228319	0.496160
H368	H	0.713893	0.271681	0.996160
H369	H	-0.029822	-0.541673	0.240758
H370	H	0.470178	-0.041673	0.740758
H371	H	-0.065723	-0.577332	0.347941
H372	H	0.434277	-0.077332	0.847941
H373	H	-0.223425	-0.672650	0.564976
H374	H	0.276575	-0.172650	1.064976
H375	H	0.057627	-0.716785	0.240872
H376	H	0.557627	-0.216785	0.740872
H377	H	0.021738	-0.752445	0.348058
H378	H	0.521738	-0.252445	0.848058
H379	H	-0.030145	-0.541661	0.434082
H380	H	0.469855	-0.041661	0.934082
N381	N	0.066100	-0.726914	0.530801
N382	N	0.566100	-0.226914	1.030801
H383	H	0.072127	-0.766694	0.536854
H384	H	0.572127	-0.266694	1.036854
H385	H	0.046844	-0.720814	0.568429
H386	H	0.546844	-0.220814	1.068429
N387	N	-0.074753	-0.567179	0.389204
N388	N	0.425247	-0.067179	0.889204
H389	H	-0.080787	-0.527398	0.383156
H390	H	0.419213	-0.027398	0.883156
H391	H	-0.112401	-0.573199	0.408319
H392	H	0.387599	-0.073199	0.908319
H393	H	0.064563	-0.758931	0.409098
H394	H	0.564563	-0.258931	0.909098
N395	N	0.025253	-0.767783	0.489690
N396	N	0.525253	-0.267783	0.989690
H397	H	0.010748	-0.785428	0.532071
H398	H	0.510748	-0.285428	1.032071
H399	H	0.067638	-0.785448	0.475287
H400	H	0.567638	-0.285448	0.975287
H401	H	-0.073247	-0.865920	0.510699
H402	H	0.426753	-0.365920	1.010699
N403	N	0.115432	-0.873954	0.442699
N404	N	0.615432	-0.373954	0.942699
H405	H	0.136511	-0.846309	0.421966
H406	H	0.636511	-0.346309	0.921966
H407	H	0.130163	-0.898480	0.419699
H408	H	0.630163	-0.398480	0.919699
H409	H	-0.108889	-0.758731	0.474933
H410	H	0.391111	-0.258731	0.974933
H411	H	-0.116238	-0.708516	0.529438
H412	H	0.383762	-0.208516	1.029438
H413	H	-0.223112	-0.585171	0.389803
H414	H	0.276888	-0.085171	0.889803
N415	N	-0.108086	-0.617259	0.338919
N416	N	0.391914	-0.117259	0.838919
H417	H	-0.135710	-0.592724	0.317513
H418	H	0.364290	-0.092724	0.817513
H419	H	-0.083572	-0.652810	0.328670
H420	H	0.416428	-0.152810	0.828670
