data_functionalizedCrystal
_audit_creation_method	'MofGen! by Chris Wilmer'
_symmetry_space_group_name_H-M	'P1'
_symmetry_Int_Tables_number	1
_symmetry_cell_setting	triclinic
loop_
_symmetry_equiv_pos_as_xyz
  x,y,z
_cell_length_a	12.759401
_cell_length_b	13.032721
_cell_length_c	12.759393
_cell_angle_alpha	97.149226
_cell_angle_beta	89.979062
_cell_angle_gamma	97.205831
loop_
_atom_site_label
_atom_site_type_symbol
_atom_site_fract_x
_atom_site_fract_y
_atom_site_fract_z
Zn1	Zn	1.553113	-0.415945	-0.647098
Zn2	Zn	1.530669	-0.590725	-0.493722
Zn3	Zn	1.377404	-0.416001	-0.471441
Zn4	Zn	1.355078	-0.590652	-0.669350
O5	O	1.454066	-0.503331	-0.570403
O6	O	1.697156	-0.439137	-0.626765
O7	O	1.510289	-0.567601	-0.343752
O8	O	1.419449	-0.269756	-0.476105
O9	O	1.680666	-0.567547	-0.514080
O10	O	1.548541	-0.269715	-0.605160
O11	O	1.397686	-0.439232	-0.327382
O12	O	1.227423	-0.439161	-0.497681
O13	O	1.381397	-0.567423	-0.813412
O14	O	1.211019	-0.567477	-0.643084
O15	O	1.526892	-0.439067	-0.797064
O16	O	1.488640	-0.736953	-0.535656
O17	O	1.359634	-0.736899	-0.664689
C18	C	1.181100	-0.503318	-0.570380
C19	C	1.064321	-0.503338	-0.570399
C20	C	1.000932	-0.570253	-0.646017
C21	C	0.891208	-0.570257	-0.646038
C22	C	0.908271	-0.436427	-0.494813
C23	C	1.017994	-0.436419	-0.494797
C24	C	0.736520	-0.607755	-0.774684
C25	C	0.673126	-0.674687	-0.850295
C26	C	0.695691	-0.776671	-0.879257
C27	C	0.781646	-0.811745	-0.832595
C28	C	0.845034	-0.744819	-0.756977
C29	C	0.822472	-0.642819	-0.728033
C30	C	1.172682	-0.398932	-0.366152
C31	C	1.236072	-0.332010	-0.290528
C32	C	1.213509	-0.230024	-0.261555
C33	C	1.127550	-0.194954	-0.308199
C34	C	1.064160	-0.261875	-0.383823
C35	C	1.086731	-0.363861	-0.412798
C36	C	1.419307	-0.774844	-0.605028
C37	C	1.404533	-0.890999	-0.619876
C38	C	1.461832	-0.942776	-0.562700
C39	C	1.446564	-1.062828	-0.578045
C40	C	1.728097	-0.503344	-0.570426
C41	C	1.844873	-0.503350	-0.570436
C42	C	1.454157	-0.503230	-0.844423
C43	C	1.454196	-0.503188	-0.961194
C44	C	1.488989	-0.230757	-0.535665
C45	C	1.503872	-0.114602	-0.520862
C46	C	1.529962	-0.436342	-1.007544
C47	C	1.529986	-0.436297	-1.117263
C48	C	1.378473	-0.569952	-1.134273
C49	C	1.378446	-0.569991	-1.024556
C50	C	1.583354	-0.313001	-1.251507
C51	C	1.659135	-0.246164	-1.297862
C52	C	1.763696	-0.230139	-1.260226
C53	C	1.792494	-0.280966	-1.176238
C54	C	1.716717	-0.347811	-1.129890
C55	C	1.612145	-0.363816	-1.167522
C56	C	1.325089	-0.693289	-0.890309
C57	C	1.249316	-0.760139	-0.843960
C58	C	1.144752	-0.776175	-0.881596
C59	C	1.115955	-0.725366	-0.965589
C60	C	1.191728	-0.658516	-1.011938
C61	C	1.296291	-0.642479	-0.974295
C62	C	1.454045	-0.503355	-0.297438
C63	C	1.454247	-0.503104	-0.180630
H64	H	0.644067	-0.831167	-0.940823
F65	F	1.367669	-1.121048	-0.656887
F66	F	0.581652	-0.637354	-0.899957
H67	H	1.877641	-0.267921	-1.145608
F68	F	1.540735	-0.884552	-0.483875
F69	F	1.004667	-0.742434	-1.005649
F70	F	1.064115	-0.847343	-0.832277
H71	H	0.994174	-0.233310	-0.421809
H72	H	1.344178	-0.935548	-0.680190
H73	H	0.800003	-0.894796	-0.856175
H74	H	1.564240	-1.070058	-0.460551
F75	F	1.747361	-0.401904	-1.040512
F76	F	1.610580	-0.365241	-0.940114
H77	H	1.265125	-0.175540	-0.199968
H78	H	1.825397	-0.175719	-1.297975
F79	F	1.628482	-0.192073	-1.387245
F80	F	1.472065	-0.330038	-1.291559
H81	H	1.316802	-0.624344	-1.185875
F82	F	0.936507	-0.782141	-0.707315
F83	F	1.327548	-0.369343	-0.240873
F84	F	1.161077	-0.604439	-1.101332
H85	H	1.272774	-0.801520	-0.775576
H86	H	1.410231	-0.680230	-0.859652
H87	H	1.038649	-0.624740	-0.707579
H88	H	0.718147	-0.524707	-0.751118
H89	H	1.191068	-0.481975	-0.389746
H90	H	0.870537	-0.381946	-0.433260
H91	H	1.109166	-0.111914	-0.284592
