data_functionalizedCrystal
_audit_creation_method	'MofGen! by Chris Wilmer'
_symmetry_space_group_name_H-M	'P1'
_symmetry_Int_Tables_number	1
_symmetry_cell_setting	triclinic
loop_
_symmetry_equiv_pos_as_xyz
  x,y,z
_cell_length_a	21.395364
_cell_length_b	29.839131
_cell_length_c	21.395355
_cell_angle_alpha	89.972174
_cell_angle_beta	89.975273
_cell_angle_gamma	90.033561
loop_
_atom_site_label
_atom_site_type_symbol
_atom_site_fract_x
_atom_site_fract_y
_atom_site_fract_z
Zn1	Zn	0.957839	-0.178925	-0.354224
Zn2	Zn	1.291173	0.154408	-0.020890
Zn3	Zn	1.624506	0.487741	0.312443
Zn4	Zn	0.957734	-0.254041	-0.249429
Zn5	Zn	1.291067	0.079293	0.083904
Zn6	Zn	1.624400	0.412626	0.417237
Zn7	Zn	0.853054	-0.178923	-0.249460
Zn8	Zn	1.186388	0.154410	0.083873
Zn9	Zn	1.519721	0.487743	0.417206
Zn10	Zn	0.853015	-0.254027	-0.354169
Zn11	Zn	1.186349	0.079306	-0.020836
Zn12	Zn	1.519682	0.412640	0.312498
O13	O	0.905411	-0.216479	-0.301821
O14	O	1.238744	0.116854	0.031513
O15	O	1.572077	0.450188	0.364846
O16	O	1.045503	-0.188896	-0.340332
O17	O	1.378836	0.144437	-0.006999
O18	O	1.712170	0.477770	0.326334
O19	O	0.943820	-0.244081	-0.161755
O20	O	1.277153	0.089252	0.171578
O21	O	1.610486	0.422586	0.504911
O22	O	0.867015	-0.116056	-0.263393
O23	O	1.200348	0.217277	0.069940
O24	O	1.533682	0.550610	0.403274
O25	O	1.045425	-0.244083	-0.263340
O26	O	1.378759	0.089250	0.069993
O27	O	1.712092	0.422584	0.403326
O28	O	0.944000	-0.116058	-0.340362
O29	O	1.277333	0.217275	-0.007029
O30	O	1.610667	0.550609	0.326304
O31	O	0.866912	-0.188893	-0.161778
O32	O	1.200246	0.144441	0.171555
O33	O	1.533579	0.477774	0.504889
O34	O	0.765371	-0.188879	-0.263340
O35	O	1.098705	0.144454	0.069993
O36	O	1.432038	0.477787	0.403327
O37	O	0.866948	-0.244060	-0.441854
O38	O	1.200282	0.089274	-0.108521
O39	O	1.533615	0.422607	0.224812
O40	O	0.765343	-0.244058	-0.340269
O41	O	1.098676	0.089276	-0.006936
O42	O	1.432009	0.422609	0.326397
O43	O	0.943962	-0.188883	-0.441894
O44	O	1.277295	0.144450	-0.108561
O45	O	1.610629	0.477784	0.224772
O46	O	0.943782	-0.316906	-0.263287
O47	O	1.277115	0.016427	0.070046
O48	O	1.610448	0.349761	0.403379
O49	O	0.866846	-0.316896	-0.340239
O50	O	1.200179	0.016438	-0.006906
O51	O	1.533512	0.349771	0.326427
C52	C	0.742623	-0.216467	-0.301802
C53	C	1.075956	0.116866	0.031531
C54	C	1.409290	0.450200	0.364864
C55	C	0.672982	-0.216473	-0.301810
C56	C	1.006315	0.116861	0.031524
C57	C	1.339648	0.450194	0.364857
C58	C	0.171187	-0.245263	-0.341839
C59	C	0.504520	0.088070	-0.008506
C60	C	0.837854	0.421404	0.324828
C61	C	0.236622	-0.245263	-0.341832
C62	C	0.569956	0.088070	-0.008499
C63	C	0.903289	0.421404	0.324834
C64	C	0.269343	-0.216489	-0.301840
C65	C	0.602677	0.116844	0.031493
C66	C	0.936010	0.450178	0.364826
C67	C	0.236624	-0.187721	-0.261841
C68	C	0.569957	0.145613	0.071493
C69	C	0.903290	0.478946	0.404826
C70	C	0.171189	-0.187724	-0.261844
C71	C	0.504523	0.145609	0.071489
C72	C	0.837856	0.478942	0.404823
C73	C	0.373037	-0.176002	-0.296998
C74	C	0.706370	0.157331	0.036335
C75	C	1.039703	0.490665	0.369668
C76	C	0.438470	-0.175997	-0.296999
C77	C	0.771803	0.157336	0.036334
C78	C	1.105136	0.490669	0.369667
C79	C	0.471164	-0.216477	-0.301827
C80	C	0.804498	0.116856	0.031507
C81	C	1.137831	0.450190	0.364840
C82	C	0.438418	-0.256963	-0.306666
C83	C	0.771751	0.076371	0.026667
C84	C	1.105084	0.409704	0.360001
C85	C	0.372984	-0.256967	-0.306669
C86	C	0.706317	0.076367	0.026664
C87	C	1.039650	0.409700	0.359997
C88	C	0.340296	-0.216482	-0.301832
C89	C	0.673629	0.116852	0.031501
C90	C	1.006962	0.450185	0.364835
C91	C	0.574829	-0.245246	-0.341814
C92	C	0.908162	0.088087	-0.008480
C93	C	1.241495	0.421421	0.324853
C94	C	0.640265	-0.245247	-0.341803
C95	C	0.973599	0.088087	-0.008469
C96	C	1.306932	0.421420	0.324864
C97	C	0.640265	-0.187700	-0.261814
C98	C	0.973599	0.145633	0.071519
C99	C	1.306932	0.478967	0.404852
C100	C	0.574830	-0.187703	-0.261822
C101	C	0.908163	0.145630	0.071511
C102	C	1.241496	0.478963	0.404845
C103	C	0.542115	-0.216476	-0.301825
C104	C	0.875449	0.116858	0.031508
C105	C	1.208782	0.450191	0.364842
C106	C	0.905315	-0.333202	-0.301768
C107	C	1.238648	0.000132	0.031566
C108	C	1.571982	0.333465	0.364899
C109	C	0.905331	-0.383136	-0.301766
C110	C	1.238665	-0.049803	0.031567
C111	C	1.571998	0.283531	0.364901
C112	C	0.945488	-0.692745	-0.341956
C113	C	1.278821	-0.359412	-0.008622
C114	C	1.612155	-0.026079	0.324711
C115	C	0.945556	-0.880418	-0.341993
C116	C	1.278889	-0.547085	-0.008660
C117	C	1.612223	-0.213752	0.324673
O118	O	0.979605	-0.904654	-0.376125
O119	O	1.312938	-0.571321	-0.042791
O120	O	1.646272	-0.237988	0.290542
N121	N	0.905517	-0.903921	-0.301890
N122	N	1.238850	-0.570588	0.031443
N123	N	1.572184	-0.237254	0.364777
C124	C	0.865455	-0.880503	-0.261778
C125	C	1.198789	-0.547169	0.071556
C126	C	1.532122	-0.213836	0.404889
O127	O	0.831397	-0.904799	-0.227673
O128	O	1.164730	-0.571466	0.105661
O129	O	1.498063	-0.238133	0.438994
C130	C	0.865385	-0.692830	-0.261744
C131	C	1.198718	-0.359497	0.071590
C132	C	1.532051	-0.026164	0.404923
C133	C	0.905431	-0.669330	-0.301845
C134	C	1.238764	-0.335997	0.031488
C135	C	1.572097	-0.002664	0.364822
C136	C	0.985530	-0.669245	-0.382054
C137	C	1.318864	-0.335912	-0.048721
C138	C	1.652197	-0.002578	0.284613
C139	C	0.985515	-0.622330	-0.382042
C140	C	1.318849	-0.288996	-0.048709
C141	C	1.652182	0.044337	0.284625
C142	C	0.945458	-0.598914	-0.341931
C143	C	1.278791	-0.265581	-0.008598
C144	C	1.612125	0.067752	0.324735
C145	C	0.905416	-0.622415	-0.301833
C146	C	1.238749	-0.289081	0.031501
C147	C	1.572082	0.044252	0.364834
C148	C	0.825320	-0.669413	-0.221635
C149	C	1.158653	-0.336080	0.111699
C150	C	1.491987	-0.002746	0.445032
C151	C	0.825305	-0.622492	-0.221631
C152	C	1.158638	-0.289159	0.111703
C153	C	1.491972	0.044175	0.445036
C154	C	0.865351	-0.598992	-0.261732
C155	C	1.198684	-0.265658	0.071601
C156	C	1.532018	0.067675	0.404935
C157	C	0.865343	-0.552084	-0.261710
C158	C	1.198677	-0.218751	0.071624
C159	C	1.532010	0.114583	0.404957
N160	N	0.905382	-0.528581	-0.301813
N161	N	1.238716	-0.195248	0.031521
N162	N	1.572049	0.138085	0.364854
C163	C	0.945440	-0.551997	-0.341924
C164	C	1.278773	-0.218663	-0.008590
C165	C	1.612106	0.114670	0.324743
C166	C	0.865496	-0.979033	-0.261797
C167	C	1.198829	-0.645700	0.071536
C168	C	1.532163	-0.312367	0.404869
C169	C	0.865514	-1.025951	-0.261805
C170	C	1.198848	-0.692618	0.071528
C171	C	1.532181	-0.359284	0.404862
C172	C	0.945615	-1.025864	-0.342022
C173	C	1.278948	-0.692530	-0.008688
C174	C	1.612281	-0.359197	0.324645
C175	C	0.945599	-0.978945	-0.342010
C176	C	1.278932	-0.645612	-0.008677
C177	C	1.612266	-0.312278	0.324656
C178	C	0.905535	-0.955531	-0.301901
C179	C	1.238868	-0.622197	0.031433
C180	C	1.572202	-0.288864	0.364766
C181	C	0.945406	-0.453471	-0.341895
C182	C	1.278739	-0.120137	-0.008561
C183	C	1.612072	0.213196	0.324772
C184	C	0.945389	-0.406551	-0.341877
C185	C	1.278722	-0.073218	-0.008544
C186	C	1.612055	0.260116	0.324790
C187	C	0.865287	-0.406643	-0.261663
C188	C	1.198620	-0.073309	0.071671
C189	C	1.531953	0.260024	0.405004
C190	C	0.865305	-0.453558	-0.261678
C191	C	1.198639	-0.120225	0.071656
C192	C	1.531972	0.213108	0.404989
C193	C	0.905367	-0.476971	-0.301799
C194	C	1.238700	-0.143638	0.031535
C195	C	1.572034	0.189696	0.364868
O196	O	0.831307	-0.527819	-0.227601
O197	O	1.164641	-0.194486	0.105732
O198	O	1.497974	0.138847	0.439066
O199	O	0.979483	-0.527692	-0.376033
O200	O	1.312817	-0.194358	-0.042700
O201	O	1.646150	0.138975	0.290634
C202	C	0.945503	-0.739661	-0.341968
C203	C	1.278836	-0.406327	-0.008635
C204	C	1.612170	-0.072994	0.324699
C205	C	0.905461	-0.763161	-0.301869
C206	C	1.238794	-0.429828	0.031464
C207	C	1.572127	-0.096494	0.364797
C208	C	0.865403	-0.739746	-0.261759
C209	C	1.198737	-0.406413	0.071575
C210	C	1.532070	-0.073079	0.404908
C211	C	0.905479	-0.810079	-0.301877
C212	C	1.238812	-0.476746	0.031456
C213	C	1.572146	-0.143412	0.364790
C214	C	0.945536	-0.833494	-0.341988
C215	C	1.278870	-0.500161	-0.008654
C216	C	1.612203	-0.166827	0.324679
C217	C	0.985575	-0.809991	-0.382091
C218	C	1.318909	-0.476658	-0.048757
C219	C	1.652242	-0.143325	0.284576
C220	C	0.985560	-0.763076	-0.382079
C221	C	1.318894	-0.429743	-0.048745
C222	C	1.652227	-0.096409	0.284588
C223	C	0.825364	-0.763249	-0.221655
C224	C	1.158698	-0.429915	0.111678
C225	C	1.492031	-0.096582	0.445011
C226	C	0.825383	-0.810164	-0.221670
C227	C	1.158716	-0.476831	0.111663
C228	C	1.492050	-0.143497	0.444996
C229	C	0.865440	-0.833579	-0.261781
C230	C	1.198774	-0.500246	0.071552
C231	C	1.532107	-0.166913	0.404886
C232	C	1.068834	-0.216491	-0.301839
C233	C	1.402167	0.116842	0.031494
C234	C	1.735501	0.450175	0.364828
C235	C	1.138475	-0.216497	-0.301847
C236	C	1.471808	0.116837	0.031486
C237	C	1.805142	0.450170	0.364820
C238	C	0.905463	-0.216470	-0.465244
C239	C	1.238796	0.116863	-0.131911
C240	C	1.572129	0.450197	0.201423
C241	C	0.905485	-0.216466	-0.534885
C242	C	1.238818	0.116867	-0.201552
C243	C	1.572151	0.450201	0.131781
C244	C	0.905524	-0.099301	-0.301887
C245	C	1.238857	0.234033	0.031446
C246	C	1.572190	0.567366	0.364779
C247	C	0.905572	-0.049366	-0.301916
C248	C	1.238905	0.283967	0.031418
C249	C	1.572238	0.617300	0.364751
C250	C	0.945584	-0.187734	-0.567620
C251	C	1.278917	0.145599	-0.234287
C252	C	1.612251	0.478932	0.099046
C253	C	0.945583	-0.187715	-0.633056
C254	C	1.278917	0.145618	-0.299722
C255	C	1.612250	0.478952	0.033611
C256	C	0.905490	-0.216435	-0.665754
C257	C	1.238823	0.116898	-0.332420
C258	C	1.572156	0.450231	0.000913
C259	C	0.865383	-0.245169	-0.633011
C260	C	1.198716	0.088164	-0.299677
C261	C	1.532049	0.421497	0.033656
C262	C	0.865380	-0.245185	-0.567576
C263	C	1.198713	0.088149	-0.234243
C264	C	1.532047	0.421482	0.099090
C265	C	0.900509	-0.256886	-0.769410
C266	C	1.233843	0.076447	-0.436077
C267	C	1.567176	0.409780	-0.102743
C268	C	0.900516	-0.256872	-0.834843
C269	C	1.233849	0.076461	-0.501510
C270	C	1.567183	0.409795	-0.168176
C271	C	0.905494	-0.216388	-0.867574
C272	C	1.238827	0.116945	-0.534241
C273	C	1.572160	0.450279	-0.200908
C274	C	0.910477	-0.175917	-0.834865
C275	C	1.243811	0.157416	-0.501532
C276	C	1.577144	0.490749	-0.168198
C277	C	0.910475	-0.175933	-0.769431
C278	C	1.243808	0.157401	-0.436097
C279	C	1.577142	0.490734	-0.102764
C280	C	0.905488	-0.216422	-0.736706
C281	C	1.238821	0.116911	-0.403373
C282	C	1.572154	0.450245	-0.070039
C283	C	0.945594	-0.187633	-0.971262
C284	C	1.278927	0.145700	-0.637929
C285	C	1.612261	0.479034	-0.304595
C286	C	0.945589	-0.187613	-1.036699
C287	C	1.278922	0.145721	-0.703365
C288	C	1.612256	0.479054	-0.370032
C289	C	0.865391	-0.245071	-1.036652
C290	C	1.198725	0.088262	-0.703319
C291	C	1.532058	0.421596	-0.369986
C292	C	0.865393	-0.245087	-0.971217
C293	C	1.198727	0.088246	-0.637884
C294	C	1.532060	0.421580	-0.304550
C295	C	0.905498	-0.216369	-0.938526
C296	C	1.238831	0.116965	-0.605192
C297	C	1.572165	0.450298	-0.271859
C298	C	0.905395	-0.216456	-0.139033
C299	C	1.238728	0.116878	0.194300
C300	C	1.572062	0.450211	0.527634
C301	C	0.905494	-0.216333	-0.069392
C302	C	1.238827	0.117000	0.263941
C303	C	1.572161	0.450334	0.597275
H304	H	0.144555	-0.268693	-0.374410
H305	H	0.477888	0.064640	-0.041077
H306	H	0.811222	0.397973	0.292256
C307	C	0.821429	-0.953283	-0.217667
C308	C	1.154762	-0.619950	0.115666
C309	C	1.488096	-0.286616	0.448999
H310	H	0.797595	-0.974004	-0.193783
H311	H	1.130928	-0.640671	0.139550
H312	H	1.464261	-0.307337	0.472883
H313	H	0.794106	-0.934986	-0.241598
H314	H	1.127439	-0.601652	0.091735
H315	H	1.460772	-0.268319	0.425068
H316	H	0.845408	-0.934980	-0.190383
H317	H	1.178741	-0.601647	0.142950
H318	H	1.512075	-0.268313	0.476283
C319	C	0.989690	-0.156142	-0.531660
C320	C	1.323023	0.177192	-0.198327
C321	C	1.656356	0.510525	0.135006
H322	H	0.983949	-0.160266	-0.488001
H323	H	1.317282	0.173067	-0.154668
H324	H	1.650616	0.506400	0.178666
H325	H	0.980550	-0.125954	-0.542390
H326	H	1.313883	0.207379	-0.209056
H327	H	1.647217	0.540713	0.124277
H328	H	1.031784	-0.162720	-0.542398
H329	H	1.365117	0.170613	-0.209065
H330	H	1.698451	0.503947	0.124269
H331	H	0.978236	-0.164316	-0.659714
H332	H	1.311569	0.169018	-0.326380
H333	H	1.644902	0.502351	0.006953
C334	C	0.272613	-0.276904	-0.385829
C335	C	0.605947	0.056429	-0.052496
C336	C	0.939280	0.389762	0.280838
H337	H	0.243758	-0.294038	-0.409656
H338	H	0.577091	0.039295	-0.076323
H339	H	0.910425	0.372629	0.257011
H340	H	0.298117	-0.296453	-0.361813
H341	H	0.631450	0.036880	-0.028480
H342	H	0.964784	0.370213	0.304854
H343	H	0.298161	-0.259738	-0.413172
H344	H	0.631494	0.073596	-0.079839
H345	H	0.964828	0.406929	0.253495
C346	C	0.821258	-0.479410	-0.217567
C347	C	1.154591	-0.146076	0.115767
C348	C	1.487924	0.187257	0.449100
H349	H	0.797397	-0.458743	-0.193679
H350	H	1.130730	-0.125410	0.139654
H351	H	1.464064	0.207924	0.472988
H352	H	0.845238	-0.497715	-0.190294
H353	H	1.178572	-0.164382	0.143039
H354	H	1.511905	0.168952	0.476373
H355	H	0.793948	-0.497712	-0.241522
H356	H	1.127281	-0.164379	0.091812
H357	H	1.460615	0.168954	0.425145
C358	C	0.989478	-0.479218	-0.386021
C359	C	1.322811	-0.145885	-0.052687
C360	C	1.656144	0.187448	0.280646
H361	H	1.013325	-0.458497	-0.409892
H362	H	1.346658	-0.125164	-0.076559
H363	H	1.679991	0.208169	0.256774
H364	H	0.965511	-0.497524	-0.413308
H365	H	1.298845	-0.164191	-0.079974
H366	H	1.632178	0.169143	0.253359
H367	H	1.016799	-0.497513	-0.362077
H368	H	1.350132	-0.164180	-0.028744
H369	H	1.683465	0.169153	0.304590
C370	C	0.821469	-1.051798	-0.217691
C371	C	1.154802	-0.718465	0.115642
C372	C	1.488135	-0.385132	0.448975
H373	H	0.827215	-1.083095	-0.223434
H374	H	1.160548	-0.749762	0.109899
H375	H	1.493882	-0.416429	0.443233
H376	H	0.779365	-1.044128	-0.226823
H377	H	1.112699	-0.710795	0.106511
H378	H	1.446032	-0.377462	0.439844
H379	H	0.830659	-1.044121	-0.175599
H380	H	1.163992	-0.710788	0.157735
H381	H	1.497326	-0.377454	0.491068
H382	H	0.548195	-0.164277	-0.229258
H383	H	0.881529	0.169056	0.104075
H384	H	1.214862	0.502390	0.437408
C385	C	0.989700	-0.156042	-0.935296
C386	C	1.323034	0.177291	-0.601963
C387	C	1.656367	0.510625	-0.268630
H388	H	0.983963	-0.160171	-0.891637
H389	H	1.317296	0.173163	-0.558304
H390	H	1.650629	0.506496	-0.224970
H391	H	0.980561	-0.125854	-0.946020
H392	H	1.313894	0.207480	-0.612687
H393	H	1.647227	0.540813	-0.279353
H394	H	1.031794	-0.162620	-0.946038
H395	H	1.365127	0.170713	-0.612704
H396	H	1.698461	0.504046	-0.279371
H397	H	0.792710	-0.688539	-0.188980
H398	H	1.126044	-0.355205	0.144354
H399	H	1.459377	-0.021872	0.477687
C400	C	0.135205	-0.156077	-0.217856
C401	C	0.468538	0.177257	0.115478
C402	C	0.801872	0.510590	0.448811
H403	H	0.164061	-0.138938	-0.194038
H404	H	0.497395	0.194396	0.139295
H405	H	0.830728	0.527729	0.472629
H406	H	0.109650	-0.173234	-0.190513
H407	H	0.442983	0.160099	0.142820
H408	H	0.776317	0.493433	0.476153
H409	H	0.109708	-0.136526	-0.241884
H410	H	0.443042	0.196807	0.091450
H411	H	0.776375	0.530140	0.424783
H412	H	0.832674	-0.387571	-0.229003
H413	H	1.166008	-0.054238	0.104330
H414	H	1.499341	0.279096	0.437664
C415	C	1.029564	-0.596485	-0.426156
C416	C	1.362898	-0.263152	-0.092823
C417	C	1.696231	0.070182	0.240511
H418	H	1.053416	-0.617155	-0.450046
H419	H	1.386750	-0.283822	-0.116713
H420	H	1.720083	0.049511	0.216621
H421	H	1.056872	-0.578177	-0.402214
H422	H	1.390205	-0.244843	-0.068880
H423	H	1.723539	0.088490	0.264453
H424	H	1.005576	-0.578186	-0.453435
H425	H	1.338909	-0.244852	-0.120102
H426	H	1.672243	0.088481	0.213231
C427	C	0.821288	-0.276696	-0.935207
C428	C	1.154622	0.056638	-0.601873
C429	C	1.487955	0.389971	-0.268540
H430	H	0.797412	-0.293801	-0.964050
H431	H	1.130745	0.039533	-0.630717
H432	H	1.464079	0.372866	-0.297384
H433	H	0.794005	-0.259514	-0.909673
H434	H	1.127338	0.073819	-0.576340
H435	H	1.460672	0.407152	-0.243007
H436	H	0.845240	-0.296280	-0.909687
H437	H	1.178573	0.037053	-0.576354
H438	H	1.511906	0.370387	-0.243020
C439	C	0.915949	-0.131420	-0.733449
C440	C	1.249282	0.201913	-0.400116
C441	C	1.582616	0.535247	-0.066783
H442	H	0.915238	-0.137230	-0.689793
H443	H	1.248571	0.196104	-0.356459
H444	H	1.581905	0.529437	-0.023126
H445	H	0.881884	-0.112518	-0.744163
H446	H	1.215217	0.220816	-0.410830
H447	H	1.548551	0.554149	-0.077496
H448	H	0.954110	-0.117055	-0.744188
H449	H	1.287444	0.216279	-0.410855
H450	H	1.620777	0.549612	-0.077522
H451	H	0.465127	-0.143031	-0.293066
H452	H	0.798460	0.190302	0.040267
H453	H	1.131794	0.523635	0.373600
C454	C	0.474370	-0.301494	-0.311975
C455	C	0.807703	0.031839	0.021358
C456	C	1.141036	0.365173	0.354692
H457	H	0.445496	-0.325604	-0.314861
H458	H	0.778829	0.007729	0.018472
H459	H	1.112163	0.341063	0.351805
H460	H	0.499874	-0.305406	-0.276054
H461	H	0.833207	0.027928	0.057279
H462	H	1.166540	0.361261	0.390612
H463	H	0.499914	-0.300946	-0.348297
H464	H	0.833248	0.032387	-0.014964
H465	H	1.166581	0.365721	0.318370
C466	C	0.538837	-0.276896	-0.385808
C467	C	0.872171	0.056437	-0.052474
C468	C	1.205504	0.389771	0.280859
H469	H	0.495182	-0.272774	-0.380088
H470	H	0.828515	0.060559	-0.046755
H471	H	1.161848	0.393893	0.286578
H472	H	0.549533	-0.307071	-0.376557
H473	H	0.882866	0.026262	-0.043224
H474	H	1.216199	0.359596	0.290110
H475	H	0.549588	-0.270361	-0.427924
H476	H	0.882922	0.062972	-0.094591
H477	H	1.216255	0.396305	0.238743
C478	C	0.676249	-0.276891	-0.385797
C479	C	1.009582	0.056442	-0.052463
C480	C	1.342915	0.389776	0.280870
H481	H	0.647391	-0.294023	-0.409624
H482	H	0.980724	0.039311	-0.076290
H483	H	1.314058	0.372644	0.257043
H484	H	0.701748	-0.296442	-0.361779
H485	H	1.035082	0.036892	-0.028446
H486	H	1.368415	0.370225	0.304888
H487	H	0.701800	-0.259727	-0.413140
H488	H	1.035133	0.073606	-0.079806
H489	H	1.368467	0.406940	0.253527
H490	H	1.018150	-0.688305	-0.414721
H491	H	1.351483	-0.354971	-0.081388
H492	H	1.684816	-0.021638	0.251946
H493	H	0.346324	-0.289931	-0.310608
H494	H	0.679657	0.043402	0.022725
H495	H	1.012991	0.376735	0.356059
H496	H	0.832723	-0.268581	-0.540924
H497	H	1.166057	0.064753	-0.207591
H498	H	1.499390	0.398086	0.125743
H499	H	0.666906	-0.164273	-0.229250
H500	H	1.000239	0.169060	0.104083
H501	H	1.333573	0.502394	0.437417
C502	C	0.781235	-0.596739	-0.177507
C503	C	1.114568	-0.263405	0.155826
C504	C	1.447902	0.069928	0.489159
H505	H	0.757394	-0.617457	-0.153626
H506	H	1.090727	-0.284124	0.179708
H507	H	1.424060	0.049209	0.513041
H508	H	0.753918	-0.578441	-0.201444
H509	H	1.087251	-0.245107	0.131889
H510	H	1.420584	0.088226	0.465222
H511	H	0.805211	-0.578436	-0.150220
H512	H	1.138545	-0.245103	0.183113
H513	H	1.471878	0.088231	0.516446
H514	H	0.896462	-0.289826	-0.861470
H515	H	1.229795	0.043508	-0.528137
H516	H	1.563128	0.376841	-0.194803
H517	H	0.263269	-0.164293	-0.229278
H518	H	0.596603	0.169040	0.104055
H519	H	0.929936	0.502374	0.437389
C520	C	0.989638	-0.953099	-0.386132
C521	C	1.322971	-0.619765	-0.052799
C522	C	1.656305	-0.286432	0.280534
H523	H	1.013491	-0.973768	-0.410024
H524	H	1.346824	-0.640434	-0.076691
H525	H	1.680157	-0.307101	0.256643
H526	H	1.016946	-0.934785	-0.362197
H527	H	1.350279	-0.601452	-0.028864
H528	H	1.683612	-0.268119	0.304469
H529	H	0.965640	-0.934804	-0.413410
H530	H	1.298974	-0.601471	-0.080076
H531	H	1.632307	-0.268137	0.253257
H532	H	0.346422	-0.143037	-0.293057
H533	H	0.679756	0.190297	0.040276
H534	H	1.013089	0.523630	0.373610
C535	C	0.989674	-1.051626	-0.386145
C536	C	1.323007	-0.718292	-0.052812
C537	C	1.656341	-0.384959	0.280521
H538	H	0.983942	-1.082933	-0.380406
H539	H	1.317276	-0.749600	-0.047073
H540	H	1.650609	-0.416267	0.286260
H541	H	1.031776	-1.043918	-0.377022
H542	H	1.365109	-0.710585	-0.043688
H543	H	1.698442	-0.377251	0.289645
H544	H	0.980471	-1.043926	-0.428235
H545	H	1.313804	-0.710592	-0.094902
H546	H	1.647138	-0.377259	0.238432
H547	H	0.896288	-0.289845	-0.742766
H548	H	1.229622	0.043488	-0.409432
H549	H	1.562955	0.376822	-0.076099
H550	H	0.978001	-0.387419	-0.374532
H551	H	1.311335	-0.054085	-0.041199
H552	H	1.644668	0.279248	0.292135
C553	C	1.029605	-0.737231	-0.426197
C554	C	1.362939	-0.403898	-0.092863
C555	C	1.696272	-0.070565	0.240470
H556	H	1.053456	-0.757902	-0.450088
H557	H	1.386790	-0.424568	-0.116754
H558	H	1.720123	-0.091235	0.216579
H559	H	1.056914	-0.718922	-0.402258
H560	H	1.390248	-0.385588	-0.068925
H561	H	1.723581	-0.052255	0.264409
H562	H	1.005613	-0.718933	-0.453475
H563	H	1.338947	-0.385600	-0.120141
H564	H	1.672280	-0.052267	0.213192
H565	H	0.914531	-0.142951	-0.861513
H566	H	1.247865	0.190382	-0.528180
H567	H	1.581198	0.523715	-0.194847
C568	C	1.029636	-0.835754	-0.426213
C569	C	1.362969	-0.502421	-0.092880
C570	C	1.696302	-0.169087	0.240454
H571	H	1.023902	-0.867061	-0.420475
H572	H	1.357235	-0.533728	-0.087142
H573	H	1.690568	-0.200395	0.246191
H574	H	1.071737	-0.828048	-0.417086
H575	H	1.405071	-0.494714	-0.083753
H576	H	1.738404	-0.161381	0.249581
H577	H	1.020437	-0.828053	-0.468303
H578	H	1.353770	-0.494719	-0.134970
H579	H	1.687103	-0.161386	0.198364
H580	H	0.792774	-0.829294	-0.189009
H581	H	1.126107	-0.495961	0.144324
H582	H	1.459440	-0.162627	0.477658
C583	C	0.781303	-0.737498	-0.177526
C584	C	1.114637	-0.404165	0.155807
C585	C	1.447970	-0.070832	0.489140
H586	H	0.757467	-0.758219	-0.153644
H587	H	1.090800	-0.424885	0.179690
H588	H	1.424133	-0.091552	0.513023
H589	H	0.753982	-0.719198	-0.201455
H590	H	1.087315	-0.385865	0.131878
H591	H	1.420648	-0.052531	0.465211
H592	H	0.805285	-0.719198	-0.150241
H593	H	1.138618	-0.385864	0.183093
H594	H	1.471951	-0.052531	0.516426
C595	C	0.989701	-0.156006	-1.072708
C596	C	1.323034	0.177327	-0.739374
C597	C	1.656368	0.510660	-0.406041
H598	H	1.013588	-0.138910	-1.043864
H599	H	1.346921	0.194424	-0.710530
H600	H	1.680254	0.527757	-0.377197
H601	H	0.965757	-0.136422	-1.098227
H602	H	1.299090	0.196912	-0.764894
H603	H	1.632423	0.530245	-0.431561
H604	H	1.016984	-0.173193	-1.098241
H605	H	1.350317	0.160141	-0.764907
H606	H	1.683650	0.493474	-0.431574
H607	H	0.832740	-0.268451	-1.063274
H608	H	1.166073	0.064882	-0.729941
H609	H	1.499407	0.398215	-0.396608
H610	H	0.832736	-0.268552	-0.659637
H611	H	1.166069	0.064781	-0.326304
H612	H	1.499403	0.398114	0.007029
