data_functionalizedCrystal
_audit_creation_method	'MofGen! by Chris Wilmer'
_symmetry_space_group_name_H-M	'P1'
_symmetry_Int_Tables_number	1
_symmetry_cell_setting	triclinic
loop_
_symmetry_equiv_pos_as_xyz
  x,y,z
_cell_length_a	18.215407
_cell_length_b	13.897448
_cell_length_c	18.215399
_cell_angle_alpha	89.973672
_cell_angle_beta	89.980167
_cell_angle_gamma	90.018140
loop_
_atom_site_label
_atom_site_type_symbol
_atom_site_fract_x
_atom_site_fract_y
_atom_site_fract_z
Zn1	Zn	1.125109	-0.384013	-0.416124
Zn2	Zn	1.458442	-0.050680	-0.082791
Zn3	Zn	1.791775	0.282653	0.250542
Zn4	Zn	1.125033	-0.545323	-0.293061
Zn5	Zn	1.458366	-0.211990	0.040272
Zn6	Zn	1.791699	0.121344	0.373605
Zn7	Zn	1.002041	-0.384045	-0.293072
Zn8	Zn	1.335375	-0.050711	0.040262
Zn9	Zn	1.668708	0.282622	0.373595
Zn10	Zn	1.002023	-0.545269	-0.416086
Zn11	Zn	1.335356	-0.211936	-0.082753
Zn12	Zn	1.668689	0.121397	0.250580
O13	O	1.063551	-0.464663	-0.354586
O14	O	1.396885	-0.131329	-0.021253
O15	O	1.730218	0.202004	0.312081
O16	O	1.228083	-0.405421	-0.399811
O17	O	1.561416	-0.072087	-0.066478
O18	O	1.894750	0.261246	0.266855
O19	O	1.108693	-0.523965	-0.190078
O20	O	1.442027	-0.190631	0.143255
O21	O	1.775360	0.142702	0.476588
O22	O	1.018406	-0.249059	-0.309415
O23	O	1.351739	0.084274	0.023918
O24	O	1.685073	0.417608	0.357252
O25	O	1.228027	-0.523934	-0.309398
O26	O	1.561360	-0.190601	0.023936
O27	O	1.894694	0.142733	0.357269
O28	O	1.108823	-0.249036	-0.399821
O29	O	1.442157	0.084298	-0.066488
O30	O	1.775490	0.417631	0.266846
O31	O	1.018332	-0.405474	-0.190086
O32	O	1.351666	-0.072141	0.143247
O33	O	1.684999	0.261192	0.476581
O34	O	0.899055	-0.405422	-0.309378
O35	O	1.232388	-0.072089	0.023955
O36	O	1.565721	0.261244	0.357289
O37	O	1.018374	-0.523843	-0.519076
O38	O	1.351708	-0.190509	-0.185742
O39	O	1.685041	0.142824	0.147591
O40	O	0.899041	-0.523873	-0.399757
O41	O	1.232374	-0.190540	-0.066423
O42	O	1.565708	0.142793	0.266910
O43	O	1.108805	-0.405369	-0.519103
O44	O	1.442138	-0.072035	-0.185770
O45	O	1.775472	0.261298	0.147563
O46	O	1.108675	-0.680297	-0.309361
O47	O	1.442009	-0.346964	0.023973
O48	O	1.775342	-0.013631	0.357306
O49	O	1.018300	-0.680258	-0.399747
O50	O	1.351634	-0.346925	-0.066413
O51	O	1.684967	-0.013591	0.266920
C52	C	0.872345	-0.464646	-0.354565
C53	C	1.205678	-0.131313	-0.021231
C54	C	1.539012	0.202021	0.312102
C55	C	0.790546	-0.464662	-0.354573
C56	C	1.123879	-0.131329	-0.021240
C57	C	1.457213	0.202004	0.312094
C58	C	0.602364	-0.526437	-0.401574
C59	C	0.935698	-0.193103	-0.068241
C60	C	1.269031	0.140230	0.265093
C61	C	0.525506	-0.526440	-0.401583
C62	C	0.858839	-0.193106	-0.068250
C63	C	1.192172	0.140227	0.265083
C64	C	0.525490	-0.402906	-0.307614
C65	C	0.858824	-0.069573	0.025720
C66	C	1.192157	0.263761	0.359053
C67	C	0.602348	-0.402899	-0.307609
C68	C	0.935681	-0.069566	0.025725
C69	C	1.269014	0.263768	0.359058
C70	C	0.640783	-0.464670	-0.354588
C71	C	0.974116	-0.131336	-0.021255
C72	C	1.307449	0.201997	0.312079
C73	C	0.487067	-0.464680	-0.354602
C74	C	0.820400	-0.131346	-0.021269
C75	C	1.153733	0.201987	0.312065
C76	C	0.403733	-0.464683	-0.354612
C77	C	0.737066	-0.131349	-0.021278
C78	C	1.070400	0.201984	0.312055
C79	C	0.724122	-0.464666	-0.354579
C80	C	1.057455	-0.131332	-0.021246
C81	C	1.390788	0.202001	0.312087
C82	C	1.063498	-0.715277	-0.354565
C83	C	1.396831	-0.381944	-0.021231
C84	C	1.730164	-0.048610	0.312102
C85	C	1.063542	-0.822491	-0.354580
C86	C	1.396875	-0.489157	-0.021247
C87	C	1.730209	-0.155824	0.312087
C88	C	1.063619	-1.018786	-0.354626
C89	C	1.396953	-0.685453	-0.021293
C90	C	1.730286	-0.352119	0.312040
C91	C	1.063574	-0.909553	-0.354603
C92	C	1.396908	-0.576220	-0.021269
C93	C	1.730241	-0.242887	0.312064
C94	C	1.255504	-0.464680	-0.354607
C95	C	1.588838	-0.131346	-0.021274
C96	C	1.922171	0.201987	0.312059
C97	C	1.337303	-0.464687	-0.354617
C98	C	1.670636	-0.131354	-0.021283
C99	C	2.003970	0.201979	0.312050
C100	C	1.063596	-0.464596	-0.546539
C101	C	1.396929	-0.131263	-0.213206
C102	C	1.730263	0.202071	0.120128
C103	C	1.063615	-0.464568	-0.628338
C104	C	1.396949	-0.131234	-0.295004
C105	C	1.730282	0.202099	0.038329
C106	C	1.063625	-0.213070	-0.354623
C107	C	1.396959	0.120264	-0.021290
C108	C	1.730292	0.453597	0.312043
C109	C	1.063657	-0.105856	-0.354639
C110	C	1.396990	0.227478	-0.021306
C111	C	1.730323	0.560811	0.312027
C112	C	1.110720	-0.402821	-0.816547
C113	C	1.444053	-0.069487	-0.483214
C114	C	1.777386	0.263846	-0.149881
C115	C	1.110728	-0.402792	-0.893406
C116	C	1.444062	-0.069459	-0.560073
C117	C	1.777395	0.263874	-0.226740
C118	C	1.016563	-0.526166	-0.893366
C119	C	1.349896	-0.192832	-0.560033
C120	C	1.683230	0.140501	-0.226699
C121	C	1.016551	-0.526188	-0.816509
C122	C	1.349884	-0.192855	-0.483175
C123	C	1.683218	0.140478	-0.149842
C124	C	1.063634	-0.464517	-0.778101
C125	C	1.396967	-0.131184	-0.444768
C126	C	1.730300	0.202150	-0.111435
C127	C	1.063654	-0.464466	-0.931818
C128	C	1.396988	-0.131133	-0.598484
C129	C	1.730321	0.202200	-0.265151
C130	C	1.063663	-0.464436	-1.015151
C131	C	1.396997	-0.131103	-0.681818
C132	C	1.730330	0.202230	-0.348485
C133	C	1.063624	-0.464546	-0.694762
C134	C	1.396957	-0.131212	-0.361429
C135	C	1.730290	0.202121	-0.028096
C136	C	1.063549	-0.464659	-0.163380
C137	C	1.396882	-0.131326	0.169954
C138	C	1.730216	0.202007	0.503287
C139	C	1.063672	-0.464416	-0.081581
C140	C	1.397006	-0.131082	0.251752
C141	C	1.730339	0.202251	0.585086
H142	H	0.494229	-0.576735	-0.439845
H143	H	0.827562	-0.243402	-0.106512
H144	H	1.160895	0.089932	0.226821
H145	H	0.494187	-0.352616	-0.269364
H146	H	0.827520	-0.019283	0.063970
H147	H	1.160854	0.314051	0.397303
O148	O	0.965784	-0.592678	-0.934795
O149	O	1.299118	-0.259345	-0.601462
O150	O	1.632451	0.073988	-0.268128
H151	H	0.978377	-0.668389	-0.920029
H152	H	1.311710	-0.335055	-0.586696
H153	H	1.645043	-0.001722	-0.253363
H154	H	0.633629	-0.352595	-0.269347
H155	H	0.966962	-0.019261	0.063987
H156	H	1.300295	0.314072	0.397320
O157	O	1.161493	-0.336300	-0.775119
O158	O	1.494826	-0.002967	-0.441785
O159	O	1.828159	0.330366	-0.108452
H160	H	1.194231	-0.293388	-0.814768
H161	H	1.527564	0.039945	-0.481435
H162	H	1.860897	0.373278	-0.148102
H163	H	1.149069	-0.352551	-0.924706
H164	H	1.482403	-0.019218	-0.591372
H165	H	1.815736	0.314115	-0.258039
O166	O	0.965740	-0.592717	-0.775045
O167	O	1.299073	-0.259383	-0.441711
O168	O	1.632407	0.073950	-0.108378
H169	H	0.978329	-0.668426	-0.789773
H170	H	1.311662	-0.335093	-0.456439
H171	H	1.644996	-0.001759	-0.123106
O172	O	0.643823	-0.593045	-0.452250
O173	O	0.977156	-0.259712	-0.118917
O174	O	1.310490	0.073621	0.214416
H175	H	0.604193	-0.635988	-0.484930
H176	H	0.937526	-0.302654	-0.151597
H177	H	1.270859	0.030679	0.181737
