data_functionalizedCrystal
_audit_creation_method	'MofGen! by Chris Wilmer'
_symmetry_space_group_name_H-M	'P1'
_symmetry_Int_Tables_number	1
_symmetry_cell_setting	triclinic
loop_
_symmetry_equiv_pos_as_xyz
  x,y,z
_cell_length_a	13.897448
_cell_length_b	18.215407
_cell_length_c	13.897441
_cell_angle_alpha	89.982568
_cell_angle_beta	89.970373
_cell_angle_gamma	90.015136
loop_
_atom_site_label
_atom_site_type_symbol
_atom_site_fract_x
_atom_site_fract_y
_atom_site_fract_z
Zn1	Zn	-0.384059	1.125109	-0.545351
Zn2	Zn	-0.050726	1.458443	-0.212018
Zn3	Zn	0.282607	1.791776	0.121315
Zn4	Zn	-0.545378	1.125033	-0.384053
Zn5	Zn	-0.212045	1.458366	-0.050719
Zn6	Zn	0.121289	1.791700	0.282614
Zn7	Zn	-0.384092	1.002042	-0.384073
Zn8	Zn	-0.050758	1.335375	-0.050739
Zn9	Zn	0.282575	1.668708	0.282594
Zn10	Zn	-0.545307	1.002023	-0.545308
Zn11	Zn	-0.211973	1.335356	-0.211975
Zn12	Zn	0.121360	1.668690	0.121358
O13	O	-0.464709	1.063552	-0.464696
O14	O	-0.131376	1.396885	-0.131363
O15	O	0.201958	1.730218	0.201970
O16	O	-0.405475	1.228083	-0.523964
O17	O	-0.072142	1.561417	-0.190631
O18	O	0.261192	1.894750	0.142703
O19	O	-0.524027	1.108694	-0.249074
O20	O	-0.190693	1.442027	0.084260
O21	O	0.142640	1.775360	0.417593
O22	O	-0.249106	1.018406	-0.405493
O23	O	0.084228	1.351740	-0.072160
O24	O	0.417561	1.685073	0.261174
O25	O	-0.523995	1.228027	-0.405459
O26	O	-0.190662	1.561361	-0.072125
O27	O	0.142671	1.894694	0.261208
O28	O	-0.249082	1.108824	-0.523984
O29	O	0.084251	1.442157	-0.190650
O30	O	0.417585	1.775490	0.142683
O31	O	-0.405530	1.018332	-0.249088
O32	O	-0.072197	1.351666	0.084245
O33	O	0.261137	1.684999	0.417578
O34	O	-0.405461	0.899055	-0.405452
O35	O	-0.072127	1.232388	-0.072118
O36	O	0.261206	1.565722	0.261215
O37	O	-0.523873	1.018375	-0.680296
O38	O	-0.190540	1.351708	-0.346962
O39	O	0.142793	1.685042	-0.013629
O40	O	-0.523905	0.899041	-0.523911
O41	O	-0.190572	1.232375	-0.190577
O42	O	0.142762	1.565708	0.142756
O43	O	-0.405406	1.108806	-0.680327
O44	O	-0.072072	1.442139	-0.346994
O45	O	0.261261	1.775472	-0.013661
O46	O	-0.680350	1.108676	-0.405417
O47	O	-0.347017	1.442009	-0.072084
O48	O	-0.013684	1.775342	0.261250
O49	O	-0.680298	1.018301	-0.523891
O50	O	-0.346965	1.351634	-0.190558
O51	O	-0.013631	1.684968	0.142776
C52	C	-0.464679	0.872345	-0.464679
C53	C	-0.131346	1.205679	-0.131346
C54	C	0.201987	1.539012	0.201987
C55	C	-0.464690	0.790547	-0.464695
C56	C	-0.131356	1.123880	-0.131362
C57	C	0.201977	1.457213	0.201972
C58	C	-0.403103	0.602381	-0.526498
C59	C	-0.069770	0.935714	-0.193165
C60	C	0.263563	1.269047	0.140168
C61	C	-0.403112	0.525522	-0.526501
C62	C	-0.069778	0.858855	-0.193168
C63	C	0.263555	1.192189	0.140165
C64	C	-0.526342	0.525475	-0.402911
C65	C	-0.193008	0.858808	-0.069578
C66	C	0.140325	1.192141	0.263755
C67	C	-0.526328	0.602332	-0.402904
C68	C	-0.192994	0.935665	-0.069570
C69	C	0.140339	1.268999	0.263763
C70	C	-0.464710	0.640783	-0.464703
C71	C	-0.131377	0.974116	-0.131369
C72	C	0.201957	1.307450	0.201964
C73	C	-0.464732	0.487067	-0.464713
C74	C	-0.131399	0.820400	-0.131380
C75	C	0.201935	1.153734	0.201953
C76	C	-0.464742	0.403733	-0.464716
C77	C	-0.131408	0.737067	-0.131383
C78	C	0.201925	1.070400	0.201950
C79	C	-0.464699	0.724122	-0.464699
C80	C	-0.131366	1.057455	-0.131365
C81	C	0.201968	1.390789	0.201968
C82	C	-0.715323	1.063498	-0.464668
C83	C	-0.381990	1.396831	-0.131335
C84	C	-0.048657	1.730165	0.201998
C85	C	-0.822537	1.063542	-0.464689
C86	C	-0.489204	1.396876	-0.131355
C87	C	-0.155871	1.730209	0.201978
C88	C	-1.018832	1.063620	-0.464749
C89	C	-0.685499	1.396953	-0.131416
C90	C	-0.352166	1.730286	0.201918
C91	C	-0.909600	1.063575	-0.464718
C92	C	-0.576266	1.396908	-0.131385
C93	C	-0.242933	1.730241	0.201948
C94	C	-0.213116	1.063626	-0.464745
C95	C	0.120217	1.396959	-0.131412
C96	C	0.453551	1.730292	0.201921
C97	C	-0.105902	1.063657	-0.464766
C98	C	0.227431	1.396991	-0.131433
C99	C	0.560765	1.730324	0.201900
C100	C	-0.464739	1.255505	-0.464714
C101	C	-0.131406	1.588838	-0.131380
C102	C	0.201927	1.922171	0.201953
C103	C	-0.464752	1.337303	-0.464721
C104	C	-0.131419	1.670637	-0.131388
C105	C	0.201914	2.003970	0.201945
C106	C	-0.464628	1.063597	-0.716289
C107	C	-0.131295	1.396930	-0.382956
C108	C	0.202039	1.730263	-0.049623
C109	C	-0.464593	1.063616	-0.823503
C110	C	-0.131260	1.396949	-0.490170
C111	C	0.202073	1.730283	-0.156837
C112	C	-0.464566	1.063631	-0.910573
C113	C	-0.131233	1.396964	-0.577240
C114	C	0.202101	1.730298	-0.243907
C115	C	-0.464523	1.063652	-1.019806
C116	C	-0.131189	1.396985	-0.686472
C117	C	0.202144	1.730319	-0.353139
C118	C	-0.464720	1.063549	-0.214082
C119	C	-0.131387	1.396882	0.119251
C120	C	0.201947	1.730216	0.452585
C121	C	-0.464483	1.063673	-0.106868
C122	C	-0.131149	1.397006	0.226465
C123	C	0.202184	1.730339	0.559798
H124	H	-0.576509	0.494158	-0.352598
H125	H	-0.243176	0.827492	-0.019264
H126	H	0.090157	1.160825	0.314069
H127	H	-0.576496	0.633600	-0.352577
H128	H	-0.243163	0.966933	-0.019244
H129	H	0.090170	1.300267	0.314089
H130	H	-0.352927	0.633685	-0.576816
H131	H	-0.019594	0.967019	-0.243483
H132	H	0.313740	1.300352	0.089851
H133	H	-0.352944	0.494258	-0.576820
H134	H	-0.019610	0.827592	-0.243487
H135	H	0.313723	1.160925	0.089847
