data_functionalizedCrystal
_audit_creation_method	'MofGen! by Chris Wilmer'
_symmetry_space_group_name_H-M	'P1'
_symmetry_Int_Tables_number	1
_symmetry_cell_setting	triclinic
loop_
_symmetry_equiv_pos_as_xyz
  x,y,z
_cell_length_a	29.839131
_cell_length_b	12.645331
_cell_length_c	12.645323
_cell_angle_alpha	89.973618
_cell_angle_beta	90.032712
_cell_angle_gamma	89.964326
loop_
_atom_site_label
_atom_site_type_symbol
_atom_site_fract_x
_atom_site_fract_y
_atom_site_fract_z
Zn1	Zn	-0.178919	-1.620556	0.599493
Zn2	Zn	-0.254050	-1.620365	0.422209
Zn3	Zn	-0.178928	-1.443271	0.422226
Zn4	Zn	-0.254015	-1.443179	0.599413
O5	O	-0.216478	-1.531843	0.510835
O6	O	-0.188896	-1.768878	0.576002
O7	O	-0.244104	-1.596831	0.273864
O8	O	-0.116059	-1.466907	0.445782
O9	O	-0.244095	-1.768737	0.445753
O10	O	-0.116053	-1.597158	0.576019
O11	O	-0.188911	-1.466721	0.273876
O12	O	-0.188877	-1.294912	0.445704
O13	O	-0.244035	-1.466751	0.747771
O14	O	-0.244043	-1.294844	0.575882
O15	O	-0.188862	-1.597069	0.747830
O16	O	-0.316913	-1.596742	0.445675
O17	O	-0.316887	-1.466565	0.575866
C18	C	-0.216458	-1.256413	0.510787
C19	C	-0.216460	-1.138583	0.510791
C20	C	-0.181589	-0.971026	0.429337
C21	C	-0.181684	-1.093586	0.428986
C22	C	-0.263784	-1.094017	0.480258
C23	C	-0.263589	-0.971418	0.479695
C24	C	-0.204443	-0.971445	0.623068
C25	C	-0.203390	-1.094052	0.622453
C26	C	-0.333200	-1.531651	0.510783
C27	C	-0.383135	-1.531667	0.510796
C28	C	-0.692779	-1.599749	0.443144
C29	C	-0.880452	-1.599880	0.443185
O30	O	-0.904718	-1.657615	0.385625
N31	N	-0.903920	-1.532063	0.510915
C32	C	-0.880466	-1.464212	0.578645
O33	O	-0.904733	-1.406540	0.636262
C34	C	-0.692794	-1.464088	0.578608
C35	C	-0.669329	-1.531902	0.510866
C36	C	-0.669314	-1.667559	0.375408
C37	C	-0.622398	-1.667522	0.375394
C38	C	-0.598948	-1.599674	0.443117
C39	C	-0.622414	-1.531865	0.510852
C40	C	-0.669342	-1.396244	0.646342
C41	C	-0.622421	-1.396220	0.646329
C42	C	-0.598955	-1.464035	0.578587
C43	C	-0.552048	-1.463980	0.578561
N44	N	-0.528580	-1.531798	0.510831
C45	C	-0.552030	-1.599645	0.443109
C46	C	-0.978997	-1.464281	0.578658
C47	C	-1.025915	-1.464311	0.578666
C48	C	-1.025897	-1.599980	0.443207
C49	C	-0.978979	-1.599945	0.443195
C50	C	-0.955529	-1.532099	0.510928
C51	C	-0.453505	-1.599560	0.443084
C52	C	-0.406585	-1.599514	0.443074
C53	C	-0.406607	-1.463849	0.578536
C54	C	-0.453522	-1.463891	0.578543
C55	C	-0.476970	-1.531755	0.510814
O56	O	-0.527753	-1.406284	0.636100
O57	O	-0.527755	-1.657325	0.385516
C58	C	-0.739695	-1.599787	0.443158
C59	C	-0.763160	-1.531977	0.510893
C60	C	-0.739710	-1.464130	0.578616
C61	C	-0.810078	-1.532007	0.510901
C62	C	-0.833528	-1.599854	0.443179
C63	C	-0.810060	-1.667672	0.375449
C64	C	-0.763145	-1.667634	0.375435
C65	C	-0.763177	-1.396312	0.646346
C66	C	-0.810093	-1.396354	0.646353
C67	C	-0.833543	-1.464202	0.578631
C68	C	-0.099299	-1.532064	0.510911
C69	C	-0.049365	-1.532158	0.510944
C70	C	-0.216443	-1.531921	0.787341
C71	C	-0.216428	-1.531954	0.905171
C72	C	-0.216490	-0.808348	0.510868
C73	C	-0.216472	-0.926178	0.510841
C74	C	-0.216480	-1.531826	0.235406
C75	C	-0.216368	-1.531998	0.117576
C76	C	-0.250974	-1.449718	1.072698
C77	C	-0.251145	-1.449933	0.950138
C78	C	-0.229282	-1.643641	0.949694
C79	C	-0.229498	-1.643190	1.072292
C80	C	-0.168836	-1.503559	1.072382
C81	C	-0.169121	-1.501067	0.949776
H82	H	-0.290460	-0.941747	0.536469
C83	C	-0.103785	-0.972503	0.381042
C84	C	-0.134068	-0.931296	0.454879
H85	H	-0.074446	-0.947974	0.396818
H86	H	-0.112052	-0.949935	0.312083
H87	H	-0.104313	-1.047551	0.384166
H88	H	-0.133542	-0.856248	0.451750
H89	H	-0.125798	-0.953859	0.523856
H90	H	-0.168565	-1.123190	0.645476
H91	H	-0.229851	-0.942442	0.683796
H92	H	-0.959876	-1.655165	0.388034
H93	H	-0.472628	-1.408674	0.633707
H94	H	-0.290471	-1.123160	0.537762
C95	C	-0.317641	-1.193129	0.379926
C96	C	-0.277795	-1.135434	0.370714
H97	H	-0.326286	-1.218718	0.312302
H98	H	-0.340554	-1.148691	0.407202
H99	H	-0.313103	-1.251116	0.426508
H100	H	-0.282334	-1.077442	0.324137
H101	H	-0.254877	-1.179875	0.343422
C102	C	-0.353863	-1.614287	0.300458
C103	C	-0.380793	-1.674062	0.368606
H104	H	-0.337944	-1.660310	0.254484
H105	H	-0.333181	-1.573886	0.340785
H106	H	-0.372202	-1.568136	0.259874
H107	H	-0.362454	-1.720207	0.409196
H108	H	-0.401477	-1.714480	0.328275
H109	H	-1.044998	-1.655225	0.388065
H110	H	-0.170535	-0.940582	0.650829
C111	C	-0.100533	-1.517874	0.852000
C112	C	-0.132473	-1.576064	0.908457
H113	H	-0.077911	-1.564184	0.826487
H114	H	-0.087419	-1.466508	0.897203
H115	H	-0.114607	-1.483479	0.794009
H116	H	-0.118400	-1.610453	0.966453
H117	H	-0.145588	-1.627450	0.863251
H118	H	-0.273790	-0.942763	0.397650
C119	C	-0.242149	-1.335783	1.223094
C120	C	-0.240220	-1.337575	1.112473
H121	H	-0.235511	-1.266547	1.247652
H122	H	-0.220885	-1.384246	1.251048
H123	H	-0.271362	-1.355324	1.245599
H124	H	-0.211005	-1.318042	1.089967
H125	H	-0.261484	-1.289096	1.084508
H126	H	-0.286382	-1.468704	0.920814
C127	C	-1.021208	-1.330213	0.712564
C128	C	-1.051705	-1.389761	0.653124
H129	H	-1.037129	-1.284196	0.758540
H130	H	-1.002938	-1.289678	0.666330
H131	H	-1.002878	-1.376384	0.753147
H132	H	-1.070033	-1.343590	0.612535
H133	H	-1.069982	-1.430299	0.699364
H134	H	-0.285991	-1.468306	1.103507
C135	C	-0.862906	-1.253772	0.660989
C136	C	-0.835883	-1.321806	0.720823
H137	H	-0.878824	-1.207753	0.706969
H138	H	-0.883589	-1.294180	0.620671
H139	H	-0.844630	-1.213231	0.614758
H140	H	-0.854159	-1.362353	0.767049
H141	H	-0.815198	-1.281394	0.761159
H142	H	-0.189451	-0.940171	0.346662
H143	H	-0.226947	-1.124687	0.686433
H144	H	-0.143054	-1.563489	1.101408
H145	H	-0.189636	-1.122856	0.345825
C146	C	-0.448762	-1.733648	0.309175
C147	C	-0.479274	-1.674150	0.368628
H148	H	-0.464671	-1.779687	0.263202
H149	H	-0.430435	-1.774159	0.355400
H150	H	-0.430491	-1.687448	0.268588
H151	H	-0.497543	-1.720350	0.409222
H152	H	-0.497608	-1.633636	0.322397
C153	C	-0.304049	-1.695444	1.023612
C154	C	-0.276406	-1.675727	1.110911
H155	H	-0.333009	-1.715523	1.047452
H156	H	-0.291563	-1.750906	0.982425
H157	H	-0.306327	-1.633266	0.981762
H158	H	-0.274124	-1.737908	1.152757
H159	H	-0.288894	-1.620261	1.152115
H160	H	-0.387506	-1.408605	0.633671
C161	C	-0.627108	-1.801640	0.241521
C162	C	-0.596610	-1.742082	0.300945
H163	H	-0.611189	-1.847681	0.195566
H164	H	-0.645434	-1.755485	0.200927
H165	H	-0.645382	-1.842161	0.287775
H166	H	-0.578338	-1.701556	0.254692
H167	H	-0.578276	-1.788243	0.341543
H168	H	-0.146591	-1.123721	0.448126
C169	C	-0.926210	-1.449415	0.721257
C170	C	-0.953227	-1.389691	0.653113
H171	H	-0.910305	-1.403361	0.767223
H172	H	-0.905516	-1.489783	0.680927
H173	H	-0.944489	-1.495593	0.761850
H174	H	-0.934947	-1.343517	0.612514
H175	H	-0.973923	-1.349304	0.693447
H176	H	-0.205387	-1.706571	1.101982
H177	H	-0.688402	-1.722814	0.320260
C178	C	-0.664626	-1.262166	0.780254
C179	C	-0.695126	-1.321705	0.720816
H180	H	-0.680545	-1.216153	0.826239
H181	H	-0.646358	-1.221627	0.734020
H182	H	-0.646295	-1.308342	0.820828
H183	H	-0.713455	-1.275529	0.680235
H184	H	-0.713402	-1.362247	0.767056
C185	C	-0.219756	-1.805293	0.852721
C186	C	-0.196337	-1.728628	0.910378
H187	H	-0.199417	-1.857761	0.828454
H188	H	-0.234026	-1.772919	0.793854
H189	H	-0.241704	-1.837205	0.896761
H190	H	-0.174392	-1.696710	0.866335
H191	H	-0.182060	-1.761005	0.969253
H192	H	-0.603330	-1.340973	0.701489
C193	C	-0.767855	-1.801741	0.241551
C194	C	-0.737356	-1.742187	0.300978
H195	H	-0.751935	-1.847775	0.195589
H196	H	-0.786182	-1.755584	0.200964
H197	H	-0.786127	-1.842269	0.287802
H198	H	-0.719086	-1.701653	0.254728
H199	H	-0.719021	-1.788350	0.341569
H200	H	-0.829162	-1.722912	0.320304
H201	H	-0.263664	-1.668166	0.918996
C202	C	-0.276050	-1.300832	0.848165
C203	C	-0.240287	-1.338128	0.909492
H204	H	-0.269346	-1.231807	0.823074
H205	H	-0.302447	-1.298559	0.890046
H206	H	-0.280605	-1.346830	0.789774
H207	H	-0.235734	-1.292134	0.967888
H208	H	-0.213883	-1.340394	0.867609
H209	H	-0.744088	-1.341064	0.701495
C210	C	-0.112956	-1.408399	1.170373
C211	C	-0.153017	-1.395532	1.114089
H212	H	-0.103194	-1.341706	1.196126
H213	H	-0.090731	-1.437201	1.124986
H214	H	-0.117776	-1.455005	1.228191
H215	H	-0.148196	-1.348932	1.056266
H216	H	-0.175246	-1.366715	1.159479
H217	H	-0.159428	-1.418876	0.920674
