data_functionalizedCrystal
_audit_creation_method	'MofGen! by Chris Wilmer'
_symmetry_space_group_name_H-M	'P1'
_symmetry_Int_Tables_number	1
_symmetry_cell_setting	triclinic
loop_
_symmetry_equiv_pos_as_xyz
  x,y,z
_cell_length_a	12.759399
_cell_length_b	18.215407
_cell_length_c	18.215399
_cell_angle_alpha	89.979405
_cell_angle_beta	90.024962
_cell_angle_gamma	89.984963
loop_
_atom_site_label
_atom_site_type_symbol
_atom_site_fract_x
_atom_site_fract_y
_atom_site_fract_z
Zn1	Zn	-0.418279	-1.125122	0.416146
Zn2	Zn	-0.593977	-1.125051	0.293086
Zn3	Zn	-0.418312	-1.002054	0.293092
Zn4	Zn	-0.593917	-1.002041	0.416110
O5	O	-0.506121	-1.063567	0.354608
O6	O	-0.441597	-1.228097	0.399835
O7	O	-0.570713	-1.108711	0.190103
O8	O	-0.271287	-1.018415	0.309433
O9	O	-0.570681	-1.228045	0.309423
O10	O	-0.271263	-1.108832	0.399840
O11	O	-0.441653	-1.018346	0.190107
O12	O	-0.441595	-0.899068	0.309397
O13	O	-0.570579	-1.018392	0.519099
O14	O	-0.570611	-0.899059	0.399778
O15	O	-0.441539	-1.108819	0.519126
O16	O	-0.740990	-1.108699	0.309388
O17	O	-0.740946	-1.018324	0.399773
C18	C	-0.506101	-0.872361	0.354585
C19	C	-0.506117	-0.790562	0.354592
C20	C	-0.779089	-1.063522	0.354592
C21	C	-0.895865	-1.063570	0.354609
C22	C	-0.573399	-0.602382	0.401592
C23	C	-0.573401	-0.525524	0.401600
C24	C	-0.438849	-0.525504	0.307628
C25	C	-0.438842	-0.602361	0.307624
C26	C	-0.506123	-0.640799	0.354605
C27	C	-0.506132	-0.487083	0.354617
C28	C	-0.506134	-0.403749	0.354625
C29	C	-0.506120	-0.724138	0.354598
C30	C	-0.950715	-1.110682	0.307599
C31	C	-1.060439	-1.110729	0.307624
C32	C	-1.060453	-1.016546	0.401670
C33	C	-0.950731	-1.016503	0.401649
C34	C	-1.210314	-1.197595	0.281439
C35	C	-1.265168	-1.244701	0.234418
C36	C	-1.229617	-1.256026	0.162613
C37	C	-1.139214	-1.220235	0.137814
C38	C	-1.084366	-1.173125	0.184832
C39	C	-1.119915	-1.161813	0.256647
C40	C	-0.800854	-0.929636	0.427826
C41	C	-0.746004	-0.882521	0.474840
C42	C	-0.781553	-0.871188	0.546647
C43	C	-0.871959	-0.906966	0.571442
C44	C	-0.926809	-0.954081	0.524428
C45	C	-0.891253	-0.965415	0.452623
C46	C	-0.232088	-1.063633	0.354641
C47	C	-0.115311	-1.063660	0.354655
C48	C	-0.506049	-1.063612	0.546561
C49	C	-0.506018	-1.063631	0.628360
C50	C	-0.506139	-0.255520	0.354629
C51	C	-0.506138	-0.337319	0.354630
C52	C	-0.506117	-1.063565	0.163402
C53	C	-0.505852	-1.063688	0.081604
C54	C	-0.438764	-1.110733	0.816570
C55	C	-0.438733	-1.110742	0.893428
C56	C	-0.573109	-1.016581	0.893389
C57	C	-0.573134	-1.016569	0.816532
C58	C	-0.505963	-1.063649	0.778124
C59	C	-0.505907	-1.063670	0.931840
C60	C	-0.505875	-1.063679	1.015174
C61	C	-0.505994	-1.063639	0.694785
H62	H	-0.628181	-0.633676	0.439848
O63	O	-0.645611	-0.965769	0.775071
H64	H	-0.699082	-0.998676	0.740044
H65	H	-0.628182	-0.494249	0.439862
O66	O	-0.366318	-0.484048	0.256932
H67	H	-0.377641	-0.424150	0.264816
O68	O	-0.366246	-1.161527	0.934887
H69	H	-0.312768	-1.128602	0.969893
H70	H	-0.384052	-0.633641	0.269362
H71	H	-0.906046	-1.149008	0.269298
H72	H	-1.010761	-1.143986	0.164642
H73	H	-1.105139	-0.978225	0.439967
H74	H	-1.110282	-1.229455	0.079340
H75	H	-0.900904	-0.897739	0.629913
O76	O	-1.024326	-0.992670	0.551165
H77	H	-1.012725	-1.052963	0.547726
H78	H	-0.672386	-0.853393	0.454647
O79	O	-1.288765	-1.306842	0.111898
H80	H	-1.357591	-1.329830	0.141206
H81	H	-0.771896	-0.938866	0.369357
H82	H	-0.736885	-0.832821	0.584924
H83	H	-0.384066	-1.149067	0.785300
O84	O	-1.362665	-1.283310	0.261161
H85	H	-1.378163	-1.267534	0.318999
H86	H	-1.239261	-1.188386	0.339911
H87	H	-0.627800	-0.978252	0.924670
