data_functionalizedCrystal
_audit_creation_method	'MofGen! by Chris Wilmer'
_symmetry_space_group_name_H-M	'P1'
_symmetry_Int_Tables_number	1
_symmetry_cell_setting	triclinic
loop_
_symmetry_equiv_pos_as_xyz
  x,y,z
_cell_length_a	14.044220
_cell_length_b	16.992694
_cell_length_c	15.455301
_cell_angle_alpha	87.178730
_cell_angle_beta	92.764001
_cell_angle_gamma	88.071450
loop_
_atom_site_label
_atom_site_type_symbol
_atom_site_fract_x
_atom_site_fract_y
_atom_site_fract_z
O1	O	0.206010	-1.057860	0.072025
O2	O	0.203795	-0.829420	0.072051
O3	O	0.066658	-0.940211	0.072030
O4	O	0.343147	-0.947069	0.072046
O5	O	0.058741	-0.933519	-0.072232
O6	O	0.195878	-0.822729	-0.072212
O7	O	0.198093	-1.051168	-0.072237
Cu8	Cu	0.196262	-0.936337	-0.085397
Cu9	Cu	0.205626	-0.944251	0.085210
O10	O	0.335230	-0.940378	-0.072216
C11	C	0.196985	-0.796663	-0.000077
C12	C	0.188477	-0.709024	-0.000068
C13	C	0.027157	-0.933863	-0.000101
C14	C	-0.078747	-0.924909	-0.000101
N15	N	0.189677	-0.930777	-0.205392
C16	C	-0.272647	-0.908540	-0.000087
C17	C	-0.325470	-0.972046	-0.000092
C18	C	-0.433363	-0.962937	-0.000084
C19	C	-0.164744	-0.917647	-0.000095
C20	C	0.374731	-0.946725	-0.000083
C21	C	0.480635	-0.955680	-0.000077
C22	C	0.204903	-1.083926	-0.000107
C23	C	0.213412	-1.171565	-0.000111
C24	C	0.270574	-0.664526	-0.000063
C25	C	0.262573	-0.582179	-0.000076
C26	C	0.172474	-0.544332	-0.000086
C27	C	0.090371	-0.588836	-0.000093
C28	C	0.098372	-0.671181	-0.000087
C29	C	0.139310	-0.298414	-0.000112
C30	C	0.131315	-0.216063	-0.000115
C31	C	0.303517	-0.209411	-0.000100
C32	C	0.311512	-0.291758	-0.000088
C33	C	0.229408	-0.336255	-0.000099
N34	N	0.164293	-0.460161	-0.000096
N35	N	0.237589	-0.420425	-0.000096
C36	C	0.248639	-0.980525	-0.250785
C37	C	0.243653	-0.976330	-0.341593
C38	C	0.179710	-0.922382	-0.387007
C39	C	0.120741	-0.872632	-0.341608
C40	C	0.125722	-0.876832	-0.250802
C41	C	0.158217	-0.904267	-0.658589
C42	C	0.153242	-0.900069	-0.749402
C43	C	0.276154	-1.003768	-0.749380
C44	C	0.281134	-1.007960	-0.658572
C45	C	0.222161	-0.958213	-0.613181
N46	N	0.174614	-0.918091	-0.479827
N47	N	0.227253	-0.962508	-0.520362
N48	N	0.212204	-0.949817	0.205206
H49	H	-0.308452	-0.847335	-0.000078
O50	O	0.343233	-1.060290	-0.614325
C51	C	0.334975	-1.053337	-0.524443
H52	H	0.303908	-0.992311	-0.512053
H53	H	0.408448	-1.061895	-0.489930
H54	H	0.285894	-1.100182	-0.498667
O55	O	0.358026	-0.701414	-0.000012
C56	C	0.347488	-0.783635	-0.000026
H57	H	0.276084	-0.799006	0.027280
H58	H	0.407814	-0.814739	0.041865
H59	H	0.350045	-0.803647	-0.069234
O60	O	0.002818	-0.552105	-0.000255
C61	C	-0.051715	-0.570810	-0.074961
H62	H	-0.002005	-0.589081	-0.127180
H63	H	-0.097411	-0.517007	-0.100042
H64	H	-0.099827	-0.621466	-0.058070
H65	H	0.329425	-0.545952	-0.000072
H66	H	-0.289660	-1.033258	-0.000040
H67	H	0.101171	-0.856134	-0.786375
H68	H	0.031520	-0.707411	-0.000090
O69	O	0.399105	-0.328393	-0.000121
C70	C	0.469854	-0.271460	-0.000099
H71	H	0.437412	-0.212474	-0.027417
H72	H	0.530084	-0.290989	-0.041977
H73	H	0.499274	-0.264879	0.069112
O74	O	0.383168	-0.166066	-0.000134
C75	C	0.356793	-0.085272	-0.000120
H76	H	0.280206	-0.075621	-0.027436
H77	H	0.406441	-0.049916	-0.042003
H78	H	0.362404	-0.064946	0.069088
O79	O	0.301032	-1.024685	-0.385552
C80	C	0.358527	-1.073209	-0.325997
H81	H	0.365139	-1.043957	-0.261269
H82	H	0.432398	-1.082117	-0.352226
H83	H	0.324539	-1.132789	-0.316337
O84	O	0.310629	-1.032969	-0.206578
C85	C	0.259517	-1.085137	-0.154068
H86	H	0.187681	-1.056293	-0.140470
H87	H	0.302002	-1.099549	-0.090210
H88	H	0.247539	-1.141753	-0.189062
H89	H	0.057942	-0.185251	-0.000123
H90	H	0.072455	-0.334633	-0.000121
O91	O	0.333388	-1.052208	-0.793378
C92	C	0.314297	-1.131399	-0.771199
H93	H	0.281213	-1.135245	-0.705271
H94	H	0.383655	-1.168493	-0.768083
H95	H	0.262589	-1.154494	-0.822308
H96	H	0.110197	-0.863759	-0.621642
H97	H	0.068672	-0.828711	-0.378591
H98	H	0.077709	-0.836321	-0.213844
