data_functionalizedCrystal
_audit_creation_method	'MofGen! by Chris Wilmer'
_symmetry_space_group_name_H-M	'P1'
_symmetry_Int_Tables_number	1
_symmetry_cell_setting	triclinic
loop_
_symmetry_equiv_pos_as_xyz
  x,y,z
_cell_length_a	8.597340
_cell_length_b	10.654551
_cell_length_c	7.681481
_cell_angle_alpha	84.205011
_cell_angle_beta	103.474906
_cell_angle_gamma	84.910295
loop_
_atom_site_label
_atom_site_type_symbol
_atom_site_fract_x
_atom_site_fract_y
_atom_site_fract_z
O1	O	2.101768	0.173670	0.172459
O2	O	1.637929	0.193680	0.102084
O3	O	1.880512	0.000862	0.138888
O4	O	1.859185	0.366488	0.135654
O5	O	1.910369	-0.022924	0.436276
O6	O	1.667786	0.169893	0.399471
O7	O	2.131626	0.149884	0.469846
Zn8	Zn	1.904446	0.156112	0.481876
Zn9	Zn	1.865108	0.187452	0.090055
O10	O	1.889042	0.342701	0.433042
C11	C	1.593465	0.180963	0.241766
C12	C	1.416493	0.178493	0.214915
C13	C	1.893874	-0.057818	0.287340
C14	C	1.889187	-0.197227	0.286617
C15	C	1.870713	-0.249759	0.124181
C16	C	1.866297	-0.380749	0.123519
C17	C	1.898836	-0.406668	0.447745
C18	C	1.903241	-0.275678	0.448404
C19	C	1.856659	-0.171308	-0.037605
C20	C	1.838186	-0.223838	-0.200055
C21	C	1.833770	-0.354829	-0.200717
C22	C	1.847827	-0.433289	-0.038929
C23	C	2.176089	0.162601	0.330160
C24	C	2.353060	0.165072	0.356999
C25	C	1.875680	0.401382	0.284586
C26	C	1.880366	0.540793	0.285297
N27	N	1.931305	0.134723	0.749285
N28	N	1.838261	0.208831	-0.177353
H29	H	1.434142	0.155461	0.499193
H30	H	1.335403	0.188095	0.072712
F31	F	1.861365	-0.031897	-0.036913
F32	F	1.823222	-0.140334	-0.372231
F33	F	1.814093	-0.410730	-0.373608
F34	F	2.055475	0.035858	0.866418
H35	H	1.844207	-0.539947	-0.039485
F36	F	1.922909	-0.219768	0.621288
F37	F	1.913797	-0.490174	0.619918
H38	H	1.743282	0.284473	0.733040
