data_functionalizedCrystal
_audit_creation_method	'MofGen! by Chris Wilmer'
_symmetry_space_group_name_H-M	'P1'
_symmetry_Int_Tables_number	1
_symmetry_cell_setting	triclinic
loop_
_symmetry_equiv_pos_as_xyz
  x,y,z
_cell_length_a	15.944493
_cell_length_b	13.339070
_cell_length_c	11.804365
_cell_angle_alpha	105.124870
_cell_angle_beta	101.834508
_cell_angle_gamma	80.447831
loop_
_atom_site_label
_atom_site_type_symbol
_atom_site_fract_x
_atom_site_fract_y
_atom_site_fract_z
O1	O	0.408897	-1.362642	-0.099011
O2	O	0.908897	-0.862642	0.400989
O3	O	0.353626	-1.068125	-0.099012
O4	O	0.853626	-0.568125	0.400988
O5	O	0.260863	-1.223459	-0.099022
O6	O	0.760863	-0.723459	0.400978
O7	O	0.501659	-1.207308	-0.099002
O8	O	1.001659	-0.707308	0.400998
O9	O	0.285250	-1.182565	0.099037
O10	O	0.785250	-0.682565	0.599037
O11	O	0.378012	-1.027232	0.099046
O12	O	0.878012	-0.527232	0.599046
O13	O	0.433283	-1.321748	0.099047
O14	O	0.933283	-0.821748	0.599047
Cu15	Cu	0.407874	-1.170756	0.117131
Cu16	Cu	0.907874	-0.670756	0.617131
Cu17	Cu	0.379034	-1.219117	-0.117096
Cu18	Cu	0.879034	-0.719117	0.382904
O19	O	0.526046	-1.166415	0.099057
O20	O	1.026046	-0.666415	0.599057
C21	C	0.356483	-1.009991	0.000017
C22	C	0.856483	-0.509991	0.500017
C23	C	0.328653	-0.897694	0.000016
C24	C	0.828653	-0.397694	0.500016
C25	C	0.241607	-1.202353	0.000003
C26	C	0.741607	-0.702353	0.500003
C27	C	0.147896	-1.200378	-0.000013
C28	C	0.647896	-0.700378	0.499987
C29	C	-0.066556	-1.291805	0.000010
C30	C	0.433444	-0.791805	0.500010
C31	C	-0.140637	-1.262662	-0.097642
C32	C	0.359363	-0.762662	0.402358
C33	C	-0.023678	-1.196709	0.000002
C34	C	0.476322	-0.696709	0.500002
C35	C	-0.116575	-1.222322	0.097628
C36	C	0.383425	-0.722322	0.597628
C37	C	-0.189409	-1.193171	0.000021
C38	C	0.310591	-0.693171	0.500021
C39	C	-0.096535	-1.167608	-0.097731
C40	C	0.403465	-0.667608	0.402269
C41	C	-0.072455	-1.127264	0.097627
C42	C	0.427545	-0.627264	0.597627
C43	C	-0.146522	-1.098056	-0.000050
C44	C	0.353478	-0.598056	0.499950
C45	C	0.071795	-1.198750	-0.000010
C46	C	0.571795	-0.698750	0.499990
C47	C	-0.284882	-1.191124	0.000025
C48	C	0.215118	-0.691124	0.500025
C49	C	0.430426	-1.379883	0.000016
C50	C	0.930426	-0.879883	0.500016
C51	C	0.458254	-1.492181	0.000009
C52	C	0.958254	-0.992181	0.500009
C53	C	0.545301	-1.187521	0.000030
C54	C	1.045301	-0.687521	0.500030
C55	C	0.639012	-1.189498	0.000037
C56	C	1.139012	-0.689498	0.500037
N57	N	0.428160	-1.136749	0.281874
N58	N	0.928160	-0.636749	0.781874
C59	C	0.545039	-0.532862	0.000015
C60	C	1.045039	-0.032862	0.500015
C61	C	0.571188	-0.638371	0.000012
C62	C	1.071188	-0.138371	0.500012
C63	C	0.510557	-0.703207	0.000013
C64	C	1.010557	-0.203207	0.500013
C65	C	0.423771	-0.662524	0.000016
C66	C	0.923771	-0.162524	0.500016
C67	C	0.397618	-0.557007	0.000010
C68	C	0.897618	-0.057007	0.500010
C69	C	0.363136	-0.727352	0.000008
C70	C	0.863136	-0.227352	0.500008
C71	C	0.276351	-0.686669	0.000012
C72	C	0.776351	-0.186669	0.500012
C73	C	0.250202	-0.581162	0.000006
C74	C	0.750202	-0.081162	0.500006
C75	C	0.310834	-0.516326	0.000004
C76	C	0.810834	-0.016326	0.500004
C77	C	0.389289	-0.832868	0.000015
C78	C	0.889289	-0.332868	0.500015
C79	C	0.241868	-0.857014	0.000010
C80	C	0.741868	-0.357014	0.500010
C81	C	0.215719	-0.751505	0.000013
C82	C	0.715719	-0.251505	0.500013
N83	N	0.358744	-1.253133	-0.281839
N84	N	0.858744	-0.753133	0.218161
C85	C	0.310014	-1.334796	0.655810
C86	C	0.810014	-0.834796	1.155810
C87	C	0.294664	-1.360522	0.531147
C88	C	0.794664	-0.860522	1.031147
C89	C	0.328037	-1.304580	0.468823
C90	C	0.828037	-0.804580	0.968823
C91	C	0.376762	-1.222910	0.531174
C92	C	0.876762	-0.722910	1.031174
C93	C	0.392119	-1.197188	0.655849
C94	C	0.892119	-0.697188	1.155849
C95	C	0.410142	-1.166972	0.468861
C96	C	0.910142	-0.666972	0.968861
C97	C	0.458867	-1.085301	0.531212
C98	C	0.958867	-0.585301	1.031212
C99	C	0.474222	-1.059582	0.655876
C100	C	0.974222	-0.559582	1.155876
C101	C	0.440849	-1.115524	0.718200
C102	C	0.940849	-0.615524	1.218200
C103	C	0.394785	-1.192694	0.344186
C104	C	0.894785	-0.692694	0.844186
C105	C	0.476890	-1.055085	0.344225
C106	C	0.976890	-0.555085	0.844225
C107	C	0.492240	-1.029360	0.468888
C108	C	0.992240	-0.529360	0.968888
H109	H	-0.031853	-1.373740	-0.000088
H110	H	0.468147	-0.873740	0.499912
Cl111	Cl	0.233413	-1.463187	0.452766
Cl112	Cl	0.733413	-0.963187	0.952766
Cl113	Cl	0.518851	-0.984759	0.265882
Cl114	Cl	1.018851	-0.484759	0.765882
H115	H	0.179534	-0.548045	-0.000005
H116	H	0.679534	-0.048045	0.499995
H117	H	0.282852	-1.380342	0.706563
H118	H	0.782852	-0.880342	1.206563
H119	H	0.192496	-0.909804	0.000006
H120	H	0.692496	-0.409804	0.500006
H121	H	0.459951	-0.865980	0.000017
H122	H	0.959951	-0.365980	0.500017
H123	H	-0.170390	-1.319869	-0.180201
H124	H	0.329610	-0.819869	0.319799
Cl125	Cl	0.553494	-0.926692	0.547284
Cl126	Cl	1.053494	-0.426692	1.047284
H127	H	-0.181097	-1.016088	-0.000104
H128	H	0.318903	-0.516088	0.499896
H129	H	0.453344	-1.094576	0.819711
H130	H	0.953344	-0.594576	1.319711
Cl131	Cl	0.333531	-1.295360	0.265818
Cl132	Cl	0.833531	-0.795360	0.765818
H133	H	0.145056	-0.718368	0.000006
H134	H	0.645056	-0.218368	0.500006
Cl135	Cl	-0.131092	-1.258038	0.225084
Cl136	Cl	0.368908	-0.758038	0.725084
H137	H	-0.087244	-1.144534	-0.180377
H138	H	0.412756	-0.644534	0.319623
H139	H	0.594394	-0.480067	0.000003
H140	H	1.094394	0.019933	0.500003
H141	H	-0.042679	-1.070091	0.180188
H142	H	0.457321	-0.570091	0.680188
Cl143	Cl	0.308736	-1.336919	0.312101
Cl144	Cl	0.808736	-0.836919	0.812101
Cl145	Cl	0.535488	-0.956923	0.734262
Cl146	Cl	1.035488	-0.456923	1.234262
H147	H	0.531853	-0.789116	0.000008
H148	H	1.031853	-0.289116	0.500008
Cl149	Cl	0.277964	-0.383680	0.000010
Cl150	Cl	0.777964	0.116320	0.500010
H151	H	0.641848	-0.671489	0.000000
H152	H	1.141848	-0.171489	0.500000
