data_functionalizedCrystal
_audit_creation_method	'MofGen! by Chris Wilmer'
_symmetry_space_group_name_H-M	'P1'
_symmetry_Int_Tables_number	1
_symmetry_cell_setting	triclinic
loop_
_symmetry_equiv_pos_as_xyz
  x,y,z
_cell_length_a	10.654546
_cell_length_b	10.654559
_cell_length_c	17.766277
_cell_angle_alpha	89.996285
_cell_angle_beta	89.989732
_cell_angle_gamma	84.486084
loop_
_atom_site_label
_atom_site_type_symbol
_atom_site_fract_x
_atom_site_fract_y
_atom_site_fract_z
O1	O	1.667858	0.176379	-0.062606
O2	O	1.302380	0.193190	-0.062603
O3	O	1.493516	0.002046	-0.062605
O4	O	1.476722	0.367523	-0.062605
O5	O	1.493482	0.002036	0.062584
O6	O	1.302346	0.193180	0.062585
O7	O	1.667824	0.176369	0.062582
Cu8	Cu	1.485082	0.184773	0.074014
Cu9	Cu	1.485122	0.184785	-0.074035
O10	O	1.476688	0.367513	0.062584
C11	C	1.255565	0.191951	-0.000009
C12	C	1.116121	0.188261	-0.000008
C13	C	1.492264	-0.044757	-0.000012
C14	C	1.488567	-0.184200	-0.000017
C15	C	1.050645	0.186521	-0.068252
C16	C	0.919624	0.183043	-0.068258
C17	C	0.919568	0.183042	0.068230
C18	C	1.050585	0.186529	0.068235
C19	C	1.116181	0.188253	-0.136495
C20	C	1.050704	0.186511	-0.204744
C21	C	0.919684	0.183034	-0.204750
C22	C	0.854139	0.181299	-0.136507
C23	C	1.372555	-0.235738	-0.000018
C24	C	1.369089	-0.366760	-0.000012
C25	C	1.597659	-0.394695	-0.000007
C26	C	1.601123	-0.263675	-0.000008
C27	C	1.259999	-0.156262	-0.000027
C28	C	1.143977	-0.207800	-0.000029
C29	C	1.140511	-0.338822	-0.000023
C30	C	1.253067	-0.418306	-0.000016
C31	C	1.714639	0.177607	-0.000014
C32	C	1.854083	0.181298	-0.000019
C33	C	1.477940	0.414316	-0.000011
C34	C	1.481637	0.553758	-0.000011
N35	N	1.485063	0.184764	0.178145
N36	N	1.485151	0.184785	-0.178166
C37	C	1.569726	0.100168	0.217531
C38	C	1.569733	0.100162	0.296333
C39	C	1.485089	0.184775	0.335745
C40	C	1.400410	0.269377	0.296350
C41	C	1.400397	0.269372	0.217549
C42	C	1.469634	0.299012	0.460583
C43	C	1.469656	0.299019	0.539382
C44	C	1.485123	0.184790	0.578792
C45	C	1.500595	0.070549	0.539393
C46	C	1.500582	0.070544	0.460592
C47	C	1.485094	0.184789	0.421191
C48	C	1.569799	0.100180	0.703624
C49	C	1.569797	0.100173	0.782427
C50	C	1.400480	0.269399	0.782442
C51	C	1.400476	0.269396	0.703641
C52	C	1.485142	0.184788	0.664236
H53	H	1.104078	0.187935	-0.260305
H54	H	1.331540	0.338287	0.671570
N55	N	1.257493	0.192006	-0.136499
H56	H	1.279541	0.270561	-0.109711
H57	H	1.298456	0.115075	-0.109717
H58	H	0.747451	0.178481	-0.136517
H59	H	1.331490	0.338268	0.328443
H60	H	1.513189	-0.022467	0.571478
H61	H	1.331452	0.338262	0.185480
N62	N	0.849069	0.181154	-0.278360
H63	H	0.804219	0.101993	-0.281399
H64	H	0.785268	0.257479	-0.281367
H65	H	1.457066	0.392041	0.571455
N66	N	1.121220	0.188400	0.141838
H67	H	1.166063	0.267565	0.144877
H68	H	1.059754	0.186715	0.185026
N69	N	1.661048	0.008913	0.338827
H70	H	1.714678	-0.044687	0.301907
H71	H	1.716984	0.057522	0.371508
N72	N	1.263743	-0.014949	-0.000028
H73	H	1.309469	0.011122	-0.046435
H74	H	1.174806	0.027487	-0.000005
N75	N	0.848879	0.181170	0.141830
H76	H	0.755743	0.180469	0.131475
H77	H	0.880057	0.103151	0.171171
H78	H	1.052339	-0.143075	-0.000028
H79	H	1.638735	0.031284	0.671540
N80	N	1.015383	-0.394413	-0.000010
H81	H	0.944611	-0.324181	-0.000013
H82	H	1.008975	-0.448170	-0.046415
N83	N	1.661126	0.008930	0.824910
H84	H	1.648286	0.021766	0.880809
H85	H	1.645855	-0.080305	0.811142
H86	H	1.250236	-0.524992	-0.000011
N87	N	1.309173	0.360651	0.824941
H88	H	1.357642	0.416712	0.857626
H89	H	1.255560	0.414157	0.787979
H90	H	1.689296	-0.459421	-0.000003
N91	N	1.726247	-0.208076	-0.000002
H92	H	1.797025	-0.278302	-0.000002
H93	H	1.732677	-0.154317	-0.046410
N94	N	1.661033	0.008906	0.175034
H95	H	1.648183	0.021737	0.119136
H96	H	1.750249	0.024252	0.188793
H97	H	1.513176	-0.022474	0.428517
N98	N	1.452952	0.422224	0.418081
H99	H	1.443168	0.494593	0.454995
H100	H	1.529309	0.430257	0.385375
