data_functionalizedCrystal
_audit_creation_method	'MofGen! by Chris Wilmer'
_symmetry_space_group_name_H-M	'P1'
_symmetry_Int_Tables_number	1
_symmetry_cell_setting	triclinic
loop_
_symmetry_equiv_pos_as_xyz
  x,y,z
_cell_length_a	10.654541
_cell_length_b	15.995350
_cell_length_c	9.730217
_cell_angle_alpha	89.998981
_cell_angle_beta	89.999932
_cell_angle_gamma	83.988152
loop_
_atom_site_label
_atom_site_type_symbol
_atom_site_fract_x
_atom_site_fract_y
_atom_site_fract_z
O1	O	1.666302	0.117591	-0.114240
O2	O	1.300677	0.128798	-0.114252
O3	O	1.493484	0.001365	-0.114244
O4	O	1.473495	0.245024	-0.114248
O5	O	1.493478	0.001364	0.114336
O6	O	1.300671	0.128797	0.114328
O7	O	1.666296	0.117590	0.114340
Zn8	Zn	1.483483	0.123193	0.150626
Zn9	Zn	1.483491	0.123195	-0.150538
O10	O	1.473489	0.245023	0.114332
C11	C	1.253887	0.127975	0.000037
C12	C	1.114475	0.125514	0.000032
C13	C	1.084514	0.277895	0.000013
C14	C	1.004039	0.352926	-0.000002
C15	C	0.873052	0.350609	-0.000003
C16	C	0.822537	0.273253	0.000015
C17	C	0.903011	0.198222	0.000030
C18	C	1.034000	0.200547	0.000027
C19	C	0.932972	0.045843	0.000059
C20	C	1.063961	0.048158	0.000050
C21	C	0.882458	-0.031513	0.000077
C22	C	0.962933	-0.106546	0.000082
C23	C	1.093928	-0.104226	0.000082
C24	C	1.144435	-0.026873	0.000065
C25	C	1.492655	-0.029835	0.000043
C26	C	1.490177	-0.122800	0.000035
C27	C	1.481280	-0.460599	0.000039
C28	C	1.343966	-0.413961	-0.000477
C29	C	1.346444	-0.317257	0.000038
C30	C	1.485693	-0.293013	0.000037
C31	C	1.553418	-0.333698	0.130567
C32	C	1.549969	-0.430354	0.130676
C33	C	1.552812	-0.430694	-0.129262
C34	C	1.552779	-0.333749	-0.130988
C35	C	1.488195	-0.198301	0.000039
C36	C	1.478783	-0.555311	0.000046
C37	C	1.713087	0.118413	0.000048
C38	C	1.852498	0.120874	0.000044
C39	C	1.474318	0.276223	0.000042
C40	C	1.476796	0.369188	0.000041
N41	N	1.483487	0.123192	0.356163
N42	N	1.483497	0.123190	-0.356075
C43	C	1.654287	0.010383	0.356160
C44	C	1.739695	-0.046019	0.428098
C45	C	1.739708	-0.046019	0.571978
C46	C	1.654301	0.010387	0.643922
C47	C	1.568892	0.066788	0.571984
C48	C	1.568891	0.066785	0.428101
C49	C	1.398088	0.179592	0.571987
C50	C	1.398079	0.179598	0.428107
C51	C	1.312681	0.235998	0.643932
C52	C	1.227276	0.292405	0.571993
C53	C	1.227268	0.292404	0.428105
C54	C	1.312671	0.236000	0.356169
H55	H	1.159444	-0.165325	0.000099
H56	H	1.292845	-0.289704	0.093763
H57	H	1.654295	0.010385	0.239005
H58	H	1.654053	-0.461868	-0.130141
H59	H	1.312676	0.235997	0.239014
H60	H	0.921792	-0.169523	0.000095
H61	H	1.191169	0.279789	-0.000016
N62	N	1.285714	-0.024376	0.000067
H63	H	1.311390	0.006091	-0.084672
H64	H	1.311281	0.006085	0.084853
H65	H	0.807528	0.411706	-0.000006
N66	N	1.058521	0.436357	-0.000017
H67	H	1.153712	0.426444	-0.000017
H68	H	1.029082	0.469216	-0.084761
H69	H	1.293208	-0.289143	-0.093531
H70	H	0.715878	0.271373	0.000030
N71	N	0.741180	-0.034018	0.000103
H72	H	0.697863	0.025251	0.000092
H73	H	0.715609	-0.064535	-0.084623
H74	H	1.809231	-0.091946	0.369508
H75	H	1.289086	-0.432811	-0.094083
N76	N	1.271576	-0.440328	0.122815
H77	H	1.327343	-0.482352	0.179003
H78	H	1.244192	-0.389377	0.180997
H79	H	1.809251	-0.091949	0.630550
N80	N	1.484549	-0.454985	0.259918
H81	H	1.458216	-0.403077	0.316283
H82	H	1.407471	-0.483385	0.234515
N83	N	1.654299	0.010386	0.799106
H84	H	1.636042	-0.046618	0.833764
H85	H	1.739631	0.023135	0.833652
N86	N	1.312685	0.235998	0.799115
H87	H	1.379752	0.191712	0.833774
H88	H	1.330897	0.293036	0.833651
H89	H	1.157738	0.338323	0.630580
N90	N	1.683499	-0.472304	0.138529
H91	H	1.744340	-0.427984	0.141911
H92	H	1.693547	-0.508131	0.224085
N93	N	1.688945	-0.314235	0.136981
H94	H	1.707787	-0.278767	0.055143
H95	H	1.702922	-0.282506	0.224453
H96	H	1.506375	-0.305590	0.227703
N97	N	1.493359	-0.458245	-0.260317
H98	H	1.419446	-0.490396	-0.237194
H99	H	1.463110	-0.407164	-0.316959
H100	H	1.503264	-0.306787	-0.227550
H101	H	1.157713	0.338330	0.369540
H102	H	1.654326	-0.317798	-0.138870
