data_functionalizedCrystal
_audit_creation_method	'MofGen! by Chris Wilmer'
_symmetry_space_group_name_H-M	'P1'
_symmetry_Int_Tables_number	1
_symmetry_cell_setting	triclinic
loop_
_symmetry_equiv_pos_as_xyz
  x,y,z
_cell_length_a	10.685901
_cell_length_b	15.299816
_cell_length_c	10.686551
_cell_angle_alpha	94.573802
_cell_angle_beta	89.651709
_cell_angle_gamma	75.321030
loop_
_atom_site_label
_atom_site_type_symbol
_atom_site_fract_x
_atom_site_fract_y
_atom_site_fract_z
Zn1	Zn	2.085358	-0.436981	-0.659048
Zn2	Zn	2.111016	-0.598760	-0.485269
Zn3	Zn	1.859045	-0.435283	-0.465046
Zn4	Zn	1.911473	-0.575664	-0.705961
O5	O	1.991723	-0.511672	-0.578831
O6	O	2.266984	-0.468817	-0.624826
O7	O	2.066388	-0.586030	-0.309036
O8	O	1.856387	-0.309053	-0.462685
O9	O	2.285834	-0.587676	-0.497151
O10	O	2.022658	-0.310300	-0.605217
O11	O	1.881266	-0.465924	-0.294178
O12	O	1.687777	-0.443529	-0.508174
O13	O	1.945742	-0.548312	-0.873288
O14	O	1.726296	-0.546666	-0.685173
O15	O	2.073495	-0.446422	-0.838822
O16	O	2.117225	-0.722152	-0.542641
O17	O	1.970621	-0.705183	-0.704782
C18	C	1.660825	-0.492407	-0.599571
C19	C	1.519274	-0.484186	-0.608478
C20	C	2.052433	-0.746457	-0.631021
C21	C	2.078524	-0.846903	-0.653383
C22	C	1.806108	-1.127775	-0.419379
C23	C	1.781587	-1.033400	-0.398373
C24	C	1.855820	-0.986771	-0.462123
C25	C	1.954576	-1.034526	-0.546884
C26	C	1.979092	-1.128910	-0.567900
C27	C	2.028804	-0.987906	-0.610644
C28	C	2.127560	-1.035662	-0.695405
C29	C	2.152072	-1.130036	-0.716416
C30	C	2.077840	-1.176665	-0.652666
C31	C	2.004288	-0.893523	-0.589628
C32	C	2.177272	-0.894658	-0.738149
C33	C	2.201792	-0.989033	-0.759155
C34	C	2.323912	-0.531012	-0.558011
C35	C	2.465472	-0.539254	-0.549139
C36	C	2.012605	-0.494980	-0.902313
C37	C	2.021504	-0.487867	-1.040162
C38	C	1.930812	-0.275971	-0.526462
C39	C	1.904856	-0.175529	-0.504145
C40	C	1.970978	-0.528238	-0.256589
C41	C	1.962260	-0.535111	-0.118668
H42	H	1.527702	-0.592692	-0.491532
O43	O	1.444842	-0.420459	-0.677122
C44	C	1.231183	-0.353951	-0.748991
C45	C	1.315319	-0.426145	-0.671186
H46	H	1.126453	-0.358536	-0.744240
H47	H	1.236894	-0.283646	-0.709552
H48	H	1.267946	-0.366269	-0.850866
H49	H	1.278615	-0.413912	-0.569298
H50	H	1.309604	-0.496426	-0.710728
O51	O	2.248089	-1.176292	-0.798751
C52	C	2.417045	-1.167452	-0.943881
C53	C	2.308362	-1.114959	-0.850656
H54	H	2.465788	-1.117885	-0.985893
H55	H	2.491559	-1.218400	-0.892685
H56	H	2.374180	-1.204936	-1.022152
H57	H	2.351111	-1.077421	-0.772363
H58	H	2.233864	-1.064064	-0.901942
H59	H	1.835850	-0.909927	-0.445013
H60	H	1.923879	-0.854648	-0.520615
H61	H	1.701180	-0.994520	-0.329363
O62	O	2.249276	-0.849397	-0.800276
C63	C	2.317078	-0.813157	-1.000968
C64	C	2.235467	-0.864449	-0.930770
H65	H	2.305963	-0.825323	-1.106486
H66	H	2.282596	-0.737483	-0.971492
H67	H	2.423180	-0.838744	-0.976885
H68	H	2.129347	-0.838938	-0.954818
H69	H	2.270057	-0.940115	-0.960253
O70	O	2.297871	-1.035398	-0.841354
C71	C	2.525799	-1.073568	-0.894617
C72	C	2.417126	-1.021037	-0.801407
H73	H	2.622239	-1.061960	-0.862369
H74	H	2.530682	-1.149048	-0.898682
H75	H	2.504905	-1.048532	-0.991869
H76	H	2.437944	-1.045996	-0.704109
H77	H	2.412271	-0.945565	-0.797451
H78	H	1.904736	-0.581003	-1.080424
O79	O	2.090039	-0.433127	-1.085987
C80	C	2.161801	-0.375957	-1.269781
C81	C	2.084123	-0.437968	-1.218051
H82	H	2.157066	-0.379864	-1.376562
H83	H	2.118978	-0.303060	-1.229680
H84	H	2.266955	-0.399089	-1.241391
H85	H	1.978958	-0.414917	-1.246423
H86	H	2.127051	-0.510851	-1.258147
H87	H	2.097803	-1.253513	-0.669760
O88	O	1.734167	-1.173213	-0.357525
C89	C	1.695226	-1.318106	-0.324147
C90	C	1.776825	-1.266762	-0.394265
H91	H	1.729666	-1.393747	-0.353845
H92	H	1.706419	-1.306105	-0.218613
H93	H	1.589109	-1.292459	-0.348139
H94	H	1.882972	-1.292377	-0.370377
H95	H	1.765522	-1.278763	-0.499781
