data_functionalizedCrystal
_audit_creation_method	'MofGen! by Chris Wilmer'
_symmetry_space_group_name_H-M	'P1'
_symmetry_Int_Tables_number	1
_symmetry_cell_setting	triclinic
loop_
_symmetry_equiv_pos_as_xyz
  x,y,z
_cell_length_a	10.540539
_cell_length_b	9.016244
_cell_length_c	10.540539
_cell_angle_alpha	89.999933
_cell_angle_beta	95.474508
_cell_angle_gamma	90.005301
loop_
_atom_site_label
_atom_site_type_symbol
_atom_site_fract_x
_atom_site_fract_y
_atom_site_fract_z
O1	O	1.685893	0.123263	-0.178895
O2	O	1.316480	0.123280	-0.195751
O3	O	1.509614	0.123269	-0.002617
O4	O	1.492759	0.123274	-0.372030
O5	O	1.509586	-0.123411	-0.002621
O6	O	1.316452	-0.123400	-0.195755
O7	O	1.685865	-0.123418	-0.178900
Cu8	Cu	1.501156	-0.145933	-0.187328
Cu9	Cu	1.501189	0.145795	-0.187323
O10	O	1.492730	-0.123407	-0.372034
C11	C	1.269163	-0.000058	-0.194489
C12	C	1.128215	-0.000051	-0.190707
N13	N	1.501141	-0.351119	-0.187331
C14	C	0.944788	-0.000628	-0.045790
C15	C	1.091406	-0.000057	-0.049624
C16	C	1.066558	0.140811	-0.258600
C17	C	0.920014	0.140914	-0.253785
C18	C	0.919493	-0.139608	-0.256660
C19	C	1.066475	-0.141455	-0.257960
C20	C	1.397510	-0.586146	-0.290298
C21	C	1.397739	-0.414255	-0.290684
C22	C	1.633864	-0.413464	-0.217464
C23	C	1.633298	-0.585409	-0.218193
C24	C	1.473367	-0.585663	-0.053892
C25	C	1.470322	-0.413709	-0.054757
C26	C	1.733182	-0.000077	-0.180161
C27	C	1.874130	-0.000074	-0.183943
C28	C	1.508336	-0.000068	0.044684
C29	C	1.504554	-0.000060	0.185632
N30	N	1.501213	0.350982	-0.187310
C31	C	1.494008	-0.000066	-0.419335
C32	C	1.497790	-0.000064	-0.560283
C33	C	1.359637	0.000500	0.369059
C34	C	1.363471	-0.000055	0.222441
C35	C	1.572434	-0.140930	0.247287
C36	C	1.567619	-0.141049	0.393832
C37	C	1.570520	0.139473	0.394355
C38	C	1.571820	0.141336	0.247373
H39	H	0.916191	-0.101649	0.009944
H40	H	1.088912	0.146054	-0.362208
H41	H	1.309661	-0.101200	0.180683
N42	N	1.733030	-0.362155	-0.125925
N43	N	1.706928	-0.278866	-0.037246
H44	H	1.776962	-0.242627	0.027408
H45	H	1.548979	-0.626319	0.022762
H46	H	1.415177	-0.629339	-0.388722
N47	N	1.296459	0.126626	0.169008
N48	N	1.246524	0.216066	0.239994
H49	H	1.199187	0.305536	0.202263
H50	H	1.298584	-0.627535	-0.272446
H51	H	1.672424	0.140416	0.441581
N52	N	1.504654	-0.273147	0.429195
N53	N	1.464564	-0.364609	0.345682
H54	H	1.420092	-0.457907	0.370650
H55	H	1.415639	-0.373108	-0.389668
H56	H	1.676041	-0.146173	0.224933
H57	H	1.090700	-0.149959	-0.360819
N58	N	1.354482	-0.640070	-0.017938
N59	N	1.267336	-0.551291	0.001486
H60	H	1.183366	-0.589710	0.026868
H61	H	1.134008	-0.101034	0.003797
N62	N	1.347842	-0.362609	-0.026072
N63	N	1.305232	-0.400164	0.075845
H64	H	1.218728	-0.364071	0.096102
H65	H	1.303918	0.101521	0.397661
H66	H	1.109159	0.245643	-0.211434
H67	H	0.887935	-0.246381	-0.211004
H68	H	1.674681	0.149837	0.223152
N69	N	1.694894	-0.149128	0.454022
N70	N	1.727475	-0.255492	0.525925
H71	H	1.817362	-0.261210	0.568432
N72	N	0.884635	0.272980	-0.190799
N73	N	0.829710	0.264216	-0.091074
H74	H	0.804729	0.357488	-0.046583
N75	N	1.665089	-0.359465	-0.338209
N76	N	1.682748	-0.448640	-0.425603
H77	H	1.704792	-0.410509	-0.510885
N78	N	1.663829	-0.635682	-0.340314
N79	N	1.594505	-0.600216	-0.438472
H80	H	1.616063	-0.635712	-0.524726
H81	H	0.914592	0.099828	0.009712
N82	N	1.733103	-0.637652	-0.127802
N83	N	1.707178	-0.717313	-0.036712
H84	H	1.777677	-0.754220	0.027104
N85	N	0.859848	0.148934	-0.381073
N86	N	0.926127	0.154449	-0.473178
H87	H	0.883641	0.160119	-0.563075
N88	N	1.117830	-0.272176	-0.195713
N89	N	1.199601	-0.261355	-0.102169
H90	H	1.235878	-0.353674	-0.058204
H91	H	1.540849	-0.370737	0.025564
N92	N	1.290000	-0.125513	0.406961
N93	N	1.341676	-0.215734	0.485784
H94	H	1.292499	-0.304734	0.512557
H95	H	1.525258	-0.245756	0.204686
N96	N	1.509585	0.272064	0.196020
N97	N	1.416039	0.261253	0.114251
H98	H	1.372081	0.353578	0.077975
H99	H	1.133163	0.101092	0.004177
H100	H	1.524871	0.246244	0.425910
H101	H	1.299123	-0.372106	-0.272553
N102	N	0.860245	-0.140785	-0.384494
N103	N	0.784922	-0.039415	-0.422031
H104	H	0.743072	-0.040235	-0.512310
