data_functionalizedCrystal
_audit_creation_method	'MofGen! by Chris Wilmer'
_symmetry_space_group_name_H-M	'P1'
_symmetry_Int_Tables_number	1
_symmetry_cell_setting	triclinic
loop_
_symmetry_equiv_pos_as_xyz
  x,y,z
_cell_length_a	15.712078
_cell_length_b	15.624884
_cell_length_c	9.730223
_cell_angle_alpha	71.912340
_cell_angle_beta	90.004280
_cell_angle_gamma	78.979020
loop_
_atom_site_label
_atom_site_type_symbol
_atom_site_fract_x
_atom_site_fract_y
_atom_site_fract_z
O1	O	0.112795	-1.233485	0.729229
O2	O	0.126265	-0.975433	0.600582
O3	O	-0.006337	-1.070129	0.647784
O4	O	0.245396	-1.138789	0.682027
O5	O	-0.006343	-1.070125	0.419203
O6	O	0.126258	-0.975429	0.372001
O7	O	0.112788	-1.233481	0.500647
Zn8	Zn	0.119522	-1.104454	0.400032
Zn9	Zn	0.119531	-1.104460	0.701198
O10	O	0.245389	-1.138785	0.453445
C11	C	0.125655	-0.941641	0.469446
C12	C	0.123837	-0.840953	0.419250
C13	C	0.117829	-0.509894	0.877292
C14	C	0.116104	-0.415280	0.830122
C15	C	0.116097	-0.415253	0.580920
C16	C	0.117818	-0.509868	0.628069
C17	C	0.118685	-0.557182	0.776257
C18	C	0.118673	-0.557156	0.527034
C19	C	0.120398	-0.651764	0.574180
C20	C	0.121268	-0.699084	0.722362
C21	C	0.120410	-0.651790	0.823404
C22	C	0.117812	-0.509842	0.378847
C23	C	0.118667	-0.557129	0.277811
C24	C	0.120387	-0.651737	0.324957
C25	C	0.121256	-0.699058	0.473139
C26	C	0.121245	-0.699032	0.223916
C27	C	0.122970	-0.793640	0.271062
C28	C	0.122982	-0.793666	0.520286
C29	C	-0.038555	-1.058911	0.527903
C30	C	-0.134548	-1.025478	0.511239
C31	C	-0.501327	-1.309330	0.652762
C32	C	-0.591524	-1.277894	0.637090
C33	C	-0.571084	-1.120377	0.558563
C34	C	-0.480884	-1.151800	0.574222
C35	C	-0.446013	-1.246277	0.621323
C36	C	-0.425569	-1.088746	0.542783
C37	C	-0.335377	-1.120167	0.558449
C38	C	-0.300499	-1.214641	0.605552
C39	C	-0.355820	-1.277698	0.636989
C40	C	-0.460442	-0.994269	0.495692
C41	C	-0.405127	-0.931216	0.464253
C42	C	-0.314933	-0.962636	0.479909
C43	C	-0.280055	-1.057110	0.527012
C44	C	-0.259611	-0.899579	0.448472
C45	C	-0.169419	-0.931000	0.464137
C46	C	-0.189862	-1.088531	0.542677
C47	C	0.277608	-1.150003	0.573330
C48	C	0.373601	-1.183436	0.590003
C49	C	0.113404	-0.267274	0.631780
C50	C	0.115240	-0.367965	0.681965
N51	N	0.119530	-1.104461	0.906736
N52	N	0.119516	-1.104457	0.194497
C53	C	0.060928	-1.146544	0.999638
C54	C	0.060923	-1.146545	1.143521
C55	C	0.178124	-1.062374	1.101584
C56	C	0.178133	-1.062379	0.957706
C57	C	0.002325	-1.188626	0.948667
C58	C	-0.056282	-1.230711	1.041571
C59	C	-0.056288	-1.230712	1.185454
C60	C	0.002314	-1.188628	1.236434
H61	H	0.123685	-0.832191	0.640955
F62	F	0.240507	-1.017593	0.858832
F63	F	-0.152746	-1.189086	0.592770
F64	F	0.123108	-0.799776	0.772541
F65	F	-0.118640	-1.275506	0.987317
H66	H	-0.104002	-1.264986	1.261100
F67	F	-0.556434	-0.960830	0.478933
H68	H	0.117964	-0.518594	0.157156
H69	H	-0.433532	-0.854291	0.425908
H70	H	0.002311	-1.188640	1.353599
F71	F	-0.296735	-0.799032	0.398368
H72	H	-0.124380	-0.879655	0.438535
F73	F	0.115178	-0.364890	0.423212
H74	H	0.225835	-1.028110	1.143101
H75	H	0.116413	-0.432807	0.340465
H76	H	0.002323	-1.188626	0.831511
F77	F	-0.608206	-1.019829	0.508446
F78	F	0.115197	-0.364957	0.937670
F79	F	0.118742	-0.560252	1.035011
F80	F	0.121323	-0.702147	0.981123
H81	H	0.120547	-0.660497	0.103261
F82	F	0.123882	-0.843970	0.163530
H83	H	-0.227058	-1.240222	0.618306
F84	F	-0.464210	-1.409885	0.702855
F85	F	-0.318703	-1.378253	0.687082
H86	H	-0.636560	-1.329247	0.662703
