data_functionalizedCrystal
_audit_creation_method	'MofGen! by Chris Wilmer'
_symmetry_space_group_name_H-M	'P1'
_symmetry_Int_Tables_number	1
_symmetry_cell_setting	triclinic
loop_
_symmetry_equiv_pos_as_xyz
  x,y,z
_cell_length_a	14.971486
_cell_length_b	10.654550
_cell_length_c	14.048226
_cell_angle_alpha	89.994756
_cell_angle_beta	89.998499
_cell_angle_gamma	84.049516
loop_
_atom_site_label
_atom_site_type_symbol
_atom_site_fract_x
_atom_site_fract_y
_atom_site_fract_z
O1	O	1.187838	0.163659	-0.079049
O2	O	0.927544	0.183257	-0.079074
O3	O	1.063675	-0.009345	-0.079057
O4	O	1.051706	0.356262	-0.079066
O5	O	1.063659	-0.009357	0.079264
O6	O	0.927527	0.183246	0.079247
O7	O	1.187821	0.163648	0.079273
Zn8	Zn	1.057672	0.173445	0.104397
Zn9	Zn	1.057693	0.173460	-0.104198
O10	O	1.051690	0.356250	0.079256
C11	C	0.894206	0.182375	0.000083
C12	C	0.794895	0.179749	0.000073
C13	C	0.738285	0.292898	0.000072
C14	C	0.644972	0.290422	0.000086
C15	C	0.608271	0.174797	0.000095
C16	C	0.664888	0.061639	0.000099
C17	C	0.758199	0.064116	0.000092
C18	C	0.470397	0.056485	0.000112
C19	C	0.377080	0.054007	0.000118
C20	C	0.357171	0.282791	0.000107
C21	C	0.450482	0.285268	0.000100
C22	C	0.507092	0.172110	0.000102
C23	C	1.062788	-0.056139	0.000102
C24	C	1.060159	-0.195555	0.000099
C25	C	1.140311	-0.275900	0.000109
C26	C	1.137835	-0.406894	0.000102
C27	C	0.975048	-0.377185	0.000078
C28	C	0.977525	-0.246193	0.000078
C29	C	1.234295	-0.293054	0.000128
C30	C	1.231819	-0.424048	0.000121
C31	C	1.221159	0.164530	0.000113
C32	C	1.320470	0.167156	0.000117
C33	C	1.052577	0.403044	0.000094
C34	C	1.055206	0.542460	0.000092
N35	N	1.057663	0.173434	0.246758
N36	N	1.057709	0.173461	-0.246559
C37	C	1.117962	0.088185	0.296583
C38	C	1.117968	0.088184	0.396241
C39	C	1.057679	0.173440	0.446071
C40	C	0.997374	0.258693	0.396238
C41	C	0.997365	0.258687	0.296583
C42	C	0.997400	0.258702	0.603953
C43	C	0.997411	0.258710	0.703615
C44	C	1.118003	0.088200	0.703611
C45	C	1.117993	0.088193	0.603955
C46	C	1.057690	0.173448	0.554129
H47	H	0.768160	0.387053	0.000064
C48	C	0.490852	0.412458	0.000091
C49	C	0.469813	0.506480	0.082303
C50	C	0.510181	0.633673	0.082299
C51	C	0.571588	0.666844	0.000082
C52	C	0.592629	0.572820	-0.082137
C53	C	0.552261	0.445627	-0.082132
H54	H	0.424353	0.481927	0.143171
H55	H	0.494604	0.703275	0.143163
H56	H	0.601470	0.761000	0.000078
H57	H	0.638089	0.597374	-0.143005
H58	H	0.567838	0.376025	-0.142996
H59	H	0.598884	0.382560	0.000084
H60	H	1.271062	-0.264085	-0.066121
C61	C	1.274723	-0.245352	0.092474
C62	C	1.306811	-0.339436	0.171605
C63	C	1.347238	-0.291733	0.263951
C64	C	1.355577	-0.149945	0.277166
C65	C	1.323488	-0.055852	0.198033
C66	C	1.283061	-0.103555	0.105687
H67	H	1.300638	-0.444404	0.161824
H68	H	1.370992	-0.361388	0.322531
H69	H	1.385504	-0.114632	0.345526
H70	H	1.329661	0.049116	0.207813
H71	H	1.259307	-0.033900	0.047107
C72	C	1.184334	-0.005587	0.758417
C73	C	1.148803	-0.101716	0.826940
C74	C	1.215134	-0.195492	0.881752
C75	C	1.316997	-0.193139	0.868042
C76	C	1.352534	-0.097006	0.799517
C77	C	1.286203	-0.003230	0.744704
H78	H	1.073393	-0.103461	0.837091
H79	H	1.188827	-0.266656	0.932479
H80	H	1.366100	-0.262558	0.908618
H81	H	1.427944	-0.095261	0.789365
H82	H	1.312510	0.067934	0.693977
H83	H	1.167066	0.018767	0.436808
C84	C	0.532672	-0.067988	0.000113
C85	C	0.528064	-0.162710	0.082325
C86	C	0.590340	-0.287178	0.082320
C87	C	0.657224	-0.316923	0.000104
C88	C	0.661835	-0.222198	-0.082114
C89	C	0.599559	-0.097730	-0.082110
H90	H	0.478550	-0.140693	0.143192
H91	H	0.586926	-0.357299	0.143184
H92	H	0.703325	-0.409061	0.000100
H93	H	0.711350	-0.244214	-0.142982
H94	H	0.602973	-0.027609	-0.142974
H95	H	1.260229	-0.469991	-0.068235
C96	C	0.931037	0.352465	0.241771
C97	C	0.864751	0.446289	0.296579
C98	C	0.798418	0.540066	0.241770
C99	C	0.798370	0.540019	0.132152
C100	C	0.864658	0.446192	0.077338
C101	C	0.930991	0.352415	0.132148
H102	H	0.864785	0.446327	0.377730
H103	H	0.749347	0.609524	0.282348
H104	H	0.749266	0.609439	0.091579
H105	H	0.864624	0.446154	-0.003813
H106	H	0.980062	0.282957	0.091570
H107	H	1.267224	-0.466193	0.066380
C108	C	1.184310	-0.005584	0.549136
C109	C	1.181931	-0.148599	0.562845
C110	C	1.248246	-0.242379	0.508025
C111	C	1.316940	-0.193145	0.439496
C112	C	1.319322	-0.050123	0.425785
C113	C	1.253007	0.043657	0.480605
H114	H	1.131078	-0.185052	0.613576
H115	H	1.246483	-0.348254	0.518175
H116	H	1.366030	-0.262567	0.398915
H117	H	1.370175	-0.013670	0.375053
H118	H	1.254770	0.149532	0.470454
H119	H	0.347201	-0.040145	0.000126
C120	C	0.931086	0.352485	0.758426
C121	C	0.829221	0.350119	0.744743
C122	C	0.762894	0.443896	0.799551
C123	C	0.798431	0.540038	0.868043
C124	C	0.900301	0.542408	0.881729
C125	C	0.966628	0.448631	0.826921
H126	H	0.802910	0.278946	0.694038
H127	H	0.687483	0.442141	0.789419
H128	H	0.749332	0.609457	0.908615
H129	H	0.926613	0.613582	0.932434
H130	H	1.042039	0.450386	0.837053
H131	H	0.311074	0.374929	0.000109
H132	H	0.634998	-0.032505	0.000120
H133	H	0.804290	-0.028022	0.000092
H134	H	0.907770	-0.418431	0.000061
H135	H	0.912257	-0.180779	0.000056
H136	H	0.948281	0.328105	0.436816
H137	H	1.167059	0.018765	0.256018
H138	H	0.948291	0.328122	0.563388
