data_functionalizedCrystal
_audit_creation_method	'MofGen! by Chris Wilmer'
_symmetry_space_group_name_H-M	'P1'
_symmetry_Int_Tables_number	1
_symmetry_cell_setting	triclinic
loop_
_symmetry_equiv_pos_as_xyz
  x,y,z
_cell_length_a	19.121063
_cell_length_b	18.215407
_cell_length_c	18.215399
_cell_angle_alpha	90.018561
_cell_angle_beta	92.409843
_cell_angle_gamma	87.539312
loop_
_atom_site_label
_atom_site_type_symbol
_atom_site_fract_x
_atom_site_fract_y
_atom_site_fract_z
Zn1	Zn	-0.279774	-1.112552	-0.428578
Zn2	Zn	-0.029774	-0.862552	-0.178578
Zn3	Zn	0.220226	-0.612552	0.071422
Zn4	Zn	0.470226	-0.362552	0.321422
Zn5	Zn	-0.397229	-1.107204	-0.310755
Zn6	Zn	-0.147229	-0.857204	-0.060755
Zn7	Zn	0.102771	-0.607204	0.189245
Zn8	Zn	0.352771	-0.357204	0.439245
Zn9	Zn	-0.279780	-0.989484	-0.305529
Zn10	Zn	-0.029780	-0.739484	-0.055529
Zn11	Zn	0.220220	-0.489484	0.194471
Zn12	Zn	0.470220	-0.239484	0.444471
Zn13	Zn	-0.397172	-0.984197	-0.433780
Zn14	Zn	-0.147172	-0.734197	-0.183780
Zn15	Zn	0.102828	-0.484197	0.066220
Zn16	Zn	0.352828	-0.234197	0.316220
O17	O	-0.338489	-1.048359	-0.369660
O18	O	-0.088489	-0.798359	-0.119660
O19	O	0.161511	-0.548359	0.130340
O20	O	0.411511	-0.298359	0.380340
O21	O	-0.295377	-1.214826	-0.412959
O22	O	-0.045377	-0.964826	-0.162959
O23	O	0.204623	-0.714826	0.087041
O24	O	0.454623	-0.464826	0.337041
O25	O	-0.381675	-1.091563	-0.207078
O26	O	-0.131675	-0.841563	0.042922
O27	O	0.118325	-0.591563	0.292922
O28	O	0.368325	-0.341563	0.542922
O29	O	-0.181495	-1.010260	-0.317488
O30	O	0.068505	-0.760260	-0.067488
O31	O	0.318505	-0.510260	0.182512
O32	O	0.568505	-0.260260	0.432512
O33	O	-0.381670	-1.210897	-0.326394
O34	O	-0.131670	-0.960897	-0.076394
O35	O	0.118330	-0.710897	0.173606
O36	O	0.368330	-0.460897	0.423606
O37	O	-0.181491	-1.100678	-0.407892
O38	O	0.068509	-0.850678	-0.157892
O39	O	0.318509	-0.600678	0.092108
O40	O	0.568509	-0.350678	0.342108
O41	O	-0.295385	-1.005075	-0.203239
O42	O	-0.045385	-0.755075	0.046761
O43	O	0.204615	-0.505075	0.296761
O44	O	0.454615	-0.255075	0.546761
O45	O	-0.295330	-0.885800	-0.322531
O46	O	-0.045330	-0.635800	-0.072531
O47	O	0.204670	-0.385800	0.177469
O48	O	0.454670	-0.135800	0.427469
O49	O	-0.381573	-1.001249	-0.536073
O50	O	-0.131573	-0.751249	-0.286073
O51	O	0.118427	-0.501249	-0.036073
O52	O	0.368427	-0.251249	0.213927
O53	O	-0.381578	-0.881915	-0.416757
O54	O	-0.131578	-0.631915	-0.166757
O55	O	0.118422	-0.381915	0.083243
O56	O	0.368422	-0.131915	0.333243
O57	O	-0.295321	-1.095551	-0.532252
O58	O	-0.045321	-0.845551	-0.282252
O59	O	0.204679	-0.595551	-0.032252
O60	O	0.454679	-0.345551	0.217748
O61	O	-0.495505	-1.086436	-0.331438
O62	O	-0.245505	-0.836436	-0.081438
O63	O	0.004495	-0.586436	0.168562
O64	O	0.254495	-0.336436	0.418562
O65	O	-0.495463	-0.996063	-0.421824
O66	O	-0.245463	-0.746063	-0.171824
O67	O	0.004537	-0.496063	0.078176
O68	O	0.254537	-0.246063	0.328176
C69	C	-0.338449	-0.857155	-0.369642
C70	C	-0.088449	-0.607155	-0.119642
C71	C	0.161551	-0.357155	0.130358
C72	C	0.411551	-0.107155	0.380358
C73	C	-0.338449	-0.775356	-0.369652
C74	C	-0.088449	-0.525356	-0.119652
C75	C	0.161551	-0.275356	0.130348
C76	C	0.411551	-0.025356	0.380348
C77	C	-0.293617	-0.512334	-0.414805
C78	C	-0.043617	-0.262334	-0.164805
C79	C	0.206383	-0.012334	0.085195
C80	C	0.456383	0.237666	0.335195
C81	C	-0.293610	-0.589193	-0.414804
C82	C	-0.043610	-0.339193	-0.164804
C83	C	0.206390	-0.089193	0.085196
C84	C	0.456390	0.160807	0.335196
C85	C	-0.383336	-0.585127	-0.324517
C86	C	-0.133336	-0.335127	-0.074517
C87	C	0.116664	-0.085127	0.175483
C88	C	0.366664	0.164873	0.425483
C89	C	-0.383347	-0.508269	-0.324523
C90	C	-0.133347	-0.258269	-0.074523
C91	C	0.116653	-0.008269	0.175477
C92	C	0.366653	0.241731	0.425477
C93	C	-0.338484	-0.471875	-0.369666
C94	C	-0.088484	-0.221875	-0.119666
C95	C	0.161516	0.028125	0.130334
C96	C	0.411516	0.278125	0.380334
C97	C	-0.338465	-0.625592	-0.369658
C98	C	-0.088465	-0.375592	-0.119658
C99	C	0.161535	-0.125592	0.130342
C100	C	0.411535	0.124408	0.380342
C101	C	-0.338457	-0.708926	-0.369656
C102	C	-0.088457	-0.458926	-0.119656
C103	C	0.161543	-0.208926	0.130344
C104	C	0.411543	0.041074	0.380344
C105	C	-0.338493	-0.388535	-0.369670
C106	C	-0.088493	-0.138535	-0.119670
C107	C	0.161507	0.111465	0.130330
C108	C	0.411507	0.361465	0.380330
C109	C	-0.520968	-1.040116	-0.377779
C110	C	-0.270968	-0.790116	-0.127779
C111	C	-0.020968	-0.540116	0.122221
C112	C	0.229032	-0.290116	0.372221
C113	C	-0.599034	-1.036656	-0.381276
C114	C	-0.349034	-0.786656	-0.131276
C115	C	-0.099034	-0.536656	0.118724
C116	C	0.150966	-0.286656	0.368724
C117	C	-0.635708	-1.082120	-0.335899
C118	C	-0.385708	-0.832120	-0.085899
C119	C	-0.135708	-0.582120	0.164101
C120	C	0.114292	-0.332120	0.414101
C121	C	-0.709058	-1.078871	-0.339193
C122	C	-0.459058	-0.828871	-0.089193
C123	C	-0.209058	-0.578871	0.160807
C124	C	0.040942	-0.328871	0.410807
C125	C	-0.745734	-1.030154	-0.387861
C126	C	-0.495734	-0.780154	-0.137861
C127	C	-0.245734	-0.530154	0.112139
C128	C	0.004266	-0.280154	0.362139
C129	C	-0.709055	-0.984688	-0.433242
C130	C	-0.459055	-0.734688	-0.183242
C131	C	-0.209055	-0.484688	0.066758
C132	C	0.040945	-0.234688	0.316758
C133	C	-0.635706	-0.987942	-0.429952
C134	C	-0.385706	-0.737942	-0.179952
C135	C	-0.135706	-0.487942	0.070048
C136	C	0.114294	-0.237942	0.320048
C137	C	-0.967202	-1.017978	-0.400152
C138	C	-0.717202	-0.767978	-0.150152
C139	C	-0.467202	-0.517978	0.099848
C140	C	-0.217202	-0.267978	0.349848
C141	C	-1.040557	-1.014727	-0.403437
C142	C	-0.790557	-0.764727	-0.153437
C143	C	-0.540557	-0.514727	0.096563
C144	C	-0.290557	-0.264727	0.346563
C145	C	-1.040555	-1.108911	-0.309388
C146	C	-0.790555	-0.858911	-0.059388
C147	C	-0.540555	-0.608911	0.190612
C148	C	-0.290555	-0.358911	0.440612
C149	C	-0.967204	-1.112157	-0.306099
C150	C	-0.717204	-0.862157	-0.056099
C151	C	-0.467204	-0.612157	0.193901
C152	C	-0.217204	-0.362157	0.443901
C153	C	-0.930532	-1.066694	-0.351484
C154	C	-0.680532	-0.816694	-0.101484
C155	C	-0.430532	-0.566694	0.148516
C156	C	-0.180532	-0.316694	0.398516
C157	C	-0.820711	-1.026830	-0.391227
C158	C	-0.570711	-0.776830	-0.141227
C159	C	-0.320711	-0.526830	0.108773
C160	C	-0.070711	-0.276830	0.358773
C161	C	-0.855557	-1.070022	-0.348121
C162	C	-0.605557	-0.820022	-0.098121
C163	C	-0.355557	-0.570022	0.151879
C164	C	-0.105557	-0.320022	0.401879
C165	C	-0.155296	-1.056655	-0.361527
C166	C	0.094704	-0.806655	-0.111527
C167	C	0.344704	-0.556655	0.138473
C168	C	0.594704	-0.306655	0.388473
C169	C	-0.077231	-1.060191	-0.358060
C170	C	0.172769	-0.810191	-0.108060
C171	C	0.422769	-0.560191	0.141940
C172	C	0.672769	-0.310191	0.391940
C173	C	-0.338440	-1.048406	-0.561611
C174	C	-0.088440	-0.798406	-0.311611
C175	C	0.161560	-0.548406	-0.061611
C176	C	0.411560	-0.298406	0.188389
C177	C	-0.338420	-1.048426	-0.643409
C178	C	-0.088420	-0.798426	-0.393409
C179	C	0.161580	-0.548426	-0.143409
C180	C	0.411580	-0.298426	0.106591
C181	C	-0.338517	-0.240311	-0.369676
C182	C	-0.088517	0.009689	-0.119676
C183	C	0.161483	0.259689	0.130324
C184	C	0.411483	0.509689	0.380324
C185	C	-0.338500	-0.322111	-0.369673
C186	C	-0.088500	-0.072111	-0.119673
C187	C	0.161500	0.177889	0.130327
C188	C	0.411500	0.427889	0.380327
C189	C	-0.293467	-1.097548	-0.829613
C190	C	-0.043467	-0.847548	-0.579613
C191	C	0.206533	-0.597548	-0.329613
C192	C	0.456533	-0.347548	-0.079613
C193	C	-0.293446	-1.097558	-0.906471
C194	C	-0.043446	-0.847558	-0.656471
C195	C	0.206554	-0.597558	-0.406471
C196	C	0.456554	-0.347558	-0.156471
C197	C	-0.383264	-0.999361	-0.910439
C198	C	-0.133264	-0.749361	-0.660439
C199	C	0.116736	-0.499361	-0.410439
C200	C	0.366736	-0.249361	-0.160439
C201	C	-0.383280	-0.999349	-0.833582
C202	C	-0.133280	-0.749349	-0.583582
C203	C	0.116720	-0.499349	-0.333582
C204	C	0.366720	-0.249349	-0.083582
C205	C	-0.338383	-1.048446	-0.793171
C206	C	-0.088383	-0.798446	-0.543171
C207	C	0.161617	-0.548446	-0.293171
C208	C	0.411617	-0.298446	-0.043171
C209	C	-0.338346	-1.048469	-0.946886
C210	C	-0.088346	-0.798469	-0.696886
C211	C	0.161654	-0.548469	-0.446886
C212	C	0.411654	-0.298469	-0.196886
C213	C	-0.338324	-1.048479	-1.030218
C214	C	-0.088324	-0.798479	-0.780218
C215	C	0.161676	-0.548479	-0.530218
C216	C	0.411676	-0.298479	-0.280218
C217	C	-0.338403	-1.048435	-0.709833
C218	C	-0.088403	-0.798435	-0.459833
C219	C	0.161597	-0.548435	-0.209833
C220	C	0.411597	-0.298435	0.040167
C221	C	-0.338486	-1.048357	-0.178454
C222	C	-0.088486	-0.798357	0.071546
C223	C	0.161514	-0.548357	0.321546
C224	C	0.411514	-0.298357	0.571546
C225	C	-0.338309	-1.048489	-0.096648
C226	C	-0.088309	-0.798489	0.153352
C227	C	0.161691	-0.548489	0.403352
C228	C	0.411691	-0.298489	0.653352
H229	H	-0.419887	-0.475326	-0.287765
H230	H	-0.169887	-0.225326	-0.037765
H231	H	0.080113	0.024674	0.212235
H232	H	0.330113	0.274674	0.462235
H233	H	-0.605851	-1.121787	-0.296266
H234	H	-0.355851	-0.871787	-0.046266
H235	H	-0.105851	-0.621787	0.203734
H236	H	0.144149	-0.371787	0.453734
Br237	Br	-1.090331	-0.948594	-0.469478
Br238	Br	-0.840331	-0.698594	-0.219478
Br239	Br	-0.590331	-0.448594	0.030522
Br240	Br	-0.340331	-0.198594	0.280522
H241	H	-0.738915	-1.115892	-0.302242
H242	H	-0.488915	-0.865892	-0.052242
H243	H	-0.238915	-0.615892	0.197758
H244	H	0.011085	-0.365892	0.447758
H245	H	-0.738922	-0.945025	-0.472872
H246	H	-0.488922	-0.695025	-0.222872
H247	H	-0.238922	-0.445025	0.027128
H248	H	0.011078	-0.195025	0.277128
H249	H	-0.256870	-1.137540	-0.936138
H250	H	-0.006870	-0.887540	-0.686138
H251	H	0.243130	-0.637540	-0.436138
H252	H	0.493130	-0.387540	-0.186138
H253	H	-0.937349	-0.980959	-0.437104
H254	H	-0.687349	-0.730959	-0.187104
H255	H	-0.437349	-0.480959	0.062896
H256	H	-0.187349	-0.230959	0.312896
H257	H	-0.257087	-0.482704	-0.451563
H258	H	-0.007087	-0.232704	-0.201563
H259	H	0.242913	0.017296	0.048437
H260	H	0.492913	0.267296	0.298437
H261	H	-0.257076	-0.622132	-0.451561
H262	H	-0.007076	-0.372132	-0.201561
H263	H	0.242924	-0.122132	0.048439
H264	H	0.492924	0.127868	0.298439
Br265	Br	-0.585933	-0.926243	-0.491542
Br266	Br	-0.335933	-0.676243	-0.241542
Br267	Br	-0.085933	-0.426243	0.008458
Br268	Br	0.164067	-0.176243	0.258458
Br269	Br	-0.444218	-0.634524	-0.263253
Br270	Br	-0.194218	-0.384524	-0.013253
Br271	Br	0.055782	-0.134524	0.236747
Br272	Br	0.305782	0.115476	0.486747
H273	H	-0.825693	-1.109691	-0.308498
H274	H	-0.575693	-0.859691	-0.058498
H275	H	-0.325693	-0.609691	0.191502
H276	H	-0.075693	-0.359691	0.441502
H277	H	-0.419820	-0.959390	-0.943351
H278	H	-0.169820	-0.709390	-0.693351
H279	H	0.080180	-0.459390	-0.443351
H280	H	0.330180	-0.209390	-0.193351
H281	H	-1.070422	-1.145925	-0.272440
H282	H	-0.820422	-0.895925	-0.022440
H283	H	-0.570422	-0.645925	0.227560
H284	H	-0.320422	-0.395925	0.477560
Br285	Br	-0.917435	-1.178285	-0.240057
Br286	Br	-0.667435	-0.928285	0.009943
Br287	Br	-0.417435	-0.678285	0.259943
Br288	Br	-0.167435	-0.428285	0.509943
Br289	Br	-0.870491	-0.960717	-0.457275
Br290	Br	-0.620491	-0.710717	-0.207275
Br291	Br	-0.370491	-0.460717	0.042725
Br292	Br	-0.120491	-0.210717	0.292725
Br293	Br	-0.444236	-0.932699	-0.784121
Br294	Br	-0.194236	-0.682699	-0.534121
Br295	Br	0.055764	-0.432699	-0.284121
Br296	Br	0.305764	-0.182699	-0.034121
Br297	Br	-0.232533	-1.164179	-0.774771
Br298	Br	0.017467	-0.914179	-0.524771
Br299	Br	0.267467	-0.664179	-0.274771
Br300	Br	0.517467	-0.414179	-0.024771
