data_functionalizedCrystal
_audit_creation_method	'MofGen! by Chris Wilmer'
_symmetry_space_group_name_H-M	'P1'
_symmetry_Int_Tables_number	1
_symmetry_cell_setting	triclinic
loop_
_symmetry_equiv_pos_as_xyz
  x,y,z
_cell_length_a	12.759395
_cell_length_b	8.497365
_cell_length_c	12.759393
_cell_angle_alpha	90.048031
_cell_angle_beta	89.985328
_cell_angle_gamma	89.969074
loop_
_atom_site_label
_atom_site_type_symbol
_atom_site_fract_x
_atom_site_fract_y
_atom_site_fract_z
Zn1	Zn	1.606387	-0.891926	0.418007
Zn2	Zn	1.606242	-0.628144	0.593786
Zn3	Zn	1.430650	-0.628161	0.418121
Zn4	Zn	1.430677	-0.891884	0.593644
O5	O	1.518489	-0.760029	0.505889
O6	O	1.753389	-0.856946	0.441336
O7	O	1.582877	-0.407384	0.570590
O8	O	1.454011	-0.663175	0.271085
O9	O	1.753282	-0.663147	0.570480
O10	O	1.583124	-0.856962	0.271001
O11	O	1.453870	-0.407396	0.441530
O12	O	1.283632	-0.663133	0.441393
O13	O	1.454057	-1.112652	0.570239
O14	O	1.283652	-0.856889	0.570349
O15	O	1.583151	-1.112683	0.441199
O16	O	1.582904	-0.663105	0.740788
O17	O	1.453917	-0.856873	0.740684
C18	C	1.245521	-0.760009	0.505869
C19	C	1.128745	-0.760038	0.505885
C20	C	1.128836	-0.962168	0.371625
C21	C	1.074022	-1.063245	0.304507
C22	C	0.964300	-1.063265	0.304526
C23	C	0.909391	-0.962193	0.371667
C24	C	0.964206	-0.861116	0.438784
C25	C	1.073930	-0.861110	0.438761
C26	C	0.964114	-0.658981	0.573038
C27	C	1.073836	-0.658966	0.573026
C28	C	0.909205	-0.557909	0.640179
C29	C	0.964020	-0.456837	0.707303
C30	C	1.073748	-0.456822	0.707283
C31	C	1.128651	-0.557889	0.640143
C32	C	1.518426	-0.760017	0.778857
C33	C	1.518495	-0.760065	0.895634
C34	C	1.652910	-0.558445	0.895689
C35	C	1.720145	-0.457659	0.950577
C36	C	1.720206	-0.457713	1.060298
C37	C	1.653028	-0.558567	1.115134
C38	C	1.585793	-0.659353	1.060246
C39	C	1.585737	-0.659285	0.950522
C40	C	1.451386	-0.860978	1.060191
C41	C	1.451317	-0.860919	0.950470
C42	C	1.384207	-0.961832	1.115027
C43	C	1.316966	-1.062612	1.060139
C44	C	1.316906	-1.062553	0.950411
C45	C	1.384082	-0.961705	0.895581
C46	C	1.792522	-0.760049	0.505911
C47	C	1.909299	-0.760058	0.505920
C48	C	1.518581	-0.760099	1.231856
C49	C	1.518620	-0.760192	1.115079
C50	C	1.518413	-0.350149	0.506004
C51	C	1.518563	-0.171505	0.505788
H52	H	0.919304	-0.374545	0.761959
H53	H	1.653093	-0.558615	1.204475
C54	C	1.794041	-0.346728	0.890257
C55	C	1.793981	-0.346657	0.769567
C56	C	1.867881	-0.235732	0.709252
C57	C	1.941841	-0.124878	0.769627
C58	C	1.941904	-0.124946	0.890324
C59	C	1.868004	-0.235870	0.950639
H60	H	1.739229	-0.428721	0.724868
H61	H	1.867834	-0.235683	0.619904
H62	H	1.996547	-0.042765	0.724978
H63	H	1.996656	-0.042881	0.935023
H64	H	1.868051	-0.235919	1.039987
H65	H	0.919670	-1.145562	0.249867
C66	C	1.134422	-1.174411	0.230647
C67	C	1.255112	-1.174396	0.230616
C68	C	1.315508	-1.285552	0.156750
C69	C	1.255213	-1.396721	0.082916
C70	C	1.134517	-1.396740	0.082945
C71	C	1.074121	-1.285584	0.156810
H72	H	1.299751	-1.092098	0.285275
H73	H	1.404856	-1.285538	0.156729
H74	H	1.299922	-1.479005	0.028236
H75	H	1.089877	-1.479038	0.028286
H76	H	0.984773	-1.285598	0.156831
H77	H	1.218178	-0.962155	0.371598
H78	H	0.820050	-0.962205	0.371668
H79	H	0.819864	-0.557927	0.640186
H80	H	1.118372	-0.374507	0.761934
H81	H	1.384267	-0.961875	1.204368
H82	H	1.217992	-0.557879	0.640115
H83	H	1.652853	-0.558371	0.806347
H84	H	1.774960	-0.375652	1.104988
H85	H	1.262280	-1.144726	1.104795
H86	H	1.262160	-1.144631	0.905726
H87	H	1.384033	-0.961637	0.806240
