data_functionalizedCrystal
_audit_creation_method	'MofGen! by Chris Wilmer'
_symmetry_space_group_name_H-M	'P1'
_symmetry_Int_Tables_number	1
_symmetry_cell_setting	triclinic
loop_
_symmetry_equiv_pos_as_xyz
  x,y,z
_cell_length_a	34.408637
_cell_length_b	34.407814
_cell_length_c	34.404193
_cell_angle_alpha	60.004510
_cell_angle_beta	60.009006
_cell_angle_gamma	59.994604
loop_
_atom_site_label
_atom_site_type_symbol
_atom_site_fract_x
_atom_site_fract_y
_atom_site_fract_z
O1	O	0.053973	-0.567860	0.474801
O2	O	0.020377	-0.442124	0.382567
O3	O	0.100004	-0.521670	0.382483
O4	O	-0.025653	-0.488314	0.474886
O5	O	0.126426	-0.495253	0.408816
O6	O	0.046800	-0.415707	0.408900
O7	O	0.080396	-0.541443	0.501134
Zn8	Zn	0.067793	-0.474381	0.459198
Zn9	Zn	0.032980	-0.509186	0.424503
O10	O	0.000769	-0.461897	0.501219
N11	N	0.091552	-0.450631	0.482879
N12	N	0.009225	-0.532940	0.400823
C13	C	0.142848	-0.268847	0.534081
C14	C	0.142979	-0.399386	0.664559
C15	C	0.142862	-0.399365	0.534081
C16	C	0.273409	-0.399338	0.533986
C17	C	0.157225	-0.311914	0.548422
C18	C	0.157300	-0.385019	0.621491
C19	C	0.230339	-0.384991	0.548370
C20	C	0.157235	-0.385007	0.548422
C21	C	0.124548	-0.214028	0.515827
C22	C	0.124571	-0.417639	0.515827
C23	C	0.175526	-0.366733	0.566676
C24	C	0.353121	-0.385580	0.491988
C25	C	0.402952	-0.402180	0.475348
C26	C	0.402981	-0.482812	0.506096
C27	C	0.353151	-0.466211	0.522737
C28	C	0.136544	-0.189099	0.466839
C29	C	0.119905	-0.139265	0.450247
C30	C	0.079280	-0.139291	0.531632
C31	C	0.095918	-0.189125	0.548224
C32	C	0.075577	-0.405615	0.527900
C33	C	0.058953	-0.422228	0.511301
C34	C	0.140315	-0.462889	0.470566
C35	C	0.156941	-0.446276	0.487159
C36	C	0.075772	-0.405653	0.744326
C37	C	0.059206	-0.422280	0.794159
C38	C	0.140607	-0.462951	0.794094
C39	C	0.157172	-0.446325	0.744260
C40	C	0.124753	-0.417674	0.719377
C41	C	0.328223	-0.417595	0.515681
C42	C	-0.172390	-0.583988	0.349141
C43	C	-0.041751	-0.584138	0.218783
C44	C	-0.041941	-0.584130	0.349402
C45	C	-0.041957	-0.714607	0.349338
C46	C	-0.129326	-0.598388	0.334853
C47	C	-0.056165	-0.598473	0.261852
C48	C	-0.056282	-0.671535	0.334962
C49	C	-0.056272	-0.598469	0.334999
C50	C	-0.227205	-0.565659	0.367327
C51	C	-0.023703	-0.565882	0.367734
C52	C	-0.074511	-0.616717	0.316667
C53	C	-0.055754	-0.794298	0.391257
C54	C	-0.039181	-0.844132	0.407888
C55	C	0.041447	-0.844215	0.377269
C56	C	0.024873	-0.794381	0.360637
C57	C	-0.252183	-0.577666	0.416302
C58	C	-0.302014	-0.561001	0.432833
C59	C	-0.301886	-0.520329	0.351410
C60	C	-0.252055	-0.536994	0.334880
C61	C	-0.035709	-0.516892	0.355682
C62	C	-0.019129	-0.500308	0.372353
C63	C	0.021465	-0.581700	0.413115
C64	C	0.004884	-0.598286	0.396450
C65	C	-0.035389	-0.516907	0.139026
C66	C	-0.018707	-0.500324	0.089193
C67	C	0.021949	-0.581721	0.089240
C68	C	0.005268	-0.598303	0.139074
C69	C	-0.023402	-0.565894	0.163965
C70	C	-0.023728	-0.769425	0.367633
N71	N	0.427173	-0.450553	0.482630
O72	O	0.589997	-0.458460	0.365361
O73	O	0.590185	-0.550997	0.490963
O74	O	0.590104	-0.550786	0.411309
O75	O	0.590077	-0.458671	0.445016
O76	O	0.510940	-0.524462	0.437777
O77	O	0.511020	-0.524674	0.517432
O78	O	0.510832	-0.432136	0.391830
Zn79	Zn	0.498357	-0.474225	0.458833
Zn80	Zn	0.602660	-0.508908	0.423960
O81	O	0.510913	-0.432348	0.471484
N82	N	0.673844	-0.532580	0.400158
N83	N	0.091520	-0.115070	0.482873
O84	O	-0.025663	0.047841	0.474857
O85	O	0.099940	0.047877	0.382299
O86	O	0.020247	0.047844	0.382560
O87	O	0.054030	0.047874	0.474596
O88	O	0.046674	-0.031326	0.408942
O89	O	0.126367	-0.031293	0.408680
O90	O	0.000764	-0.031329	0.501238
Zn91	Zn	0.067761	-0.043881	0.459148
Zn92	Zn	0.032943	0.060429	0.424389
O93	O	0.080457	-0.031296	0.500977
N94	N	0.009178	0.131618	0.400665
N95	N	0.091852	-0.450680	0.818332
O96	O	0.083862	-0.567845	0.981235
O97	O	-0.008657	-0.442198	0.981276
O98	O	-0.008441	-0.521875	0.981252
O99	O	0.083646	-0.488168	0.981258
O100	O	0.017919	-0.495468	0.902085
O101	O	0.017703	-0.415791	0.902109
O102	O	0.110222	-0.541438	0.902067
Zn103	Zn	0.068148	-0.474422	0.889518
Zn104	Zn	0.033417	-0.509214	0.993825
O105	O	0.110006	-0.461761	0.902091
N106	N	0.009712	-0.532961	1.065011
C107	C	0.030439	-0.413071	0.383027
C108	C	0.129046	-0.511580	0.382922
C109	C	0.070334	-0.570496	0.500675
C110	C	-0.028274	-0.471987	0.500780
C111	C	0.550625	-0.550579	0.520021
C112	C	0.550527	-0.550317	0.421379
C113	C	0.550389	-0.432554	0.362773
C114	C	0.550491	-0.432816	0.461414
C115	C	0.128944	0.008394	0.382712
C116	C	0.030287	0.008256	0.383068
C117	C	-0.028273	0.008252	0.500793
C118	C	0.070417	0.008292	0.500470
C119	C	-0.008218	-0.413165	0.941698
C120	C	-0.007945	-0.511830	0.941653
C121	C	0.109783	-0.570471	0.941646
C122	C	0.109516	-0.471800	0.941673
H123	H	0.019320	-0.412483	0.814467
C124	C	-0.047004	-0.365073	0.941688
C125	C	-0.087663	-0.365126	0.941678
C126	C	-0.123399	-0.320829	0.941662
H127	H	-0.054546	-0.359221	0.969291
H128	H	-0.036122	-0.340840	0.914073
H129	H	-0.098543	-0.389351	0.969290
H130	H	-0.080136	-0.370969	0.914076
H131	H	-0.112518	-0.296596	0.914046
H132	H	-0.130937	-0.314981	0.969265
H133	H	-0.150989	-0.320858	0.941650
H134	H	0.164941	0.008624	0.353583
H135	H	-0.065262	-0.864385	0.427124
H136	H	0.332825	-0.345993	0.486242
H137	H	0.550674	-0.579628	0.556096
C138	C	0.080119	0.008195	0.539047
C139	C	0.118411	-0.032536	0.549859
C140	C	0.127357	-0.032646	0.585400
H141	H	0.087697	0.035776	0.528096
H142	H	0.052634	0.008160	0.566779
H143	H	0.145890	-0.032496	0.522133
H144	H	0.110843	-0.060123	0.560818
H145	H	0.099873	-0.032681	0.613132
H146	H	0.134934	-0.005064	0.574445
H147	H	0.153336	-0.060284	0.592743
C148	C	-0.046437	-0.521510	0.941581
C149	C	-0.029167	-0.567976	0.941541
C150	C	-0.064609	-0.576908	0.941469
H151	H	-0.073535	-0.518003	0.969175
H152	H	-0.055091	-0.499560	0.913957
H153	H	-0.020519	-0.589920	0.969162
H154	H	-0.002073	-0.571494	0.913949
H155	H	-0.073263	-0.554957	0.913845
H156	H	-0.091705	-0.573398	0.969064
H157	H	-0.052895	-0.608433	0.941438
H158	H	0.550485	-0.403881	0.468626
C159	C	0.550289	-0.393743	0.314716
C160	C	0.550249	-0.353064	0.314781
C161	C	0.550150	-0.317300	0.270521
H162	H	0.577872	-0.404568	0.290434
H163	H	0.522656	-0.386246	0.308933
H164	H	0.577879	-0.360561	0.320557
H165	H	0.522668	-0.342225	0.339052
H166	H	0.522518	-0.309803	0.264739
H167	H	0.577735	-0.328130	0.246244
H168	H	0.550119	-0.289694	0.270561
H169	H	0.023050	0.008252	0.354152
H170	H	-0.064344	0.008241	0.529850
H171	H	0.138832	-0.606554	0.941627
H172	H	0.138447	-0.464586	0.941669
C173	C	0.177128	-0.520970	0.344160
C174	C	0.177106	-0.480295	0.303452
C175	C	0.221388	-0.488929	0.267733
H176	H	0.201386	-0.528480	0.355012
H177	H	0.182918	-0.546905	0.336685
H178	H	0.171321	-0.454367	0.310926
H179	H	0.152857	-0.472778	0.292585
H180	H	0.227178	-0.514865	0.260258
H181	H	0.245643	-0.496440	0.278590
H182	H	0.221378	-0.461335	0.240107
H183	H	0.423275	-0.522397	0.511838
C184	C	0.040497	-0.374570	0.717399
C185	C	-0.005944	-0.367610	0.749915
C186	C	-0.038451	-0.338987	0.725127
H187	H	0.045202	-0.344670	0.697959
H188	H	0.045239	-0.389781	0.697971
H189	H	-0.010685	-0.352399	0.769335
H190	H	-0.010665	-0.397501	0.769356
H191	H	-0.033709	-0.354197	0.705699
H192	H	-0.033741	-0.309089	0.705689
H193	H	-0.069965	-0.334265	0.747186
H194	H	0.167007	-0.486271	0.814352
H195	H	0.197059	-0.456117	0.723950
C196	C	-0.076370	-0.462456	0.539488
C197	C	-0.084775	-0.424204	0.550377
C198	C	-0.129073	-0.415414	0.586038
H199	H	-0.100634	-0.454899	0.528618
H200	H	-0.076451	-0.489999	0.567167
H201	H	-0.084699	-0.396666	0.522704
H202	H	-0.060523	-0.431750	0.561255
H203	H	-0.129154	-0.442957	0.613717
H204	H	-0.153333	-0.407859	0.575164
H205	H	-0.134780	-0.389462	0.593434
H206	H	0.550540	-0.579254	0.414165
C207	C	0.040409	-0.374441	0.558937
C208	C	0.011801	-0.332948	0.533932
C209	C	-0.020598	-0.304216	0.562506
H210	H	0.020942	-0.391295	0.587128
H211	H	0.057308	-0.366237	0.567085
H212	H	-0.005097	-0.341153	0.525791
H213	H	0.031255	-0.316082	0.505743
H214	H	-0.003699	-0.296011	0.570654
H215	H	-0.040062	-0.321073	0.590696
H216	H	-0.040010	-0.276057	0.545542
C217	C	0.175538	-0.493959	0.439429
C218	C	0.222003	-0.500925	0.432403
C219	C	0.254460	-0.529537	0.403717
H220	H	0.170828	-0.523858	0.454605
H221	H	0.170750	-0.478738	0.409554
H222	H	0.226789	-0.516147	0.462272
H223	H	0.226728	-0.471035	0.417221
H224	H	0.249673	-0.514316	0.373842
H225	H	0.249746	-0.559433	0.418896
H226	H	0.285990	-0.534263	0.398942
H227	H	0.077514	-0.606615	0.529644
C228	C	0.210130	-0.459231	0.473990
C229	C	0.222014	-0.417614	0.449073
C230	C	0.271007	-0.429528	0.436928
H231	H	0.218385	-0.476123	0.502118
H232	H	0.227048	-0.478645	0.454517
H233	H	0.205101	-0.398207	0.468545
H234	H	0.213770	-0.400716	0.420939
H235	H	0.287925	-0.448943	0.417455
H236	H	0.279257	-0.446422	0.465059
H237	H	0.279077	-0.401294	0.420017
H238	H	0.019058	-0.412426	0.521121
H239	H	0.423225	-0.376108	0.456057
C240	C	0.132952	-0.112136	0.397071
C241	C	0.157838	-0.083505	0.385143
C242	C	0.169858	-0.058506	0.336163
H243	H	0.152407	-0.134051	0.380098
H244	H	0.104764	-0.092676	0.388910
H245	H	0.186021	-0.102965	0.393299
H246	H	0.138392	-0.061582	0.402103
H247	H	0.141671	-0.039045	0.328002
H248	H	0.189312	-0.080424	0.319195
H249	H	0.186741	-0.039073	0.328064
C250	C	0.020930	-0.364889	0.344411
C251	C	0.053372	-0.343917	0.331706
C252	C	0.044623	-0.299529	0.296139
H253	H	0.024489	-0.368955	0.317322
H254	H	-0.010573	-0.344933	0.355997
H255	H	0.084867	-0.363868	0.320119
H256	H	0.049819	-0.339839	0.358784
H257	H	0.013120	-0.279573	0.307725
H258	H	0.048181	-0.303600	0.269053
H259	H	0.066630	-0.285292	0.287518
H260	H	0.332881	-0.492283	0.542031
H261	H	0.055974	-0.119015	0.558014
C262	C	0.167601	-0.216049	0.431589
C263	C	0.174530	-0.183550	0.385135
C264	C	0.203132	-0.208361	0.352650
H265	H	0.197509	-0.235484	0.436288
H266	H	0.152388	-0.235486	0.436361
H267	H	0.189743	-0.164122	0.380364
H268	H	0.144631	-0.164115	0.380420
H269	H	0.187919	-0.227797	0.357423
H270	H	0.233038	-0.227794	0.357354
H271	H	0.207833	-0.186314	0.321128
H272	H	-0.028474	-0.460433	0.068892
C273	C	0.082958	-0.216149	0.601420
C274	C	0.099933	-0.204016	0.621888
C275	C	0.088007	-0.228899	0.670893
H276	H	0.049346	-0.208009	0.615497
H277	H	0.096975	-0.249402	0.606701
H278	H	0.085915	-0.170769	0.616612
H279	H	0.133545	-0.212157	0.607825
H280	H	0.102024	-0.262153	0.676174
H281	H	0.054395	-0.220757	0.684966
H282	H	0.099527	-0.220673	0.684786
C283	C	-0.066439	-0.481695	0.166021
C284	C	-0.041404	-0.453148	0.153961
C285	C	-0.069988	-0.420710	0.178824
H286	H	-0.094594	-0.462187	0.157818
H287	H	-0.074649	-0.498566	0.199277
H288	H	-0.033201	-0.436278	0.120713
H289	H	-0.013251	-0.472643	0.162166
H290	H	-0.078198	-0.437581	0.212079
H291	H	-0.098142	-0.401206	0.170618
H292	H	-0.053005	-0.401341	0.170648
C293	C	0.053003	-0.616960	0.062275
C294	C	0.027970	-0.645515	0.074352
C295	C	0.056567	-0.677985	0.049524
H296	H	0.061235	-0.600129	0.029018
H297	H	0.081149	-0.636455	0.070506
H298	H	-0.000167	-0.626023	0.066117
H299	H	0.019739	-0.662357	0.107604
H300	H	0.084713	-0.697480	0.057756
H301	H	0.064797	-0.661150	0.016269
H302	H	0.039588	-0.697367	0.057719
C303	C	0.018249	-0.651475	0.166237
C304	C	-0.002484	-0.659063	0.215206
C305	C	0.009467	-0.708038	0.240241
H306	H	0.006806	-0.665505	0.158091
H307	H	0.051867	-0.665519	0.158153
H308	H	-0.036095	-0.645025	0.223286
H309	H	0.008956	-0.645044	0.223366
H310	H	0.043085	-0.722082	0.232157
H311	H	-0.001976	-0.722063	0.232092
H312	H	-0.004594	-0.713193	0.273469
C313	C	-0.066765	-0.481635	0.324535
C314	C	-0.073743	-0.435182	0.317566
C315	C	-0.102355	-0.402690	0.288880
H316	H	-0.051552	-0.486373	0.294644
H317	H	-0.096657	-0.486362	0.339702
H318	H	-0.043856	-0.430456	0.302398
H319	H	-0.088961	-0.430428	0.347448
H320	H	-0.132248	-0.407418	0.304047
H321	H	-0.087140	-0.407433	0.258991
H322	H	-0.107097	-0.371168	0.284151
H323	H	0.044746	-0.608091	0.436494
C324	C	0.017991	-0.651495	0.409563
C325	C	0.046585	-0.676322	0.438269
C326	C	0.058674	-0.725338	0.450353
H327	H	-0.010160	-0.659696	0.426448
H328	H	0.034956	-0.659703	0.381401
H329	H	0.029620	-0.668117	0.466427
H330	H	0.074742	-0.668136	0.421394
H331	H	0.075639	-0.733546	0.422190
H332	H	0.030520	-0.733534	0.467235
H333	H	0.078080	-0.742189	0.469827
C334	C	0.059719	-0.767464	0.335021
C335	C	0.105826	-0.799990	0.332469
C336	C	0.137939	-0.775212	0.308881
H337	H	0.058557	-0.748027	0.303766
H338	H	0.051392	-0.748032	0.352012
H339	H	0.114151	-0.819414	0.315477
H340	H	0.107003	-0.819428	0.363717
H341	H	0.129612	-0.755780	0.325873
H342	H	0.136773	-0.755776	0.277629
H343	H	0.169226	-0.797277	0.307151
C344	C	-0.032227	-0.447121	0.359360
C345	C	-0.057199	-0.435171	0.400947
C346	C	-0.069279	-0.386180	0.388994
H347	H	-0.004072	-0.438931	0.342519
H348	H	-0.051645	-0.430185	0.339886
H349	H	-0.037782	-0.452102	0.420413
H350	H	-0.085360	-0.443350	0.417793
H351	H	-0.088697	-0.369243	0.369520
H352	H	-0.041121	-0.377994	0.372152
H353	H	-0.086228	-0.378064	0.417208
H354	H	0.081021	-0.864532	0.371574
H355	H	-0.231954	-0.601008	0.442726
C356	C	-0.108536	-0.767287	0.398860
C357	C	-0.133031	-0.799740	0.423089
C358	C	-0.181650	-0.774877	0.430090
H359	H	-0.120318	-0.747832	0.417135
H360	H	-0.113118	-0.747866	0.368893
H361	H	-0.128451	-0.819153	0.453051
H362	H	-0.121263	-0.819195	0.404822
H363	H	-0.186233	-0.755456	0.400123
H364	H	-0.193428	-0.755423	0.448364
H365	H	-0.198276	-0.796892	0.446526
H366	H	-0.322118	-0.496994	0.324987
C367	C	-0.329051	-0.574113	0.486027
C368	C	-0.296622	-0.602799	0.510904
C369	C	-0.321509	-0.614894	0.559906
H370	H	-0.348492	-0.545965	0.494249
H371	H	-0.348484	-0.591016	0.494172
H372	H	-0.277197	-0.585895	0.502762
H373	H	-0.277180	-0.630953	0.502696
H374	H	-0.340943	-0.631797	0.568051
H375	H	-0.340950	-0.586744	0.568124
H376	H	-0.299510	-0.634362	0.576792
H377	H	-0.231721	-0.527215	0.295000
