data_functionalizedCrystal
_audit_creation_method	'MofGen! by Chris Wilmer'
_symmetry_space_group_name_H-M	'P1'
_symmetry_Int_Tables_number	1
_symmetry_cell_setting	triclinic
loop_
_symmetry_equiv_pos_as_xyz
  x,y,z
_cell_length_a	10.654550
_cell_length_b	19.188930
_cell_length_c	9.730223
_cell_angle_alpha	89.990488
_cell_angle_beta	89.999957
_cell_angle_gamma	83.814856
loop_
_atom_site_label
_atom_site_type_symbol
_atom_site_fract_x
_atom_site_fract_y
_atom_site_fract_z
O1	O	1.665764	0.098062	-0.114205
O2	O	1.300088	0.107404	-0.114232
O3	O	1.493479	0.001147	-0.114191
O4	O	1.472373	0.204320	-0.114246
O5	O	1.493466	0.001144	0.114389
O6	O	1.300076	0.107402	0.114348
O7	O	1.665752	0.098059	0.114375
Zn8	Zn	1.482912	0.102730	0.150654
Zn9	Zn	1.482928	0.102734	-0.150510
O10	O	1.472361	0.204317	0.114334
C11	C	1.253298	0.106717	0.000055
C12	C	1.113898	0.104665	0.000046
C13	C	1.033089	0.167228	0.000033
C14	C	0.902109	0.165295	0.000058
C15	C	0.932761	0.038231	0.000103
C16	C	1.063738	0.040164	0.000088
C17	C	1.492789	-0.024870	0.000103
C18	C	1.490737	-0.102388	0.000115
C19	C	1.604213	-0.146570	0.000130
C20	C	1.602285	-0.219407	0.000108
C21	C	1.486876	-0.248058	0.000098
C22	C	1.373386	-0.203866	0.000076
C23	C	1.375316	-0.131032	0.000084
N24	N	1.398655	-0.356641	0.077882
N25	N	1.396829	-0.425831	0.077877
C26	C	1.481052	-0.467505	0.000070
N27	N	1.567189	-0.437375	-0.077714
N28	N	1.569019	-0.368178	-0.077703
C29	C	1.484770	-0.327034	0.000088
C30	C	1.592445	-0.590665	0.000059
C31	C	1.590513	-0.663502	0.000028
C32	C	1.361610	-0.647960	0.000010
C33	C	1.363545	-0.575124	0.000027
C34	C	1.478966	-0.546481	0.000058
C35	C	1.712541	0.098746	0.000085
C36	C	1.851941	0.100799	0.000085
C37	C	1.473051	0.230334	0.000037
C38	C	1.475102	0.307852	0.000017
N39	N	1.482910	0.102727	0.356190
N40	N	1.482940	0.102731	-0.356047
C41	C	1.568572	0.055696	0.428134
C42	C	1.568584	0.055696	0.572017
C43	C	1.397269	0.149764	0.571999
C44	C	1.397251	0.149760	0.428119
H45	H	1.698197	-0.123254	0.000150
H46	H	1.327529	0.188059	0.630578
H47	H	1.327489	0.188059	0.369538
H48	H	1.073924	0.219748	0.000010
N49	N	0.814980	0.232785	0.000099
H50	H	0.831056	0.260908	-0.084634
H51	H	0.724420	0.221736	0.000190
H52	H	1.638319	0.017397	0.369573
H53	H	1.271141	-0.539150	0.000022
N54	N	0.878645	-0.031330	0.000148
H55	H	0.824978	-0.034966	-0.084579
H56	H	0.949779	-0.070633	0.000213
N57	N	1.150909	-0.027317	0.000118
H58	H	1.099261	-0.068471	0.000139
H59	H	1.205919	-0.029285	-0.084620
H60	H	1.694693	-0.255386	0.000114
N61	N	1.248907	-0.234764	0.000058
H62	H	1.264901	-0.287609	0.000059
H63	H	1.199259	-0.218647	0.084790
N64	N	1.252921	-0.083373	0.000067
H65	H	1.179513	-0.112572	0.000053
H66	H	1.248731	-0.052826	0.084810
N67	N	1.716926	-0.559764	0.000087
H68	H	1.788523	-0.598808	0.000081
H69	H	1.722717	-0.529870	-0.084643
H70	H	1.638337	0.017398	0.630590
N71	N	1.712915	-0.711155	0.000048
H72	H	1.717200	-0.741731	0.084777
H73	H	1.717159	-0.741664	-0.084748
H74	H	1.267641	-0.671287	-0.000005
