data_functionalizedCrystal
_audit_creation_method	'MofGen! by Chris Wilmer'
_symmetry_space_group_name_H-M	'P1'
_symmetry_Int_Tables_number	1
_symmetry_cell_setting	triclinic
loop_
_symmetry_equiv_pos_as_xyz
  x,y,z
_cell_length_a	29.839131
_cell_length_b	13.897449
_cell_length_c	13.897441
_cell_angle_alpha	90.018596
_cell_angle_beta	89.965828
_cell_angle_gamma	89.957300
loop_
_atom_site_label
_atom_site_type_symbol
_atom_site_fract_x
_atom_site_fract_y
_atom_site_fract_z
Zn1	Zn	-0.178828	-1.474523	-0.545351
Zn2	Zn	0.154505	-1.141190	-0.212017
Zn3	Zn	0.487839	-0.807857	0.121316
Zn4	Zn	-0.253962	-1.474356	-0.384039
Zn5	Zn	0.079372	-1.141023	-0.050706
Zn6	Zn	0.412705	-0.807690	0.282627
Zn7	Zn	-0.178848	-1.313218	-0.384069
Zn8	Zn	0.154485	-0.979885	-0.050736
Zn9	Zn	0.487819	-0.646552	0.282598
Zn10	Zn	-0.253933	-1.313127	-0.545292
Zn11	Zn	0.079400	-0.979794	-0.211959
Zn12	Zn	0.412733	-0.646461	0.121375
O13	O	-0.216393	-1.393806	-0.464688
O14	O	0.116941	-1.060473	-0.131354
O15	O	0.450274	-0.727140	0.201979
O16	O	-0.188798	-1.609483	-0.523965
O17	O	0.144535	-1.276149	-0.190631
O18	O	0.477869	-0.942816	0.142702
O19	O	-0.244018	-1.452949	-0.249061
O20	O	0.089315	-1.119616	0.084272
O21	O	0.422649	-0.786283	0.417605
O22	O	-0.115978	-1.334724	-0.405500
O23	O	0.217355	-1.001390	-0.072167
O24	O	0.550688	-0.668057	0.261166
O25	O	-0.243998	-1.609360	-0.405450
O26	O	0.089335	-1.276027	-0.072116
O27	O	0.422668	-0.942694	0.261217
O28	O	-0.115964	-1.453234	-0.523993
O29	O	0.217370	-1.119900	-0.190660
O30	O	0.550703	-0.786567	0.142673
O31	O	-0.188832	-1.334562	-0.249083
O32	O	0.144501	-1.001229	0.084250
O33	O	0.477834	-0.667895	0.417583
O34	O	-0.188805	-1.178225	-0.405443
O35	O	0.144528	-0.844891	-0.072110
O36	O	0.477862	-0.511558	0.261223
O37	O	-0.243950	-1.334569	-0.680281
O38	O	0.089383	-1.001235	-0.346948
O39	O	0.422716	-0.667902	-0.013615
O40	O	-0.243970	-1.178158	-0.523893
O41	O	0.089364	-0.844824	-0.190560
O42	O	0.422697	-0.511491	0.142774
O43	O	-0.188771	-1.453145	-0.680325
O44	O	0.144563	-1.119812	-0.346991
O45	O	0.477896	-0.786479	-0.013658
O46	O	-0.316825	-1.452861	-0.405393
O47	O	0.016508	-1.119528	-0.072059
O48	O	0.349842	-0.786194	0.261274
O49	O	-0.316804	-1.334407	-0.523864
O50	O	0.016529	-1.001073	-0.190531
O51	O	0.349862	-0.667740	0.142802
C52	C	-0.216387	-1.143192	-0.464666
C53	C	0.116947	-0.809859	-0.131332
C54	C	0.450280	-0.476525	0.202001
C55	C	-0.216395	-1.035978	-0.464679
C56	C	0.116938	-0.702645	-0.131346
C57	C	0.450272	-0.369311	0.201987
C58	C	-0.333115	-1.393632	-0.464640
C59	C	0.000218	-1.060299	-0.131307
C60	C	0.333551	-0.726965	0.202027
C61	C	-0.383050	-1.393646	-0.464652
C62	C	-0.049716	-1.060313	-0.131318
C63	C	0.283617	-0.726979	0.202015
C64	C	-0.216355	-1.393865	-0.716281
C65	C	0.116978	-1.060532	-0.382947
C66	C	0.450312	-0.727199	-0.049614
C67	C	-0.216339	-1.393891	-0.823495
C68	C	0.116994	-1.060557	-0.490161
C69	C	0.450328	-0.727224	-0.156828
C70	C	-0.692691	-1.455598	-0.403090
C71	C	-0.359358	-1.122264	-0.069756
C72	C	-0.026025	-0.788931	0.263577
C73	C	-0.880364	-1.455717	-0.403127
C74	C	-0.547031	-1.122383	-0.069794
C75	C	-0.213698	-0.789050	0.263540
O76	O	-0.904628	-1.508252	-0.350748
O77	O	-0.571294	-1.174919	-0.017415
O78	O	-0.237961	-0.841586	0.315919
N79	N	-0.903835	-1.394006	-0.464760
N80	N	-0.570501	-1.060673	-0.131427
N81	N	-0.237168	-0.727340	0.201906
C82	C	-0.880384	-1.332266	-0.526393
C83	C	-0.547051	-0.998933	-0.193060
C84	C	-0.213717	-0.665600	0.140273
O85	O	-0.904653	-1.279788	-0.578824
O86	O	-0.571320	-0.946454	-0.245491
O87	O	-0.237987	-0.613121	0.087843
C88	C	-0.692712	-1.332153	-0.526360
C89	C	-0.359379	-0.998819	-0.193027
C90	C	-0.026045	-0.665486	0.140307
C91	C	-0.669244	-1.393860	-0.464716
C92	C	-0.335911	-1.060527	-0.131382
C93	C	-0.002577	-0.727194	0.201951
C94	C	-0.669223	-1.517301	-0.341451
C95	C	-0.335890	-1.183968	-0.008118
C96	C	-0.002557	-0.850634	0.325215
C97	C	-0.622308	-1.517267	-0.341439
C98	C	-0.288974	-1.183933	-0.008105
C99	C	0.044359	-0.850600	0.325228
C100	C	-0.598860	-1.455529	-0.403065
C101	C	-0.265527	-1.122196	-0.069731
C102	C	0.067806	-0.788863	0.263602
C103	C	-0.622328	-1.393826	-0.464703
C104	C	-0.288995	-1.060493	-0.131370
C105	C	0.044338	-0.727160	0.201963
C106	C	-0.669262	-1.270418	-0.587997
C107	C	-0.335929	-0.937085	-0.254664
C108	C	-0.002595	-0.603752	0.078670
C109	C	-0.622341	-1.270397	-0.587985
C110	C	-0.289008	-0.937064	-0.254652
C111	C	0.044326	-0.603730	0.078682
C112	C	-0.598873	-1.332105	-0.526341
C113	C	-0.265540	-0.998771	-0.193007
C114	C	0.067794	-0.665438	0.140326
C115	C	-0.551966	-1.332055	-0.526317
C116	C	-0.218632	-0.998721	-0.192984
C117	C	0.114701	-0.665388	0.140350
N118	N	-0.528495	-1.393765	-0.464684
N119	N	-0.195162	-1.060432	-0.131350
N120	N	0.138171	-0.727098	0.201983
C121	C	-0.551943	-1.455503	-0.403057
C122	C	-0.218609	-1.122169	-0.069724
C123	C	0.114724	-0.788836	0.263609
C124	C	-0.978915	-1.332329	-0.526405
C125	C	-0.645581	-0.998996	-0.193072
C126	C	-0.312248	-0.665662	0.140262
C127	C	-1.025833	-1.332356	-0.526412
C128	C	-0.692499	-0.999023	-0.193079
C129	C	-0.359166	-0.665689	0.140254
C130	C	-1.025810	-1.455808	-0.403147
C131	C	-0.692476	-1.122475	-0.069814
C132	C	-0.359143	-0.789141	0.263519
C133	C	-0.978891	-1.455775	-0.403136
C134	C	-0.645557	-1.122442	-0.069802
C135	C	-0.312224	-0.789109	0.263531
C136	C	-0.955444	-1.394039	-0.464772
C137	C	-0.622111	-1.060706	-0.131438
C138	C	-0.288778	-0.727373	0.201895
C139	C	-0.453417	-1.455426	-0.403035
C140	C	-0.120083	-1.122092	-0.069702
C141	C	0.213250	-0.788759	0.263631
C142	C	-0.406497	-1.455383	-0.403026
C143	C	-0.073164	-1.122050	-0.069692
C144	C	0.260169	-0.788717	0.263641
C145	C	-0.406524	-1.331935	-0.526294
C146	C	-0.073191	-0.998602	-0.192961
C147	C	0.260142	-0.665269	0.140373
C148	C	-0.453440	-1.331974	-0.526301
C149	C	-0.120106	-0.998640	-0.192967
C150	C	0.213227	-0.665307	0.140366
C151	C	-0.476885	-1.393727	-0.464668
C152	C	-0.143552	-1.060393	-0.131335
C153	C	0.189782	-0.727060	0.201999
O154	O	-0.527674	-1.279555	-0.578676
O155	O	-0.194340	-0.946221	-0.245343
O156	O	0.138993	-0.612888	0.087991
O157	O	-0.527665	-1.507988	-0.350650
O158	O	-0.194332	-1.174655	-0.017316
O159	O	0.139002	-0.841322	0.316017
C160	C	-0.739607	-1.455632	-0.403102
C161	C	-0.406273	-1.122298	-0.069769
C162	C	-0.072940	-0.788965	0.263565
C163	C	-0.763075	-1.393929	-0.464741
C164	C	-0.429741	-1.060595	-0.131407
C165	C	-0.096408	-0.727262	0.201926
C166	C	-0.739627	-1.332191	-0.526367
C167	C	-0.406294	-0.998858	-0.193033
C168	C	-0.072961	-0.665524	0.140300
C169	C	-0.809993	-1.393955	-0.464748
C170	C	-0.476659	-1.060622	-0.131415
C171	C	-0.143326	-0.727289	0.201919
C172	C	-0.833440	-1.455693	-0.403122
C173	C	-0.500107	-1.122360	-0.069789
C174	C	-0.166773	-0.789026	0.263545
C175	C	-0.809970	-1.517403	-0.341489
C176	C	-0.476636	-1.184070	-0.008155
C177	C	-0.143303	-0.850737	0.325178
C178	C	-0.763054	-1.517369	-0.341476
C179	C	-0.429721	-1.184036	-0.008143
C180	C	-0.096387	-0.850702	0.325191
C181	C	-0.763098	-1.270481	-0.588000
C182	C	-0.429765	-0.937147	-0.254667
C183	C	-0.096431	-0.603814	0.078667
C184	C	-0.810013	-1.270519	-0.588007
C185	C	-0.476680	-0.937186	-0.254673
C186	C	-0.143347	-0.603852	0.078660
C187	C	-0.833461	-1.332256	-0.526381
C188	C	-0.500127	-0.998923	-0.193047
C189	C	-0.166794	-0.665590	0.140286
C190	C	-0.099214	-1.394007	-0.464757
C191	C	0.234119	-1.060674	-0.131423
C192	C	0.567452	-0.727341	0.201910
C193	C	-0.049280	-1.394093	-0.464786
C194	C	0.284053	-1.060760	-0.131453
C195	C	0.617387	-0.727427	0.201880
C196	C	-0.216399	-1.645399	-0.464710
C197	C	0.116934	-1.312066	-0.131377
C198	C	0.450268	-0.978733	0.201956
C199	C	-0.216402	-1.752613	-0.464720
C200	C	0.116932	-1.419280	-0.131387
C201	C	0.450265	-1.085947	0.201947
C202	C	-0.216397	-0.839683	-0.464704
C203	C	0.116937	-0.506350	-0.131371
C204	C	0.450270	-0.173016	0.201962
C205	C	-0.216394	-0.948915	-0.464688
C206	C	0.116939	-0.615582	-0.131354
C207	C	0.450272	-0.282249	0.201979
C208	C	-0.216326	-1.393910	-0.910565
C209	C	0.117007	-1.060577	-0.577231
C210	C	0.450340	-0.727244	-0.243898
C211	C	-0.216306	-1.393938	-1.019797
C212	C	0.117027	-1.060605	-0.686464
C213	C	0.450361	-0.727271	-0.353131
C214	C	-0.216398	-1.393803	-0.214073
C215	C	0.116935	-1.060470	0.119260
C216	C	0.450269	-0.727136	0.452593
C217	C	-0.216287	-1.393965	-0.106860
C218	C	0.117046	-1.060632	0.226473
C219	C	0.450379	-0.727298	0.559807
H220	H	-0.472500	-1.505713	-0.352851
H221	H	-0.139167	-1.172380	-0.019517
H222	H	0.194166	-0.839046	0.313816
H223	H	-0.829069	-1.567669	-0.291308
H224	H	-0.495735	-1.234336	0.042026
H225	H	-0.162402	-0.901003	0.375359
H226	H	-1.044908	-1.506077	-0.352969
H227	H	-0.711575	-1.172744	-0.019636
H228	H	-0.378242	-0.839410	0.313698
H229	H	-0.959828	-1.282054	-0.576598
H230	H	-0.626494	-0.948720	-0.243264
H231	H	-0.293161	-0.615387	0.090069
O232	O	-1.048557	-1.272375	-0.586377
O233	O	-0.715224	-0.939041	-0.253044
O234	O	-0.381891	-0.605708	0.080290
C235	C	-1.017795	-1.217867	-0.640748
C236	C	-0.684462	-0.884534	-0.307414
C237	C	-0.351128	-0.551201	0.025919
H238	H	-0.984332	-1.257360	-0.644110
H239	H	-0.650998	-0.924027	-0.310776
H240	H	-0.317665	-0.590693	0.022557
H241	H	-1.031328	-1.207542	-0.716743
H242	H	-0.697995	-0.874208	-0.383409
H243	H	-0.364662	-0.540875	-0.050076
H244	H	-1.012850	-1.144626	-0.605358
H245	H	-0.679517	-0.811293	-0.272025
H246	H	-0.346184	-0.477960	0.061309
H247	H	-0.387391	-1.505633	-0.352824
H248	H	-0.054058	-1.172299	-0.019491
H249	H	0.279276	-0.838966	0.313843
O250	O	-0.476170	-1.271999	-0.586268
O251	O	-0.142837	-0.938665	-0.252934
O252	O	0.190497	-0.605332	0.080399
C253	C	-0.445411	-1.217481	-0.640637
C254	C	-0.112078	-0.884148	-0.307303
C255	C	0.221255	-0.550814	0.026030
H256	H	-0.411944	-1.256960	-0.643992
H257	H	-0.078611	-0.923627	-0.310659
H258	H	0.254723	-0.590293	0.022674
H259	H	-0.458943	-1.207164	-0.716634
H260	H	-0.125610	-0.873831	-0.383301
H261	H	0.207724	-0.540498	-0.049967
H262	H	-0.440474	-1.144236	-0.605250
H263	H	-0.107141	-0.810903	-0.271917
H264	H	0.226193	-0.477570	0.061417
H265	H	-0.387426	-1.281666	-0.576466
H266	H	-0.054093	-0.948333	-0.243133
H267	H	0.279241	-0.615000	0.090200
H268	H	-0.603203	-1.567517	-0.291246
H269	H	-0.269869	-1.234184	0.042088
H270	H	0.063464	-0.900850	0.375421
O271	O	-0.599518	-1.210375	-0.647726
O272	O	-0.266184	-0.877042	-0.314393
O273	O	0.067149	-0.543709	0.018940
C274	C	-0.572436	-1.148063	-0.592754
C275	C	-0.239103	-0.814730	-0.259421
C276	C	0.094231	-0.481396	0.073912
H277	H	-0.565410	-1.182114	-0.519683
H278	H	-0.232077	-0.848781	-0.186350
H279	H	0.101256	-0.515448	0.146984
H280	H	-0.539439	-1.135088	-0.632032
H281	H	-0.206106	-0.801754	-0.298698
H282	H	0.127228	-0.468421	0.034635
H283	H	-0.590559	-1.076602	-0.582098
H284	H	-0.257226	-0.743268	-0.248765
H285	H	0.076107	-0.409935	0.084569
O286	O	-0.740330	-1.577408	-0.281568
O287	O	-0.406997	-1.244074	0.051765
O288	O	-0.073663	-0.910741	0.385099
C289	C	-0.771094	-1.631881	-0.227169
C290	C	-0.437761	-1.298548	0.106165
C291	C	-0.104427	-0.965215	0.439498
H292	H	-0.804523	-1.635209	-0.266696
H293	H	-0.471189	-1.301876	0.066637
H294	H	-0.137856	-0.968543	0.399970
H295	H	-0.757510	-1.707882	-0.216943
H296	H	-0.424176	-1.374548	0.116390
H297	H	-0.090843	-1.041215	0.449724
H298	H	-0.776127	-1.596604	-0.153880
H299	H	-0.442793	-1.263270	0.179453
H300	H	-0.109460	-0.929937	0.512787
H301	H	-0.829117	-1.220261	-0.638204
H302	H	-0.495784	-0.886928	-0.304871
H303	H	-0.162450	-0.553594	0.028463
O304	O	-0.691926	-1.577306	-0.281489
O305	O	-0.358593	-1.243973	0.051844
O306	O	-0.025260	-0.910639	0.385178
C307	C	-0.661143	-1.631770	-0.227111
C308	C	-0.327809	-1.298437	0.106222
C309	C	0.005524	-0.965104	0.439555
H310	H	-0.627720	-1.592235	-0.223749
H311	H	-0.294386	-1.258901	0.109585
H312	H	0.038947	-0.925568	0.442918
H313	H	-0.674710	-1.642108	-0.151117
H314	H	-0.341376	-1.308775	0.182216
H315	H	-0.008043	-0.975441	0.515550
H316	H	-0.656106	-1.705008	-0.262495
H317	H	-0.322773	-1.371674	0.070838
H318	H	0.010560	-1.038341	0.404172
H319	H	-0.959786	-1.506023	-0.352940
H320	H	-0.626453	-1.172690	-0.019607
H321	H	-0.293119	-0.839357	0.313726
H322	H	-0.688362	-1.220165	-0.638190
H323	H	-0.355028	-0.886831	-0.304857
H324	H	-0.021695	-0.553498	0.028477
H325	H	-0.744011	-1.220208	-0.638185
H326	H	-0.410677	-0.886875	-0.304851
H327	H	-0.077344	-0.553541	0.028482
