data_functionalizedCrystal
_audit_creation_method	'MofGen! by Chris Wilmer'
_symmetry_space_group_name_H-M	'P1'
_symmetry_Int_Tables_number	1
_symmetry_cell_setting	triclinic
loop_
_symmetry_equiv_pos_as_xyz
  x,y,z
_cell_length_a	23.532407
_cell_length_b	9.065218
_cell_length_c	8.140239
_cell_angle_alpha	89.998449
_cell_angle_beta	90.007776
_cell_angle_gamma	96.067719
loop_
_atom_site_label
_atom_site_type_symbol
_atom_site_fract_x
_atom_site_fract_y
_atom_site_fract_z
O1	O	0.083497	-1.956281	0.136637
O2	O	0.090346	-1.526658	0.136641
O3	O	0.004085	-1.754425	0.136609
O4	O	0.169758	-1.728514	0.136670
O5	O	0.004084	-1.754418	-0.136618
O6	O	0.090345	-1.526651	-0.136586
O7	O	0.083496	-1.956274	-0.136590
Zn8	Zn	0.086921	-1.741461	-0.179968
Zn9	Zn	0.086922	-1.741471	0.180020
O10	O	0.169757	-1.728507	-0.136558
C11	C	0.089687	-1.471701	0.000028
C12	C	0.087719	-1.307955	0.000028
C13	C	-0.017136	-1.753761	-0.000009
C14	C	-0.080368	-1.751778	-0.000021
N15	N	0.086920	-1.741466	-0.425651
C16	C	-0.478573	-1.874123	0.000068
C17	C	-0.537986	-1.872280	0.000080
O18	O	-0.573898	-1.985695	0.000140
N19	N	-0.561607	-1.736873	0.000080
C20	C	-0.525810	-1.603300	0.000085
O21	O	-0.551356	-1.487956	0.000087
C22	C	-0.466397	-1.605144	0.000084
C23	C	-0.442780	-1.740560	0.000067
C24	C	-0.454955	-2.009527	0.000053
C25	C	-0.395546	-2.011370	0.000037
C26	C	-0.359753	-1.877807	0.000037
C27	C	-0.383371	-1.742402	0.000052
C28	C	-0.430601	-1.471573	0.000100
C29	C	-0.371185	-1.473429	0.000100
C30	C	-0.347568	-1.608845	0.000084
C31	C	-0.288169	-1.610682	0.000035
N32	N	-0.264548	-1.746089	0.000035
C33	C	-0.300341	-1.879651	0.000036
C34	C	-0.650581	-1.599437	0.000089
C35	C	-0.709992	-1.597591	0.000078
C36	C	-0.722165	-1.866571	0.000077
C37	C	-0.662752	-1.868416	0.000076
C38	C	-0.626960	-1.734844	0.000089
C39	C	-0.175576	-1.883510	0.000002
C40	C	-0.116160	-1.885340	-0.000021
C41	C	-0.103993	-1.616360	-0.000011
C42	C	-0.163403	-1.614529	0.000003
C43	C	-0.199194	-1.748116	0.000015
O44	O	-0.252222	-1.497326	-0.000018
O45	O	-0.274786	-1.994976	0.000055
C46	C	0.190979	-1.729170	0.000064
C47	C	0.254210	-1.731154	0.000087
C48	C	0.084155	-2.011231	0.000027
C49	C	0.086123	-2.174977	0.000038
N50	N	0.086918	-1.741478	0.425703
H51	H	-0.096935	-1.995617	-0.000038
H52	H	-0.342046	-1.364656	0.000113
O53	O	-0.615896	-1.469540	0.000005
C54	C	-0.649491	-1.349645	0.000045
H55	H	-0.693629	-1.387775	-0.051676
H56	H	-0.628077	-1.256112	-0.079285
H57	H	-0.653932	-1.308097	0.131126
O58	O	-0.210395	-2.013178	-0.000213
C59	C	-0.245125	-2.020181	-0.141736
H60	H	-0.248751	-1.903137	-0.188900
H61	H	-0.289476	-2.075827	-0.109909
H62	H	-0.225233	-2.087239	-0.240834
O63	O	-0.069300	-1.486488	-0.000072
C64	C	-0.102880	-1.366564	-0.000006
H65	H	-0.147020	-1.404651	-0.051745
H66	H	-0.081454	-1.273028	-0.079309
H67	H	-0.107321	-1.325040	0.131084
H68	H	-0.484092	-2.118297	0.000059
O69	O	-0.732997	-1.466140	0.000298
C70	C	-0.766975	-1.457003	0.141835
H71	H	-0.781164	-1.573492	0.189010
H72	H	-0.806177	-1.398771	0.110023
H73	H	-0.741063	-1.391358	0.240919
H74	H	-0.376323	-2.121639	0.000030
H75	H	-0.751318	-1.975325	0.000084
O76	O	-0.639907	-2.000087	0.000149
C77	C	-0.684245	-2.117566	0.000104
H78	H	-0.724808	-2.076812	0.051823
H79	H	-0.671340	-2.212164	0.079433
H80	H	-0.692441	-2.158721	-0.130978
H81	H	-0.449820	-1.361303	0.000123
O82	O	-0.186417	-1.483085	0.000224
C83	C	-0.220393	-1.473962	0.141769
H84	H	-0.234573	-1.590455	0.188947
H85	H	-0.259599	-1.415747	0.109966
H86	H	-0.194481	-1.408307	0.240847
