data_functionalizedCrystal
_audit_creation_method	'MofGen! by Chris Wilmer'
_symmetry_space_group_name_H-M	'P1'
_symmetry_Int_Tables_number	1
_symmetry_cell_setting	triclinic
loop_
_symmetry_equiv_pos_as_xyz
  x,y,z
_cell_length_a	19.805407
_cell_length_b	25.639240
_cell_length_c	25.639233
_cell_angle_alpha	89.974071
_cell_angle_beta	89.985655
_cell_angle_gamma	90.032757
loop_
_atom_site_label
_atom_site_type_symbol
_atom_site_fract_x
_atom_site_fract_y
_atom_site_fract_z
Zn1	Zn	1.034671	-0.208214	-0.295607
Zn2	Zn	1.534671	0.291786	0.204393
Zn3	Zn	1.034583	-0.295633	-0.208160
Zn4	Zn	1.534583	0.204367	0.291840
Zn5	Zn	0.921496	-0.208214	-0.208183
Zn6	Zn	1.421496	0.291786	0.291817
Zn7	Zn	0.921436	-0.295621	-0.295562
Zn8	Zn	1.421436	0.204379	0.204438
O9	O	0.978047	-0.251920	-0.251878
O10	O	1.478047	0.248080	0.248122
O11	O	1.129376	-0.219816	-0.284016
O12	O	1.629376	0.280184	0.215984
O13	O	1.019570	-0.284042	-0.134998
O14	O	1.519570	0.215958	0.365002
O15	O	0.936570	-0.135048	-0.219808
O16	O	1.436570	0.364952	0.280192
O17	O	1.129312	-0.284042	-0.219770
O18	O	1.629312	0.215958	0.280230
O19	O	1.019719	-0.135049	-0.284038
O20	O	1.519719	0.364951	0.215962
O21	O	0.936485	-0.219815	-0.135015
O22	O	1.436485	0.280185	0.364985
O23	O	0.826771	-0.219803	-0.219765
O24	O	1.326771	0.280197	0.280235
O25	O	0.936469	-0.284021	-0.368733
O26	O	1.436469	0.215979	0.131267
O27	O	0.826728	-0.284020	-0.283962
O28	O	1.326728	0.215980	0.216038
O29	O	1.019662	-0.219804	-0.368766
O30	O	1.519662	0.280196	0.131234
O31	O	1.019513	-0.368797	-0.219726
O32	O	1.519513	0.131203	0.280274
O33	O	0.936384	-0.368788	-0.283940
O34	O	1.436384	0.131212	0.216060
C35	C	0.802191	-0.251910	-0.251861
C36	C	1.302191	0.248090	0.248139
C37	C	0.726959	-0.251919	-0.251866
C38	C	1.226959	0.248081	0.248134
C39	C	0.691609	-0.285407	-0.285240
C40	C	1.191609	0.214593	0.214760
C41	C	0.620921	-0.285408	-0.285247
C42	C	1.120921	0.214592	0.214753
C43	C	0.585583	-0.251923	-0.251878
C44	C	1.085583	0.248077	0.248122
C45	C	0.620937	-0.218431	-0.218503
C46	C	1.120937	0.281569	0.281497
C47	C	0.691624	-0.218428	-0.218499
C48	C	1.191624	0.281572	0.281501
C49	C	0.335864	-0.218442	-0.218521
C50	C	0.835864	0.281558	0.281479
C51	C	0.265172	-0.218449	-0.218526
C52	C	0.765172	0.281551	0.281474
C53	C	0.265161	-0.285423	-0.285269
C54	C	0.765161	0.214577	0.214731
C55	C	0.335848	-0.285420	-0.285264
C56	C	0.835848	0.214580	0.214736
C57	C	0.371196	-0.251926	-0.251892
C58	C	0.871196	0.248074	0.248108
C59	C	0.447844	-0.251925	-0.251885
C60	C	0.947844	0.248075	0.248115
C61	C	0.508936	-0.251926	-0.251882
C62	C	1.008936	0.248074	0.248118
C63	C	0.977951	-0.387763	-0.251837
C64	C	1.477951	0.112237	0.248163
C65	C	0.977972	-0.445877	-0.251837
C66	C	1.477972	0.054123	0.248163
C67	C	1.021364	-0.806202	-0.285383
C68	C	1.521364	-0.306202	0.214617
C69	C	1.021384	-0.860806	-0.285394
C70	C	1.521384	-0.360806	0.214606
O71	O	1.058163	-0.889011	-0.313874
O72	O	1.558163	-0.389011	0.186126
N73	N	0.978141	-0.888159	-0.251929
N74	N	1.478141	-0.388159	0.248071
C75	C	0.934870	-0.860906	-0.218455
C76	C	1.434870	-0.360906	0.281545
O77	O	0.898089	-0.889186	-0.189991
O78	O	1.398089	-0.389186	0.310009
C79	C	0.934847	-0.806302	-0.218447
C80	C	1.434847	-0.306302	0.281553
C81	C	0.978098	-0.778952	-0.251911
C82	C	1.478098	-0.278952	0.248089
C83	C	1.064611	-0.778851	-0.318844
C84	C	1.564611	-0.278851	0.181156
C85	C	1.064592	-0.724251	-0.318833
C86	C	1.564592	-0.224251	0.181167
C87	C	1.021325	-0.697001	-0.285360
C88	C	1.521325	-0.197001	0.214640
C89	C	0.978079	-0.724351	-0.251899
C90	C	1.478079	-0.224351	0.248101
C91	C	0.891573	-0.779049	-0.184976
C92	C	1.391573	-0.279049	0.315024
C93	C	0.891553	-0.724442	-0.184972
C94	C	1.391553	-0.224442	0.315028
C95	C	0.934804	-0.697092	-0.218435
C96	C	1.434804	-0.197092	0.281565
C97	C	0.934793	-0.642501	-0.218415
C98	C	1.434793	-0.142501	0.281585
N99	N	0.978036	-0.615148	-0.251880
N100	N	1.478036	-0.115148	0.248120
C101	C	1.021303	-0.642398	-0.285353
C102	C	1.521303	-0.142398	0.214647
C103	C	0.934920	-0.975576	-0.218474
C104	C	1.434920	-0.475576	0.281526
C105	C	0.934946	-1.030179	-0.218478
C106	C	1.434946	-0.530179	0.281522
C107	C	1.021459	-1.030075	-0.285418
C108	C	1.521459	-0.530075	0.214582
C109	C	1.021437	-0.975472	-0.285411
C110	C	1.521437	-0.475472	0.214589
C111	C	0.978163	-0.948223	-0.251939
C112	C	1.478163	-0.448223	0.248061
C113	C	1.021259	-0.527733	-0.285326
C114	C	1.521259	-0.027733	0.214674
C115	C	1.021238	-0.473127	-0.285310
C116	C	1.521238	0.026873	0.214690
C117	C	0.934722	-0.473235	-0.218372
C118	C	1.434722	0.026765	0.281628
C119	C	0.934746	-0.527836	-0.218386
C120	C	1.434746	-0.027836	0.281614
C121	C	0.978016	-0.555083	-0.251867
C122	C	1.478016	-0.055083	0.248133
O123	O	0.898030	-0.614262	-0.189951
O124	O	1.398030	-0.114262	0.310049
O125	O	1.058071	-0.614111	-0.313816
O126	O	1.558071	-0.114111	0.186184
C127	C	1.154589	-0.251931	-0.251895
C128	C	1.654589	0.248069	0.248105
C129	C	1.229821	-0.251935	-0.251903
C130	C	1.729821	0.248065	0.248097
C131	C	0.978068	-0.251911	-0.388251
C132	C	1.478068	0.248089	0.111749
C133	C	0.978078	-0.251907	-0.446365
C134	C	1.478078	0.248093	0.053635
C135	C	0.978161	-0.115547	-0.251931
C136	C	1.478161	0.384453	0.248069
C137	C	0.978210	-0.057433	-0.251953
C138	C	1.478210	0.442567	0.248047
C139	C	1.021451	-0.218370	-0.806751
C140	C	1.521451	0.281630	-0.306751
C141	C	1.021460	-0.218356	-0.861356
C142	C	1.521460	0.281644	-0.361356
O143	O	1.058283	-0.189903	-0.889612
O144	O	1.558283	0.310097	-0.389612
N145	N	0.978152	-0.251785	-0.888648
N146	N	1.478152	0.248215	-0.388648
C147	C	0.934829	-0.285227	-0.861333
C148	C	1.434829	0.214773	-0.361333
O149	O	0.897993	-0.313659	-0.889561
O150	O	1.397993	0.186341	-0.389561
C151	C	0.934818	-0.285238	-0.806730
C152	C	1.434818	0.214762	-0.306730
C153	C	0.978133	-0.251811	-0.779440
C154	C	1.478133	0.248189	-0.279440
C155	C	1.064762	-0.184945	-0.779462
C156	C	1.564762	0.315055	-0.279462
C157	C	1.064754	-0.184960	-0.724861
C158	C	1.564754	0.315040	-0.224861
C159	C	1.021436	-0.218401	-0.697550
C160	C	1.521436	0.281599	-0.197550
C161	C	0.978125	-0.251826	-0.724840
C162	C	1.478125	0.248174	-0.224840
C163	C	0.891492	-0.318677	-0.779416
C164	C	1.391492	0.181323	-0.279416
C165	C	0.891484	-0.318685	-0.724809
C166	C	1.391484	0.181315	-0.224809
C167	C	0.934799	-0.285258	-0.697519
C168	C	1.434799	0.214742	-0.197519
C169	C	0.934799	-0.285282	-0.642928
C170	C	1.434799	0.214718	-0.142928
N171	N	0.978106	-0.251853	-0.615636
N172	N	1.478106	0.248147	-0.115636
C173	C	1.021425	-0.218412	-0.642947
C174	C	1.521425	0.281588	-0.142947
C175	C	0.934855	-0.285199	-0.976004
C176	C	1.434855	0.214801	-0.476004
C177	C	0.934869	-0.285191	-1.030606
C178	C	1.434869	0.214809	-0.530606
C179	C	1.021499	-0.218319	-1.030625
C180	C	1.521499	0.281681	-0.530625
C181	C	1.021488	-0.218331	-0.976022
C182	C	1.521488	0.281669	-0.476022
C183	C	0.978162	-0.251770	-0.948712
C184	C	1.478162	0.248230	-0.448712
C185	C	1.021406	-0.218447	-0.528282
C186	C	1.521406	0.281553	-0.028282
C187	C	1.021396	-0.218467	-0.473676
C188	C	1.521396	0.281533	0.026324
C189	C	0.934764	-0.285337	-0.473662
C190	C	1.434764	0.214663	0.026338
C191	C	0.934776	-0.285319	-0.528263
C192	C	1.434776	0.214681	-0.028263
C193	C	0.978099	-0.251870	-0.555571
C194	C	1.478099	0.248130	-0.055571
O195	O	0.897993	-0.313718	-0.614637
O196	O	1.397993	0.186282	-0.114637
O197	O	1.058248	-0.189980	-0.614712
O198	O	1.558248	0.310020	-0.114712
C199	C	0.978064	-0.251892	-0.116036
C200	C	1.478064	0.248108	0.383964
C201	C	0.978186	-0.251748	-0.057922
C202	C	1.478186	0.248252	0.442078
H203	H	1.056461	-0.450860	-0.312560
H204	H	1.556461	0.049140	0.187440
H205	H	0.856195	-0.345911	-0.702576
H206	H	1.356195	0.154089	-0.202576
H207	H	0.592143	-0.312678	-0.312423
H208	H	1.092143	0.187322	0.187577
N209	N	0.729752	-0.182311	-0.182499
N210	N	1.229752	0.317689	0.317501
H211	H	0.779894	-0.187389	-0.187560
H212	H	1.279894	0.312611	0.312440
H213	H	0.717424	-0.144983	-0.190710
H214	H	1.217424	0.355017	0.309290
H215	H	0.899512	-0.312543	-0.550483
H216	H	1.399512	0.187457	-0.050483
H217	H	0.720377	-0.312677	-0.312411
H218	H	1.220377	0.187323	0.187589
H219	H	1.099808	-0.701985	-0.346083
H220	H	1.599808	-0.201985	0.153917
N221	N	1.067921	-0.557116	-0.321442
N222	N	1.567921	-0.057116	0.178558
H223	H	1.095310	-0.531498	-0.342636
H224	H	1.595310	-0.031498	0.157364
H225	H	1.099276	-0.579767	-0.300193
H226	H	1.599276	-0.079767	0.199807
H227	H	0.236402	-0.191178	-0.191353
H228	H	0.736402	0.308822	0.308647
H229	H	0.364616	-0.312689	-0.312435
H230	H	0.864616	0.187311	0.187565
H231	H	0.364636	-0.191174	-0.191343
H232	H	0.864636	0.308826	0.308657
N233	N	1.068221	-0.182244	-1.060081
N234	N	1.568221	0.317756	-0.560081
H235	H	1.099574	-0.203486	-1.082737
H236	H	1.599574	0.296514	-0.582737
H237	H	1.040687	-0.158016	-1.082707
H238	H	1.540687	0.341984	-0.582707
H239	H	1.100025	-0.157739	-0.702647
H240	H	1.600025	0.342261	-0.202647
H241	H	0.592159	-0.191164	-0.191336
H242	H	1.092159	0.308836	0.308664
N243	N	0.888039	-0.321400	-0.444202
N244	N	1.388039	0.178600	0.055798
H245	H	0.898515	-0.358758	-0.453693
H246	H	1.398515	0.141242	0.046307
H247	H	0.894628	-0.316289	-0.405480
H248	H	1.394628	0.183711	0.094520
N249	N	1.111263	-0.808237	-0.354963
N250	N	1.611263	-0.308237	0.145037
H251	H	1.138646	-0.782618	-0.376160
H252	H	1.638646	-0.282618	0.123840
H253	H	1.142624	-0.830889	-0.333721
H254	H	1.642624	-0.330889	0.166279
H255	H	0.856220	-0.345897	-0.801626
H256	H	1.356220	0.154103	-0.301626
H257	H	0.899734	-1.052443	-0.191223
H258	H	1.399734	-0.552443	0.308777
N259	N	1.068084	-0.945975	-0.321503
N260	N	1.568084	-0.445975	0.178497
H261	H	1.095495	-0.971528	-0.342707
H262	H	1.595495	-0.471528	0.157293
H263	H	1.040503	-0.923326	-0.345679
H264	H	1.540503	-0.423326	0.154321
H265	H	0.236372	-0.312693	-0.312444
H266	H	0.736372	0.187307	0.187556
N267	N	1.068127	-1.059472	-0.321523
N268	N	1.568127	-0.559472	0.178477
H269	H	1.061573	-1.098212	-0.316448
H270	H	1.561573	-0.598212	0.183552
H271	H	1.057554	-1.049913	-0.358855
H272	H	1.557554	-0.549913	0.141145
N273	N	0.888250	-0.946188	-0.182365
N274	N	1.388250	-0.446188	0.317635
H275	H	0.860864	-0.971805	-0.161168
H276	H	1.360864	-0.471805	0.338832
H277	H	0.915814	-0.923529	-0.158185
H278	H	1.415814	-0.423529	0.341815
N279	N	0.844924	-0.808540	-0.148882
N280	N	1.344924	-0.308540	0.351118
H281	H	0.817514	-0.782984	-0.127682
H282	H	1.317514	-0.282984	0.372318
H283	H	0.813589	-0.831202	-0.170145
H284	H	1.313589	-0.331202	0.329855
N285	N	0.844877	-0.695053	-0.148870
N286	N	1.344877	-0.195053	0.351130
H287	H	0.817485	-0.720668	-0.127675
H288	H	1.317485	-0.220668	0.372325
H289	H	0.872439	-0.672395	-0.124688
H290	H	1.372439	-0.172395	0.375312
N291	N	0.888160	-0.321247	-1.060041
N292	N	1.388160	0.178753	-0.560041
H293	H	0.898639	-0.358607	-1.050532
H294	H	1.398639	0.141393	-0.550532
H295	H	0.839823	-0.313081	-1.050522
H296	H	1.339823	0.186919	-0.550522
N297	N	0.888105	-0.557338	-0.182289
N298	N	1.388105	-0.057338	0.317711
H299	H	0.915642	-0.579990	-0.158084
H300	H	1.415642	-0.079990	0.341916
H301	H	0.860707	-0.531753	-0.161116
H302	H	1.360707	-0.031753	0.338884
N303	N	0.888062	-0.443839	-0.182268
N304	N	1.388062	0.056161	0.317732
H305	H	0.894616	-0.405098	-0.187342
H306	H	1.394616	0.094902	0.312658
H307	H	0.839718	-0.453407	-0.190373
H308	H	1.339718	0.046593	0.309627
N309	N	1.068118	-0.182414	-0.444243
N310	N	1.568118	0.317586	0.055757
H311	H	1.095559	-0.161227	-0.469833
H312	H	1.595559	0.338773	0.030167
H313	H	1.040586	-0.158221	-0.421588
H314	H	1.540586	0.341779	0.078412
H315	H	0.899574	-0.312433	-0.953771
H316	H	1.399574	0.187567	-0.453771
H317	H	1.056681	-0.191208	-0.550510
H318	H	1.556681	0.308792	-0.050510
H319	H	1.100037	-0.157711	-0.801693
H320	H	1.600037	0.342289	-0.301693
N321	N	1.068205	-0.182278	-0.946590
N322	N	1.568205	0.317722	-0.446590
H323	H	1.095648	-0.161095	-0.972182
H324	H	1.595648	0.338905	-0.472182
H325	H	1.040672	-0.158082	-0.923939
H326	H	1.540672	0.341918	-0.423939
