data_functionalizedCrystal
_audit_creation_method	'MofGen! by Chris Wilmer'
_symmetry_space_group_name_H-M	'P1'
_symmetry_Int_Tables_number	1
_symmetry_cell_setting	triclinic
loop_
_symmetry_equiv_pos_as_xyz
  x,y,z
_cell_length_a	13.897441
_cell_length_b	11.169417
_cell_length_c	13.897448
_cell_angle_alpha	89.981429
_cell_angle_beta	89.969401
_cell_angle_gamma	90.018542
loop_
_atom_site_label
_atom_site_type_symbol
_atom_site_fract_x
_atom_site_fract_y
_atom_site_fract_z
Zn1	Zn	-0.545325	-1.834886	-0.383962
Zn2	Zn	-0.211991	-1.501552	-0.050628
Zn3	Zn	0.121342	-1.168219	0.282705
Zn4	Zn	-0.384026	-1.834754	-0.545283
Zn5	Zn	-0.050693	-1.501421	-0.211950
Zn6	Zn	0.282640	-1.168087	0.121383
Zn7	Zn	-0.384049	-1.634176	-0.384006
Zn8	Zn	-0.050716	-1.300843	-0.050673
Zn9	Zn	0.282617	-0.967510	0.282660
Zn10	Zn	-0.545285	-1.634153	-0.545219
Zn11	Zn	-0.211952	-1.300820	-0.211885
Zn12	Zn	0.121382	-0.967487	0.121448
O13	O	-0.464671	-1.734492	-0.464617
O14	O	-0.131338	-1.401159	-0.131284
O15	O	0.201995	-1.067826	0.202049
O16	O	-0.523935	-2.002818	-0.405369
O17	O	-0.190602	-1.669485	-0.072036
O18	O	0.142732	-1.336151	0.261297
O19	O	-0.249048	-1.808101	-0.523935
O20	O	0.084286	-1.474768	-0.190602
O21	O	0.417619	-1.141434	0.142731
O22	O	-0.405469	-1.660865	-0.249019
O23	O	-0.072136	-1.327532	0.084315
O24	O	0.261197	-0.994199	0.417648
O25	O	-0.405430	-2.002721	-0.523892
O26	O	-0.072096	-1.669388	-0.190558
O27	O	0.261237	-1.336054	0.142775
O28	O	-0.523958	-1.808326	-0.248986
O29	O	-0.190624	-1.474993	0.084347
O30	O	0.142709	-1.141659	0.417681
O31	O	-0.249065	-1.660738	-0.405446
O32	O	0.084269	-1.327404	-0.072112
O33	O	0.417602	-0.994071	0.261221
O34	O	-0.405431	-1.466223	-0.405383
O35	O	-0.072097	-1.132890	-0.072050
O36	O	0.261236	-0.799557	0.261283
O37	O	-0.680272	-1.660827	-0.523782
O38	O	-0.346939	-1.327493	-0.190449
O39	O	-0.013605	-0.994160	0.142885
O40	O	-0.523890	-1.466207	-0.523825
O41	O	-0.190556	-1.132873	-0.190492
O42	O	0.142777	-0.799540	0.142841
O43	O	-0.680301	-1.808304	-0.405307
O44	O	-0.346968	-1.474971	-0.071974
O45	O	-0.013635	-1.141637	0.261360
O46	O	-0.405391	-1.808079	-0.680256
O47	O	-0.072058	-1.474746	-0.346923
O48	O	0.261276	-1.141412	-0.013590
O49	O	-0.523867	-1.660699	-0.680209
O50	O	-0.190534	-1.327365	-0.346876
O51	O	0.142799	-0.994032	-0.013542
C52	C	-0.464659	-1.422668	-0.464603
C53	C	-0.131326	-1.089334	-0.131270
C54	C	0.202008	-0.756001	0.202064
C55	C	-0.464676	-1.289268	-0.464620
C56	C	-0.131343	-0.955934	-0.131286
C57	C	0.201990	-0.622601	0.202047
C58	C	-0.716264	-1.734577	-0.464532
C59	C	-0.382931	-1.401244	-0.131199
C60	C	-0.049598	-1.067911	0.202134
C61	C	-0.823478	-1.734614	-0.464496
C62	C	-0.490145	-1.401280	-0.131163
C63	C	-0.156812	-1.067947	0.202171
C64	C	-0.464643	-1.734405	-0.715232
C65	C	-0.131310	-1.401071	-0.381899
C66	C	0.202023	-1.067738	-0.048565
C67	C	-0.464664	-1.734477	-0.822446
C68	C	-0.131330	-1.401144	-0.489112
C69	C	0.202003	-1.067810	-0.155779
C70	C	-1.019774	-1.734646	-0.464431
C71	C	-0.686440	-1.401313	-0.131097
C72	C	-0.353107	-1.067980	0.202236
C73	C	-0.910541	-1.734625	-0.464470
C74	C	-0.577208	-1.401291	-0.131136
C75	C	-0.243874	-1.067958	0.202197
C76	C	-0.214057	-1.734477	-0.464633
C77	C	0.119276	-1.401143	-0.131299
C78	C	0.452610	-1.067810	0.202034
C79	C	-0.106844	-1.734673	-0.464397
C80	C	0.226490	-1.401339	-0.131064
C81	C	0.559823	-1.068006	0.202269
C82	C	-0.464684	-2.047535	-0.464633
C83	C	-0.131351	-1.714201	-0.131300
C84	C	0.201982	-1.380868	0.202034
C85	C	-0.464690	-2.180935	-0.464639
C86	C	-0.131357	-1.847601	-0.131306
C87	C	0.201977	-1.514268	0.202027
C88	C	-0.464724	-1.734603	-1.018741
C89	C	-0.131391	-1.401270	-0.685407
C90	C	0.201942	-1.067936	-0.352074
C91	C	-0.464693	-1.734530	-0.909508
C92	C	-0.131360	-1.401196	-0.576175
C93	C	0.201973	-1.067863	-0.242842
C94	C	-0.464720	-1.734613	-0.213024
C95	C	-0.131387	-1.401280	0.120309
C96	C	0.201946	-1.067946	0.453642
C97	C	-0.464741	-1.734664	-0.105811
C98	C	-0.131408	-1.401331	0.227523
C99	C	0.201925	-1.067998	0.560856
