data_functionalizedCrystal
_audit_creation_method	'MofGen! by Chris Wilmer'
_symmetry_space_group_name_H-M	'P1'
_symmetry_Int_Tables_number	1
_symmetry_cell_setting	triclinic
loop_
_symmetry_equiv_pos_as_xyz
  x,y,z
_cell_length_a	16.959455
_cell_length_b	16.625545
_cell_length_c	16.959447
_cell_angle_alpha	90.029927
_cell_angle_beta	90.014322
_cell_angle_gamma	90.022505
loop_
_atom_site_label
_atom_site_type_symbol
_atom_site_fract_x
_atom_site_fract_y
_atom_site_fract_z
Zn1	Zn	1.208354	-0.321051	0.446911
Zn2	Zn	1.708354	0.178949	0.946911
Zn3	Zn	1.208263	-0.455899	0.314733
Zn4	Zn	1.708263	0.044101	0.814733
Zn5	Zn	1.076182	-0.321077	0.314748
Zn6	Zn	1.576182	0.178923	0.814748
Zn7	Zn	1.076134	-0.455839	0.446872
Zn8	Zn	1.576134	0.044161	0.946872
O9	O	1.142233	-0.388466	0.380816
O10	O	1.642233	0.111534	0.880816
O11	O	1.318953	-0.338954	0.429387
O12	O	1.818953	0.161046	0.929387
O13	O	1.190725	-0.438050	0.204124
O14	O	1.690725	0.061950	0.704124
O15	O	1.093773	-0.208241	0.332303
O16	O	1.593773	0.291759	0.832303
O17	O	1.318886	-0.438026	0.332277
O18	O	1.818886	0.061974	0.832277
O19	O	1.190879	-0.208222	0.429402
O20	O	1.690879	0.291778	0.929402
O21	O	1.093685	-0.338997	0.204135
O22	O	1.593685	0.161003	0.704135
O23	O	0.965565	-0.338939	0.332265
O24	O	1.465565	0.161061	0.832265
O25	O	1.093691	-0.437923	0.557488
O26	O	1.593691	0.062077	1.057488
O27	O	0.965530	-0.437947	0.429335
O28	O	1.465530	0.062053	0.929335
O29	O	1.190832	-0.338895	0.557517
O30	O	1.690832	0.161105	1.057517
O31	O	1.190678	-0.568723	0.332239
O32	O	1.690678	-0.068723	0.832239
O33	O	1.093604	-0.568679	0.429321
O34	O	1.593604	-0.068679	0.929321
C35	C	0.936867	-0.388440	0.380798
C36	C	1.436867	0.111560	0.880798
C37	C	0.849010	-0.388448	0.380809
C38	C	1.349010	0.111552	0.880809
C39	C	0.477529	-0.336870	0.330377
C40	C	0.977529	0.163130	0.830377
C41	C	0.477541	-0.440129	0.431300
C42	C	0.977541	0.059871	0.931300
C43	C	0.560087	-0.440117	0.431295
C44	C	1.060087	0.059883	0.931295
C45	C	0.601358	-0.388482	0.380830
C46	C	1.101358	0.111518	0.880830
C47	C	0.560082	-0.336859	0.330369
C48	C	1.060082	0.163141	0.830369
C49	C	0.601368	-0.491746	0.481750
C50	C	1.101368	0.008254	0.981750
C51	C	0.683919	-0.491737	0.481746
C52	C	1.183919	0.008263	0.981746
C53	C	0.725191	-0.440097	0.431284
C54	C	1.225191	0.059903	0.931284
C55	C	0.683911	-0.388471	0.380822
C56	C	1.183911	0.111529	0.880822
C57	C	0.725182	-0.336836	0.330356
C58	C	1.225182	0.163164	0.830356
C59	C	0.683903	-0.285205	0.279897
C60	C	1.183903	0.214795	0.779897
C61	C	0.601355	-0.285219	0.279907
C62	C	1.101355	0.214781	0.779907
C63	C	0.807740	-0.440083	0.431275
C64	C	1.307740	0.059917	0.931275
C65	C	0.807735	-0.336824	0.330348
C66	C	1.307735	0.163176	0.830348
C67	C	1.142147	-0.597957	0.380791
C68	C	1.642147	-0.097957	0.880791
C69	C	1.142183	-0.687578	0.380807
C70	C	1.642183	-0.187578	0.880807
C71	C	1.142214	-0.760361	0.380823
C72	C	1.642214	-0.260361	0.880823
C73	C	1.142260	-0.851669	0.380840
C74	C	1.642260	-0.351669	0.880840
C75	C	1.142301	-0.924446	0.380850
C76	C	1.642301	-0.424446	0.880850
C77	C	1.142346	-1.015760	0.380866
C78	C	1.642346	-0.515760	0.880866
C79	C	1.348402	-0.388494	0.380835
C80	C	1.848402	0.111506	0.880835
C81	C	1.436258	-0.388505	0.380843
C82	C	1.936258	0.111495	0.880843
C83	C	1.142266	-0.388400	0.586984
C84	C	1.642266	0.111600	1.086984
C85	C	1.142280	-0.388371	0.674841
C86	C	1.642280	0.111629	1.174841
C87	C	1.142341	-0.178157	0.380858
C88	C	1.642341	0.321843	0.880858
C89	C	1.142387	-0.088536	0.380876
C90	C	1.642387	0.411464	0.880876
C91	C	1.142246	-0.388475	0.175450
C92	C	1.642246	0.111525	0.675450
C93	C	1.142385	-0.388276	0.087594
C94	C	1.642385	0.111724	0.587594
C95	C	1.091798	-0.439845	1.046304
C96	C	1.591798	0.060155	1.546304
C97	C	1.192952	-0.336727	1.046329
C98	C	1.692952	0.163273	1.546329
C99	C	1.192931	-0.336744	0.963783
C100	C	1.692931	0.163256	1.463783
C101	C	1.142343	-0.388313	0.922494
C102	C	1.642343	0.111687	1.422494
C103	C	1.091777	-0.439866	0.963751
C104	C	1.591777	0.060134	1.463751
C105	C	1.243502	-0.285199	0.922521
C106	C	1.743502	0.214801	1.422521
C107	C	1.243483	-0.285214	0.839970
C108	C	1.743483	0.214786	1.339970
C109	C	1.192891	-0.336780	0.798679
C110	C	1.692891	0.163220	1.298679
C111	C	1.142322	-0.388334	0.839941
C112	C	1.642322	0.111666	1.339941
C113	C	1.091735	-0.439903	0.798651
C114	C	1.591735	0.060097	1.298651
C115	C	1.041161	-0.491453	0.839911
C116	C	1.541161	0.008547	1.339911
C117	C	1.041185	-0.491431	0.922460
C118	C	1.541185	0.008569	1.422460
C119	C	1.192868	-0.336802	0.716130
C120	C	1.692868	0.163198	1.216130
C121	C	1.091714	-0.439923	0.716098
C122	C	1.591714	0.060077	1.216098
H123	H	0.443933	-0.482173	0.472382
H124	H	0.943933	0.017827	0.972382
H125	H	0.717521	-0.533777	0.522834
H126	H	1.217521	-0.033777	1.022834
C127	C	1.254472	-0.176762	0.747191
C128	C	1.754472	0.323238	1.247191
C129	C	1.299057	-0.228531	0.794627
C130	C	1.799057	0.271469	1.294627
H131	H	1.288778	-0.141766	0.719197
H132	H	1.788778	0.358234	1.219197
H133	H	1.220058	-0.145928	0.779413
H134	H	1.720058	0.354072	1.279413
H135	H	1.224352	-0.207484	0.710782
H136	H	1.724352	0.292516	1.210782
H137	H	1.329172	-0.197809	0.831039
H138	H	1.829172	0.302191	1.331039
H139	H	1.333485	-0.259368	0.762402
H140	H	1.833485	0.240632	1.262402
H141	H	1.000013	-0.533403	0.956061
H142	H	1.500013	-0.033403	1.456061
H143	H	1.284692	-0.243219	0.956144
H144	H	1.784692	0.256781	1.456144
C145	C	0.485822	-0.234796	0.230620
C146	C	0.985822	0.265204	0.730620
C147	C	0.432161	-0.280118	0.274914
C148	C	0.932161	0.219882	0.774914
H149	H	0.457812	-0.199757	0.196383
H150	H	0.957812	0.300243	0.696383
H151	H	0.517994	-0.269886	0.200322
H152	H	1.017994	0.230114	0.700322
H153	H	0.518043	-0.203998	0.265117
H154	H	1.018043	0.296002	0.765117
H155	H	0.399943	-0.310921	0.240416
H156	H	0.899943	0.189079	0.740416
H157	H	0.399975	-0.245024	0.305214
H158	H	0.899975	0.254976	0.805214
H159	H	1.234046	-0.294833	0.682540
H160	H	1.734046	0.205167	1.182540
H161	H	1.234142	-0.294746	1.079952
H162	H	1.734142	0.205254	1.579952
C163	C	1.046906	-0.485605	1.172829
C164	C	1.546906	0.014395	1.672829
C165	C	1.036211	-0.496510	1.091653
C166	C	1.536211	0.003490	1.591653
H167	H	1.012592	-0.520592	1.200824
H168	H	1.512592	-0.020592	1.700824
H169	H	1.035367	-0.431432	1.186367
H170	H	1.535367	0.068568	1.686367
H171	H	1.100014	-0.497411	1.186350
H172	H	1.600014	0.002589	1.686350
H173	H	0.983104	-0.484698	1.078131
H174	H	1.483104	0.015302	1.578131
H175	H	1.047745	-0.550696	1.078109
H176	H	1.547745	-0.050696	1.578109
C177	C	0.985356	-0.451145	0.623266
C178	C	1.485356	0.048855	1.123266
C179	C	1.036104	-0.496613	0.670719
C180	C	1.536104	0.003387	1.170719
H181	H	0.951023	-0.486145	0.595257
H182	H	1.451023	0.013855	1.095257
H183	H	1.015468	-0.420460	0.586878
H184	H	1.515468	0.079540	1.086878
H185	H	0.955151	-0.416001	0.655484
H186	H	1.455151	0.083999	1.155484
H187	H	1.066314	-0.531753	0.638500
H188	H	1.566314	-0.031753	1.138500
H189	H	1.005989	-0.527311	0.707111
H190	H	1.505989	-0.027311	1.207111
C191	C	0.833113	-0.297378	0.196566
C192	C	1.333113	0.202622	0.696566
C193	C	0.853100	-0.280068	0.274871
C194	C	1.353100	0.219932	0.774871
H195	H	0.861124	-0.262342	0.162318
H196	H	1.361124	0.237658	0.662318
H197	H	0.778049	-0.289990	0.189357
H198	H	1.278049	0.210010	0.689357
H199	H	0.846624	-0.351540	0.184913
H200	H	1.346624	0.148460	0.684913
H201	H	0.839583	-0.225908	0.286526
H202	H	1.339583	0.274092	0.786526
H203	H	0.908176	-0.287450	0.282083
H204	H	1.408176	0.212550	0.782083
C205	C	0.709294	-0.245764	0.146115
C206	C	1.209294	0.254236	0.646115
C207	C	0.729276	-0.228454	0.224422
C208	C	1.229276	0.271546	0.724422
H209	H	0.737313	-0.210734	0.111869
H210	H	1.237313	0.289266	0.611869
H211	H	0.654232	-0.238368	0.138902
H212	H	1.154232	0.261632	0.638902
H213	H	0.722798	-0.299928	0.134465
H214	H	1.222798	0.200072	0.634465
H215	H	0.715767	-0.174292	0.236073
H216	H	1.215767	0.325708	0.736073
H217	H	0.784351	-0.235844	0.231639
H218	H	1.284351	0.264156	0.731639
H219	H	0.999976	-0.533444	0.806283
H220	H	1.499976	-0.033444	1.306283
C221	C	0.474831	-0.537600	0.526574
C222	C	0.974831	-0.037600	1.026574
C223	C	0.556003	-0.548500	0.537219
C224	C	1.056003	-0.048500	1.037219
H225	H	0.446824	-0.572637	0.560824
H226	H	0.946824	-0.072637	1.060824
H227	H	0.461285	-0.549335	0.473452
H228	H	0.961285	-0.049335	0.973452
H229	H	0.461334	-0.483438	0.538239
H230	H	0.961334	0.016562	1.038239
H231	H	0.569502	-0.602661	0.525547
H232	H	1.069502	-0.102661	1.025547
H233	H	0.569555	-0.536772	0.590352
H234	H	1.069555	-0.036772	1.090352
H235	H	0.567738	-0.243185	0.238825
H236	H	1.067738	0.256815	0.738825
H237	H	0.841345	-0.482122	0.472355
H238	H	1.341345	0.017878	0.972355
