data_functionalizedCrystal
_audit_creation_method	'MofGen! by Chris Wilmer'
_symmetry_space_group_name_H-M	'P1'
_symmetry_Int_Tables_number	1
_symmetry_cell_setting	triclinic
loop_
_symmetry_equiv_pos_as_xyz
  x,y,z
_cell_length_a	6.817900
_cell_length_b	11.102288
_cell_length_c	10.943624
_cell_angle_alpha	91.861856
_cell_angle_beta	108.838799
_cell_angle_gamma	108.605689
loop_
_atom_site_label
_atom_site_type_symbol
_atom_site_fract_x
_atom_site_fract_y
_atom_site_fract_z
V1	V	-4.114282	-0.175806	-0.402551
O2	O	-4.073263	0.008482	-0.394888
O3	O	-4.091041	-0.348626	-0.399798
O4	O	-4.092264	-0.173087	-0.578118
O5	O	-4.072031	-0.168273	-0.215334
V6	V	-4.591232	-0.153765	-0.380159
O7	O	-4.389960	-0.224155	-0.451671
O8	O	-4.765752	-0.105415	-0.331038
O9	O	-4.391267	0.019056	-0.382912
O10	O	-4.749649	-0.338053	-0.387822
O11	O	-4.750880	-0.161298	-0.567376
O12	O	-4.390044	-0.156484	-0.204592
C13	C	-3.941308	-0.390757	-0.393448
C14	C	-4.003768	-0.532040	-0.392367
C15	C	-4.217163	-0.604887	-0.398301
C16	C	-4.275844	-0.737639	-0.397296
C17	C	-3.907710	-0.724682	-0.384417
C18	C	-3.849037	-0.591934	-0.385432
C19	C	-3.942867	-0.166837	-0.620910
C20	C	-4.006314	-0.165757	-0.764437
C21	C	-3.851194	-0.158485	-0.841584
C22	C	-4.039808	-0.266416	-0.947575
C23	C	-3.930779	-0.055914	-0.914188
C24	C	-4.194138	-0.273789	-0.868550
C25	C	-4.085029	-0.063191	-0.835140
C26	C	-4.273779	-0.171153	-0.941100
C27	C	-4.204342	0.061180	-0.389258
C28	C	-4.121122	0.202461	-0.390347
C29	C	-4.202783	-0.162738	-0.161793
C30	C	-4.118573	-0.163811	-0.018265
H31	H	-4.449608	-0.796947	-0.402130
H32	H	-4.343158	-0.556125	-0.403946
H33	H	-3.820065	0.036144	-0.934950
O34	O	-3.641604	-0.521342	-0.379601
C35	C	-3.517626	-0.602672	-0.373283
H36	H	-3.592219	-0.692899	-0.333380
H37	H	-3.520945	-0.630762	-0.475256
C38	C	-3.185338	-0.420867	-0.331546
C39	C	-3.276943	-0.531681	-0.282526
H40	H	-3.036871	-0.377076	-0.275568
H41	H	-3.268865	-0.366073	-0.335807
H42	H	-3.188124	-0.444291	-0.416523
H43	H	-3.274182	-0.508254	-0.197558
H44	H	-3.193410	-0.586470	-0.278249
O45	O	-4.107256	0.039161	-0.776645
C46	C	-4.262252	-0.004947	-0.713916
H47	H	-4.376622	-0.107179	-0.761004
H48	H	-4.171516	-0.003892	-0.606025
C49	C	-4.259168	0.209107	-0.669695
C50	C	-4.399651	0.083548	-0.727537
H51	H	-4.343916	0.263697	-0.678090
H52	H	-4.154737	0.238826	-0.711952
H53	H	-4.183563	0.209968	-0.579790
H54	H	-4.475231	0.082686	-0.817442
H55	H	-4.504098	0.053831	-0.685295
H56	H	-4.021354	-0.352332	-0.996523
H57	H	-4.453057	-0.176535	-0.984345
O58	O	-4.326004	-0.383723	-0.843826
C59	C	-4.264085	-0.383451	-0.707778
H60	H	-4.085362	-0.316826	-0.657682
H61	H	-4.376579	-0.348199	-0.669892
C62	C	-4.505422	-0.602603	-0.739543
C63	C	-4.285905	-0.520781	-0.678016
H64	H	-4.518891	-0.687315	-0.721183
H65	H	-4.547146	-0.602786	-0.831202
H66	H	-4.599142	-0.573211	-0.707965
H67	H	-4.192193	-0.550165	-0.709606
H68	H	-4.244166	-0.520607	-0.586361
H69	H	-3.781741	-0.773464	-0.378768
H70	H	-3.672030	-0.153274	-0.798136
