data_functionalizedCrystal
_audit_creation_method	'MofGen! by Chris Wilmer'
_symmetry_space_group_name_H-M	'P1'
_symmetry_Int_Tables_number	1
_symmetry_cell_setting	triclinic
loop_
_symmetry_equiv_pos_as_xyz
  x,y,z
_cell_length_a	16.625545
_cell_length_b	21.295419
_cell_length_c	21.295411
_cell_angle_alpha	90.025287
_cell_angle_beta	89.983621
_cell_angle_gamma	89.957883
loop_
_atom_site_label
_atom_site_type_symbol
_atom_site_fract_x
_atom_site_fract_y
_atom_site_fract_z
Zn1	Zn	-0.320737	-0.962377	-0.355947
Zn2	Zn	0.179263	-0.462377	0.144053
Zn3	Zn	-0.455553	-0.962289	-0.250682
Zn4	Zn	0.044447	-0.462289	0.249318
Zn5	Zn	-0.320777	-0.857100	-0.250690
Zn6	Zn	0.179223	-0.357100	0.249310
Zn7	Zn	-0.455571	-0.857079	-0.355912
Zn8	Zn	0.044429	-0.357079	0.144088
O9	O	-0.388159	-0.909711	-0.303308
O10	O	0.111841	-0.409711	0.196692
O11	O	-0.338597	-1.050455	-0.341994
O12	O	0.161403	-0.550455	0.158006
O13	O	-0.437684	-0.948307	-0.162594
O14	O	0.062316	-0.448307	0.337406
O15	O	-0.207939	-0.871112	-0.264671
O16	O	0.292061	-0.371112	0.235329
O17	O	-0.437645	-1.050390	-0.264656
O18	O	0.062355	-0.550390	0.235344
O19	O	-0.207910	-0.948458	-0.342002
O20	O	0.292090	-0.448458	0.157998
O21	O	-0.338664	-0.871026	-0.162600
O22	O	0.161336	-0.371026	0.337400
O23	O	-0.338681	-0.769008	-0.264637
O24	O	0.161319	-0.269008	0.235363
O25	O	-0.437675	-0.871075	-0.444006
O26	O	0.062325	-0.371075	0.055994
O27	O	-0.437714	-0.768992	-0.341943
O28	O	0.062286	-0.268992	0.158057
O29	O	-0.338614	-0.948437	-0.444032
O30	O	0.161386	-0.448437	0.055968
O31	O	-0.568388	-0.948286	-0.264623
O32	O	-0.068388	-0.448286	0.235377
O33	O	-0.568401	-0.870989	-0.341935
O34	O	-0.068401	-0.370989	0.158065
C35	C	-0.388204	-0.746160	-0.303288
C36	C	0.111796	-0.246160	0.196712
C37	C	-0.388243	-0.676192	-0.303294
C38	C	0.111757	-0.176192	0.196706
C39	C	-0.336754	-0.643381	-0.343626
C40	C	0.163246	-0.143381	0.156374
C41	C	-0.336735	-0.577639	-0.343628
C42	C	0.163265	-0.077639	0.156372
C43	C	-0.388219	-0.544709	-0.303304
C44	C	0.111781	-0.044709	0.196696
C45	C	-0.439712	-0.577527	-0.262965
C46	C	0.060288	-0.077527	0.237035
C47	C	-0.439724	-0.643269	-0.262960
C48	C	0.060276	-0.143269	0.237040
N49	N	-0.458771	-0.441438	-0.298388
N50	N	0.041229	0.058562	0.201612
N51	N	-0.458758	-0.378987	-0.298397
N52	N	0.041242	0.121013	0.201603
C53	C	-0.388185	-0.346634	-0.303316
C54	C	0.111815	0.153366	0.196684
N55	N	-0.317626	-0.379092	-0.308238
N56	N	0.182374	0.120908	0.191762
N57	N	-0.317640	-0.441550	-0.308233
N58	N	0.182360	0.058450	0.191767
C59	C	-0.388212	-0.473424	-0.303305
C60	C	0.111788	0.026576	0.196695
C61	C	-0.336672	-0.242538	-0.343651
C62	C	0.163328	0.257462	0.156349
C63	C	-0.336651	-0.176795	-0.343648
C64	C	0.163349	0.323205	0.156352
C65	C	-0.439635	-0.176685	-0.262989
C66	C	0.060365	0.323315	0.237011
C67	C	-0.439648	-0.242427	-0.262988
C68	C	0.060352	0.257573	0.237012
C69	C	-0.388168	-0.275350	-0.303323
C70	C	0.111832	0.224650	0.196677
C71	C	-0.597650	-0.909643	-0.303288
C72	C	-0.097650	-0.409643	0.196712
C73	C	-0.687271	-0.909671	-0.303301
C74	C	-0.187271	-0.409671	0.196699
C75	C	-0.760054	-0.909696	-0.303313
C76	C	-0.260054	-0.409696	0.196687
C77	C	-0.851362	-0.909732	-0.303327
C78	C	-0.351362	-0.409732	0.196673
C79	C	-0.924139	-0.909765	-0.303335
C80	C	-0.424139	-0.409765	0.196665
C81	C	-1.015453	-0.909801	-0.303348
C82	C	-0.515453	-0.409801	0.196652
C83	C	-0.177850	-0.909797	-0.303341
C84	C	0.322150	-0.409797	0.196659
C85	C	-0.088229	-0.909834	-0.303356
C86	C	0.411771	-0.409834	0.196644
C87	C	-0.388142	-0.909764	-0.467498
C88	C	0.111858	-0.409764	0.032502
C89	C	-0.388135	-0.909786	-0.537466
C90	C	0.111865	-0.409786	-0.037466
C91	C	-0.388125	-0.073902	-0.303325
C92	C	0.111875	0.426098	0.196675
C93	C	-0.388135	-0.143870	-0.303324
C94	C	0.111865	0.356130	0.196676
C95	C	-0.336551	-0.950067	-0.570347
C96	C	0.163449	-0.450067	-0.070347
C97	C	-0.336516	-0.950066	-0.636090
C98	C	0.163484	-0.450066	-0.136090
C99	C	-0.388080	-0.909791	-0.668949
C100	C	0.111920	-0.409791	-0.168949
C101	C	-0.439667	-0.869502	-0.636060
C102	C	0.060333	-0.369502	-0.136060
C103	C	-0.439694	-0.869500	-0.570319
C104	C	0.060306	-0.369500	-0.070319
N105	N	-0.458617	-0.904939	-0.772169
N106	N	0.041383	-0.404939	-0.272169
N107	N	-0.458588	-0.904945	-0.834621
N108	N	0.041412	-0.404945	-0.334621
C109	C	-0.387998	-0.909795	-0.867024
C110	C	0.112002	-0.409795	-0.367024
N111	N	-0.317436	-0.914651	-0.834616
N112	N	0.182564	-0.414651	-0.334616
N113	N	-0.317465	-0.914648	-0.772159
N114	N	0.182535	-0.414648	-0.272159
C115	C	-0.388055	-0.909789	-0.740234
C116	C	0.111945	-0.409789	-0.240234
C117	C	-0.336372	-0.950077	-0.971190
C118	C	0.163628	-0.450077	-0.471190
C119	C	-0.336336	-0.950071	-1.036934
C120	C	0.163664	-0.450071	-0.536934
C121	C	-0.439493	-0.869511	-1.036903
C122	C	0.060507	-0.369511	-0.536903
C123	C	-0.439522	-0.869513	-0.971160
C124	C	0.060478	-0.369513	-0.471160
C125	C	-0.387963	-0.909799	-0.938308
C126	C	0.112037	-0.409799	-0.438308
C127	C	-0.388118	-0.909695	-0.139756
C128	C	0.111882	-0.409695	0.360244
C129	C	-0.387898	-0.909795	-0.069788
C130	C	0.112102	-0.409795	0.430212
H131	H	-0.294803	-0.550919	-0.376469
H132	H	0.205197	-0.050919	0.123531
Cl133	Cl	-0.271647	-1.000696	-0.677434
Cl134	Cl	0.228353	-0.500696	-0.177434
H135	H	-0.294567	-0.982870	-0.543603
H136	H	0.205433	-0.482870	-0.043603
Cl137	Cl	-0.272034	-0.684767	-0.394331
Cl138	Cl	0.227966	-0.184767	0.105669
Cl139	Cl	-0.504431	-0.536131	-0.212270
Cl140	Cl	-0.004431	-0.036131	0.287730
Cl141	Cl	-0.504549	-0.818857	-0.528981
Cl142	Cl	-0.004549	-0.318857	-0.028981
Cl143	Cl	-0.504456	-0.684518	-0.212252
Cl144	Cl	-0.004456	-0.184518	0.287748
Cl145	Cl	-0.271912	-0.135547	-0.394353
Cl146	Cl	0.228088	0.364453	0.105647
H147	H	-0.294748	-0.269346	-0.376490
H148	H	0.205252	0.230654	0.123510
H149	H	-0.481554	-0.149874	-0.230156
H150	H	0.018446	0.350126	0.269844
H151	H	-0.481579	-0.269142	-0.230148
H152	H	0.018421	0.230858	0.269852
H153	H	-0.481647	-0.836708	-0.662818
H154	H	0.018353	-0.336708	-0.162818
Cl155	Cl	-0.271552	-1.000718	-0.929887
Cl156	Cl	0.228448	-0.500718	-0.429887
H157	H	-0.294325	-0.982872	-1.063704
H158	H	0.205675	-0.482872	-0.563704
Cl159	Cl	-0.504309	-0.818873	-1.078205
Cl160	Cl	-0.004309	-0.318873	-0.578205
Cl161	Cl	-0.504377	-0.818874	-0.929822
Cl162	Cl	-0.004377	-0.318874	-0.429822
