data_functionalizedCrystal
_audit_creation_method	'MofGen! by Chris Wilmer'
_symmetry_space_group_name_H-M	'P1'
_symmetry_Int_Tables_number	1
_symmetry_cell_setting	triclinic
loop_
_symmetry_equiv_pos_as_xyz
  x,y,z
_cell_length_a	19.121102
_cell_length_b	21.295418
_cell_length_c	21.295411
_cell_angle_alpha	89.975438
_cell_angle_beta	87.545010
_cell_angle_gamma	87.582679
loop_
_atom_site_label
_atom_site_type_symbol
_atom_site_fract_x
_atom_site_fract_y
_atom_site_fract_z
Zn1	Zn	1.073683	-0.291758	-0.396931
Zn2	Zn	1.407016	0.041575	-0.063597
Zn3	Zn	1.740349	0.374909	0.269736
Zn4	Zn	1.073595	-0.397019	-0.291660
Zn5	Zn	1.406928	-0.063686	0.041673
Zn6	Zn	1.740261	0.269647	0.375006
Zn7	Zn	0.956239	-0.287273	-0.287191
Zn8	Zn	1.289572	0.046060	0.046142
Zn9	Zn	1.622905	0.379393	0.379476
Zn10	Zn	0.956192	-0.392493	-0.392409
Zn11	Zn	1.289526	-0.059160	-0.059075
Zn12	Zn	1.622859	0.274173	0.274258
O13	O	1.014927	-0.342136	-0.342048
O14	O	1.348260	-0.008803	-0.008714
O15	O	1.681594	0.324531	0.324619
O16	O	1.171955	-0.309492	-0.386729
O17	O	1.505288	0.023841	-0.053396
O18	O	1.838622	0.357175	0.279937
O19	O	1.058010	-0.382479	-0.202977
O20	O	1.391343	-0.049145	0.130356
O21	O	1.724677	0.284188	0.463689
O22	O	0.971874	-0.199781	-0.301770
O23	O	1.305208	0.133552	0.031563
O24	O	1.638541	0.466886	0.364897
O25	O	1.171890	-0.386827	-0.309388
O26	O	1.505224	-0.053494	0.023946
O27	O	1.838557	0.279840	0.357279
O28	O	1.058160	-0.203076	-0.382395
O29	O	1.391493	0.130258	-0.049062
O30	O	1.724826	0.463591	0.284271
O31	O	0.971789	-0.301849	-0.199694
O32	O	1.305122	0.031485	0.133640
O33	O	1.638456	0.364818	0.466973
O34	O	0.857949	-0.297460	-0.297385
O35	O	1.191282	0.035873	0.035948
O36	O	1.524615	0.369207	0.369281
O37	O	0.971795	-0.379113	-0.481099
O38	O	1.305128	-0.045780	-0.147765
O39	O	1.638462	0.287553	0.185568
O40	O	0.857915	-0.374765	-0.374688
O41	O	1.191248	-0.041432	-0.041355
O42	O	1.524581	0.291902	0.291978
O43	O	1.058115	-0.305103	-0.484421
O44	O	1.391448	0.028230	-0.151088
O45	O	1.724781	0.361563	0.182246
O46	O	1.057965	-0.484506	-0.305003
O47	O	1.391298	-0.151173	0.028330
O48	O	1.724632	0.182160	0.361664
O49	O	0.971710	-0.481181	-0.379022
O50	O	1.305043	-0.147848	-0.045689
O51	O	1.638377	0.185486	0.287644
C52	C	0.832448	-0.335135	-0.335062
C53	C	1.165781	-0.001802	-0.001728
C54	C	1.499114	0.331531	0.331605
C55	C	0.754382	-0.332155	-0.332088
C56	C	1.087716	0.001178	0.001246
C57	C	1.421049	0.334511	0.334579
C58	C	1.014842	-0.505684	-0.342021
C59	C	1.348175	-0.172351	-0.008688
C60	C	1.681508	0.160982	0.324645
C61	C	1.014870	-0.575654	-0.342034
C62	C	1.348203	-0.242320	-0.008700
C63	C	1.681536	0.091013	0.324633
C64	C	0.717708	-0.371065	-0.370875
C65	C	1.051041	-0.037731	-0.037542
C66	C	1.384374	0.295602	0.295792
C67	C	0.644357	-0.368256	-0.368084
C68	C	0.977690	-0.034923	-0.034751
C69	C	1.311023	0.298410	0.298583
C70	C	0.607682	-0.326542	-0.326502
C71	C	0.941015	0.006792	0.006831
C72	C	1.274349	0.340125	0.340165
C73	C	0.644362	-0.287628	-0.287713
C74	C	0.977695	0.045705	0.045620
C75	C	1.311029	0.379038	0.378954
C76	C	0.717711	-0.290434	-0.290508
C77	C	1.051045	0.042900	0.042826
C78	C	1.384378	0.376233	0.376159
C79	C	0.386214	-0.316052	-0.316056
C80	C	0.719547	0.017282	0.017277
C81	C	1.052881	0.350615	0.350610
C82	C	0.312859	-0.313251	-0.313263
C83	C	0.646193	0.020083	0.020070
C84	C	0.979526	0.353416	0.353404
C85	C	0.312859	-0.393878	-0.393635
C86	C	0.646193	-0.060545	-0.060302
C87	C	0.979526	0.272788	0.273032
C88	C	0.386210	-0.396683	-0.396423
C89	C	0.719543	-0.063349	-0.063090
C90	C	1.052877	0.269984	0.270243
C91	C	0.422884	-0.357767	-0.357637
C92	C	0.756217	-0.024433	-0.024304
C93	C	1.089550	0.308900	0.309030
C94	C	0.532706	-0.323672	-0.323647
C95	C	0.866039	0.009661	0.009687
C96	C	1.199372	0.342995	0.343020
C97	C	0.497859	-0.360634	-0.360496
C98	C	0.831192	-0.027301	-0.027163
C99	C	1.164525	0.306033	0.306171
C100	C	1.059943	-1.076779	-0.384113
C101	C	1.393277	-0.743446	-0.050780
C102	C	1.726610	-0.410113	0.282553
C103	C	1.059923	-1.011036	-0.384103
C104	C	1.393256	-0.677703	-0.050769
C105	C	1.726590	-0.344369	0.282564
C106	C	1.015023	-0.976499	-0.342091
C107	C	1.348356	-0.643165	-0.008757
C108	C	1.681690	-0.309832	0.324576
C109	C	0.970153	-1.007711	-0.300075
C110	C	1.303486	-0.674377	0.033258
C111	C	1.636819	-0.341044	0.366591
C112	C	0.970180	-1.073453	-0.300083
C113	C	1.303513	-0.740120	0.033250
C114	C	1.636846	-0.406786	0.366584
N115	N	0.953505	-0.870973	-0.334851
N116	N	1.286839	-0.537640	-0.001517
N117	N	1.620172	-0.204306	0.331816
N118	N	0.953482	-0.808521	-0.334847
N119	N	1.286815	-0.475187	-0.001514
N120	N	1.620148	-0.141854	0.331820
C121	C	1.014940	-0.778421	-0.342064
C122	C	1.348274	-0.445088	-0.008731
C123	C	1.681607	-0.111754	0.324603
N124	N	1.076425	-0.813133	-0.349297
N125	N	1.409758	-0.479800	-0.015963
N126	N	1.743091	-0.146466	0.317370
N127	N	1.076447	-0.875591	-0.349304
N128	N	1.409781	-0.542258	-0.015970
N129	N	1.743114	-0.208924	0.317363
C130	C	1.014989	-0.905212	-0.342077
C131	C	1.348322	-0.571879	-0.008744
C132	C	1.681656	-0.238545	0.324589
C133	C	1.059789	-0.675931	-0.384062
C134	C	1.393122	-0.342597	-0.050729
C135	C	1.726455	-0.009264	0.282605
C136	C	1.059769	-0.610186	-0.384047
C137	C	1.393103	-0.276853	-0.050714
C138	C	1.726436	0.056480	0.282620
C139	C	0.969993	-0.606862	-0.300023
C140	C	1.303326	-0.273528	0.033311
C141	C	1.636660	0.059805	0.366644
C142	C	0.970019	-0.672605	-0.300035
C143	C	1.303352	-0.339272	0.033299
C144	C	1.636685	-0.005939	0.366632
C145	C	1.014915	-0.707136	-0.342058
C146	C	1.348249	-0.373802	-0.008724
C147	C	1.681582	-0.040469	0.324609
C148	C	1.198119	-0.349165	-0.349061
C149	C	1.531452	-0.015831	-0.015728
C150	C	1.864786	0.317502	0.317605
C151	C	1.276185	-0.352160	-0.352050
C152	C	1.609518	-0.018826	-0.018717
C153	C	1.942851	0.314507	0.314616
C154	C	1.014960	-0.342104	-0.506239
C155	C	1.348293	-0.008770	-0.172906
C156	C	1.681626	0.324563	0.160427
C157	C	1.014973	-0.342090	-0.576208
C158	C	1.348307	-0.008757	-0.242875
C159	C	1.681640	0.324577	0.090459
C160	C	1.015032	-0.177950	-0.342089
C161	C	1.348365	0.155384	-0.008755
C162	C	1.681699	0.488717	0.324578
C163	C	1.015077	-0.107983	-0.342106
C164	C	1.348410	0.225350	-0.008773
C165	C	1.681743	0.558683	0.324561
C166	C	1.059947	-0.383946	-1.077379
C167	C	1.393280	-0.050613	-0.744046
C168	C	1.726614	0.282720	-0.410713
C169	C	1.059934	-0.383966	-1.011636
C170	C	1.393268	-0.050633	-0.678303
C171	C	1.726601	0.282701	-0.344970
C172	C	1.015040	-0.341994	-0.977050
C173	C	1.348373	-0.008661	-0.643717
C174	C	1.681706	0.324672	-0.310383
C175	C	0.970142	-0.300011	-1.008212
C176	C	1.303475	0.033323	-0.674878
C177	C	1.636808	0.366656	-0.341545
C178	C	0.970151	-0.299997	-1.073953
C179	C	1.303484	0.033337	-0.740620
C180	C	1.636817	0.366670	-0.407287
N181	N	1.009673	-0.286709	-0.873636
N182	N	1.343006	0.046624	-0.540303
N183	N	1.676339	0.379957	-0.206969
N184	N	1.009668	-0.286725	-0.811184
N185	N	1.343002	0.046609	-0.477851
N186	N	1.676335	0.379942	-0.144518
C187	C	1.015009	-0.342036	-0.778974
C188	C	1.348342	-0.008702	-0.445641
C189	C	1.681675	0.324631	-0.112307
N190	N	1.020368	-0.397332	-0.811575
N191	N	1.353701	-0.063999	-0.478242
N192	N	1.687034	0.269335	-0.144909
N193	N	1.020376	-0.397316	-0.874033
N194	N	1.353709	-0.063983	-0.540700
N195	N	1.687042	0.269351	-0.207366
C196	C	1.015025	-0.342005	-0.905764
C197	C	1.348358	-0.008672	-0.572431
C198	C	1.681691	0.324661	-0.239097
C199	C	1.059887	-0.384041	-0.676534
C200	C	1.393220	-0.050707	-0.343201
C201	C	1.726553	0.282626	-0.009868
C202	C	1.059869	-0.384061	-0.610790
C203	C	1.393202	-0.050728	-0.277456
C204	C	1.726536	0.282605	0.055877
C205	C	0.970080	-0.300101	-0.607366
C206	C	1.303414	0.033233	-0.274033
C207	C	1.636747	0.366566	0.059300
C208	C	0.970094	-0.300086	-0.673109
C209	C	1.303428	0.033248	-0.339776
C210	C	1.636761	0.366581	-0.006443
C211	C	1.015001	-0.342055	-0.707689
C212	C	1.348334	-0.008722	-0.374356
C213	C	1.681668	0.324612	-0.041023
C214	C	1.014935	-0.342124	-0.178496
C215	C	1.348269	-0.008791	0.154837
C216	C	1.681602	0.324542	0.488170
C217	C	1.015058	-0.341966	-0.108533
C218	C	1.348391	-0.008633	0.224800
C219	C	1.681724	0.324701	0.558133
H220	H	0.747563	-0.405035	-0.404734
H221	H	1.080896	-0.071702	-0.071400
H222	H	1.414230	0.261631	0.261933
H223	H	0.933437	-0.578742	-0.265813
H224	H	1.266771	-0.245409	0.067520
H225	H	1.600104	0.087925	0.400854
H226	H	1.096512	-0.418123	-1.105531
H227	H	1.429845	-0.084789	-0.772197
H228	H	1.763178	0.248544	-0.438864
C229	C	0.604018	-0.411072	-0.410741
C230	C	0.937351	-0.077739	-0.077408
C231	C	1.270685	0.255595	0.255925
N232	N	0.573635	-0.443327	-0.442869
N233	N	0.906968	-0.109993	-0.109535
N234	N	1.240302	0.223340	0.223798
C235	C	0.920816	-1.107778	-0.253873
C236	C	1.254150	-0.774445	0.079460
C237	C	1.587483	-0.441111	0.412794
N238	N	0.883633	-1.133632	-0.219068
N239	N	1.216966	-0.800299	0.114265
N240	N	1.550300	-0.466966	0.447598
C241	C	1.109181	-0.713917	-0.430283
C242	C	1.442515	-0.380583	-0.096949
C243	C	1.775848	-0.047250	0.236384
N244	N	1.146385	-0.742526	-0.465096
N245	N	1.479719	-0.409193	-0.131763
N246	N	1.813052	-0.075859	0.201571
C247	C	0.758053	-0.247632	-0.247837
C248	C	1.091386	0.085702	0.085496
C249	C	1.424720	0.419035	0.418829
N250	N	0.788438	-0.215391	-0.215697
N251	N	1.121771	0.117943	0.117636
N252	N	1.455104	0.451276	0.450969
C253	C	0.426547	-0.442575	-0.442164
C254	C	0.759880	-0.109242	-0.108831
C255	C	1.093214	0.224092	0.224503
N256	N	0.456929	-0.477144	-0.476614
N257	N	0.790262	-0.143811	-0.143280
N258	N	1.123595	0.189522	0.190053
H259	H	0.416065	-0.284368	-0.284469
H260	H	0.749398	0.048965	0.048865
H261	H	1.082731	0.382298	0.382198
H262	H	1.096451	-0.418216	-0.704691
H263	H	1.429784	-0.084883	-0.371357
H264	H	1.763117	0.248450	-0.038024
C265	C	0.920693	-0.253933	-0.569325
C266	C	1.254027	0.079401	-0.235992
C267	C	1.587360	0.412734	0.097342
N268	N	0.883493	-0.219159	-0.540669
N269	N	1.216826	0.114174	-0.207336
N270	N	1.550159	0.447508	0.125998
C271	C	1.109137	-0.575862	-0.430254
C272	C	1.442471	-0.242529	-0.096921
C273	C	1.775804	0.090804	0.236413
N274	N	1.146324	-0.550009	-0.465057
N275	N	1.479657	-0.216676	-0.131723
N276	N	1.812991	0.116657	0.201610
C277	C	0.920761	-0.969718	-0.253863
C278	C	1.254095	-0.636385	0.079470
C279	C	1.587428	-0.303052	0.412804
N280	N	0.883559	-0.941102	-0.219054
N281	N	1.216892	-0.607769	0.114280
N282	N	1.550226	-0.274436	0.447613
C283	C	1.109343	-1.114759	-0.430330
C284	C	1.442677	-0.781426	-0.096997
C285	C	1.776010	-0.448093	0.236337
N286	N	1.146556	-1.143367	-0.465137
N287	N	1.479889	-0.810034	-0.131804
N288	N	1.813222	-0.476701	0.201529
H289	H	0.933480	-0.698012	-0.265830
H290	H	1.266814	-0.364678	0.067503
H291	H	1.600147	-0.031345	0.400837
H292	H	0.933543	-0.265898	-0.698475
H293	H	1.266876	0.067435	-0.365142
H294	H	1.600210	0.400768	-0.031808
H295	H	0.933596	-0.265810	-1.099318
H296	H	1.266929	0.067524	-0.765985
H297	H	1.600262	0.400857	-0.432651
H298	H	0.502837	-0.289709	-0.289789
H299	H	0.836170	0.043624	0.043544
H300	H	1.169504	0.376958	0.376878
C301	C	0.272513	-0.436678	-0.436302
C302	C	0.605846	-0.103345	-0.102969
C303	C	0.939179	0.229989	0.230365
N304	N	0.242123	-0.468914	-0.468443
N305	N	0.575457	-0.135581	-0.135109
N306	N	0.908790	0.197752	0.198224
H307	H	0.527722	-0.394595	-0.394355
H308	H	0.861056	-0.061262	-0.061021
H309	H	1.194389	0.272072	0.272312
C310	C	1.109276	-0.976704	-0.430321
C311	C	1.442609	-0.643371	-0.096988
C312	C	1.775942	-0.310038	0.236346
N313	N	1.146446	-0.950847	-0.465135
N314	N	1.479779	-0.617514	-0.131802
N315	N	1.813113	-0.284181	0.201531
H316	H	1.096499	-0.418145	-0.986266
H317	H	1.429832	-0.084811	-0.652933
H318	H	1.763165	0.248522	-0.319600
H319	H	0.283001	-0.279274	-0.279406
H320	H	0.616334	0.054059	0.053928
H321	H	0.949667	0.387392	0.387261
H322	H	1.096420	-0.418253	-0.585425
H323	H	1.429753	-0.084919	-0.252092
H324	H	1.763086	0.248414	0.081241
H325	H	0.614495	-0.253661	-0.253859
H326	H	0.947829	0.079673	0.079475
H327	H	1.281162	0.413006	0.412808
H328	H	0.933587	-0.265838	-0.980047
H329	H	1.266921	0.067495	-0.646714
H330	H	1.600254	0.400829	-0.313380
