data_functionalizedCrystal
_audit_creation_method	'MofGen! by Chris Wilmer'
_symmetry_space_group_name_H-M	'P1'
_symmetry_Int_Tables_number	1
_symmetry_cell_setting	triclinic
loop_
_symmetry_equiv_pos_as_xyz
  x,y,z
_cell_length_a	10.654550
_cell_length_b	15.995350
_cell_length_c	9.130313
_cell_angle_alpha	90.000982
_cell_angle_beta	89.996220
_cell_angle_gamma	83.988639
loop_
_atom_site_label
_atom_site_type_symbol
_atom_site_fract_x
_atom_site_fract_y
_atom_site_fract_z
O1	O	1.666298	0.117599	-0.121912
O2	O	2.166298	0.617599	0.378088
O3	O	1.300673	0.128803	-0.121888
O4	O	1.800673	0.628803	0.378112
O5	O	1.493480	0.001371	-0.121899
O6	O	1.993480	0.501371	0.378101
O7	O	1.473491	0.245030	-0.121900
O8	O	1.973491	0.745030	0.378100
O9	O	1.493478	0.001375	0.121700
O10	O	1.993478	0.501375	0.621700
O11	O	1.300671	0.128807	0.121711
O12	O	1.800671	0.628807	0.621711
O13	O	1.666295	0.117602	0.121687
O14	O	2.166295	0.617602	0.621687
Cu15	Cu	1.483483	0.123205	0.143942
Cu16	Cu	1.983483	0.623205	0.643942
Cu17	Cu	1.483486	0.123201	-0.144142
Cu18	Cu	1.983486	0.623201	0.355858
O19	O	1.473488	0.245034	0.121698
O20	O	1.973488	0.745034	0.621698
C21	C	1.253885	0.127982	-0.000085
C22	C	1.753885	0.627982	0.499915
C23	C	1.114473	0.125521	-0.000076
C24	C	1.614473	0.625521	0.499924
C25	C	1.034008	0.200551	-0.000098
C26	C	1.534008	0.700551	0.499902
C27	C	0.903017	0.198233	-0.000123
C28	C	1.403017	0.698233	0.499877
C29	C	0.932971	0.045849	-0.000111
C30	C	1.432971	0.545849	0.499889
C31	C	1.063959	0.048168	-0.000075
C32	C	1.563959	0.548168	0.499925
C33	C	1.084522	0.277904	-0.000099
C34	C	1.584522	0.777904	0.499901
C35	C	1.004055	0.352940	-0.000122
C36	C	1.504055	0.852940	0.499878
C37	C	0.873064	0.350622	-0.000147
C38	C	1.373064	0.850622	0.499853
C39	C	0.822541	0.273268	-0.000149
C40	C	1.322541	0.773268	0.499851
C41	C	1.492652	-0.029827	-0.000102
C42	C	1.992652	0.470173	0.499898
C43	C	1.490175	-0.122791	-0.000110
C44	C	1.990175	0.377209	0.499890
C45	C	1.481278	-0.460591	-0.000105
C46	C	1.981278	0.039409	0.499895
C47	C	1.343964	-0.413954	-0.000642
C48	C	1.843964	0.086046	0.499358
C49	C	1.346442	-0.317249	-0.000093
C50	C	1.846442	0.182751	0.499907
C51	C	1.485691	-0.293004	-0.000108
C52	C	1.985691	0.206996	0.499892
C53	C	1.553417	-0.333687	0.138991
C54	C	2.053417	0.166313	0.638991
C55	C	1.549968	-0.430342	0.139108
C56	C	2.049968	0.069658	0.639108
C57	C	1.552807	-0.430688	-0.137910
C58	C	2.052807	0.069312	0.362090
C59	C	1.552775	-0.333743	-0.139748
C60	C	2.052775	0.166257	0.360252
C61	C	1.488192	-0.198292	-0.000106
C62	C	1.988192	0.301708	0.499894
C63	C	1.478780	-0.555303	-0.000098
C64	C	1.978780	-0.055303	0.499902
C65	C	1.713084	0.118423	-0.000119
C66	C	2.213084	0.618423	0.499881
C67	C	1.852495	0.120884	-0.000137
C68	C	2.352495	0.620884	0.499863
C69	C	1.474316	0.276232	-0.000101
C70	C	1.974316	0.776232	0.499899
C71	C	1.476793	0.369197	-0.000103
C72	C	1.976793	0.869197	0.499897
N73	N	1.483490	0.123207	0.346564
N74	N	1.983490	0.623207	0.846564
N75	N	1.483488	0.123192	-0.346765
N76	N	1.983488	0.623192	0.153235
C77	C	1.568887	0.066800	0.423211
C78	C	2.068887	0.566800	0.923211
C79	C	1.568883	0.066789	0.576548
C80	C	2.068883	0.566789	1.076548
C81	C	1.398083	0.179602	0.576578
C82	C	1.898083	0.679602	1.076578
C83	C	1.398081	0.179607	0.423244
C84	C	1.898081	0.679607	0.923244
C85	C	1.654296	0.010399	0.346532
C86	C	2.154296	0.510399	0.846532
C87	C	1.739700	-0.046012	0.423179
C88	C	2.239700	0.453988	0.923179
C89	C	1.739697	-0.046022	0.576516
C90	C	2.239697	0.453978	1.076516
C91	C	1.654289	0.010379	0.653206
C92	C	2.154289	0.510379	1.153206
H93	H	0.891824	-0.017129	-0.000137
H94	H	1.391824	0.482871	0.499863
H95	H	1.129477	-0.012928	-0.000061
H96	H	1.629477	0.487072	0.499939
H97	H	1.293204	-0.289138	-0.099805
H98	H	1.793204	0.210862	0.400195
F99	F	1.307188	0.239641	0.341669
F100	F	1.807188	0.739641	0.841669
F101	F	1.491932	-0.296948	0.274307
F102	F	1.991932	0.203052	0.774307
H103	H	1.191179	0.279800	-0.000085
H104	H	1.691179	0.779800	0.499915
F105	F	1.272225	-0.438592	-0.131025
F106	F	1.772225	0.061408	0.368975
H107	H	0.807551	0.411720	-0.000152
H108	H	1.307551	0.911720	0.499848
H109	H	1.045200	0.415918	-0.000108
H110	H	1.545200	0.915918	0.499892
F111	F	1.272360	-0.440260	0.128666
F112	F	1.772360	0.059740	0.628666
F113	F	1.276382	-0.281229	0.130466
F114	F	1.776382	0.218771	0.630466
F115	F	1.485409	-0.454639	0.275026
F116	F	1.985409	0.045361	0.775026
H117	H	0.715878	0.271387	-0.000147
H118	H	1.215878	0.771387	0.499853
F119	F	1.681735	-0.471730	0.147359
F120	F	2.181735	0.028270	0.647359
F121	F	1.687135	-0.314448	0.145744
F122	F	2.187135	0.185552	0.645744
H123	H	1.809230	-0.091937	0.360730
H124	H	2.309230	0.408063	0.860730
F125	F	1.488550	-0.298113	-0.274269
F126	F	1.988550	0.201887	0.225731
H127	H	1.507914	-0.451490	-0.243339
H128	H	2.007914	0.048510	0.256661
F129	F	1.830580	-0.106065	0.658087
F130	F	2.330580	0.393935	1.158087
F131	F	1.654282	0.010358	0.816402
F132	F	2.154282	0.510358	1.316402
F133	F	1.307194	0.239626	0.658200
F134	F	1.807194	0.739626	1.158200
F135	F	1.685135	-0.471434	-0.139150
F136	F	2.185135	0.028566	0.360850
F137	F	1.685502	-0.312889	-0.150750
F138	F	2.185502	0.187111	0.349250
H139	H	1.654308	0.010404	0.221678
H140	H	2.154308	0.510404	0.721678
