data_functionalizedCrystal
_audit_creation_method	'MofGen! by Chris Wilmer'
_symmetry_space_group_name_H-M	'P1'
_symmetry_Int_Tables_number	1
_symmetry_cell_setting	triclinic
loop_
_symmetry_equiv_pos_as_xyz
  x,y,z
_cell_length_a	10.654550
_cell_length_b	9.016244
_cell_length_c	10.654550
_cell_angle_alpha	89.997946
_cell_angle_beta	95.515069
_cell_angle_gamma	90.004115
loop_
_atom_site_label
_atom_site_type_symbol
_atom_site_fract_x
_atom_site_fract_y
_atom_site_fract_z
O1	O	1.667847	0.123229	-0.176394
O2	O	1.302368	0.123256	-0.193200
O3	O	1.493511	0.123233	-0.002058
O4	O	1.476705	0.123253	-0.367536
O5	O	1.493483	-0.123448	-0.002062
O6	O	1.302340	-0.123424	-0.193204
O7	O	1.667819	-0.123452	-0.176398
Cu8	Cu	1.485077	-0.145962	-0.184802
Cu9	Cu	1.485110	0.145767	-0.184797
O10	O	1.476677	-0.123428	-0.367540
C11	C	1.255556	-0.000081	-0.191968
C12	C	1.116113	-0.000070	-0.188276
N13	N	1.485063	-0.351148	-0.184804
C14	C	1.036628	-0.000069	-0.300818
C15	C	0.905607	-0.000095	-0.297341
C16	C	0.933570	-0.000118	-0.068772
C17	C	1.064588	-0.000103	-0.072250
C18	C	1.382501	-0.586168	-0.286710
C19	C	1.382727	-0.414277	-0.287092
C20	C	1.616359	-0.413494	-0.214570
C21	C	1.615799	-0.585439	-0.215291
C22	C	1.457632	-0.585696	-0.052799
C23	C	1.454619	-0.413742	-0.053656
C24	C	1.714631	-0.000111	-0.177630
C25	C	1.854074	-0.000112	-0.181322
C26	C	1.492263	-0.000107	0.044738
C27	C	1.488571	-0.000104	0.184181
N28	N	1.485134	0.350953	-0.184784
C29	C	1.477925	-0.000085	-0.414336
C30	C	1.481616	-0.000078	-0.553779
C31	C	1.601112	-0.000112	0.263667
C32	C	1.597636	-0.000094	0.394688
C33	C	1.369066	-0.000066	0.366725
C34	C	1.372544	-0.000074	0.235706
H35	H	1.078574	-0.000053	-0.395294
H36	H	0.891602	-0.000153	0.025693
H37	H	1.129309	-0.000108	0.019401
H38	H	1.363916	-0.629139	-0.024459
N39	N	1.404352	-0.640340	-0.408867
N40	N	1.321760	-0.715671	-0.471043
H41	H	1.337193	-0.753933	-0.557316
H42	H	0.840894	-0.000096	-0.388984
N43	N	1.257567	-0.000050	0.154522
N44	N	1.153982	-0.000030	0.200539
H45	H	1.072782	-0.000007	0.143204
H46	H	1.274601	-0.000044	0.408693
N47	N	1.259714	-0.638077	-0.264645
N48	N	1.175166	-0.547455	-0.244501
H49	H	1.088442	-0.584126	-0.228924
N50	N	1.542208	-0.359845	0.046047
N51	N	1.657226	-0.386757	0.045373
H52	H	1.719100	-0.348692	0.115782
N53	N	1.260138	-0.361684	-0.265065
N54	N	1.213845	-0.395012	-0.165373
H55	H	1.127181	-0.357987	-0.149986
N56	N	1.404873	-0.362695	-0.409954
N57	N	1.504436	-0.397013	-0.456049
H58	H	1.520065	-0.360597	-0.542833
N59	N	1.645989	-0.635714	-0.336088
N60	N	1.667321	-0.543813	-0.419275
H61	H	1.688642	-0.579311	-0.504592
H62	H	1.694617	-0.627031	-0.144042
H63	H	1.695588	-0.000134	0.221720
H64	H	1.694597	-0.372599	-0.142357
H65	H	1.640958	-0.370413	-0.309772
N66	N	1.551511	-0.636716	0.042362
N67	N	1.638338	-0.719371	0.013278
H68	H	1.704644	-0.755412	0.080476
H69	H	1.358030	-0.372994	-0.031093
H70	H	1.689279	-0.000097	0.459401
