data_functionalizedCrystal
_audit_creation_method	'MofGen! by Chris Wilmer'
_symmetry_space_group_name_H-M	'P1'
_symmetry_Int_Tables_number	1
_symmetry_cell_setting	triclinic
loop_
_symmetry_equiv_pos_as_xyz
  x,y,z
_cell_length_a	14.971486
_cell_length_b	17.038272
_cell_length_c	14.048226
_cell_angle_alpha	89.993466
_cell_angle_beta	89.998499
_cell_angle_gamma	87.362843
loop_
_atom_site_label
_atom_site_type_symbol
_atom_site_fract_x
_atom_site_fract_y
_atom_site_fract_z
O1	O	1.194576	0.101897	-0.079052
O2	O	1.694576	0.601897	0.420948
O3	O	0.935090	0.114100	-0.079077
O4	O	1.435090	0.614100	0.420923
O5	O	1.063291	-0.005819	-0.079057
O6	O	1.563291	0.494181	0.420943
O7	O	1.066375	0.221816	-0.079072
O8	O	1.566375	0.721816	0.420928
O9	O	1.063274	-0.005826	0.079264
O10	O	1.563274	0.494174	0.579264
O11	O	0.935073	0.114093	0.079244
O12	O	1.435073	0.614093	0.579244
O13	O	1.194559	0.101890	0.079270
O14	O	1.694559	0.601890	0.579270
Zn15	Zn	1.064813	0.107990	0.104394
Zn16	Zn	1.564813	0.607990	0.604394
Zn17	Zn	1.064836	0.108000	-0.104201
Zn18	Zn	1.564836	0.608000	0.395799
O19	O	1.066358	0.221809	0.079249
O20	O	1.566358	0.721809	0.579249
C21	C	0.901716	0.113551	0.000080
C22	C	1.401716	0.613551	0.500080
C23	C	0.802296	0.111915	0.000070
C24	C	1.302296	0.611915	0.500070
C25	C	0.750345	0.182364	0.000067
C26	C	1.250345	0.682364	0.500067
C27	C	0.656930	0.180823	0.000081
C28	C	1.156930	0.680823	0.500081
C29	C	0.615468	0.108832	0.000092
C30	C	1.115468	0.608832	0.500092
C31	C	0.667426	0.038378	0.000098
C32	C	1.167426	0.538378	0.500098
C33	C	0.760839	0.039920	0.000091
C34	C	1.260839	0.539920	0.500091
C35	C	0.472723	0.035169	0.000111
C36	C	0.972723	0.535169	0.500111
C37	C	0.379303	0.033626	0.000117
C38	C	0.879303	0.533626	0.500117
C39	C	0.368815	0.176072	0.000102
C40	C	0.868815	0.676072	0.500102
C41	C	0.462228	0.177614	0.000095
C42	C	0.962228	0.677614	0.500095
C43	C	0.514179	0.107159	0.000099
C44	C	1.014179	0.607159	0.500099
C45	C	1.060477	-0.034954	0.000103
C46	C	1.560477	0.465046	0.500103
C47	C	1.052107	-0.121756	0.000102
C48	C	1.552107	0.378244	0.500102
C49	C	1.128951	-0.171781	0.000111
C50	C	1.628951	0.328219	0.500111
C51	C	1.121081	-0.253341	0.000101
C52	C	1.621081	0.246659	0.500101
C53	C	1.036367	-0.284874	0.000089
C54	C	1.536367	0.215126	0.500089
C55	C	0.959518	-0.234843	0.000078
C56	C	1.459518	0.265157	0.500078
C57	C	0.967388	-0.153285	0.000081
C58	C	1.467388	0.346715	0.500081
C59	C	1.008563	-0.530664	0.000073
C60	C	1.508563	-0.030664	0.500073
C61	C	1.000698	-0.612229	0.000073
C62	C	1.500698	-0.112229	0.500073
C63	C	1.162262	-0.630721	0.000095
C64	C	1.662262	-0.130721	0.500095
C65	C	1.170125	-0.549161	0.000103
C66	C	1.670125	-0.049161	0.500103
C67	C	1.093276	-0.499137	0.000087
C68	C	1.593276	0.000863	0.500087
C69	C	1.028321	-0.368241	0.000082
C70	C	1.528321	0.131759	0.500082
C71	C	1.101323	-0.415771	0.000087
C72	C	1.601323	0.084229	0.500087
C73	C	1.227933	0.102440	0.000110
C74	C	1.727933	0.602440	0.500110
C75	C	1.327353	0.104075	0.000114
C76	C	1.827353	0.604075	0.500114
C77	C	1.069172	0.250944	0.000087
C78	C	1.569172	0.750944	0.500087
C79	C	1.077542	0.337746	0.000082
C80	C	1.577542	0.837746	0.500082
N81	N	1.064804	0.107984	0.246754
N82	N	1.564804	0.607984	0.746754
N83	N	1.064851	0.108000	-0.246562
N84	N	1.564851	0.608000	0.253438
C85	C	1.121592	0.054906	0.296581
C86	C	1.621592	0.554906	0.796581
C87	C	1.121599	0.054905	0.396239
C88	C	1.621599	0.554905	0.896239
C89	C	1.064820	0.107987	0.446068
C90	C	1.564820	0.607987	0.946068
C91	C	1.008026	0.161067	0.396234
C92	C	1.508026	0.661067	0.896234
C93	C	1.008016	0.161064	0.296578
C94	C	1.508016	0.661064	0.796578
C95	C	1.008052	0.161073	0.603948
C96	C	1.508052	0.661073	1.103948
C97	C	1.008063	0.161078	0.703611
C98	C	1.508063	0.661078	1.203611
C99	C	1.121635	0.054915	0.703609
C100	C	1.621635	0.554915	1.203609
C101	C	1.121625	0.054911	0.603953
C102	C	1.621625	0.554911	1.103953
C103	C	1.064831	0.107993	0.554126
C104	C	1.564831	0.607993	1.054126
H105	H	0.495983	0.236235	0.000077
H106	H	0.995983	0.736235	0.500077
F107	F	0.869358	-0.268405	0.000054
F108	F	1.369358	0.231595	0.500054
H109	H	0.904813	-0.112555	0.000073
H110	H	1.404813	0.387445	0.500073
H111	H	0.931710	-0.637900	0.000079
H112	H	1.431710	-0.137900	0.500079
F113	F	0.623296	-0.038241	0.000116
F114	F	1.123296	0.461759	0.500116
F115	F	0.926771	-0.477435	0.000053
F116	F	1.426771	0.022565	0.500053
F117	F	0.313523	0.251055	0.000099
F118	F	0.813523	0.751055	0.500099
F119	F	0.794464	0.258988	0.000049
F120	F	1.294464	0.758988	0.500049
F121	F	0.601644	0.255804	0.000074
F122	F	1.101644	0.755804	0.500074
F123	F	0.947593	0.217558	0.449266
F124	F	1.447593	0.717558	0.949266
H125	H	0.345548	-0.024995	0.000127
H126	H	0.845548	0.475005	0.500127
F127	F	0.528011	-0.039818	0.000119
F128	F	1.028011	0.460182	0.500119
H129	H	1.170296	-0.390093	0.000076
H130	H	1.670296	0.109907	0.500076
F131	F	0.938164	-0.401808	0.000066
F132	F	1.438164	0.098192	0.500066
H133	H	1.224829	-0.671459	0.000106
H134	H	1.724829	-0.171459	0.500106
H135	H	1.167862	0.011692	0.563383
H136	H	1.667862	0.511692	1.063383
F137	F	1.182030	-0.001589	0.243559
F138	F	1.682030	0.498411	0.743559
F139	F	0.947571	0.217554	0.243550
F140	F	1.447571	0.717554	0.743550
F141	F	1.219116	-0.138229	0.000132
F142	F	1.719116	0.361771	0.500132
H143	H	0.803137	-0.017447	0.000093
H144	H	1.303137	0.482553	0.500093
F145	F	1.182038	-0.001587	0.449269
F146	F	1.682038	0.498413	0.949269
F147	F	1.182079	-0.001577	0.756643
F148	F	1.682079	0.498423	1.256643
H149	H	0.961827	0.204302	0.744176
H150	H	1.461827	0.704302	1.244176
F151	F	1.202870	-0.306578	0.000112
F152	F	1.702870	0.193422	0.500112
F153	F	1.260290	-0.515607	0.000092
F154	F	1.760290	-0.015607	0.500092
F155	F	0.947602	0.217567	0.550923
F156	F	1.447602	0.717567	1.050923
