data_functionalizedCrystal
_audit_creation_method	'MofGen! by Chris Wilmer'
_symmetry_space_group_name_H-M	'P1'
_symmetry_Int_Tables_number	1
_symmetry_cell_setting	triclinic
loop_
_symmetry_equiv_pos_as_xyz
  x,y,z
_cell_length_a	12.759401
_cell_length_b	14.908308
_cell_length_c	12.759399
_cell_angle_alpha	93.268701
_cell_angle_beta	90.015393
_cell_angle_gamma	93.281135
loop_
_atom_site_label
_atom_site_type_symbol
_atom_site_fract_x
_atom_site_fract_y
_atom_site_fract_z
Zn1	Zn	1.571943	-0.510030	-0.452516
Zn2	Zn	2.071943	-0.010030	0.047484
Zn3	Zn	1.581984	-0.359178	-0.618084
Zn4	Zn	2.081984	0.140822	-0.118084
Zn5	Zn	1.406391	-0.359196	-0.442422
Zn6	Zn	1.906391	0.140804	0.057578
Zn7	Zn	1.396234	-0.509995	-0.628152
Zn8	Zn	1.896234	-0.009995	-0.128152
O9	O	1.489138	-0.434600	-0.535294
O10	O	1.989138	0.065400	-0.035294
O11	O	1.720295	-0.490026	-0.474490
O12	O	2.220295	0.009974	0.025510
O13	O	1.567144	-0.232939	-0.586345
O14	O	2.067144	0.267061	-0.086345
O15	O	1.428401	-0.379226	-0.296742
O16	O	1.928401	0.120774	0.203258
O17	O	1.727672	-0.379196	-0.596132
O18	O	2.227672	0.120804	-0.096132
O19	O	1.550031	-0.490043	-0.304158
O20	O	2.050031	0.009957	0.195842
O21	O	1.438137	-0.232952	-0.457286
O22	O	1.938137	0.267048	0.042714
O23	O	1.258023	-0.379193	-0.467049
O24	O	1.758023	0.120807	0.032951
O25	O	1.411090	-0.636242	-0.613292
O26	O	1.911090	-0.136242	-0.113292
O27	O	1.250561	-0.489985	-0.603504
O28	O	1.750561	0.010015	-0.103504
O29	O	1.540182	-0.636267	-0.484253
O30	O	2.040182	-0.136267	0.015747
O31	O	1.557295	-0.379163	-0.766440
O32	O	2.057295	0.120837	-0.266440
O33	O	1.420826	-0.489968	-0.773836
O34	O	1.920826	0.010032	-0.273836
C35	C	1.216172	-0.434587	-0.535274
C36	C	1.716172	0.065413	-0.035274
C37	C	1.099394	-0.434603	-0.535293
C38	C	1.599394	0.065397	-0.035293
C39	C	0.930948	-0.492208	-0.606457
C40	C	1.430948	0.007792	-0.106457
C41	C	1.040673	-0.492199	-0.606445
C42	C	1.540673	0.007801	-0.106445
C43	C	1.048385	-0.377007	-0.464155
C44	C	1.548385	0.122993	0.035845
C45	C	0.938662	-0.377013	-0.464173
C46	C	1.438662	0.122987	0.035827
C47	C	1.473383	-0.669903	-0.551021
C48	C	1.973383	-0.169903	-0.051021
C49	C	1.466669	-0.770175	-0.557723
C50	C	1.966669	-0.270175	-0.057723
C51	C	1.588473	-0.958625	-0.435925
C52	C	2.088473	-0.458625	0.064075
C53	C	1.582168	-1.052839	-0.442218
C54	C	2.082168	-0.552839	0.057782
C55	C	1.447749	-1.052820	-0.576598
C56	C	1.947749	-0.552820	-0.076598
C57	C	1.454054	-0.958606	-0.570305
C58	C	1.954054	-0.458606	-0.070305
C59	C	1.524420	-0.911511	-0.499967
C60	C	2.024420	-0.411511	0.000033
C61	C	1.530730	-0.817295	-0.493679
C62	C	2.030730	-0.317295	0.006321
C63	C	1.396306	-0.817278	-0.628053
C64	C	1.896306	-0.317278	-0.128053
C65	C	1.390001	-0.911492	-0.634347
C66	C	1.890001	-0.411492	-0.134347
C67	C	1.763170	-0.434613	-0.535314
C68	C	2.263170	0.065387	-0.035314
C69	C	1.879947	-0.434618	-0.535323
C70	C	2.379947	0.065382	-0.035323
C71	C	1.489075	-0.434579	-0.808260
C72	C	1.989075	0.065421	-0.308260
C73	C	1.489142	-0.434601	-0.925038
C74	C	1.989142	0.065399	-0.425038
C75	C	1.504892	-0.200212	-0.519552
C76	C	2.004892	0.299788	-0.019552
C77	C	1.511810	-0.099941	-0.512554
C78	C	2.011810	0.400059	-0.012554
C79	C	1.560274	-0.376970	-0.976018
C80	C	2.060274	0.123030	-0.476018
C81	C	1.560339	-0.377000	-1.085744
C82	C	2.060339	0.123000	-0.585744
C83	C	1.418132	-0.492294	-1.093501
C84	C	1.918132	0.007706	-0.593501
C85	C	1.418073	-0.492268	-0.983777
C86	C	1.918073	0.007732	-0.483777
C87	C	1.489229	-0.434640	-0.261263
C88	C	1.989229	0.065360	0.238737
C89	C	1.489267	-0.434657	-0.144488
C90	C	1.989267	0.065343	0.355512
H91	H	0.897136	-0.330112	-0.406245
H92	H	1.397136	0.169888	0.093755
Cl93	Cl	0.857138	-0.564623	-0.695906
Cl94	Cl	1.357138	-0.064623	-0.195906
H95	H	1.082193	-0.539093	-0.664370
H96	H	1.582193	-0.039093	-0.164370
H97	H	1.096204	-0.330108	-0.406226
H98	H	1.596204	0.169892	0.093774
H99	H	1.588026	-0.778952	-0.436407
H100	H	2.088026	-0.278952	0.063593
Cl101	Cl	1.359290	-1.112040	-0.665008
Cl102	Cl	1.859290	-0.612040	-0.165008
Cl103	Cl	1.301545	-0.970705	-0.722765
Cl104	Cl	1.801545	-0.470705	-0.222765
Cl105	Cl	1.676941	-0.899417	-0.347514
Cl106	Cl	2.176941	-0.399417	0.152486
Cl107	Cl	1.649621	-0.304477	-0.902178
Cl108	Cl	2.149621	0.195523	-0.402178
Cl109	Cl	1.662695	-1.112065	-0.361703
Cl110	Cl	2.162695	-0.612065	0.138297
H111	H	1.344151	-0.778908	-0.680204
H112	H	1.844151	-0.278908	-0.180204
Cl113	Cl	1.649769	-0.304550	-1.149828
Cl114	Cl	2.149769	0.195450	-0.649828
Cl115	Cl	1.328789	-0.564783	-1.167351
Cl116	Cl	1.828789	-0.064783	-0.667351
H117	H	1.360148	-0.539202	-0.942267
H118	H	1.860148	-0.039202	-0.442267
