data_functionalizedCrystal
_audit_creation_method	'MofGen! by Chris Wilmer'
_symmetry_space_group_name_H-M	'P1'
_symmetry_Int_Tables_number	1
_symmetry_cell_setting	triclinic
loop_
_symmetry_equiv_pos_as_xyz
  x,y,z
_cell_length_a	8.559649
_cell_length_b	14.044220
_cell_length_c	7.681481
_cell_angle_alpha	83.732834
_cell_angle_beta	94.913240
_cell_angle_gamma	81.483771
loop_
_atom_site_label
_atom_site_type_symbol
_atom_site_fract_x
_atom_site_fract_y
_atom_site_fract_z
O1	O	2.101908	-0.021858	-0.146399
O2	O	1.643608	0.026593	-0.146411
O3	O	1.865881	-0.135117	-0.146388
O4	O	1.879635	0.139853	-0.146422
O5	O	1.893233	-0.155061	0.146473
O6	O	1.670961	0.006649	0.146449
O7	O	2.129260	-0.041802	0.146461
Zn8	Zn	1.904453	-0.020743	0.192953
Zn9	Zn	1.868415	0.005534	-0.192903
O10	O	1.906988	0.119909	0.146438
C11	C	1.598278	0.020293	0.000018
C12	C	1.422455	0.031222	0.000014
C13	C	1.873534	-0.179966	0.000043
C14	C	1.855571	-0.283884	0.000045
C15	C	1.822727	-0.474153	0.000018
C16	C	1.950133	-0.541060	0.000016
C17	C	1.931858	-0.646933	0.000002
C18	C	1.840999	-0.368270	0.000033
C19	C	2.174590	-0.035501	0.000029
C20	C	2.350412	-0.046430	0.000021
C21	C	1.899334	0.164757	0.000003
C22	C	1.917296	0.268676	-0.000010
N23	N	1.929059	-0.038678	0.456290
N24	N	1.843820	0.023461	-0.456240
H25	H	1.423241	-0.121272	0.000022
C26	C	1.624641	-0.548753	-0.150523
C27	C	1.656961	-0.504162	0.000024
H28	H	1.522310	-0.567294	-0.150505
H29	H	1.627485	-0.504579	-0.252629
H30	H	1.702197	-0.604640	-0.150514
H31	H	1.579411	-0.448271	0.000009
H32	H	1.654103	-0.548339	0.102157
C33	C	1.345861	0.192652	-0.150564
C34	C	1.324138	0.132267	-0.000008
H35	H	1.285156	0.255029	-0.150580
H36	H	1.455072	0.198311	-0.150544
H37	H	1.312062	0.165574	-0.252675
H38	H	1.357948	0.159342	0.102103
H39	H	1.214904	0.126611	-0.000013
C40	C	1.769172	0.196482	0.486658
C41	C	1.726348	0.109083	0.442244
H42	H	1.696652	0.249342	0.423969
H43	H	1.766499	0.198427	0.609593
H44	H	1.873402	0.200956	0.456504
H45	H	1.622121	0.104606	0.472410
H46	H	1.729005	0.107138	0.319282
C47	C	2.102174	-0.410462	0.000069
C48	C	2.115916	-0.511058	0.000048
H49	H	2.204520	-0.391940	0.000104
H50	H	2.036833	-0.378649	-0.102058
H51	H	2.055871	-0.392577	0.102197
H52	H	2.162208	-0.528942	-0.102088
H53	H	2.181282	-0.542882	0.102185
H54	H	2.016090	-0.102101	0.531505
