data_functionalizedCrystal
_audit_creation_method	'MofGen! by Chris Wilmer'
_symmetry_space_group_name_H-M	'P1'
_symmetry_Int_Tables_number	1
_symmetry_cell_setting	triclinic
loop_
_symmetry_equiv_pos_as_xyz
  x,y,z
_cell_length_a	14.908783
_cell_length_b	12.827892
_cell_length_c	12.827885
_cell_angle_alpha	89.970214
_cell_angle_beta	86.678907
_cell_angle_gamma	93.306471
loop_
_atom_site_label
_atom_site_type_symbol
_atom_site_fract_x
_atom_site_fract_y
_atom_site_fract_z
Zn1	Zn	1.379294	-0.323906	-0.683226
Zn2	Zn	1.629294	-0.073906	-0.433226
Zn3	Zn	1.879294	0.176094	-0.183226
Zn4	Zn	2.129294	0.426094	0.066774
Zn5	Zn	1.379203	-0.498689	-0.508480
Zn6	Zn	1.629203	-0.248689	-0.258480
Zn7	Zn	1.879203	0.001311	-0.008480
Zn8	Zn	2.129203	0.251311	0.241520
Zn9	Zn	1.228422	-0.334028	-0.498395
Zn10	Zn	1.478422	-0.084028	-0.248395
Zn11	Zn	1.728422	0.165972	0.001605
Zn12	Zn	1.978422	0.415972	0.251605
Zn13	Zn	1.228409	-0.508678	-0.673081
Zn14	Zn	1.478409	-0.258678	-0.423081
Zn15	Zn	1.728409	-0.008678	-0.173081
Zn16	Zn	1.978409	0.241322	0.076919
O17	O	1.303832	-0.416325	-0.590795
O18	O	1.553832	-0.166325	-0.340795
O19	O	1.803832	0.083675	-0.090795
O20	O	2.053832	0.333675	0.159205
O21	O	1.505530	-0.338674	-0.668512
O22	O	1.755530	-0.088674	-0.418512
O23	O	2.005530	0.161326	-0.168512
O24	O	2.255530	0.411326	0.081488
O25	O	1.359168	-0.476902	-0.360904
O26	O	1.609168	-0.226902	-0.110904
O27	O	1.859168	0.023098	0.139096
O28	O	2.109168	0.273098	0.389096
O29	O	1.248479	-0.186446	-0.522938
O30	O	1.498479	0.063554	-0.272938
O31	O	1.748479	0.313554	-0.022938
O32	O	1.998479	0.563554	0.227062
O33	O	1.505463	-0.467087	-0.540127
O34	O	1.755463	-0.217087	-0.290127
O35	O	2.005463	0.032913	-0.040127
O36	O	2.255463	0.282913	0.209873
O37	O	1.359324	-0.179009	-0.658733
O38	O	1.609324	0.070991	-0.408733
O39	O	1.859324	0.320991	-0.158733
O40	O	2.109324	0.570991	0.091267
O41	O	1.248390	-0.355927	-0.353494
O42	O	1.498390	-0.105927	-0.103494
O43	O	1.748390	0.144073	0.146506
O44	O	1.998390	0.394073	0.396506
O45	O	1.102172	-0.365613	-0.513101
O46	O	1.352172	-0.115613	-0.263101
O47	O	1.602172	0.134387	-0.013101
O48	O	1.852172	0.384387	0.236899
O49	O	1.248457	-0.484111	-0.820665
O50	O	1.498457	-0.234111	-0.570665
O51	O	1.748457	0.015889	-0.320665
O52	O	1.998457	0.265889	-0.070665
O53	O	1.102163	-0.493927	-0.641442
O54	O	1.352163	-0.243927	-0.391442
O55	O	1.602163	0.006073	-0.141442
O56	O	1.852163	0.256073	0.108558
O57	O	1.359312	-0.348360	-0.828118
O58	O	1.609312	-0.098360	-0.578118
O59	O	1.859312	0.151640	-0.328118
O60	O	2.109312	0.401640	-0.078118
O61	O	1.359156	-0.646253	-0.530289
O62	O	1.609156	-0.396253	-0.280289
O63	O	1.859156	-0.146253	-0.030289
O64	O	2.109156	0.103747	0.219711
O65	O	1.248369	-0.653592	-0.651221
O66	O	1.498369	-0.403592	-0.401221
O67	O	1.748369	-0.153592	-0.151221
O68	O	1.998369	0.096408	0.098779
C69	C	1.303776	-0.687839	-0.590773
C70	C	1.553776	-0.437839	-0.340773
C71	C	1.803776	-0.187839	-0.090773
C72	C	2.053776	0.062161	0.159227
C73	C	1.303834	-0.803988	-0.590804
C74	C	1.553834	-0.553988	-0.340804
C75	C	1.803834	-0.303988	-0.090804
C76	C	2.053834	-0.053988	0.159196
C77	C	1.069433	-0.431953	-0.575077
C78	C	1.319433	-0.181953	-0.325077
C79	C	1.569433	0.068047	-0.075077
C80	C	1.819433	0.318047	0.174923
C81	C	0.969156	-0.438664	-0.568377
C82	C	1.219156	-0.188664	-0.318377
C83	C	1.469156	0.061336	-0.068377
C84	C	1.719156	0.311336	0.181623
C85	C	1.358720	-0.852102	-0.531038
C86	C	1.608720	-0.602102	-0.281038
C87	C	1.858720	-0.352102	-0.031038
C88	C	2.108720	-0.102102	0.218962
C89	C	1.358782	-0.972149	-0.531069
C90	C	1.608782	-0.722149	-0.281069
C91	C	1.858782	-0.472149	-0.031069
C92	C	2.108782	-0.222149	0.218931
C93	C	0.780793	-0.317740	-0.689679
C94	C	1.030793	-0.067740	-0.439679
C95	C	1.280793	0.182260	-0.189679
C96	C	1.530793	0.432260	0.060321
C97	C	0.686574	-0.324042	-0.683388
C98	C	0.936574	-0.074042	-0.433388
C99	C	1.186574	0.175958	-0.183388
C100	C	1.436574	0.425958	0.066612
C101	C	0.686497	-0.457563	-0.549498
C102	C	0.936497	-0.207563	-0.299498
C103	C	1.186497	0.042437	-0.049498
C104	C	1.436497	0.292437	0.200502
C105	C	0.780716	-0.451261	-0.555789
C106	C	1.030716	-0.201261	-0.305789
C107	C	1.280716	0.048739	-0.055789
C108	C	1.530716	0.298739	0.194211
C109	C	0.827861	-0.381349	-0.625884
C110	C	1.077861	-0.131349	-0.375884
C111	C	1.327861	0.118651	-0.125884
C112	C	1.577861	0.368651	0.124116
C113	C	0.922082	-0.375053	-0.632180
C114	C	1.172082	-0.125053	-0.382180
C115	C	1.422082	0.124947	-0.132180
C116	C	1.672082	0.374947	0.117820
C117	C	0.922003	-0.508567	-0.498285
C118	C	1.172003	-0.258567	-0.248285
C119	C	1.422003	-0.008567	0.001715
C120	C	1.672003	0.241433	0.251715
C121	C	0.827784	-0.514869	-0.491994
C122	C	1.077784	-0.264869	-0.241994
C123	C	1.327784	-0.014869	0.008006
C124	C	1.577784	0.235131	0.258006
C125	C	1.539146	-0.400637	-0.606576
C126	C	1.789146	-0.150637	-0.356576
C127	C	2.039146	0.099363	-0.106576
C128	C	2.289146	0.349363	0.143424
C129	C	1.639423	-0.393952	-0.613301
C130	C	1.889423	-0.143952	-0.363301
C131	C	2.139423	0.106048	-0.113301
C132	C	2.389423	0.356048	0.136699
C133	C	1.303893	-0.416221	-0.863370
C134	C	1.553893	-0.166221	-0.613370
C135	C	1.803893	0.083779	-0.363370
C136	C	2.053893	0.333779	-0.113370
C137	C	1.303920	-0.416176	-0.979525
C138	C	1.553920	-0.166176	-0.729525
C139	C	1.803920	0.083824	-0.479525
C140	C	2.053920	0.333824	-0.229525
C141	C	1.303913	-0.143750	-0.590842
C142	C	1.553913	0.106250	-0.340842
C143	C	1.803913	0.356250	-0.090842
C144	C	2.053913	0.606250	0.159158
C145	C	1.303948	-0.027594	-0.590862
C146	C	1.553948	0.222406	-0.340862
C147	C	1.803948	0.472406	-0.090862
C148	C	2.053948	0.722406	0.159138
C149	C	1.358780	-0.348989	-1.034998
C150	C	1.608780	-0.098989	-0.784998
C151	C	1.858780	0.151011	-0.534998
C152	C	2.108780	0.401011	-0.284998
C153	C	1.358808	-0.348942	-1.155050
C154	C	1.608808	-0.098942	-0.905050
C155	C	1.858808	0.151058	-0.655050
C156	C	2.108808	0.401058	-0.405050
C157	C	1.303823	-0.416350	-0.319285
C158	C	1.553823	-0.166350	-0.069285
C159	C	1.803823	0.083650	0.180715
C160	C	2.053823	0.333650	0.430715
C161	C	1.303971	-0.416089	-0.203142
C162	C	1.553971	-0.166089	0.046858
C163	C	1.803971	0.083911	0.296858
C164	C	2.053971	0.333911	0.546858
H165	H	1.405669	-0.804423	-0.479851
H166	H	1.655669	-0.554423	-0.229851
H167	H	1.905669	-0.304423	0.020149
H168	H	2.155669	-0.054423	0.270149
H169	H	1.257004	-0.473617	-1.155457
H170	H	1.507004	-0.223617	-0.905457
H171	H	1.757004	0.026383	-0.655457
H172	H	2.007004	0.276383	-0.405457
H173	H	1.256967	-0.473656	-1.020910
H174	H	1.506967	-0.223656	-0.770910
H175	H	1.756967	0.026344	-0.520910
H176	H	2.006967	0.276344	-0.270910
Cl177	Cl	1.431330	-1.036048	-0.452059
Cl178	Cl	1.681330	-0.786048	-0.202059
Cl179	Cl	1.931330	-0.536048	0.047941
Cl180	Cl	2.181330	-0.286048	0.297941
Cl181	Cl	1.231387	-0.963703	-0.669862
Cl182	Cl	1.481387	-0.713703	-0.419862
Cl183	Cl	1.731387	-0.463703	-0.169862
Cl184	Cl	1.981387	-0.213703	0.080138
H185	H	1.256893	-0.851669	-0.641999
H186	H	1.506893	-0.601669	-0.391999
H187	H	1.756893	-0.351669	-0.141999
H188	H	2.006893	-0.101669	0.108001
H189	H	0.960466	-0.318128	-0.689255
H190	H	1.210466	-0.068128	-0.439255
H191	H	1.460466	0.181872	-0.189255
H192	H	1.710466	0.431872	0.060745
H193	H	0.819179	-0.260820	-0.746757
H194	H	1.069179	-0.010820	-0.496757
H195	H	1.319179	0.239180	-0.246757
H196	H	1.569179	0.489180	0.003243
Cl197	Cl	1.431243	-0.260206	-0.971110
Cl198	Cl	1.681243	-0.010206	-0.721110
Cl199	Cl	1.931243	0.239794	-0.471110
Cl200	Cl	2.181243	0.489794	-0.221110
H201	H	0.648096	-0.514470	-0.492419
H202	H	0.898096	-0.264470	-0.242419
H203	H	1.148096	-0.014470	0.007581
H204	H	1.398096	0.235530	0.257581
Cl205	Cl	0.627406	-0.244072	-0.763589
Cl206	Cl	0.877406	0.005928	-0.513589
Cl207	Cl	1.127406	0.255928	-0.263589
Cl208	Cl	1.377406	0.505928	-0.013589
H209	H	0.789386	-0.571786	-0.434922
H210	H	1.039386	-0.321786	-0.184922
H211	H	1.289386	-0.071786	0.065078
H212	H	1.539386	0.178214	0.315078
Cl213	Cl	0.981179	-0.588544	-0.418087
Cl214	Cl	1.231179	-0.338544	-0.168087
Cl215	Cl	1.481179	-0.088544	0.081913
Cl216	Cl	1.731179	0.161456	0.331913
H217	H	1.405779	-0.291424	-1.202742
H218	H	1.655779	-0.041424	-0.952742
H219	H	1.905779	0.208576	-0.702742
H220	H	2.155779	0.458576	-0.452742
