data_functionalizedCrystal
_audit_creation_method	'MofGen! by Chris Wilmer'
_symmetry_space_group_name_H-M	'P1'
_symmetry_Int_Tables_number	1
_symmetry_cell_setting	triclinic
loop_
_symmetry_equiv_pos_as_xyz
  x,y,z
_cell_length_a	18.215407
_cell_length_b	12.759394
_cell_length_c	18.215399
_cell_angle_alpha	89.974305
_cell_angle_beta	89.980650
_cell_angle_gamma	90.015285
loop_
_atom_site_label
_atom_site_type_symbol
_atom_site_fract_x
_atom_site_fract_y
_atom_site_fract_z
Zn1	Zn	1.125120	-0.418260	-0.416130
Zn2	Zn	1.125051	-0.593959	-0.293069
Zn3	Zn	1.002053	-0.418296	-0.293077
Zn4	Zn	1.002040	-0.593899	-0.416094
O5	O	1.063566	-0.506104	-0.354592
O6	O	1.228095	-0.441577	-0.399817
O7	O	1.108712	-0.570697	-0.190086
O8	O	1.018413	-0.271270	-0.309418
O9	O	1.228044	-0.570662	-0.309405
O10	O	1.108829	-0.271244	-0.399825
O11	O	1.018346	-0.441638	-0.190092
O12	O	0.899067	-0.441580	-0.309384
O13	O	1.018390	-0.570560	-0.519083
O14	O	0.899057	-0.570595	-0.399764
O15	O	1.108816	-0.441519	-0.519109
O16	O	1.108699	-0.740972	-0.309370
O17	O	1.018323	-0.740928	-0.399756
C18	C	0.872360	-0.506086	-0.354571
C19	C	0.790561	-0.506103	-0.354580
C20	C	0.602381	-0.573387	-0.401582
C21	C	0.525522	-0.573390	-0.401591
C22	C	0.525503	-0.438839	-0.307619
C23	C	0.602360	-0.438832	-0.307614
C24	C	0.640797	-0.506111	-0.354594
C25	C	0.487081	-0.506122	-0.354608
C26	C	0.403748	-0.506126	-0.354618
C27	C	0.724136	-0.506107	-0.354586
C28	C	1.063522	-0.779071	-0.354575
C29	C	1.063570	-0.895848	-0.354592
C30	C	1.157749	-0.895840	-0.260543
C31	C	1.204858	-0.950697	-0.213528
C32	C	1.204901	-1.060419	-0.213548
C33	C	1.157832	-1.115286	-0.260590
C34	C	1.110723	-1.060429	-0.307605
C35	C	1.110684	-0.950705	-0.307579
C36	C	1.016549	-1.060437	-0.401656
C37	C	1.016501	-0.950715	-0.401634
C38	C	0.969480	-1.115304	-0.448698
C39	C	0.922367	-1.060447	-0.495711
C40	C	0.922325	-0.950718	-0.495689
C41	C	0.969393	-0.895858	-0.448649
C42	C	1.255519	-0.506122	-0.354614
C43	C	1.337318	-0.506131	-0.354623
C44	C	1.063609	-0.506029	-0.546545
C45	C	1.063628	-0.505998	-0.628344
C46	C	1.063630	-0.232070	-0.354626
C47	C	1.063658	-0.115294	-0.354641
C48	C	1.110740	-0.438715	-0.893417
C49	C	1.110731	-0.438744	-0.816558
C50	C	1.016575	-0.573128	-0.816520
C51	C	1.016588	-0.573104	-0.893378
C52	C	1.063669	-0.505892	-0.931824
C53	C	1.063648	-0.505944	-0.778108
C54	C	1.063638	-0.505975	-0.694774
C55	C	1.063680	-0.505861	-1.015163
C56	C	1.063565	-0.506102	-0.163386
C57	C	1.063689	-0.505838	-0.081588
H58	H	0.494198	-0.384064	-0.269369
C59	C	1.256634	-0.890343	-0.161785
C60	C	1.256592	-0.769653	-0.161757
C61	C	1.308371	-0.709304	-0.110018
C62	C	1.360191	-0.769644	-0.058306
C63	C	1.360235	-0.890341	-0.058331
C64	C	1.308456	-0.950690	-0.110071
H65	H	1.218229	-0.724979	-0.200039
H66	H	1.308338	-0.619956	-0.109999
H67	H	1.398521	-0.724970	-0.020005
H68	H	1.398598	-0.935015	-0.020049
H69	H	1.308489	-1.040038	-0.110090
H70	H	1.243264	-1.105083	-0.175267
H71	H	1.149061	-0.384043	-0.785290
C72	C	1.162534	-0.364793	-0.935708
C73	C	1.214314	-0.290906	-0.893458
C74	C	1.266112	-0.216985	-0.935747
C75	C	1.266130	-0.216951	-1.020287
C76	C	1.214348	-0.290841	-1.062543
C77	C	1.162550	-0.364762	-1.020253
H78	H	1.214303	-0.290929	-0.830872
H79	H	1.304445	-0.162287	-0.904466
H80	H	1.304474	-0.162231	-1.051592
H81	H	1.214359	-0.290819	-1.125128
H82	H	1.124217	-0.419460	-1.051534
H83	H	0.633674	-0.628168	-0.439838
H84	H	0.633640	-0.384041	-0.269352
H85	H	0.978242	-0.627848	-0.785208
H86	H	1.157709	-0.806499	-0.260513
C87	C	0.964800	-0.646993	-0.935632
C88	C	0.913002	-0.720908	-0.893346
C89	C	0.861216	-0.794792	-0.935600
C90	C	0.861229	-0.794762	-1.020140
C91	C	0.913030	-0.720844	-1.062431
C92	C	0.964815	-0.646959	-1.020177
H93	H	0.912990	-0.720933	-0.830760
H94	H	0.822870	-0.849511	-0.904294
H95	H	0.822894	-0.849455	-1.051420
H96	H	0.913041	-0.720819	-1.125017
H97	H	1.003162	-0.592241	-1.051483
C98	C	0.870598	-1.120799	-0.547455
C99	C	0.870651	-1.241489	-0.547484
C100	C	0.818882	-1.301847	-0.599229
C101	C	0.767060	-1.241514	-0.650944
C102	C	0.767005	-1.120817	-0.650916
C103	C	0.818774	-1.060460	-0.599172
H104	H	0.909015	-1.286157	-0.509200
H105	H	0.818923	-1.391195	-0.599249
H106	H	0.728737	-1.286194	-0.689248
H107	H	0.728641	-1.076149	-0.689200
H108	H	0.818734	-0.971112	-0.599151
C109	C	0.483264	-0.647397	-0.453276
C110	C	0.525546	-0.721397	-0.504951
C111	C	0.483289	-0.795406	-0.556639
C112	C	0.398749	-0.795415	-0.556653
C113	C	0.356462	-0.721412	-0.504977
C114	C	0.398719	-0.647403	-0.453288
H115	H	0.588132	-0.721393	-0.504942
H116	H	0.514593	-0.850188	-0.594894
H117	H	0.367467	-0.850201	-0.594916
H118	H	0.293876	-0.721416	-0.504985
H119	H	0.367415	-0.592622	-0.415034
H120	H	0.883967	-0.906060	-0.533977
H121	H	1.157877	-1.204627	-0.260608
H122	H	0.969522	-1.204645	-0.448714
H123	H	0.969358	-0.806517	-0.448621
