data_functionalizedCrystal
_audit_creation_method	'MofGen! by Chris Wilmer'
_symmetry_space_group_name_H-M	'P1'
_symmetry_Int_Tables_number	1
_symmetry_cell_setting	triclinic
loop_
_symmetry_equiv_pos_as_xyz
  x,y,z
_cell_length_a	14.908571
_cell_length_b	18.101395
_cell_length_c	14.908308
_cell_angle_alpha	86.733684
_cell_angle_beta	89.824947
_cell_angle_gamma	86.727274
loop_
_atom_site_label
_atom_site_type_symbol
_atom_site_fract_x
_atom_site_fract_y
_atom_site_fract_z
Zn1	Zn	1.345208	-0.386468	0.587575
Zn2	Zn	1.845208	0.113532	1.087575
Zn3	Zn	1.353762	-0.503604	0.437213
Zn4	Zn	1.853762	-0.003604	0.937213
Zn5	Zn	1.203527	-0.372244	0.428573
Zn6	Zn	1.703527	0.127756	0.928573
Zn7	Zn	1.194790	-0.502724	0.578865
Zn8	Zn	1.694790	-0.002724	1.078865
O9	O	1.274322	-0.441260	0.508057
O10	O	1.774322	0.058740	1.008057
O11	O	1.472167	-0.408328	0.574890
O12	O	1.972167	0.091672	1.074890
O13	O	1.341069	-0.480594	0.310243
O14	O	1.841069	0.019406	0.810243
O15	O	1.222397	-0.270503	0.449694
O16	O	1.722397	0.229497	0.949694
O17	O	1.478452	-0.494387	0.464420
O18	O	1.978452	0.005613	0.964420
O19	O	1.326490	-0.280953	0.566512
O20	O	1.826490	0.219047	1.066512
O21	O	1.230692	-0.384085	0.303895
O22	O	1.730692	0.115915	0.803895
O23	O	1.076543	-0.383231	0.441249
O24	O	1.576543	0.116769	0.941249
O25	O	1.207507	-0.492887	0.705845
O26	O	1.707507	0.007113	1.205845
O27	O	1.070124	-0.479094	0.551667
O28	O	1.570124	0.020906	1.051667
O29	O	1.318019	-0.407474	0.712244
O30	O	1.818019	0.092526	1.212244
O31	O	1.332598	-0.607115	0.455974
O32	O	1.832598	-0.107115	0.955974
O33	O	1.215801	-0.606469	0.560045
O34	O	1.715801	-0.106469	1.060045
C35	C	1.040709	-0.429524	0.494576
C36	C	1.540709	0.070476	0.994576
C37	C	0.940767	-0.424523	0.488830
C38	C	1.440767	0.075477	0.988830
C39	C	0.746339	-0.515086	0.592857
C40	C	1.246339	-0.015086	1.092857
C41	C	0.652434	-0.510389	0.587462
C42	C	1.152434	-0.010389	1.087462
C43	C	0.659052	-0.410428	0.472648
C44	C	1.159052	0.089572	0.972648
C45	C	0.752956	-0.415125	0.478044
C46	C	1.252956	0.084875	0.978044
C47	C	0.796596	-0.467457	0.538149
C48	C	1.296596	0.032543	1.038149
C49	C	0.890503	-0.472157	0.543540
C50	C	1.390503	0.027843	1.043540
C51	C	0.897118	-0.372193	0.428731
C52	C	1.397118	0.127807	0.928731
C53	C	0.803213	-0.367496	0.423336
C54	C	1.303213	0.132504	0.923336
C55	C	1.274203	-0.633663	0.508023
C56	C	1.774203	-0.133663	1.008023
C57	C	1.274233	-0.715980	0.508044
C58	C	1.774233	-0.215980	1.008044
C59	C	1.274427	-1.015083	0.508104
C60	C	1.774427	-0.515083	1.008104
C61	C	1.201093	-0.983397	0.573764
C62	C	1.701093	-0.483397	1.073764
C63	C	1.200777	-0.897753	0.573527
C64	C	1.700777	-0.397753	1.073527
C65	C	1.274331	-0.866694	0.508075
C66	C	1.774331	-0.366694	1.008075
C67	C	1.254147	-0.892332	0.411835
C68	C	1.754147	-0.392332	0.911835
C69	C	1.253677	-0.977973	0.412227
C70	C	1.753677	-0.477973	0.912227
C71	C	1.368144	-0.989281	0.537857
C72	C	1.868144	-0.489281	1.037857
C73	C	1.367465	-0.903695	0.539903
C74	C	1.867465	-0.403695	1.039903
C75	C	1.274278	-0.782831	0.508053
C76	C	1.774278	-0.282831	1.008053
C77	C	1.274478	-1.098945	0.508119
C78	C	1.774478	-0.598945	1.008119
C79	C	1.508847	-0.453042	0.521591
C80	C	2.008847	0.046958	1.021591
C81	C	1.608787	-0.458063	0.527358
C82	C	2.108787	0.041937	1.027358
C83	C	1.260834	-0.451669	0.742582
C84	C	1.760834	0.048331	1.242582
C85	C	1.255087	-0.456105	0.842522
C86	C	1.755087	0.043895	1.342522
C87	C	1.274464	-0.248107	0.508111
C88	C	1.774464	0.251893	1.008111
C89	C	1.274525	-0.165797	0.508134
C90	C	1.774525	0.334203	1.008134
C91	C	1.287808	-0.430840	0.274447
C92	C	1.787808	0.069160	0.774447
C93	C	1.293730	-0.426205	0.174517
C94	C	1.793730	0.073795	0.674517
C95	C	1.359359	-0.375483	1.036986
C96	C	1.859359	0.124517	1.536986
C97	C	1.353962	-0.379648	1.130890
C98	C	1.853962	0.120352	1.630890
C99	C	1.238890	-0.468597	1.124234
C100	C	1.738890	0.031403	1.624234
C101	C	1.244288	-0.464432	1.030330
C102	C	1.744288	0.035568	1.530330
C103	C	1.304525	-0.417874	0.986710
C104	C	1.804525	0.082126	1.486710
C105	C	1.309927	-0.413713	0.892805
C106	C	1.809927	0.086287	1.392805
C107	C	1.194851	-0.502657	0.886151
C108	C	1.694851	-0.002657	1.386151
C109	C	1.189453	-0.506822	0.980054
C110	C	1.689453	-0.006822	1.480054
H111	H	1.212915	-1.007887	0.645171
H112	H	1.712915	-0.507887	1.145171
C113	C	1.172628	-0.519797	1.172226
C114	C	1.672628	-0.019797	1.672226
H115	H	1.177270	-0.516204	1.235351
H116	H	1.677270	-0.016204	1.735351
H117	H	1.113108	-0.505242	1.153351
H118	H	1.613108	-0.005242	1.653351
H119	H	1.186637	-0.569537	1.157594
H120	H	1.686637	-0.069537	1.657594
C121	C	1.425614	-0.324272	0.989001
C122	C	1.925614	0.175728	1.489001
H123	H	1.457496	-0.299619	1.032394
H124	H	1.957496	0.200381	1.532394
H125	H	1.466876	-0.352939	0.954618
H126	H	1.966876	0.147061	1.454618
H127	H	1.393337	-0.288651	0.950398
H128	H	1.893337	0.211349	1.450398
H129	H	1.140408	-0.544727	1.015582
H130	H	1.640408	-0.044727	1.515582
C131	C	1.107663	-1.006851	0.546875
C132	C	1.607663	-0.506851	1.046875
H133	H	1.063753	-0.987483	0.586888
H134	H	1.563753	-0.487483	1.086888
H135	H	1.094186	-0.988145	0.487321
H136	H	1.594186	-0.488145	0.987321
H137	H	1.107410	-1.059404	0.549844
H138	H	1.607410	-0.559404	1.049844
C139	C	0.938506	-0.529716	0.609655
C140	C	1.438506	-0.029716	1.109655
H141	H	0.895122	-0.557403	0.641471
H142	H	1.395122	-0.057403	1.141471
H143	H	0.977099	-0.562245	0.577303
H144	H	1.477099	-0.062245	1.077303
H145	H	0.972902	-0.505002	0.650998
H146	H	1.472902	-0.005002	1.150998
H147	H	0.767668	-0.324888	0.374402
H148	H	1.267668	0.175112	0.874402
C149	C	1.134521	-0.549284	0.830849
C150	C	1.634521	-0.049284	1.330849
H151	H	1.097878	-0.577609	0.870280
H152	H	1.597878	-0.077609	1.370280
H153	H	1.097472	-0.517363	0.791964
H154	H	1.597472	-0.017363	1.291964
H155	H	1.171002	-0.581657	0.796195
H156	H	1.671002	-0.081657	1.296195
C157	C	0.794346	-0.572649	0.658965
C158	C	1.294346	-0.072649	1.158965
H159	H	0.750965	-0.600342	0.690777
H160	H	1.250965	-0.100342	1.190777
H161	H	0.832939	-0.605172	0.626605
H162	H	1.332939	-0.105172	1.126605
H163	H	0.828742	-0.547939	0.700312
H164	H	1.328742	-0.047939	1.200312
H165	H	1.306121	-0.872037	0.361340
H166	H	1.806121	-0.372037	0.861340
H167	H	1.131201	-0.873076	0.553387
H168	H	1.631201	-0.373076	1.053387
H169	H	0.611518	-0.549172	0.632012
H170	H	1.111518	-0.049172	1.132012
C171	C	1.414284	-0.333023	1.186191
C172	C	1.914284	0.166977	1.686191
H173	H	1.450934	-0.304704	1.146761
H174	H	1.950934	0.195296	1.646761
H175	H	1.377808	-0.300656	1.220850
H176	H	1.877808	0.199344	1.720850
H177	H	1.451340	-0.364948	1.225072
H178	H	1.951340	0.135052	1.725072
H179	H	1.387612	-1.015032	0.607127
H180	H	1.887612	-0.515032	1.107127
H181	H	0.938048	-0.333411	0.384182
H182	H	1.438048	0.166589	0.884182
H183	H	0.623503	-0.367818	0.423719
H184	H	1.123503	0.132182	0.923719
H185	H	1.212770	-0.880629	0.644716
H186	H	1.712770	-0.380629	1.144716
C187	C	1.161352	-0.999107	0.379047
C188	C	1.661352	-0.499107	0.879047
H189	H	1.160251	-1.051528	0.378990
H190	H	1.660251	-0.551528	0.878990
H191	H	1.115726	-0.980665	0.417846
H192	H	1.615726	-0.480665	0.917846
H193	H	1.151125	-0.978170	0.319824
H194	H	1.651125	-0.478170	0.819824
C195	C	1.323085	-1.006003	0.343475
C196	C	1.823085	-0.506003	0.843475
H197	H	1.351440	-0.965047	0.315425
H198	H	1.851440	-0.465047	0.815425
H199	H	1.366985	-1.038610	0.373314
H200	H	1.866985	-0.538610	0.873314
H201	H	1.293637	-1.031633	0.299253
H202	H	1.793637	-0.531633	0.799253
C203	C	1.162840	-0.857533	0.378207
C204	C	1.662840	-0.357533	0.878207
H205	H	1.136902	-0.827377	0.422675
H206	H	1.636902	-0.327377	0.922675
H207	H	1.171342	-0.828056	0.324409
H208	H	1.671342	-0.328056	0.824409
H209	H	1.123933	-0.895705	0.366810
H210	H	1.623933	-0.395705	0.866810
H211	H	1.382784	-0.887413	0.610757
H212	H	1.882784	-0.387413	1.110757
C213	C	1.444588	-0.875635	0.480587
C214	C	1.944588	-0.375635	0.980587
H215	H	1.420891	-0.840835	0.435430
H216	H	1.920891	-0.340835	0.935430
H217	H	1.486015	-0.852505	0.516611
H218	H	1.986015	-0.352505	1.016611
H219	H	1.474427	-0.916262	0.453101
H220	H	1.974427	-0.416262	0.953101
C221	C	1.441847	-1.017002	0.473283
C222	C	1.941847	-0.517002	0.973283
H223	H	1.415684	-1.044180	0.428417
H224	H	1.915684	-0.544180	0.928417
H225	H	1.470036	-0.975799	0.445645
H226	H	1.970036	-0.475799	0.945645
H227	H	1.485276	-1.048123	0.505933
H228	H	1.985276	-0.548123	1.005933
C229	C	1.376178	-0.362497	0.844824
C230	C	1.876178	0.137503	1.344824
H231	H	1.408054	-0.337841	0.888219
H232	H	1.908054	0.162159	1.388219
H233	H	1.417445	-0.391159	0.810442
H234	H	1.917445	0.108841	1.310442
H235	H	1.343898	-0.326878	0.806219
H236	H	1.843898	0.173122	1.306219
