data_functionalizedCrystal
_audit_creation_method	'MofGen! by Chris Wilmer'
_symmetry_space_group_name_H-M	'P1'
_symmetry_Int_Tables_number	1
_symmetry_cell_setting	triclinic
loop_
_symmetry_equiv_pos_as_xyz
  x,y,z
_cell_length_a	10.654550
_cell_length_b	15.944551
_cell_length_c	9.130313
_cell_angle_alpha	89.997799
_cell_angle_beta	89.996220
_cell_angle_gamma	83.991820
loop_
_atom_site_label
_atom_site_type_symbol
_atom_site_fract_x
_atom_site_fract_y
_atom_site_fract_z
O1	O	1.666308	0.117973	-0.121923
O2	O	2.166308	0.617973	0.378077
O3	O	1.300684	0.129213	-0.121900
O4	O	1.800684	0.629213	0.378100
O5	O	1.493480	0.001376	-0.121899
O6	O	1.993480	0.501376	0.378101
O7	O	1.473511	0.245810	-0.121924
O8	O	1.973511	0.745810	0.378076
O9	O	1.493478	0.001379	0.121700
O10	O	1.993478	0.501379	0.621700
O11	O	1.300681	0.129216	0.121699
O12	O	1.800681	0.629216	0.621699
O13	O	1.666305	0.117976	0.121676
O14	O	2.166305	0.617976	0.621676
Cu15	Cu	1.483493	0.123596	0.143930
Cu16	Cu	1.983493	0.623596	0.643930
Cu17	Cu	1.483496	0.123592	-0.144154
Cu18	Cu	1.983496	0.623592	0.355846
O19	O	1.473509	0.245813	0.121675
O20	O	1.973509	0.745813	0.621675
C21	C	1.253895	0.128389	-0.000098
C22	C	1.753895	0.628389	0.499902
C23	C	1.114484	0.125920	-0.000088
C24	C	1.614484	0.625920	0.499912
C25	C	1.492650	-0.029921	-0.000099
C26	C	1.992650	0.470079	0.499901
C27	C	1.490165	-0.123182	-0.000098
C28	C	1.990165	0.376818	0.499902
C29	C	1.034024	0.201188	-0.000117
C30	C	1.534024	0.701188	0.499883
C31	C	0.903034	0.198863	-0.000142
C32	C	1.403034	0.698863	0.499858
C33	C	0.932975	0.045995	-0.000116
C34	C	1.432975	0.545995	0.499884
C35	C	1.063963	0.048321	-0.000080
C36	C	1.563963	0.548321	0.499920
C37	C	1.084545	0.278788	-0.000126
C38	C	1.584545	0.778788	0.499874
C39	C	1.004084	0.354062	-0.000156
C40	C	1.504084	0.854062	0.499844
C41	C	0.873094	0.351737	-0.000182
C42	C	1.373094	0.851737	0.499818
C43	C	0.822564	0.274137	-0.000176
C44	C	1.322564	0.774137	0.499824
C45	C	1.364720	-0.338765	-0.000111
C46	C	1.864720	0.161235	0.499889
C47	C	1.422971	-0.399443	0.119995
C48	C	1.922971	0.100557	0.619995
C49	C	1.485668	-0.293934	-0.000109
C50	C	1.985668	0.206066	0.499891
C51	C	1.423002	-0.399430	-0.120175
C52	C	1.923002	0.100570	0.379825
C53	C	1.481317	-0.458872	-0.000126
C54	C	1.981317	0.041128	0.499874
C55	C	1.543953	-0.353384	0.120095
C56	C	2.043953	0.146616	0.620095
C57	C	1.543967	-0.353364	-0.120182
C58	C	2.043967	0.146636	0.379818
C59	C	1.602306	-0.414024	-0.000048
C60	C	2.102306	0.085976	0.499952
C61	C	1.488172	-0.198917	-0.000098
C62	C	1.988172	0.301083	0.499902
C63	C	1.478822	-0.553887	-0.000127
C64	C	1.978822	-0.053887	0.499873
C65	C	1.713094	0.118800	-0.000130
C66	C	2.213094	0.618800	0.499870
C67	C	1.852505	0.121269	-0.000149
C68	C	2.352505	0.621269	0.499851
C69	C	1.474339	0.277110	-0.000128
C70	C	1.974339	0.777110	0.499872
C71	C	1.476824	0.370371	-0.000139
C72	C	1.976824	0.870371	0.499861
N73	N	1.483500	0.123599	0.346552
N74	N	1.983500	0.623599	0.846552
N75	N	1.483499	0.123583	-0.346777
N76	N	1.983499	0.623583	0.153223
C77	C	1.568892	0.067012	0.423205
C78	C	2.068892	0.567012	0.923205
C79	C	1.568889	0.067002	0.576542
C80	C	2.068889	0.567002	1.076542
C81	C	1.398098	0.180173	0.576560
C82	C	1.898098	0.680173	1.076560
C83	C	1.398096	0.180178	0.423226
C84	C	1.898096	0.680178	0.923226
C85	C	1.654296	0.010433	0.346531
C86	C	2.154296	0.510433	0.846531
C87	C	1.739696	-0.046158	0.423184
C88	C	2.239696	0.453842	0.923184
C89	C	1.739693	-0.046168	0.576520
C90	C	2.239693	0.453832	1.076520
C91	C	1.654290	0.010412	0.653205
C92	C	2.154290	0.510412	1.153205
H93	H	1.191203	0.280689	-0.000112
H94	H	1.691203	0.780689	0.499888
F95	F	1.233500	-0.295989	0.000047
F96	F	1.733500	0.204011	0.500047
F97	F	1.307215	0.240388	0.658177
F98	F	1.807215	0.740388	1.158177
F99	F	1.733640	-0.456607	0.000028
F100	F	2.233640	0.043393	0.500028
H101	H	1.371814	-0.419846	0.221540
H102	H	1.871814	0.080154	0.721540
H103	H	1.809222	-0.092229	0.360739
H104	H	2.309222	0.407771	0.860739
H105	H	1.595080	-0.332939	-0.221733
H106	H	2.095080	0.167061	0.278267
F107	F	1.654283	0.010391	0.816401
F108	F	2.154283	0.510391	1.316401
F109	F	1.610765	-0.326870	0.252959
F110	F	2.110765	0.173130	0.752959
F111	F	1.149599	-0.031788	-0.000047
F112	F	1.649599	0.468212	0.499953
H113	H	1.328561	0.226256	0.360815
H114	H	1.828561	0.726256	0.860815
H115	H	0.891822	-0.017184	-0.000135
H116	H	1.391822	0.482816	0.499865
F117	F	1.356110	-0.426079	-0.252884
F118	F	1.856110	0.073921	0.247116
H119	H	1.045235	0.417241	-0.000149
H120	H	1.545235	0.917241	0.499851
H121	H	0.807585	0.413029	-0.000192
H122	H	1.307585	0.913029	0.499808
F123	F	1.830571	-0.106402	0.658097
F124	F	2.330571	0.393598	1.158097
H125	H	0.715901	0.272250	-0.000174
H126	H	1.215901	0.772250	0.499826
H127	H	1.654309	0.010437	0.221677
H128	H	2.154309	0.510437	0.721677
