data_functionalizedCrystal
_audit_creation_method	'MofGen! by Chris Wilmer'
_symmetry_space_group_name_H-M	'P1'
_symmetry_Int_Tables_number	1
_symmetry_cell_setting	triclinic
loop_
_symmetry_equiv_pos_as_xyz
  x,y,z
_cell_length_a	18.050591
_cell_length_b	18.050588
_cell_length_c	19.805399
_cell_angle_alpha	89.974760
_cell_angle_beta	89.985740
_cell_angle_gamma	90.028402
loop_
_atom_site_label
_atom_site_type_symbol
_atom_site_fract_x
_atom_site_fract_y
_atom_site_fract_z
Zn1	Zn	1.135313	-0.295700	-0.382635
Zn2	Zn	1.635313	0.204300	0.117365
Zn3	Zn	1.135213	-0.419892	-0.269451
Zn4	Zn	1.635213	0.080108	0.230549
Zn5	Zn	1.011124	-0.295718	-0.269470
Zn6	Zn	1.511124	0.204282	0.230530
Zn7	Zn	1.011077	-0.419850	-0.382608
Zn8	Zn	1.511077	0.080150	0.117392
O9	O	1.073182	-0.357790	-0.326041
O10	O	1.573182	0.142210	0.173959
O11	O	1.239224	-0.312184	-0.367624
O12	O	1.739224	0.187816	0.132376
O13	O	1.118730	-0.403445	-0.174737
O14	O	1.618730	0.096555	0.325263
O15	O	1.027659	-0.191791	-0.284500
O16	O	1.527659	0.308209	0.215500
O17	O	1.239150	-0.403428	-0.284468
O18	O	1.739150	0.096572	0.215532
O19	O	1.118900	-0.191777	-0.367642
O20	O	1.618900	0.308223	0.132358
O21	O	1.027562	-0.312215	-0.174751
O22	O	1.527562	0.187785	0.325249
O23	O	0.907193	-0.312174	-0.284475
O24	O	1.407193	0.187826	0.215525
O25	O	1.027580	-0.403356	-0.477328
O26	O	1.527580	0.096644	0.022672
O27	O	0.907159	-0.403373	-0.367597
O28	O	1.407159	0.096627	0.132403
O29	O	1.118855	-0.312143	-0.477348
O30	O	1.618855	0.187857	0.022652
O31	O	1.118684	-0.523811	-0.284443
O32	O	1.618684	-0.023811	0.215557
O33	O	1.027482	-0.523780	-0.367579
O34	O	1.527482	-0.023780	0.132421
C35	C	0.880229	-0.357772	-0.326035
C36	C	1.380229	0.142228	0.173965
C37	C	0.797684	-0.357782	-0.326049
C38	C	1.297684	0.142218	0.173951
C39	C	0.548861	-0.407479	-0.371189
C40	C	1.048861	0.092521	0.128811
C41	C	0.598226	-0.425554	-0.309410
C42	C	1.098226	0.074446	0.190590
C43	C	0.500563	-0.357805	-0.326048
C44	C	1.000563	0.142195	0.173952
C45	C	0.598280	-0.339753	-0.387824
C46	C	1.098280	0.160247	0.112176
C47	C	0.646548	-0.357795	-0.326052
C48	C	1.146548	0.142205	0.173948
C49	C	0.548841	-0.375916	-0.264236
C50	C	1.048841	0.124084	0.235764
C51	C	0.548891	-0.290083	-0.342692
C52	C	1.048891	0.209917	0.157308
C53	C	0.598233	-0.308133	-0.280870
C54	C	1.098233	0.191867	0.219130
C55	C	0.416465	-0.357813	-0.326047
C56	C	0.916465	0.142187	0.173953
C57	C	0.730645	-0.357788	-0.326046
C58	C	1.230645	0.142212	0.173954
C59	C	1.073087	-0.550742	-0.326021
C60	C	1.573087	-0.050742	0.173979
C61	C	1.073115	-0.633288	-0.326035
C62	C	1.573115	-0.133288	0.173965
C63	C	1.023598	-0.882123	-0.371244
C64	C	1.523598	-0.382123	0.128756
C65	C	1.091315	-0.832655	-0.387849
C66	C	1.591315	-0.332655	0.112151
C67	C	1.073269	-0.930408	-0.326072
C68	C	1.573269	-0.430408	0.173928
C69	C	1.005479	-0.832795	-0.309481
C70	C	1.505479	-0.332795	0.190519
C71	C	1.073190	-0.784423	-0.326055
C72	C	1.573190	-0.284423	0.173945
C73	C	1.141023	-0.882027	-0.342709
C74	C	1.641023	-0.382027	0.157291
C75	C	1.055142	-0.882171	-0.264312
C76	C	1.555142	-0.382171	0.235688
C77	C	1.122906	-0.832725	-0.280893
C78	C	1.622906	-0.332725	0.219107
C79	C	1.073314	-1.014506	-0.326084
C80	C	1.573314	-0.514506	0.173916
C81	C	1.073153	-0.700326	-0.326044
C82	C	1.573153	-0.200326	0.173956
C83	C	1.266887	-0.357809	-0.326047
C84	C	1.766887	0.142191	0.173953
C85	C	1.349433	-0.357816	-0.326049
C86	C	1.849433	0.142184	0.173951
C87	C	1.073223	-0.357743	-0.502584
C88	C	1.573223	0.142257	-0.002584
C89	C	1.073241	-0.357723	-0.577816
C90	C	1.573241	0.142277	-0.077816
C91	C	1.073296	-0.164084	-0.326076
C92	C	1.573296	0.335916	0.173924
C93	C	1.073345	-0.081538	-0.326091
C94	C	1.573345	0.418462	0.173909
C95	C	1.120769	-0.310226	-0.613171
C96	C	1.620769	0.189774	-0.113171
C97	C	1.120777	-0.310205	-0.683860
C98	C	1.620777	0.189795	-0.183860
C99	C	1.073259	-0.357684	-0.719191
C100	C	1.573259	0.142316	-0.219191
C101	C	1.025726	-0.405183	-0.683831
C102	C	1.525726	0.094817	-0.183831
C103	C	1.025715	-0.405200	-0.613144
C104	C	1.525715	0.094800	-0.113144
C105	C	1.025768	-0.405114	-0.968905
C106	C	1.525768	0.094886	-0.468905
C107	C	1.025784	-0.405095	-1.039597
C108	C	1.525784	0.094905	-0.539597
C109	C	1.120830	-0.310118	-1.039620
C110	C	1.620830	0.189882	-0.539620
C111	C	1.120819	-0.310136	-0.968933
C112	C	1.620819	0.189864	-0.468933
C113	C	1.073283	-0.357631	-0.933579
C114	C	1.573283	0.142369	-0.433579
C115	C	1.073274	-0.357653	-0.856930
C116	C	1.573274	0.142347	-0.356930
C117	C	1.073271	-0.357667	-0.795839
C118	C	1.573271	0.142333	-0.295839
C119	C	1.073183	-0.357783	-0.150185
C120	C	1.573183	0.142217	0.349815
C121	C	1.073309	-0.357593	-0.074953
C122	C	1.573309	0.142407	0.425047
H123	H	0.527203	-0.232832	-0.356790
H124	H	1.027203	0.267168	0.143210
H125	H	1.198335	-0.903564	-0.356796
H126	H	1.698335	-0.403564	0.143204
F127	F	0.626666	-0.319800	-0.456107
F128	F	1.126666	0.180200	0.043893
F129	F	1.111320	-0.804228	-0.456107
F130	F	1.611320	-0.304228	0.043893
F131	F	1.177827	-0.804551	-0.230953
F132	F	1.677827	-0.304551	0.269047
H133	H	0.948184	-0.811165	-0.295455
H134	H	1.448184	-0.311165	0.204545
H135	H	0.981677	-0.903811	-0.409481
H136	H	1.481677	-0.403811	0.090519
H137	H	0.987034	-0.443839	-0.712604
H138	H	1.487034	0.056161	-0.212604
F139	F	1.035113	-0.910621	-0.196073
F140	F	1.535113	-0.410621	0.303927
H141	H	1.159466	-0.271565	-0.584409
H142	H	1.659466	0.228435	-0.084409
H143	H	1.159481	-0.271530	-0.712643
H144	H	1.659481	0.228470	-0.212643
F145	F	1.171396	-0.259604	-0.931334
F146	F	1.671396	0.240396	-0.431334
F147	F	0.520524	-0.462430	-0.421022
F148	F	1.020524	0.037570	0.078978
F149	F	0.975206	-0.455631	-1.077198
F150	F	1.475206	0.044369	-0.577198
H151	H	1.159533	-0.271442	-1.068414
H152	H	1.659533	0.228558	-0.568414
F153	F	0.626556	-0.500405	-0.291006
F154	F	1.126556	-0.000405	0.208994
H155	H	0.987072	-0.443799	-0.940128
H156	H	1.487072	0.056201	-0.440128
H157	H	0.527217	-0.391250	-0.211979
H158	H	1.027217	0.108750	0.288021
F159	F	0.626385	-0.253215	-0.230920
F160	F	1.126385	0.246785	0.269080
H161	H	0.987005	-0.443870	-0.584359
H162	H	1.487005	0.056130	-0.084359
