data_functionalizedCrystal
_audit_creation_method	'MofGen! by Chris Wilmer'
_symmetry_space_group_name_H-M	'P1'
_symmetry_Int_Tables_number	1
_symmetry_cell_setting	triclinic
loop_
_symmetry_equiv_pos_as_xyz
  x,y,z
_cell_length_a	10.654550
_cell_length_b	15.944493
_cell_length_c	9.730223
_cell_angle_alpha	90.004543
_cell_angle_beta	89.996251
_cell_angle_gamma	83.979974
loop_
_atom_site_label
_atom_site_type_symbol
_atom_site_fract_x
_atom_site_fract_y
_atom_site_fract_z
O1	O	1.666271	0.117976	-0.114383
O2	O	1.300643	0.129216	-0.114359
O3	O	1.493480	0.001376	-0.114383
O4	O	1.473435	0.245816	-0.114359
O5	O	1.493477	0.001379	0.114197
O6	O	1.300641	0.129219	0.114221
O7	O	1.666269	0.117979	0.114197
Zn8	Zn	1.483455	0.123600	0.150501
Zn9	Zn	1.483458	0.123595	-0.150663
O10	O	1.473433	0.245819	0.114221
C11	C	1.253855	0.128392	-0.000066
C12	C	1.114445	0.125923	-0.000058
C13	C	1.033962	0.201193	-0.000071
C14	C	0.902972	0.198868	-0.000095
C15	C	0.932961	0.045996	-0.000099
C16	C	1.063948	0.048322	-0.000066
C17	C	1.084458	0.278795	-0.000064
C18	C	1.003974	0.354071	-0.000078
C19	C	0.872984	0.351746	-0.000102
C20	C	0.822478	0.274144	-0.000112
C21	C	1.492659	-0.029922	-0.000099
C22	C	1.490203	-0.123185	-0.000116
C23	C	1.603711	-0.358288	-0.000098
C24	C	1.542501	-0.409212	-0.112795
C25	C	1.485652	-0.293932	-0.000099
C26	C	1.542472	-0.409185	0.112567
C27	C	1.481264	-0.458867	-0.000077
C28	C	1.424474	-0.343628	-0.112889
C29	C	1.424462	-0.343597	0.112574
C30	C	1.363166	-0.394489	-0.000151
C31	C	1.488183	-0.198918	-0.000113
C32	C	1.478724	-0.553879	-0.000072
C33	C	1.713057	0.118803	-0.000099
C34	C	1.852467	0.121272	-0.000116
C35	C	1.474253	0.277117	-0.000066
C36	C	1.476709	0.370380	-0.000058
N37	N	1.483462	0.123602	0.356037
N38	N	1.483460	0.123586	-0.356200
C39	C	1.568871	0.067014	0.427953
C40	C	1.568868	0.067004	0.571836
C41	C	1.398042	0.180177	0.571875
C42	C	1.398040	0.180183	0.427995
C43	C	1.654293	0.010433	0.355995
C44	C	1.739711	-0.046159	0.427911
C45	C	1.739707	-0.046170	0.571794
C46	C	1.654287	0.010413	0.643761
H47	H	0.891828	-0.017184	-0.000130
C48	C	1.357835	-0.305458	0.239583
C49	C	1.232642	-0.324778	0.240463
C50	C	1.171243	-0.289668	0.357464
H51	H	1.359095	-0.245983	0.238324
H52	H	1.399840	-0.328027	0.319621
H53	H	1.190648	-0.302206	0.160446
H54	H	1.231345	-0.384247	0.241743
H55	H	1.213249	-0.312237	0.437502
H56	H	1.172513	-0.230194	0.356195
H57	H	1.086298	-0.302778	0.358083
C58	C	1.151131	-0.033491	-0.000135
C59	C	1.078875	-0.101949	-0.000201
C60	C	1.159145	-0.177329	-0.000280
H61	H	1.202861	-0.035880	0.079565
H62	H	1.202853	-0.035805	-0.079867
H63	H	1.027174	-0.099637	0.079523
H64	H	1.027147	-0.099588	-0.079895
H65	H	1.210867	-0.179643	-0.080013
H66	H	1.210871	-0.179710	0.079421
H67	H	1.110132	-0.223787	-0.000338
H68	H	1.328490	0.226262	0.369441
C69	C	1.305110	0.241511	0.649937
C70	C	1.181714	0.227106	0.614977
C71	C	1.096074	0.283585	0.686873
H72	H	1.318556	0.297695	0.626431
H73	H	1.317262	0.233398	0.745939
H74	H	1.169567	0.235226	0.518996
H75	H	1.168228	0.170933	0.638487
H76	H	1.108226	0.275472	0.782875
H77	H	1.109531	0.339766	0.663361
H78	H	1.012341	0.273814	0.663172
C79	C	1.227445	-0.415856	-0.000500
C80	C	1.166227	-0.382385	-0.118706
C81	C	1.041208	-0.402062	-0.119089
H82	H	1.185067	-0.392400	0.078712
H83	H	1.226548	-0.475374	0.000188
H84	H	1.167117	-0.322879	-0.119381
H85	H	1.208567	-0.405836	-0.197937
H86	H	1.040310	-0.461580	-0.118402
H87	H	0.998841	-0.378604	-0.039873
H88	H	0.999659	-0.379362	-0.199296
H89	H	1.809249	-0.092255	0.630346
C90	C	0.785809	0.433562	-0.000181
C91	C	0.858074	0.502015	-0.000201
C92	C	0.777814	0.577400	-0.000299
H93	H	0.734039	0.435958	0.079497
H94	H	0.734125	0.435875	-0.079935
H95	H	0.909736	0.499704	0.079545
H96	H	0.909841	0.499647	-0.079873
H97	H	0.726131	0.579712	-0.080053
H98	H	0.726048	0.579787	0.079380
H99	H	0.826834	0.623853	-0.000325
C100	C	1.654147	0.010605	0.199780
C101	C	1.561087	0.072288	0.152199
C102	C	1.560930	0.072483	0.008304
H103	H	1.636940	-0.043136	0.167034
H104	H	1.734379	0.022652	0.167191
H105	H	1.480873	0.060235	0.184775
H106	H	1.578273	0.126039	0.184908
H107	H	1.641161	0.084531	-0.024286
H108	H	1.543724	0.018739	-0.024429
H109	H	1.497797	0.114340	-0.023998
H110	H	1.592360	-0.437870	-0.208080
C111	C	1.358164	-0.305441	-0.240037
C112	C	1.361360	-0.217882	-0.238615
C113	C	1.300314	-0.182677	-0.355733
H114	H	1.272944	-0.317957	-0.240491
H115	H	1.399828	-0.328431	-0.320003
H116	H	1.319693	-0.194901	-0.158671
H117	H	1.446564	-0.205343	-0.238182
H118	H	1.341978	-0.205667	-0.435698
H119	H	1.215098	-0.195199	-0.356176
H120	H	1.302484	-0.123267	-0.354790
H121	H	1.592353	-0.437826	0.207838
H122	H	1.191115	0.280697	-0.000050
C123	C	1.832338	-0.107532	0.349533
C124	C	1.814063	-0.095414	0.208136
C125	C	1.899357	-0.151945	0.135896
H126	H	1.818749	-0.163703	0.372962
H127	H	1.916191	-0.097916	0.373003
H128	H	1.730229	-0.105037	0.184675
H129	H	1.827662	-0.039255	0.184666
H130	H	1.983210	-0.142329	0.159366
H131	H	1.885761	-0.208113	0.159335
H132	H	1.886977	-0.143726	0.039950
H133	H	1.654283	0.010394	0.760920
H134	H	1.045105	0.417252	-0.000058
H135	H	0.715816	0.272257	-0.000110
H136	H	1.705403	-0.342071	-0.000218
