data_functionalizedCrystal
_audit_creation_method	'MofGen! by Chris Wilmer'
_symmetry_space_group_name_H-M	'P1'
_symmetry_Int_Tables_number	1
_symmetry_cell_setting	triclinic
loop_
_symmetry_equiv_pos_as_xyz
  x,y,z
_cell_length_a	10.654550
_cell_length_b	10.654550
_cell_length_c	9.730223
_cell_angle_alpha	90.001139
_cell_angle_beta	89.993622
_cell_angle_gamma	84.484903
loop_
_atom_site_label
_atom_site_type_symbol
_atom_site_fract_x
_atom_site_fract_y
_atom_site_fract_z
O1	O	-1.667839	-0.176390	0.114399
O2	O	-1.302361	-0.193196	0.114377
O3	O	-1.493503	-0.002054	0.114383
O4	O	-1.476697	-0.367533	0.114393
O5	O	-1.493491	-0.002065	-0.114197
O6	O	-1.302348	-0.193207	-0.114203
O7	O	-1.667827	-0.176401	-0.114181
Zn8	Zn	-1.485085	-0.184806	-0.150484
Zn9	Zn	-1.485102	-0.184792	0.150680
O10	O	-1.476684	-0.367543	-0.114187
C11	C	-1.255556	-0.191968	0.000084
C12	C	-1.116113	-0.188276	0.000075
C13	C	-1.492263	0.044739	0.000095
C14	C	-1.488571	0.184182	0.000100
C15	C	-1.714631	-0.177630	0.000115
C16	C	-1.854074	-0.181321	0.000133
C17	C	-1.477925	-0.414336	0.000104
C18	C	-1.481616	-0.553779	0.000109
C19	C	-1.036627	-0.300817	0.000098
C20	C	-0.905607	-0.297341	0.000122
C21	C	-0.933570	-0.068771	0.000106
C22	C	-1.064588	-0.072249	0.000072
C23	C	-1.020482	-0.432780	0.000114
C24	C	-0.889461	-0.429304	0.000137
N25	N	-1.485084	-0.184815	-0.356020
C26	C	-1.601112	0.263668	0.000102
C27	C	-1.597636	0.394688	0.000112
C28	C	-1.369066	0.366725	0.000110
C29	C	-1.372544	0.235707	0.000110
C30	C	-1.733075	0.279813	0.000097
C31	C	-1.729599	0.410834	0.000107
C32	C	-1.561913	-0.261689	-0.427953
C33	C	-1.561932	-0.261665	-0.571836
C34	C	-1.408281	-0.107890	-0.571841
C35	C	-1.408270	-0.107907	-0.427961
C36	C	-1.650619	-0.350475	-0.427950
C37	C	-1.650637	-0.350451	-0.571833
N38	N	-1.485114	-0.184773	0.356216
H39	H	-1.129302	0.019393	0.000034
H40	H	-1.345721	-0.045295	-0.369399
F41	F	-1.058819	-0.500249	-0.124920
F42	F	-1.252762	0.151116	0.000137
F43	F	-1.598865	-0.474052	-0.369643
H44	H	-1.345742	-0.045275	-0.630433
H45	H	-0.843784	-0.469189	-0.098546
F46	F	-1.780082	-0.310143	-0.376875
F47	F	-1.774278	-0.298874	-0.630133
H48	H	-1.619705	-0.449485	-0.610906
H49	H	-0.847734	-0.479021	0.095806
F50	F	-1.800546	0.241439	0.125125
F51	F	-0.878722	0.054706	0.000101
H52	H	-1.056143	-0.474795	0.098802
H53	H	-1.274601	0.408693	0.000120
H54	H	-1.775092	0.244182	-0.098596
H55	H	-1.769485	0.456482	0.098804
H56	H	-1.779315	0.452590	-0.095548
