data_functionalizedCrystal
_audit_creation_method	'MofGen! by Chris Wilmer'
_symmetry_space_group_name_H-M	'P1'
_symmetry_Int_Tables_number	1
_symmetry_cell_setting	triclinic
loop_
_symmetry_equiv_pos_as_xyz
  x,y,z
_cell_length_a	18.215407
_cell_length_b	13.034595
_cell_length_c	18.215399
_cell_angle_alpha	82.837891
_cell_angle_beta	90.017368
_cell_angle_gamma	82.837389
loop_
_atom_site_label
_atom_site_type_symbol
_atom_site_fract_x
_atom_site_fract_y
_atom_site_fract_z
Zn1	Zn	1.162317	-0.416037	0.453339
Zn2	Zn	1.412317	-0.166037	0.703339
Zn3	Zn	1.662317	0.083963	0.953339
Zn4	Zn	1.912317	0.333963	1.203339
Zn5	Zn	1.177868	-0.590763	0.345926
Zn6	Zn	1.427868	-0.340763	0.595926
Zn7	Zn	1.677868	-0.090763	0.845926
Zn8	Zn	1.927868	0.159237	1.095926
Zn9	Zn	1.039252	-0.416062	0.330294
Zn10	Zn	1.289252	-0.166062	0.580294
Zn11	Zn	1.539252	0.083938	0.830294
Zn12	Zn	1.789252	0.333938	1.080294
Zn13	Zn	1.054852	-0.590696	0.468950
Zn14	Zn	1.304852	-0.340696	0.718950
Zn15	Zn	1.554852	-0.090696	0.968950
Zn16	Zn	1.804852	0.159304	1.218950
O17	O	1.108572	-0.503389	0.399627
O18	O	1.358572	-0.253389	0.649627
O19	O	1.608572	-0.003389	0.899627
O20	O	1.858572	0.246611	1.149627
O21	O	1.267366	-0.439232	0.439099
O22	O	1.517366	-0.189232	0.689099
O23	O	1.767366	0.060768	0.939099
O24	O	2.017366	0.310768	1.189099
O25	O	1.159460	-0.567627	0.240872
O26	O	1.409460	-0.317627	0.490872
O27	O	1.659460	-0.067627	0.740872
O28	O	1.909460	0.182373	0.990872
O29	O	1.042540	-0.269850	0.333541
O30	O	1.292540	-0.019850	0.583541
O31	O	1.542540	0.230150	0.833541
O32	O	1.792540	0.480150	1.083541
O33	O	1.278791	-0.567603	0.360183
O34	O	1.528791	-0.317603	0.610183
O35	O	1.778791	-0.067603	0.860183
O36	O	2.028791	0.182397	1.110183
O37	O	1.132956	-0.269832	0.423941
O38	O	1.382956	-0.019832	0.673941
O39	O	1.632956	0.230168	0.923941
O40	O	1.882956	0.480168	1.173941
O41	O	1.057619	-0.439275	0.229387
O42	O	1.307619	-0.189275	0.479387
O43	O	1.557619	0.060725	0.729387
O44	O	1.807619	0.310725	0.979387
O45	O	0.938336	-0.439210	0.348678
O46	O	1.188336	-0.189210	0.598678
O47	O	1.438336	0.060790	0.848678
O48	O	1.688336	0.310790	1.098678
O49	O	1.069128	-0.567488	0.569860
O50	O	1.319128	-0.317488	0.819860
O51	O	1.569128	-0.067488	1.069860
O52	O	1.819128	0.182512	1.319860
O53	O	0.949797	-0.567513	0.450548
O54	O	1.199797	-0.317513	0.700548
O55	O	1.449797	-0.067513	0.950548
O56	O	1.699797	0.182487	1.200548
O57	O	1.148082	-0.439167	0.558391
O58	O	1.398082	-0.189167	0.808391
O59	O	1.648082	0.060833	1.058391
O60	O	1.898082	0.310833	1.308391
O61	O	1.174586	-0.736963	0.375321
O62	O	1.424586	-0.486963	0.625321
O63	O	1.674586	-0.236963	0.875321
O64	O	1.924586	0.013037	1.125321
O65	O	1.084207	-0.736913	0.465706
O66	O	1.334207	-0.486913	0.715706
O67	O	1.584207	-0.236913	0.965706
O68	O	1.834207	0.013087	1.215706
C69	C	0.917363	-0.503357	0.399612
C70	C	1.167363	-0.253357	0.649612
C71	C	1.417363	-0.003357	0.899612
C72	C	1.667363	0.246643	1.149612
C73	C	0.835565	-0.503369	0.399625
C74	C	1.085565	-0.253369	0.649625
C75	C	1.335565	-0.003369	0.899625
C76	C	1.585565	0.246631	1.149625
C77	C	0.641434	-0.436664	0.440803
C78	C	0.891434	-0.186664	0.690803
C79	C	1.141434	0.063336	0.940803
C80	C	1.391434	0.313336	1.190803
C81	C	0.564576	-0.436673	0.440806
C82	C	0.814576	-0.186673	0.690806
C83	C	1.064576	0.063327	0.940806
C84	C	1.314576	0.313327	1.190806
C85	C	0.576466	-0.570144	0.358467
C86	C	0.826466	-0.320144	0.608467
C87	C	1.076466	-0.070144	0.858467
C88	C	1.326466	0.179856	1.108467
C89	C	0.653322	-0.570129	0.358461
C90	C	0.903322	-0.320129	0.608461
C91	C	1.153322	-0.070129	0.858461
C92	C	1.403322	0.179871	1.108461
C93	C	0.685804	-0.503391	0.399632
C94	C	0.935804	-0.253391	0.649632
C95	C	1.185804	-0.003391	0.899632
C96	C	1.435804	0.246609	1.149632
C97	C	0.532090	-0.503415	0.399643
C98	C	0.782090	-0.253415	0.649643
C99	C	1.032090	-0.003415	0.899643
C100	C	1.282090	0.246585	1.149643
C101	C	0.448757	-0.503425	0.399646
C102	C	0.698757	-0.253425	0.649646
C103	C	0.948757	-0.003425	0.899646
C104	C	1.198757	0.246575	1.149646
C105	C	0.769142	-0.503379	0.399628
C106	C	1.019142	-0.253379	0.649628
C107	C	1.269142	-0.003379	0.899628
C108	C	1.519142	0.246621	1.149628
C109	C	1.132797	-0.774848	0.423920
C110	C	1.382797	-0.524848	0.673920
C111	C	1.632797	-0.274848	0.923920
C112	C	1.882797	-0.024848	1.173920
C113	C	1.143228	-0.890980	0.434337
C114	C	1.393228	-0.640980	0.684337
C115	C	1.643228	-0.390980	0.934337
C116	C	1.893228	-0.140980	1.184337
C117	C	1.103186	-0.942847	0.394224
C118	C	1.353186	-0.692847	0.644224
C119	C	1.603186	-0.442847	0.894224
C120	C	1.853186	-0.192847	1.144224
C121	C	1.113966	-1.062875	0.404989
C122	C	1.363966	-0.812875	0.654989
C123	C	1.613966	-0.562875	0.904989
C124	C	1.863966	-0.312875	1.154989
C125	C	1.300528	-0.503422	0.399644
C126	C	1.550528	-0.253422	0.649644
C127	C	1.800528	-0.003422	0.899644
C128	C	2.050528	0.246578	1.149644
C129	C	1.382328	-0.503436	0.399651
C130	C	1.632328	-0.253436	0.649651
C131	C	1.882328	-0.003436	0.899651
C132	C	2.132328	0.246564	1.149651
C133	C	1.108611	-0.503317	0.591574
C134	C	1.358611	-0.253317	0.841574
C135	C	1.608611	-0.003317	1.091574
C136	C	1.858611	0.246683	1.341574
C137	C	1.108627	-0.503287	0.673370
C138	C	1.358627	-0.253287	0.923370
C139	C	1.608627	-0.003287	1.173370
C140	C	1.858627	0.246713	1.423370
C141	C	1.084273	-0.230871	0.375256
C142	C	1.334273	0.019129	0.625256
C143	C	1.584273	0.269129	0.875256
C144	C	1.834273	0.519129	1.125256
C145	C	1.073919	-0.114739	0.364870
C146	C	1.323919	0.135261	0.614870
C147	C	1.573919	0.385261	0.864870
C148	C	1.823919	0.635261	1.114870
C149	C	1.108570	-0.503386	0.208421
C150	C	1.358570	-0.253386	0.458421
C151	C	1.608570	-0.003386	0.708421
C152	C	1.858570	0.246614	0.958421
C153	C	1.108670	-0.503122	0.126599
C154	C	1.358670	-0.253122	0.376599
C155	C	1.608670	-0.003122	0.626599
C156	C	1.858670	0.246878	0.876599
C157	C	1.149750	-0.436407	0.855588
C158	C	1.399750	-0.186407	1.105588
C159	C	1.649750	0.063593	1.355588
C160	C	1.899750	0.313593	1.605588
C161	C	1.149756	-0.436377	0.932444
C162	C	1.399756	-0.186377	1.182444
C163	C	1.649756	0.063623	1.432444
C164	C	1.899756	0.313623	1.682444
C165	C	1.067542	-0.570004	0.944376
C166	C	1.317542	-0.320004	1.194376
C167	C	1.567542	-0.070004	1.444376
C168	C	1.817542	0.179996	1.694376
C169	C	1.067532	-0.570029	0.867521
C170	C	1.317532	-0.320029	1.117521
C171	C	1.567532	-0.070029	1.367521
C172	C	1.817532	0.179971	1.617521
C173	C	1.108641	-0.503232	0.823129
C174	C	1.358641	-0.253232	1.073129
C175	C	1.608641	-0.003232	1.323129
C176	C	1.858641	0.246768	1.573129
C177	C	1.108656	-0.503177	0.976840
C178	C	1.358656	-0.253177	1.226840
C179	C	1.608656	-0.003177	1.476840
C180	C	1.858656	0.246823	1.726840
C181	C	1.108663	-0.503144	1.060171
C182	C	1.358663	-0.253144	1.310171
C183	C	1.608663	-0.003144	1.560171
C184	C	1.858663	0.246856	1.810171
C185	C	1.108633	-0.503263	0.739792
C186	C	1.358633	-0.253263	0.989792
C187	C	1.608633	-0.003263	1.239792
C188	C	1.858633	0.246737	1.489792
H189	H	0.550009	-0.624482	0.324948
H190	H	0.800009	-0.374482	0.574948
H191	H	1.050009	-0.124482	0.824948
H192	H	1.300009	0.125518	1.074948
H193	H	1.183230	-0.381960	0.958867
H194	H	1.433230	-0.131960	1.208867
H195	H	1.683230	0.118040	1.458867
H196	H	1.933230	0.368040	1.708867
F197	F	1.023797	-0.641094	0.991628
F198	F	1.273797	-0.391094	1.241628
F199	F	1.523797	-0.141094	1.491628
F200	F	1.773797	0.108906	1.741628
H201	H	1.034051	-0.624445	0.841093
H202	H	1.284051	-0.374445	1.091093
H203	H	1.534051	-0.124445	1.341093
H204	H	1.784051	0.125555	1.591093
H205	H	0.667878	-0.382317	0.474325
H206	H	0.917878	-0.132317	0.724325
H207	H	1.167878	0.117683	0.974325
H208	H	1.417878	0.367683	1.224325
F209	F	0.517357	-0.365651	0.484624
F210	F	0.767357	-0.115651	0.734624
F211	F	1.017357	0.134349	0.984624
F212	F	1.267357	0.384349	1.234624
H213	H	0.689449	-0.624468	0.324931
H214	H	0.939449	-0.374468	0.574931
H215	H	1.189449	-0.124468	0.824931
H216	H	1.439449	0.125532	1.074931
F217	F	1.018679	-1.056646	0.309556
F218	F	1.268679	-0.806646	0.559556
F219	F	1.518679	-0.556646	0.809556
F220	F	1.768679	-0.306646	1.059556
F221	F	1.047949	-0.884747	0.338914
F222	F	1.297949	-0.634747	0.588914
F223	F	1.547949	-0.384747	0.838914
F224	F	1.797949	-0.134747	1.088914
H225	H	1.156233	-1.107325	0.447302
H226	H	1.406233	-0.857325	0.697302
H227	H	1.656233	-0.607325	0.947302
H228	H	1.906233	-0.357325	1.197302
H229	H	1.185492	-0.935434	0.476647
H230	H	1.435492	-0.685434	0.726647
H231	H	1.685492	-0.435434	0.976647
H232	H	1.935492	-0.185434	1.226647
H233	H	1.183221	-0.382014	0.819445
H234	H	1.433221	-0.132014	1.069445
H235	H	1.683221	0.117986	1.319445
H236	H	1.933221	0.367986	1.569445
