data_functionalizedCrystal
_audit_creation_method	'MofGen! by Chris Wilmer'
_symmetry_space_group_name_H-M	'P1'
_symmetry_Int_Tables_number	1
_symmetry_cell_setting	triclinic
loop_
_symmetry_equiv_pos_as_xyz
  x,y,z
_cell_length_a	14.446369
_cell_length_b	14.446369
_cell_length_c	17.052863
_cell_angle_alpha	50.257788
_cell_angle_beta	90.000219
_cell_angle_gamma	60.002158
loop_
_atom_site_label
_atom_site_type_symbol
_atom_site_fract_x
_atom_site_fract_y
_atom_site_fract_z
Zr1	Zr	0.869536	1.057676	-0.124659
O2	O	0.694752	1.304751	-0.276220
O3	O	0.923117	0.848014	-0.078191
O4	O	0.887860	1.111643	-0.276221
O5	O	0.757819	0.985506	0.078013
O6	O	1.040187	1.111654	-0.276230
O7	O	0.730008	1.041122	-0.078190
O8	O	1.103255	0.640071	0.078010
O9	O	0.694752	1.457089	-0.276227
O10	O	1.059648	0.920403	-0.058387
O11	O	0.966723	0.878888	0.058191
O12	O	0.925213	1.189277	-0.174964
O13	O	0.832288	1.147763	-0.058385
Zr14	Zr	1.156836	0.968992	0.124453
Zr15	Zr	1.112480	1.057694	-0.124672
Zr16	Zr	0.913891	0.968974	0.124466
Zr17	Zr	0.869536	1.300638	-0.124670
Zr18	Zr	1.156836	0.726030	0.124464
O19	O	1.103255	1.178654	0.077985
O20	O	1.040187	1.304776	-0.276239
O21	O	0.757820	1.178628	0.078004
O22	O	1.331620	0.721917	0.276013
O23	O	1.268552	0.848040	-0.078210
O24	O	0.986184	0.721892	0.276032
O25	O	1.268552	1.041162	-0.078219
O26	O	1.138512	0.915025	0.276015
O27	O	0.986185	0.915014	0.276023
O28	O	1.296364	0.985546	0.077983
O29	O	0.887860	1.457103	-0.276237
O30	O	1.138512	0.569565	0.276031
O31	O	1.331620	0.569579	0.276020
O32	O	1.296363	0.640085	0.077999
O33	O	0.730009	1.386583	-0.078206
O34	O	0.923117	1.386597	-0.078217
O35	O	1.101159	0.837391	0.174757
O36	O	1.194084	0.878905	0.058179
O37	O	1.059649	1.147780	-0.058398
O38	O	0.966723	1.106265	0.058181
C39	C	1.013186	0.709426	-0.000089
C40	C	1.013186	0.606282	-0.000084
C41	C	0.954981	0.432969	0.073779
C42	C	0.954540	0.540695	0.073480
C43	C	0.938328	0.700378	-0.126758
C44	C	0.937861	0.593008	-0.126374
C45	C	1.146104	0.354415	0.051637
C46	C	1.146382	0.459646	0.054221
C47	C	0.709299	1.013311	-0.000087
C48	C	0.606163	1.013304	-0.000081
C49	C	0.544202	0.843876	0.073062
C50	C	0.651606	0.843630	0.073482
C51	C	0.541152	1.065438	0.053544
C52	C	0.434387	1.064340	0.054073
C53	C	0.400580	1.131753	-0.126968
C54	C	0.509289	1.128976	-0.126760
C55	C	1.317072	1.013357	-0.000120
C56	C	1.420209	1.013364	-0.000126
C57	C	0.957704	1.124287	-0.311720
C58	C	0.938874	1.161943	-0.417480
C59	C	1.013186	1.317242	-0.000118
C60	C	1.013186	1.420386	-0.000122
C61	C	0.859850	1.319990	-0.528019
C62	C	0.842165	1.355375	-0.627388
C63	C	0.903496	1.232716	-0.616228
C64	C	0.982516	1.074665	-0.505688
C65	C	1.000209	1.039277	-0.406309
C66	C	1.043856	0.952003	-0.494518
C67	C	1.122875	0.793952	-0.383978
C68	C	1.140565	0.758570	-0.284611
C69	C	1.079234	0.881229	-0.295771
C70	C	1.026163	0.987391	-0.593897
C71	C	1.166522	0.706678	-0.472188
C72	C	1.184206	0.671293	-0.372819
C73	C	1.068668	0.902382	0.311514
C74	C	1.087498	0.864725	0.417274
C75	C	1.317072	0.709448	-0.000106
C76	C	1.420208	0.606312	-0.000106
C77	C	1.068668	0.598473	0.311528
C78	C	1.087498	0.457673	0.417293
C79	C	1.372554	0.598496	0.311512
C80	C	1.494520	0.457703	0.417271
C81	C	0.653818	1.428172	-0.311718
C82	C	0.531851	1.568965	-0.417477
C83	C	0.709300	1.317220	-0.000101
C84	C	0.606163	1.420356	-0.000100
C85	C	0.957704	1.428195	-0.311735
C86	C	0.938874	1.568995	-0.417500
C87	C	1.166516	0.369887	0.527818
C88	C	1.184206	0.237601	0.627205
C89	C	1.122884	0.193096	0.616064
C90	C	1.043856	0.280896	0.505528
C91	C	1.026160	0.413187	0.406143
C92	C	1.600313	0.413256	0.406084
C93	C	1.714921	0.280984	0.505446
C94	C	1.723733	0.193154	0.615995
C95	C	1.617929	0.237612	0.627179
C96	C	1.503324	0.369889	0.527818
C97	C	0.426059	1.613424	-0.406290
C98	C	0.311451	1.745727	-0.505653
C99	C	0.302638	1.833561	-0.616201
C100	C	0.408443	1.789097	-0.627386
C101	C	0.523048	1.656803	-0.528024
C102	C	1.000215	1.613455	-0.406322
C103	C	0.982546	1.745735	-0.505689
C104	C	0.903529	1.833560	-0.616234
C105	C	0.842187	1.789089	-0.627410
C106	C	0.859863	1.656805	-0.528043
C107	C	1.651585	0.433972	0.073026
C108	C	1.544435	0.540738	0.073448
C109	C	1.433084	0.460358	0.053525
C110	C	1.540940	0.352800	0.054051
C111	C	1.507334	0.592241	-0.126997
C112	C	1.401409	0.700633	-0.126787
H113	H	0.856906	0.642267	0.037598
H114	H	0.722129	0.753909	0.167063
Br115	Br	1.146913	0.013553	0.750957
H116	H	0.777850	1.860616	-0.717428
Br117	Br	1.481732	0.332447	-0.029045
H118	H	0.993931	0.244640	0.496474
Br119	Br	1.107460	1.494291	-0.256309
H120	H	1.593160	0.484751	0.316078
H121	H	0.977582	0.749618	-0.184200
Br122	Br	1.390372	0.875245	-0.193575
Br123	Br	1.858493	0.220675	0.490239
H124	H	1.625123	0.166082	0.717201
H125	H	0.889147	1.941272	-0.697135
Br126	Br	1.536378	0.711093	0.013398
H127	H	0.609184	1.620610	-0.537147
Br128	Br	1.359755	0.430186	0.543022
Br129	Br	1.251940	0.789250	-0.225312
H130	H	0.961820	0.484650	0.316153
Br131	Br	1.246175	0.143702	0.204741
H132	H	0.961824	1.116078	-0.683892
H133	H	1.607902	0.228813	0.147390
H134	H	0.433211	1.541916	-0.316285
Br135	Br	1.879280	0.013637	0.750833
Br136	Br	1.770811	0.229338	0.228046
H137	H	0.809904	1.620622	-0.537160
H138	H	0.225314	1.781905	-0.496523
H139	H	0.388484	1.101808	-0.171768
H140	H	1.563552	0.469954	0.167022
H141	H	1.032500	1.781925	-0.496567
Br142	Br	1.103228	0.833212	-0.160910
Br143	Br	1.219243	0.342925	-0.037652
Br144	Br	1.001688	0.590819	-0.223113
H145	H	1.699166	0.483961	0.037231
H146	H	0.699462	0.800578	0.037496
H147	H	0.840743	0.807534	-0.168476
Br148	Br	1.287589	0.527522	-0.031023
Br149	Br	1.239209	0.338254	0.209766
H150	H	1.447413	0.388878	0.145983
Br151	Br	1.249761	0.430246	0.542970
Br152	Br	0.147091	2.013101	-0.751039
Br153	Br	1.291463	0.118468	0.777203
H154	H	0.401253	1.860629	-0.717406
H155	H	1.549372	0.647769	-0.171802
H156	H	1.470133	0.586955	-0.181779
H157	H	1.006529	0.310808	0.167289
H158	H	0.540165	0.800320	0.037279
H159	H	1.006232	0.470775	0.166758
H160	H	0.889094	1.261536	-0.697142
Br161	Br	1.249774	0.540202	-0.457030
Br162	Br	0.773847	0.685416	-0.195435
Br163	Br	0.793271	0.513556	0.014539
H164	H	1.195445	0.498323	0.005994
H165	H	0.561793	0.754746	0.166068
H166	H	0.609216	0.983046	0.146001
H167	H	0.451274	0.980487	0.147412
H168	H	0.346930	1.187326	0.004210
H169	H	0.553578	1.091307	-0.166821
Br170	Br	0.449194	1.338541	-0.225291
Br171	Br	0.253967	1.340374	-0.218280
Br172	Br	0.734930	1.569863	-0.777397
H173	H	0.504889	1.189000	0.002808
H174	H	1.204919	0.629874	-0.194607
Br175	Br	1.291441	0.456802	-0.222794
Br176	Br	0.776640	1.486436	-0.543153
