data_functionalizedCrystal
_audit_creation_method	'MofGen! by Chris Wilmer'
_symmetry_space_group_name_H-M	'P1'
_symmetry_Int_Tables_number	1
_symmetry_cell_setting	triclinic
loop_
_symmetry_equiv_pos_as_xyz
  x,y,z
_cell_length_a	16.974885
_cell_length_b	8.559649
_cell_length_c	15.455313
_cell_angle_alpha	92.289439
_cell_angle_beta	90.969048
_cell_angle_gamma	76.599917
loop_
_atom_site_label
_atom_site_type_symbol
_atom_site_fract_x
_atom_site_fract_y
_atom_site_fract_z
O1	O	1.036738	0.203678	0.000582
O2	O	0.805832	0.228063	-0.015613
O3	O	0.941628	-0.016639	-0.006088
O4	O	0.900942	0.448380	-0.008944
O5	O	0.933866	-0.002703	0.137629
O6	O	0.798070	0.241998	0.128104
O7	O	1.028976	0.217614	0.144299
Cu8	Cu	0.912815	0.231078	0.149324
Cu9	Cu	0.921994	0.214598	-0.020638
O10	O	0.893180	0.462315	0.134774
C11	C	0.772664	0.233846	0.054191
C12	C	0.685398	0.230298	0.048070
C13	C	0.940831	-0.069187	0.065985
C14	C	0.950009	-0.246526	0.066624
C15	C	0.194646	0.209449	0.005149
C16	C	0.276642	0.212785	0.010911
C17	C	0.313399	0.222061	0.092134
C18	C	0.268158	0.227985	0.167599
C19	C	0.186166	0.224638	0.161835
C20	C	0.558165	0.232875	0.117772
C21	C	0.640162	0.236227	0.123530
C22	C	0.648641	0.221023	-0.033159
C23	C	0.566645	0.217686	-0.038915
C24	C	0.521413	0.223603	0.036550
N25	N	0.397210	0.225475	0.098026
N26	N	0.437605	0.220177	0.030657
C27	C	1.062145	0.211830	0.074493
C28	C	1.149411	0.215378	0.080608
C29	C	0.893978	0.514864	0.062699
C30	C	0.884800	0.692202	0.062054
N31	N	0.906364	0.242669	0.268867
N32	N	0.928451	0.202995	-0.140181
C33	C	0.964071	0.138749	0.318309
C34	C	0.959199	0.147529	0.408775
C35	C	0.896623	0.260238	0.449798
C36	C	0.838911	0.364162	0.400350
C37	C	0.843780	0.355373	0.309885
C38	C	0.875608	0.298131	0.719906
C39	C	0.870745	0.306915	0.810377
C40	C	0.991033	0.090279	0.818797
C41	C	0.995899	0.081507	0.728330
C42	C	0.938184	0.185425	0.678889
N43	N	0.891643	0.269218	0.542269
N44	N	0.943162	0.176436	0.586420
H45	H	0.164724	0.201907	-0.060992
O46	O	0.781528	0.467457	0.256566
H47	H	0.749529	0.395974	0.212979
H48	H	1.046853	-0.010269	0.694931
O49	O	0.801543	-0.197594	0.056216
H50	H	0.797332	-0.126481	-0.002883
H51	H	1.015029	0.046977	0.284915
H52	H	0.685478	0.216205	-0.094598
O53	O	0.509463	0.239074	0.199205
H54	H	0.485583	0.129051	0.201254
O55	O	0.325433	0.206399	-0.070476
H56	H	0.286096	0.199409	-0.127923
H57	H	1.006187	0.062909	0.449031
O58	O	1.033266	-0.356752	0.072470
H59	H	1.063434	-0.328152	0.133387
O60	O	1.053275	-0.021815	0.872119
H61	H	1.039375	0.003216	0.941917
H62	H	0.298093	0.235527	0.233732
H63	H	0.819786	0.398702	0.843773
H64	H	0.536724	0.210131	-0.105055
O65	O	0.813369	0.410222	0.666585
H66	H	0.769046	0.490083	0.710312
H67	H	0.787957	0.455926	0.433755
O68	O	0.679816	0.246208	0.211138
H69	H	0.634591	0.249739	0.262646
H70	H	0.149334	0.229483	0.223282
