data_functionalizedCrystal
_audit_creation_method	'MofGen! by Chris Wilmer'
_symmetry_space_group_name_H-M	'P1'
_symmetry_Int_Tables_number	1
_symmetry_cell_setting	triclinic
loop_
_symmetry_equiv_pos_as_xyz
  x,y,z
_cell_length_a	14.971482
_cell_length_b	14.853568
_cell_length_c	13.448316
_cell_angle_alpha	90.002017
_cell_angle_beta	89.993798
_cell_angle_gamma	96.376102
loop_
_atom_site_label
_atom_site_type_symbol
_atom_site_fract_x
_atom_site_fract_y
_atom_site_fract_z
O1	O	1.186971	-0.117472	-0.082669
O2	O	1.520304	0.215862	0.250665
O3	O	1.853638	0.549195	0.583998
O4	O	0.926573	-0.131545	-0.082672
O5	O	1.259906	0.201789	0.250661
O6	O	1.593240	0.535122	0.583994
O7	O	1.063727	0.006723	-0.082675
O8	O	1.397061	0.340056	0.250658
O9	O	1.730394	0.673390	0.583991
O10	O	1.049817	-0.255739	-0.082665
O11	O	1.383150	0.077594	0.250668
O12	O	1.716483	0.410927	0.584001
O13	O	1.063710	0.006731	0.082708
O14	O	1.397043	0.340065	0.416042
O15	O	1.730377	0.673398	0.749375
O16	O	0.926556	-0.131536	0.082712
O17	O	1.259889	0.201797	0.416045
O18	O	1.593222	0.535131	0.749378
O19	O	1.186954	-0.117463	0.082715
O20	O	1.520287	0.215870	0.416049
O21	O	1.853620	0.549203	0.749382
Cu22	Cu	1.056753	-0.124499	0.097814
Cu23	Cu	1.390086	0.208834	0.431148
Cu24	Cu	1.723420	0.542168	0.764481
Cu25	Cu	1.056774	-0.124509	-0.097771
Cu26	Cu	1.390107	0.208824	0.235562
Cu27	Cu	1.723440	0.542158	0.568895
O28	O	1.049799	-0.255731	0.082718
O29	O	1.383133	0.077603	0.416052
O30	O	1.716466	0.410936	0.749385
C31	C	0.893239	-0.130912	0.000019
C32	C	1.226573	0.202422	0.333352
C33	C	1.559906	0.535755	0.666686
C34	C	0.793942	-0.129027	0.000017
C35	C	1.127275	0.204306	0.333351
C36	C	1.460609	0.537639	0.666684
C37	C	0.747288	-0.128135	0.090169
C38	C	1.080621	0.205198	0.423502
C39	C	1.413954	0.538531	0.756836
C40	C	0.653989	-0.126350	0.090170
C41	C	0.987322	0.206983	0.423503
C42	C	1.320656	0.540316	0.756837
C43	C	0.607345	-0.125464	0.000018
C44	C	0.940678	0.207869	0.333352
C45	C	1.274012	0.541202	0.666685
C46	C	0.654006	-0.126354	-0.090141
C47	C	0.987340	0.206980	0.243193
C48	C	1.320673	0.540313	0.576526
C49	C	0.747304	-0.128132	-0.090140
C50	C	1.080637	0.205201	0.243193
C51	C	1.413971	0.538535	0.576526
C52	C	0.459544	-0.122649	-0.090134
C53	C	0.792877	0.210684	0.243199
C54	C	1.126210	0.544017	0.576532
C55	C	0.366239	-0.120873	-0.090135
C56	C	0.699572	0.212461	0.243199
C57	C	1.032906	0.545794	0.576532
C58	C	0.366228	-0.120868	0.090176
C59	C	0.699562	0.212466	0.423510
C60	C	1.032895	0.545799	0.756843
C61	C	0.459526	-0.122646	0.090176
C62	C	0.792860	0.210687	0.423510
C63	C	1.126193	0.544021	0.756843
C64	C	0.506181	-0.123537	0.000017
C65	C	0.839514	0.209796	0.333350
C66	C	1.172847	0.543130	0.666684
C67	C	1.063088	0.040316	0.000013
C68	C	1.396422	0.373649	0.333347
C69	C	1.729755	0.706982	0.666680
C70	C	1.061199	0.140399	0.000003
C71	C	1.394533	0.473732	0.333336
C72	C	1.727866	0.807066	0.666670
C73	C	0.971741	0.552915	0.000014
C74	C	1.305074	0.886248	0.333348
C75	C	1.638407	1.219582	0.666681
C76	C	1.134684	0.574228	0.000016
C77	C	1.468017	0.907562	0.333350
C78	C	1.801350	1.240895	0.666683
C79	C	1.136460	0.480195	0.000012
C80	C	1.469793	0.813528	0.333345
C81	C	1.803126	1.146862	0.666679
C82	C	1.055875	0.422517	0.000010
C83	C	1.389209	0.755850	0.333344
C84	C	1.722542	1.089184	0.666677
C85	C	0.973515	0.458873	0.000013
C86	C	1.306848	0.792206	0.333346
C87	C	1.640181	1.125539	0.666680
C88	C	1.218819	0.443832	0.000019
C89	C	1.552152	0.777165	0.333353
C90	C	1.885486	1.110499	0.666686
C91	C	1.220599	0.349793	0.000016
C92	C	1.553932	0.683127	0.333349
C93	C	1.887265	1.016460	0.666683
C94	C	1.140013	0.292114	0.000007
C95	C	1.473347	0.625447	0.333341
C96	C	1.806680	0.958780	0.666674
C97	C	1.057649	0.328475	0.000009
C98	C	1.390982	0.661808	0.333342
C99	C	1.724316	0.995141	0.666675
C100	C	0.977065	0.270797	0.000007
C101	C	1.310398	0.604130	0.333340
C102	C	1.643731	0.937464	0.666674
C103	C	0.894700	0.307156	0.000002
C104	C	1.228033	0.640489	0.333335
C105	C	1.561366	0.973823	0.666668
C106	C	0.892929	0.401193	0.000004
C107	C	1.226262	0.734526	0.333337
C108	C	1.559596	1.067860	0.666671
C109	C	1.141784	0.198077	0.000005
C110	C	1.475117	0.531410	0.333338
C111	C	1.808450	0.864743	0.666671
C112	C	0.978838	0.176755	0.000006
C113	C	1.312172	0.510088	0.333339
C114	C	1.645505	0.843421	0.666672
C115	C	1.220287	-0.118096	0.000022
C116	C	1.553621	0.215237	0.333355
C117	C	1.886954	0.548570	0.666688
C118	C	1.319585	-0.119980	0.000017
C119	C	1.652918	0.213353	0.333350
C120	C	1.986252	0.546686	0.666684
N121	N	1.056745	-0.124491	0.235379
N122	N	1.390079	0.208842	0.568712
N123	N	1.723412	0.542175	0.902045
C124	C	1.050438	0.710676	0.000024
C125	C	1.383771	1.044010	0.333357
C126	C	1.717105	1.377343	0.666690
C127	C	1.052325	0.610593	0.000016
C128	C	1.385659	0.943926	0.333349
C129	C	1.718992	1.277260	0.666683
N130	N	1.056788	-0.124509	-0.235336
N131	N	1.390122	0.208824	0.097998
N132	N	1.723455	0.542157	0.431331
C133	C	1.117496	-0.063292	0.287418
C134	C	1.450829	0.270042	0.620751
C135	C	1.784163	0.603375	0.954084
C136	C	1.117502	-0.063291	0.391521
C137	C	1.450835	0.270043	0.724854
C138	C	1.784168	0.603376	1.058187
C139	C	1.056760	-0.124495	0.443583
C140	C	1.390093	0.208839	0.776916
C141	C	1.723427	0.542172	1.110250
C142	C	0.996003	-0.185697	0.391537
C143	C	1.329336	0.147636	0.724870
C144	C	1.662669	0.480969	1.058204
C145	C	0.995994	-0.185693	0.287436
C146	C	1.329327	0.147640	0.620769
C147	C	1.662660	0.480974	0.954102
C148	C	0.996028	-0.185703	0.608517
C149	C	1.329361	0.147630	0.941850
C150	C	1.662694	0.480963	1.275184
C151	C	0.996038	-0.185709	0.712625
C152	C	1.329371	0.147624	1.045959
C153	C	1.662704	0.480958	1.379292
C154	C	1.117536	-0.063301	0.712602
C155	C	1.450869	0.270032	1.045936
C156	C	1.784202	0.603365	1.379269
C157	C	1.117527	-0.063297	0.608501
C158	C	1.450860	0.270036	0.941834
C159	C	1.784193	0.603370	1.275168
C160	C	1.056770	-0.124501	0.556462
C161	C	1.390103	0.208832	0.889795
C162	C	1.723437	0.542166	1.223128
H163	H	0.328264	-0.120152	-0.163544
H164	H	0.661597	0.213182	0.169789
H165	H	0.994931	0.546515	0.503122
F166	F	1.304576	0.505220	0.000039
F167	F	1.637910	0.838553	0.333373
F168	F	1.971243	1.171887	0.666706
F169	F	0.884086	0.591611	-0.000000
F170	F	1.217420	0.924944	0.333333
F171	F	1.550753	1.258277	0.666667
H172	H	0.616009	-0.125609	0.163581
H173	H	0.949342	0.207724	0.496914
H174	H	1.282676	0.541058	0.830247
H175	H	0.497500	-0.123373	0.163586
H176	H	0.830834	0.209960	0.496919
H177	H	1.164167	0.543293	0.830252
F178	F	0.509195	-0.123594	-0.186092
F179	F	0.842528	0.209739	0.147241
F180	F	1.175862	0.543072	0.480574
F181	F	1.220442	0.635614	0.000032
F182	F	1.553775	0.968948	0.333366
F183	F	1.887109	1.302281	0.666699
H184	H	1.287665	0.320198	0.000019
H185	H	1.620998	0.653532	0.333353
H186	H	1.954332	0.986865	0.666686
H187	H	0.946541	-0.235528	0.433932
H188	H	1.279875	0.097806	0.767265
H189	H	1.613208	0.431139	1.100599
H190	H	1.208844	0.168477	0.000016
H191	H	1.542177	0.501811	0.333349
H192	H	1.875511	0.835144	0.666682
H193	H	1.166963	-0.013456	0.245035
H194	H	1.500296	0.319877	0.578369
H195	H	1.833629	0.653211	0.911702
H196	H	0.616022	-0.125626	-0.163544
H197	H	0.949356	0.207708	0.169790
H198	H	1.282689	0.541041	0.503123
F199	F	1.182158	0.001845	0.446905
F200	F	1.515492	0.335179	0.780238
F201	F	1.848825	0.668512	1.113571
H202	H	1.167005	-0.013467	0.754978
H203	H	1.500339	0.319866	1.088312
H204	H	1.833672	0.653200	1.421645
F205	F	0.931386	-0.250850	0.768027
F206	F	1.264720	0.082483	1.101360
F207	F	1.598053	0.415817	1.434693
F208	F	1.182179	0.001837	0.553092
F209	F	1.515512	0.335170	0.886425
F210	F	1.848845	0.668504	1.219758
F211	F	0.931360	-0.250842	0.553137
F212	F	1.264693	0.082491	0.886471
F213	F	1.598026	0.415825	1.219804
H214	H	0.785289	-0.128860	-0.163551
H215	H	1.118622	0.204473	0.169782
H216	H	1.451955	0.537807	0.503115
H217	H	0.913216	0.129799	0.000000
H218	H	1.246549	0.463132	0.333333
H219	H	1.579882	0.796465	0.666667
F220	F	0.805278	0.439896	-0.000005
F221	F	1.138612	0.773229	0.333329
F222	F	1.471945	1.106562	0.666662
H223	H	0.829088	0.260183	0.000007
H224	H	1.162421	0.593516	0.333341
H225	H	1.495755	0.926849	0.666674
H226	H	0.785257	-0.128864	0.163581
H227	H	1.118591	0.204469	0.496915
H228	H	1.451924	0.537802	0.830248
F229	F	0.316575	-0.119920	0.186131
F230	F	0.649908	0.213414	0.519464
F231	F	0.983241	0.546747	0.852798
F232	F	0.931331	-0.250828	0.232053
F233	F	1.264665	0.082505	0.565387
F234	F	1.597998	0.415839	0.898720
