data_functionalizedCrystal
_audit_creation_method	'MofGen! by Chris Wilmer'
_symmetry_space_group_name_H-M	'P1'
_symmetry_Int_Tables_number	1
_symmetry_cell_setting	triclinic
loop_
_symmetry_equiv_pos_as_xyz
  x,y,z
_cell_length_a	22.610064
_cell_length_b	19.188930
_cell_length_c	19.188922
_cell_angle_alpha	83.142936
_cell_angle_beta	90.001561
_cell_angle_gamma	89.977918
loop_
_atom_site_label
_atom_site_type_symbol
_atom_site_fract_x
_atom_site_fract_y
_atom_site_fract_z
O1	O	0.049378	-0.926147	-0.087158
O2	O	0.049338	-0.722835	-0.098893
O3	O	0.049351	-0.830361	0.008630
O4	O	0.049364	-0.818621	-0.194682
O5	O	-0.049018	-0.830342	0.008615
O6	O	-0.049031	-0.722816	-0.098908
O7	O	-0.048991	-0.926128	-0.087174
Zn8	Zn	-0.064630	-0.824469	-0.093044
Zn9	Zn	0.064976	-0.824494	-0.093023
O10	O	-0.049005	-0.818602	-0.194697
C11	C	0.000148	-0.696815	-0.098521
C12	C	0.000132	-0.619310	-0.097380
N13	N	-0.153082	-0.824457	-0.093057
C14	C	0.000166	-0.829973	0.034634
C15	C	0.000164	-0.828835	0.112139
C16	C	-0.561717	-0.872109	-0.045419
C17	C	-0.623637	-0.872112	-0.045414
O18	O	-0.655651	-0.912598	-0.004921
N19	N	-0.654619	-0.824494	-0.093009
C20	C	-0.623678	-0.776863	-0.140607
O21	O	-0.655716	-0.736360	-0.181089
C22	C	-0.561759	-0.776857	-0.140608
C23	C	-0.530780	-0.824484	-0.093015
C24	C	-0.530739	-0.919731	0.002171
C25	C	-0.468823	-0.919728	0.002164
C26	C	-0.437886	-0.872103	-0.045431
C27	C	-0.468865	-0.824481	-0.093021
C28	C	-0.530819	-0.729224	-0.188202
C29	C	-0.468896	-0.729221	-0.188199
C30	C	-0.437917	-0.776848	-0.140606
C31	C	-0.376012	-0.776853	-0.140623
N32	N	-0.345030	-0.824472	-0.093028
C33	C	-0.375967	-0.872097	-0.045433
C34	C	-0.753712	-0.776879	-0.140600
C35	C	-0.815629	-0.776889	-0.140602
C36	C	-0.815584	-0.872137	-0.045409
C37	C	-0.753666	-0.872131	-0.045410
C38	C	-0.722730	-0.824498	-0.093005
C39	C	-0.245940	-0.872087	-0.045449
C40	C	-0.184019	-0.872082	-0.045462
C41	C	-0.184069	-0.776832	-0.140653
C42	C	-0.245985	-0.776839	-0.140643
C43	C	-0.276919	-0.824470	-0.093036
O44	O	-0.343959	-0.736386	-0.181094
O45	O	-0.343922	-0.912587	-0.004951
N46	N	0.153428	-0.824512	-0.093004
C47	C	0.000200	-0.952148	-0.087546
C48	C	0.000219	-1.029653	-0.088687
C49	C	0.000146	-0.574384	-0.160471
C50	C	0.000152	-0.501560	-0.159399
C51	C	0.000157	-0.473666	-0.095233
C52	C	0.000140	-0.518602	-0.032134
C53	C	0.000128	-0.591424	-0.033207
N54	N	0.033657	-0.365694	-0.046180
N55	N	0.033670	-0.296515	-0.045165
C56	C	0.000193	-0.254257	-0.091995
N57	N	-0.033290	-0.283790	-0.139889
N58	N	-0.033300	-0.352975	-0.140907
C59	C	0.000170	-0.394704	-0.094062
C60	C	0.000213	-0.130367	-0.153928
C61	C	0.000215	-0.057542	-0.152854
C62	C	0.000210	-0.074585	-0.025586
C63	C	0.000201	-0.147408	-0.026663
C64	C	0.000205	-0.175295	-0.090835
C65	C	0.053785	-0.828314	0.148546
C66	C	0.053788	-0.827234	0.221369
C67	C	0.000168	-0.826690	0.257783
C68	C	-0.053460	-0.827207	0.221366
C69	C	-0.053462	-0.828279	0.148544
N70	N	-0.039733	-0.864731	0.377440
N71	N	-0.039727	-0.863714	0.446619
C72	C	0.000172	-0.823458	0.477193
N73	N	0.040074	-0.784266	0.435976
N74	N	0.040070	-0.785286	0.366792
C75	C	0.000165	-0.825527	0.336747
C76	C	0.053801	-0.821765	0.592563
C77	C	0.053802	-0.820682	0.665386
C78	C	-0.053447	-0.820661	0.665383
C79	C	-0.053447	-0.821738	0.592560
C80	C	0.000178	-0.822293	0.556155
C81	C	0.000180	-0.818992	0.779300
C82	C	0.000182	-0.820136	0.701795
H83	H	-0.158798	-0.910868	-0.006706
H84	H	0.097466	-0.822214	0.562919
C85	C	-0.112442	-0.826607	0.261416
H86	H	-0.144378	-0.827065	0.229299
H87	H	-0.114665	-0.866894	0.295274
H88	H	-0.114675	-0.785477	0.284372
H89	H	-0.097128	-0.828700	0.118901
H90	H	-0.840784	-0.910915	-0.006653
H91	H	0.000207	-0.153073	-0.206182
C92	C	-0.719594	-0.924514	0.006947
H93	H	-0.746893	-0.952874	0.035293
H94	H	-0.695427	-0.953497	-0.018093
H95	H	-0.695453	-0.899484	0.035955
C96	C	0.000169	-0.452130	-0.228800
H97	H	0.000173	-0.404766	-0.218968
H98	H	0.034474	-0.460588	-0.255113
H99	H	-0.034138	-0.460536	-0.255130
H100	H	-0.271119	-0.910872	-0.006682
C101	C	-0.849699	-0.724500	-0.192955
H102	H	-0.822401	-0.696134	-0.221295
H103	H	-0.873850	-0.749516	-0.221960
H104	H	-0.873858	-0.695514	-0.167901
H105	H	-0.728527	-0.738093	-0.179363
H106	H	0.097451	-0.828764	0.118909
H107	H	0.097469	-0.820254	0.695028
C108	C	-0.112429	-0.820057	0.705430
H109	H	-0.104748	-0.819345	0.754015
H110	H	-0.134467	-0.779521	0.688042
H111	H	-0.134455	-0.860939	0.698948
H112	H	0.000250	-0.051874	0.026659
H113	H	0.000223	-0.020964	-0.204233
C114	C	-0.150033	-0.724446	-0.193005
H115	H	-0.177348	-0.696084	-0.221354
H116	H	-0.125888	-0.695466	-0.167956
H117	H	-0.125872	-0.749473	-0.222011
H118	H	0.000193	-0.183988	0.024713
H119	H	-0.271208	-0.738064	-0.179404
C120	C	0.112773	-0.826689	0.261429
H121	H	0.144710	-0.827185	0.229319
H122	H	0.115012	-0.785574	0.284400
H123	H	0.114992	-0.866992	0.295277
H124	H	0.000153	-0.495885	0.020111
C125	C	-0.112429	-0.822316	0.552507
H126	H	-0.104752	-0.823026	0.503922
H127	H	-0.134457	-0.862840	0.569890
H128	H	-0.134466	-0.781422	0.558992
C129	C	-0.434754	-0.972110	0.054525
H130	H	-0.462055	-1.000465	0.082873
H131	H	-0.410587	-1.001098	0.029489
H132	H	-0.410612	-0.947078	0.083531
H133	H	-0.555922	-0.958513	0.040932
H134	H	0.000118	-0.628004	0.018171
C135	C	0.000139	-0.605056	-0.231058
H136	H	0.000142	-0.567865	-0.268480
H137	H	0.034436	-0.633137	-0.234121
H138	H	-0.034176	-0.633081	-0.234125
H139	H	-0.556033	-0.690442	-0.226956
H140	H	-0.443711	-0.690431	-0.226956
