data_functionalizedCrystal
_audit_creation_method	'MofGen! by Chris Wilmer'
_symmetry_space_group_name_H-M	'P1'
_symmetry_Int_Tables_number	1
_symmetry_cell_setting	triclinic
loop_
_symmetry_equiv_pos_as_xyz
  x,y,z
_cell_length_a	19.288864
_cell_length_b	13.262508
_cell_length_c	18.366186
_cell_angle_alpha	105.912108
_cell_angle_beta	89.977106
_cell_angle_gamma	83.814836
loop_
_atom_site_label
_atom_site_type_symbol
_atom_site_fract_x
_atom_site_fract_y
_atom_site_fract_z
O1	O	0.921999	0.130929	-0.034853
O2	O	0.719825	0.148591	-0.031305
O3	O	0.826002	-0.013051	-0.063340
O4	O	0.815822	0.292571	-0.002818
O5	O	0.825984	-0.013059	0.057758
O6	O	0.719807	0.148583	0.089793
O7	O	0.921981	0.130921	0.086245
Zn8	Zn	0.820891	0.139751	0.107246
Zn9	Zn	0.820915	0.139761	-0.052306
O10	O	0.815804	0.292563	0.118280
C11	C	0.693937	0.148019	0.029138
C12	C	0.616825	0.146313	0.028819
C13	C	0.572597	0.241157	0.047590
C14	C	0.500142	0.239554	0.047264
C15	C	0.471918	0.143102	0.028153
C16	C	0.516156	0.048245	0.009384
C17	C	0.588610	0.049851	0.009717
C18	C	0.363289	0.067282	-0.029313
C19	C	0.290836	0.065681	-0.029650
C20	C	0.248448	0.138146	0.027127
C21	C	0.278520	0.212231	0.084235
C22	C	0.350974	0.213836	0.084569
C23	C	0.393356	0.141350	0.027790
C24	C	0.125656	0.231259	0.045547
C25	C	0.053200	0.229652	0.045225
C26	C	0.069216	0.038341	0.007337
C27	C	0.141670	0.039950	0.007667
C28	C	0.169885	0.136412	0.026769
C29	C	0.825424	-0.052155	-0.010535
C30	C	0.823720	-0.168661	-0.033610
C31	C	0.818874	-0.497103	0.165396
C32	C	0.820469	-0.387638	0.187077
C33	C	0.821283	-0.332889	0.131907
C34	C	0.820499	-0.387614	0.055053
C35	C	0.818898	-0.497088	0.033370
C36	C	0.821307	-0.332874	-0.000119
C37	C	0.820524	-0.387599	-0.076973
C38	C	0.818923	-0.497063	-0.098652
C39	C	0.818110	-0.551812	-0.043483
C40	C	0.822908	-0.223400	0.021564
C41	C	0.822932	-0.223386	-0.110462
C42	C	0.821337	-0.332850	-0.132143
C43	C	0.947869	0.131493	0.025801
C44	C	1.024981	0.133199	0.026115
C45	C	0.816382	0.331667	0.065474
C46	C	0.818086	0.448173	0.088544
N47	N	0.820880	0.139743	0.216136
N48	N	0.820932	0.139761	-0.161197
C49	C	0.867911	0.068203	0.240058
C50	C	0.867915	0.068198	0.316285
C51	C	0.820895	0.139752	0.368590
C52	C	0.773856	0.211297	0.344660
C53	C	0.773848	0.211293	0.268432
C54	C	0.812069	0.235382	0.508289
C55	C	0.812082	0.235387	0.584515
C56	C	0.820915	0.139765	0.603700
C57	C	0.829751	0.044132	0.546649
C58	C	0.829743	0.044128	0.470422
C59	C	0.820898	0.139764	0.451247
C60	C	0.867953	0.068214	0.710275
C61	C	0.867953	0.068208	0.786503
C62	C	0.773897	0.211316	0.814878
C63	C	0.773894	0.211313	0.738650
C64	C	0.820926	0.139763	0.686353
H65	H	0.464124	0.316790	0.062552
H66	H	0.906249	0.009945	0.805979
H67	H	0.822580	-0.243758	0.149565
H68	H	0.818279	-0.541616	-0.161232
H69	H	0.836943	-0.033733	0.562265
Br70	Br	0.931779	-0.028892	0.639299
Br71	Br	0.824017	-0.149088	-0.185340
H72	H	0.375455	0.274155	0.131070
H73	H	0.804892	0.313257	0.630962
Br74	Br	0.648638	-0.078877	-0.015758
Br75	Br	0.610886	0.372069	0.073515
Br76	Br	0.815947	-0.700378	-0.072904
H77	H	0.244009	0.271239	0.130469
H78	H	0.820698	-0.377423	-0.194719
Br79	Br	0.710066	0.308410	0.706180
H80	H	0.148630	0.309804	0.061112
Br81	Br	0.817753	-0.571405	0.240261
H82	H	0.906205	0.009940	0.197479
H83	H	0.397796	0.008270	-0.075552
H84	H	0.823539	-0.178852	0.084140
Br85	Br	0.821517	-0.313372	0.291375
Br86	Br	0.710076	0.308414	0.885856
H87	H	0.804864	0.313254	0.492679
H88	H	0.906214	0.009939	0.335766
Br89	Br	0.841727	-0.085651	0.392998
Br90	Br	0.710037	0.308399	0.415641
Br91	Br	0.030920	-0.092562	-0.018588
Br92	Br	-0.006827	0.358382	0.070708
Br93	Br	0.201698	-0.088775	-0.017811
Br94	Br	0.710015	0.308389	0.235963
H95	H	0.266357	0.005361	-0.076153
H96	H	0.493172	-0.030287	-0.006187
