data_functionalizedCrystal
_audit_creation_method	'MofGen! by Chris Wilmer'
_symmetry_space_group_name_H-M	'P1'
_symmetry_Int_Tables_number	1
_symmetry_cell_setting	triclinic
loop_
_symmetry_equiv_pos_as_xyz
  x,y,z
_cell_length_a	17.019383
_cell_length_b	16.098538
_cell_length_c	17.038272
_cell_angle_alpha	92.920305
_cell_angle_beta	92.753117
_cell_angle_gamma	96.605849
loop_
_atom_site_label
_atom_site_type_symbol
_atom_site_fract_x
_atom_site_fract_y
_atom_site_fract_z
O1	O	1.060268	0.145222	-0.092325
O2	O	1.393602	0.478555	0.241008
O3	O	1.726935	0.811889	0.574342
O4	O	0.830675	0.128774	-0.105844
O5	O	1.164008	0.462108	0.227490
O6	O	1.497341	0.795441	0.560823
O7	O	0.944107	0.136894	0.014725
O8	O	1.277440	0.470227	0.348058
O9	O	1.610773	0.803560	0.681391
O10	O	0.946836	0.137103	-0.212893
O11	O	1.280170	0.470436	0.120440
O12	O	1.613503	0.803769	0.453773
O13	O	0.937479	-0.002094	0.007709
O14	O	1.270812	0.331240	0.341042
O15	O	1.604145	0.664573	0.674376
O16	O	0.824047	-0.010213	-0.112859
O17	O	1.157380	0.323120	0.220474
O18	O	1.490713	0.656453	0.553807
O19	O	1.053640	0.006235	-0.099340
O20	O	1.386974	0.339568	0.233993
O21	O	1.720307	0.672901	0.567326
Zn22	Zn	0.937791	-0.024056	-0.107214
Zn23	Zn	1.271124	0.309277	0.226120
Zn24	Zn	1.604458	0.642610	0.559453
Zn25	Zn	0.946524	0.159065	-0.097970
Zn26	Zn	1.279857	0.492399	0.235363
Zn27	Zn	1.613190	0.825732	0.568696
O28	O	0.940208	-0.001885	-0.219909
O29	O	1.273542	0.331448	0.113424
O30	O	1.606875	0.664782	0.446758
C31	C	0.797839	0.057166	-0.108975
C32	C	1.131172	0.390499	0.224358
C33	C	1.464505	0.723832	0.557692
C34	C	0.709872	0.050864	-0.107844
C35	C	1.043206	0.384197	0.225489
C36	C	1.376539	0.717530	0.558822
N37	N	0.931837	-0.149032	-0.113521
N38	N	1.265170	0.184301	0.219812
N39	N	1.598504	0.517635	0.553145
C40	C	0.672151	0.123659	-0.103491
C41	C	1.005484	0.456992	0.229842
C42	C	1.338818	0.790325	0.563176
C43	C	0.589496	0.117725	-0.102441
C44	C	0.922829	0.451058	0.230892
C45	C	1.256162	0.784392	0.564225
C46	C	0.544564	0.038995	-0.105740
C47	C	0.877897	0.372329	0.227594
C48	C	1.211230	0.705662	0.560927
C49	C	0.582290	-0.033805	-0.110096
C50	C	0.915624	0.299528	0.223238
C51	C	1.248957	0.632861	0.556571
C52	C	0.664944	-0.027871	-0.111151
C53	C	0.998277	0.305463	0.222183
C54	C	1.331610	0.638796	0.555516
C55	C	0.294823	0.017287	-0.102751
C56	C	0.628156	0.350620	0.230583
C57	C	0.961490	0.683953	0.563916
C58	C	0.212164	0.011358	-0.101693
C59	C	0.545498	0.344691	0.231640
C60	C	0.878831	0.678024	0.564974
C61	C	0.219375	0.162889	-0.094040
C62	C	0.552709	0.496222	0.239293
C63	C	0.886042	0.829555	0.572627
C64	C	0.302030	0.168816	-0.095091
C65	C	0.635364	0.502149	0.238243
C66	C	0.968697	0.835483	0.571576
C67	C	0.339749	0.096016	-0.099451
C68	C	0.673083	0.429349	0.233882
C69	C	1.006416	0.762682	0.567216
C70	C	0.460077	0.032928	-0.104665
C71	C	0.793410	0.366262	0.228669
C72	C	1.126743	0.699595	0.562002
C73	C	0.424235	0.102083	-0.100532
C74	C	0.757568	0.435417	0.232802
C75	C	1.090901	0.768750	0.566135
C76	C	0.980002	-0.189169	-0.062365
C77	C	1.313336	0.144164	0.270968
C78	C	1.646669	0.477497	0.604301
C79	C	0.975845	-0.276656	-0.066785
C80	C	1.309178	0.056678	0.266548
C81	C	1.642512	0.390011	0.599881
C82	C	0.923526	-0.324003	-0.122366
C83	C	1.256859	0.009330	0.210968
C84	C	1.590193	0.342664	0.544301
C85	C	0.875355	-0.283860	-0.173524
C86	C	1.208689	0.049473	0.159809
C87	C	1.542022	0.382807	0.493143
C88	C	0.879509	-0.196375	-0.169100
C89	C	1.212843	0.136958	0.164233
C90	C	1.546176	0.470291	0.497567
C91	C	0.908467	-0.588331	-0.138391
C92	C	1.241800	-0.254998	0.194943
C93	C	1.575134	0.078336	0.528276
C94	C	0.904319	-0.675821	-0.142813
C95	C	1.237652	-0.342488	0.190521
C96	C	1.570985	-0.009155	0.523854
C97	C	1.004807	-0.668611	-0.036072
C98	C	1.338141	-0.335278	0.297261
C99	C	1.671474	-0.001945	0.630594
C100	C	1.008960	-0.581125	-0.031656
C101	C	1.342293	-0.247792	0.301677
C102	C	1.675627	0.085542	0.635011
C103	C	0.960787	-0.540990	-0.082812
C104	C	1.294120	-0.207656	0.250522
C105	C	1.627453	0.125677	0.583855
C106	C	0.919277	-0.413428	-0.126887
C107	C	1.252610	-0.080095	0.206447
C108	C	1.585944	0.253238	0.539780
C109	C	0.965032	-0.451566	-0.078287
C110	C	1.298365	-0.118233	0.255047
C111	C	1.631699	0.215100	0.588380
C112	C	1.086476	0.077845	-0.096209
C113	C	1.419810	0.411179	0.237124
C114	C	1.753143	0.744512	0.570458
C115	C	1.174443	0.084153	-0.097340
C116	C	1.507776	0.417486	0.235994
C117	C	1.841110	0.750819	0.569327
N118	N	0.952484	0.284041	-0.091656
N119	N	1.285817	0.617375	0.241677
N120	N	1.619150	0.950708	0.575010
C121	C	0.938310	0.067222	0.040334
C122	C	1.271644	0.400556	0.373668
C123	C	1.604977	0.733889	0.707001
C124	C	0.930905	0.066692	0.127094
C125	C	1.264238	0.400025	0.460428
C126	C	1.597572	0.733359	0.793761
C127	C	0.946005	0.067788	-0.245518
C128	C	1.279338	0.401122	0.087815
C129	C	1.612671	0.734455	0.421148
C130	C	0.953410	0.068324	-0.332278
C131	C	1.286744	0.401658	0.001055
C132	C	1.620077	0.734991	0.334388
C133	C	0.998896	0.071562	0.177509
C134	C	1.332230	0.404895	0.510842
C135	C	1.665563	0.738229	0.844176
C136	C	0.991934	0.071071	0.259029
C137	C	1.325267	0.404404	0.592362
C138	C	1.658600	0.737738	0.925696
C139	C	0.916979	0.065704	0.290133
C140	C	1.250312	0.399038	0.623466
C141	C	1.583645	0.732371	0.956800
C142	C	0.848982	0.060836	0.239712
C143	C	1.182316	0.394170	0.573045
C144	C	1.515649	0.727503	0.906379
C145	C	0.855946	0.061333	0.158194
C146	C	1.189279	0.394667	0.491527
C147	C	1.522613	0.728000	0.824860
C148	C	0.892378	0.063953	0.535783
C149	C	1.225711	0.397287	0.869116
C150	C	1.559044	0.730620	1.202449
C151	C	0.885419	0.063454	0.617307
C152	C	1.218752	0.396788	0.950641
C153	C	1.552086	0.730121	1.283974
C154	C	1.028371	0.073691	0.636619
C155	C	1.361704	0.407024	0.969952
C156	C	1.695038	0.740357	1.303286
C157	C	1.035328	0.074182	0.555098
C158	C	1.368661	0.407515	0.888431
C159	C	1.701995	0.740849	1.221765
C160	C	0.967332	0.069319	0.504684
C161	C	1.300665	0.402652	0.838018
C162	C	1.633998	0.735985	1.171351
C163	C	0.909860	0.065200	0.373459
C164	C	1.243193	0.398533	0.706793
C165	C	1.576527	0.731866	1.040126
C166	C	0.974452	0.069829	0.421360
C167	C	1.307785	0.403162	0.754693
C168	C	1.641118	0.736496	1.088027
H169	H	0.708729	0.187769	-0.100803
H170	H	1.042062	0.521102	0.232531
H171	H	1.375396	0.854435	0.565864
Cl172	Cl	0.542078	0.209244	-0.096969
Cl173	Cl	0.875411	0.542577	0.236364
Cl174	Cl	1.208745	0.875910	0.569697
Cl175	Cl	1.030799	-0.392044	-0.008414
Cl176	Cl	1.364133	-0.058710	0.324920
Cl177	Cl	1.697466	0.274623	0.658253
Cl178	Cl	0.853507	-0.472954	-0.196760
Cl179	Cl	1.186841	-0.139621	0.136573
Cl180	Cl	1.520174	0.193712	0.469907
H181	H	1.015064	-0.309335	-0.025130
H182	H	1.348398	0.023998	0.308204
H183	H	1.681731	0.357332	0.641537
Cl184	Cl	1.065362	-0.719071	0.028237
Cl185	Cl	1.398695	-0.385738	0.361570
Cl186	Cl	1.732028	-0.052404	0.694903
H187	H	0.338609	0.232926	-0.092399
H188	H	0.671942	0.566259	0.240934
H189	H	1.005276	0.899593	0.574267
Cl190	Cl	1.068678	0.076580	0.382257
Cl191	Cl	1.402011	0.409914	0.715590
Cl192	Cl	1.735344	0.743247	1.048923
H193	H	0.848831	0.060828	0.398793
H194	H	1.182164	0.394161	0.732126
H195	H	1.515498	0.727495	1.065460
Cl196	Cl	0.770467	0.055214	0.094815
Cl197	Cl	1.103801	0.388547	0.428148
Cl198	Cl	1.437134	0.721881	0.761481
Cl199	Cl	0.838541	-0.735339	-0.212693
Cl200	Cl	1.171874	-0.402005	0.120640
Cl201	Cl	1.505208	-0.068672	0.453973
H202	H	0.832752	-0.322416	-0.218776
H203	H	1.166085	0.010918	0.114557
H204	H	1.499419	0.344251	0.447890
H205	H	0.824378	0.059070	0.642627
H206	H	1.157711	0.392403	0.975961
H207	H	1.491045	0.725737	1.309294
H208	H	0.188655	0.222158	-0.090492
H209	H	0.521988	0.555492	0.242841
H210	H	0.855322	0.888825	0.576174
H211	H	0.787952	0.056472	0.265043
H212	H	1.121286	0.389805	0.598377
H213	H	1.454619	0.723139	0.931710
Cl214	Cl	0.155680	-0.087624	-0.105824
Cl215	Cl	0.489013	0.245709	0.227510
Cl216	Cl	0.822347	0.579042	0.560843
H217	H	0.837010	0.059993	0.494745
H218	H	1.170343	0.393326	0.828079
H219	H	1.503677	0.726660	1.161412
Cl220	Cl	0.712365	-0.119389	-0.116627
Cl221	Cl	1.045698	0.213945	0.216706
Cl222	Cl	1.379031	0.547278	0.550039
H223	H	1.047300	0.075035	0.300074
H224	H	1.380633	0.408368	0.633407
H225	H	1.713966	0.741702	0.966741
H226	H	0.840287	-0.163697	-0.210756
H227	H	1.173620	0.169637	0.122578
H228	H	1.506954	0.502970	0.455911
H229	H	1.083730	0.077652	0.677674
H230	H	1.417063	0.410985	1.011007
H231	H	1.750396	0.744318	1.344341
H232	H	0.545700	-0.097909	-0.112786
H233	H	0.879033	0.235425	0.220547
H234	H	1.212366	0.568758	0.553881
Cl235	Cl	1.093130	0.078301	0.138415
Cl236	Cl	1.426463	0.411634	0.471749
Cl237	Cl	1.759797	0.744967	0.805082
H238	H	0.325524	-0.041993	-0.106296
H239	H	0.658858	0.291340	0.227038
H240	H	0.992191	0.624674	0.560371
H241	H	0.423484	-0.031174	-0.107348
H242	H	0.756817	0.302160	0.225986
H243	H	1.090151	0.635493	0.559319
Cl244	Cl	1.045782	-0.129655	0.007507
Cl245	Cl	1.379116	0.203678	0.340841
Cl246	Cl	1.712449	0.537011	0.674174
Cl247	Cl	0.480721	0.201054	-0.096388
Cl248	Cl	0.814055	0.534387	0.236946
Cl249	Cl	1.147388	0.867721	0.570279
Cl250	Cl	1.074734	-0.521602	0.038216
Cl251	Cl	1.408067	-0.188269	0.371549
Cl252	Cl	1.741401	0.145064	0.704883
H253	H	0.869244	-0.555660	-0.180045
H254	H	1.202577	-0.222326	0.153288
H255	H	1.535910	0.111007	0.486622
H256	H	1.096364	0.078552	0.529780
H257	H	1.429697	0.411885	0.863113
H258	H	1.763031	0.745219	1.196447
