data_functionalizedCrystal
_audit_creation_method	'MofGen! by Chris Wilmer'
_symmetry_space_group_name_H-M	'P1'
_symmetry_Int_Tables_number	1
_symmetry_cell_setting	triclinic
loop_
_symmetry_equiv_pos_as_xyz
  x,y,z
_cell_length_a	21.606444
_cell_length_b	21.606444
_cell_length_c	21.606444
_cell_angle_alpha	90.000308
_cell_angle_beta	59.999875
_cell_angle_gamma	60.003871
loop_
_atom_site_label
_atom_site_type_symbol
_atom_site_fract_x
_atom_site_fract_y
_atom_site_fract_z
Zr1	Zr	0.677470	-0.081219	0.596214
O2	O	0.806580	-0.180034	0.497390
O3	O	0.548354	-0.050930	0.626510
O4	O	0.677467	-0.180043	0.626509
O5	O	0.677471	0.050929	0.497391
O6	O	0.677471	-0.180046	0.728358
O7	O	0.677467	-0.050921	0.497391
O8	O	0.446512	0.050913	0.728361
O9	O	0.908430	-0.180030	0.497389
O10	O	0.601467	-0.038011	0.715439
O11	O	0.601467	0.038001	0.639429
O12	O	0.753480	-0.114013	0.639428
O13	O	0.753480	-0.038001	0.563419
Zr14	Zr	0.677484	0.081214	0.758652
Zr15	Zr	0.677477	-0.081225	0.758653
Zr16	Zr	0.677477	0.081220	0.596214
Zr17	Zr	0.839910	-0.081214	0.596212
Zr18	Zr	0.515043	0.081209	0.758654
O19	O	0.806599	0.050925	0.728357
O20	O	0.806589	-0.180042	0.728357
O21	O	0.806589	0.050933	0.497390
O22	O	0.548374	0.180029	0.857476
O23	O	0.548364	-0.050938	0.857477
O24	O	0.548364	0.180037	0.626510
O25	O	0.677482	-0.050934	0.857475
O26	O	0.677487	0.180037	0.728358
O27	O	0.677482	0.180041	0.626508
O28	O	0.677487	0.050916	0.857475
O29	O	0.908436	-0.180035	0.626506
O30	O	0.446517	0.180030	0.728360
O31	O	0.446523	0.180025	0.857477
O32	O	0.446517	0.050908	0.857477
O33	O	0.908436	-0.050913	0.497389
O34	O	0.908441	-0.050918	0.626506
O35	O	0.601473	0.114008	0.715439
O36	O	0.601473	0.037996	0.791448
O37	O	0.753487	-0.038006	0.715437
O38	O	0.753487	0.038006	0.639428
C39	C	0.474289	-0.000009	0.677435
C40	C	0.405329	-0.000011	0.677436
C41	C	0.677468	0.000005	0.474247
C42	C	0.677465	0.000007	0.405288
C43	C	0.677485	0.203183	0.677433
C44	C	0.677488	0.272143	0.677433
C45	C	0.372931	-0.039690	0.717111
C46	C	0.308131	-0.039685	0.717113
C47	C	0.275734	-0.000005	0.677437
C48	C	0.308134	0.039678	0.637761
C49	C	0.372929	0.039677	0.637763
C50	C	0.046825	0.039685	0.637752
C51	C	-0.017972	0.039681	0.637751
C52	C	-0.017973	-0.039677	0.717102
C53	C	0.046822	-0.039679	0.717104
C54	C	0.079213	0.000008	0.677432
C55	C	0.149475	0.000003	0.677431
C56	C	0.205477	-0.000004	0.677433
C57	C	0.880665	0.000004	0.677431
C58	C	0.949625	0.000006	0.677430
C59	C	0.677468	-0.203188	0.677434
C60	C	0.677465	-0.272148	0.677434
C61	C	0.756837	0.264870	0.637757
C62	C	0.756835	0.329667	0.637754
C63	C	0.677483	0.401737	0.677431
C64	C	0.598127	0.409008	0.717108
C65	C	0.598131	0.344211	0.717106
C66	C	0.598112	0.670326	0.717114
C67	C	0.598115	0.735124	0.717114
C68	C	0.756816	0.655782	0.637762
C69	C	0.756820	0.590985	0.637760
C70	C	0.677465	0.598262	0.677433
C71	C	0.677469	0.528001	0.677435
C72	C	0.677478	0.471997	0.677434
C73	C	0.598116	0.039677	0.412566
C74	C	0.598118	0.039677	0.347768
C75	C	0.677471	0.000004	0.275694
C76	C	0.756826	-0.039667	0.268418
C77	C	0.756822	-0.039663	0.333215
C78	C	0.756841	-0.039684	0.007100
C79	C	0.756838	-0.039687	-0.057698
C80	C	0.598137	0.039656	0.021653
C81	C	0.598134	0.039660	0.086450
C82	C	0.677488	-0.000007	0.079169
C83	C	0.677485	-0.000006	0.149430
C84	C	0.677475	-0.000002	0.205434
C85	C	0.677485	-0.000010	0.880619
C86	C	0.677488	-0.000012	0.949579
C87	C	0.474297	-0.000017	0.880621
C88	C	0.405340	-0.000021	0.949581
C89	C	0.474297	0.203177	0.677435
C90	C	0.405340	0.272134	0.677436
C91	C	0.474306	0.203169	0.880621
C92	C	0.405352	0.272124	0.949581
C93	C	0.880647	-0.203174	0.474246
C94	C	0.949601	-0.272129	0.405285
C95	C	0.880656	0.000011	0.474245
C96	C	0.949613	0.000016	0.405285
C97	C	0.880656	-0.203182	0.677431
C98	C	0.949613	-0.272139	0.677431
C99	C	0.372954	-0.039705	0.942290
C100	C	0.308170	-0.039725	1.007079
C101	C	0.275770	-0.000056	1.079159
C102	C	0.308163	0.039629	1.086449
C103	C	0.372949	0.039644	1.021661
C104	C	0.372961	0.344198	0.717112
C105	C	0.308177	0.408997	0.717110
C106	C	0.275770	0.401730	0.677435
C107	C	0.308156	0.329658	0.637754
C108	C	0.372943	0.264861	0.637752
C109	C	0.372970	0.264828	1.021648
C110	C	0.308189	0.329612	1.086450
C111	C	0.275787	0.401691	1.079182
C112	C	0.308175	0.408986	1.007108
C113	C	0.372959	0.344202	0.942308
C114	C	0.981991	-0.264834	0.333218
C115	C	1.046792	-0.329618	0.268417
C116	C	1.079198	-0.401697	0.275684
C117	C	1.046805	-0.408991	0.347759
C118	C	0.982010	-0.344207	0.412559
C119	C	0.982006	0.039693	0.412577
C120	C	1.046808	0.039695	0.347788
C121	C	1.079211	0.000024	0.275707
C122	C	1.046815	-0.039658	0.268417
C123	C	0.982019	-0.039664	0.333206
C124	C	0.982000	-0.264847	0.717113
C125	C	1.046784	-0.329634	0.717127
C126	C	1.079184	-0.401711	0.677454
C127	C	1.046791	-0.409001	0.637771
C128	C	0.982004	-0.344216	0.637761
H129	H	0.399308	-0.072006	0.749416
C130	C	0.272556	0.488269	0.760772
N131	N	0.245726	0.547975	0.793662
C132	C	0.946362	-0.185552	0.325205
N133	N	0.919536	-0.125839	0.319164
H134	H	0.223015	-0.000073	1.131908
H135	H	0.533517	0.350138	0.749412
C136	C	1.082455	-0.083281	0.189122
N137	N	1.109294	-0.116131	0.129395
H138	H	0.223016	0.454498	0.677443
C139	C	1.082408	-0.321598	0.760780
N140	N	1.109239	-0.315543	0.793658
C141	C	0.946367	-0.185568	0.760765
N142	N	0.919527	-0.125857	0.793650
H143	H	0.821449	0.323739	0.605447
C144	C	0.272517	-0.083355	0.760738
N145	N	0.245700	-0.116257	0.793591
H146	H	1.131958	-0.454441	0.222914
H147	H	0.281773	0.071926	1.145145
C148	C	0.408601	0.352211	0.760756
N149	N	0.435446	0.358252	0.793626
C150	C	0.272494	0.321676	0.594119
N151	N	0.245626	0.315667	0.561257
C152	C	0.272567	0.321572	1.165725
N153	N	0.245735	0.315513	1.225433
H154	H	0.399298	0.206185	0.605446
H155	H	0.073200	-0.071992	0.749410
H156	H	1.131939	-0.454458	0.677468
H157	H	0.533505	0.071981	0.353700
H158	H	0.399343	0.206144	1.027580
C159	C	0.272516	0.488280	0.999126
N160	N	0.245650	0.548006	0.993117
C161	C	1.082410	-0.321577	0.189142
N162	N	1.109235	-0.315519	0.129433
H163	H	0.223036	0.454436	1.131953
H164	H	0.399316	0.350153	0.883630
H165	H	0.821456	-0.071997	0.001161
C166	C	0.408559	0.083310	1.029694
N167	N	0.435376	0.116203	1.035751
C168	C	0.946380	0.083334	0.491859
N169	N	0.919554	0.116202	0.551573
H170	H	1.073199	-0.467685	0.353667
C171	C	0.946378	-0.352246	0.491832
N172	N	0.919542	-0.358306	0.551539
C173	C	1.082424	0.083356	0.355824
N174	N	1.109247	0.116244	0.361879
C175	C	0.408587	-0.083352	0.863008
N176	N	0.435426	-0.116234	0.803294
C177	C	0.844113	0.511710	0.594098
N178	N	0.909865	0.451999	0.561203
H179	H	1.131972	0.000034	0.222959
H180	H	0.955646	-0.071972	0.327258
C181	C	0.510821	0.083322	0.491845
N182	N	0.445067	0.116199	0.551558
C183	C	0.510840	0.083305	0.165731
N184	N	0.445089	0.116182	0.225446
H185	H	1.073182	-0.467695	0.605470
H186	H	0.533497	0.676261	0.749421
H187	H	0.955642	-0.350163	0.605444
H188	H	-0.044356	-0.071990	0.749408
H189	H	-0.044348	0.071995	0.605440
H190	H	0.821431	0.649863	0.605454
H191	H	0.821436	-0.071965	0.209729
C192	C	0.082420	0.083369	0.594139
N193	N	0.109221	0.116284	0.561298
H194	H	0.399308	0.071986	0.605454
C195	C	0.272496	0.083326	0.594116
N196	N	0.245656	0.116200	0.561239
H197	H	0.821455	0.206191	0.605451
H198	H	0.821437	-0.071956	0.327284
H199	H	0.533493	0.793808	0.749424
H200	H	0.533517	0.467693	0.749410
H201	H	0.821460	-0.071995	-0.116386
C202	C	0.272542	-0.083375	0.999043
N203	N	0.245707	-0.116250	0.992988
H204	H	0.533523	0.071957	0.027576
