data_functionalizedCrystal
_audit_creation_method	'MofGen! by Chris Wilmer'
_symmetry_space_group_name_H-M	'P1'
_symmetry_Int_Tables_number	1
_symmetry_cell_setting	triclinic
loop_
_symmetry_equiv_pos_as_xyz
  x,y,z
_cell_length_a	10.489741
_cell_length_b	15.995343
_cell_length_c	14.472310
_cell_angle_alpha	89.994209
_cell_angle_beta	89.989630
_cell_angle_gamma	84.014179
loop_
_atom_site_label
_atom_site_type_symbol
_atom_site_fract_x
_atom_site_fract_y
_atom_site_fract_z
O1	O	1.692412	0.118126	-0.076795
O2	O	1.321061	0.129214	-0.076810
O3	O	1.516893	0.001843	-0.076785
O4	O	1.496580	0.245497	-0.076820
O5	O	1.516843	0.001850	0.076897
O6	O	1.321011	0.129221	0.076872
O7	O	1.692362	0.118133	0.076887
Cu8	Cu	1.506682	0.123678	0.090912
Cu9	Cu	1.506741	0.123669	-0.090835
O10	O	1.496530	0.245504	0.076862
C11	C	1.516030	-0.029353	0.000059
C12	C	1.513518	-0.122319	0.000066
C13	C	1.273516	0.128380	0.000029
C14	C	1.131922	0.125875	0.000024
C15	C	1.508957	-0.292533	0.000045
C16	C	1.367597	-0.316731	0.000037
C17	C	1.364937	-0.413425	-0.000322
C18	C	1.504466	-0.460120	0.000025
C19	C	1.575573	-0.430596	-0.087556
C20	C	1.577250	-0.333794	-0.087619
C21	C	1.579262	-0.333877	0.087152
C22	C	1.574043	-0.430404	0.088293
C23	C	1.501935	-0.554833	0.000010
C24	C	1.511492	-0.197820	0.000053
C25	C	1.064919	0.044832	0.000044
C26	C	0.972280	0.083112	-0.075732
C27	C	0.972264	0.083139	0.075786
C28	C	1.041147	0.164188	-0.075815
C29	C	1.041141	0.164203	0.075771
C30	C	0.948528	0.202542	-0.000024
C31	C	1.739907	0.118967	0.000046
C32	C	1.881501	0.121472	0.000045
C33	C	1.497393	0.276700	0.000017
C34	C	1.499906	0.369666	0.000003
N35	N	1.506649	0.123683	0.218743
N36	N	1.506784	0.123657	-0.218666
C37	C	1.506740	0.123666	0.592834
C38	C	1.401602	0.191587	0.553655
C39	C	1.401845	0.191838	0.446567
C40	C	1.506694	0.123675	0.407243
C41	C	1.639778	0.143559	0.446082
C42	C	1.639187	0.144043	0.553204
C43	C	1.479980	0.035665	0.553375
C44	C	1.476927	0.036232	0.446247
C45	C	1.506676	0.123678	0.302355
C46	C	1.506766	0.123665	0.697722
H47	H	1.309265	-0.432781	0.062440
Br48	Br	1.494332	-0.464568	-0.196617
H49	H	1.312783	-0.289056	0.062834
H50	H	0.898168	0.269235	-0.000075
Br51	Br	1.092055	0.221318	0.182540
Br52	Br	1.430266	0.300666	0.403818
Br53	Br	1.236174	0.171940	0.596605
H54	H	1.675855	-0.462738	0.093849
H55	H	1.548531	-0.016742	0.419483
Br56	Br	1.678493	0.251051	0.594823
Br57	Br	1.680031	0.249356	0.401341
Br58	Br	0.921398	0.025969	0.182564
Br59	Br	1.746734	-0.482637	-0.092574
H60	H	1.719866	0.096566	0.579120
Br61	Br	1.773299	0.063354	0.403634
Br62	Br	1.149233	-0.066225	-0.000060
H63	H	1.379029	0.021160	0.420863
H64	H	1.385042	0.016744	0.580442
Br65	Br	0.921429	0.025959	-0.182500
H66	H	1.302921	0.179873	0.420309
H67	H	1.418454	0.256506	0.580556
Br68	Br	1.607769	-0.048596	0.595601
H69	H	1.313717	-0.288069	-0.062679
Br70	Br	1.272675	-0.444715	-0.105589
H71	H	1.528622	-0.307299	-0.153340
Br72	Br	1.504890	-0.287214	0.197837
H73	H	1.680915	-0.318595	-0.091348
Br74	Br	1.487737	-0.461856	0.196291
Br75	Br	1.091752	0.221294	-0.182714
H76	H	1.683308	-0.319230	0.088007
