data_functionalizedCrystal
_audit_creation_method	'MofGen! by Chris Wilmer'
_symmetry_space_group_name_H-M	'P1'
_symmetry_Int_Tables_number	1
_symmetry_cell_setting	triclinic
loop_
_symmetry_equiv_pos_as_xyz
  x,y,z
_cell_length_a	17.699083
_cell_length_b	10.540539
_cell_length_c	16.776229
_cell_angle_alpha	89.995514
_cell_angle_beta	89.998886
_cell_angle_gamma	83.904253
loop_
_atom_site_label
_atom_site_type_symbol
_atom_site_fract_x
_atom_site_fract_y
_atom_site_fract_z
O1	O	1.005122	0.160520	-0.066173
O2	O	1.505122	0.660520	0.433827
O3	O	0.784880	0.181404	-0.066198
O4	O	1.284880	0.681404	0.433802
O5	O	0.900026	-0.013836	-0.066184
O6	O	1.400026	0.486164	0.433816
O7	O	0.889976	0.355761	-0.066187
O8	O	1.389976	0.855761	0.433813
O9	O	0.900010	-0.013848	0.066393
O10	O	1.400010	0.486152	0.566393
O11	O	0.784864	0.181392	0.066378
O12	O	1.284864	0.681392	0.566378
O13	O	1.005107	0.160508	0.066404
O14	O	1.505107	0.660508	0.566404
Zn15	Zn	0.894983	0.170948	0.087440
Zn16	Zn	1.394983	0.670948	0.587440
Zn17	Zn	0.895003	0.170964	-0.087235
Zn18	Zn	1.395003	0.670964	0.412765
O19	O	0.889961	0.355749	0.066389
O20	O	1.389961	0.855749	0.566389
C21	C	0.756670	0.180650	0.000087
C22	C	1.256670	0.680650	0.500087
C23	C	0.672637	0.178405	0.000077
C24	C	1.172637	0.678405	0.500077
C25	C	0.624761	0.293007	0.000076
C26	C	1.124761	0.793007	0.500076
C27	C	0.545804	0.290890	0.000086
C28	C	1.045804	0.790890	0.500086
C29	C	0.514725	0.174170	0.000092
C30	C	1.014725	0.674170	0.500092
C31	C	0.562607	0.059559	0.000095
C32	C	1.062607	0.559559	0.500095
C33	C	0.641562	0.061677	0.000090
C34	C	1.141562	0.561677	0.500090
C35	C	0.244188	0.051014	0.000115
C36	C	0.744188	0.551014	0.500115
C37	C	0.165226	0.048904	0.000117
C38	C	0.665226	0.548904	0.500117
C39	C	0.148430	0.280227	0.000111
C40	C	0.648430	0.780227	0.500111
C41	C	0.227386	0.282345	0.000106
C42	C	0.727386	0.782345	0.500106
C43	C	0.275261	0.167735	0.000113
C44	C	0.775261	0.667735	0.500113
C45	C	0.360875	0.170032	0.000104
C46	C	0.860875	0.670032	0.500104
C47	C	0.429112	0.171872	0.000096
C48	C	0.929112	0.671872	0.500096
C49	C	0.899264	-0.061131	0.000103
C50	C	1.399264	0.438869	0.500103
C51	C	0.897009	-0.202038	0.000098
C52	C	1.397009	0.297962	0.500098
C53	C	0.810610	-0.383885	-0.000209
C54	C	1.310610	0.116115	0.499791
C55	C	0.812896	-0.237308	0.000089
C56	C	1.312896	0.262692	0.500089
C57	C	0.937480	-0.264443	0.075811
C58	C	1.437480	0.235557	0.575811
C59	C	0.934609	-0.410935	0.075874
C60	C	1.434609	0.089065	0.575874
C61	C	0.936337	-0.411471	-0.074890
C62	C	1.436337	0.088529	0.425110
C63	C	0.937112	-0.264503	-0.075891
C64	C	1.437112	0.235497	0.424109
C65	C	1.033316	0.161263	0.000117
C66	C	1.533316	0.661263	0.500117
C67	C	1.117349	0.163508	0.000122
C68	C	1.617349	0.663508	0.500122
C69	C	0.890722	0.403044	0.000101
C70	C	1.390722	0.903044	0.500101
C71	C	0.892977	0.543951	0.000100
C72	C	1.392977	1.043951	0.500100
N73	N	0.894974	0.170937	0.206652
N74	N	1.394974	0.670937	0.706652
N75	N	0.895018	0.170966	-0.206446
N76	N	1.395018	0.670966	0.293554
C77	C	0.945977	0.084520	0.248375
C78	C	1.445977	0.584520	0.748375
C79	C	0.945981	0.084519	0.331827
C80	C	1.445981	0.584519	0.831827
C81	C	0.894986	0.170942	0.373555
C82	C	1.394986	0.670942	0.873555
C83	C	0.843978	0.257363	0.331825
C84	C	1.343978	0.757363	0.831825
C85	C	0.843971	0.257357	0.248375
C86	C	1.343971	0.757357	0.748375
C87	C	0.844005	0.257388	0.668372
C88	C	1.344005	0.757388	1.168372
C89	C	0.844018	0.257390	0.751829
C90	C	1.344018	0.757390	1.251829
C91	C	0.946016	0.084550	0.751825
C92	C	1.446016	0.584550	1.251825
C93	C	0.946009	0.084544	0.668374
C94	C	1.446009	0.584544	1.168374
C95	C	0.894998	0.170960	0.626652
C96	C	1.394998	0.670960	1.126652
C97	C	0.894993	0.170958	0.536164
C98	C	1.394993	0.670958	1.036164
C99	C	0.894994	0.170950	0.464041
C100	C	1.394994	0.670950	0.964041
H101	H	0.680543	-0.031644	0.000090
H102	H	1.180543	0.468356	0.500090
H103	H	0.802472	0.327753	0.634409
H104	H	1.302472	0.827753	1.134409
H105	H	0.781051	-0.194118	-0.054185
H106	H	1.281051	0.305882	0.445815
N107	N	0.530875	-0.059680	0.000093
N108	N	1.030875	0.440320	0.500093
N109	N	0.573633	-0.161995	0.000093
N110	N	1.073633	0.338005	0.500093
H111	H	0.551224	-0.246213	0.000089
H112	H	1.051224	0.253787	0.500089
H113	H	0.987536	0.014174	0.634403
H114	H	1.487536	0.514174	1.134403
H115	H	0.987549	0.014181	0.785804
H116	H	1.487549	0.514181	1.285804
N117	N	0.791920	0.345683	0.794442
N118	N	1.291920	0.845683	1.294442
N119	N	0.746379	0.422832	0.757182
N120	N	1.246379	0.922832	1.257182
H121	H	0.709586	0.485188	0.787276
H122	H	1.209586	0.985188	1.287276
N123	N	1.014970	-0.237818	0.079344
N124	N	1.514970	0.262182	0.579344
N125	N	1.041295	-0.172394	0.025973
N126	N	1.541295	0.327606	0.525973
H127	H	1.096023	-0.153588	0.028465
H128	H	1.596023	0.346412	0.528465
H129	H	0.283159	-0.042309	0.000121
H130	H	0.783159	0.457691	0.500121
N131	N	0.768943	-0.418990	-0.068329
N132	N	1.268943	0.081010	0.431671
N133	N	0.799461	-0.497611	-0.117444
N134	N	1.299461	0.002389	0.382556
H135	H	0.770035	-0.522409	-0.165558
H136	H	1.270035	-0.022409	0.334442
N137	N	0.769094	-0.421035	0.067512
N138	N	1.269094	0.078965	0.567512
N139	N	0.799904	-0.500429	0.116003
N140	N	1.299904	-0.000429	0.616003
H141	H	0.770585	-0.526671	0.163833
H142	H	1.270585	-0.026671	0.663833
H143	H	0.987511	0.014151	0.365798
H144	H	1.487511	0.514151	0.865798
H145	H	0.506826	0.384211	0.000085
H146	H	1.006826	0.884211	0.500085
H147	H	0.780815	-0.194971	0.054446
H148	H	1.280815	0.305029	0.554446
H149	H	0.904687	-0.438592	0.132464
H150	H	1.404687	0.061408	0.632464
N151	N	0.099525	0.397302	0.000130
N152	N	0.599525	0.897302	0.500130
N153	N	0.102726	0.474977	0.056014
N154	N	0.602726	0.974977	0.556014
H155	H	0.068188	0.557660	0.056027
H156	H	0.568188	1.057660	0.556027
N157	N	0.259130	0.401573	0.000120
N158	N	0.759130	0.901573	0.500120
N159	N	0.301312	0.428550	0.056007
N160	N	0.801312	0.928550	0.556007
H161	H	0.323731	0.512759	0.056022
H162	H	0.823731	1.012759	0.556022
H163	H	0.907500	-0.223098	-0.131901
H164	H	1.407500	0.276902	0.368099
N165	N	0.133465	-0.070317	0.000123
N166	N	0.633465	0.429683	0.500123
N167	N	0.091278	-0.097303	-0.055758
N168	N	0.591278	0.402697	0.444242
H169	H	0.068843	-0.181497	-0.055755
H170	H	0.568843	0.318503	0.444245
H171	H	0.998438	-0.241403	-0.080455
H172	H	1.498438	0.258597	0.419545
N173	N	1.010495	-0.472493	0.080217
N174	N	1.510495	0.027507	0.580217
N175	N	1.051677	-0.452584	0.138456
N176	N	1.551677	0.047416	0.638456
H177	H	1.105271	-0.496055	0.141530
H178	H	1.605271	0.003945	0.641530
H179	H	0.802453	0.327726	0.365804
H180	H	1.302453	0.827726	0.865804
N181	N	0.902192	-0.210359	0.146479
N182	N	1.402192	0.289641	0.646479
N183	N	0.847246	-0.125873	0.141279
N184	N	1.347246	0.374127	0.641279
H185	H	0.822319	-0.087677	0.191188
H186	H	1.322319	0.412323	0.691188
H187	H	0.909121	-0.442521	-0.132275
H188	H	1.409121	0.057479	0.367725
H189	H	0.997092	-0.459808	-0.075392
H190	H	1.497092	0.040192	0.424608
H191	H	0.802438	0.327725	0.214404
H192	H	1.302438	0.827725	0.714404
N193	N	0.656492	0.412248	0.000063
N194	N	1.156492	0.912248	0.500063
N195	N	0.613733	0.514561	0.000064
N196	N	1.113733	1.014561	0.500064
H197	H	0.636140	0.598780	0.000057
H198	H	1.136140	1.098780	0.500057
N199	N	0.998033	-0.003837	0.205768
N200	N	1.498033	0.496163	0.705768
N201	N	1.043535	-0.081040	0.243035
N202	N	1.543535	0.418960	0.743035
H203	H	1.080284	-0.143477	0.212947
H204	H	1.580284	0.356523	0.712947
