data_functionalizedCrystal
_audit_creation_method	'MofGen! by Chris Wilmer'
_symmetry_space_group_name_H-M	'P1'
_symmetry_Int_Tables_number	1
_symmetry_cell_setting	triclinic
loop_
_symmetry_equiv_pos_as_xyz
  x,y,z
_cell_length_a	10.967819
_cell_length_b	11.792254
_cell_length_c	9.482900
_cell_angle_alpha	99.398945
_cell_angle_beta	68.706355
_cell_angle_gamma	84.460315
loop_
_atom_site_label
_atom_site_type_symbol
_atom_site_fract_x
_atom_site_fract_y
_atom_site_fract_z
O1	O	1.746077	0.077848	-0.558344
O2	O	1.367723	0.106894	-0.463557
O3	O	1.566071	-0.073113	-0.513238
O4	O	1.547728	0.257854	-0.508663
O5	O	1.525783	-0.036407	-0.261355
O6	O	1.327435	0.143599	-0.211674
O7	O	1.705789	0.114553	-0.306461
Cu8	Cu	1.512933	0.132428	-0.236068
Cu9	Cu	1.560578	0.089019	-0.533950
O10	O	1.507440	0.294560	-0.256780
C11	C	1.299141	0.125905	-0.325481
C12	C	1.154812	0.127855	-0.289322
C13	C	0.962174	0.111732	-0.366343
C14	C	1.111346	0.109711	-0.403705
C15	C	1.544771	-0.097011	-0.387007
C16	C	1.541313	-0.222905	-0.386142
C17	C	1.538503	-0.325146	-0.385443
C18	C	1.534991	-0.453414	-0.384577
C19	C	1.774371	0.095541	-0.444541
C20	C	1.918702	0.093590	-0.480709
C21	C	1.528741	0.318458	-0.383014
C22	C	1.532201	0.444350	-0.383889
N23	N	1.479432	0.162958	-0.026557
N24	N	1.594090	0.058480	-0.743464
C25	C	1.550688	0.098019	0.027795
C26	C	1.522823	0.123429	0.202191
H27	H	0.888955	0.128767	-0.240769
C28	C	1.413860	0.222666	0.312045
C29	C	1.353499	0.277634	0.228110
C30	C	1.253108	0.369042	0.329258
H31	H	1.451134	0.277514	0.362082
H32	H	1.349413	0.192529	0.387549
H33	H	1.417936	0.307772	0.152634
H34	H	1.316198	0.222818	0.178077
H35	H	1.188660	0.338906	0.404762
H36	H	1.290393	0.423881	0.379289
H37	H	1.212132	0.406343	0.272325
H38	H	1.675725	-0.015938	0.173965
C39	C	1.208740	0.087043	-0.571256
C40	C	1.139721	0.070726	-0.669525
C41	C	1.229395	0.049860	-0.823878
H42	H	1.272027	0.019077	-0.592716
H43	H	1.253088	0.151940	-0.587847
H44	H	1.095395	0.005835	-0.652943
H45	H	1.076441	0.138680	-0.648115
H46	H	1.273743	0.114757	-0.840469
H47	H	1.292677	-0.018105	-0.845322
H48	H	1.182577	0.038797	-0.890572
C49	C	1.057003	0.150474	-0.121970
C50	C	0.928498	0.147936	-0.118178
C51	C	0.838367	0.168746	0.035955
H52	H	1.060520	0.224814	-0.068547
H53	H	1.079507	0.091952	-0.073415
H54	H	0.906000	0.206455	-0.166711
H55	H	0.924938	0.073605	-0.171569
H56	H	0.860871	0.110224	0.084510
H57	H	0.841896	0.243086	0.089366
H58	H	0.751168	0.167017	0.038548
C59	C	1.659742	-0.001118	-0.082126
C60	C	1.781568	0.018913	-0.075687
C61	C	1.882067	-0.072395	-0.176892
H62	H	1.664220	-0.005123	-0.184792
H63	H	1.640805	-0.072645	-0.052457
H64	H	1.800500	0.090420	-0.105366
H65	H	1.777134	0.022905	0.026954
H66	H	1.863131	-0.143921	-0.147222
H67	H	1.886533	-0.076391	-0.279551
H68	H	1.964735	-0.058821	-0.172526
H69	H	0.991919	0.076568	-0.606282
H70	H	1.397793	0.237363	0.056021
