data_functionalizedCrystal
_audit_creation_method	'MofGen! by Chris Wilmer'
_symmetry_space_group_name_H-M	'P1'
_symmetry_Int_Tables_number	1
_symmetry_cell_setting	triclinic
loop_
_symmetry_equiv_pos_as_xyz
  x,y,z
_cell_length_a	16.625546
_cell_length_b	17.077404
_cell_length_c	17.077396
_cell_angle_alpha	89.980499
_cell_angle_beta	90.030215
_cell_angle_gamma	89.977307
loop_
_atom_site_label
_atom_site_type_symbol
_atom_site_fract_x
_atom_site_fract_y
_atom_site_fract_z
Zn1	Zn	-0.320997	-1.200057	0.443833
Zn2	Zn	0.012337	-0.866724	0.777167
Zn3	Zn	0.345670	-0.533390	1.110500
Zn4	Zn	-0.455839	-1.199965	0.312563
Zn5	Zn	-0.122506	-0.866632	0.645897
Zn6	Zn	0.210827	-0.533298	0.979230
Zn7	Zn	-0.321025	-1.068789	0.312581
Zn8	Zn	0.012308	-0.735455	0.645915
Zn9	Zn	0.345642	-0.402122	0.979248
Zn10	Zn	-0.455792	-1.068758	0.443787
Zn11	Zn	-0.122458	-0.735424	0.777120
Zn12	Zn	0.210875	-0.402091	1.110454
O13	O	-0.388413	-1.134392	0.378191
O14	O	-0.055080	-0.801059	0.711524
O15	O	0.278253	-0.467725	1.044858
O16	O	-0.338892	-1.309892	0.426432
O17	O	-0.005559	-0.976558	0.759765
O18	O	0.327775	-0.643225	1.093099
O19	O	-0.437988	-1.182539	0.202719
O20	O	-0.104655	-0.849205	0.536052
O21	O	0.228679	-0.515872	0.869385
O22	O	-0.208189	-1.086253	0.330019
O23	O	0.125144	-0.752920	0.663352
O24	O	0.458478	-0.419587	0.996686
O25	O	-0.437960	-1.309824	0.329988
O26	O	-0.104627	-0.976491	0.663322
O27	O	0.228706	-0.643157	0.996655
O28	O	-0.208168	-1.182695	0.426449
O29	O	0.125165	-0.849362	0.759783
O30	O	0.458499	-0.516029	1.093116
O31	O	-0.338940	-1.086164	0.202732
O32	O	-0.005607	-0.752831	0.536065
O33	O	0.327726	-0.419497	0.869399
O34	O	-0.338894	-0.958938	0.329974
O35	O	-0.005561	-0.625604	0.663307
O36	O	0.327773	-0.292271	0.996641
O37	O	-0.437879	-1.086200	0.553640
O38	O	-0.104546	-0.752867	0.886973
O39	O	0.228788	-0.419534	1.220307
O40	O	-0.437906	-0.958915	0.426370
O41	O	-0.104573	-0.625582	0.759704
O42	O	0.228760	-0.292248	1.093037
O43	O	-0.338846	-1.182665	0.553674
O44	O	-0.005512	-0.849332	0.887007
O45	O	0.327821	-0.515999	1.220341
O46	O	-0.568666	-1.182509	0.329943
O47	O	-0.235332	-0.849175	0.663277
O48	O	0.098001	-0.515842	0.996610
O49	O	-0.568630	-1.086111	0.426353
O50	O	-0.235297	-0.752778	0.759686
O51	O	0.098036	-0.419444	1.093020
C52	C	-0.388399	-0.930444	0.378169
C53	C	-0.055065	-0.597111	0.711503
C54	C	0.278268	-0.263778	1.044836
C55	C	-0.388412	-0.843194	0.378179
C56	C	-0.055078	-0.509861	0.711512
C57	C	0.278255	-0.176528	1.044845
C58	C	-0.597904	-1.134318	0.378158
C59	C	-0.264571	-0.800984	0.711492
C60	C	0.068763	-0.467651	1.044825
C61	C	-0.687525	-1.134358	0.378170
C62	C	-0.354192	-0.801024	0.711504
C63	C	-0.020859	-0.467691	1.044837
C64	C	-0.388354	-1.134440	0.582936
C65	C	-0.055021	-0.801106	0.916269
C66	C	0.278313	-0.467773	1.249602
C67	C	-0.388329	-1.134460	0.670185
C68	C	-0.054995	-0.801126	1.003519
C69	C	0.278338	-0.467793	1.336852
C70	C	-1.015701	-1.134495	0.378252
C71	C	-0.682367	-0.801161	0.711586
C72	C	-0.349034	-0.467828	1.044919
C73	C	-0.924392	-1.134454	0.378232
C74	C	-0.591059	-0.801121	0.711565
C75	C	-0.257726	-0.467787	1.044898
C76	C	-0.851616	-1.134426	0.378211
C77	C	-0.518283	-0.801092	0.711544
C78	C	-0.184949	-0.467759	1.044878
C79	C	-0.760302	-1.134386	0.378191
C80	C	-0.426968	-0.801053	0.711525
C81	C	-0.093635	-0.467720	1.044858
C82	C	-0.178104	-1.134488	0.378241
C83	C	0.155229	-0.801155	0.711575
C84	C	0.488562	-0.467821	1.044908
C85	C	-0.088483	-1.134529	0.378263
C86	C	0.244850	-0.801196	0.711596
C87	C	0.578183	-0.467862	1.044929
C88	C	-0.388428	-1.339136	0.378213
C89	C	-0.055095	-1.005803	0.711547
C90	C	0.278238	-0.672470	1.044880
C91	C	-0.388435	-1.426386	0.378223
C92	C	-0.055102	-1.093053	0.711556
C93	C	0.278232	-0.759719	1.044889
C94	C	-0.440045	-0.802213	0.428292
C95	C	-0.106712	-0.468880	0.761625
C96	C	0.226621	-0.135546	1.094959
C97	C	-0.440047	-0.720232	0.428304
C98	C	-0.106714	-0.386899	0.761638
C99	C	0.226620	-0.053566	1.094971
C100	C	-0.388419	-0.679235	0.378199
C101	C	-0.055085	-0.345902	0.711533
C102	C	0.278248	-0.012568	1.044866
C103	C	-0.336780	-0.720222	0.328084
C104	C	-0.003446	-0.386889	0.661418
C105	C	0.329887	-0.053556	0.994751
C106	C	-0.336774	-0.802201	0.328076
C107	C	-0.003441	-0.468868	0.661410
C108	C	0.329892	-0.135535	0.994743
C109	C	-0.336795	-0.549352	0.328103
C110	C	-0.003462	-0.216019	0.661436
C111	C	0.329871	0.117314	0.994770
C112	C	-0.336801	-0.467368	0.328110
C113	C	-0.003468	-0.134034	0.661443
C114	C	0.329865	0.199299	0.994776
C115	C	-0.440068	-0.467383	0.428331
C116	C	-0.106735	-0.134050	0.761665
C117	C	0.226598	0.199283	1.094998
C118	C	-0.440063	-0.549362	0.428323
C119	C	-0.106730	-0.216029	0.761657
C120	C	0.226604	0.117304	1.094990
C121	C	-0.388425	-0.590344	0.378207
C122	C	-0.055091	-0.257011	0.711540
C123	C	0.278242	0.076323	1.044873
C124	C	-0.388414	-1.134390	0.174243
C125	C	-0.055081	-0.801057	0.507577
C126	C	0.278252	-0.467723	0.840910
C127	C	-0.388212	-1.134522	0.086994
C128	C	-0.054879	-0.801188	0.420327
C129	C	0.278454	-0.467855	0.753661
C130	C	-0.336758	-1.184691	0.711195
C131	C	-0.003424	-0.851358	1.044528
C132	C	0.329909	-0.518024	1.377861
C133	C	-0.336731	-1.184700	0.793175
C134	C	-0.003397	-0.851367	1.126508
C135	C	0.329936	-0.518034	1.459842
C136	C	-0.388280	-1.134482	0.834145
C137	C	-0.054946	-0.801149	1.167478
C138	C	0.278387	-0.467815	1.500812
C139	C	-0.439853	-1.084245	0.793130
C140	C	-0.106519	-0.750912	1.126463
C141	C	0.226814	-0.417579	1.459797
C142	C	-0.439875	-1.084233	0.711151
C143	C	-0.106541	-0.750899	1.044484
C144	C	0.226792	-0.417566	1.377818
C145	C	-0.439804	-1.084277	0.964000
C146	C	-0.106471	-0.750944	1.297333
C147	C	0.226862	-0.417610	1.630667
C148	C	-0.439783	-1.084291	1.045985
C149	C	-0.106450	-0.750957	1.379318
C150	C	0.226883	-0.417624	1.712651
C151	C	-0.336660	-1.184745	1.046024
C152	C	-0.003327	-0.851411	1.379358
C153	C	0.330007	-0.518078	1.712691
C154	C	-0.336682	-1.184732	0.964045
C155	C	-0.003349	-0.851399	1.297379
C156	C	0.329984	-0.518065	1.630712
C157	C	-0.388257	-1.134496	0.923036
C158	C	-0.054923	-0.801163	1.256369
C159	C	0.278410	-0.467829	1.589703
H160	H	-0.482090	-0.835587	0.469091
H161	H	-0.148757	-0.502254	0.802424
H162	H	0.184577	-0.168920	1.135757
H163	H	-0.294739	-0.686836	0.287291
H164	H	0.038594	-0.353502	0.620625
H165	H	0.371927	-0.020169	0.953958
H166	H	-0.482093	-0.686869	0.469111
H167	H	-0.148760	-0.353536	0.802444
H168	H	0.184574	-0.020202	1.135777
H169	H	-0.481822	-1.043354	0.826494
H170	H	-0.148488	-0.710021	1.159827
H171	H	0.184845	-0.376687	1.493161
H172	H	-0.481861	-1.043321	0.677762
H173	H	-0.148528	-0.709988	1.011096
H174	H	0.184806	-0.376655	1.344429
H175	H	-0.481789	-1.043357	0.930613
H176	H	-0.148456	-0.710024	1.263946
H177	H	0.184878	-0.376691	1.597280
N178	N	-0.281025	-1.238912	1.090263
N179	N	0.052308	-0.905578	1.423596
N180	N	0.385642	-0.572245	1.756929
H181	H	-0.223419	-1.226741	1.076004
H182	H	0.109914	-0.893408	1.409337
H183	H	0.443247	-0.560075	1.742671
H184	H	-0.293619	-1.294972	1.075997
H185	H	0.039715	-0.961639	1.409330
H186	H	0.373048	-0.628306	1.742664
N187	N	-0.281082	-1.238888	0.919848
N188	N	0.052251	-0.905554	1.253182
N189	N	0.385584	-0.572221	1.586515
H190	H	-0.313863	-1.275242	0.885832
H191	H	0.019470	-0.941908	1.219165
H192	H	0.352804	-0.608575	1.552499
H193	H	-0.248413	-1.270661	0.958311
H194	H	0.084920	-0.937328	1.291644
H195	H	0.418254	-0.603994	1.624978
N196	N	-0.281090	-0.846411	0.274024
N197	N	0.052243	-0.513077	0.607357
N198	N	0.385576	-0.179744	0.940690
H199	H	-0.243765	-0.880448	0.305989
H200	H	0.089568	-0.547115	0.639323
H201	H	0.422901	-0.213781	0.972656
H202	H	-0.248438	-0.807955	0.242291
H203	H	0.084895	-0.474621	0.575624
H204	H	0.418229	-0.141288	0.908957
H205	H	-0.482108	-0.582740	0.469119
H206	H	-0.148774	-0.249407	0.802452
H207	H	0.184559	0.083926	1.135786
N208	N	-0.281163	-1.238861	0.667008
N209	N	0.052170	-0.905527	1.000342
N210	N	0.385503	-0.572194	1.333675
H211	H	-0.248489	-1.270682	0.705431
H212	H	0.084844	-0.937349	1.038764
H213	H	0.418178	-0.604015	1.372097
H214	H	-0.243856	-1.206921	0.632997
H215	H	0.089478	-0.873588	0.966331
H216	H	0.422811	-0.540254	1.299664
H217	H	-0.294752	-0.433990	0.287319
H218	H	0.038582	-0.100656	0.620653
H219	H	0.371915	0.232677	0.953986
H220	H	-0.481757	-1.043397	1.079340
H221	H	-0.148424	-0.710063	1.412674
H222	H	0.184910	-0.376730	1.746007
H223	H	-0.294739	-0.582717	0.287300
H224	H	0.038595	-0.249384	0.620633
H225	H	0.371928	0.083950	0.953967
N226	N	-0.281117	-1.238877	0.837418
N227	N	0.052217	-0.905544	1.170751
N228	N	0.385550	-0.572211	1.504085
H229	H	-0.243740	-1.206996	0.871432
H230	H	0.089594	-0.873662	1.204765
H231	H	0.422927	-0.540329	1.538098
H232	H	-0.248517	-1.270686	0.798984
H233	H	0.084817	-0.937353	1.132317
H234	H	0.418150	-0.604019	1.465651
N235	N	-0.495766	-0.423185	0.482384
N236	N	-0.162433	-0.089852	0.815717
N237	N	0.170901	0.243482	1.149050
H238	H	-0.528478	-0.461596	0.514117
H239	H	-0.195144	-0.128263	0.847451
H240	H	0.138189	0.205070	1.180784
H241	H	-0.533035	-0.389148	0.450360
H242	H	-0.199701	-0.055815	0.783693
H243	H	0.133632	0.277519	1.117026
