data_functionalizedCrystal
_audit_creation_method	'MofGen! by Chris Wilmer'
_symmetry_space_group_name_H-M	'P1'
_symmetry_Int_Tables_number	1
_symmetry_cell_setting	triclinic
loop_
_symmetry_equiv_pos_as_xyz
  x,y,z
_cell_length_a	18.101398
_cell_length_b	18.050589
_cell_length_c	18.101390
_cell_angle_alpha	89.971488
_cell_angle_beta	89.975319
_cell_angle_gamma	90.023488
loop_
_atom_site_label
_atom_site_type_symbol
_atom_site_fract_x
_atom_site_fract_y
_atom_site_fract_z
Zn1	Zn	1.132138	-0.295725	-0.418861
Zn2	Zn	1.632138	0.204275	0.081139
Zn3	Zn	1.132040	-0.419930	-0.295029
Zn4	Zn	1.632040	0.080070	0.204971
Zn5	Zn	1.008297	-0.295749	-0.295023
Zn6	Zn	1.508297	0.204251	0.204977
Zn7	Zn	1.008254	-0.419867	-0.418818
Zn8	Zn	1.508254	0.080133	0.081182
O9	O	1.070182	-0.357818	-0.356933
O10	O	1.570182	0.142182	0.143067
O11	O	1.235758	-0.312217	-0.402456
O12	O	1.735758	0.187783	0.097544
O13	O	1.115601	-0.403494	-0.191396
O14	O	1.615601	0.096506	0.308604
O15	O	1.024783	-0.191821	-0.311465
O16	O	1.524783	0.308179	0.188535
O17	O	1.235686	-0.403471	-0.311477
O18	O	1.735686	0.096529	0.188523
O19	O	1.115770	-0.191803	-0.402449
O20	O	1.615770	0.308197	0.097551
O21	O	1.024688	-0.312258	-0.191391
O22	O	1.524688	0.187742	0.308609
O23	O	0.904658	-0.312197	-0.311423
O24	O	1.404658	0.187803	0.188577
O25	O	1.024711	-0.403363	-0.522457
O26	O	1.524711	0.096637	-0.022457
O27	O	0.904627	-0.403386	-0.402375
O28	O	1.404627	0.096614	0.097625
O29	O	1.115729	-0.312156	-0.522489
O30	O	1.615729	0.187844	-0.022489
O31	O	1.115560	-0.523847	-0.311435
O32	O	1.615560	-0.023847	0.188565
O33	O	1.024616	-0.523800	-0.402382
O34	O	1.524616	-0.023800	0.097618
C35	C	0.877772	-0.357788	-0.356894
C36	C	1.377772	0.142212	0.143106
C37	C	0.795458	-0.357793	-0.356895
C38	C	1.295458	0.142207	0.143105
C39	C	0.496367	-0.357839	-0.356957
C40	C	0.996367	0.142161	0.143043
C41	C	0.527687	-0.300178	-0.300012
C42	C	1.027687	0.199822	0.199988
C43	C	0.613305	-0.300333	-0.299769
C44	C	1.113305	0.199667	0.200231
C45	C	0.644749	-0.357815	-0.356927
C46	C	1.144749	0.142185	0.143073
C47	C	0.613635	-0.436048	-0.335608
C48	C	1.113635	0.063952	0.164392
C49	C	0.527990	-0.435728	-0.335212
C50	C	1.027990	0.064272	0.164788
C51	C	0.527981	-0.337947	-0.435355
C52	C	1.027981	0.162053	0.064645
C53	C	0.613632	-0.336205	-0.434927
C54	C	1.113632	0.163795	0.065073
C55	C	0.728609	-0.357807	-0.356910
C56	C	1.228609	0.142193	0.143090
C57	C	0.412507	-0.357853	-0.356972
C58	C	0.912507	0.142147	0.143028
C59	C	1.070093	-0.550770	-0.356921
C60	C	1.570093	-0.050770	0.143079
C61	C	1.070122	-0.633316	-0.356940
C62	C	1.570122	-0.133316	0.143060
C63	C	1.020715	-0.832768	-0.406380
C64	C	1.520715	-0.332768	0.093620
C65	C	1.002663	-0.882213	-0.338801
C66	C	1.502663	-0.382213	0.161199
C67	C	1.070195	-0.784446	-0.356950
C68	C	1.570195	-0.284446	0.143050
C69	C	1.088284	-0.882083	-0.424536
C70	C	1.588284	-0.382083	0.075464
C71	C	1.070264	-0.930431	-0.356965
C72	C	1.570264	-0.430431	0.143035
C73	C	1.052107	-0.832803	-0.289335
C74	C	1.552107	-0.332803	0.210665
C75	C	1.137760	-0.832669	-0.375116
C76	C	1.637760	-0.332669	0.124884
C77	C	1.119733	-0.882092	-0.307491
C78	C	1.619733	-0.382092	0.192509
C79	C	1.070154	-0.700348	-0.356942
C80	C	1.570154	-0.200348	0.143058
C81	C	1.070306	-1.014528	-0.356965
C82	C	1.570306	-0.514528	0.143035
C83	C	1.263344	-0.357849	-0.356972
C84	C	1.763344	0.142151	0.143028
C85	C	1.345658	-0.357862	-0.356989
C86	C	1.845658	0.142138	0.143011
C87	C	1.070226	-0.357750	-0.550095
C88	C	1.570226	0.142250	-0.050095
C89	C	1.070245	-0.357721	-0.632409
C90	C	1.570245	0.142279	-0.132409
C91	C	1.070292	-0.164112	-0.356961
C92	C	1.570292	0.335888	0.143039
C93	C	1.070339	-0.081566	-0.356974
C94	C	1.570339	0.418434	0.143026
C95	C	1.070285	-0.357675	-0.931500
C96	C	1.570285	0.142325	-0.431500
C97	C	1.127739	-0.300492	-0.900195
C98	C	1.627739	0.199508	-0.400195
C99	C	1.127560	-0.300280	-0.814577
C100	C	1.627560	0.199720	-0.314577
C101	C	1.070266	-0.357698	-0.783117
C102	C	1.570266	0.142302	-0.283117
C103	C	0.992248	-0.336428	-0.814182
C104	C	1.492248	0.163572	-0.314182
C105	C	0.992592	-0.336000	-0.899828
C106	C	1.492592	0.164000	-0.399828
C107	C	1.090162	-0.436274	-0.899920
C108	C	1.590162	0.063726	-0.399920
C109	C	1.091874	-0.435873	-0.814270
C110	C	1.591874	0.064127	-0.314270
C111	C	1.070250	-0.357712	-0.699258
C112	C	1.570250	0.142288	-0.199258
C113	C	1.070296	-0.357659	-1.015360
C114	C	1.570296	0.142341	-0.515360
C115	C	1.070181	-0.357832	-0.164522
C116	C	1.570181	0.142168	0.335478
C117	C	1.070306	-0.357651	-0.082209
C118	C	1.570306	0.142349	0.417791
H119	H	0.506138	-0.313180	-0.242258
H120	H	1.006138	0.186820	0.257742
H121	H	0.978810	-0.811110	-0.448122
H122	H	1.478810	-0.311110	0.051878
C123	C	0.969816	-0.258390	-0.926834
C124	C	1.469816	0.241610	-0.426834
H125	H	0.969817	-0.257447	-0.979310
H126	H	1.469817	0.242553	-0.479310
H127	H	1.003867	-0.222701	-0.908729
H128	H	1.503867	0.277299	-0.408729
H129	H	0.921698	-0.247149	-0.909129
H130	H	1.421698	0.252851	-0.409129
C131	C	1.205718	-0.318233	-0.786197
C132	C	1.705718	0.181767	-0.286197
H133	H	1.205715	-0.318121	-0.733713
H134	H	1.705715	0.181879	-0.233713
H135	H	1.239437	-0.281948	-0.803801
H136	H	1.739437	0.218052	-0.303801
H137	H	1.220220	-0.365709	-0.803564
H138	H	1.720220	0.134291	-0.303564
C139	C	0.640942	-0.318090	-0.221292
C140	C	1.140942	0.181910	0.278708
H141	H	0.599826	-0.325247	-0.189437
H142	H	1.099826	0.174753	0.310563
H143	H	0.670080	-0.278075	-0.203614
H144	H	1.170080	0.221925	0.296386
H145	H	0.669962	-0.361916	-0.222406
H146	H	1.169962	0.138084	0.277594
H147	H	1.103556	-0.903730	-0.481687
H148	H	1.603556	-0.403730	0.018313
C149	C	0.500952	-0.458508	-0.257788
C150	C	1.000952	0.041492	0.242212
H151	H	0.542311	-0.467867	-0.226872
H152	H	1.042311	0.032133	0.273128
H153	H	0.471713	-0.502061	-0.261470
H154	H	0.971713	-0.002061	0.238530
H155	H	0.472163	-0.419636	-0.237249
H156	H	0.972163	0.080364	0.262751
H157	H	0.506406	-0.281892	-0.454739
H158	H	1.006406	0.218108	0.045261
C159	C	1.206150	-0.318255	-0.928032
C160	C	1.706150	0.181745	-0.428032
H161	H	1.239994	-0.283115	-0.908513
H162	H	1.739994	0.216885	-0.408513
H163	H	1.207033	-0.316054	-0.980459
H164	H	1.707033	0.183946	-0.480459
H165	H	1.219806	-0.366557	-0.912288
H166	H	1.719806	0.133443	-0.412288
C167	C	0.925519	-0.911614	-0.318046
C168	C	1.425519	-0.411614	0.181954
H169	H	0.890394	-0.894731	-0.353209
H170	H	1.390394	-0.394731	0.146791
H171	H	0.912352	-0.894017	-0.270379
H172	H	1.412352	-0.394017	0.229621
H173	H	0.926216	-0.964239	-0.317764
H174	H	1.426216	-0.464239	0.182236
C175	C	0.500618	-0.394676	-0.492676
C176	C	1.000618	0.105324	0.007324
H177	H	0.470074	-0.430313	-0.468986
H178	H	0.970074	0.069687	0.031014
H179	H	0.541803	-0.418831	-0.514517
H180	H	1.041803	0.081169	-0.014517
H181	H	0.473077	-0.369882	-0.529879
H182	H	0.973077	0.130118	-0.029879
C183	C	0.932795	-0.389809	-0.927805
C184	C	1.432795	0.110191	-0.427805
H185	H	0.908396	-0.411830	-0.886826
H186	H	1.408396	0.088170	-0.386826
H187	H	0.955162	-0.427361	-0.956963
H188	H	1.455162	0.072639	-0.456963
H189	H	0.897922	-0.363423	-0.956876
H190	H	1.397922	0.136577	-0.456876
H191	H	1.114403	-0.242052	-0.794098
H192	H	1.614403	0.257948	-0.294098
C193	C	1.110196	-0.222267	-0.929276
C194	C	1.610196	0.277733	-0.429276
H195	H	1.145170	-0.188061	-0.910101
H196	H	1.645170	0.311939	-0.410101
H197	H	1.061966	-0.208320	-0.913972
H198	H	1.561966	0.291680	-0.413972
H199	H	1.112644	-0.222160	-0.981702
H200	H	1.612644	0.277840	-0.481702
H201	H	0.635039	-0.375141	-0.479629
H202	H	1.135039	0.124859	0.020371
C203	C	1.176300	-0.911174	-0.250972
C204	C	1.676300	-0.411174	0.249028
H205	H	1.212505	-0.940098	-0.275690
H206	H	1.712505	-0.440098	0.224310
H207	H	1.151740	-0.940851	-0.215231
H208	H	1.651740	-0.440851	0.284769
H209	H	1.199560	-0.870509	-0.227133
H210	H	1.699560	-0.370509	0.272867
H211	H	0.507270	-0.480145	-0.374880
H212	H	1.007270	0.019855	0.125120
C213	C	0.641152	-0.495646	-0.389877
C214	C	1.141152	0.004354	0.110123
H215	H	0.671937	-0.473292	-0.426103
H216	H	1.171937	0.026708	0.073897
H217	H	0.600039	-0.518333	-0.413356
H218	H	1.100039	-0.018333	0.086644
H219	H	0.668472	-0.532075	-0.363649
H220	H	1.168472	-0.032075	0.136351
C221	C	1.165697	-0.462412	-0.929110
C222	C	1.665697	0.037588	-0.429110
H223	H	1.176638	-0.509942	-0.909392
H224	H	1.676638	-0.009942	-0.409392
H225	H	1.202833	-0.428254	-0.914456
H226	H	1.702833	0.071746	-0.414456
H227	H	1.164217	-0.465174	-0.981497
H228	H	1.664217	0.034826	-0.481497
H229	H	0.635050	-0.453209	-0.278915
H230	H	1.135050	0.046791	0.221085
H231	H	1.149288	-0.451912	-0.793967
H232	H	1.649288	0.048088	-0.293967
H233	H	1.053070	-0.480769	-0.792853
H234	H	1.553070	0.019231	-0.292853
C235	C	0.969072	-0.259667	-0.785233
C236	C	1.469072	0.240333	-0.285233
H237	H	0.921784	-0.247288	-0.804340
H238	H	1.421784	0.252712	-0.304340
H239	H	1.004113	-0.223664	-0.800697
H240	H	1.504113	0.276336	-0.300697
H241	H	0.967010	-0.260697	-0.732800
H242	H	1.467010	0.239303	-0.232800
H243	H	1.036769	-0.811246	-0.232168
H244	H	1.536769	-0.311246	0.267832
H245	H	0.948278	-0.376795	-0.793803
H246	H	1.448278	0.123205	-0.293803
C247	C	0.641111	-0.258434	-0.456649
C248	C	1.141111	0.241566	0.043351
H249	H	0.671425	-0.239210	-0.418349
H250	H	1.171425	0.260790	0.081651
H251	H	0.599963	-0.226615	-0.463930
H252	H	1.099963	0.273385	0.036070
H253	H	0.668915	-0.261503	-0.501065
H254	H	1.168915	0.238497	-0.001065
H255	H	0.507114	-0.241988	-0.313227
H256	H	1.007114	0.258012	0.186773
H257	H	1.194851	-0.810893	-0.390500
H258	H	1.694851	-0.310893	0.109500
C259	C	1.033636	-0.493836	-0.927265
C260	C	1.533636	0.006164	-0.427265
H261	H	1.045933	-0.541216	-0.907996
H262	H	1.545933	-0.041216	-0.407996
H263	H	1.034467	-0.495557	-0.979708
H264	H	1.534467	0.004443	-0.479708
H265	H	0.985632	-0.480246	-0.910949
H266	H	1.485632	0.019754	-0.410949
C267	C	0.641729	-0.221961	-0.317803
C268	C	1.141729	0.278039	0.182197
H269	H	0.600933	-0.189740	-0.325341
H270	H	1.100933	0.310260	0.174659
H271	H	0.671011	-0.223565	-0.361334
H272	H	1.171011	0.276435	0.138666
H273	H	0.670768	-0.204218	-0.277843
H274	H	1.170768	0.295782	0.222157
