data_functionalizedCrystal
_audit_creation_method	'MofGen! by Chris Wilmer'
_symmetry_space_group_name_H-M	'P1'
_symmetry_Int_Tables_number	1
_symmetry_cell_setting	triclinic
loop_
_symmetry_equiv_pos_as_xyz
  x,y,z
_cell_length_a	19.077105
_cell_length_b	21.295417
_cell_length_c	19.077174
_cell_angle_alpha	92.268346
_cell_angle_beta	85.483752
_cell_angle_gamma	87.726672
loop_
_atom_site_label
_atom_site_type_symbol
_atom_site_fract_x
_atom_site_fract_y
_atom_site_fract_z
Zn1	Zn	1.093669	-0.305856	-0.441813
Zn2	Zn	1.593669	0.194144	0.058187
Zn3	Zn	1.088842	-0.406716	-0.323916
Zn4	Zn	1.588842	0.093284	0.176084
Zn5	Zn	0.971055	-0.297057	-0.319212
Zn6	Zn	1.471055	0.202943	0.180788
Zn7	Zn	0.975736	-0.406675	-0.437034
Zn8	Zn	1.475736	0.093325	0.062966
O9	O	1.032326	-0.354076	-0.380494
O10	O	1.532326	0.145924	0.119506
O11	O	1.191679	-0.322935	-0.430143
O12	O	1.691679	0.177065	0.069857
O13	O	1.069238	-0.388505	-0.224642
O14	O	1.569238	0.111495	0.275358
O15	O	0.987382	-0.210138	-0.335507
O16	O	1.487382	0.289862	0.164493
O17	O	1.188132	-0.397037	-0.343524
O18	O	1.688132	0.102963	0.156476
O19	O	1.077466	-0.216603	-0.425582
O20	O	1.577466	0.283397	0.074418
O21	O	0.982701	-0.307938	-0.221186
O22	O	1.482701	0.192062	0.278814
O23	O	0.873027	-0.307898	-0.330872
O24	O	1.373027	0.192102	0.169128
O25	O	0.995359	-0.396967	-0.536317
O26	O	1.495359	0.103033	-0.036317
O27	O	0.876465	-0.388434	-0.417435
O28	O	1.376465	0.111566	0.082565
O29	O	1.082004	-0.322895	-0.539829
O30	O	1.582004	0.177105	-0.039829
O31	O	1.073777	-0.494797	-0.338889
O32	O	1.573777	0.005203	0.161111
O33	O	0.990679	-0.494767	-0.421997
O34	O	1.490679	0.005233	0.078003
C35	C	0.849167	-0.347207	-0.373125
C36	C	1.349167	0.152793	0.126875
C37	C	0.770812	-0.344285	-0.369989
C38	C	1.270812	0.155715	0.130011
C39	C	0.735806	-0.384900	-0.413514
C40	C	1.235806	0.115100	0.086486
C41	C	0.662183	-0.382146	-0.410571
C42	C	1.162183	0.117854	0.089429
C43	C	0.623567	-0.338778	-0.364100
C44	C	1.123567	0.161222	0.135900
C45	C	0.658578	-0.298158	-0.320573
C46	C	1.158578	0.201842	0.179427
C47	C	0.732200	-0.300910	-0.323520
C48	C	1.232200	0.199090	0.176480
C49	C	0.403188	-0.326043	-0.350464
C50	C	0.903188	0.173957	0.149536
C51	C	0.329561	-0.323295	-0.347519
C52	C	0.829561	0.176705	0.152481
C53	C	0.333172	-0.407283	-0.437519
C54	C	0.833172	0.092717	0.062481
C55	C	0.406795	-0.410033	-0.440459
C56	C	0.906795	0.089967	0.059541
C57	C	0.441799	-0.369411	-0.396935
C58	C	0.941799	0.130589	0.103065
N59	N	0.548312	-0.335963	-0.361089
N60	N	1.048312	0.164037	0.138911
N61	N	0.517052	-0.372223	-0.399949
N62	N	1.017052	0.127777	0.100051
C63	C	1.032232	-0.517623	-0.380451
C64	C	1.532232	-0.017623	0.119549
C65	C	1.032257	-0.587592	-0.380459
C66	C	1.532257	-0.087592	0.119541
C67	C	1.075568	-0.620457	-0.337233
C68	C	1.575568	-0.120457	0.162767
C69	C	1.075602	-0.686201	-0.337250
C70	C	1.575602	-0.186201	0.162750
C71	C	1.032311	-0.719078	-0.380485
C72	C	1.532311	-0.219078	0.119515
C73	C	0.988997	-0.686205	-0.423720
C74	C	1.488997	-0.186205	0.076280
C75	C	0.988970	-0.620462	-0.423707
C76	C	1.488970	-0.120462	0.076293
N77	N	0.970858	-0.820236	-0.383378
N78	N	1.470858	-0.320236	0.116622
N79	N	0.970886	-0.882688	-0.383387
N80	N	1.470886	-0.382688	0.116613
C81	C	1.032392	-0.917157	-0.380529
C82	C	1.532392	-0.417157	0.119471
N83	N	1.093870	-0.886813	-0.377648
N84	N	1.593870	-0.386813	0.122352
N85	N	1.093842	-0.824354	-0.377636
N86	N	1.593842	-0.324354	0.122364
C87	C	1.032337	-0.790365	-0.380505
C88	C	1.532337	-0.290365	0.119495
C89	C	1.075744	-1.021309	-0.337319
C90	C	1.575744	-0.521309	0.162681
C91	C	1.075779	-1.087055	-0.337341
C92	C	1.575779	-0.587055	0.162659
C93	C	0.989168	-1.087057	-0.423807
C94	C	1.489168	-0.587057	0.076193
C95	C	0.989139	-1.021313	-0.423789
C96	C	1.489139	-0.521313	0.076211
C97	C	1.032426	-0.988443	-0.380541
C98	C	1.532426	-0.488443	0.119459
C99	C	1.216199	-0.360972	-0.387892
C100	C	1.716199	0.139028	0.112108
C101	C	1.294555	-0.363911	-0.391044
C102	C	1.794555	0.136089	0.108956
C103	C	1.039742	-0.360908	-0.564367
C104	C	1.539742	0.139092	-0.064367
C105	C	1.042903	-0.363819	-0.642723
C106	C	1.542903	0.136181	-0.142723
C107	C	1.032440	-0.189892	-0.380553
C108	C	1.532440	0.310108	0.119447
C109	C	1.032489	-0.119927	-0.380578
C110	C	1.532489	0.380073	0.119422
C111	C	0.999334	-0.323241	-0.677734
C112	C	1.499334	0.176759	-0.177734
C113	C	1.002301	-0.325982	-0.751358
C114	C	1.502301	0.174018	-0.251358
C115	C	1.048841	-0.369298	-0.789968
C116	C	1.548841	0.130702	-0.289968
C117	C	1.092411	-0.409880	-0.754951
C118	C	1.592411	0.090120	-0.254951
C119	C	1.089440	-0.407142	-0.681329
C120	C	1.589440	0.092858	-0.181329
C121	C	1.062554	-0.381988	-1.010348
C122	C	1.562554	0.118012	-0.510348
C123	C	1.065523	-0.384721	-1.083976
C124	C	1.565523	0.115279	-0.583976
C125	C	0.975412	-0.300823	-1.080377
C126	C	1.475412	0.199177	-0.580377
C127	C	0.972448	-0.298087	-1.006754
C128	C	1.472448	0.201913	-0.506754
C129	C	1.016016	-0.338671	-0.971743
C130	C	1.516016	0.161329	-0.471743
N131	N	1.051876	-0.372099	-0.865223
N132	N	1.551876	0.127901	-0.365223
N133	N	1.012976	-0.335873	-0.896489
N134	N	1.512976	0.164127	-0.396489
C135	C	1.024979	-0.347227	-0.197338
C136	C	1.524979	0.152773	0.302662
C137	C	1.021955	-0.344143	-0.118988
C138	C	1.521955	0.155857	0.381012
H139	H	0.304663	-0.440354	-0.472954
H140	H	0.804663	0.059646	0.027046
H141	H	1.098022	-0.415041	-0.981851
H142	H	1.598022	0.084959	-0.481851
C143	C	0.942019	-0.722008	-0.470586
C144	C	1.442019	-0.222008	0.029414
C145	C	0.951297	-0.786617	-0.461331
C146	C	1.451297	-0.286617	0.038669
C147	C	0.908026	-0.819616	-0.504489
C148	C	1.408026	-0.319616	-0.004489
H149	H	0.954161	-0.713428	-0.518398
H150	H	1.454161	-0.213428	-0.018398
H151	H	0.894224	-0.709152	-0.458316
H152	H	1.394224	-0.209152	0.041684
H153	H	0.999081	-0.799467	-0.473605
H154	H	1.499081	-0.299467	0.026395
H155	H	0.939150	-0.795216	-0.413528
H156	H	1.439150	-0.295216	0.086472
H157	H	0.860231	-0.806761	-0.492219
H158	H	1.360231	-0.306761	0.007781
H159	H	0.920172	-0.811031	-0.552299
H160	H	1.420172	-0.311031	-0.052299
H161	H	0.914311	-0.863456	-0.498211
H162	H	1.414311	-0.363456	0.001789
H163	H	1.110817	-0.593696	-0.302020
H164	H	1.610817	-0.093696	0.197980
H165	H	0.760700	-0.267833	-0.288081
H166	H	1.260700	0.232167	0.211919
H167	H	0.939941	-0.267782	-1.108891
H168	H	1.439941	0.232218	-0.608891
H169	H	0.966820	-0.292941	-0.779861
H170	H	1.466820	0.207059	-0.279861
H171	H	0.953868	-0.994552	-0.458985
H172	H	1.453868	-0.494552	0.041015
C173	C	0.942142	-1.122631	-0.470827
C174	C	1.442142	-0.622631	0.029173
C175	C	0.904214	-1.079775	-0.508691
C176	C	1.404214	-0.579775	-0.008691
C177	C	0.860895	-1.112526	-0.552022
C178	C	1.360895	-0.612526	-0.052022
H179	H	0.910311	-1.146166	-0.442682
H180	H	1.410311	-0.646166	0.057318
H181	H	0.970321	-1.150380	-0.502692
H182	H	1.470321	-0.650380	-0.002692
H183	H	0.876037	-1.052037	-0.476830
H184	H	1.376037	-0.552037	0.023170
H185	H	0.936027	-1.056239	-0.536848
H186	H	1.436027	-0.556239	-0.036848
H187	H	0.889074	-1.140275	-0.583887
H188	H	1.389074	-0.640275	-0.083887
H189	H	0.829068	-1.136060	-0.523872
H190	H	1.329068	-0.636060	-0.023872
H191	H	0.835160	-1.083454	-0.577722
H192	H	1.335160	-0.583454	-0.077722
H193	H	0.431679	-0.292970	-0.315019
H194	H	0.931679	0.207030	0.184981
H195	H	0.438231	-0.445349	-0.478299
H196	H	0.938231	0.054651	0.021701
H197	H	1.103425	-0.419996	-1.115411
H198	H	1.603425	0.080004	-0.615411
C199	C	0.777606	-0.432008	-0.464043
C200	C	1.277606	0.067992	0.035957
C201	C	0.731188	-0.466975	-0.501545
C202	C	1.231188	0.033025	-0.001545
C203	C	0.769666	-0.510370	-0.548108
C204	C	1.269666	-0.010370	-0.048108
H205	H	0.805222	-0.459527	-0.438250
H206	H	1.305222	0.040473	0.061750
H207	H	0.807571	-0.410201	-0.495996
H208	H	1.307571	0.089799	0.004004
H209	H	0.701235	-0.488781	-0.469596
H210	H	1.201235	0.011219	0.030404
H211	H	0.703571	-0.439473	-0.527353
H212	H	1.203571	0.060527	-0.027353
H213	H	0.799631	-0.488563	-0.580061
H214	H	1.299631	0.011437	-0.080061
H215	H	0.797280	-0.537885	-0.522308
H216	H	1.297280	-0.037885	-0.022308
H217	H	0.738178	-0.534096	-0.573563
H218	H	1.238178	-0.034096	-0.073563
C219	C	0.624148	-0.426146	-0.457912
C220	C	1.124148	0.073854	0.042088
C221	C	0.583752	-0.390677	-0.501500
C222	C	1.083752	0.109323	-0.001500
C223	C	0.548715	-0.431191	-0.545129
C224	C	1.048715	0.068809	-0.045129
H225	H	0.594263	-0.451471	-0.429818
H226	H	1.094263	0.048529	0.070182
H227	H	0.657674	-0.452359	-0.486046
H228	H	1.157674	0.047641	0.013954
H229	H	0.550231	-0.364475	-0.473370
H230	H	1.050231	0.135525	0.026630
H231	H	0.613620	-0.365354	-0.529610
H232	H	1.113620	0.134646	-0.029610
H233	H	0.582240	-0.457403	-0.573263
H234	H	1.082240	0.042597	-0.073263
H235	H	0.518834	-0.456513	-0.517029
H236	H	1.018834	0.043487	-0.017029
H237	H	0.521307	-0.407131	-0.574713
H238	H	1.021307	0.092869	-0.074713
H239	H	0.961440	-0.287965	-0.646303
H240	H	1.461440	0.212035	-0.146303
H241	H	1.111052	-1.113812	-0.302143
H242	H	1.611052	-0.613812	0.197857
C243	C	0.941986	-0.584862	-0.470753
C244	C	1.441986	-0.084862	0.029247
C245	C	0.960089	-0.603985	-0.541133
C246	C	1.460089	-0.103985	-0.041133
C247	C	0.916815	-0.571209	-0.584491
C248	C	1.416815	-0.071209	-0.084491
H249	H	0.948127	-0.540993	-0.464645
H250	H	1.448127	-0.040993	0.035355
H251	H	0.894205	-0.593537	-0.458538
H252	H	1.394205	-0.093537	0.041462
H253	H	1.007858	-0.595306	-0.553345
H254	H	1.507858	-0.095306	-0.053345
H255	H	0.953945	-0.647850	-0.547264
H256	H	1.453945	-0.147850	-0.047264
H257	H	0.869034	-0.579884	-0.572275
H258	H	1.369034	-0.079884	-0.072275
H259	H	0.922960	-0.527341	-0.578376
H260	H	1.422960	-0.027341	-0.078376
H261	H	0.929088	-0.584183	-0.632247
H262	H	1.429088	-0.084183	-0.132247
H263	H	1.130301	-0.445152	-0.786394
H264	H	1.630301	0.054848	-0.286394
C265	C	1.122818	-0.985732	-0.290346
C266	C	1.622818	-0.485732	0.209654
C267	C	1.160774	-1.028590	-0.252510
C268	C	1.660774	-0.528590	0.247490
C269	C	1.204152	-0.995842	-0.209238
C270	C	1.704152	-0.495842	0.290762
H271	H	1.094699	-0.957971	-0.258459
H272	H	1.594699	-0.457971	0.241541
H273	H	1.154626	-0.962212	-0.318551
H274	H	1.654626	-0.462212	0.181449
H275	H	1.128970	-1.052099	-0.224308
H276	H	1.628970	-0.552099	0.275692
H277	H	1.188907	-1.056352	-0.284379
H278	H	1.688907	-0.556352	0.215621
H279	H	1.235960	-0.972323	-0.237442
H280	H	1.735960	-0.472323	0.262558
H281	H	1.176027	-0.968082	-0.177355
H282	H	1.676027	-0.468082	0.322645
H283	H	1.229915	-1.024916	-0.183566
H284	H	1.729915	-0.524916	0.316434
H285	H	0.298121	-0.287973	-0.309681
H286	H	0.798121	0.212027	0.190319
H287	H	0.934549	-0.262816	-0.975322
H288	H	1.434549	0.237184	-0.475322
H289	H	1.124924	-0.440181	-0.652824
H290	H	1.624924	0.059819	-0.152824
H291	H	0.627131	-0.262845	-0.282738
H292	H	1.127131	0.237155	0.217262
H293	H	1.110874	-0.712965	-0.302050
H294	H	1.610874	-0.212965	0.197950
