data_functionalizedCrystal
_audit_creation_method	'MofGen! by Chris Wilmer'
_symmetry_space_group_name_H-M	'P1'
_symmetry_Int_Tables_number	1
_symmetry_cell_setting	triclinic
loop_
_symmetry_equiv_pos_as_xyz
  x,y,z
_cell_length_a	17.038272
_cell_length_b	13.339070
_cell_length_c	11.804365
_cell_angle_alpha	74.887832
_cell_angle_beta	77.284774
_cell_angle_gamma	76.629575
loop_
_atom_site_label
_atom_site_type_symbol
_atom_site_fract_x
_atom_site_fract_y
_atom_site_fract_z
O1	O	1.097547	-0.204439	-0.098970
O2	O	0.869146	-0.200882	-0.098983
O3	O	0.957133	-0.053141	-0.098975
O4	O	1.009560	-0.352179	-0.098979
O5	O	0.933960	-0.091993	0.099079
O6	O	0.845973	-0.239734	0.099070
O7	O	1.074374	-0.243291	0.099083
Cu8	Cu	0.958058	-0.245060	0.117161
Cu9	Cu	0.985463	-0.199113	-0.117061
O10	O	0.986387	-0.391032	0.099075
C11	C	0.827730	-0.217075	0.000042
C12	C	0.738843	-0.207428	0.000037
C13	C	1.115791	-0.227098	0.000055
C14	C	1.204679	-0.236743	0.000053
C15	C	0.936691	-0.034115	0.000050
C16	C	0.910295	0.080459	0.000044
C17	C	1.235565	-0.148185	0.000050
C18	C	1.319084	-0.157255	0.000054
C19	C	1.371717	-0.254882	0.000053
C20	C	1.340825	-0.343446	0.000059
C21	C	1.257307	-0.334377	0.000063
C22	C	1.624433	-0.286923	0.000047
C23	C	1.707957	-0.295985	0.000039
C24	C	1.686210	-0.109794	0.000037
C25	C	1.602691	-0.100732	0.000034
C26	C	1.571806	-0.189298	0.000047
C27	C	1.457088	-0.264154	0.000053
C28	C	1.486436	-0.180026	0.000055
C29	C	1.006830	-0.410057	0.000047
C30	C	1.033227	-0.524630	0.000046
N31	N	0.938789	-0.277377	0.281899
C32	C	1.115544	0.427586	0.000056
C33	C	1.140346	0.319936	0.000068
C34	C	1.082836	0.260061	0.000062
C35	C	1.000518	0.307847	0.000043
C36	C	0.975712	0.415506	0.000040
C37	C	0.943004	0.247982	0.000046
C38	C	0.860686	0.295768	0.000028
C39	C	0.835884	0.403416	0.000024
C40	C	0.893395	0.463290	0.000030
C41	C	0.967810	0.140323	0.000049
C42	C	0.827978	0.128244	0.000034
C43	C	0.803175	0.235894	0.000021
N44	N	1.004736	-0.166788	-0.281800
C45	C	1.051004	-0.089164	0.655859
C46	C	1.065579	-0.064711	0.531199
C47	C	1.033883	-0.117876	0.468868
C48	C	0.987609	-0.195496	0.531209
C49	C	0.973038	-0.219957	0.655882
C50	C	0.955916	-0.248669	0.468891
C51	C	0.909643	-0.326290	0.531232
C52	C	0.895073	-0.350745	0.655892
C53	C	0.926770	-0.297581	0.718223
C54	C	0.970488	-0.224208	0.344218
C55	C	0.892521	-0.355002	0.344241
C56	C	0.877946	-0.379454	0.468901
H57	H	1.192717	-0.068686	0.000044
H58	H	1.207369	0.281036	0.000085
F59	F	1.719085	-0.015544	0.000030
H60	H	1.232161	-0.406491	0.000070
H61	H	1.599298	-0.359040	0.000052
H62	H	0.840269	-0.442655	0.519675
F63	F	1.351950	-0.063001	0.000058
H64	H	1.008164	-0.161010	0.293471
F65	F	1.430418	-0.076129	0.000063
H66	H	1.383685	-0.422938	0.000065
H67	H	1.162359	0.476342	0.000071
H68	H	0.866713	-0.398295	0.293492
H69	H	1.103035	0.172408	0.000072
H70	H	1.750808	-0.375492	0.000055
F71	F	0.748273	0.454268	0.000019
F72	F	1.513112	-0.368051	0.000040
H73	H	1.559842	-0.021234	0.000036
H74	H	0.914900	-0.317487	0.819732
F75	F	1.049395	-0.091848	0.336193
F76	F	0.766765	0.064525	0.000034
F77	F	0.845835	-0.433367	0.722241
F78	F	1.055415	0.089478	0.000070
F79	F	0.867015	0.577888	-0.000095
F80	F	0.715569	0.286764	-0.000001
F81	F	1.114825	0.017893	0.464854
H82	H	1.076813	-0.045890	0.706617
