data_functionalizedCrystal
_audit_creation_method	'MofGen! by Chris Wilmer'
_symmetry_space_group_name_H-M	'P1'
_symmetry_Int_Tables_number	1
_symmetry_cell_setting	triclinic
loop_
_symmetry_equiv_pos_as_xyz
  x,y,z
_cell_length_a	19.805407
_cell_length_b	25.639239
_cell_length_c	19.805399
_cell_angle_alpha	90.028726
_cell_angle_beta	90.019573
_cell_angle_gamma	90.038686
loop_
_atom_site_label
_atom_site_type_symbol
_atom_site_fract_x
_atom_site_fract_y
_atom_site_fract_z
Zn1	Zn	1.034678	-0.208163	0.382714
Zn2	Zn	1.284678	0.041837	0.632714
Zn3	Zn	1.534678	0.291837	0.882714
Zn4	Zn	1.784678	0.541837	1.132714
Zn5	Zn	1.034569	-0.295597	0.269524
Zn6	Zn	1.284569	-0.045597	0.519524
Zn7	Zn	1.534569	0.204403	0.769524
Zn8	Zn	1.784569	0.454403	1.019524
Zn9	Zn	0.921493	-0.208177	0.269539
Zn10	Zn	1.171493	0.041823	0.519539
Zn11	Zn	1.421493	0.291823	0.769539
Zn12	Zn	1.671493	0.541823	1.019539
Zn13	Zn	0.921432	-0.295569	0.382670
Zn14	Zn	1.171432	-0.045569	0.632670
Zn15	Zn	1.421432	0.204431	0.882670
Zn16	Zn	1.671432	0.454431	1.132670
O17	O	0.978043	-0.251877	0.326112
O18	O	1.228043	-0.001877	0.576112
O19	O	1.478043	0.248123	0.826112
O20	O	1.728043	0.498123	1.076112
O21	O	1.129380	-0.219767	0.367711
O22	O	1.379380	0.030233	0.617711
O23	O	1.629380	0.280233	0.867711
O24	O	1.879380	0.530233	1.117711
O25	O	1.019548	-0.284018	0.174809
O26	O	1.269548	-0.034018	0.424809
O27	O	1.519548	0.215982	0.674809
O28	O	1.769548	0.465982	0.924809
O29	O	0.936578	-0.135010	0.284576
O30	O	1.186578	0.114990	0.534576
O31	O	1.436578	0.364990	0.784576
O32	O	1.686578	0.614990	1.034576
O33	O	1.129300	-0.284004	0.284551
O34	O	1.379300	-0.034004	0.534551
O35	O	1.629300	0.215996	0.784551
O36	O	1.879300	0.465996	1.034551
O37	O	1.019735	-0.135000	0.367726
O38	O	1.269735	0.115000	0.617726
O39	O	1.519735	0.365000	0.867726
O40	O	1.769735	0.615000	1.117726
O41	O	0.936472	-0.219791	0.174820
O42	O	1.186472	0.030209	0.424820
O43	O	1.436472	0.280209	0.674820
O44	O	1.686472	0.530209	0.924820
O45	O	0.826768	-0.219764	0.284534
O46	O	1.076768	0.030236	0.534534
O47	O	1.326768	0.280236	0.784534
O48	O	1.576768	0.530236	1.034534
O49	O	0.936475	-0.283957	0.477393
O50	O	1.186475	-0.033957	0.727393
O51	O	1.436475	0.216043	0.977393
O52	O	1.686475	0.466043	1.227393
O53	O	0.826723	-0.283971	0.367651
O54	O	1.076723	-0.033971	0.617651
O55	O	1.326723	0.216029	0.867651
O56	O	1.576723	0.466029	1.117651
O57	O	1.019676	-0.219740	0.477425
O58	O	1.269676	0.030260	0.727425
O59	O	1.519676	0.280260	0.977425
O60	O	1.769676	0.530260	1.227425
O61	O	1.019489	-0.368758	0.284508
O62	O	1.269489	-0.118758	0.534508
O63	O	1.519489	0.131242	0.784508
O64	O	1.769489	0.381242	1.034508
O65	O	0.936368	-0.368738	0.367637
O66	O	1.186368	-0.118738	0.617637
O67	O	1.436368	0.131262	0.867637
O68	O	1.686368	0.381262	1.117637
C69	C	0.802187	-0.251867	0.326090
C70	C	1.052187	-0.001867	0.576090
C71	C	1.302187	0.248133	0.826090
C72	C	1.552187	0.498133	1.076090
C73	C	0.726955	-0.251875	0.326097
C74	C	0.976955	-0.001875	0.576097
C75	C	1.226955	0.248125	0.826097
C76	C	1.476955	0.498125	1.076097
C77	C	0.977929	-0.387719	0.326081
C78	C	1.227929	-0.137719	0.576081
C79	C	1.477929	0.112281	0.826081
C80	C	1.727929	0.362281	1.076081
C81	C	0.977942	-0.445833	0.326090
C82	C	1.227942	-0.195833	0.576090
C83	C	1.477942	0.054167	0.826090
C84	C	1.727942	0.304167	1.076090
C85	C	0.691605	-0.285357	0.369306
C86	C	0.941605	-0.035357	0.619306
C87	C	1.191605	0.214643	0.869306
C88	C	1.441605	0.464643	1.119306
C89	C	0.620917	-0.285358	0.369315
C90	C	0.870917	-0.035358	0.619315
C91	C	1.120917	0.214642	0.869315
C92	C	1.370917	0.464642	1.119315
C93	C	0.585579	-0.251879	0.326112
C94	C	0.835579	-0.001879	0.576112
C95	C	1.085579	0.248121	0.826112
C96	C	1.335579	0.498121	1.076112
C97	C	0.620934	-0.218393	0.282901
C98	C	0.870934	0.031607	0.532901
C99	C	1.120934	0.281607	0.782901
C100	C	1.370934	0.531607	1.032901
C101	C	0.691621	-0.218390	0.282895
C102	C	0.941621	0.031610	0.532895
C103	C	1.191621	0.281610	0.782895
C104	C	1.441621	0.531610	1.032895
C105	C	0.335860	-0.218404	0.282923
C106	C	0.585860	0.031596	0.532923
C107	C	0.835860	0.281596	0.782923
C108	C	1.085860	0.531596	1.032923
C109	C	0.265168	-0.218411	0.282931
C110	C	0.515168	0.031589	0.532931
C111	C	0.765168	0.281589	0.782931
C112	C	1.015168	0.531589	1.032931
C113	C	0.265156	-0.285373	0.369343
C114	C	0.515156	-0.035373	0.619343
C115	C	0.765156	0.214627	0.869343
C116	C	1.015156	0.464627	1.119343
C117	C	0.335843	-0.285370	0.369338
C118	C	0.585843	-0.035370	0.619338
C119	C	0.835843	0.214630	0.869338
C120	C	1.085843	0.464630	1.119338
C121	C	0.371192	-0.251882	0.326129
C122	C	0.621192	-0.001882	0.576129
C123	C	0.871192	0.248118	0.826129
C124	C	1.121192	0.498118	1.076129
C125	C	0.447840	-0.251881	0.326121
C126	C	0.697840	-0.001881	0.576121
C127	C	0.947840	0.248119	0.826121
C128	C	1.197840	0.498119	1.076121
C129	C	0.508932	-0.251883	0.326117
C130	C	0.758932	-0.001883	0.576117
C131	C	1.008932	0.248117	0.826117
C132	C	1.258932	0.498117	1.076117
C133	C	1.021437	-0.806194	0.282901
C134	C	1.271437	-0.556194	0.532901
C135	C	1.521437	-0.306194	0.782901
C136	C	1.771437	-0.056194	1.032901
C137	C	1.021463	-0.860799	0.282910
C138	C	1.271463	-0.610799	0.532910
C139	C	1.521463	-0.360799	0.782910
C140	C	1.771463	-0.110799	1.032910
O141	O	1.058326	-0.889034	0.246154
O142	O	1.308326	-0.639034	0.496154
O143	O	1.558326	-0.389034	0.746154
O144	O	1.808326	-0.139034	0.996154
N145	N	0.978162	-0.888116	0.326157
N146	N	1.228162	-0.638116	0.576157
N147	N	1.478162	-0.388116	0.826157
N148	N	1.728162	-0.138116	1.076157
C149	C	0.934836	-0.860825	0.369402
C150	C	1.184836	-0.610825	0.619402
C151	C	1.434836	-0.360825	0.869402
C152	C	1.684836	-0.110825	1.119402
O153	O	0.898008	-0.889075	0.406189
O154	O	1.148008	-0.639075	0.656189
O155	O	1.398008	-0.389075	0.906189
O156	O	1.648008	-0.139075	1.156189
C157	C	0.934814	-0.806222	0.369396
C158	C	1.184814	-0.556222	0.619396
C159	C	1.434814	-0.306222	0.869396
C160	C	1.684814	-0.056222	1.119396
C161	C	0.978113	-0.778908	0.326141
C162	C	1.228113	-0.528908	0.576141
C163	C	1.478113	-0.278908	0.826141
C164	C	1.728113	-0.028908	1.076141
C165	C	1.064733	-0.778880	0.239650
C166	C	1.314733	-0.528880	0.489650
C167	C	1.564733	-0.278880	0.739650
C168	C	1.814733	-0.028880	0.989650
C169	C	1.064706	-0.724279	0.239640
C170	C	1.314706	-0.474279	0.489640
C171	C	1.564706	-0.224279	0.739640
C172	C	1.814706	0.025721	0.989640
C173	C	1.021382	-0.696993	0.282881
C174	C	1.271382	-0.446993	0.532881
C175	C	1.521382	-0.196993	0.782881
C176	C	1.771382	0.053007	1.032881
C177	C	0.978086	-0.724307	0.326132
C178	C	1.228086	-0.474307	0.576132
C179	C	1.478086	-0.224307	0.826132
C180	C	1.728086	0.025693	1.076132
C181	C	0.891492	-0.778933	0.412645
C182	C	1.141492	-0.528933	0.662645
C183	C	1.391492	-0.278933	0.912645
C184	C	1.641492	-0.028933	1.162645
C185	C	0.891474	-0.724326	0.412635
C186	C	1.141474	-0.474326	0.662635
C187	C	1.391474	-0.224326	0.912635
C188	C	1.641474	0.025674	1.162635
C189	C	0.934773	-0.697012	0.369381
C190	C	1.184773	-0.447012	0.619381
C191	C	1.434773	-0.197012	0.869381
C192	C	1.684773	0.052988	1.119381
C193	C	0.934735	-0.642421	0.369363
C194	C	1.184735	-0.392421	0.619363
C195	C	1.434735	-0.142421	0.869363
C196	C	1.684735	0.107579	1.119363
N197	N	0.978036	-0.615104	0.326116
N198	N	1.228036	-0.365104	0.576116
N199	N	1.478036	-0.115104	0.826116
N200	N	1.728036	0.134896	1.076116
C201	C	1.021360	-0.642390	0.282875
C202	C	1.271360	-0.392390	0.532875
C203	C	1.521360	-0.142390	0.782875
C204	C	1.771360	0.107610	1.032875
C205	C	0.934887	-0.975496	0.369413
C206	C	1.184887	-0.725496	0.619413
C207	C	1.434887	-0.475496	0.869413
C208	C	1.684887	-0.225496	1.119413
C209	C	0.934906	-1.030098	0.369416
C210	C	1.184906	-0.780098	0.619416
C211	C	1.434906	-0.530098	0.869416
C212	C	1.684906	-0.280098	1.119416
C213	C	1.021533	-1.030068	0.282924
C214	C	1.271533	-0.780068	0.532924
C215	C	1.521533	-0.530068	0.782924
C216	C	1.771533	-0.280068	1.032924
C217	C	1.021511	-0.975464	0.282918
C218	C	1.271511	-0.725464	0.532918
C219	C	1.521511	-0.475464	0.782918
C220	C	1.771511	-0.225464	1.032918
C221	C	0.978188	-0.948179	0.326166
C222	C	1.228188	-0.698179	0.576166
C223	C	1.478188	-0.448179	0.826166
C224	C	1.728188	-0.198179	1.076166
C225	C	1.021299	-0.527725	0.282857
C226	C	1.271299	-0.277725	0.532857
C227	C	1.521299	-0.027725	0.782857
C228	C	1.771299	0.222275	1.032857
C229	C	1.021266	-0.473119	0.282849
C230	C	1.271266	-0.223119	0.532849
C231	C	1.521266	0.026881	0.782849
C232	C	1.771266	0.276881	1.032849
C233	C	0.934641	-0.473155	0.369343
C234	C	1.184641	-0.223155	0.619343
C235	C	1.434641	0.026845	0.869343
C236	C	1.684641	0.276845	1.119343
C237	C	0.934671	-0.527756	0.369349
C238	C	1.184671	-0.277756	0.619349
C239	C	1.434671	-0.027756	0.869349
C240	C	1.684671	0.222244	1.119349
C241	C	0.978006	-0.555039	0.326104
C242	C	1.228006	-0.305039	0.576104
C243	C	1.478006	-0.055039	0.826104
C244	C	1.728006	0.194961	1.076104
O245	O	0.897893	-0.614151	0.406101
O246	O	1.147893	-0.364151	0.656101
O247	O	1.397893	-0.114151	0.906101
O248	O	1.647893	0.135849	1.156101
O249	O	1.058188	-0.614134	0.246101
O250	O	1.308188	-0.364134	0.496101
O251	O	1.558188	-0.114134	0.746101
O252	O	1.808188	0.135866	0.996101
C253	C	1.154585	-0.251887	0.326134
C254	C	1.404585	-0.001887	0.576134
C255	C	1.654585	0.248113	0.826134
C256	C	1.904585	0.498113	1.076134
C257	C	1.229817	-0.251891	0.326144
C258	C	1.479817	-0.001891	0.576144
C259	C	1.729817	0.248109	0.826144
C260	C	1.979817	0.498109	1.076144
C261	C	0.978081	-0.251844	0.502655
C262	C	1.228081	-0.001844	0.752655
C263	C	1.478081	0.248156	1.002655
C264	C	1.728081	0.498156	1.252655
C265	C	0.978097	-0.251830	0.577887
C266	C	1.228097	-0.001830	0.827887
C267	C	1.478097	0.248170	1.077887
C268	C	1.728097	0.498170	1.327887
C269	C	0.978175	-0.115504	0.326158
C270	C	1.228175	0.134496	0.576158
C271	C	1.478175	0.384496	0.826158
C272	C	1.728175	0.634496	1.076158
C273	C	0.978232	-0.057389	0.326177
C274	C	1.228232	0.192611	0.576177
C275	C	1.478232	0.442611	0.826177
C276	C	1.728232	0.692611	1.076177
C277	C	0.978044	-0.251872	0.150256
C278	C	1.228044	-0.001872	0.400256
C279	C	1.478044	0.248128	0.650256
C280	C	1.728044	0.498128	0.900256
C281	C	0.978159	-0.251738	0.075024
C282	C	1.228159	-0.001738	0.325024
C283	C	1.478159	0.248262	0.575024
C284	C	1.728159	0.498262	0.825024
C285	C	1.021421	-0.218390	0.613249
C286	C	1.271421	0.031610	0.863249
C287	C	1.521421	0.281610	1.113249
C288	C	1.771421	0.531610	1.363249
C289	C	1.021428	-0.218375	0.683937
C290	C	1.271428	0.031625	0.933937
C291	C	1.521428	0.281625	1.183937
C292	C	1.771428	0.531625	1.433937
C293	C	0.978114	-0.251802	0.719262
C294	C	1.228114	-0.001802	0.969262
C295	C	1.478114	0.248198	1.219262
C296	C	1.728114	0.498198	1.469262
C297	C	0.934785	-0.285243	0.683895
C298	C	1.184785	-0.035243	0.933895
C299	C	1.434785	0.214757	1.183895
C300	C	1.684785	0.464757	1.433895
C301	C	0.934775	-0.285255	0.613208
C302	C	1.184775	-0.035255	0.863208
C303	C	1.434775	0.214745	1.113208
C304	C	1.684775	0.464745	1.363208
C305	C	0.934823	-0.285194	0.968969
C306	C	1.184823	-0.035194	1.218969
C307	C	1.434823	0.214806	1.468969
C308	C	1.684823	0.464806	1.718969
C309	C	0.934838	-0.285181	1.039661
C310	C	1.184838	-0.035181	1.289661
C311	C	1.434838	0.214819	1.539661
C312	C	1.684838	0.464819	1.789661
C313	C	1.021476	-0.218314	1.039698
C314	C	1.271476	0.031686	1.289698
C315	C	1.521476	0.281686	1.539698
C316	C	1.771476	0.531686	1.789698
C317	C	1.021466	-0.218326	0.969011
C318	C	1.271466	0.031674	1.219011
C319	C	1.521466	0.281674	1.469011
C320	C	1.771466	0.531674	1.719011
C321	C	0.978135	-0.251765	0.933650
C322	C	1.228135	-0.001765	1.183650
C323	C	1.478135	0.248235	1.433650
C324	C	1.728135	0.498235	1.683650
C325	C	0.978127	-0.251780	0.857001
C326	C	1.228127	-0.001780	1.107001
C327	C	1.478127	0.248220	1.357001
C328	C	1.728127	0.498220	1.607001
C329	C	0.978125	-0.251790	0.795909
C330	C	1.228125	-0.001790	1.045909
C331	C	1.478125	0.248210	1.295909
C332	C	1.728125	0.498210	1.545909
H333	H	0.720372	-0.312622	0.404485
H334	H	0.970372	-0.062622	0.654485
H335	H	1.220372	0.187378	0.904485
H336	H	1.470372	0.437378	1.154485
H337	H	0.856230	-0.801163	0.447864
H338	H	1.106230	-0.551163	0.697864
H339	H	1.356230	-0.301163	0.947864
H340	H	1.606230	-0.051163	1.197864
Cl341	Cl	0.220714	-0.327473	0.423664
Cl342	Cl	0.470714	-0.077473	0.673664
Cl343	Cl	0.720714	0.172527	0.923664
Cl344	Cl	0.970714	0.422527	1.173664
Cl345	Cl	0.880183	-0.438842	0.423704
Cl346	Cl	1.130183	-0.188842	0.673704
Cl347	Cl	1.380183	0.061158	0.923704
Cl348	Cl	1.630183	0.311158	1.173704
Cl349	Cl	0.880381	-0.327207	1.084069
Cl350	Cl	1.130381	-0.077207	1.334069
Cl351	Cl	1.380381	0.172793	1.584069
Cl352	Cl	1.630381	0.422793	1.834069
Cl353	Cl	1.119153	-0.689950	0.185270
Cl354	Cl	1.369153	-0.439950	0.435270
Cl355	Cl	1.619153	-0.189950	0.685270
Cl356	Cl	1.869153	0.060050	0.935270
H357	H	0.899489	-0.312480	0.584417
H358	H	1.149489	-0.062480	0.834417
H359	H	1.399489	0.187520	1.084417
H360	H	1.649489	0.437520	1.334417
Cl361	Cl	0.576509	-0.176300	0.228592
Cl362	Cl	0.826509	0.073700	0.478592
Cl363	Cl	1.076509	0.323700	0.728592
Cl364	Cl	1.326509	0.573700	0.978592
Cl365	Cl	1.119205	-0.813173	0.185283
Cl366	Cl	1.369205	-0.563173	0.435283
Cl367	Cl	1.619205	-0.313173	0.685283
Cl368	Cl	1.869205	-0.063173	0.935283
H369	H	0.720402	-0.191122	0.247713
H370	H	0.970402	0.058878	0.497713
H371	H	1.220402	0.308878	0.747713
H372	H	1.470402	0.558878	0.997713
Cl373	Cl	1.075704	-0.438785	0.228468
Cl374	Cl	1.325704	-0.188785	0.478468
Cl375	Cl	1.575704	0.061215	0.728468
Cl376	Cl	1.825704	0.311215	0.978468
Cl377	Cl	0.576480	-0.327453	0.423638
Cl378	Cl	0.826480	-0.077453	0.673638
Cl379	Cl	1.076480	0.172547	0.923638
Cl380	Cl	1.326480	0.422547	1.173638
H381	H	0.899550	-0.312430	0.940187
H382	H	1.149550	-0.062430	1.190187
H383	H	1.399550	0.187570	1.440187
H384	H	1.649550	0.437570	1.690187
H385	H	0.364633	-0.191140	0.247735
H386	H	0.614633	0.058860	0.497735
H387	H	0.864633	0.308860	0.747735
H388	H	1.114633	0.558860	0.997735
Cl389	Cl	0.220745	-0.176318	0.228615
Cl390	Cl	0.470745	0.073682	0.478615
Cl391	Cl	0.720745	0.323682	0.728615
Cl392	Cl	0.970745	0.573682	0.978615
H393	H	1.056587	-0.549933	0.247644
H394	H	1.306587	-0.299933	0.497644
H395	H	1.556587	-0.049933	0.747644
H396	H	1.806587	0.200067	0.997644
Cl397	Cl	0.880330	-0.327265	0.728304
Cl398	Cl	1.130330	-0.077265	0.978304
Cl399	Cl	1.380330	0.172735	1.228304
Cl400	Cl	1.630330	0.422735	1.478304
H401	H	0.364612	-0.312634	0.404516
H402	H	0.614612	-0.062634	0.654516
H403	H	0.864612	0.187366	0.904516
H404	H	1.114612	0.437366	1.154516
Cl405	Cl	1.075880	-0.176367	0.568847
Cl406	Cl	1.325880	0.073633	0.818847
Cl407	Cl	1.575880	0.323633	1.068847
Cl408	Cl	1.825880	0.573633	1.318847
Cl409	Cl	0.880413	-0.941200	0.423781
Cl410	Cl	1.130413	-0.691200	0.673781
Cl411	Cl	1.380413	-0.441200	0.923781
Cl412	Cl	1.630413	-0.191200	1.173781
Cl413	Cl	1.075947	-0.941132	0.228540
Cl414	Cl	1.325947	-0.691132	0.478540
Cl415	Cl	1.575947	-0.441132	0.728540
Cl416	Cl	1.825947	-0.191132	0.978540
Cl417	Cl	1.075997	-1.064381	0.228562
Cl418	Cl	1.325997	-0.814381	0.478562
Cl419	Cl	1.575997	-0.564381	0.728562
Cl420	Cl	1.825997	-0.314381	0.978562
Cl421	Cl	0.880462	-1.064430	0.423788
Cl422	Cl	1.130462	-0.814430	0.673788
Cl423	Cl	1.380462	-0.564430	0.923788
Cl424	Cl	1.630462	-0.314430	1.173788
Cl425	Cl	0.837008	-0.690028	0.467009
Cl426	Cl	1.087008	-0.440028	0.717009
Cl427	Cl	1.337008	-0.190028	0.967009
Cl428	Cl	1.587008	0.059972	1.217009
H429	H	0.899415	-0.549996	0.404573
H430	H	1.149415	-0.299996	0.654573
H431	H	1.399415	-0.049996	0.904573
H432	H	1.649415	0.200004	1.154573
H433	H	1.056708	-0.191146	0.712726
H434	H	1.306708	0.058854	0.962726
H435	H	1.556708	0.308854	1.212726
H436	H	1.806708	0.558854	1.462726
H437	H	1.056739	-0.191108	0.940252
H438	H	1.306739	0.058892	1.190252
H439	H	1.556739	0.308892	1.440252
H440	H	1.806739	0.558892	1.690252
Cl441	Cl	1.075947	-0.176274	1.084156
Cl442	Cl	1.325947	0.073726	1.334156
Cl443	Cl	1.575947	0.323726	1.584156
Cl444	Cl	1.825947	0.573726	1.834156
