data_functionalizedCrystal
_audit_creation_method	'MofGen! by Chris Wilmer'
_symmetry_space_group_name_H-M	'P1'
_symmetry_Int_Tables_number	1
_symmetry_cell_setting	triclinic
loop_
_symmetry_equiv_pos_as_xyz
  x,y,z
_cell_length_a	13.032987
_cell_length_b	13.032127
_cell_length_c	13.032268
_cell_angle_alpha	89.069017
_cell_angle_beta	89.114903
_cell_angle_gamma	90.899754
loop_
_atom_site_label
_atom_site_type_symbol
_atom_site_fract_x
_atom_site_fract_y
_atom_site_fract_z
Zn1	Zn	-1.423897	-0.684157	-0.684463
Zn2	Zn	-1.429189	-0.835089	-0.491212
Zn3	Zn	-1.278369	-0.641836	-0.496664
Zn4	Zn	-1.236036	-0.829609	-0.642103
O5	O	-1.341873	-0.747673	-0.578611
O6	O	-1.566338	-0.724184	-0.674275
O7	O	-1.429114	-0.794036	-0.350192
O8	O	-1.313176	-0.505701	-0.541585
O9	O	-1.570226	-0.835073	-0.532294
O10	O	-1.420094	-0.536794	-0.679561
O11	O	-1.318307	-0.652054	-0.354197
O12	O	-1.131015	-0.646740	-0.500510
O13	O	-1.241025	-0.825732	-0.789465
O14	O	-1.099913	-0.784696	-0.607364
O15	O	-1.379046	-0.718870	-0.820587
O16	O	-1.388065	-0.976111	-0.491219
O17	O	-1.246157	-0.972085	-0.602077
C18	C	-1.078713	-0.710531	-0.549932
C19	C	-0.966126	-0.694669	-0.537684
C20	C	-0.784205	-0.739550	-0.572337
C21	C	-0.900570	-0.755949	-0.584993
C22	C	-1.313116	-1.010858	-0.541485
C23	C	-1.300901	-1.123467	-0.525646
C24	C	-0.606062	-0.784953	-0.607394
C25	C	-0.718649	-0.800821	-0.619640
C26	C	-1.335678	-1.305364	-0.570540
C27	C	-1.348310	-1.188979	-0.586914
C28	C	-1.304723	-0.776410	-0.842806
C29	C	-1.288892	-0.788657	-0.955391
C30	C	-1.370767	-0.483466	-0.615906
C31	C	-1.383080	-0.370877	-0.631800
C32	C	-1.350124	-0.741243	-1.020983
C33	C	-1.333763	-0.753899	-1.137345
C34	C	-1.378945	-0.718982	-0.315459
C35	C	-1.395003	-0.706478	-0.202937
H36	H	-0.930587	-0.820547	-0.634870
H37	H	-0.936109	-0.630063	-0.487818
H38	H	-1.459538	-0.656506	-1.172953
O39	O	-1.203400	-0.854838	-0.995100
H40	H	-1.203968	-0.854396	-1.080264
H41	H	-0.754183	-0.674949	-0.522474
O42	O	-1.269528	-1.345195	-0.485013
H43	H	-1.236720	-1.279502	-0.442634
H44	H	-1.250955	-1.153536	-0.461079
H45	H	-1.414655	-0.691277	-0.990993
H46	H	-0.748672	-0.865415	-0.669513
H47	H	-1.398244	-1.158909	-0.651490
O48	O	-1.248264	-0.820079	-1.177050
H49	H	-1.281228	-0.883225	-1.222923
O50	O	-1.449233	-1.331055	-0.717329
H51	H	-1.448781	-1.245891	-0.716761
