data_functionalizedCrystal
_audit_creation_method	'MofGen! by Chris Wilmer'
_symmetry_space_group_name_H-M	'P1'
_symmetry_Int_Tables_number	1
_symmetry_cell_setting	triclinic
loop_
_symmetry_equiv_pos_as_xyz
  x,y,z
_cell_length_a	19.805407
_cell_length_b	17.637651
_cell_length_c	19.805399
_cell_angle_alpha	78.757390
_cell_angle_beta	89.980427
_cell_angle_gamma	101.218564
loop_
_atom_site_label
_atom_site_type_symbol
_atom_site_fract_x
_atom_site_fract_y
_atom_site_fract_z
Zn1	Zn	0.980303	-0.314779	-0.328177
Zn2	Zn	1.230303	-0.064779	-0.078177
Zn3	Zn	1.480303	0.185221	0.171823
Zn4	Zn	1.730303	0.435221	0.421823
Zn5	Zn	0.957355	-0.446994	-0.192080
Zn6	Zn	1.207355	-0.196994	0.057920
Zn7	Zn	1.457355	0.053006	0.307920
Zn8	Zn	1.707355	0.303006	0.557920
Zn9	Zn	0.867114	-0.314800	-0.214998
Zn10	Zn	1.117114	-0.064800	0.035002
Zn11	Zn	1.367114	0.185200	0.285002
Zn12	Zn	1.617114	0.435200	0.535002
Zn13	Zn	0.844226	-0.446952	-0.305234
Zn14	Zn	1.094226	-0.196952	-0.055234
Zn15	Zn	1.344226	0.053048	0.194766
Zn16	Zn	1.594226	0.303048	0.444766
O17	O	0.912250	-0.380881	-0.260122
O18	O	1.162250	-0.130881	-0.010122
O19	O	1.412250	0.119119	0.239878
O20	O	1.662250	0.369119	0.489878
O21	O	1.071974	-0.332326	-0.310134
O22	O	1.321974	-0.082326	-0.060134
O23	O	1.571974	0.167674	0.189866
O24	O	1.821974	0.417674	0.439866
O25	O	0.945360	-0.429485	-0.100399
O26	O	1.195360	-0.179485	0.149601
O27	O	1.445360	0.070515	0.399601
O28	O	1.695360	0.320515	0.649601
O29	O	0.901312	-0.204159	-0.249205
O30	O	1.151312	0.045841	0.000795
O31	O	1.401312	0.295841	0.250795
O32	O	1.651312	0.545841	0.500795
O33	O	1.055114	-0.429464	-0.210144
O34	O	1.305114	-0.179464	0.039856
O35	O	1.555114	0.070536	0.289856
O36	O	1.805114	0.320536	0.539856
O37	O	0.984471	-0.204143	-0.332357
O38	O	1.234471	0.045857	-0.082357
O39	O	1.484471	0.295857	0.167643
O40	O	1.734471	0.545857	0.417643
O41	O	0.879060	-0.332363	-0.117237
O42	O	1.129060	-0.082363	0.132763
O43	O	1.379060	0.167637	0.382763
O44	O	1.629060	0.417637	0.632763
O45	O	0.769363	-0.332322	-0.226958
O46	O	1.019363	-0.082322	0.023042
O47	O	1.269363	0.167678	0.273042
O48	O	1.519363	0.417678	0.523042
O49	O	0.862302	-0.429392	-0.402999
O50	O	1.112302	-0.179392	-0.152999
O51	O	1.362302	0.070608	0.097001
O52	O	1.612302	0.320608	0.347001
O53	O	0.752547	-0.429413	-0.293254
O54	O	1.002547	-0.179413	-0.043254
O55	O	1.252547	0.070587	0.206746
O56	O	1.502547	0.320587	0.456746
O57	O	0.962277	-0.332285	-0.419855
O58	O	1.212277	-0.082285	-0.169855
O59	O	1.462277	0.167715	0.080145
O60	O	1.712277	0.417715	0.330145
O61	O	0.923166	-0.557627	-0.187897
O62	O	1.173166	-0.307627	0.062103
O63	O	1.423166	-0.057627	0.312103
O64	O	1.673166	0.192373	0.562103
O65	O	0.840050	-0.557596	-0.271031
O66	O	1.090050	-0.307596	-0.021031
O67	O	1.340050	-0.057596	0.228969
O68	O	1.590050	0.192404	0.478969
C69	C	0.736396	-0.380866	-0.260103
C70	C	0.986396	-0.130866	-0.010103
C71	C	1.236396	0.119134	0.239897
C72	C	1.486396	0.369134	0.489897
C73	C	0.661162	-0.380879	-0.260108
C74	C	0.911162	-0.130879	-0.010108
C75	C	1.161162	0.119121	0.239892
C76	C	1.411162	0.369121	0.489892
C77	C	0.617066	-0.431510	-0.294545
C78	C	0.867066	-0.181510	-0.044545
C79	C	1.117066	0.068490	0.205455
C80	C	1.367066	0.318490	0.455455
C81	C	0.546378	-0.431512	-0.294554
C82	C	0.796378	-0.181512	-0.044554
C83	C	1.046378	0.068488	0.205446
C84	C	1.296378	0.318488	0.455446
C85	C	0.519785	-0.380885	-0.260122
C86	C	0.769785	-0.130885	-0.010122
C87	C	1.019785	0.119115	0.239878
C88	C	1.269785	0.369115	0.489878
C89	C	0.563887	-0.330248	-0.225684
C90	C	0.813887	-0.080248	0.024316
C91	C	1.063887	0.169752	0.274316
C92	C	1.313887	0.419752	0.524316
C93	C	0.634575	-0.330243	-0.225679
C94	C	0.884575	-0.080243	0.024321
C95	C	1.134575	0.169757	0.274321
C96	C	1.384575	0.419757	0.524321
C97	C	0.278811	-0.330265	-0.225703
C98	C	0.528811	-0.080265	0.024297
C99	C	0.778811	0.169735	0.274297
C100	C	1.028811	0.419735	0.524297
C101	C	0.208117	-0.330276	-0.225709
C102	C	0.458117	-0.080276	0.024291
C103	C	0.708117	0.169724	0.274291
C104	C	0.958117	0.419724	0.524291
C105	C	0.190613	-0.431534	-0.294578
C106	C	0.440613	-0.181534	-0.044578
C107	C	0.690613	0.068466	0.205422
C108	C	0.940613	0.318466	0.455422
C109	C	0.261301	-0.431529	-0.294573
C110	C	0.511301	-0.181529	-0.044573
C111	C	0.761301	0.068471	0.205427
C112	C	1.011301	0.318471	0.455427
C113	C	0.305397	-0.380889	-0.260139
C114	C	0.555397	-0.130889	-0.010139
C115	C	0.805397	0.119111	0.239861
C116	C	1.055397	0.369111	0.489861
C117	C	0.382046	-0.380887	-0.260130
C118	C	0.632046	-0.130887	-0.010130
C119	C	0.882046	0.119113	0.239870
C120	C	1.132046	0.369113	0.489870
C121	C	0.443137	-0.380890	-0.260126
C122	C	0.693137	-0.130890	-0.010126
C123	C	0.943137	0.119110	0.239874
C124	C	1.193137	0.369110	0.489874
C125	C	0.876652	-0.586299	-0.224502
C126	C	1.126652	-0.336299	0.025498
C127	C	1.376652	-0.086299	0.275498
C128	C	1.626652	0.163701	0.525498
C129	C	0.861485	-0.674177	-0.209286
C130	C	1.111485	-0.424177	0.040714
C131	C	1.361485	-0.174177	0.290714
C132	C	1.611485	0.075823	0.540714
C133	C	1.027910	-0.962863	-0.375930
C134	C	1.277910	-0.712863	-0.125930
C135	C	1.527910	-0.462863	0.124070
C136	C	1.777910	-0.212863	0.374070
C137	C	1.013637	-1.045438	-0.361620
C138	C	1.263637	-0.795438	-0.111620
C139	C	1.513637	-0.545438	0.138380
C140	C	1.763637	-0.295438	0.388380
C141	C	0.927101	-1.045562	-0.274950
C142	C	1.177101	-0.795562	-0.024950
C143	C	1.427101	-0.545562	0.225050
C144	C	1.677101	-0.295562	0.475050
C145	C	0.941369	-0.962985	-0.289250
C146	C	1.191369	-0.712985	-0.039250
C147	C	1.441369	-0.462985	0.210750
C148	C	1.691369	-0.212985	0.460750
C149	C	0.991774	-0.921642	-0.339741
C150	C	1.241774	-0.671642	-0.089741
C151	C	1.491774	-0.421642	0.160259
C152	C	1.741774	-0.171642	0.410259
C153	C	0.905232	-0.921764	-0.253061
C154	C	1.155232	-0.671764	-0.003061
C155	C	1.405232	-0.421764	0.246939
C156	C	1.655232	-0.171764	0.496939
C157	C	0.919497	-0.839195	-0.267363
C158	C	1.169497	-0.589195	-0.017363
C159	C	1.419497	-0.339195	0.232637
C160	C	1.669497	-0.089195	0.482637
C161	C	0.969898	-0.797846	-0.317853
C162	C	1.219898	-0.547846	-0.067853
C163	C	1.469898	-0.297846	0.182147
C164	C	1.719898	-0.047846	0.432147
C165	C	1.006039	-0.839072	-0.354043
C166	C	1.256039	-0.589072	-0.104043
C167	C	1.506039	-0.339072	0.145957
C168	C	1.756039	-0.089072	0.395957
C169	C	0.854824	-0.963109	-0.202574
C170	C	1.104824	-0.713109	0.047426
C171	C	1.354824	-0.463109	0.297426
C172	C	1.604824	-0.213109	0.547426
C173	C	0.818688	-0.921888	-0.166385
C174	C	1.068688	-0.671888	0.083615
C175	C	1.318688	-0.421888	0.333615
C176	C	1.568688	-0.171888	0.583615
C177	C	0.832956	-0.839317	-0.180683
C178	C	1.082956	-0.589317	0.069317
C179	C	1.332956	-0.339317	0.319317
C180	C	1.582956	-0.089317	0.569317
C181	C	0.883357	-0.797968	-0.231173
C182	C	1.133357	-0.547968	0.018827
C183	C	1.383357	-0.297968	0.268827
C184	C	1.633357	-0.047968	0.518827
C185	C	0.796816	-0.798090	-0.144494
C186	C	1.046816	-0.548090	0.105506
C187	C	1.296816	-0.298090	0.355506
C188	C	1.546816	-0.048090	0.605506
C189	C	0.811080	-0.715521	-0.158795
C190	C	1.061080	-0.465521	0.091205
C191	C	1.311080	-0.215521	0.341205
C192	C	1.561080	0.034479	0.591205
C193	C	0.897622	-0.715398	-0.245475
C194	C	1.147622	-0.465398	0.004525
C195	C	1.397622	-0.215398	0.254525
C196	C	1.647622	0.034602	0.504525
C197	C	1.088790	-0.380897	-0.260142
C198	C	1.338790	-0.130897	-0.010142
C199	C	1.588790	0.119103	0.239858
C200	C	1.838790	0.369103	0.489858
C201	C	1.164020	-0.380904	-0.260150
C202	C	1.414020	-0.130904	-0.010150
C203	C	1.664020	0.119096	0.239850
C204	C	1.914020	0.369096	0.489850
C205	C	0.912296	-0.380831	-0.436674
C206	C	1.162296	-0.130831	-0.186674
C207	C	1.412296	0.119169	0.063326
C208	C	1.662296	0.369169	0.313326
C209	C	0.912316	-0.380810	-0.511910
C210	C	1.162316	-0.130810	-0.261910
C211	C	1.412316	0.119190	-0.011910
C212	C	1.662316	0.369190	0.238090
C213	C	0.948005	-0.174661	-0.295897
C214	C	1.198005	0.075339	-0.045897
C215	C	1.448005	0.325339	0.204103
C216	C	1.698005	0.575339	0.454103
C217	C	0.963241	-0.086783	-0.311142
C218	C	1.213241	0.163217	-0.061142
C219	C	1.463241	0.413217	0.188858
C220	C	1.713241	0.663217	0.438858
C221	C	0.964375	-0.330244	-0.556032
C222	C	1.214375	-0.080244	-0.306032
C223	C	1.464375	0.169756	-0.056032
C224	C	1.714375	0.419756	0.193968
C225	C	0.964386	-0.330221	-0.626725
C226	C	1.214386	-0.080221	-0.376725
C227	C	1.464386	0.169779	-0.126725
C228	C	1.714386	0.419779	0.123275
C229	C	0.912340	-0.380769	-0.653292
C230	C	1.162340	-0.130769	-0.403292
C231	C	1.412340	0.119231	-0.153292
C232	C	1.662340	0.369231	0.096708
C233	C	0.860276	-0.431337	-0.609164
C234	C	1.110276	-0.181337	-0.359164
C235	C	1.360276	0.068663	-0.109164
C236	C	1.610276	0.318663	0.140836
C237	C	0.860263	-0.431356	-0.538474
C238	C	1.110263	-0.181356	-0.288474
C239	C	1.360263	0.068644	-0.038474
C240	C	1.610263	0.318644	0.211526
C241	C	0.860327	-0.431264	-0.894250
C242	C	1.110327	-0.181264	-0.644250
C243	C	1.360327	0.068736	-0.394250
C244	C	1.610327	0.318736	-0.144250
C245	C	0.860345	-0.431243	-0.964946
C246	C	1.110345	-0.181243	-0.714946
C247	C	1.360345	0.068757	-0.464946
C248	C	1.610345	0.318757	-0.214946
C249	C	0.964450	-0.330129	-0.982501
C250	C	1.214450	-0.080129	-0.732501
C251	C	1.464450	0.169871	-0.482501
C252	C	1.714450	0.419871	-0.232501
C253	C	0.964437	-0.330147	-0.911811
C254	C	1.214437	-0.080147	-0.661811
C255	C	1.464437	0.169853	-0.411811
C256	C	1.714437	0.419853	-0.161811
C257	C	0.912371	-0.380712	-0.867690
C258	C	1.162371	-0.130712	-0.617690
C259	C	1.412371	0.119288	-0.367690
C260	C	1.662371	0.369288	-0.117690
C261	C	0.912359	-0.380736	-0.791037
C262	C	1.162359	-0.130736	-0.541037
C263	C	1.412359	0.119264	-0.291037
C264	C	1.662359	0.369264	-0.041037
C265	C	0.912354	-0.380750	-0.729943
C266	C	1.162354	-0.130750	-0.479943
C267	C	1.412354	0.119250	-0.229943
C268	C	1.662354	0.369250	0.020057
C269	C	0.912252	-0.380874	-0.084268
C270	C	1.162252	-0.130874	0.165732
C271	C	1.412252	0.119126	0.415732
C272	C	1.662252	0.369126	0.665732
C273	C	0.912402	-0.380672	-0.009071
C274	C	1.162402	-0.130672	0.240929
C275	C	1.412402	0.119328	0.490929
C276	C	1.662402	0.369328	0.740929
H277	H	0.154702	-0.472764	-0.322620
H278	H	0.404702	-0.222764	-0.072620
H279	H	0.654702	0.027236	0.177380
H280	H	0.904702	0.277236	0.427380
F281	F	0.289598	-0.485416	-0.331218
F282	F	0.539598	-0.235416	-0.081218
F283	F	0.789598	0.014584	0.168782
F284	F	1.039598	0.264584	0.418782
H285	H	0.817960	-0.472407	-0.986574
H286	H	1.067960	-0.222407	-0.736574
H287	H	1.317960	0.027593	-0.486574
H288	H	1.567960	0.277593	-0.236574
H289	H	0.186469	-0.289044	-0.197671
H290	H	0.436469	-0.039044	0.052329
H291	H	0.686469	0.210956	0.302329
H292	H	0.936469	0.460956	0.552329
F293	F	0.325732	-0.276368	-0.189057
F294	F	0.575732	-0.026368	0.060943
F295	F	0.825732	0.223632	0.310943
F296	F	1.075732	0.473632	0.560943
H297	H	0.817898	-0.472491	-0.630802
H298	H	1.067898	-0.222491	-0.380802
H299	H	1.317898	0.027509	-0.130802
H300	H	1.567898	0.277509	0.119198
H301	H	0.542231	-0.289023	-0.197652
H302	H	0.792231	-0.039023	0.052348
H303	H	1.042231	0.210977	0.302348
H304	H	1.292231	0.460977	0.552348
F305	F	0.681506	-0.276352	-0.189028
F306	F	0.931506	-0.026352	0.060972
F307	F	1.181506	0.223648	0.310972
F308	F	1.431506	0.473648	0.560972
H309	H	0.938672	-0.681735	-0.286585
H310	H	1.188672	-0.431735	-0.036585
H311	H	1.438672	-0.181735	0.213415
H312	H	1.688672	0.068265	0.463415
F313	F	0.743165	-0.842101	-0.090768
F314	F	0.993165	-0.592101	0.159232
F315	F	1.243165	-0.342101	0.409232
F316	F	1.493165	-0.092101	0.659232
F317	F	1.019832	-0.276350	-0.883540
F318	F	1.269832	-0.026350	-0.633540
F319	F	1.519832	0.223650	-0.383540
F320	F	1.769832	0.473650	-0.133540
H321	H	0.981512	-0.730612	-0.329496
H322	H	1.231512	-0.480612	-0.079496
H323	H	1.481512	-0.230612	0.170504
H324	H	1.731512	0.019388	0.420504
F325	F	1.019812	-0.276429	-0.673676
F326	F	1.269812	-0.026429	-0.423676
F327	F	1.519812	0.223571	-0.173676
F328	F	1.769812	0.473571	0.076324
H329	H	0.510477	-0.472742	-0.322595
H330	H	0.760477	-0.222742	-0.072595
H331	H	1.010477	0.027258	0.177405
H332	H	1.260477	0.277258	0.427405
H333	H	0.777647	-0.955561	-0.125277
H334	H	1.027647	-0.705561	0.124723
H335	H	1.277647	-0.455561	0.374723
H336	H	1.527647	-0.205561	0.624723
H337	H	1.047088	-0.805409	-0.395153
H338	H	1.297088	-0.555409	-0.145153
H339	H	1.547088	-0.305409	0.104847
H340	H	1.797088	-0.055409	0.354847
H341	H	1.068960	-0.929200	-0.417040
H342	H	1.318960	-0.679200	-0.167040
H343	H	1.568960	-0.429200	0.082960
H344	H	1.818960	-0.179200	0.332960
H345	H	0.781654	-0.681958	-0.129327
H346	H	1.031654	-0.431958	0.120673
H347	H	1.281654	-0.181958	0.370673
H348	H	1.531654	0.068042	0.620673
H349	H	1.043058	-1.078997	-0.391103
H350	H	1.293058	-0.828997	-0.141103
H351	H	1.543058	-0.578997	0.108897
H352	H	1.793058	-0.328997	0.358897
F353	F	0.804854	-0.485173	-0.491515
F354	F	1.054854	-0.235173	-0.241515
F355	F	1.304854	0.014827	0.008485
F356	F	1.554854	0.264827	0.258485
F357	F	0.873453	-1.089571	-0.221220
F358	F	1.123453	-0.839571	0.028780
F359	F	1.373453	-0.589571	0.278780
F360	F	1.623453	-0.339571	0.528780
F361	F	0.804914	-0.485080	-0.847302
F362	F	1.054914	-0.235080	-0.597302
F363	F	1.304914	0.014920	-0.347302
F364	F	1.554914	0.264920	-0.097302
H365	H	0.638711	-0.472739	-0.322581
H366	H	0.888711	-0.222739	-0.072581
H367	H	1.138711	0.027261	0.177419
H368	H	1.388711	0.277261	0.427419
H369	H	1.006842	-0.288953	-1.018435
H370	H	1.256842	-0.038953	-0.768435
H371	H	1.506842	0.211047	-0.518435
H372	H	1.756842	0.461047	-0.268435
H373	H	0.843205	-1.030342	-0.190938
H374	H	1.093205	-0.780342	0.059062
H375	H	1.343205	-0.530342	0.309062
H376	H	1.593205	-0.280342	0.559062
H377	H	1.006758	-0.289084	-0.534407
H378	H	1.256758	-0.039084	-0.284407
H379	H	1.506758	0.210916	-0.034407
H380	H	1.756758	0.460916	0.215593
