data_functionalizedCrystal
_audit_creation_method	'MofGen! by Chris Wilmer'
_symmetry_space_group_name_H-M	'P1'
_symmetry_Int_Tables_number	1
_symmetry_cell_setting	triclinic
loop_
_symmetry_equiv_pos_as_xyz
  x,y,z
_cell_length_a	10.654543
_cell_length_b	16.176319
_cell_length_c	10.654550
_cell_angle_alpha	90.006621
_cell_angle_beta	95.516448
_cell_angle_gamma	89.997267
loop_
_atom_site_label
_atom_site_type_symbol
_atom_site_fract_x
_atom_site_fract_y
_atom_site_fract_z
O1	O	-1.667851	0.068657	0.176362
O2	O	-1.302372	0.068679	0.193177
O3	O	-1.493514	0.068662	0.002030
O4	O	-1.476708	0.068674	0.367509
O5	O	-1.493488	-0.068831	0.002017
O6	O	-1.302345	-0.068815	0.193164
O7	O	-1.667824	-0.068836	0.176349
Cu8	Cu	-1.485082	-0.081379	0.184756
Cu9	Cu	-1.485114	0.081222	0.184771
O10	O	-1.476682	-0.068820	0.367496
C11	C	-1.255560	-0.000065	0.191938
C12	C	-1.116116	-0.000057	0.188249
C13	C	-1.036631	-0.000055	0.300793
C14	C	-0.905609	-0.000067	0.297319
C15	C	-0.933573	-0.000081	0.068749
C16	C	-1.064591	-0.000075	0.072224
N17	N	-1.485069	-0.195745	0.184745
C18	C	-1.569733	-0.239016	0.100140
C19	C	-1.569740	-0.325563	0.100139
C20	C	-1.485087	-0.368837	0.184749
C21	C	-1.400414	-0.325560	0.269358
C22	C	-1.400402	-0.239014	0.269352
C23	C	-1.400457	-0.674588	0.269382
C24	C	-1.400478	-0.761140	0.269384
C25	C	-1.569794	-0.761137	0.100168
C26	C	-1.569783	-0.674591	0.100163
C27	C	-1.485106	-0.631322	0.184766
C28	C	-1.485098	-0.537477	0.184765
C29	C	-1.485100	-0.462680	0.184757
C30	C	-0.714635	-0.000086	0.177595
C31	C	-0.854077	-0.000076	0.181301
C32	C	-1.492267	-0.000084	-0.044774
C33	C	-1.488575	-0.000082	-0.184217
N34	N	-1.485137	0.195587	0.184772
C35	C	-1.601117	-0.000089	-0.263706
C36	C	-1.597641	-0.000078	-0.394726
C37	C	-1.369070	-0.000059	-0.366758
C38	C	-1.372548	-0.000063	-0.235740
C39	C	-1.477929	-0.000072	0.414300
C40	C	-1.481621	-0.000068	0.553744
H41	H	-0.840896	-0.000067	0.388964
H42	H	-1.274605	-0.000045	-0.408724
O43	O	-1.318335	-0.196886	0.351594
C44	C	-1.386253	-0.146824	0.429719
H45	H	-1.484092	-0.133855	0.380610
H46	H	-1.333997	-0.085968	0.449093
H47	H	-1.395591	-0.180166	0.522624
H48	H	-1.331512	-0.639365	0.338271
H49	H	-1.280897	-0.000056	-0.171016
O50	O	-1.141993	-0.000110	-0.036990
C51	C	-1.268681	-0.000082	-0.009040
H52	H	-1.274554	-0.026108	0.089651
H53	H	-1.327410	-0.040001	-0.080705
H54	H	-1.306521	0.065882	-0.013464
H55	H	-1.689284	-0.000081	-0.459442
H56	H	-1.078578	-0.000047	0.395268
H57	H	-1.331539	-0.796372	0.338286
O58	O	-1.318128	-0.367687	0.351374
C59	C	-1.240059	-0.417750	0.283395
H60	H	-1.289231	-0.430719	0.185582
H61	H	-1.220657	-0.478605	0.335636
H62	H	-1.147161	-0.384408	0.273999
O63	O	-0.883310	-0.000054	-0.043844
C64	C	-0.750625	-0.000078	-0.022781
H65	H	-0.720714	0.025956	0.074962
H66	H	-0.709760	0.039835	-0.097087
H67	H	-0.714107	-0.066042	-0.029188
O68	O	-1.652013	-0.197111	0.017827
C69	C	-1.726760	-0.253867	-0.056826
H70	H	-1.675265	-0.315564	-0.058716
H71	H	-1.745048	-0.228872	-0.156951
H72	H	-1.820408	-0.263059	-0.015181
O73	O	-1.713851	0.000049	-0.213714
C74	C	-1.782547	0.071247	-0.254247
H75	H	-1.714729	0.121021	-0.282070
H76	H	-1.836677	0.095145	-0.174423
H77	H	-1.851785	0.055147	-0.339021
O78	O	-1.651865	-0.367725	0.018003
C79	C	-1.633744	-0.453391	0.036163
H80	H	-1.534303	-0.465216	0.082171
H81	H	-1.646903	-0.486289	-0.058820
H82	H	-1.705370	-0.477940	0.099819
O83	O	-1.652060	-0.632684	0.017850
C84	C	-1.726810	-0.689436	-0.056807
H85	H	-1.675320	-0.751135	-0.058699
H86	H	-1.745094	-0.664439	-0.156931
H87	H	-1.820460	-0.698625	-0.015164
H88	H	-1.638739	-0.796376	0.031275
