data_functionalizedCrystal
_audit_creation_method	'MofGen! by Chris Wilmer'
_symmetry_space_group_name_H-M	'P1'
_symmetry_Int_Tables_number	1
_symmetry_cell_setting	triclinic
loop_
_symmetry_equiv_pos_as_xyz
  x,y,z
_cell_length_a	15.625950
_cell_length_b	17.699092
_cell_length_c	14.185229
_cell_angle_alpha	104.807535
_cell_angle_beta	122.248691
_cell_angle_gamma	83.788816
loop_
_atom_site_label
_atom_site_type_symbol
_atom_site_fract_x
_atom_site_fract_y
_atom_site_fract_z
O1	O	1.279167	0.169129	0.381751
O2	O	0.994071	0.161808	0.278075
O3	O	1.144670	0.055838	0.332843
O4	O	1.128568	0.275098	0.326983
O5	O	1.184208	0.089184	0.514063
O6	O	1.033609	0.195153	0.459295
O7	O	1.318705	0.202474	0.562972
Cu8	Cu	1.179767	0.201858	0.527680
Cu9	Cu	1.133009	0.162424	0.313366
O10	O	1.168106	0.308443	0.508203
C11	C	1.163861	0.044274	0.423241
C12	C	1.162125	-0.039865	0.422605
C13	C	0.977363	0.175504	0.355420
C14	C	0.868671	0.166627	0.315893
C15	C	1.139759	-0.097566	0.323525
C16	C	1.138123	-0.176623	0.322929
C17	C	1.158859	-0.197977	0.421416
C18	C	1.181223	-0.140270	0.520503
C19	C	1.182852	-0.061214	0.521096
C20	C	1.174651	-0.459090	0.518114
C21	C	1.173022	-0.538153	0.517515
C22	C	1.129921	-0.574498	0.319948
C23	C	1.131551	-0.495443	0.320540
C24	C	1.153909	-0.437742	0.419624
C25	C	1.155682	-0.352020	0.420269
C26	C	1.157093	-0.283698	0.420775
C27	C	0.618837	0.228329	0.679679
C28	C	0.516691	0.219993	0.642486
C29	C	0.473639	0.183646	0.444946
C30	C	0.575782	0.191982	0.482121
C31	C	0.648374	0.214323	0.599489
C32	C	0.605320	0.177977	0.401931
C33	C	0.707455	0.186309	0.439105
C34	C	0.780053	0.208647	0.556467
C35	C	0.750510	0.222656	0.636662
C36	C	0.532727	0.155630	0.284565
C37	C	0.562265	0.141624	0.204375
C38	C	0.664401	0.149962	0.241547
C39	C	0.736999	0.172300	0.358910
C40	C	0.693944	0.135953	0.161353
C41	C	0.796079	0.144285	0.198526
C42	C	0.839134	0.180632	0.396083
C43	C	1.335413	0.188778	0.485624
C44	C	1.444103	0.197654	0.525143
C45	C	1.148915	0.320008	0.417803
C46	C	1.150650	0.404145	0.418431
N47	N	1.212662	0.229594	0.678420
N48	N	1.100122	0.134682	0.162629
C49	C	1.309288	0.311031	0.871084
C50	C	1.284371	0.290034	0.756996
C51	C	1.165844	0.190124	0.713910
C52	C	1.190754	0.211110	0.827997
C53	C	1.262476	0.271564	0.906575
C54	C	1.143942	0.171643	0.863488
C55	C	1.168847	0.192630	0.977564
C56	C	1.240563	0.253083	1.056149
C57	C	1.287380	0.292551	1.020651
C58	C	1.072216	0.111193	0.784906
C59	C	1.025404	0.071726	0.820398
C60	C	1.050314	0.092709	0.934478
C61	C	1.122030	0.153162	1.013062
C62	C	1.003497	0.053241	0.969975
C63	C	1.028401	0.074228	1.084051
C64	C	1.146934	0.174149	1.127138
H65	H	1.122879	-0.080187	0.243327
H66	H	1.107445	0.140904	0.649915
H67	H	1.051935	0.094111	0.692017
H68	H	1.189907	-0.555534	0.597719
H69	H	1.119915	-0.223601	0.242250
H70	H	1.345789	0.341774	1.084638
H71	H	1.114670	-0.478062	0.240344
H72	H	1.111711	-0.621488	0.239267
H73	H	0.449563	0.148851	0.254302
H74	H	0.503148	0.123431	0.108814
H75	H	1.260838	0.270171	1.149035
H76	H	1.192876	-0.412119	0.598802
H77	H	0.967005	0.022505	0.756404
H78	H	1.198100	-0.157663	0.600691
H79	H	0.820127	0.132884	0.133227
H80	H	1.201050	-0.014233	0.601772
H81	H	1.205343	0.223372	1.191124
H82	H	0.634827	0.117755	0.065792
H83	H	1.367697	0.360254	0.935070
H84	H	0.898242	0.198836	0.491655
H85	H	1.322493	0.322181	0.728105
H86	H	0.492646	0.231417	0.707795
H87	H	0.863217	0.215430	0.586732
H88	H	0.809617	0.240859	0.732234
H89	H	0.945093	0.004024	0.905978
H90	H	0.990279	0.042091	1.112947
H91	H	0.677945	0.246533	0.775250
H92	H	0.414522	0.165452	0.349385
