data_functionalizedCrystal
_audit_creation_method	'MofGen! by Chris Wilmer'
_symmetry_space_group_name_H-M	'P1'
_symmetry_Int_Tables_number	1
_symmetry_cell_setting	triclinic
loop_
_symmetry_equiv_pos_as_xyz
  x,y,z
_cell_length_a	8.597213
_cell_length_b	11.792241
_cell_length_c	7.088929
_cell_angle_alpha	83.733449
_cell_angle_beta	88.663806
_cell_angle_gamma	84.765068
loop_
_atom_site_label
_atom_site_type_symbol
_atom_site_fract_x
_atom_site_fract_y
_atom_site_fract_z
O1	O	2.034151	0.205124	-0.494056
O2	O	1.584775	0.212771	-0.420039
O3	O	1.820370	0.043980	-0.458830
O4	O	1.798557	0.373916	-0.455264
O5	O	1.851854	0.021370	-0.146039
O6	O	1.616260	0.190161	-0.107247
O7	O	2.065635	0.182514	-0.181265
Cu8	Cu	1.843822	0.184273	-0.115696
Cu9	Cu	1.806588	0.211012	-0.485608
O10	O	1.830041	0.351306	-0.142473
C11	C	1.542988	0.199386	-0.254167
C12	C	1.371566	0.193172	-0.225932
C13	C	1.834742	-0.009642	-0.302210
C14	C	1.830641	-0.135732	-0.301536
C15	C	1.823097	-0.366582	-0.300326
C16	C	1.827289	-0.238120	-0.300999
C17	C	2.107423	0.195900	-0.347141
C18	C	2.278843	0.202114	-0.375388
C19	C	1.815669	0.404928	-0.299098
C20	C	1.819768	0.531018	-0.299784
N21	N	1.870022	0.165466	0.144478
N22	N	1.780401	0.229811	-0.745784
H23	H	1.319801	0.180767	-0.076371
F24	F	1.991449	0.078316	0.231209
F25	F	1.658996	0.316967	0.167490
H26	H	1.330599	0.214532	-0.524939
