data_functionalizedCrystal
_audit_creation_method	'MofGen! by Chris Wilmer'
_symmetry_space_group_name_H-M	'P1'
_symmetry_Int_Tables_number	1
_symmetry_cell_setting	triclinic
loop_
_symmetry_equiv_pos_as_xyz
  x,y,z
_cell_length_a	14.519731
_cell_length_b	23.532355
_cell_length_c	13.596369
_cell_angle_alpha	90.000488
_cell_angle_beta	89.993029
_cell_angle_gamma	83.258176
loop_
_atom_site_label
_atom_site_type_symbol
_atom_site_fract_x
_atom_site_fract_y
_atom_site_fract_z
O1	O	0.111722	0.755789	-0.081660
O2	O	0.127970	0.589995	-0.081691
O3	O	-0.014445	0.677281	-0.081666
O4	O	0.254136	0.668502	-0.081685
O5	O	-0.014452	0.677273	0.081917
O6	O	0.127962	0.589986	0.081891
O7	O	0.111714	0.755780	0.081923
Zn8	Zn	0.119837	0.672882	0.107880
Zn9	Zn	0.119847	0.672893	-0.107648
O10	O	0.254129	0.668494	0.081897
C11	C	0.127560	0.568772	0.000096
C12	C	0.126339	0.505548	0.000084
C13	C	0.118662	0.113495	0.089295
C14	C	0.117501	0.054090	0.089299
O15	O	0.116865	0.023364	0.165133
N16	N	0.116929	0.024384	0.000130
C17	C	0.117509	0.054086	-0.089048
O18	O	0.116915	0.023363	-0.164893
C19	C	0.118664	0.113490	-0.089051
C20	C	0.119246	0.143192	0.000124
C21	C	0.119243	0.143197	0.178462
C22	C	0.120406	0.202598	0.178458
C23	C	0.120989	0.232296	0.089287
C24	C	0.120409	0.202593	0.000119
C25	C	0.119238	0.143191	-0.178228
C26	C	0.120392	0.202600	-0.178224
C27	C	0.120974	0.232302	-0.089049
C28	C	0.122155	0.291691	-0.089057
N29	N	0.122727	0.321398	0.000112
C30	C	0.122144	0.291700	0.089284
C31	C	0.115082	-0.070667	-0.089035
C32	C	0.113933	-0.130070	-0.089033
C33	C	0.113923	-0.130062	0.089314
C34	C	0.115078	-0.070658	0.089311
C35	C	0.115654	-0.040961	0.000133
C36	C	0.124588	0.416445	0.089268
C37	C	0.125756	0.475850	0.089256
C38	C	0.125761	0.475837	-0.089091
C39	C	0.124598	0.416437	-0.089079
C40	C	0.124009	0.386742	0.000108
O41	O	0.122788	0.322455	-0.164852
O42	O	0.122726	0.322430	0.165115
C43	C	-0.048803	0.676866	0.000126
C44	C	-0.151168	0.675633	0.000126
C45	C	-0.234300	0.674631	0.000124
C46	C	-0.338594	0.673380	0.000116
C47	C	-0.421721	0.672387	0.000109
C48	C	-0.526021	0.671135	0.000103
C49	C	0.288487	0.668909	0.000104
C50	C	0.390852	0.670142	0.000097
C51	C	0.112124	0.777003	0.000133
C52	C	0.113345	0.840227	0.000139
N53	N	0.119830	0.672878	0.254971
N54	N	0.119847	0.672901	-0.254740
C55	C	0.119848	0.672893	0.656262
C56	C	0.119846	0.672887	0.544611
C57	C	0.119840	0.672886	0.455620
C58	C	0.119836	0.672879	0.343962
H59	H	0.124140	0.392250	-0.161693
C60	C	0.118593	0.110529	-0.276319
H61	H	0.117826	0.070895	-0.263562
H62	H	0.064997	0.124559	-0.312946
H63	H	0.172574	0.115978	-0.312964
C64	C	0.113305	-0.162738	-0.187125
H65	H	0.113814	-0.136537	-0.240228
H66	H	0.166637	-0.190202	-0.190840
H67	H	0.059059	-0.181619	-0.190831
H68	H	0.115553	-0.046478	0.161925
C69	C	0.121033	0.235263	-0.276322
H70	H	0.120529	0.209061	-0.329423
H71	H	0.067703	0.262728	-0.280030
H72	H	0.175280	0.254143	-0.280036
C73	C	0.126394	0.508513	-0.187172
H74	H	0.127158	0.548146	-0.174395
H75	H	0.179985	0.494493	-0.223829
H76	H	0.072408	0.503068	-0.223796
C77	C	0.113545	-0.162758	0.187402
H78	H	0.112847	-0.202396	0.174625
H79	H	0.167600	-0.157259	0.223857
H80	H	0.060020	-0.148802	0.224227
H81	H	0.115559	-0.046492	-0.161659
H82	H	0.124117	0.392274	0.161893
C83	C	0.126384	0.508521	0.187352
H84	H	0.125858	0.482324	0.240457
H85	H	0.180619	0.527406	0.191063
H86	H	0.073042	0.535983	0.191057
H87	H	0.118766	0.119024	0.251081
C88	C	0.121041	0.235263	0.276551
H89	H	0.120521	0.209062	0.329651
H90	H	0.175278	0.254148	0.280260
H91	H	0.067701	0.262726	0.280268
