data_functionalizedCrystal
_audit_creation_method	'MofGen! by Chris Wilmer'
_symmetry_space_group_name_H-M	'P1'
_symmetry_Int_Tables_number	1
_symmetry_cell_setting	triclinic
loop_
_symmetry_equiv_pos_as_xyz
  x,y,z
_cell_length_a	12.827893
_cell_length_b	13.897447
_cell_length_c	12.827885
_cell_angle_alpha	90.031004
_cell_angle_beta	90.019272
_cell_angle_gamma	90.019691
loop_
_atom_site_label
_atom_site_type_symbol
_atom_site_fract_x
_atom_site_fract_y
_atom_site_fract_z
Zn1	Zn	1.597640	-0.383964	0.590840
Zn2	Zn	2.097640	0.116036	1.090840
Zn3	Zn	1.597521	-0.545290	0.416096
Zn4	Zn	2.097521	-0.045290	0.916096
Zn5	Zn	1.422881	-0.384012	0.416113
Zn6	Zn	1.922881	0.115988	0.916113
Zn7	Zn	1.422854	-0.545219	0.590796
Zn8	Zn	1.922854	-0.045219	1.090796
O9	O	1.510224	-0.464621	0.503462
O10	O	2.010224	0.035379	1.003462
O11	O	1.743860	-0.405374	0.567671
O12	O	2.243860	0.094626	1.067671
O13	O	1.574316	-0.523946	0.269863
O14	O	2.074316	-0.023946	0.769863
O15	O	1.446124	-0.249024	0.439317
O16	O	1.946124	0.250976	0.939317
O17	O	1.743773	-0.523900	0.439288
O18	O	2.243773	-0.023900	0.939288
O19	O	1.574518	-0.248989	0.567687
O20	O	2.074518	0.251011	1.067687
O21	O	1.446009	-0.405455	0.269875
O22	O	1.946009	0.094545	0.769875
O23	O	1.276641	-0.405386	0.439274
O24	O	1.776641	0.094614	0.939274
O25	O	1.446077	-0.523779	0.737038
O26	O	1.946077	-0.023779	1.237038
O27	O	1.276621	-0.523825	0.567613
O28	O	1.776621	-0.023825	1.067613
O29	O	1.574492	-0.405305	0.737070
O30	O	2.074492	0.094695	1.237070
O31	O	1.574290	-0.680263	0.439245
O32	O	2.074290	-0.180263	0.939245
O33	O	1.445963	-0.680210	0.567597
O34	O	1.945963	-0.180210	1.067597
C35	C	1.238714	-0.464604	0.503442
C36	C	1.738714	0.035396	1.003442
C37	C	1.122561	-0.464619	0.503458
C38	C	1.622561	0.035381	1.003458
C39	C	1.070819	-0.406073	0.567085
C40	C	1.570819	0.093927	1.067085
C41	C	0.950769	-0.406088	0.567103
C42	C	1.450769	0.093912	1.067103
C43	C	1.510139	-0.715236	0.503437
C44	C	2.010139	-0.215236	1.003437
C45	C	1.510198	-0.822450	0.503462
C46	C	2.010198	-0.322450	1.003462
C47	C	1.510249	-0.909519	0.503486
C48	C	2.010249	-0.409519	1.003486
C49	C	1.510322	-1.018752	0.503513
C50	C	2.010322	-0.518752	1.003513
C51	C	1.782794	-0.464640	0.503482
C52	C	2.282794	0.035360	1.003482
C53	C	1.898947	-0.464648	0.503491
C54	C	2.398947	0.035352	1.003491
C55	C	1.510295	-0.464529	0.776032
C56	C	2.010295	0.035471	1.276032
C57	C	1.510325	-0.464489	0.892185
C58	C	2.010325	0.035511	1.392185
C59	C	1.510338	-0.213028	0.503509
C60	C	2.010338	0.286972	1.003509
C61	C	1.510386	-0.105814	0.503529
C62	C	2.010386	0.394186	1.003529
C63	C	1.510213	-0.464644	0.231952
C64	C	2.010213	0.035356	0.731952
C65	C	1.510385	-0.464412	0.115799
C66	C	2.010385	0.035588	0.615799
C67	C	1.573876	-0.405853	0.943986
C68	C	2.073876	0.094147	1.443986
C69	C	1.573908	-0.405811	1.064036
C70	C	2.073908	0.094189	1.564036
H71	H	1.628255	-0.355681	0.899457
H72	H	2.128255	0.144319	1.399457
H73	H	0.906272	-0.355967	0.621580
H74	H	1.406272	0.144033	1.121580
H75	H	1.628320	-0.355614	1.108583
H76	H	2.128320	0.144386	1.608583
H77	H	1.455978	-0.514618	1.071259
H78	H	1.955978	-0.014618	1.571259
O79	O	1.445344	-0.524376	0.945136
O80	O	1.945344	-0.024376	1.445136
C81	C	1.386269	-0.578923	0.873663
C82	C	1.886269	-0.078923	1.373663
H83	H	1.382576	-0.539507	0.795837
H84	H	1.882576	-0.039507	1.295837
H85	H	1.424492	-0.652197	0.862084
H86	H	1.924492	-0.152197	1.362084
C87	C	1.279628	-0.641180	1.011947
C88	C	1.779628	-0.141180	1.511947
C89	C	1.275085	-0.592765	0.916363
C90	C	1.775085	-0.092765	1.416363
H91	H	1.211046	-0.649724	1.038287
H92	H	1.711046	-0.149724	1.538287
H93	H	1.319430	-0.604434	1.060101
H94	H	1.819430	-0.104434	1.560101
H95	H	1.311485	-0.702237	1.002285
H96	H	1.811485	-0.202237	1.502285
H97	H	1.243240	-0.531705	0.926028
H98	H	1.743240	-0.031705	1.426028
H99	H	1.235275	-0.629501	0.868212
H100	H	1.735275	-0.129501	1.368212
O101	O	1.124152	-0.346349	0.632025
O102	O	1.624152	0.153651	1.132025
C103	C	1.232143	-0.359618	0.617536
C104	C	1.732143	0.140382	1.117536
H105	H	1.246912	-0.434031	0.583156
H106	H	1.746912	0.065969	1.083156
H107	H	1.263103	-0.302364	0.561960
H108	H	1.763103	0.197636	1.061960
C109	C	1.270196	-0.259538	0.765453
C110	C	1.770196	0.240462	1.265453
C111	C	1.288336	-0.350937	0.723234
C112	C	1.788336	0.149063	1.223234
H113	H	1.304860	-0.254179	0.830651
H114	H	1.804860	0.245821	1.330651
H115	H	1.197441	-0.250595	0.775212
H116	H	1.697441	0.249405	1.275212
H117	H	1.295996	-0.211836	0.719129
H118	H	1.795996	0.288164	1.219129
H119	H	1.262525	-0.398636	0.769551
H120	H	1.762525	0.101364	1.269551
H121	H	1.361089	-0.359888	0.713485
H122	H	1.861089	0.140112	1.213485
H123	H	0.943437	-0.514779	0.449020
H124	H	1.443437	-0.014779	0.949020
H125	H	1.077982	-0.514752	0.448996
H126	H	1.577982	-0.014752	0.948996
