data_functionalizedCrystal
_audit_creation_method	'MofGen! by Chris Wilmer'
_symmetry_space_group_name_H-M	'P1'
_symmetry_Int_Tables_number	1
_symmetry_cell_setting	triclinic
loop_
_symmetry_equiv_pos_as_xyz
  x,y,z
_cell_length_a	15.624803
_cell_length_b	15.538191
_cell_length_c	14.586319
_cell_angle_alpha	89.999456
_cell_angle_beta	71.910518
_cell_angle_gamma	66.736403
loop_
_atom_site_label
_atom_site_type_symbol
_atom_site_fract_x
_atom_site_fract_y
_atom_site_fract_z
O1	O	1.156108	0.122848	-0.460690
O2	O	0.888811	0.137512	-0.371802
O3	O	1.074491	-0.006885	-0.433553
O4	O	0.970428	0.267245	-0.398939
O5	O	1.074482	-0.006888	-0.281070
O6	O	0.888802	0.137510	-0.219319
O7	O	1.156099	0.122846	-0.308206
Cu8	Cu	1.022449	0.130177	-0.249839
Cu9	Cu	1.022460	0.130180	-0.430169
O10	O	0.970419	0.267243	-0.246455
C11	C	0.855432	0.136850	-0.284462
C12	C	0.755991	0.134869	-0.251394
C13	C	0.429077	0.128308	-0.558330
C14	C	0.335646	0.126428	-0.527258
C15	C	0.335614	0.126425	-0.361019
C16	C	0.429049	0.128300	-0.392077
C17	C	0.475773	0.129243	-0.490733
C18	C	0.475745	0.129235	-0.324481
C19	C	0.569170	0.131116	-0.355536
C20	C	0.615899	0.132061	-0.454188
C21	C	0.569198	0.131123	-0.521789
C22	C	0.429016	0.128300	-0.225824
C23	C	0.475711	0.129235	-0.158228
C24	C	0.569141	0.131108	-0.189284
C25	C	0.615870	0.132054	-0.287935
C26	C	0.615842	0.132046	-0.121683
C27	C	0.709267	0.133926	-0.152738
C28	C	0.709296	0.133934	-0.318991
C29	C	1.085374	-0.041969	-0.360935
C30	C	1.117805	-0.146502	-0.371729
C31	C	0.795612	-0.434690	-0.264566
C32	C	0.826108	-0.532919	-0.274705
C33	C	0.997644	-0.555150	-0.331749
C34	C	0.967162	-0.456922	-0.321619
C35	C	0.866145	-0.396699	-0.288026
C36	C	1.037695	-0.418930	-0.345079
C37	C	1.007215	-0.320711	-0.334945
C38	C	0.906202	-0.260482	-0.301350
C39	C	0.835664	-0.298479	-0.277892
C40	C	1.138712	-0.479154	-0.378665
C41	C	1.209245	-0.441163	-0.402125
C42	C	1.178765	-0.342942	-0.391997
C43	C	1.077752	-0.282713	-0.358403
C44	C	1.249303	-0.304944	-0.415456
C45	C	1.218823	-0.206725	-0.405322
C46	C	1.047272	-0.184494	-0.348269
C47	C	1.189477	0.123508	-0.395548
C48	C	1.288918	0.125489	-0.428622
C49	C	0.959535	0.302326	-0.319076
C50	C	0.927104	0.406860	-0.308288
N51	N	1.022449	0.130175	-0.123008
N52	N	1.022470	0.130175	-0.557004
C53	C	1.104681	0.066257	0.084651
C54	C	1.104684	0.066255	0.180631
C55	C	0.940230	0.194096	0.235333
C56	C	0.940225	0.194093	0.139355
C57	C	1.022455	0.130175	0.064015
C58	C	1.022464	0.130175	0.255973
C59	C	1.022467	0.130173	0.360039
C60	C	1.022452	0.130175	-0.040058
H61	H	0.577781	0.131288	-0.041356
H62	H	1.171637	0.014210	0.023310
H63	H	0.691969	0.133598	-0.479470
H64	H	1.171639	0.014207	0.197428
H65	H	1.291494	-0.490209	-0.429473
H66	H	0.873281	0.246138	0.296683
Br67	Br	0.864831	-0.127181	-0.287583
Br68	Br	1.386393	-0.386685	-0.461022
Br69	Br	0.698567	-0.216740	-0.232314
H70	H	1.276258	-0.175792	-0.424424
H71	H	0.747342	0.134698	-0.399327
Br72	Br	0.632626	0.132385	-0.655684
Br73	Br	0.272271	0.125166	-0.619007
Br74	Br	0.492505	0.129570	-0.692225
Br75	Br	0.272191	0.125153	-0.227132
Br76	Br	0.772643	0.135201	-0.061000
H77	H	0.352940	0.126774	-0.200541
Br78	Br	0.658514	-0.352951	-0.218988
Br79	Br	0.412289	0.127963	-0.024341
Br80	Br	0.730373	-0.584475	-0.242853
H81	H	0.873262	0.246142	0.122555
H82	H	0.965014	-0.135456	-0.320921
H83	H	1.079893	-0.604196	-0.359097
H84	H	1.163526	-0.559131	-0.386924
