data_functionalizedCrystal
_audit_creation_method	'MofGen! by Chris Wilmer'
_symmetry_space_group_name_H-M	'P1'
_symmetry_Int_Tables_number	1
_symmetry_cell_setting	triclinic
loop_
_symmetry_equiv_pos_as_xyz
  x,y,z
_cell_length_a	10.686220
_cell_length_b	21.295417
_cell_length_c	21.295420
_cell_angle_alpha	90.006945
_cell_angle_beta	85.648101
_cell_angle_gamma	94.412682
loop_
_atom_site_label
_atom_site_type_symbol
_atom_site_fract_x
_atom_site_fract_y
_atom_site_fract_z
Zn1	Zn	1.928975	-0.176818	0.282183
Zn2	Zn	1.928807	-0.282049	0.176915
Zn3	Zn	1.717973	-0.184881	0.184993
Zn4	Zn	1.717883	-0.290146	0.290208
O5	O	1.823410	-0.233473	0.233575
O6	O	2.105531	-0.184014	0.261480
O7	O	1.900807	-0.269145	0.089898
O8	O	1.746070	-0.095718	0.197907
O9	O	2.105407	-0.261327	0.184140
O10	O	1.901093	-0.089794	0.269313
O11	O	1.745907	-0.197756	0.095833
O12	O	1.541383	-0.205607	0.205689
O13	O	1.745918	-0.275127	0.377232
O14	O	1.541317	-0.282945	0.282991
O15	O	1.901006	-0.191865	0.371336
O16	O	1.900720	-0.371217	0.191921
O17	O	1.745755	-0.377165	0.275158
C18	C	1.495566	-0.246030	0.246088
C19	C	1.355313	-0.251418	0.251456
C20	C	1.823244	-0.397031	0.233546
C21	C	1.823289	-0.466998	0.233551
C22	C	1.904051	-0.496743	0.190248
C23	C	1.904110	-0.562483	0.190260
C24	C	1.823385	-0.598477	0.233569
C25	C	1.742617	-0.568723	0.276879
C26	C	1.742569	-0.502984	0.276870
N27	N	1.713000	-0.705976	0.242581
N28	N	1.713049	-0.768426	0.242586
C29	C	1.823526	-0.796546	0.233599
N30	N	1.933954	-0.759857	0.224596
N31	N	1.933904	-0.697402	0.224588
C32	C	1.823428	-0.669760	0.233584
C33	C	1.904359	-0.897574	0.190307
C34	C	1.904420	-0.963315	0.190324
C35	C	1.742916	-0.969555	0.276940
C36	C	1.742866	-0.903814	0.276927
C37	C	1.823586	-0.867828	0.233607
C38	C	2.152534	-0.220868	0.221013
C39	C	2.292787	-0.215496	0.215660
C40	C	1.823471	-0.233500	0.397763
C41	C	1.823497	-0.233511	0.467730
C42	C	1.823610	-0.069275	0.233616
C43	C	1.823695	0.000696	0.233633
C44	C	1.904239	-0.190164	0.497528
C45	C	1.904220	-0.190154	0.563271
C46	C	1.823472	-0.233503	0.599213
C47	C	1.742714	-0.276853	0.569408
C48	C	1.742726	-0.276858	0.503666
N49	N	1.813709	-0.288971	0.702802
N50	N	1.813704	-0.288965	0.765253
C51	C	1.823427	-0.233491	0.797290
N52	N	1.833179	-0.178022	0.764514
N53	N	1.833190	-0.178029	0.702057
C54	C	1.823449	-0.233502	0.670500
C55	C	1.904153	-0.190130	0.898374
C56	C	1.904125	-0.190119	0.964119
C57	C	1.742625	-0.276824	0.970254
C58	C	1.742647	-0.276829	0.904511
C59	C	1.823417	-0.233483	0.868574
C60	C	1.823355	-0.233466	1.070025
C61	C	1.823374	-0.233468	1.000056
H62	H	1.969881	-0.586707	0.154998
C63	C	1.365408	-0.168377	0.168714
H64	H	1.307377	-0.146566	0.146974
H65	H	1.416861	-0.139038	0.190899
H66	H	1.416780	-0.190462	0.139295
C67	C	1.653914	-0.324543	0.470884
H68	H	1.665484	-0.318335	0.426584
H69	H	1.672321	-0.366132	0.480957
H70	H	1.569136	-0.318571	0.484880
H71	H	1.301539	-0.286299	0.286207
C72	C	1.993073	-0.142480	0.458002
H73	H	2.041150	-0.116659	0.485168
H74	H	2.048026	-0.164456	0.430263
H75	H	1.944835	-0.116898	0.434194
H76	H	1.969781	-0.467445	0.154976
H77	H	1.676892	-0.598033	0.312143
C78	C	1.653720	-0.470263	0.324502
H79	H	1.605646	-0.501112	0.350296
H80	H	1.701933	-0.442736	0.350103
H81	H	1.598745	-0.446760	0.302488
C82	C	1.993158	-0.857986	0.142665
H83	H	2.041282	-0.885119	0.116883
H84	H	1.944908	-0.834221	0.117053
H85	H	2.048090	-0.830203	0.164672
H86	H	1.970194	-0.987532	0.155062
C87	C	1.654125	-1.009139	0.324582
H88	H	1.665716	-1.052552	0.318385
H89	H	1.672533	-0.997636	0.366179
H90	H	1.569341	-1.001658	0.318566
H91	H	1.676964	-0.312146	0.598677
C92	C	1.654011	-0.871093	0.324553
H93	H	1.605932	-0.901943	0.350345
H94	H	1.702220	-0.843567	0.350156
H95	H	1.599039	-0.847589	0.302537
C96	C	1.993049	-0.142475	0.596056
H97	H	2.041160	-0.116664	0.565238
H98	H	1.944821	-0.116891	0.623541
H99	H	2.047991	-0.164461	0.619607
C100	C	1.992973	-0.142442	0.858842
H101	H	2.041043	-0.116616	0.886008
H102	H	2.047935	-0.164414	0.831104
H103	H	1.944725	-0.116865	0.835034
C104	C	1.992947	-0.142435	0.996897
H105	H	2.041057	-0.116627	0.966076
H106	H	1.944713	-0.116850	1.024377
H107	H	2.047890	-0.164416	1.020452
C108	C	1.653812	-0.324510	1.009782
H109	H	1.665374	-0.318303	1.053204
H110	H	1.569041	-0.318551	1.002233
H111	H	1.672248	-0.366101	0.998304
H112	H	1.676905	-0.312131	0.880249
