data_functionalizedCrystal
_audit_creation_method	'MofGen! by Chris Wilmer'
_symmetry_space_group_name_H-M	'P1'
_symmetry_Int_Tables_number	1
_symmetry_cell_setting	triclinic
loop_
_symmetry_equiv_pos_as_xyz
  x,y,z
_cell_length_a	17.699083
_cell_length_b	7.681481
_cell_length_c	17.699083
_cell_angle_alpha	95.731310
_cell_angle_beta	83.283015
_cell_angle_gamma	84.282230
loop_
_atom_site_label
_atom_site_type_symbol
_atom_site_fract_x
_atom_site_fract_y
_atom_site_fract_z
O1	O	0.996918	0.146188	0.102878
O2	O	1.496918	0.646188	0.602878
O3	O	0.776537	0.146246	0.115334
O4	O	1.276537	0.646246	0.615334
O5	O	0.892955	0.146200	-0.001084
O6	O	1.392955	0.646200	0.498916
O7	O	0.880500	0.146234	0.219296
O8	O	1.380500	0.646234	0.719296
O9	O	0.907284	-0.146663	-0.015446
O10	O	1.407284	0.353337	0.484554
O11	O	0.790866	-0.146617	0.100972
O12	O	1.290866	0.353383	0.600972
O13	O	1.011247	-0.146675	0.088517
O14	O	1.511247	0.353325	0.588517
Zn15	Zn	0.903332	-0.193144	0.092464
Zn16	Zn	1.403332	0.306856	0.592464
Zn17	Zn	0.884452	0.192716	0.111386
Zn18	Zn	1.384452	0.692716	0.611386
O19	O	0.894830	-0.146629	0.204934
O20	O	1.394830	0.353371	0.704934
C21	C	0.755504	-0.000178	0.107707
C22	C	1.255504	0.499822	0.607707
C23	C	0.671485	-0.000156	0.106369
C24	C	1.171485	0.499844	0.606369
N25	N	0.916222	-0.456484	0.079550
N26	N	1.416222	0.043516	0.579550
C27	C	0.622864	-0.000146	0.174703
C28	C	1.122864	0.499854	0.674703
C29	C	0.543921	-0.000169	0.173440
C30	C	1.043921	0.499831	0.673440
C31	C	0.513602	-0.000190	0.103842
C32	C	1.013602	0.499810	0.603842
C33	C	0.562229	-0.000205	0.035503
C34	C	1.062229	0.499795	0.535503
C35	C	0.641171	-0.000195	0.036767
C36	C	1.141171	0.499805	0.536767
C37	C	0.243869	-0.000249	0.030406
C38	C	0.743869	0.499751	0.530406
C39	C	0.164921	-0.000255	0.029148
C40	C	0.664921	0.499745	0.529148
C41	C	0.146619	-0.000224	0.167079
C42	C	0.646619	0.499776	0.667079
C43	C	0.225560	-0.000214	0.168342
C44	C	0.725560	0.499786	0.668342
C45	C	0.274182	-0.000238	0.100003
C46	C	0.774182	0.499762	0.600003
C47	C	0.359780	-0.000217	0.101374
C48	C	0.859780	0.499783	0.601374
C49	C	0.428004	-0.000199	0.102472
C50	C	0.928004	0.499801	0.602472
C51	C	1.032280	-0.000247	0.096144
C52	C	1.532280	0.499753	0.596144
C53	C	1.116298	-0.000257	0.097482
C54	C	1.616298	0.499743	0.597482
C55	C	0.899673	-0.000232	-0.036462
C56	C	1.399673	0.499768	0.463538
C57	C	0.898334	-0.000232	-0.120480
C58	C	1.398334	0.499768	0.379520
N59	N	0.871568	0.456055	0.124294
N60	N	1.371568	0.956055	0.624294
C61	C	0.966669	-0.000253	-0.169102
C62	C	1.466669	0.499747	0.330898
C63	C	0.965406	-0.000237	-0.248045
C64	C	1.465406	0.499763	0.251955
C65	C	0.895808	-0.000213	-0.278364
C66	C	1.395808	0.499787	0.221636
C67	C	0.827468	-0.000187	-0.229736
C68	C	1.327468	0.499813	0.270264
C69	C	0.828731	-0.000190	-0.150794
C70	C	1.328731	0.499810	0.349206
C71	C	0.822372	-0.000171	-0.548098
C72	C	1.322372	0.499829	-0.048098
C73	C	0.821114	-0.000173	-0.627046
C74	C	1.321114	0.499827	-0.127046
C75	C	0.959046	-0.000218	-0.645348
C76	C	1.459046	0.499782	-0.145348
C77	C	0.960310	-0.000221	-0.566407
C78	C	1.460310	0.499779	-0.066407
C79	C	0.891970	-0.000186	-0.517785
C80	C	1.391970	0.499814	-0.017785
C81	C	0.893340	-0.000200	-0.432186
C82	C	1.393340	0.499800	0.067814
C83	C	0.894438	-0.000212	-0.363962
C84	C	1.394438	0.499788	0.136038
C85	C	0.888111	-0.000193	0.240312
C86	C	1.388111	0.499807	0.740312
C87	C	0.889449	-0.000181	0.324331
C88	C	1.389449	0.499819	0.824331
H89	H	0.647543	-0.000128	0.231378
H90	H	1.147543	0.499872	0.731378
C91	C	1.043227	-0.000279	-0.135757
C92	C	1.543227	0.499721	0.364243
H93	H	1.083742	-0.000272	-0.176023
H94	H	1.583742	0.499728	0.323977
H95	H	1.051586	-0.102407	-0.110354
H96	H	1.551586	0.397593	0.389646
H97	H	1.041589	0.101862	-0.100332
H98	H	1.541589	0.601862	0.399668
C99	C	1.040571	-0.000241	-0.301528
C100	C	1.540571	0.499759	0.198472
H101	H	1.029852	-0.000208	-0.352884
H102	H	1.529852	0.499792	0.147116
H103	H	1.074116	-0.102374	-0.297369
H104	H	1.574116	0.397626	0.202631
H105	H	1.064111	0.101895	-0.287332
H106	H	1.564111	0.601895	0.212668
C107	C	0.528883	-0.000226	-0.041055
C108	C	1.028883	0.499774	0.458945
H109	H	0.569150	-0.000245	-0.081572
H110	H	1.069150	0.499755	0.418428
H111	H	0.493466	0.101899	-0.039407
H112	H	0.993466	0.601899	0.460593
H113	H	0.503473	-0.102370	-0.049423
H114	H	1.003473	0.397630	0.450577
C115	C	0.753564	-0.000172	-0.097310
C116	C	1.253564	0.499828	0.402690
H117	H	0.711933	-0.000173	-0.126673
H118	H	1.211933	0.499827	0.373327
H119	H	0.746194	0.101956	-0.061123
H120	H	1.246194	0.601956	0.438877
H121	H	0.756187	-0.102313	-0.071147
H122	H	1.256187	0.397687	0.428853
C123	C	0.297344	-0.000251	-0.044761
C124	C	0.797344	0.499749	0.455239
H125	H	0.348703	-0.000258	-0.034047
H126	H	0.848703	0.499742	0.465953
H127	H	0.283161	0.101873	-0.068294
H128	H	0.783161	0.601873	0.431706
H129	H	0.293170	-0.102395	-0.078314
H130	H	0.793170	0.397605	0.421686
C131	C	1.036866	-0.000240	-0.533059
C132	C	1.536866	0.499760	-0.033059
H133	H	1.077383	-0.000232	-0.573322
H134	H	1.577383	0.499768	-0.073322
H135	H	1.045225	-0.102365	-0.507653
H136	H	1.545225	0.397635	-0.007653
H137	H	1.035224	0.101904	-0.497634
H138	H	1.535224	0.601904	0.002366
C139	C	0.131571	-0.000294	-0.047414
C140	C	0.631571	0.499706	0.452586
H141	H	0.171835	-0.000326	-0.087935
H142	H	0.671835	0.499674	0.412065
H143	H	0.096153	0.101828	-0.045770
H144	H	0.596153	0.601828	0.454230
H145	H	0.106161	-0.102440	-0.055773
H146	H	0.606161	0.397560	0.444227
C147	C	0.809988	-0.442344	0.185990
C148	C	1.309988	0.057656	0.685990
H149	H	0.811386	-0.319385	0.184578
H150	H	1.311386	0.180615	0.684578
H151	H	0.819648	-0.472465	0.235009
H152	H	1.319648	0.027535	0.735009
H153	H	0.760935	-0.472476	0.176437
H154	H	1.260935	0.027524	0.676437
H155	H	1.014692	-0.000237	-0.684946
H156	H	1.514692	0.499763	-0.184946
H157	H	0.961813	-0.531708	0.033882
H158	H	1.461813	-0.031708	0.533882
H159	H	0.504336	-0.000159	0.229084
H160	H	1.004336	0.499841	0.729084
H161	H	0.764437	-0.000157	-0.651729
H162	H	1.264437	0.499843	-0.151729
C163	C	0.747203	-0.000164	-0.494626
C164	C	1.247203	0.499836	0.005374
H165	H	0.705576	-0.000173	-0.523993
H166	H	1.205576	0.499827	-0.023993
H167	H	0.739824	0.101960	-0.458436
H168	H	1.239824	0.601960	0.041564
H169	H	0.749829	-0.102309	-0.468465
H170	H	1.249829	0.397691	0.031535
C171	C	0.750913	-0.000166	-0.263086
C172	C	1.250913	0.499834	0.236914
H173	H	0.759947	-0.000186	-0.317065
H174	H	1.259947	0.499814	0.182935
H175	H	0.717783	0.101967	-0.241378
H176	H	1.217783	0.601967	0.258622
H177	H	0.727783	-0.102301	-0.251397
H178	H	1.227783	0.397699	0.248603
H179	H	0.107022	-0.000213	0.222724
H180	H	0.607022	0.499787	0.722724
C181	C	0.694657	-0.000204	-0.038398
C182	C	1.194657	0.499796	0.461602
H183	H	0.746015	-0.000213	-0.027680
H184	H	1.246015	0.499787	0.472320
H185	H	0.680480	0.101913	-0.061938
H186	H	1.180480	0.601913	0.438062
H187	H	0.690484	-0.102355	-0.071947
H188	H	1.190484	0.397645	0.428053
H189	H	0.250242	-0.000189	0.225016
H190	H	0.750242	0.499811	0.725016
