data_functionalizedCrystal
_audit_creation_method	'MofGen! by Chris Wilmer'
_symmetry_space_group_name_H-M	'P1'
_symmetry_Int_Tables_number	1
_symmetry_cell_setting	triclinic
loop_
_symmetry_equiv_pos_as_xyz
  x,y,z
_cell_length_a	12.594516
_cell_length_b	13.897449
_cell_length_c	13.897441
_cell_angle_alpha	89.979267
_cell_angle_beta	90.031017
_cell_angle_gamma	89.985197
loop_
_atom_site_label
_atom_site_type_symbol
_atom_site_fract_x
_atom_site_fract_y
_atom_site_fract_z
Zn1	Zn	-0.423672	-1.474731	0.545378
Zn2	Zn	-0.601683	-1.474636	0.384079
Zn3	Zn	-0.423723	-1.313420	0.384097
Zn4	Zn	-0.601613	-1.313413	0.545331
O5	O	-0.512672	-1.394050	0.464721
O6	O	-0.447293	-1.609700	0.523994
O7	O	-0.578126	-1.453214	0.249099
O8	O	-0.274770	-1.334860	0.405518
O9	O	-0.578077	-1.609630	0.405488
O10	O	-0.274733	-1.453375	0.524011
O11	O	-0.447380	-1.334769	0.249113
O12	O	-0.447312	-1.178437	0.405473
O13	O	-0.577958	-1.334849	0.680319
O14	O	-0.578007	-1.178432	0.523931
O15	O	-0.447226	-1.453368	0.680354
O16	O	-0.750619	-1.453207	0.405442
O17	O	-0.750568	-1.334758	0.523913
C18	C	-0.789213	-1.393998	0.464692
C19	C	-0.907519	-1.394064	0.464711
C20	C	-0.512658	-1.143436	0.464699
C21	C	-0.512678	-1.036222	0.464713
C22	C	-0.512578	-1.394118	0.716314
C23	C	-0.512538	-1.394147	0.823528
C24	C	-1.047525	-1.458607	0.400386
C25	C	-0.976843	-1.370583	0.376682
C26	C	-0.976629	-1.482077	0.488371
C27	C	-1.047622	-1.306092	0.441045
C28	C	-1.047415	-1.417646	0.552775
C29	C	-0.976765	-1.329561	0.529104
C30	C	-0.235052	-1.394129	0.464772
C31	C	-0.116746	-1.394162	0.464794
C32	C	-0.512687	-1.645643	0.464744
C33	C	-0.512694	-1.752857	0.464754
C34	C	-0.512682	-0.839927	0.464738
C35	C	-0.512676	-0.949159	0.464721
C36	C	-0.512689	-1.394037	0.214107
C37	C	-0.512430	-1.394195	0.106893
C38	C	-0.512466	-1.394174	1.019824
C39	C	-0.512509	-1.394156	0.910591
H40	H	-1.078594	-1.513080	0.345913
O41	O	-1.084386	-1.441595	0.641526
C42	C	-1.048250	-1.534425	0.666163
H43	H	-1.028411	-1.576071	0.597841
H44	H	-1.112962	-1.573995	0.707651
H45	H	-0.974161	-1.528274	0.712920
O46	O	-0.939802	-1.346662	0.287941
C47	C	-0.878292	-1.262164	0.294507
H48	H	-0.902416	-1.220122	0.361440
H49	H	-0.892069	-1.215924	0.227886
H50	H	-0.790656	-1.282117	0.299502
H51	H	-0.945447	-1.556467	0.508347
O52	O	-1.084780	-1.217325	0.417242
C53	C	-1.147063	-1.181064	0.493311
H54	H	-1.177884	-1.243394	0.538733
H55	H	-1.217029	-1.138961	0.462647
H56	H	-1.096640	-1.131514	0.540061
O57	O	-0.939973	-1.264294	0.593932
C58	C	-0.976369	-1.171711	0.568686
H59	H	-0.996220	-1.169931	0.488664
H60	H	-0.911809	-1.116530	0.584798
H61	H	-1.050505	-1.153806	0.612179
