data_functionalizedCrystal
_audit_creation_method	'MofGen! by Chris Wilmer'
_symmetry_space_group_name_H-M	'P1'
_symmetry_Int_Tables_number	1
_symmetry_cell_setting	triclinic
loop_
_symmetry_equiv_pos_as_xyz
  x,y,z
_cell_length_a	19.121321
_cell_length_b	19.120786
_cell_length_c	19.121595
_cell_angle_alpha	85.200660
_cell_angle_beta	89.881083
_cell_angle_gamma	90.133760
loop_
_atom_site_label
_atom_site_type_symbol
_atom_site_fract_x
_atom_site_fract_y
_atom_site_fract_z
Zn1	Zn	1.074811	-0.311010	-0.337957
Zn2	Zn	1.574811	0.188990	0.162043
Zn3	Zn	1.064301	-0.433235	-0.215735
Zn4	Zn	1.564301	0.066765	0.284265
Zn5	Zn	0.952601	-0.310610	-0.225754
Zn6	Zn	1.452601	0.189390	0.274246
Zn7	Zn	0.952562	-0.423208	-0.338346
Zn8	Zn	1.452562	0.076792	0.161654
O9	O	1.011069	-0.369516	-0.279448
O10	O	1.511069	0.130484	0.220552
O11	O	1.171325	-0.331587	-0.317388
O12	O	1.671325	0.168413	0.182612
O13	O	1.045101	-0.420997	-0.118794
O14	O	1.545101	0.079003	0.381206
O15	O	0.973228	-0.212389	-0.244668
O16	O	1.473228	0.287611	0.255332
O17	O	1.163603	-0.421385	-0.227593
O18	O	1.663603	0.078615	0.272407
O19	O	1.063015	-0.212683	-0.327103
O20	O	1.563015	0.287317	0.172897
O21	O	0.963036	-0.330905	-0.126155
O22	O	1.463036	0.169095	0.373845
O23	O	0.854688	-0.321183	-0.245045
O24	O	1.354688	0.178817	0.254955
O25	O	0.973161	-0.404296	-0.436564
O26	O	1.473161	0.095704	0.063436
O27	O	0.854659	-0.403908	-0.327766
O28	O	1.354659	0.096092	0.172234
O29	O	1.062977	-0.321864	-0.436279
O30	O	1.562977	0.178136	0.063721
O31	O	1.045063	-0.530179	-0.227970
O32	O	1.545063	-0.030179	0.272030
O33	O	0.962970	-0.522812	-0.318051
O34	O	1.462970	-0.022812	0.181949
C35	C	0.829287	-0.361414	-0.287535
C36	C	1.329287	0.138586	0.212465
C37	C	0.751520	-0.357965	-0.291011
C38	C	1.251520	0.142035	0.208989
C39	C	0.311891	-0.336057	-0.313053
C40	C	0.811891	0.163943	0.186947
C41	C	0.384960	-0.339311	-0.309782
C42	C	0.884960	0.160689	0.190218
C43	C	0.417466	-0.387620	-0.261326
C44	C	0.917466	0.112380	0.238674
C45	C	0.376897	-0.432683	-0.216141
C46	C	0.876897	0.067317	0.283859
C47	C	0.303829	-0.429432	-0.219415
C48	C	0.803829	0.070568	0.280585
C49	C	0.637883	-0.399776	-0.249101
C50	C	1.137883	0.100224	0.250899
C51	C	0.710957	-0.403023	-0.245828
C52	C	1.210957	0.096977	0.254172
C53	C	0.719015	-0.309651	-0.339471
C54	C	1.219015	0.190349	0.160529
C55	C	0.645945	-0.306401	-0.342738
C56	C	1.145945	0.193599	0.157262
C57	C	0.605383	-0.351467	-0.297556
C58	C	1.105383	0.148533	0.202444
C59	C	0.492154	-0.390947	-0.257980
C60	C	0.992154	0.109053	0.242020
C61	C	0.530695	-0.348143	-0.300905
C62	C	1.030695	0.151857	0.199095
C63	C	1.002891	-0.551977	-0.271980
C64	C	1.502891	-0.051977	0.228020
C65	C	0.999458	-0.630037	-0.268805
C66	C	1.499458	-0.130037	0.231195
C67	C	1.044561	-0.666799	-0.310271
C68	C	1.544561	-0.166799	0.189729
C69	C	1.041332	-0.740144	-0.307290
C70	C	1.541332	-0.240144	0.192710
C71	C	0.993003	-0.776726	-0.262839
C72	C	1.493003	-0.276726	0.237161
C73	C	0.947896	-0.739958	-0.221371
C74	C	1.447896	-0.239958	0.278629
C75	C	0.951122	-0.666614	-0.224356
C76	C	1.451122	-0.166614	0.275644
C77	C	0.980923	-0.998173	-0.251679
C78	C	1.480923	-0.498173	0.248321
C79	C	0.977702	-1.071522	-0.248695
C80	C	1.477702	-0.571522	0.251305
C81	C	1.071138	-1.071702	-0.334616
C82	C	1.571138	-0.571702	0.165384
C83	C	1.074362	-0.998357	-0.337594
C84	C	1.574362	-0.498357	0.162406
C85	C	1.029252	-0.961596	-0.296129
C86	C	1.529252	-0.461596	0.203871
C87	C	0.989703	-0.851696	-0.259789
C88	C	1.489703	-0.351696	0.240211
C89	C	1.032549	-0.886626	-0.299183
C90	C	1.532549	-0.386626	0.200817
C91	C	1.193561	-0.377649	-0.271330
C92	C	1.693561	0.122351	0.228670
C93	C	1.271328	-0.381115	-0.267870
C94	C	1.771328	0.118885	0.232130
C95	C	1.019237	-0.362006	-0.462614
C96	C	1.519237	0.137994	0.037386
C97	C	1.022718	-0.358806	-0.540669
C98	C	1.522718	0.141194	-0.040669
C99	C	1.019298	-0.186342	-0.286960
C100	C	1.519298	0.313658	0.213040
C101	C	1.022805	-0.108284	-0.290161
C102	C	1.522805	0.391716	0.209839
C103	C	0.977592	-0.400217	-0.577489
C104	C	1.477592	0.099783	-0.077489
C105	C	0.980869	-0.397210	-0.650829
C106	C	1.480869	0.102790	-0.150829
C107	C	1.029268	-0.352788	-0.687348
C108	C	1.529268	0.147212	-0.187348
C109	C	1.074399	-0.311376	-0.650523
C110	C	1.574399	0.188624	-0.150523
C111	C	1.071125	-0.314387	-0.577184
C112	C	1.571125	0.185613	-0.077184
C113	C	1.041495	-0.341554	-0.908778
C114	C	1.541495	0.158446	-0.408778
C115	C	1.044764	-0.338545	-0.982122
C116	C	1.544764	0.161455	-0.482122
C117	C	0.951234	-0.424380	-0.982423
C118	C	1.451234	0.075620	-0.482423
C119	C	0.947962	-0.427384	-0.909083
C120	C	1.447962	0.072616	-0.409083
C121	C	0.993095	-0.385974	-0.872264
C122	C	1.493095	0.114026	-0.372264
C123	C	1.032617	-0.349712	-0.762314
C124	C	1.532617	0.150288	-0.262314
C125	C	0.989749	-0.389054	-0.797299
C126	C	1.489749	0.110946	-0.297299
C127	C	1.002975	-0.376947	-0.096995
C128	C	1.502975	0.123053	0.403005
C129	C	0.999638	-0.379955	-0.018942
C130	C	1.499638	0.120045	0.481058
H131	H	0.518629	-0.430278	-0.218524
H132	H	1.018629	0.069722	0.281476
N133	N	0.262393	-0.475445	-0.173250
N134	N	0.762393	0.024555	0.326750
N135	N	0.220724	-0.450682	-0.131385
N136	N	0.720724	0.049318	0.368615
H137	H	0.191460	-0.483181	-0.098780
H138	H	0.691460	0.016819	0.401220
H139	H	1.107872	-0.280665	-0.547206
H140	H	1.607872	0.219335	-0.047206
N141	N	0.905042	-0.629059	-0.182010
N142	N	1.405042	-0.129059	0.317990
N143	N	0.840321	-0.634244	-0.189156
N144	N	1.340321	-0.134244	0.310844
H145	H	0.807772	-0.607721	-0.159251
H146	H	1.307772	-0.107721	0.340749
N147	N	0.934760	-0.439505	-0.688431
N148	N	1.434760	0.060495	-0.188431
N149	N	0.893107	-0.411137	-0.732350
N150	N	1.393107	0.088863	-0.232350
H151	H	0.860539	-0.441012	-0.758903
H152	H	1.360539	0.058988	-0.258903
N153	N	1.081915	-0.849272	-0.344595
N154	N	1.581915	-0.349272	0.155405
N155	N	1.079760	-0.854575	-0.409267
N156	N	1.579760	-0.354575	0.090733
H157	H	1.114627	-0.828188	-0.441338
H158	H	1.614627	-0.328188	0.058662
N159	N	0.497502	-0.298805	-0.350414
N160	N	0.997502	0.201195	0.149586
N161	N	0.508358	-0.301278	-0.414644
N162	N	1.008358	0.198722	0.085356
H163	H	0.484909	-0.266434	-0.449610
H164	H	0.984909	0.233566	0.050390
N165	N	0.612732	-0.257067	-0.392240
N166	N	1.112732	0.242933	0.107760
N167	N	0.547493	-0.254173	-0.395158
N168	N	1.047493	0.245827	0.104842
H169	H	0.524035	-0.219329	-0.430119
H170	H	1.024035	0.280671	0.069881
N171	N	0.596443	-0.445798	-0.202954
N172	N	1.096443	0.054202	0.297046
N173	N	0.554766	-0.487765	-0.227575
N174	N	1.054766	0.012235	0.272425
H175	H	0.525493	-0.520267	-0.194982
H176	H	1.025493	-0.020267	0.305018
N177	N	0.278687	-0.286723	-0.362561
N178	N	0.778687	0.213277	0.137439
N179	N	0.238813	-0.307865	-0.408078
N180	N	0.738813	0.192135	0.091922
H181	H	0.215363	-0.273025	-0.443048
H182	H	0.715363	0.226975	0.056952
N183	N	0.928350	-1.108916	-0.203286
N184	N	1.428350	-0.608916	0.296714
N185	N	0.949229	-1.152767	-0.155805
N186	N	1.449229	-0.652767	0.344195
H187	H	0.914381	-1.179184	-0.123735
H188	H	1.414381	-0.679184	0.376265
H189	H	1.084174	-0.302365	-1.011854
H190	H	1.584174	0.197635	-0.511854
N191	N	1.093938	-0.629446	-0.355676
N192	N	1.593938	-0.129446	0.144324
N193	N	1.134204	-0.662282	-0.392696
N194	N	1.634204	-0.162282	0.107304
H195	H	1.169077	-0.635903	-0.424765
H196	H	1.669077	-0.135903	0.075235
H197	H	0.417984	-0.302623	-0.346577
H198	H	0.917984	0.197377	0.153423
N199	N	1.087604	-0.299255	-0.871185
N200	N	1.587604	0.200745	-0.371185
N201	N	1.130814	-0.259598	-0.903802
N202	N	1.630814	0.240402	-0.403802
H203	H	1.163382	-0.229723	-0.877250
H204	H	1.663382	0.270277	-0.377250
N205	N	0.898517	-0.472762	-0.871793
N206	N	1.398517	0.027238	-0.371793
N207	N	0.858229	-0.509733	-0.904677
N208	N	1.358229	-0.009733	-0.404677
H209	H	0.823305	-0.541780	-0.878342
H210	H	1.323305	-0.041780	-0.378342
H211	H	1.078065	-0.770073	-0.341051
H212	H	1.578065	-0.270073	0.158949
N213	N	1.123736	-0.961003	-0.383001
N214	N	1.623736	-0.461003	0.116999
N215	N	1.164004	-0.993836	-0.420022
N216	N	1.664004	-0.493836	0.079978
H217	H	1.198877	-0.967455	-0.452090
H218	H	1.698877	-0.467455	0.047910
N219	N	0.934832	-0.960627	-0.209341
N220	N	1.434832	-0.460627	0.290659
N221	N	0.893120	-0.916749	-0.237675
N222	N	1.393120	-0.416749	0.262325
H223	H	0.860559	-0.890232	-0.207776
H224	H	1.360559	-0.390232	0.292224
N225	N	0.760458	-0.263626	-0.385614
N226	N	1.260458	0.236374	0.114386
N227	N	0.825697	-0.266532	-0.382686
N228	N	1.325697	0.233468	0.117314
H229	H	0.854968	-0.234025	-0.415278
H230	H	1.354968	0.265975	0.084722
N231	N	1.123840	-0.266010	-0.687834
N232	N	1.623840	0.233990	-0.187834
N233	N	1.126757	-0.263327	-0.753315
N234	N	1.626757	0.236673	-0.253315
H235	H	1.161676	-0.231286	-0.779666
H236	H	1.661676	0.268714	-0.279666
H237	H	1.072023	-0.313543	-0.792056
H238	H	1.572023	0.186457	-0.292056
N239	N	0.744150	-0.452370	-0.196318
N240	N	1.244150	0.047630	0.303682
N241	N	0.707928	-0.492599	-0.155977
N242	N	1.207928	0.007401	0.344023
H243	H	0.731370	-0.527447	-0.121009
H244	H	1.231370	-0.027447	0.378991
N245	N	0.410109	-0.482032	-0.166653
N246	N	0.910109	0.017968	0.333347
N247	N	0.475349	-0.484930	-0.163735
N248	N	0.975349	0.015070	0.336265
H249	H	0.498805	-0.519783	-0.128783
H250	H	0.998805	-0.019783	0.371217
H251	H	1.107863	-1.101641	-0.368375
H252	H	1.607863	-0.601641	0.131625
N253	N	0.940301	-0.434425	-0.760011
N254	N	1.440301	0.065575	-0.260011
N255	N	0.900006	-0.471394	-0.792890
N256	N	1.400006	0.028606	-0.292890
H257	H	0.865080	-0.503435	-0.766551
H258	H	1.365080	-0.003435	-0.266551
H259	H	0.950356	-0.881490	-0.223594
H260	H	1.450356	-0.381490	0.276406
N261	N	0.905139	-0.466671	-1.020045
N262	N	1.405139	0.033329	-0.520045
N263	N	0.908065	-0.463978	-1.085525
N264	N	1.408065	0.036022	-0.585525
H265	H	0.875510	-0.493849	-1.112096
H266	H	1.375510	0.006151	-0.612096
H267	H	0.938172	-0.436381	-0.547761
H268	H	1.438172	0.063619	-0.047761
H269	H	0.908543	-0.769749	-0.185181
H270	H	1.408543	-0.269749	0.314819
