data_functionalizedCrystal
_audit_creation_method	'MofGen! by Chris Wilmer'
_symmetry_space_group_name_H-M	'P1'
_symmetry_Int_Tables_number	1
_symmetry_cell_setting	triclinic
loop_
_symmetry_equiv_pos_as_xyz
  x,y,z
_cell_length_a	19.188930
_cell_length_b	10.654550
_cell_length_c	9.730223
_cell_angle_alpha	90.001620
_cell_angle_beta	90.016869
_cell_angle_gamma	83.814842
loop_
_atom_site_label
_atom_site_type_symbol
_atom_site_fract_x
_atom_site_fract_y
_atom_site_fract_z
O1	O	-0.927169	-0.156777	-0.114729
O2	O	-0.723996	-0.177882	-0.114634
O3	O	-0.830254	0.015509	-0.114679
O4	O	-0.820911	-0.350167	-0.114684
O5	O	-0.830247	0.015508	0.113901
O6	O	-0.723989	-0.177883	0.113946
O7	O	-0.927162	-0.156777	0.113851
Zn8	Zn	-0.825575	-0.167330	0.150190
Zn9	Zn	-0.825583	-0.167329	-0.150973
O10	O	-0.820904	-0.350168	0.113896
C11	C	-0.697977	-0.177199	-0.000332
C12	C	-0.620459	-0.175147	-0.000296
C13	C	-0.953181	-0.157460	-0.000454
C14	C	-1.030699	-0.159512	-0.000499
C15	C	-0.829564	0.062292	-0.000390
C16	C	-0.827512	0.201692	-0.000394
C17	C	-0.576277	-0.288622	-0.000319
C18	C	-0.503441	-0.286695	-0.000334
C19	C	-0.474789	-0.171286	-0.000354
C20	C	-0.518981	-0.057795	-0.000323
C21	C	-0.591816	-0.059726	-0.000294
N22	N	-0.366234	-0.083069	-0.078203
N23	N	-0.297044	-0.081243	-0.078234
C24	C	-0.255343	-0.165461	-0.000438
N25	N	-0.285444	-0.251594	0.077373
N26	N	-0.354641	-0.253425	0.077397
C27	C	-0.395813	-0.169179	-0.000384
C28	C	-0.132183	-0.276855	-0.000475
C29	C	-0.059345	-0.274922	-0.000482
C30	C	-0.074887	-0.046020	-0.000484
C31	C	-0.147723	-0.047955	-0.000464
C32	C	-0.176366	-0.163376	-0.000466
C33	C	-0.821594	-0.396951	-0.000396
C34	C	-0.823646	-0.536351	-0.000401
N35	N	-0.825574	-0.167330	0.355727
C36	C	-0.890075	0.282501	-0.000419
C37	C	-0.888142	0.413481	-0.000427
C38	C	-0.761078	0.382829	-0.000380
C39	C	-0.763011	0.251852	-0.000382
C40	C	-0.963434	0.300199	-0.000440
C41	C	-0.961502	0.431179	-0.000449
N42	N	-0.825590	-0.167319	-0.356510
C43	C	-0.872646	-0.081717	0.571517
C44	C	-0.872640	-0.081724	0.427634
C45	C	-0.778516	-0.252942	0.427710
C46	C	-0.778525	-0.252939	0.571590
C47	C	-0.926985	0.017138	0.571472
C48	C	-0.926979	0.017130	0.427589
H49	H	-0.467461	-0.379103	-0.000350
H50	H	-0.983675	0.477292	-0.099153
H51	H	-0.023372	-0.367332	-0.000493
C52	C	-0.695009	0.164323	-0.000297
C53	C	-0.638112	0.236289	-0.000247
C54	C	-0.575454	0.155701	-0.000151
H55	H	-0.693029	0.112562	-0.079985
H56	H	-0.693076	0.112610	0.079447
H57	H	-0.640043	0.287980	-0.079983
H58	H	-0.640068	0.288047	0.079436
H59	H	-0.573522	0.103988	0.079593
H60	H	-0.573482	0.103944	-0.079841
H61	H	-0.536842	0.204518	-0.000105
C62	C	-0.163194	-0.402252	-0.000672
C63	C	-0.140803	-0.470851	-0.118254
C64	C	-0.169347	-0.586378	-0.118470
H65	H	-0.212898	-0.387326	-0.000730
H66	H	-0.148029	-0.449025	0.078998
H67	H	-0.155972	-0.424088	-0.197903
H68	H	-0.091102	-0.485810	-0.118221
H69	H	-0.154182	-0.633151	-0.038801
H70	H	-0.219051	-0.571440	-0.118525
H71	H	-0.154154	-0.632942	-0.198241
H72	H	-0.708564	0.423686	-0.000372
H73	H	-0.051560	0.047949	-0.000585
H74	H	-0.627789	0.032682	-0.000276
H75	H	-0.183697	0.044449	-0.000452
C76	C	-0.998224	0.487790	0.127145
C77	C	-0.950892	0.549378	0.205200
C78	C	-0.984693	0.601551	0.322739
H79	H	-1.014884	0.422554	0.180447
H80	H	-1.036597	0.546662	0.100621
H81	H	-0.912533	0.490511	0.231725
H82	H	-0.934230	0.614632	0.151939
H83	H	-1.023065	0.660424	0.296215
H84	H	-1.001351	0.536308	0.376029
H85	H	-0.952585	0.643355	0.375707
C86	C	-0.727404	-0.345689	0.649906
C87	C	-0.684357	-0.278994	0.732573
C88	C	-0.637260	-0.364398	0.804749
H89	H	-0.699307	-0.396711	0.586631
H90	H	-0.752758	-0.397831	0.706090
H91	H	-0.659005	-0.226874	0.676394
H92	H	-0.712435	-0.227977	0.795874
H93	H	-0.662615	-0.416540	0.860933
H94	H	-0.609168	-0.415416	0.741464
H95	H	-0.608052	-0.319159	0.860856
C96	C	-0.487743	0.067380	-0.000417
C97	C	-0.414500	0.044785	-0.000488
C98	C	-0.385701	0.160069	-0.000587
H99	H	-0.502772	0.114184	0.079278
H100	H	-0.502854	0.114099	-0.080154
H101	H	-0.399395	-0.001915	0.079241
H102	H	-0.399451	-0.002000	-0.080177
H103	H	-0.400812	0.206789	-0.080324
H104	H	-0.400735	0.206864	0.079109
H105	H	-0.336003	0.144754	-0.000648
H106	H	-0.740198	-0.322651	0.369153
H107	H	-0.915051	0.113409	0.388551
H108	H	-0.599593	-0.382607	-0.000324
C109	C	-0.998561	-0.010110	0.623219
C110	C	-1.042334	-0.026779	0.511029
C111	C	-1.108270	-0.051898	0.558644
H112	H	-1.018518	0.058737	0.677408
H113	H	-0.993638	-0.084709	0.677418
H114	H	-1.047260	0.047812	0.456852
H115	H	-1.022400	-0.095629	0.456829
H116	H	-1.103346	-0.126498	0.612844
H117	H	-1.128219	0.016952	0.612834
H118	H	-1.137976	-0.063223	0.482532
C119	C	-1.001682	0.262093	-0.128118
C120	C	-1.023146	0.369727	-0.206218
C121	C	-1.058371	0.334670	-0.323849
H122	H	-1.041558	0.222193	-0.101743
H123	H	-0.971132	0.205210	-0.181327
H124	H	-1.053694	0.426589	-0.153018
H125	H	-0.983284	0.409641	-0.232628
H126	H	-1.027821	0.277788	-0.377059
H127	H	-1.098243	0.294770	-0.297461
H128	H	-1.072932	0.407692	-0.376860
H129	H	-0.910020	0.107990	0.616116
H130	H	-0.986792	0.265066	0.098246
H131	H	-0.977672	-0.012375	0.382923
