data_functionalizedCrystal
_audit_creation_method	'MofGen! by Chris Wilmer'
_symmetry_space_group_name_H-M	'P1'
_symmetry_Int_Tables_number	1
_symmetry_cell_setting	triclinic
loop_
_symmetry_equiv_pos_as_xyz
  x,y,z
_cell_length_a	10.654545
_cell_length_b	11.295675
_cell_length_c	10.654550
_cell_angle_alpha	85.858871
_cell_angle_beta	95.515995
_cell_angle_gamma	85.864851
loop_
_atom_site_label
_atom_site_type_symbol
_atom_site_fract_x
_atom_site_fract_y
_atom_site_fract_z
O1	O	1.659463	0.099011	-0.184749
O2	O	1.293983	0.099016	-0.201562
O3	O	1.485127	0.099005	-0.010416
O4	O	1.468319	0.099021	-0.375896
O5	O	1.501876	-0.099040	0.006347
O6	O	1.310732	-0.099030	-0.184799
O7	O	1.676212	-0.099035	-0.167986
Cu8	Cu	1.495001	-0.117116	-0.174862
Cu9	Cu	1.475194	0.117096	-0.194686
O10	O	1.485068	-0.099025	-0.359133
C11	C	1.255559	-0.000007	-0.191947
C12	C	1.116116	-0.000005	-0.188258
N13	N	1.508942	-0.281848	-0.160918
C14	C	1.059741	-0.107960	-0.177383
C15	C	0.928722	-0.107961	-0.173895
C16	C	0.910462	0.107960	-0.192163
C17	C	1.041480	0.107959	-0.195642
C18	C	1.360766	-0.531183	-0.309058
C19	C	1.371330	-0.655843	-0.298509
C20	C	1.540640	-0.655831	-0.129277
C21	C	1.530075	-0.531171	-0.139827
C22	C	1.440134	-0.468851	-0.229719
C23	C	1.429565	-0.344188	-0.240261
C24	C	1.598880	-0.344179	-0.071036
C25	C	1.609444	-0.468839	-0.060487
C26	C	1.714635	-0.000010	-0.177601
C27	C	1.854078	-0.000004	-0.181291
C28	C	1.492267	-0.000017	0.044764
C29	C	1.488575	-0.000015	0.184207
N30	N	1.461263	0.281828	-0.208620
C31	C	1.477928	-0.000000	-0.414312
C32	C	1.481619	0.000006	-0.553756
C33	C	1.601117	-0.000016	0.263694
C34	C	1.597639	-0.000001	0.394714
C35	C	1.369068	0.000010	0.366746
C36	C	1.372546	0.000004	0.235728
H37	H	0.882828	-0.195869	-0.165041
H38	H	1.120507	-0.195871	-0.171371
C39	C	1.734928	-0.101800	0.566915
C40	C	1.721346	-0.000003	0.482092
H41	H	1.811299	-0.101792	0.620863
H42	H	1.737378	-0.170855	0.521078
H43	H	1.665325	-0.101777	0.616345
H44	H	1.790945	-0.000030	0.432656
H45	H	1.718906	0.069070	0.527934
H46	H	1.274602	0.000024	0.408711
H47	H	1.280895	0.000009	0.171005
H48	H	1.613876	-0.706588	-0.056098
H49	H	1.306702	-0.706590	-0.363117
C50	C	0.739345	0.233225	-0.306634
C51	C	0.828414	0.226629	-0.200298
H52	H	0.688700	0.306491	-0.311661
H53	H	0.687024	0.168937	-0.299651
H54	H	0.781909	0.228738	-0.380709
H55	H	0.785850	0.231106	-0.126222
H56	H	0.880741	0.290934	-0.207271
C57	C	1.010278	0.321396	-0.213365
C58	C	1.103455	0.226633	-0.207602
H59	H	1.048542	0.394655	-0.220753
H60	H	0.968504	0.316905	-0.138524
H61	H	0.950607	0.316904	-0.284742
H62	H	1.163121	0.231120	-0.136218
H63	H	1.145250	0.231126	-0.282451
C64	C	1.354474	-0.305798	-0.460252
C65	C	1.330711	-0.275680	-0.339073
H66	H	1.293450	-0.263500	-0.521256
H67	H	1.349403	-0.388952	-0.465315
H68	H	1.436681	-0.285348	-0.476372
H69	H	1.248507	-0.296138	-0.322949
H70	H	1.335771	-0.192507	-0.334006
C71	C	1.285648	-0.492782	-0.529046
C72	C	1.261906	-0.462669	-0.407859
H73	H	1.224618	-0.450478	-0.590040
H74	H	1.280569	-0.575935	-0.534113
H75	H	1.367853	-0.472335	-0.545177
H76	H	1.179703	-0.483124	-0.391724
H77	H	1.266972	-0.379497	-0.402789
H78	H	1.682676	-0.519594	0.012699
C79	C	1.667327	-0.306196	0.142558
C80	C	1.686139	-0.275838	0.016364
H81	H	1.721191	-0.264051	0.196566
H82	H	1.686381	-0.389382	0.161523
H83	H	1.581653	-0.285723	0.155168
H84	H	1.771811	-0.296319	0.003751
H85	H	1.667094	-0.192633	-0.002608
C86	C	1.826696	-0.000004	0.304502
C87	C	1.728651	-0.000015	0.207059
H88	H	1.905430	0.000008	0.269536
H89	H	1.826432	-0.069062	0.360869
H90	H	1.814727	0.069064	0.349172
H91	H	1.740615	-0.069088	0.162394
H92	H	1.728918	0.069050	0.150670
