data_functionalizedCrystal
_audit_creation_method	'MofGen! by Chris Wilmer'
_symmetry_space_group_name_H-M	'P1'
_symmetry_Int_Tables_number	1
_symmetry_cell_setting	triclinic
loop_
_symmetry_equiv_pos_as_xyz
  x,y,z
_cell_length_a	12.759401
_cell_length_b	19.805405
_cell_length_c	12.759393
_cell_angle_alpha	89.962372
_cell_angle_beta	89.981504
_cell_angle_gamma	90.026572
loop_
_atom_site_label
_atom_site_type_symbol
_atom_site_fract_x
_atom_site_fract_y
_atom_site_fract_z
Zn1	Zn	1.606170	-0.269420	-0.593937
Zn2	Zn	1.606028	-0.382625	-0.418239
Zn3	Zn	1.430472	-0.269456	-0.418276
Zn4	Zn	1.430425	-0.382573	-0.593880
O5	O	1.518274	-0.326019	-0.506083
O6	O	1.753172	-0.284444	-0.570638
O7	O	1.582701	-0.367650	-0.271222
O8	O	1.453858	-0.174735	-0.441618
O9	O	1.753068	-0.367615	-0.441553
O10	O	1.582942	-0.174708	-0.570675
O11	O	1.453720	-0.284505	-0.271250
O12	O	1.283445	-0.284454	-0.441563
O13	O	1.453777	-0.367527	-0.740909
O14	O	1.283410	-0.367561	-0.570578
O15	O	1.582896	-0.284394	-0.740951
O16	O	1.582655	-0.477335	-0.441498
O17	O	1.453640	-0.477297	-0.570541
C18	C	1.245306	-0.326006	-0.506069
C19	C	1.128530	-0.326017	-0.506088
C20	C	1.073677	-0.369360	-0.573155
C21	C	0.963953	-0.369369	-0.573166
C22	C	0.963944	-0.282689	-0.439034
C23	C	1.073666	-0.282678	-0.439029
C24	C	1.073681	-0.419406	-0.650592
C25	C	0.963957	-0.419414	-0.650603
C26	C	1.518155	-0.501875	-0.506032
C27	C	1.518201	-0.577107	-0.506046
C28	C	1.585444	-0.612448	-0.438923
C29	C	1.585489	-0.683137	-0.438946
C30	C	1.518284	-0.718482	-0.506088
C31	C	1.451038	-0.683136	-0.573217
C32	C	1.450999	-0.612449	-0.573199
C33	C	1.451193	-0.968209	-0.573295
C34	C	1.451234	-1.038901	-0.573306
C35	C	1.585683	-1.038897	-0.439043
C36	C	1.585644	-0.968210	-0.439024
C37	C	1.518402	-0.932870	-0.506157
C38	C	1.518356	-0.856221	-0.506133
C39	C	1.518324	-0.795129	-0.506108
C40	C	1.792307	-0.326032	-0.506098
C41	C	1.909084	-0.326037	-0.506104
C42	C	1.518347	-0.325950	-0.780117
C43	C	1.518379	-0.325921	-0.896893
C44	C	1.518421	-0.149476	-0.506157
C45	C	1.518484	-0.074244	-0.506189
C46	C	1.585620	-0.282630	-0.951779
C47	C	1.585645	-0.282605	-1.061503
C48	C	1.451184	-0.369170	-1.061446
C49	C	1.451154	-0.369190	-0.951724
C50	C	1.663254	-0.232655	-0.951812
C51	C	1.663279	-0.232630	-1.061537
C52	C	1.518261	-0.326038	-0.233116
C53	C	1.518433	-0.325876	-0.116340
H54	H	1.118323	-0.247379	-0.384423
C55	C	0.904185	-0.235718	-0.366260
C56	C	0.796354	-0.245016	-0.380599
C57	C	0.741275	-0.201765	-0.313562
H58	H	0.922067	-0.190222	-0.381692
H59	H	0.922076	-0.245579	-0.295619
H60	H	0.778471	-0.235150	-0.451224
H61	H	0.778441	-0.290502	-0.365159
H62	H	0.759166	-0.211626	-0.242921
H63	H	0.759165	-0.156272	-0.329000
H64	H	0.668106	-0.208072	-0.323275
C65	C	1.658524	-0.574198	-0.365982
C66	C	1.717442	-0.620283	-0.307225
C67	C	1.784787	-0.585074	-0.240031
H68	H	1.618461	-0.546667	-0.320070
H69	H	1.704322	-0.546592	-0.406180
H70	H	1.671650	-0.647878	-0.267031
H71	H	1.757526	-0.647815	-0.353110
H72	H	1.830584	-0.557467	-0.280228
H73	H	1.744715	-0.557544	-0.194125
H74	H	1.824777	-0.616336	-0.200163
H75	H	1.103494	-0.405426	-0.732001
H76	H	1.641502	-0.180237	-0.922065
C77	C	1.378306	-0.416227	-0.892005
C78	C	1.437721	-0.459621	-0.828969
C79	C	1.370643	-0.502956	-0.773933
H80	H	1.338255	-0.442055	-0.940261
H81	H	1.332559	-0.390355	-0.849156
H82	H	1.483450	-0.485490	-0.871814
H83	H	1.477769	-0.433812	-0.780693
H84	H	1.324896	-0.477084	-0.731084
H85	H	1.330596	-0.528779	-0.822197
H86	H	1.410945	-0.532400	-0.731150
C87	C	1.766376	-0.257689	-0.906616
C88	C	1.834719	-0.274260	-0.988519
C89	C	1.929728	-0.297316	-0.946923
H90	H	1.753992	-0.296539	-0.864703
H91	H	1.796861	-0.223229	-0.864765
H92	H	1.804240	-0.308717	-1.030352
H93	H	1.847133	-0.235420	-1.030439
H94	H	1.960213	-0.262856	-0.905073
H95	H	1.917333	-0.336164	-0.905011
H96	H	1.976114	-0.308556	-1.002488
C97	C	1.118824	-0.485828	-0.611559
C98	C	1.036885	-0.529840	-0.585696
C99	C	1.078430	-0.591036	-0.549746
H100	H	1.160694	-0.477825	-0.551287
H101	H	1.160708	-0.505493	-0.665003
H102	H	0.995018	-0.510178	-0.532257
H103	H	0.995008	-0.537862	-0.645952
H104	H	1.120314	-0.610701	-0.603190
H105	H	1.120300	-0.583027	-0.489477
H106	H	1.022842	-0.620908	-0.532203
C107	C	0.918482	-0.394580	-0.753747
C108	C	0.856749	-0.445529	-0.798176
C109	C	0.814829	-0.422672	-0.893181
H110	H	0.973849	-0.383328	-0.800387
H111	H	0.876534	-0.355768	-0.741408
H112	H	0.898694	-0.484329	-0.810519
H113	H	0.801365	-0.456787	-0.751566
H114	H	0.772881	-0.383860	-0.880842
H115	H	0.870203	-0.411420	-0.939812
H116	H	0.772931	-0.457235	-0.923334
H117	H	0.934145	-0.471823	-0.628662
C118	C	1.658417	-0.721654	-0.366175
C119	C	1.599115	-0.762390	-0.298810
C120	C	1.666307	-0.797915	-0.231843
H121	H	1.698543	-0.690607	-0.326077
H122	H	1.704089	-0.749179	-0.406549
H123	H	1.553462	-0.734868	-0.258440
H124	H	1.558991	-0.793450	-0.338879
H125	H	1.711978	-0.825440	-0.272216
H126	H	1.706430	-0.766863	-0.191752
H127	H	1.626081	-0.825563	-0.186134
C128	C	1.658727	-0.929957	-0.366089
C129	C	1.717648	-0.976039	-0.307330
C130	C	1.784997	-0.940826	-0.240144
H131	H	1.618666	-0.902424	-0.320177
H132	H	1.704521	-0.902352	-0.406292
H133	H	1.671859	-1.003632	-0.267130
H134	H	1.757730	-1.003573	-0.353214
H135	H	1.830791	-0.913221	-0.280347
H136	H	1.744928	-0.913294	-0.194239
H137	H	1.824990	-0.972087	-0.200275
H138	H	1.396450	-0.404396	-1.106103
C139	C	1.624518	-0.166158	-1.106756
C140	C	1.598804	-0.122147	-1.024869
C141	C	1.563106	-0.060906	-1.066487
H142	H	1.564227	-0.174093	-1.148636
H143	H	1.678051	-0.146528	-1.148645
H144	H	1.545275	-0.141773	-0.982998
H145	H	1.659079	-0.114192	-0.982982
H146	H	1.616638	-0.041276	-1.108375
H147	H	1.502817	-0.068848	-1.108366
H148	H	1.545663	-0.031035	-1.010933
H149	H	1.640438	-1.067680	-0.384384
C150	C	1.378231	-1.077156	-0.646329
C151	C	1.319356	-1.031078	-0.705140
C152	C	1.252109	-1.066293	-0.772424
H153	H	1.332395	-1.104778	-0.606227
H154	H	1.418396	-1.104672	-0.692196
H155	H	1.279194	-1.003573	-0.659279
H156	H	1.365165	-1.003454	-0.745264
H157	H	1.292274	-1.093809	-0.818291
H158	H	1.206280	-1.093914	-0.732313
H159	H	1.212162	-1.035035	-0.812342
H160	H	1.744645	-0.246670	-1.091313
H161	H	1.396440	-0.939440	-0.627955
C162	C	1.378110	-0.721631	-0.646000
C163	C	1.392512	-0.791100	-0.631630
C164	C	1.325335	-0.826581	-0.698647
H165	H	1.393373	-0.710084	-0.716644
H166	H	1.307499	-0.710129	-0.630548
H167	H	1.463106	-0.802598	-0.647089
H168	H	1.377241	-0.802667	-0.560999
H169	H	1.254724	-0.815079	-0.683196
H170	H	1.340604	-0.815029	-0.769287
H171	H	1.335091	-0.873720	-0.688899
H172	H	1.396244	-0.583674	-0.627858
