data_functionalizedCrystal
_audit_creation_method	'MofGen! by Chris Wilmer'
_symmetry_space_group_name_H-M	'P1'
_symmetry_Int_Tables_number	1
_symmetry_cell_setting	triclinic
loop_
_symmetry_equiv_pos_as_xyz
  x,y,z
_cell_length_a	14.519709
_cell_length_b	16.109301
_cell_length_c	14.586319
_cell_angle_alpha	90.000787
_cell_angle_beta	89.995260
_cell_angle_gamma	96.429187
loop_
_atom_site_label
_atom_site_type_symbol
_atom_site_fract_x
_atom_site_fract_y
_atom_site_fract_z
O1	O	0.118540	-1.103336	-0.076184
O2	O	0.133292	-0.861300	-0.076199
O3	O	-0.008336	-0.988735	-0.076183
O4	O	0.260168	-0.975901	-0.076200
O5	O	-0.008338	-0.988726	0.076298
O6	O	0.133290	-0.861291	0.076282
O7	O	0.118538	-1.103327	0.076296
Cu8	Cu	0.125914	-0.982308	0.090212
Cu9	Cu	0.125916	-0.982319	-0.090114
O10	O	0.260166	-0.975892	0.076280
C11	C	-0.042696	-0.988132	0.000057
C12	C	-0.145073	-0.986340	0.000058
C13	C	0.132693	-0.830319	0.000039
C14	C	0.130902	-0.738021	0.000034
C15	C	0.119136	-1.134307	0.000056
C16	C	0.120928	-1.226606	0.000055
C17	C	-0.519955	-0.979741	0.000034
C18	C	-0.415651	-0.981574	0.000041
C19	C	-0.332517	-0.983041	0.000047
C20	C	-0.228207	-0.984873	0.000052
C21	C	0.294526	-0.976494	0.000038
C22	C	0.396903	-0.978287	0.000031
N23	N	0.125911	-0.982307	0.217044
C24	C	0.210775	-0.515887	0.000040
C25	C	0.209085	-0.429163	0.000046
C26	C	0.041048	-0.448747	0.000053
C27	C	0.042739	-0.535468	0.000053
C28	C	0.127606	-0.569036	0.000042
C29	C	0.124224	-0.395591	0.000047
C30	C	0.122390	-0.301562	0.000054
C31	C	0.129440	-0.663071	0.000037
N32	N	0.125911	-0.982326	-0.216946
C33	C	0.063219	-1.038754	0.452057
C34	C	0.063217	-1.038756	0.548038
C35	C	0.188606	-0.925873	0.548034
C36	C	0.188603	-0.925868	0.452054
C37	C	0.125911	-0.982313	0.404068
C38	C	0.125912	-0.982321	0.596029
C39	C	0.125910	-0.982323	0.700096
C40	C	0.125911	-0.982310	0.299995
H41	H	0.276810	-0.385892	0.000045
C42	C	0.302846	-0.552448	0.000177
C43	C	0.308712	-0.601681	0.078611
C44	C	0.393510	-0.635381	0.078765
H45	H	0.352217	-0.508458	0.000224
H46	H	0.307010	-0.585917	-0.052970
H47	H	0.304557	-0.568214	0.131745
H48	H	0.259361	-0.645684	0.078581
H49	H	0.397674	-0.668851	0.025617
H50	H	0.442874	-0.591386	0.078810
H51	H	0.397498	-0.668796	0.131977
C52	C	-0.004953	-1.099905	0.600189
C53	C	-0.061441	-1.055541	0.655279
C54	C	-0.124262	-1.111844	0.703323
H55	H	0.028125	-1.134584	0.637701
H56	H	-0.042342	-1.133506	0.557890
H57	H	-0.024057	-1.021955	0.697574
H58	H	-0.094540	-1.020865	0.617790
H59	H	-0.161651	-1.145445	0.661024
H60	H	-0.091177	-1.146520	0.740830
H61	H	-0.162602	-1.081752	0.740701
C62	C	-0.050995	-0.412139	0.000009
C63	C	-0.034678	-0.324815	-0.000019
C64	C	-0.119448	-0.291066	-0.000074
H65	H	-0.085314	-0.430280	0.053169
H66	H	-0.085244	-0.430330	-0.053185
H67	H	-0.000444	-0.306632	0.053170
H68	H	-0.000374	-0.306651	-0.053175
H69	H	-0.153696	-0.309257	-0.053268
H70	H	-0.153760	-0.309214	0.053087
H71	H	-0.108388	-0.231815	-0.000101
C72	C	-0.047665	-0.593042	0.000008
C73	C	-0.122349	-0.545086	-0.000014
C74	C	-0.205638	-0.598094	-0.000064
H75	H	-0.050629	-0.627296	0.053168
H76	H	-0.050543	-0.627269	-0.053186
H77	H	-0.119472	-0.510874	0.053174
H78	H	-0.119415	-0.510834	-0.053170
H79	H	-0.208517	-0.632320	-0.053258
H80	H	-0.208593	-0.632345	0.053096
H81	H	-0.256321	-0.565563	-0.000088
C82	C	-0.004954	-1.100066	0.400123
C83	C	-0.059874	-1.149479	0.462698
C84	C	-0.122698	-1.205960	0.414893
H85	H	0.028120	-1.134801	0.362671
H86	H	-0.043405	-1.070120	0.362709
H87	H	-0.021428	-1.179423	0.500096
H88	H	-0.092968	-1.114767	0.500152
H89	H	-0.161149	-1.176015	0.377479
H90	H	-0.089616	-1.240690	0.377442
H91	H	-0.159974	-1.239489	0.457343
C92	C	0.256635	-0.864692	0.600300
C93	C	0.243240	-0.876792	0.694627
C94	C	0.305903	-0.820456	0.742801
H95	H	0.246665	-0.809153	0.584690
H96	H	0.318206	-0.873820	0.584613
H97	H	0.181683	-0.867658	0.710308
H98	H	0.253218	-0.932320	0.710265
H99	H	0.367474	-0.829583	0.727114
H100	H	0.295927	-0.764921	0.727184
H101	H	0.296829	-0.828663	0.806807
H102	H	0.239655	-0.879902	0.412979
