data_functionalizedCrystal
_audit_creation_method	'MofGen! by Chris Wilmer'
_symmetry_space_group_name_H-M	'P1'
_symmetry_Int_Tables_number	1
_symmetry_cell_setting	triclinic
loop_
_symmetry_equiv_pos_as_xyz
  x,y,z
_cell_length_a	6.817900
_cell_length_b	11.102294
_cell_length_c	16.256277
_cell_angle_alpha	93.849979
_cell_angle_beta	103.500353
_cell_angle_gamma	108.605785
loop_
_atom_site_label
_atom_site_type_symbol
_atom_site_fract_x
_atom_site_fract_y
_atom_site_fract_z
V1	V	-4.053068	-0.176866	-0.263873
O2	O	-4.013214	0.007442	-0.258851
O3	O	-4.030245	-0.349679	-0.262067
O4	O	-4.004352	-0.174609	-0.378957
O5	O	-4.039286	-0.168840	-0.141151
V6	V	-4.533423	-0.154766	-0.249194
O7	O	-4.321276	-0.225344	-0.296071
O8	O	-4.715412	-0.106287	-0.216996
O9	O	-4.333039	0.018047	-0.251000
O10	O	-4.690674	-0.339074	-0.254216
O11	O	-4.664602	-0.162792	-0.371916
O12	O	-4.358933	-0.157023	-0.134110
C13	C	-3.881478	-0.391793	-0.257904
C14	C	-3.944102	-0.533072	-0.257195
C15	C	-4.215432	-0.738694	-0.260429
C16	C	-4.156600	-0.605945	-0.261086
C17	C	-3.790422	-0.592954	-0.252638
C18	C	-3.849252	-0.725699	-0.251975
C19	C	-3.848447	-0.168472	-0.407008
C20	C	-3.890069	-0.167770	-0.501090
C21	C	-4.181740	-0.172674	-0.732911
C22	C	-4.059033	-0.063603	-0.776002
C23	C	-3.966170	-0.166449	-0.673337
C24	C	-4.162981	-0.274193	-0.797875
C25	C	-4.039697	-0.165179	-0.839720
C26	C	-3.842872	-0.057300	-0.715179
C27	C	-3.946891	-0.267986	-0.737058
C28	C	-3.824021	-0.158884	-0.780117
C29	C	-3.923818	-0.167180	-0.577487
C30	C	-4.082029	-0.164439	-0.935565
C31	C	-4.145149	0.060154	-0.255161
C32	C	-4.061764	0.201433	-0.255875
C33	C	-4.178179	-0.163164	-0.106055
C34	C	-4.115795	-0.163859	-0.011972
H35	H	-4.332459	-0.178377	-0.712020
C36	C	-4.123581	0.053145	-0.799504
C37	C	-4.325792	0.068350	-0.780183
C38	C	-4.390354	0.185092	-0.803682
C39	C	-4.252706	0.286628	-0.846503
C40	C	-4.050483	0.271427	-0.865826
C41	C	-3.985921	0.154685	-0.842327
H42	H	-4.427698	-0.006816	-0.748482
H43	H	-4.540054	0.196344	-0.789377
H44	H	-4.300499	0.373048	-0.863898
H45	H	-3.948577	0.346593	-0.897527
H46	H	-3.836221	0.143432	-0.856632
C47	C	-3.882411	-0.384740	-0.713535
C48	C	-4.039003	-0.521990	-0.751588
C49	C	-3.974544	-0.638757	-0.728066
C50	C	-3.753493	-0.618273	-0.666492
C51	C	-3.596887	-0.481017	-0.628435
C52	C	-3.661346	-0.364251	-0.651957
H53	H	-4.202650	-0.537158	-0.797172
H54	H	-4.090475	-0.740363	-0.756239
H55	H	-3.705776	-0.704711	-0.649080
H56	H	-3.433239	-0.465849	-0.582851
H57	H	-3.545414	-0.262644	-0.623785
C58	C	-3.659624	0.066668	-0.666850
C59	C	-3.453332	0.058675	-0.607649
C60	C	-3.270099	0.182649	-0.559325
C61	C	-3.293159	0.314615	-0.570203
C62	C	-3.499461	0.322613	-0.629407
C63	C	-3.682693	0.198639	-0.677731
H64	H	-3.436254	-0.039019	-0.599594
H65	H	-3.117382	0.176727	-0.515498
H66	H	-3.157520	0.406388	-0.534431
H67	H	-3.516539	0.420307	-0.637462
H68	H	-3.835411	0.204561	-0.721558
C69	C	-4.346357	-0.398012	-0.846354
C70	C	-4.418273	-0.420552	-0.944918
C71	C	-4.601659	-0.544364	-0.993393
C72	C	-4.713131	-0.645637	-0.943305
C73	C	-4.641217	-0.623100	-0.844735
C74	C	-4.457830	-0.499287	-0.796260
H75	H	-4.335753	-0.345581	-0.982001
H76	H	-4.654894	-0.561047	-1.066361
H77	H	-4.848885	-0.737290	-0.979189
H78	H	-4.723736	-0.698071	-0.807652
H79	H	-4.404596	-0.482605	-0.723292
H80	H	-4.388469	-0.798019	-0.263603
H81	H	-4.281737	-0.557202	-0.264792
H82	H	-3.617394	-0.533609	-0.249465
H83	H	-3.724103	-0.774448	-0.248266
H84	H	-3.673019	-0.153014	-0.800831
