data_functionalizedCrystal
_audit_creation_method	'MofGen! by Chris Wilmer'
_symmetry_space_group_name_H-M	'P1'
_symmetry_Int_Tables_number	1
_symmetry_cell_setting	triclinic
loop_
_symmetry_equiv_pos_as_xyz
  x,y,z
_cell_length_a	14.853554
_cell_length_b	10.654562
_cell_length_c	9.730223
_cell_angle_alpha	89.996961
_cell_angle_beta	90.000729
_cell_angle_gamma	95.940223
loop_
_atom_site_label
_atom_site_type_symbol
_atom_site_fract_x
_atom_site_fract_y
_atom_site_fract_z
O1	O	-0.126677	1.666500	-0.114378
O2	O	-0.138730	1.300898	-0.114361
O3	O	-0.001525	1.493474	-0.114363
O4	O	-0.263881	1.473924	-0.114376
O5	O	-0.001529	1.493471	0.114217
O6	O	-0.138733	1.300895	0.114219
O7	O	-0.126681	1.666498	0.114202
Zn8	Zn	-0.132707	1.483696	0.150502
Zn9	Zn	-0.132703	1.483699	-0.150662
O10	O	-0.263885	1.473922	0.114204
C11	C	-0.137844	1.254108	-0.000069
C12	C	-0.135189	1.114693	-0.000062
C13	C	-0.133953	1.049174	0.124526
C14	C	-0.131466	0.918178	0.124503
C15	C	-0.131455	0.918231	-0.124707
C16	C	-0.133936	1.049226	-0.124683
C17	C	-0.135206	1.114642	0.249147
C18	C	-0.133971	1.049123	0.373745
C19	C	-0.131484	0.918127	0.373722
C20	C	-0.130232	0.852650	0.249101
C21	C	-0.297477	1.474806	-0.000088
C22	C	-0.397575	1.477451	-0.000094
C23	C	-0.820813	1.488697	-0.124683
C24	C	-0.820802	1.488694	0.124523
C25	C	-0.726755	1.486194	0.124522
C26	C	-0.679733	1.484946	-0.000083
C27	C	-0.726757	1.486200	-0.124688
C28	C	-0.679723	1.484953	0.249125
C29	C	-0.585670	1.482453	0.249129
C30	C	-0.538647	1.481197	0.124522
C31	C	-0.585677	1.482449	-0.000088
C32	C	-0.538655	1.481202	-0.124694
C33	C	-0.585684	1.482445	-0.249305
C34	C	-0.679734	1.484943	-0.249295
C35	C	-0.444598	1.478699	0.124512
C36	C	-0.444599	1.478705	-0.124699
C37	C	0.032066	1.492590	-0.000074
C38	C	0.132165	1.489944	-0.000078
C39	C	-0.127566	1.713287	-0.000094
C40	C	-0.130221	1.852702	-0.000109
N41	N	-0.132710	1.483704	0.356039
N42	N	-0.132693	1.483702	-0.356198
C43	C	-0.071977	1.568998	0.427964
C44	C	-0.071966	1.568995	0.571847
C45	C	-0.193429	1.398399	0.571867
C46	C	-0.193435	1.398397	0.427986
C47	C	-0.011252	1.654304	0.356016
C48	C	0.049486	1.739607	0.427941
C49	C	0.049497	1.739603	0.571824
C50	C	-0.011230	1.654298	0.643782
H51	H	-0.130471	0.864786	0.475176
H52	H	-0.859092	1.489719	0.225972
H53	H	-0.128204	0.745984	0.249093
H54	H	-0.718033	1.485960	-0.350747
H55	H	-0.130438	0.864909	-0.226168
H56	H	-0.134947	1.102572	-0.226134
H57	H	-0.137234	1.221305	0.249179
H58	H	-0.134983	1.102444	0.475207
H59	H	-0.242871	1.328947	0.630464
H60	H	-0.011257	1.654317	0.238859
H61	H	-0.011210	1.654294	0.760941
H62	H	-0.547386	1.481437	-0.350759
H63	H	-0.859108	1.489704	-0.226139
H64	H	-0.406321	1.477680	-0.226169
H65	H	-0.718015	1.485978	0.350572
H66	H	-0.547387	1.481441	0.350595
H67	H	-0.406310	1.477691	0.225968
H68	H	0.098932	1.809053	0.369346
H69	H	0.098957	1.809051	0.630384
H70	H	-0.242889	1.328941	0.369425
