data_functionalizedCrystal
_audit_creation_method	'MofGen! by Chris Wilmer'
_symmetry_space_group_name_H-M	'P1'
_symmetry_Int_Tables_number	1
_symmetry_cell_setting	triclinic
loop_
_symmetry_equiv_pos_as_xyz
  x,y,z
_cell_length_a	11.169417
_cell_length_b	13.897447
_cell_length_c	11.169409
_cell_angle_alpha	90.034303
_cell_angle_beta	90.019824
_cell_angle_gamma	90.020409
loop_
_atom_site_label
_atom_site_type_symbol
_atom_site_fract_x
_atom_site_fract_y
_atom_site_fract_z
Zn1	Zn	1.834886	-0.383914	0.678526
Zn2	Zn	2.334886	0.116086	1.178526
Zn3	Zn	1.834743	-0.545250	0.477836
Zn4	Zn	2.334743	-0.045250	0.977836
Zn5	Zn	1.634172	-0.383973	0.477861
Zn6	Zn	2.134172	0.116027	0.977861
Zn7	Zn	1.634147	-0.545171	0.678481
Zn8	Zn	2.134147	-0.045171	1.178481
O9	O	1.734487	-0.464577	0.578176
O10	O	2.234487	0.035423	1.078176
O11	O	2.002816	-0.405324	0.651913
O12	O	2.502816	0.094676	1.151913
O13	O	1.808087	-0.523914	0.309890
O14	O	2.308087	-0.023914	0.809890
O15	O	1.660867	-0.248984	0.504509
O16	O	2.160867	0.251016	1.004509
O17	O	2.002711	-0.523857	0.504467
O18	O	2.502711	-0.023857	1.004467
O19	O	1.808331	-0.248940	0.651937
O20	O	2.308331	0.251060	1.151937
O21	O	1.660728	-0.405424	0.309908
O22	O	2.160728	0.094576	0.809908
O23	O	1.466219	-0.405348	0.504465
O24	O	1.966219	0.094652	1.004465
O25	O	1.660825	-0.523723	0.846437
O26	O	2.160825	-0.023723	1.346437
O27	O	1.466200	-0.523780	0.651860
O28	O	1.966200	-0.023780	1.151860
O29	O	1.808307	-0.405248	0.846470
O30	O	2.308307	0.094752	1.346470
O31	O	1.808063	-0.680221	0.504423
O32	O	2.308063	-0.180221	1.004423
O33	O	1.660686	-0.680163	0.651836
O34	O	2.160686	-0.180163	1.151836
C35	C	1.422662	-0.464562	0.578161
C36	C	1.922662	0.035438	1.078161
C37	C	1.289262	-0.464579	0.578183
C38	C	1.789262	0.035421	1.078183
C39	C	1.734389	-0.715191	0.578148
C40	C	2.234389	-0.215191	1.078148
C41	C	1.734457	-0.822405	0.578177
C42	C	2.234457	-0.322405	1.078177
C43	C	1.734515	-0.909475	0.578204
C44	C	2.234515	-0.409475	1.078204
C45	C	1.734599	-1.018708	0.578235
C46	C	2.234599	-0.518708	1.078235
C47	C	2.047529	-0.464592	0.578192
C48	C	2.547529	0.035408	1.078192
C49	C	2.180929	-0.464599	0.578199
C50	C	2.680929	0.035401	1.078199
C51	C	1.734579	-0.464470	0.891219
C52	C	2.234579	0.035530	1.391219
C53	C	1.734618	-0.464424	1.024619
C54	C	2.234618	0.035576	1.524619
C55	C	1.734617	-0.212984	0.578230
C56	C	2.234617	0.287016	1.078230
C57	C	1.734673	-0.105770	0.578253
C58	C	2.234673	0.394230	1.078253
C59	C	1.734464	-0.464614	0.266351
C60	C	2.234464	0.035386	0.766351
C61	C	1.734657	-0.464388	0.132952
C62	C	2.234657	0.035612	0.632952
