data_functionalizedCrystal
_audit_creation_method	'MofGen! by Chris Wilmer'
_symmetry_space_group_name_H-M	'P1'
_symmetry_Int_Tables_number	1
_symmetry_cell_setting	triclinic
loop_
_symmetry_equiv_pos_as_xyz
  x,y,z
_cell_length_a	8.597340
_cell_length_b	10.654551
_cell_length_c	7.088929
_cell_angle_alpha	83.718726
_cell_angle_beta	103.954719
_cell_angle_gamma	84.910295
loop_
_atom_site_label
_atom_site_type_symbol
_atom_site_fract_x
_atom_site_fract_y
_atom_site_fract_z
O1	O	2.103278	0.172467	0.187499
O2	O	1.638823	0.192968	0.110986
O3	O	1.881728	-0.000106	0.151001
O4	O	1.860373	0.365542	0.147484
O5	O	1.914189	-0.025967	0.474323
O6	O	1.671284	0.167107	0.434309
O7	O	2.135739	0.146607	0.510821
Cu8	Cu	1.906476	0.154496	0.502087
Cu9	Cu	1.868086	0.185079	0.119721
O10	O	1.892834	0.339681	0.470807
C11	C	1.595582	0.179276	0.262850
C12	C	1.418375	0.176994	0.233658
C13	C	1.896390	-0.059822	0.312399
C14	C	1.891696	-0.199227	0.311613
C15	C	1.871801	-0.250625	0.135011
C16	C	1.867379	-0.381611	0.134291
C17	C	1.902757	-0.409791	0.486793
C18	C	1.907167	-0.278806	0.487508
C19	C	1.856330	-0.171046	-0.040885
C20	C	1.836435	-0.222443	-0.217501
C21	C	1.832013	-0.353429	-0.218221
C22	C	1.847486	-0.433017	-0.042324
C23	C	2.178980	0.160298	0.358953
C24	C	2.356185	0.162582	0.388133
C25	C	1.878172	0.399397	0.309404
C26	C	1.882864	0.538803	0.310178
N27	N	1.933488	0.132984	0.771025
N28	N	1.841086	0.206580	-0.149215
H29	H	1.859933	-0.064389	-0.040318
Br30	Br	1.281159	0.194642	-0.024032
H31	H	1.438513	0.151979	0.542727
H32	H	1.823822	-0.157632	-0.360712
H33	H	2.029270	0.056721	0.868459
H34	H	1.915355	-0.474602	0.630000
Br35	Br	1.841463	-0.610783	-0.043309
H36	H	1.923333	-0.236954	0.631308
H37	H	1.815797	-0.395270	-0.362033
Br38	Br	1.681471	0.333704	0.688413
