data_functionalizedCrystal
_audit_creation_method	'MofGen! by Chris Wilmer'
_symmetry_space_group_name_H-M	'P1'
_symmetry_Int_Tables_number	1
_symmetry_cell_setting	triclinic
loop_
_symmetry_equiv_pos_as_xyz
  x,y,z
_cell_length_a	16.992694
_cell_length_b	14.586319
_cell_length_c	16.109301
_cell_angle_alpha	90.001610
_cell_angle_beta	87.064852
_cell_angle_gamma	90.000460
loop_
_atom_site_label
_atom_site_type_symbol
_atom_site_fract_x
_atom_site_fract_y
_atom_site_fract_z
O1	O	1.040348	0.076131	0.176284
O2	O	0.812064	0.076158	0.174350
O3	O	0.932477	0.076134	0.054704
O4	O	0.919935	0.076154	0.295929
O5	O	0.932462	-0.076347	0.054711
O6	O	0.812049	-0.076323	0.174356
O7	O	1.040334	-0.076350	0.176290
Cu8	Cu	0.926190	-0.090259	0.175324
Cu9	Cu	0.926207	0.090067	0.175316
O10	O	0.919920	-0.076327	0.295936
C11	C	0.782844	-0.000080	0.171865
C12	C	0.695802	-0.000070	0.164441
N13	N	0.926183	-0.217091	0.175329
C14	C	0.973736	-0.452099	0.228931
C15	C	0.973745	-0.548080	0.228926
C16	C	0.878665	-0.548087	0.121697
C17	C	0.878662	-0.452107	0.121698
C18	C	0.926196	-0.404116	0.175320
C19	C	0.926208	-0.596077	0.175313
C20	C	0.926216	-0.700144	0.175307
C21	C	0.926189	-0.300042	0.175325
C22	C	0.645543	-0.000064	0.236067
C23	C	0.563758	-0.000078	0.229087
C24	C	0.532234	-0.000090	0.150481
C25	C	0.582499	-0.000098	0.078849
C26	C	0.664282	-0.000091	0.085830
C27	C	0.288644	-0.000116	0.121548
C28	C	0.206854	-0.000120	0.114572
C29	C	0.188119	-0.000102	0.264811
C30	C	0.269904	-0.000090	0.271785
C31	C	0.320163	-0.000103	0.200154
N32	N	0.448637	-0.000100	0.143344
N33	N	0.403758	-0.000099	0.207291
C34	C	1.069553	-0.000111	0.178775
C35	C	1.156595	-0.000115	0.186198
C36	C	0.931962	-0.000107	0.023699
C37	C	0.930439	-0.000108	-0.068698
N38	N	0.926220	0.216898	0.175304
C39	C	0.998348	-0.000101	-0.286439
C40	C	0.996911	-0.000094	-0.373256
C41	C	0.854044	-0.000080	-0.362915
C42	C	0.855482	-0.000082	-0.276100
C43	C	0.927636	-0.000097	-0.237865
C44	C	0.924761	-0.000088	-0.411496
C45	C	0.923202	-0.000080	-0.505626
C46	C	0.929196	-0.000103	-0.143729
C47	C	0.920435	-0.000084	0.326941
C48	C	0.921959	-0.000077	0.419338
H49	H	1.012458	-0.587144	0.272580
C50	C	0.826374	-0.600880	0.062726
H51	H	0.833178	-0.664915	0.070408
H52	H	0.840953	-0.585153	0.006816
H53	H	0.772722	-0.585151	0.074586
C54	C	0.343917	-0.000124	0.042756
H55	H	0.313426	-0.000123	-0.005057
H56	H	0.376211	-0.053296	0.042356
H57	H	0.376208	0.053057	0.042351
H58	H	0.839948	-0.413039	0.078038
C59	C	0.680213	-0.000051	0.322536
H60	H	0.638564	-0.000058	0.364193
H61	H	0.711725	0.053125	0.328381
H62	H	0.711728	-0.053228	0.328384
H63	H	0.522840	-0.000072	0.287413
H64	H	0.797897	-0.000075	-0.236549
C65	C	0.304576	-0.000090	0.358253
H66	H	0.262929	-0.000099	0.399912
H67	H	0.336090	0.053083	0.364100
H68	H	0.336089	-0.053270	0.364095
H69	H	1.012442	-0.413027	0.272593
C70	C	0.132838	-0.000093	0.343601
H71	H	0.163327	-0.000078	0.391415
H72	H	0.100545	-0.053266	0.344007
H73	H	0.100546	0.053087	0.343997
H74	H	0.181191	-0.000129	0.050558
C75	C	0.547828	-0.000110	-0.007618
H76	H	0.589476	-0.000120	-0.049277
H77	H	0.516313	0.053062	-0.013468
H78	H	0.516316	-0.053292	-0.013461
C79	C	0.719567	-0.000087	0.007042
H80	H	0.689081	-0.000086	-0.040774
H81	H	0.751865	-0.053257	0.006642
H82	H	0.751855	0.053097	0.006642
C83	C	1.077714	-0.000108	-0.244383
H84	H	1.119620	-0.000101	-0.285749
H85	H	1.081245	-0.053281	-0.210732
H86	H	1.081245	0.053073	-0.210731
C87	C	1.074693	-0.000105	-0.426684
H88	H	1.117868	-0.000121	-0.391476
H89	H	1.077110	0.053069	-0.460764
H90	H	1.077095	-0.053285	-0.460767
C91	C	0.774681	-0.000077	-0.404976
H92	H	0.783950	-0.000087	-0.463637
H93	H	0.745566	0.053097	-0.388625
H94	H	0.745568	-0.053257	-0.388624
