data_functionalizedCrystal
_audit_creation_method	'MofGen! by Chris Wilmer'
_symmetry_space_group_name_H-M	'P1'
_symmetry_Int_Tables_number	1
_symmetry_cell_setting	triclinic
loop_
_symmetry_equiv_pos_as_xyz
  x,y,z
_cell_length_a	19.805407
_cell_length_b	16.959453
_cell_length_c	19.805399
_cell_angle_alpha	89.973285
_cell_angle_beta	89.979591
_cell_angle_gamma	90.021928
loop_
_atom_site_label
_atom_site_type_symbol
_atom_site_fract_x
_atom_site_fract_y
_atom_site_fract_z
Zn1	Zn	1.034766	-0.314659	-0.382739
Zn2	Zn	1.368099	0.018674	-0.049406
Zn3	Zn	1.701433	0.352008	0.283928
Zn4	Zn	1.034693	-0.446841	-0.269552
Zn5	Zn	1.368027	-0.113508	0.063781
Zn6	Zn	1.701360	0.219825	0.397114
Zn7	Zn	0.921581	-0.314685	-0.269562
Zn8	Zn	1.254914	0.018648	0.063772
Zn9	Zn	1.588247	0.351981	0.397105
Zn10	Zn	0.921557	-0.446804	-0.382697
Zn11	Zn	1.254890	-0.113470	-0.049364
Zn12	Zn	1.588223	0.219863	0.283969
O13	O	0.978149	-0.380747	-0.326138
O14	O	1.311482	-0.047414	0.007196
O15	O	1.644816	0.285919	0.340529
O16	O	1.129473	-0.332198	-0.367738
O17	O	1.462806	0.001135	-0.034404
O18	O	1.796140	0.334469	0.298929
O19	O	1.019668	-0.429337	-0.174837
O20	O	1.353002	-0.096004	0.158496
O21	O	1.686335	0.237329	0.491830
O22	O	0.936635	-0.204071	-0.284596
O23	O	1.269968	0.129263	0.048737
O24	O	1.603302	0.462596	0.382070
O25	O	1.129420	-0.429312	-0.284580
O26	O	1.462753	-0.095978	0.048753
O27	O	1.796086	0.237355	0.382087
O28	O	1.019792	-0.204052	-0.367747
O29	O	1.353125	0.129282	-0.034414
O30	O	1.686459	0.462615	0.298920
O31	O	0.936565	-0.332243	-0.174844
O32	O	1.269898	0.001091	0.158489
O33	O	1.603232	0.334424	0.491823
O34	O	0.826861	-0.332206	-0.284556
O35	O	1.160194	0.001127	0.048777
O36	O	1.493527	0.334460	0.382111
O37	O	0.936595	-0.429248	-0.477420
O38	O	1.269928	-0.095914	-0.144086
O39	O	1.603261	0.237419	0.189247
O40	O	0.826843	-0.429273	-0.367676
O41	O	1.160177	-0.095940	-0.034343
O42	O	1.493510	0.237393	0.298990
O43	O	1.019769	-0.332162	-0.477450
O44	O	1.353102	0.001172	-0.144117
O45	O	1.686435	0.334505	0.189217
O46	O	1.019645	-0.557447	-0.284540
O47	O	1.352979	-0.224114	0.048793
O48	O	1.686312	0.109219	0.382127
O49	O	0.936524	-0.557420	-0.367667
O50	O	1.269858	-0.224086	-0.034334
O51	O	1.603191	0.109247	0.299000
C52	C	0.802293	-0.380739	-0.326113
C53	C	1.135626	-0.047406	0.007220
C54	C	1.468960	0.285928	0.340554
C55	C	0.727061	-0.380755	-0.326119
C56	C	1.060394	-0.047421	0.007215
C57	C	1.393728	0.285912	0.340548
C58	C	0.265301	-0.330275	-0.369530
C59	C	0.598635	0.003059	-0.036197
C60	C	0.931968	0.336392	0.297136
C61	C	0.335990	-0.330276	-0.369525
C62	C	0.669323	0.003057	-0.036192
C63	C	1.002656	0.336391	0.297141
C64	C	0.371299	-0.380759	-0.326159
C65	C	0.704633	-0.047426	0.007174
C66	C	1.037966	0.285907	0.340507
C67	C	0.335917	-0.431250	-0.282800
C68	C	0.669250	-0.097917	0.050533
C69	C	1.002584	0.235417	0.383866
C70	C	0.265230	-0.431252	-0.282809
C71	C	0.598563	-0.097919	0.050524
C72	C	0.931896	0.235415	0.383857
C73	C	0.620990	-0.431244	-0.282765
C74	C	0.954324	-0.097911	0.050569
C75	C	1.287657	0.235423	0.383902
C76	C	0.691682	-0.431236	-0.282758
C77	C	1.025016	-0.097903	0.050576
C78	C	1.358349	0.235430	0.383909
C79	C	0.691750	-0.330268	-0.369481
C80	C	1.025084	0.003065	-0.036147
C81	C	1.358417	0.336399	0.297186
C82	C	0.621063	-0.330270	-0.369490
C83	C	0.954396	0.003063	-0.036156
C84	C	1.287730	0.336397	0.297177
C85	C	0.585687	-0.380763	-0.326133
C86	C	0.919020	-0.047430	0.007200
C87	C	1.252353	0.285903	0.340533
C88	C	0.509038	-0.380762	-0.326140
C89	C	0.842372	-0.047429	0.007193
C90	C	1.175705	0.285904	0.340527
C91	C	0.447947	-0.380757	-0.326149
C92	C	0.781280	-0.047424	0.007185
C93	C	1.114613	0.285910	0.340518
C94	C	0.978093	-0.586114	-0.326113
C95	C	1.311426	-0.252780	0.007221
C96	C	1.644759	0.080553	0.340554
C97	C	0.978130	-0.673970	-0.326125
C98	C	1.311464	-0.340637	0.007209
C99	C	1.644797	-0.007304	0.340542
C100	C	1.021504	-1.045377	-0.369516
C101	C	1.354838	-0.712044	-0.036183
C102	C	1.688171	-0.378710	0.297151
C103	C	0.934983	-1.045514	-0.282860
C104	C	1.268316	-0.712181	0.050474
C105	C	1.601650	-0.378848	0.383807
C106	C	0.934958	-0.962968	-0.282844
C107	C	1.268291	-0.629635	0.050489
C108	C	1.601625	-0.296302	0.383822
C109	C	0.978206	-0.921623	-0.326166
C110	C	1.311539	-0.588290	0.007167
C111	C	1.644873	-0.254956	0.340501
C112	C	1.021479	-0.962824	-0.369503
C113	C	1.354812	-0.629490	-0.036170
C114	C	1.688146	-0.296157	0.297164
C115	C	0.891681	-0.921762	-0.239513
C116	C	1.225014	-0.588428	0.093821
C117	C	1.558347	-0.255095	0.427154
C118	C	0.891653	-0.839211	-0.239496
C119	C	1.224987	-0.505877	0.093837
C120	C	1.558320	-0.172544	0.427171
C121	C	0.934905	-0.797864	-0.282815
C122	C	1.268239	-0.464531	0.050519
C123	C	1.601572	-0.131197	0.383852
C124	C	0.978181	-0.839070	-0.326153
C125	C	1.311514	-0.505736	0.007180
C126	C	1.644847	-0.172403	0.340514
C127	C	1.021429	-0.797724	-0.369475
C128	C	1.354762	-0.464391	-0.036141
C129	C	1.688095	-0.131058	0.297192
C130	C	1.064708	-0.838928	-0.412810
C131	C	1.398042	-0.505595	-0.079477
C132	C	1.731375	-0.172262	0.253856
C133	C	1.064731	-0.921477	-0.412822
C134	C	1.398064	-0.588144	-0.079489
C135	C	1.731398	-0.254810	0.253845
C136	C	0.934882	-0.715315	-0.282803
C137	C	1.268216	-0.381982	0.050530
C138	C	1.601549	-0.048649	0.383863
C139	C	1.021404	-0.715171	-0.369462
C140	C	1.354737	-0.381837	-0.036129
C141	C	1.688070	-0.048504	0.297205
C142	C	1.154692	-0.380756	-0.326163
C143	C	1.488025	-0.047423	0.007171
C144	C	1.821359	0.285911	0.340504
C145	C	1.229924	-0.380760	-0.326173
C146	C	1.563257	-0.047427	0.007160
C147	C	1.896591	0.285907	0.340494
C148	C	0.978187	-0.380698	-0.502680
C149	C	1.311520	-0.047364	-0.169347
C150	C	1.644854	0.285969	0.163986
C151	C	0.978203	-0.380676	-0.577912
C152	C	1.311537	-0.047343	-0.244579
C153	C	1.644870	0.285990	0.088754
C154	C	0.978224	-0.174579	-0.326177
C155	C	1.311558	0.158754	0.007156
C156	C	1.644891	0.492088	0.340489
C157	C	0.978256	-0.086722	-0.326194
C158	C	1.311590	0.246611	0.007139
C159	C	1.644923	0.579944	0.340472
C160	C	1.021513	-0.330121	-0.613274
C161	C	1.354846	0.003212	-0.279940
C162	C	1.688180	0.336546	0.053393
C163	C	1.021520	-0.330098	-0.683962
C164	C	1.354853	0.003235	-0.350629
C165	C	1.688187	0.336569	-0.017295
C166	C	0.978220	-0.380635	-0.719288
C167	C	1.311553	-0.047302	-0.385955
C168	C	1.644887	0.286032	-0.052621
C169	C	0.934906	-0.431193	-0.683922
C170	C	1.268239	-0.097859	-0.350589
C171	C	1.601572	0.235474	-0.017255
C172	C	0.934896	-0.431211	-0.613235
C173	C	1.268229	-0.097878	-0.279901
C174	C	1.601562	0.235456	0.053432
C175	C	0.934944	-0.431119	-0.968995
C176	C	1.268277	-0.097786	-0.635662
C177	C	1.601610	0.235548	-0.302329
C178	C	0.934958	-0.431098	-1.039688
C179	C	1.268292	-0.097765	-0.706354
C180	C	1.601625	0.235568	-0.373021
C181	C	1.021568	-0.330006	-1.039723
C182	C	1.354901	0.003327	-0.706389
C183	C	1.688235	0.336661	-0.373056
C184	C	1.021558	-0.330024	-0.969035
C185	C	1.354892	0.003309	-0.635702
C186	C	1.688225	0.336642	-0.302369
C187	C	0.978241	-0.380579	-0.933676
C188	C	1.311575	-0.047245	-0.600342
C189	C	1.644908	0.286088	-0.267009
C190	C	0.978234	-0.380602	-0.857027
C191	C	1.311567	-0.047268	-0.523694
C192	C	1.644900	0.286065	-0.190360
C193	C	0.978231	-0.380616	-0.795935
C194	C	1.311564	-0.047283	-0.462602
C195	C	1.644898	0.286050	-0.129269
C196	C	0.978150	-0.380740	-0.150282
C197	C	1.311484	-0.047407	0.183052
C198	C	1.644817	0.285927	0.516385
C199	C	0.978265	-0.380538	-0.075050
C200	C	1.311599	-0.047205	0.258283
C201	C	1.644932	0.286128	0.591617
H202	H	0.364672	-0.472357	-0.247494
H203	H	0.698005	-0.139024	0.085840
H204	H	1.031338	0.194309	0.419173
N205	N	0.374157	-0.275812	-0.416271
N206	N	0.707490	0.057521	-0.082938
N207	N	1.040824	0.390854	0.250396
H208	H	0.403494	-0.307972	-0.447589
H209	H	0.736827	0.025361	-0.114255
H210	H	1.070160	0.358694	0.219078
H211	H	0.341027	-0.243830	-0.443697
H212	H	0.674361	0.089503	-0.110363
H213	H	1.007694	0.422836	0.222970
H214	H	1.056743	-1.078929	-0.404797
H215	H	1.390077	-0.745596	-0.071463
H216	H	1.723410	-0.412263	0.261870
H217	H	0.899770	-1.079183	-0.247592
H218	H	1.233103	-0.745849	0.085741
H219	H	1.566436	-0.412516	0.419075
H220	H	0.236426	-0.472364	-0.247505
H221	H	0.569760	-0.139030	0.085829
H222	H	0.903093	0.194303	0.419162
N223	N	0.582987	-0.275810	-0.416259
N224	N	0.916321	0.057524	-0.082926
N225	N	1.249654	0.390857	0.250407
H226	H	0.595307	-0.288157	-0.464600
H227	H	0.928641	0.045177	-0.131267
H228	H	1.261974	0.378510	0.202066
H229	H	0.532850	-0.283490	-0.409630
H230	H	0.866183	0.049844	-0.076296
H231	H	1.199517	0.383177	0.257037
H232	H	0.856469	-0.955431	-0.204245
H233	H	1.189802	-0.622098	0.129089
H234	H	1.523135	-0.288764	0.462422
H235	H	1.056789	-0.288933	-0.712750
H236	H	1.390122	0.044401	-0.379417
H237	H	1.723456	0.377734	-0.046083
H238	H	0.720562	-0.289156	-0.404785
H239	H	1.053895	0.044177	-0.071452
H240	H	1.387229	0.377510	0.261881
N241	N	0.888182	-0.485744	-0.575100
N242	N	1.221515	-0.152411	-0.241767
N243	N	1.554848	0.180923	0.091567
H244	H	0.915667	-0.522384	-0.545768
H245	H	1.249001	-0.189051	-0.212435
H246	H	1.582334	0.144283	0.120898
H247	H	0.856830	-0.453571	-0.545813
H248	H	1.190163	-0.120238	-0.212479
H249	H	1.523497	0.213096	0.120854
H250	H	0.899682	-0.472295	-0.940214
H251	H	1.233016	-0.138962	-0.606881
H252	H	1.566349	0.194372	-0.273547
H253	H	1.056836	-0.288839	-1.068521
H254	H	1.390170	0.044494	-0.735188
H255	H	1.723503	0.377827	-0.401854
H256	H	1.056820	-0.288875	-0.940276
H257	H	1.390153	0.044459	-0.606943
H258	H	1.723487	0.377792	-0.273610
H259	H	0.592195	-0.472356	-0.247459
H260	H	0.925529	-0.139023	0.085874
H261	H	1.258862	0.194310	0.419207
N262	N	0.729769	-0.485687	-0.235981
N263	N	1.063102	-0.152354	0.097352
N264	N	1.396436	0.180980	0.430685
H265	H	0.696633	-0.517676	-0.208517
H266	H	1.029966	-0.184343	0.124816
H267	H	1.363299	0.148991	0.458150
H268	H	0.759103	-0.522302	-0.263476
H269	H	1.092436	-0.188969	0.069857
H270	H	1.425769	0.144365	0.403190
H271	H	0.899647	-0.472338	-0.712690
H272	H	1.232981	-0.139004	-0.379357
H273	H	1.566314	0.194329	-0.046023
N274	N	0.844980	-0.794772	-0.192755
N275	N	1.178314	-0.461439	0.140578
N276	N	1.511647	-0.128105	0.473912
H277	H	0.817588	-0.833491	-0.165313
H278	H	1.150921	-0.500158	0.168020
H279	H	1.484255	-0.166824	0.501353
H280	H	0.872545	-0.760527	-0.161453
H281	H	1.205878	-0.427194	0.171880
H282	H	1.539212	-0.093860	0.505214
H283	H	0.236557	-0.289161	-0.404840
H284	H	0.569891	0.044173	-0.071506
H285	H	0.903224	0.377506	0.261827
N286	N	0.888245	-0.485593	-1.077797
N287	N	1.221579	-0.152260	-0.744464
N288	N	1.554912	0.181074	-0.411130
H289	H	0.915739	-0.522220	-1.107125
H290	H	1.249072	-0.188886	-0.773791
H291	H	1.582406	0.144447	-0.440458
H292	H	0.860806	-0.517568	-1.044633
H293	H	1.194139	-0.184235	-0.711300
H294	H	1.527473	0.149098	-0.377966
N295	N	1.068054	-0.670579	-0.416185
N296	N	1.401387	-0.337245	-0.082852
N297	N	1.734720	-0.003912	0.250482
H298	H	1.095472	-0.709209	-0.443637
H299	H	1.428805	-0.375875	-0.110303
H300	H	1.762139	-0.042542	0.223030
H301	H	1.040473	-0.636331	-0.447479
H302	H	1.373807	-0.302998	-0.114146
H303	H	1.707140	0.030335	0.219188
N304	N	0.888205	-0.670873	-0.236074
N305	N	1.221538	-0.337540	0.097259
N306	N	1.554871	-0.004206	0.430592
H307	H	0.860808	-0.709591	-0.208635
H308	H	1.194142	-0.376258	0.124698
H309	H	1.527475	-0.042925	0.458031
H310	H	0.915762	-0.636624	-0.204769
H311	H	1.249095	-0.303291	0.128565
H312	H	1.582429	0.030043	0.461898
N313	N	1.068220	-0.275618	-0.575174
N314	N	1.401553	0.057716	-0.241841
N315	N	1.734887	0.391049	0.091493
H316	H	1.095657	-0.243587	-0.608304
H317	H	1.428990	0.089746	-0.274971
H318	H	1.762323	0.423079	0.058362
H319	H	1.040679	-0.239044	-0.545846
H320	H	1.374012	0.094289	-0.212513
H321	H	1.707346	0.427622	0.120820
H322	H	1.099966	-0.955033	-0.448104
H323	H	1.433300	-0.621699	-0.114770
H324	H	1.766633	-0.288366	0.218563
N325	N	1.111346	-0.794325	-0.459538
N326	N	1.444679	-0.460992	-0.126204
N327	N	1.778012	-0.127658	0.207129
H328	H	1.142713	-0.760063	-0.432055
H329	H	1.476046	-0.426730	-0.098722
H330	H	1.809380	-0.093397	0.234611
H331	H	1.138723	-0.832995	-0.486986
H332	H	1.472056	-0.499662	-0.153652
H333	H	1.805390	-0.166328	0.179681
