data_functionalizedCrystal
_audit_creation_method	'MofGen! by Chris Wilmer'
_symmetry_space_group_name_H-M	'P1'
_symmetry_Int_Tables_number	1
_symmetry_cell_setting	triclinic
loop_
_symmetry_equiv_pos_as_xyz
  x,y,z
_cell_length_a	31.640172
_cell_length_b	17.052862
_cell_length_c	17.052862
_cell_angle_alpha	61.493325
_cell_angle_beta	89.995270
_cell_angle_gamma	70.257755
loop_
_atom_site_label
_atom_site_type_symbol
_atom_site_fract_x
_atom_site_fract_y
_atom_site_fract_z
Zr1	Zr	0.489852	0.816583	-0.200483
O2	O	0.443175	0.944487	-0.328609
O3	O	0.493884	0.665861	-0.146292
O4	O	0.516532	0.783659	-0.307106
O5	O	0.414352	0.860617	-0.057907
O6	O	0.586087	0.783645	-0.307108
O7	O	0.420527	0.826689	-0.167795
O8	O	0.545573	0.572925	-0.019442
O9	O	0.454865	1.071337	-0.345573
O10	O	0.559928	0.736296	-0.141200
O11	O	0.503411	0.761627	-0.059190
O12	O	0.530076	0.900319	-0.248527
O13	O	0.473560	0.925650	-0.166517
Zr14	Zr	0.590935	0.870672	-0.025228
Zr15	Zr	0.600784	0.816560	-0.200487
Zr16	Zr	0.480003	0.870695	-0.025224
Zr17	Zr	0.508496	1.018894	-0.227539
Zr18	Zr	0.572291	0.668362	0.001828
O19	O	0.586903	1.021394	-0.079419
O20	O	0.600907	0.944455	-0.328615
O21	O	0.429171	1.021427	-0.079413
O22	O	0.637612	0.742768	0.102897
O23	O	0.651616	0.665828	-0.146298
O24	O	0.479880	0.742801	0.102903
O25	O	0.666435	0.826638	-0.167804
O26	O	0.564255	0.903596	0.081394
O27	O	0.494700	0.903610	0.081397
O28	O	0.660260	0.860566	-0.057916
O29	O	0.543042	1.071319	-0.345577
O30	O	0.537745	0.615937	0.119865
O31	O	0.625922	0.615918	0.119862
O32	O	0.633750	0.572907	-0.019445
O33	O	0.447037	1.114348	-0.206266
O34	O	0.535214	1.114330	-0.206269
O35	O	0.550711	0.786936	0.022816
O36	O	0.607227	0.761605	-0.059194
O37	O	0.577376	0.925629	-0.166521
O38	O	0.520859	0.950959	-0.084511
C39	C	0.517072	0.590568	-0.079012
C40	C	0.509157	0.504682	-0.067526
C41	C	0.604850	0.209698	-0.206394
C42	C	0.612286	0.290395	-0.217192
C43	C	0.586505	0.343971	-0.179776
C44	C	0.553286	0.316842	-0.131561
C45	C	0.545847	0.236141	-0.120768
C46	C	0.527501	0.370414	-0.094150
C47	C	0.494282	0.343285	-0.045935
C48	C	0.486845	0.262591	-0.035144
C49	C	0.512626	0.209016	-0.072559
C50	C	0.534940	0.451114	-0.104943
C51	C	0.475937	0.477557	-0.019317
C52	C	0.468501	0.396860	-0.008519
C53	C	0.401634	0.843656	-0.112850
C54	C	0.354540	0.843666	-0.112849
C55	C	0.065932	0.824917	-0.173390
C56	C	-0.111055	0.824902	-0.173394
O57	O	-0.131040	0.808963	-0.224853
N58	N	-0.136588	0.843595	-0.112857
C59	C	-0.117870	0.862287	-0.052310
O60	O	-0.143646	0.878177	-0.000813
C61	C	0.059118	0.862296	-0.052302
C62	C	0.084647	0.843611	-0.112850
C63	C	0.091461	0.806233	-0.233931
C64	C	0.135704	0.806242	-0.233933
C65	C	0.154418	0.824936	-0.173393
C66	C	0.128890	0.843620	-0.112851
C67	C	0.077836	0.880981	0.008248
C68	C	0.122087	0.880979	0.008246
C69	C	0.147616	0.862294	-0.052301
C70	C	0.191848	0.862323	-0.052313
N71	N	0.217380	0.843630	-0.112850
C72	C	0.198666	0.824936	-0.173390
C73	C	-0.210791	0.862283	-0.052320
C74	C	-0.255038	0.862283	-0.052323
C75	C	-0.248220	0.824895	-0.173406
C76	C	-0.203974	0.824903	-0.173406
C77	C	-0.185259	0.843590	-0.112857
C78	C	0.291579	0.824958	-0.173390
C79	C	0.335825	0.824972	-0.173389
C80	C	0.329004	0.862355	-0.052303
C81	C	0.284761	0.862345	-0.052307
C82	C	0.266051	0.843642	-0.112854
O83	O	0.211863	0.878242	-0.000874
O84	O	0.224453	0.809028	-0.224865
C85	C	0.021689	0.824908	-0.173388
C86	C	-0.003840	0.843592	-0.112846
C87	C	0.014875	0.862286	-0.052306
C88	C	-0.048087	0.843592	-0.112849
C89	C	-0.066802	0.824898	-0.173389
C90	C	-0.041269	0.806205	-0.233926
C91	C	0.002974	0.806214	-0.233928
C92	C	-0.010658	0.880979	0.008231
C93	C	-0.054901	0.880970	0.008227
C94	C	-0.073615	0.862276	-0.052313
C95	C	0.679153	0.843599	-0.112861
C96	C	0.726247	0.843589	-0.112863
C97	C	0.552713	0.775942	-0.332078
C98	C	0.556894	0.752971	-0.406480
C99	C	0.563715	1.096687	-0.146699
C100	C	0.571630	1.182573	-0.158186
C101	C	0.506345	1.030699	-0.840307
C102	C	0.502414	1.052286	-0.770404
C103	C	0.516034	0.977459	-0.679420
C104	C	0.533585	0.881042	-0.658344
C105	C	0.537513	0.859454	-0.728253
C106	C	0.547202	0.806213	-0.567367
C107	C	0.564753	0.709796	-0.546291
C108	C	0.568681	0.688212	-0.616195
C109	C	0.555061	0.763039	-0.707179
C110	C	0.543274	0.827802	-0.497458
C111	C	0.574442	0.656556	-0.385405
C112	C	0.578373	0.634970	-0.455307
C113	C	0.528074	0.911313	0.106366
C114	C	0.523893	0.934285	0.180768
C115	C	0.655832	0.590539	-0.079017
C116	C	0.695011	0.504644	-0.067533
C117	C	0.504753	0.658253	0.140210
C118	C	0.492656	0.595339	0.226098
C119	C	0.643512	0.658225	0.140205
C120	C	0.678510	0.595301	0.226091
C121	C	0.437275	1.029031	-0.365916
C122	C	0.402277	1.091955	-0.451802
C123	C	0.424955	1.096716	-0.146694
C124	C	0.385776	1.182612	-0.158178
C125	C	0.576034	1.029002	-0.365921
C126	C	0.588131	1.091916	-0.451809
C127	C	0.688720	0.451093	-0.104953
C128	C	0.725530	0.370390	-0.094180
C129	C	0.768630	0.343237	-0.045981
C130	C	0.774921	0.396797	-0.008560
C131	C	0.738111	0.477501	-0.019339
C132	C	0.511665	0.579007	0.309246
C133	C	0.500299	0.519906	0.389952
C134	C	0.469925	0.477132	0.387509
C135	C	0.450914	0.493469	0.304352
C136	C	0.462278	0.552575	0.223647
C137	C	0.724451	0.552528	0.223616
C138	C	0.757341	0.493414	0.304307
C139	C	0.744288	0.477067	0.387473
C140	C	0.698342	0.519847	0.389946
C141	C	0.665454	0.578966	0.309255
C142	C	0.356337	1.134737	-0.449328
C143	C	0.323449	1.193876	-0.530023
C144	C	0.336503	1.210227	-0.613190
C145	C	0.382448	1.167442	-0.615662
C146	C	0.415335	1.108309	-0.534969
C147	C	0.392068	1.236169	-0.120766
C148	C	0.355261	1.316887	-0.131562
C149	C	0.312162	1.344043	-0.179764
C150	C	0.305871	1.290481	-0.217181
C151	C	0.342678	1.209768	-0.206391
C152	C	0.618506	1.134673	-0.449337
C153	C	0.629880	1.193779	-0.530030
C154	C	0.610876	1.210133	-0.613195
C155	C	0.580500	1.167368	-0.615665
C156	C	0.569128	1.108258	-0.534972
H157	H	0.454942	0.521181	0.011147
H158	H	0.798599	0.277520	-0.037210
H159	H	0.582968	0.609703	-0.599028
H160	H	0.687721	0.506528	0.457671
H161	H	0.735088	0.565827	0.155906
H162	H	0.633983	1.121370	-0.381628
H163	H	0.426183	0.458634	0.302377
H164	H	-0.263465	0.809676	-0.222701
H165	H	0.544393	1.073451	-0.536998
H166	H	0.771072	0.428926	0.453170
H167	H	0.628047	0.613784	0.311283
H168	H	0.561987	0.473195	-0.144201
H169	H	0.620139	1.258266	-0.678894
H170	H	0.558262	0.745469	-0.764104
H171	H	0.270774	1.312603	-0.256427
H172	H	0.592663	0.556466	-0.438158
H173	H	0.720399	0.326791	-0.124655
H174	H	0.810018	0.374676	0.030683
H175	H	0.528982	0.906305	-0.514627
H176	H	0.286041	1.228703	-0.527992
H177	H	0.156488	0.791023	-0.283233
H178	H	0.337548	1.166163	-0.236855
H179	H	0.794749	0.458586	0.302278
H180	H	0.360392	1.360487	-0.101087
H181	H	0.446799	0.565861	0.155949
H182	H	0.282194	1.409766	-0.188543
H183	H	0.309720	1.258379	-0.678888
H184	H	0.057057	0.896195	0.057551
H185	H	0.344248	0.877579	-0.003014
H186	H	0.345699	1.121427	-0.381617
H187	H	0.393071	1.180763	-0.683386
H188	H	0.592561	0.409677	-0.188571
H189	H	0.495255	1.091613	-0.914387
H190	H	0.452741	1.073474	-0.536993
H191	H	0.023757	0.790999	-0.283231
H192	H	0.427158	1.214068	-0.081510
H193	H	0.743239	0.521095	0.011140
H194	H	0.654613	1.228594	-0.528002
H195	H	0.515784	0.506613	0.457654
H196	H	0.565029	1.180693	-0.683389
H197	H	0.653630	0.473195	-0.144212
H198	H	0.536397	0.613830	0.311252
H199	H	-0.075685	0.896194	0.057530
H200	H	0.585531	0.595626	-0.311322
H201	H	0.639332	0.312482	-0.256450
H202	H	0.488124	1.130789	-0.787571
H203	H	0.625836	0.166077	-0.236860
H204	H	0.506576	0.143301	-0.063765
H205	H	0.441453	0.374760	0.030737
H206	H	0.356609	0.809759	-0.222697
H207	H	0.459792	0.240512	0.004108
H208	H	0.276350	0.809726	-0.222691
H209	H	0.076228	0.791006	-0.283230
H210	H	0.137323	0.896194	0.057556
H211	H	-0.183190	0.809687	-0.222709
H212	H	-0.195557	0.877502	-0.003012
H213	H	-0.275824	0.877513	-0.003029
H214	H	-0.056514	0.790989	-0.283224
H215	H	0.263973	0.877574	-0.003013
H216	H	0.512832	0.995040	-0.622506
H217	H	0.460675	0.429006	0.453231
H218	H	0.004576	0.896200	0.057531
