data_functionalizedCrystal
_audit_creation_method	'MofGen! by Chris Wilmer'
_symmetry_space_group_name_H-M	'P1'
_symmetry_Int_Tables_number	1
_symmetry_cell_setting	triclinic
loop_
_symmetry_equiv_pos_as_xyz
  x,y,z
_cell_length_a	18.101398
_cell_length_b	19.121063
_cell_length_c	18.101390
_cell_angle_alpha	92.404924
_cell_angle_beta	89.975319
_cell_angle_gamma	92.464489
loop_
_atom_site_label
_atom_site_type_symbol
_atom_site_fract_x
_atom_site_fract_y
_atom_site_fract_z
Zn1	Zn	1.119561	-0.279674	-0.431399
Zn2	Zn	1.114180	-0.397138	-0.312833
Zn3	Zn	0.995718	-0.279696	-0.307561
Zn4	Zn	0.990397	-0.397078	-0.436619
O5	O	1.054964	-0.338397	-0.372103
O6	O	1.222480	-0.295271	-0.415693
O7	O	1.098441	-0.381594	-0.208503
O8	O	1.016625	-0.181409	-0.319598
O9	O	1.218526	-0.381572	-0.328583
O10	O	1.107612	-0.181393	-0.410581
O11	O	1.011407	-0.295310	-0.204629
O12	O	0.891380	-0.295252	-0.324660
O13	O	1.007556	-0.381470	-0.539558
O14	O	0.887471	-0.381492	-0.419478
O15	O	1.102453	-0.295213	-0.535723
O16	O	1.093281	-0.495414	-0.333645
O17	O	1.002339	-0.495370	-0.424590
C18	C	0.862555	-0.338368	-0.372063
C19	C	0.780241	-0.338373	-0.372065
C20	C	0.481148	-0.338417	-0.372129
C21	C	0.514920	-0.283886	-0.312739
C22	C	0.600532	-0.284032	-0.312502
C23	C	0.629531	-0.338394	-0.372097
C24	C	0.595090	-0.412381	-0.354095
C25	C	0.509458	-0.412078	-0.353686
C26	C	0.513608	-0.319604	-0.449683
C27	C	0.599333	-0.317957	-0.449182
C28	C	0.713391	-0.338386	-0.372080
C29	C	0.397288	-0.338430	-0.372144
C30	C	1.046669	-0.520876	-0.380272
C31	C	1.043188	-0.598942	-0.383791
C32	C	1.088938	-0.635616	-0.338133
C33	C	1.085668	-0.708967	-0.341448
C34	C	1.036644	-0.745642	-0.390416
C35	C	0.990892	-0.708962	-0.436079
C36	C	0.994166	-0.635612	-0.432768
C37	C	1.024392	-0.967110	-0.402783
C38	C	1.021120	-1.040464	-0.406089
C39	C	1.115898	-1.040465	-0.311459
C40	C	1.119164	-0.967114	-0.308149
C41	C	1.073415	-0.930440	-0.353814
C42	C	1.033299	-0.820618	-0.393803
C43	C	1.076764	-0.855465	-0.350430
C44	C	1.248125	-0.338426	-0.372144
C45	C	1.330438	-0.338438	-0.372161
C46	C	1.055011	-0.338333	-0.565262
C47	C	1.055031	-0.338305	-0.647575
C48	C	1.063313	-0.155205	-0.363919
C49	C	1.066870	-0.077139	-0.360432
C50	C	1.055073	-0.338261	-0.946665
C51	C	1.114959	-0.284182	-0.912935
C52	C	1.114789	-0.283981	-0.827308
C53	C	1.055053	-0.338283	-0.798283
C54	C	0.977940	-0.318168	-0.828446
C55	C	0.978302	-0.317763	-0.914073
C56	C	1.071607	-0.412595	-0.918417
C57	C	1.073336	-0.412216	-0.832750
C58	C	1.055037	-0.338297	-0.714424
C59	C	1.055084	-0.338246	-1.030523
C60	C	1.054963	-0.338410	-0.179693
C61	C	1.055095	-0.338239	-0.097372
H62	H	0.615775	-0.428611	-0.298129
H63	H	0.956912	-0.605752	-0.469948
H64	H	0.619084	-0.354780	-0.495534
H65	H	0.491568	-0.359323	-0.493894
H66	H	0.932253	-0.356344	-0.809778
H67	H	0.494417	-0.266592	-0.466691
H68	H	0.950978	-0.738828	-0.475953
Cl69	Cl	0.907338	-0.375917	-0.948654
H70	H	0.981207	-1.070323	-0.445978
Cl71	Cl	0.486978	-0.198917	-0.329329
H72	H	0.963896	-0.263426	-0.931622
H73	H	0.624037	-0.229168	-0.323405
Cl74	Cl	1.138395	-0.809359	-0.288875
Cl75	Cl	0.480783	-0.302856	-0.224423
Cl76	Cl	0.966876	-0.921015	-0.460190
H77	H	1.027952	-0.452890	-0.940473
H78	H	0.620426	-0.296469	-0.254968
Cl79	Cl	1.098297	-0.198962	-0.791874
Cl80	Cl	1.150567	-0.589518	-0.276565
H81	H	0.488730	-0.428031	-0.297088
Cl82	Cl	0.971670	-0.866729	-0.455361
H83	H	1.159083	-0.937255	-0.268275
Cl84	Cl	0.955183	-0.235204	-0.791628
H85	H	1.172074	-0.296579	-0.806871
Cl86	Cl	1.156666	-0.440841	-0.953049
H87	H	1.172441	-0.296624	-0.934101
H88	H	1.122922	-0.738825	-0.304268
H89	H	1.130068	-0.427384	-0.813126
Cl90	Cl	0.474549	-0.476935	-0.417831
H91	H	1.032623	-0.454674	-0.813236
H92	H	1.104431	-0.229422	-0.932012
H93	H	0.622122	-0.263511	-0.462816
Cl94	Cl	0.623627	-0.476793	-0.419019
H95	H	1.153145	-1.070332	-0.274282
