data_functionalizedCrystal
_audit_creation_method	'MofGen! by Chris Wilmer'
_symmetry_space_group_name_H-M	'P1'
_symmetry_Int_Tables_number	1
_symmetry_cell_setting	triclinic
loop_
_symmetry_equiv_pos_as_xyz
  x,y,z
_cell_length_a	14.971475
_cell_length_b	12.996460
_cell_length_c	14.971486
_cell_angle_alpha	90.006353
_cell_angle_beta	96.388096
_cell_angle_gamma	89.995296
loop_
_atom_site_label
_atom_site_type_symbol
_atom_site_fract_x
_atom_site_fract_y
_atom_site_fract_z
O1	O	-1.186952	0.085546	0.116518
O2	O	-0.926550	0.085553	0.130487
O3	O	-1.063731	0.085542	-0.006698
O4	O	-1.049772	0.085557	0.253703
O5	O	-1.063716	-0.085592	-0.006705
O6	O	-0.926536	-0.085581	0.130479
O7	O	-1.186938	-0.085587	0.116510
Cu8	Cu	-1.056736	-0.101210	0.123494
Cu9	Cu	-1.056752	0.101176	0.123503
O10	O	-1.049757	-0.085577	0.253695
C11	C	-0.893218	-0.000013	0.129860
C12	C	-0.793921	-0.000011	0.127993
N13	N	-1.056730	-0.243557	0.123487
C14	C	-0.747268	-0.093297	0.127110
C15	C	-0.653969	-0.093297	0.125342
C16	C	-0.607324	-0.000011	0.124463
C17	C	-0.653984	0.093282	0.125344
C18	C	-0.747282	0.093282	0.127106
C19	C	-0.459521	0.093277	0.121673
C20	C	-0.366216	0.093278	0.119913
C21	C	-0.366209	-0.093302	0.119909
C22	C	-0.459507	-0.093303	0.121671
C23	C	-0.506160	-0.000009	0.122554
C24	C	-1.056751	-0.663371	0.123504
C25	C	-1.056743	-0.546566	0.123502
C26	C	-1.056741	-0.453468	0.123496
C27	C	-1.056732	-0.336655	0.123493
C28	C	-0.220269	-0.000017	0.117144
C29	C	-0.319564	-0.000008	0.119030
C30	C	-1.063099	-0.000024	-0.040026
C31	C	-1.061228	-0.000023	-0.139323
N32	N	-1.056765	0.243523	0.123503
C33	C	-1.141818	-0.000026	-0.196552
C34	C	-1.140055	-0.000016	-0.289851
C35	C	-1.057701	-0.000010	-0.325920
C36	C	-0.977106	-0.000004	-0.268685
C37	C	-0.978870	-0.000007	-0.175387
C38	C	-0.973434	-0.000000	-0.463147
C39	C	-0.971670	0.000001	-0.556451
C40	C	-1.134620	-0.000009	-0.577611
C41	C	-1.136384	-0.000012	-0.484314
C42	C	-1.055788	-0.000008	-0.427084
C43	C	-1.050389	-0.000008	0.287024
C44	C	-1.052260	-0.000002	0.386321
H45	H	-0.785239	-0.169261	0.127833
H46	H	-0.913245	-0.000005	-0.128792
H47	H	-0.907804	0.000006	-0.416552
O48	O	-1.221547	-0.000010	-0.639339
H49	H	-1.260937	-0.069773	-0.626521
H50	H	-0.497482	-0.169265	0.122392
H51	H	-0.615991	-0.169260	0.124607
O52	O	-1.225205	-0.000024	-0.445404
H53	H	-1.229902	0.069722	-0.403389
O54	O	-0.315895	-0.193931	0.118991
H55	H	-0.243182	-0.178262	0.117620
H56	H	-0.910052	0.000007	-0.298059
H57	H	-0.328240	0.169240	0.119198
O58	O	-1.230644	-0.000035	-0.157652
H59	H	-1.235346	0.069711	-0.115638
H60	H	-1.205679	-0.000020	-0.336444
H61	H	-0.904610	-0.000011	-0.585815
O62	O	-0.509844	0.193898	0.122631
H63	H	-0.461735	0.258767	0.121736
H64	H	-0.615998	0.169238	0.124622
O65	O	-0.797606	0.193896	0.128064
H66	H	-0.749497	0.258765	0.127167
