data_functionalizedCrystal
_audit_creation_method	'MofGen! by Chris Wilmer'
_symmetry_space_group_name_H-M	'P1'
_symmetry_Int_Tables_number	1
_symmetry_cell_setting	triclinic
loop_
_symmetry_equiv_pos_as_xyz
  x,y,z
_cell_length_a	21.395364
_cell_length_b	16.959454
_cell_length_c	21.395355
_cell_angle_alpha	89.987004
_cell_angle_beta	89.975273
_cell_angle_gamma	90.018408
loop_
_atom_site_label
_atom_site_type_symbol
_atom_site_fract_x
_atom_site_fract_y
_atom_site_fract_z
Zn1	Zn	0.957905	-0.314808	-0.354288
Zn2	Zn	1.457905	0.185192	0.145712
Zn3	Zn	0.957827	-0.446969	-0.249521
Zn4	Zn	1.457827	0.053031	0.250479
Zn5	Zn	0.853120	-0.314805	-0.249525
Zn6	Zn	1.353120	0.185195	0.250475
Zn7	Zn	0.853109	-0.446945	-0.354261
Zn8	Zn	1.353109	0.053055	0.145739
O9	O	0.905490	-0.380882	-0.301899
O10	O	1.405490	0.119118	0.198101
O11	O	1.045573	-0.332351	-0.340401
O12	O	1.545573	0.167649	0.159599
O13	O	0.943910	-0.429446	-0.161844
O14	O	1.443910	0.070554	0.338156
O15	O	0.867058	-0.204194	-0.263435
O16	O	1.367058	0.295806	0.236565
O17	O	1.045516	-0.429449	-0.263429
O18	O	1.545516	0.070551	0.236571
O19	O	0.944043	-0.204197	-0.340404
O20	O	1.444043	0.295803	0.159596
O21	O	0.866982	-0.332345	-0.161846
O22	O	1.366982	0.167655	0.338154
O23	O	0.765441	-0.332322	-0.263408
O24	O	1.265441	0.167678	0.236592
O25	O	0.867038	-0.429408	-0.441942
O26	O	1.367038	0.070592	0.058058
O27	O	0.765433	-0.429404	-0.340357
O28	O	1.265433	0.070596	0.159643
O29	O	0.944032	-0.332328	-0.441963
O30	O	1.444032	0.167672	0.058037
O31	O	0.943899	-0.557577	-0.263402
O32	O	1.443899	-0.057577	0.236598
O33	O	0.866963	-0.557559	-0.340354
O34	O	1.366963	-0.057559	0.159646
C35	C	0.742703	-0.380861	-0.301881
C36	C	1.242703	0.119139	0.198119
C37	C	0.673062	-0.380871	-0.301888
C38	C	1.173062	0.119129	0.198112
C39	C	0.171278	-0.431525	-0.341927
C40	C	0.671278	0.068475	0.158073
C41	C	0.236713	-0.431525	-0.341921
C42	C	0.736713	0.068475	0.158079
C43	C	0.269423	-0.380899	-0.301919
C44	C	0.769423	0.119101	0.198081
C45	C	0.236693	-0.330283	-0.261909
C46	C	0.736693	0.169717	0.238091
C47	C	0.171259	-0.330290	-0.261912
C48	C	0.671259	0.169710	0.238088
C49	C	0.373102	-0.309665	-0.297062
C50	C	0.873102	0.190335	0.202938
C51	C	0.438535	-0.309657	-0.297063
C52	C	0.938535	0.190343	0.202937
C53	C	0.471244	-0.380878	-0.301905
C54	C	0.971244	0.119122	0.198095
C55	C	0.438512	-0.452110	-0.306759
C56	C	0.938512	0.047890	0.193241
C57	C	0.373078	-0.452117	-0.306762
C58	C	0.873078	0.047883	0.193238
C59	C	0.340376	-0.380886	-0.301910
C60	C	0.840376	0.119114	0.198090
C61	C	0.574919	-0.431495	-0.341902
C62	C	1.074919	0.068505	0.158098
C63	C	0.640356	-0.431497	-0.341891
C64	C	1.140356	0.068503	0.158109
C65	C	0.640334	-0.330247	-0.261882
C66	C	1.140334	0.169753	0.238118
C67	C	0.574899	-0.330253	-0.261890
C68	C	1.074899	0.169747	0.238110
C69	C	0.542195	-0.380876	-0.301903
C70	C	1.042195	0.119124	0.198097
C71	C	0.905438	-0.586248	-0.301888
C72	C	1.405438	-0.086248	0.198112
C73	C	0.905473	-0.674105	-0.301904
C74	C	1.405473	-0.174105	0.198096
C75	C	0.865488	-1.045601	-0.341963
C76	C	1.365488	-0.545601	0.158037
C77	C	0.945667	-1.045559	-0.261898
C78	C	1.445667	-0.545559	0.238102
C79	C	0.945646	-0.963013	-0.261892
C80	C	1.445646	-0.463013	0.238108
C81	C	0.905544	-0.921757	-0.301922
C82	C	1.405544	-0.421757	0.198078
C83	C	0.865464	-0.963047	-0.341957
C84	C	1.365464	-0.463047	0.158043
C85	C	0.985720	-0.921718	-0.221853
C86	C	1.485720	-0.421718	0.278147
C87	C	0.985700	-0.839167	-0.221845
C88	C	1.485700	-0.339167	0.278155
C89	C	0.945600	-0.797909	-0.261879
C90	C	1.445600	-0.297909	0.238121
C91	C	0.905519	-0.839204	-0.301916
C92	C	1.405519	-0.339204	0.198084
C93	C	0.865417	-0.797948	-0.341946
C94	C	1.365417	-0.297948	0.158054
C95	C	0.825339	-0.839241	-0.381987
C96	C	1.325339	-0.339241	0.118013
C97	C	0.825364	-0.921790	-0.381991
C98	C	1.325364	-0.421790	0.118009
C99	C	0.945575	-0.715361	-0.261875
C100	C	1.445575	-0.215361	0.238125
C101	C	0.865393	-0.715394	-0.341940
C102	C	1.365393	-0.215394	0.158060
C103	C	1.068914	-0.380903	-0.301917
C104	C	1.568914	0.119097	0.198083
C105	C	1.138555	-0.380913	-0.301925
C106	C	1.638555	0.119087	0.198075
C107	C	0.905542	-0.380866	-0.465322
C108	C	1.405542	0.119134	0.034678
C109	C	0.905565	-0.380859	-0.534963
C110	C	1.405565	0.119141	-0.034963
C111	C	0.905560	-0.174713	-0.301923
C112	C	1.405560	0.325287	0.198077
C113	C	0.905590	-0.086857	-0.301934
C114	C	1.405590	0.413143	0.198066
C115	C	0.945653	-0.330307	-0.567688
C116	C	1.445653	0.169693	-0.067688
C117	C	0.945653	-0.330273	-0.633123
C118	C	1.445653	0.169727	-0.133123
C119	C	0.905570	-0.380805	-0.665832
C120	C	1.405570	0.119195	-0.165832
C121	C	0.865473	-0.431360	-0.633099
C122	C	1.365473	0.068640	-0.133099
C123	C	0.865471	-0.431387	-0.567665
C124	C	1.365471	0.068613	-0.067665
C125	C	0.900604	-0.451976	-0.769503
C126	C	1.400604	0.048024	-0.269503
C127	C	0.900611	-0.451950	-0.834936
C128	C	1.400611	0.048050	-0.334936
C129	C	0.905573	-0.380721	-0.867653
C130	C	1.405573	0.119279	-0.367653
C131	C	0.910542	-0.309516	-0.834928
C132	C	1.410542	0.190484	-0.334928
C133	C	0.910540	-0.309543	-0.769494
C134	C	1.410540	0.190457	-0.269494
C135	C	0.905567	-0.380781	-0.736784
C136	C	1.405567	0.119219	-0.236784
C137	C	0.945663	-0.330129	-0.971330
C138	C	1.445663	0.169871	-0.471330
C139	C	0.945658	-0.330093	-1.036767
C140	C	1.445658	0.169907	-0.536767
C141	C	0.865482	-0.431187	-1.036741
C142	C	1.365482	0.068813	-0.536741
C143	C	0.865484	-0.431216	-0.971306
C144	C	1.365484	0.068784	-0.471306
C145	C	0.905578	-0.380687	-0.938604
C146	C	1.405578	0.119313	-0.438604
C147	C	0.905475	-0.380841	-0.139111
C148	C	1.405475	0.119159	0.360889
C149	C	0.905574	-0.380625	-0.069470
C150	C	1.405574	0.119375	0.430530
H151	H	0.548290	-0.472716	-0.374483
H152	H	1.048290	0.027284	0.125517
C153	C	0.781275	-0.967218	-0.426025
C154	C	1.281275	-0.467218	0.073975
N155	N	0.748064	-1.001439	-0.459188
N156	N	1.248064	-0.501439	0.040812
H157	H	0.346431	-0.510117	-0.310713
H158	H	0.846431	-0.010117	0.189287
C159	C	0.821369	-0.487002	-0.531667
C160	C	1.321369	0.012998	-0.031667
N161	N	0.788152	-0.528894	-0.504552
N162	N	1.288152	-0.028894	-0.004552
C163	C	0.676350	-0.487181	-0.385896
C164	C	1.176350	0.012819	0.114104
N165	N	0.703462	-0.529124	-0.419042
N166	N	1.203462	-0.029124	0.080958
H167	H	1.018365	-0.955314	-0.189258
H168	H	1.518365	-0.455314	0.310742
C169	C	0.272676	-0.274589	-0.217910
C170	C	0.772676	0.225411	0.282090
N171	N	0.299778	-0.232638	-0.184769
N172	N	0.799778	0.267362	0.315231
C173	C	0.781227	-0.793849	-0.426018
C174	C	1.281227	-0.293849	0.073982
N175	N	0.748004	-0.759656	-0.459182
N176	N	1.248004	-0.259656	0.040818
C177	C	0.989760	-0.274478	-1.072763
C178	C	1.489760	0.225522	-0.572763
N179	N	1.022979	-0.232588	-1.099877
N180	N	1.522979	0.267412	-0.599877
C181	C	1.029783	-0.793751	-0.177796
C182	C	1.529783	-0.293751	0.322204
N183	N	1.062986	-0.759544	-0.144616
N184	N	1.562986	-0.259544	0.355384
C185	C	0.272715	-0.487200	-0.385933
C186	C	0.772715	0.012800	0.114067
N187	N	0.299830	-0.529132	-0.419084
N188	N	0.799830	-0.029132	0.080916
H189	H	0.978203	-0.681743	-0.229271
H190	H	1.478203	-0.181743	0.270729
H191	H	0.914584	-0.251565	-0.742853
H192	H	1.414584	0.248435	-0.242853
H193	H	0.548256	-0.289036	-0.229318
H194	H	1.048256	0.210964	0.270682
C195	C	0.916000	-0.231157	-0.870912
C196	C	1.416000	0.268843	-0.370912
N197	N	0.920111	-0.172140	-0.898018
N198	N	1.420111	0.327860	-0.398018
C199	C	0.474533	-0.231300	-0.291724
C200	C	0.974533	0.268700	0.208276
N201	N	0.501646	-0.172280	-0.287702
N202	N	1.001646	0.327720	0.212298
H203	H	0.896395	-0.509964	-0.742870
H204	H	1.396395	-0.009964	-0.242870
C205	C	0.135263	-0.274603	-0.217909
C206	C	0.635263	0.225397	0.282091
N207	N	0.108150	-0.232657	-0.184767
N208	N	0.608150	0.267343	0.315233
C209	C	0.676312	-0.274559	-0.217877
C210	C	1.176312	0.225441	0.282123
N211	N	0.703414	-0.232615	-0.184730
N212	N	1.203414	0.267385	0.315270
C213	C	0.821379	-0.486942	-0.669080
C214	C	1.321379	0.013058	-0.169080
N215	N	0.788163	-0.528805	-0.696180
N216	N	1.288163	-0.028805	-0.196180
H217	H	0.465143	-0.510105	-0.310706
H218	H	0.965143	-0.010105	0.189294
H219	H	0.978300	-0.289162	-0.541066
H220	H	1.478300	0.210838	-0.041066
H221	H	0.832739	-0.681809	-0.374540
H222	H	1.332739	-0.181809	0.125460
C223	C	0.821401	-1.091023	-0.386004
C224	C	1.321401	-0.591023	0.113996
N225	N	0.788193	-1.125237	-0.419174
N226	N	1.288193	-0.625237	0.080826
H227	H	0.346475	-0.251664	-0.293109
H228	H	0.846475	0.248336	0.206891
H229	H	0.978296	-0.289103	-0.659773
H230	H	1.478296	0.210897	-0.159773
H231	H	0.978313	-1.079155	-0.229304
H232	H	1.478313	-0.579155	0.270696
H233	H	0.978307	-0.288981	-0.944703
H234	H	1.478307	0.211019	-0.444703
H235	H	0.832839	-0.472324	-1.063371
H236	H	1.332839	0.027676	-0.563371
H237	H	0.832843	-0.472385	-0.944661
H238	H	1.332843	0.027615	-0.444661
H239	H	0.896569	-0.509930	-0.861575
H240	H	1.396569	-0.009930	-0.361575
H241	H	0.144654	-0.472749	-0.374507
H242	H	0.644654	0.027251	0.125493
