data_functionalizedCrystal
_audit_creation_method	'MofGen! by Chris Wilmer'
_symmetry_space_group_name_H-M	'P1'
_symmetry_Int_Tables_number	1
_symmetry_cell_setting	triclinic
loop_
_symmetry_equiv_pos_as_xyz
  x,y,z
_cell_length_a	10.967926
_cell_length_b	10.540510
_cell_length_c	10.065918
_cell_angle_alpha	99.734394
_cell_angle_beta	87.800512
_cell_angle_gamma	84.613823
loop_
_atom_site_label
_atom_site_type_symbol
_atom_site_fract_x
_atom_site_fract_y
_atom_site_fract_z
O1	O	1.618337	0.138709	-0.267139
O2	O	1.267220	0.167913	-0.184556
O3	O	1.450807	-0.031680	-0.227737
O4	O	1.434749	0.338303	-0.223959
O5	O	1.418843	-0.063995	-0.447207
O6	O	1.235256	0.135598	-0.404027
O7	O	1.586372	0.106395	-0.486610
Zn8	Zn	1.405739	0.115866	-0.480164
Zn9	Zn	1.447853	0.158442	-0.191002
O10	O	1.402785	0.305988	-0.443429
C11	C	1.206278	0.152072	-0.283717
C12	C	1.072312	0.153001	-0.252208
C13	C	0.996027	0.136676	-0.351852
C14	C	0.857566	0.137636	-0.319288
C15	C	1.433629	-0.095099	-0.337188
C16	C	1.430050	-0.235922	-0.336338
C17	C	1.557514	-0.457936	-0.366837
C18	C	1.561406	-0.311401	-0.367234
C19	C	1.381061	-0.259863	-0.195197
C20	C	1.378186	-0.406508	-0.194419
C21	C	1.339102	-0.442968	-0.443355
C22	C	1.345092	-0.297089	-0.446470
C23	C	1.647315	0.122236	-0.387446
C24	C	1.781282	0.121308	-0.418947
C25	C	1.419964	0.369407	-0.333975
C26	C	1.423544	0.510231	-0.334817
N27	N	1.377006	0.086808	-0.677511
C28	C	1.437848	0.148332	-0.759601
C29	C	1.415745	0.125956	-0.911569
N30	N	1.476596	0.187490	0.006343
H31	H	1.033225	0.121981	-0.461269
H32	H	1.347291	0.056709	-0.953790
Br33	Br	1.671450	-0.245060	-0.237981
H34	H	1.367010	-0.500605	-0.548170
Br35	Br	1.590709	0.302891	-0.923305
H36	H	0.820375	0.152321	-0.209864
Br37	Br	1.627250	-0.287613	-0.537609
Br38	Br	0.843257	0.096801	-0.601333
H39	H	1.380516	-0.283849	-0.550693
H40	H	1.248089	-0.245764	-0.431482
H41	H	1.308556	0.017565	-0.719739
Br42	Br	1.551955	0.263729	-0.689238
Br43	Br	1.481531	-0.188289	-0.058045
H44	H	1.035116	0.167686	-0.142791
H45	H	1.621410	-0.490072	-0.289435
H46	H	1.240355	-0.461774	-0.421003
H47	H	1.595600	-0.514924	-0.468751
Br48	Br	1.477525	-0.453248	-0.056296
Br49	Br	1.221017	-0.174064	-0.149507
Br50	Br	1.215823	-0.437688	-0.146418
