data_functionalizedCrystal
_audit_creation_method	'MofGen! by Chris Wilmer'
_symmetry_space_group_name_H-M	'P1'
_symmetry_Int_Tables_number	1
_symmetry_cell_setting	triclinic
loop_
_symmetry_equiv_pos_as_xyz
  x,y,z
_cell_length_a	8.140239
_cell_length_b	9.065218
_cell_length_c	9.065218
_cell_angle_alpha	85.015919
_cell_angle_beta	90.001686
_cell_angle_gamma	90.004899
loop_
_atom_site_label
_atom_site_type_symbol
_atom_site_fract_x
_atom_site_fract_y
_atom_site_fract_z
O1	O	-0.136690	-1.960398	-0.216356
O2	O	0.363310	-1.460398	0.283644
O3	O	-0.136674	-1.531113	-0.234102
O4	O	0.363326	-1.031113	0.265898
O5	O	-0.136679	-1.754629	-0.010586
O6	O	0.363321	-1.254629	0.489414
O7	O	-0.136685	-1.736882	-0.439871
O8	O	0.363315	-1.236882	0.060129
O9	O	0.136548	-1.754616	-0.010584
O10	O	0.636548	-1.254616	0.489416
O11	O	0.136553	-1.531101	-0.234099
O12	O	0.636553	-1.031101	0.265901
O13	O	0.136537	-1.960385	-0.216353
O14	O	0.636537	-1.460385	0.283647
Zn15	Zn	0.179925	-1.745741	-0.225226
Zn16	Zn	0.679925	-1.245741	0.274774
Zn17	Zn	-0.180063	-1.745757	-0.225229
Zn18	Zn	0.319937	-1.245757	0.274771
O19	O	0.136542	-1.736870	-0.439869
O20	O	0.636542	-1.236870	0.060131
C21	C	-0.000059	-1.476120	-0.232395
C22	C	0.499941	-0.976120	0.267605
C23	C	-0.000053	-1.312277	-0.227295
C24	C	0.499947	-0.812277	0.272705
N25	N	0.425608	-1.745740	-0.225222
N26	N	0.925608	-1.245740	0.274778
N27	N	-0.425746	-1.745769	-0.225221
N28	N	0.074254	-1.245769	0.274779
C29	C	-0.000068	-1.752917	0.044402
C30	C	0.499932	-1.252917	0.544402
C31	C	-0.000076	-1.747817	0.208244
C32	C	0.499924	-1.247817	0.708244
C33	C	-0.000072	-1.015378	-0.218060
C34	C	0.499928	-0.515378	0.281940
C35	C	-0.000058	-1.179221	-0.223159
C36	C	0.499942	-0.679221	0.276841
C37	C	-0.000073	-1.738581	-0.494856
C38	C	0.499927	-1.238581	0.005144
C39	C	-0.000076	-1.743681	-0.658699
C40	C	0.499924	-1.243681	-0.158699
