data_functionalizedCrystal
_audit_creation_method	'MofGen! by Chris Wilmer'
_symmetry_space_group_name_H-M	'P1'
_symmetry_Int_Tables_number	1
_symmetry_cell_setting	triclinic
loop_
_symmetry_equiv_pos_as_xyz
  x,y,z
_cell_length_a	29.839134
_cell_length_b	29.839131
_cell_length_c	12.759393
_cell_angle_alpha	90.044470
_cell_angle_beta	90.032473
_cell_angle_gamma	90.030088
loop_
_atom_site_label
_atom_site_type_symbol
_atom_site_fract_x
_atom_site_fract_y
_atom_site_fract_z
Zn1	Zn	0.686786	-0.178893	0.594241
Zn2	Zn	1.186786	0.321107	1.094241
Zn3	Zn	0.686712	-0.254030	0.418518
Zn4	Zn	1.186712	0.245970	0.918518
Zn5	Zn	0.611655	-0.178908	0.418541
Zn6	Zn	1.111655	0.321092	0.918541
Zn7	Zn	0.611624	-0.253990	0.594120
Zn8	Zn	1.111624	0.246010	1.094120
O9	O	0.649194	-0.216455	0.506355
O10	O	1.149194	0.283545	1.006355
O11	O	0.749643	-0.188871	0.570972
O12	O	1.249643	0.311129	1.070972
O13	O	0.676737	-0.244088	0.271500
O14	O	1.176737	0.255912	0.771500
O15	O	0.621664	-0.116039	0.441908
O16	O	1.121664	0.383961	0.941908
O17	O	0.749589	-0.244074	0.441870
O18	O	1.249589	0.255926	0.941870
O19	O	0.676863	-0.116028	0.570994
O20	O	1.176863	0.383972	1.070994
O21	O	0.621593	-0.188897	0.271517
O22	O	1.121593	0.311103	0.771517
O23	O	0.548783	-0.188858	0.441791
O24	O	1.048783	0.311142	0.941791
O25	O	0.621613	-0.244005	0.741158
O26	O	1.121613	0.255995	1.241158
O27	O	0.548761	-0.244020	0.570788
O28	O	1.048761	0.255980	1.070788
O29	O	0.676833	-0.188832	0.741246
O30	O	1.176833	0.311168	1.241246
O31	O	0.676708	-0.316892	0.441752
O32	O	1.176708	0.183108	0.941752
O33	O	0.621541	-0.316863	0.570766
O34	O	1.121541	0.183137	1.070766
C35	C	0.532471	-0.216436	0.506280
C36	C	1.032471	0.283564	1.006280
C37	C	0.482537	-0.216439	0.506272
C38	C	0.982537	0.283561	1.006272
C39	C	0.172892	-0.245221	0.573442
C40	C	0.672892	0.254779	1.073442
C41	C	-0.014782	-0.245234	0.573489
C42	C	0.485218	0.254766	1.073489
O43	O	-0.039048	-0.269684	0.630554
O44	O	0.460952	0.230316	1.130554
N45	N	-0.038248	-0.216472	0.506434
N46	N	0.461752	0.283528	1.006434
C47	C	-0.014793	-0.187703	0.439369
C48	C	0.485207	0.312297	0.939369
O49	O	-0.039059	-0.163236	0.382344
O50	O	0.460941	0.336764	0.882344
C51	C	0.172879	-0.187688	0.439328
C52	C	0.672879	0.312312	0.939328
C53	C	0.196343	-0.216455	0.506379
C54	C	0.696343	0.283545	1.006379
C55	C	0.196356	-0.273985	0.640488
C56	C	0.696356	0.226015	1.140488
C57	C	0.243271	-0.273983	0.640472
C58	C	0.743271	0.226017	1.140472
C59	C	0.266722	-0.245217	0.573409
C60	C	0.766722	0.254783	1.073409
C61	C	0.243258	-0.216453	0.506363
C62	C	0.743258	0.283547	1.006363
C63	C	0.196333	-0.158917	0.372268
C64	C	0.696333	0.341083	0.872268
C65	C	0.243254	-0.158916	0.372266
C66	C	0.743254	0.341084	0.872266
C67	C	0.266718	-0.187682	0.439317
C68	C	0.766718	0.312318	0.939317
C69	C	0.313625	-0.187686	0.439283
C70	C	0.813625	0.312314	0.939283
N71	N	0.337092	-0.216448	0.506338
N72	N	0.837092	0.283552	1.006338
C73	C	0.313640	-0.245213	0.573400
C74	C	0.813640	0.254787	1.073400
C75	C	-0.113324	-0.187713	0.439393
C76	C	0.386676	0.312287	0.939393
C77	C	-0.160242	-0.187717	0.439402
C78	C	0.339758	0.312283	0.939402
C79	C	-0.160227	-0.245248	0.573523
C80	C	0.339773	0.254752	1.073523
C81	C	-0.113308	-0.245245	0.573509
C82	C	0.386692	0.254755	1.073509
C83	C	-0.089858	-0.216475	0.506447
C84	C	0.410142	0.283525	1.006447
C85	C	0.412166	-0.245208	0.573360
C86	C	0.912166	0.254792	1.073360
C87	C	0.459086	-0.245205	0.573335
C88	C	0.959086	0.254795	1.073335
C89	C	0.459067	-0.187673	0.439218
C90	C	0.959067	0.312327	0.939218
C91	C	0.412151	-0.187678	0.439239
C92	C	0.912151	0.312322	0.939239
C93	C	0.388702	-0.216446	0.506318
C94	C	0.888702	0.283554	1.006318
O95	O	0.337921	-0.163245	0.382256
O96	O	0.837921	0.336755	0.882256
O97	O	0.337914	-0.269669	0.630433
O98	O	0.837914	0.230331	1.130433
C99	C	0.125976	-0.245223	0.573458
C100	C	0.625976	0.254777	1.073458
C101	C	0.102512	-0.216459	0.506412
C102	C	0.602512	0.283541	1.006412
C103	C	0.125963	-0.187693	0.439349
C104	C	0.625963	0.312307	0.939349
C105	C	0.055594	-0.216463	0.506420
C106	C	0.555594	0.283537	1.006420
C107	C	0.032143	-0.245229	0.573483
C108	C	0.532143	0.254771	1.073483
C109	C	0.055609	-0.273990	0.640537
C110	C	0.555609	0.226010	1.140537
C111	C	0.102525	-0.273988	0.640521
C112	C	0.602525	0.226012	1.140521
C113	C	0.102497	-0.158931	0.372295
C114	C	0.602497	0.341069	0.872295
C115	C	0.055581	-0.158936	0.372316
C116	C	0.555581	0.341064	0.872316
C117	C	0.032130	-0.187701	0.439379
C118	C	0.532130	0.312299	0.939379
C119	C	0.649126	-0.333178	0.506267
C120	C	1.149126	0.166822	1.006267
C121	C	0.649137	-0.383112	0.506264
C122	C	1.149137	0.116888	1.006264
C123	C	0.677930	-0.692715	0.573666
C124	C	1.177930	-0.192715	1.073666
C125	C	0.677978	-0.880388	0.573729
C126	C	1.177978	-0.380388	1.073729
O127	O	0.702391	-0.904618	0.630971
O128	O	1.202391	-0.404618	1.130971
N129	N	0.649270	-0.903897	0.506472
N130	N	1.149270	-0.403897	1.006472
C131	C	0.620546	-0.880486	0.439199
C132	C	1.120546	-0.380486	0.939199
O133	O	0.596126	-0.904788	0.382001
O134	O	1.096126	-0.404788	0.882001
C135	C	0.620495	-0.692813	0.439142
C136	C	1.120495	-0.192813	0.939142
C137	C	0.649208	-0.669307	0.506396
C138	C	1.149208	-0.169307	1.006396
C139	C	0.706640	-0.669208	0.640916
C140	C	1.206640	-0.169208	1.140916
C141	C	0.706629	-0.622293	0.640895
C142	C	1.206629	-0.122293	1.140895
C143	C	0.677908	-0.598884	0.573625
C144	C	1.177908	-0.098884	1.073625
C145	C	0.649198	-0.622391	0.506376
C146	C	1.149198	-0.122391	1.006376
C147	C	0.591769	-0.669403	0.371875
C148	C	1.091769	-0.169403	0.871875
C149	C	0.591758	-0.622482	0.371868
C150	C	1.091758	-0.122482	0.871868
C151	C	0.620471	-0.598975	0.439123
C152	C	1.120471	-0.098975	0.939123
C153	C	0.620466	-0.552067	0.439085
C154	C	1.120466	-0.052067	0.939085
N155	N	0.649174	-0.528558	0.506342
N156	N	1.149174	-0.028558	1.006342
C157	C	0.677895	-0.551966	0.573612
C158	C	1.177895	-0.051966	1.073612
C159	C	0.620575	-0.979016	0.439232
C160	C	1.120575	-0.479016	0.939232
C161	C	0.620588	-1.025934	0.439245
C162	C	1.120588	-0.525934	0.939245
C163	C	0.678020	-1.025833	0.573777
C164	C	1.178020	-0.525833	1.073777
C165	C	0.678009	-0.978915	0.573758
C166	C	1.178009	-0.478915	1.073758
C167	C	0.649283	-0.955507	0.506489
C168	C	1.149283	-0.455507	1.006489
C169	C	0.677870	-0.453441	0.573564
C170	C	1.177870	0.046559	1.073564
C171	C	0.677858	-0.406521	0.573534
C172	C	1.177858	0.093479	1.073534
C173	C	0.620425	-0.406626	0.439006
C174	C	1.120425	0.093374	0.939006
C175	C	0.620439	-0.453541	0.439031
C176	C	1.120439	0.046459	0.939031
C177	C	0.649163	-0.476948	0.506319
C178	C	1.149163	0.023052	1.006319
O179	O	0.596062	-0.527808	0.381881
O180	O	1.096062	-0.027808	0.881881
O181	O	0.702304	-0.527656	0.630818
O182	O	1.202304	-0.027656	1.130818
C183	C	0.677940	-0.739631	0.573687
C184	C	1.177940	-0.239631	1.073687
C185	C	0.649230	-0.763137	0.506437
C186	C	1.149230	-0.263137	1.006437
C187	C	0.620509	-0.739729	0.439167
C188	C	1.120509	-0.239729	0.939167
C189	C	0.649243	-0.810055	0.506450
C190	C	1.149243	-0.310055	1.006450
C191	C	0.677964	-0.833464	0.573720
C192	C	1.177964	-0.333464	1.073720
C193	C	0.706672	-0.809955	0.640977
C194	C	1.206672	-0.309955	1.140977
C195	C	0.706662	-0.763039	0.640957
C196	C	1.206662	-0.263039	1.140957
C197	C	0.591801	-0.763238	0.371909
C198	C	1.091801	-0.263238	0.871909
C199	C	0.591814	-0.810154	0.371935
C200	C	1.091814	-0.310154	0.871935
C201	C	0.620535	-0.833562	0.439205
C202	C	1.120535	-0.333562	0.939205
C203	C	0.766372	-0.216475	0.506432
C204	C	1.266372	0.283525	1.006432
C205	C	0.816307	-0.216483	0.506465
C206	C	1.316307	0.283517	1.006465
C207	C	0.649228	-0.216412	0.780389
C208	C	1.149228	0.283588	1.280389
C209	C	0.649242	-0.216394	0.897166
C210	C	1.149242	0.283606	1.397166
C211	C	0.649275	-0.099277	0.506467
C212	C	1.149275	0.400723	1.006467
C213	C	0.649310	-0.049343	0.506515
C214	C	1.149310	0.450657	1.006515
C215	C	0.649186	-0.216466	0.233388
C216	C	1.149186	0.283534	0.733388
C217	C	0.649259	-0.216358	0.116612
C218	C	1.149259	0.283642	0.616612
C219	C	0.677998	-0.187661	0.952075
C220	C	1.177998	0.312339	1.452075
C221	C	0.678005	-0.187641	1.061800
C222	C	1.178005	0.312359	1.561800
C223	C	0.620500	-0.245092	1.061694
C224	C	1.120500	0.254908	1.561694
C225	C	0.620491	-0.245109	0.951972
C226	C	1.120491	0.254891	1.451972
C227	C	0.694107	-0.134638	1.211816
C228	C	1.194107	0.365362	1.711816
C229	C	0.722870	-0.105909	1.266729
C230	C	1.222870	0.394091	1.766729
C231	C	0.766707	-0.099025	1.231162
C232	C	1.266707	0.400975	1.731162
C233	C	0.781791	-0.120877	1.140684
C234	C	1.281791	0.379123	1.640684
C235	C	0.753031	-0.149610	1.085776
C236	C	1.253031	0.350390	1.585776
C237	C	0.709187	-0.156485	1.121341
C238	C	1.209187	0.343515	1.621341
C239	C	0.604393	-0.298113	0.801954
C240	C	1.104393	0.201887	1.301954
C241	C	0.575635	-0.326848	0.747044
C242	C	1.075635	0.173152	1.247044
C243	C	0.531797	-0.333736	0.782609
C244	C	1.031797	0.166264	1.282609
C245	C	0.516714	-0.311892	0.873091
C246	C	1.016714	0.188108	1.373091
C247	C	0.545473	-0.283157	0.928001
C248	C	1.045473	0.216843	1.428001
C249	C	0.589311	-0.276268	0.892429
C250	C	1.089311	0.223732	1.392429
H251	H	0.393079	-0.268633	0.627985
H252	H	0.893079	0.231367	1.127985
C253	C	0.560198	-0.737495	0.297915
C254	C	1.060198	-0.237495	0.797915
N255	N	0.536393	-0.718108	0.242178
N256	N	1.036393	-0.218108	0.742178
H257	H	0.587921	-0.344639	0.673376
H258	H	1.087921	0.155361	1.173376
C259	C	0.528879	-0.259125	1.027531
C260	C	1.028879	0.240875	1.527531
N261	N	0.516381	-0.241024	1.102496
N262	N	1.016381	0.258976	1.602496
H263	H	0.508384	-0.357139	0.737896
H264	H	1.008384	0.142861	1.237896
H265	H	0.701407	-0.164277	0.907455
H266	H	1.201407	0.335723	1.407455
H267	H	0.817490	-0.115273	1.111738
H268	H	1.317490	0.384727	1.611738
H269	H	0.765313	-0.167403	1.012113
H270	H	1.265313	0.332597	1.512113
C271	C	0.588875	-0.276677	1.121992
C272	C	1.088875	0.223323	1.621992
N273	N	0.565054	-0.300467	1.167407
N274	N	1.065054	0.199533	1.667407
H275	H	0.701257	-0.472492	0.628363
H276	H	1.201257	0.027508	1.128363
H277	H	-0.094235	-0.164284	0.384779
H278	H	0.405765	0.335716	0.884779
C279	C	0.560157	-0.596736	0.297864
C280	C	1.060157	-0.096736	0.797864
N281	N	0.536356	-0.577345	0.242121
N282	N	1.036356	-0.077345	0.742121
C283	C	0.484872	-0.156027	0.365464
C284	C	0.984872	0.343973	0.865464
N285	N	0.504310	-0.132187	0.309922
N286	N	1.004310	0.367813	0.809922
C287	C	0.468490	-0.319469	0.912215
C288	C	0.968490	0.180531	1.412215
N289	N	0.432166	-0.325177	0.941681
N290	N	0.932166	0.174823	1.441681
H291	H	0.036481	-0.135511	0.317705
H292	H	0.536481	0.364489	0.817705
H293	H	0.121586	-0.135506	0.317683
H294	H	0.621586	0.364494	0.817683
C295	C	-0.186032	-0.276888	0.647299
C296	C	0.313968	0.223112	1.147299
N297	N	-0.205471	-0.300715	0.702870
N298	N	0.294529	0.199285	1.202870
C299	C	0.128329	-0.305633	0.714287
C300	C	0.628329	0.194367	1.214287
N301	N	0.147762	-0.329469	0.769853
N302	N	0.647762	0.170531	1.269853
H303	H	0.790126	-0.075633	1.275881
H304	H	1.290126	0.424367	1.775881
C305	C	-0.186047	-0.156074	0.365634
C306	C	0.313953	0.343926	0.865634
N307	N	-0.205482	-0.132237	0.310075
N308	N	0.294518	0.367763	0.810075
C309	C	0.652619	-0.290538	0.762826
C310	C	1.152619	0.209462	1.262826
N311	N	0.688943	-0.284835	0.733356
N312	N	1.188943	0.215165	1.233356
C313	C	0.386340	-0.156036	0.365472
C314	C	0.886340	0.343964	0.865472
N315	N	0.366902	-0.132201	0.309915
N316	N	0.866902	0.367799	0.809915
H317	H	0.478188	-0.268632	0.627937
H318	H	0.978188	0.231368	1.127937
C319	C	0.170533	-0.127266	0.298517
C320	C	0.670533	0.372734	0.798517
N321	N	0.151101	-0.103422	0.242968
N322	N	0.651101	0.396578	0.742968
C323	C	0.029804	-0.305632	0.714309
C324	C	0.529804	0.194368	1.214309
N325	N	0.010365	-0.329461	0.769875
N326	N	0.510365	0.170539	1.269875
C327	C	0.269075	-0.305627	0.714239
C328	C	0.769075	0.194373	1.214239
N329	N	0.288508	-0.329462	0.769807
N330	N	0.788508	0.170538	1.269807
C331	C	0.588855	-0.479400	0.365043
C332	C	1.088855	0.020600	0.865043
N333	N	0.565063	-0.498873	0.309321
N334	N	1.065063	0.001127	0.809321
H335	H	0.262345	-0.135484	0.317662
H336	H	0.762345	0.364516	0.817662
C337	C	0.709448	-0.380666	0.647519
C338	C	1.209448	0.119334	1.147519
N339	N	0.733240	-0.361194	0.703244
N340	N	1.233240	0.138806	1.203244
H341	H	-0.094207	-0.268669	0.628109
H342	H	0.405793	0.231331	1.128109
H343	H	0.568388	-0.688534	0.317108
H344	H	1.068388	-0.188534	0.817108
H345	H	0.597042	-0.387559	0.384232
H346	H	1.097042	0.112441	0.884232
C347	C	0.738249	-0.737188	0.714942
C348	C	1.238249	-0.237188	1.214942
N349	N	0.762042	-0.717719	0.770671
N350	N	1.262042	-0.217719	1.270671
C351	C	0.738218	-0.596441	0.714878
C352	C	1.238218	-0.096441	1.214878
N353	N	0.762012	-0.576973	0.770604
N354	N	1.262012	-0.076973	1.270604
C355	C	0.706274	-0.081869	1.366247
C356	C	1.206274	0.418131	1.866247
N357	N	0.693776	-0.063761	1.441203
N358	N	1.193776	0.436239	1.941203
C359	C	0.645881	-0.142203	1.250940
C360	C	1.145881	0.357797	1.750940
N361	N	0.609557	-0.147902	1.280414
N362	N	1.109557	0.352098	1.780414
H363	H	0.730028	-0.688262	0.695702
H364	H	1.230028	-0.188262	1.195702
C365	C	0.709611	-1.051591	0.647781
C366	C	1.209611	-0.551591	1.147781
N367	N	0.733402	-1.070994	0.703524
N368	N	1.233402	-0.570994	1.203524
C369	C	0.589005	-1.051786	0.365251
C370	C	1.089005	-0.551786	0.865251
N371	N	0.565214	-1.071257	0.309522
N372	N	1.065214	-0.571257	0.809522
C373	C	0.709594	-0.953061	0.647747
C374	C	1.209594	-0.453061	1.147747
N375	N	0.733384	-0.933591	0.703480
N376	N	1.233384	-0.433591	1.203480
H377	H	0.568433	-0.829289	0.317158
H378	H	1.068433	-0.329289	0.817158
C379	C	0.588968	-0.953274	0.365237
C380	C	1.088968	-0.453274	0.865237
N381	N	0.565160	-0.933886	0.309505
N382	N	1.065160	-0.433886	0.809505
C383	C	0.738265	-0.835713	0.714976
C384	C	1.238265	-0.335713	1.214976
N385	N	0.762057	-0.855116	0.770714
N386	N	1.262057	-0.355116	1.270714
H387	H	0.177266	-0.297410	0.695105
H388	H	0.677266	0.202590	1.195105
