data_functionalizedCrystal
_audit_creation_method	'MofGen! by Chris Wilmer'
_symmetry_space_group_name_H-M	'P1'
_symmetry_Int_Tables_number	1
_symmetry_cell_setting	triclinic
loop_
_symmetry_equiv_pos_as_xyz
  x,y,z
_cell_length_a	21.295417
_cell_length_b	17.077404
_cell_length_c	17.077396
_cell_angle_alpha	90.017244
_cell_angle_beta	89.965973
_cell_angle_gamma	89.969268
loop_
_atom_site_label
_atom_site_type_symbol
_atom_site_fract_x
_atom_site_fract_y
_atom_site_fract_z
Zn1	Zn	-0.250600	-1.199996	-0.443817
Zn2	Zn	0.249400	-0.699996	0.056183
Zn3	Zn	-0.355875	-1.199890	-0.312540
Zn4	Zn	0.144125	-0.699890	0.187460
Zn5	Zn	-0.250624	-1.068733	-0.312565
Zn6	Zn	0.249376	-0.568733	0.187435
Zn7	Zn	-0.355836	-1.068678	-0.443764
Zn8	Zn	0.144164	-0.568678	0.056236
O9	O	-0.303234	-1.134324	-0.378171
O10	O	0.196766	-0.634324	0.121829
O11	O	-0.264572	-1.309829	-0.426415
O12	O	0.235428	-0.809829	0.073585
O13	O	-0.341939	-1.182471	-0.202697
O14	O	0.158061	-0.682471	0.297303
O15	O	-0.162531	-1.086212	-0.330008
O16	O	0.337469	-0.586212	0.169992
O17	O	-0.341916	-1.309751	-0.329966
O18	O	0.158084	-0.809751	0.170034
O19	O	-0.162514	-1.182650	-0.426439
O20	O	0.337486	-0.682650	0.073561
O21	O	-0.264612	-1.086110	-0.202715
O22	O	0.235388	-0.586110	0.297285
O23	O	-0.264574	-0.958878	-0.329957
O24	O	0.235426	-0.458878	0.170043
O25	O	-0.341850	-1.086119	-0.553618
O26	O	0.158150	-0.586119	-0.053618
O27	O	-0.341873	-0.958838	-0.426348
O28	O	0.158127	-0.458838	0.073652
O29	O	-0.264534	-1.182597	-0.553657
O30	O	0.235466	-0.682597	-0.053657
O31	O	-0.443959	-1.182418	-0.329915
O32	O	0.056041	-0.682418	0.170085
O33	O	-0.443931	-1.086017	-0.426324
O34	O	0.056069	-0.586017	0.073676
C35	C	-0.303222	-0.930376	-0.378150
C36	C	0.196778	-0.430376	0.121850
C37	C	-0.303233	-0.843126	-0.378159
C38	C	0.196767	-0.343126	0.121841
C39	C	-0.466785	-1.134221	-0.378128
C40	C	0.033215	-0.634221	0.121872
C41	C	-0.536753	-1.134249	-0.378136
C42	C	-0.036753	-0.634249	0.121864
C43	C	-0.303185	-1.134364	-0.582916
C44	C	0.196815	-0.634364	-0.082916
C45	C	-0.303164	-1.134380	-0.670166
C46	C	0.196836	-0.634380	-0.170166
C47	C	-0.569614	-1.184490	-0.327987
C48	C	-0.069614	-0.684490	0.172013
C49	C	-0.635357	-1.184526	-0.328004
C50	C	-0.135357	-0.684526	0.171996
C51	C	-0.668236	-1.134309	-0.378163
C52	C	-0.168236	-0.634309	0.121837
C53	C	-0.635367	-1.084064	-0.428321
C54	C	-0.135367	-0.584064	0.071679
C55	C	-0.569626	-1.084035	-0.428308
C56	C	-0.069626	-0.584035	0.071692
N57	N	-0.771502	-1.065640	-0.384140
N58	N	-0.271502	-0.565640	0.115860
N59	N	-0.833953	-1.065670	-0.384148
N60	N	-0.333953	-0.565670	0.115852
C61	C	-0.866311	-1.134396	-0.378208
C62	C	-0.366311	-0.634396	0.121792
N63	N	-0.833857	-1.203093	-0.372244
N64	N	-0.333857	-0.703093	0.127756
N65	N	-0.771400	-1.203061	-0.372231
N66	N	-0.271400	-0.703061	0.127769
C67	C	-0.739521	-1.134336	-0.378183
C68	C	-0.239521	-0.634336	0.121817
C69	C	-0.970457	-1.184681	-0.328075
C70	C	-0.470457	-0.684681	0.171925
C71	C	-1.036200	-1.184719	-0.328098
C72	C	-0.536200	-0.684719	0.171902
C73	C	-1.036210	-1.084250	-0.428411
C74	C	-0.536210	-0.584250	0.071589
C75	C	-0.970468	-1.084219	-0.428392
C76	C	-0.470468	-0.584219	0.071608
C77	C	-0.937595	-1.134434	-0.378220
C78	C	-0.437595	-0.634434	0.121780
C79	C	-0.139043	-1.134449	-0.378232
C80	C	0.360957	-0.634449	0.121768
C81	C	-0.069075	-1.134502	-0.378258
C82	C	0.430925	-0.634502	0.121742
C83	C	-0.303246	-1.339068	-0.378194
C84	C	0.196754	-0.839068	0.121806
C85	C	-0.303251	-1.426318	-0.378203
C86	C	0.196749	-0.926318	0.121797
C87	C	-0.343543	-0.802136	-0.428270
C88	C	0.156457	-0.302136	0.071730
C89	C	-0.343544	-0.720155	-0.428282
C90	C	0.156456	-0.220155	0.071718
C91	C	-0.303238	-0.679167	-0.378180
C92	C	0.196762	-0.179167	0.121820
C93	C	-0.262923	-0.720163	-0.328067
C94	C	0.237077	-0.220163	0.171933
C95	C	-0.262919	-0.802142	-0.328059
C96	C	0.237081	-0.302142	0.171941
C97	C	-0.262936	-0.549293	-0.328086
C98	C	0.237064	-0.049293	0.171914
C99	C	-0.262940	-0.467309	-0.328093
C100	C	0.237060	0.032691	0.171907
C101	C	-0.343561	-0.467306	-0.428309
C102	C	0.156439	0.032694	0.071691
C103	C	-0.343557	-0.549285	-0.428301
C104	C	0.156443	-0.049285	0.071699
C105	C	-0.303243	-0.590276	-0.378187
C106	C	0.196757	-0.090276	0.121813
C107	C	-0.262895	-1.084220	-0.711165
C108	C	0.237105	-0.584220	-0.211165
C109	C	-0.262881	-1.084233	-0.793145
C110	C	0.237119	-0.584233	-0.293145
C111	C	-0.303133	-1.134411	-0.834125
C112	C	0.196867	-0.634411	-0.334125
C113	C	-0.343407	-1.184573	-0.793120
C114	C	0.156593	-0.684573	-0.293120
C115	C	-0.343424	-1.184555	-0.711141
C116	C	0.156576	-0.684555	-0.211141
C117	C	-0.343367	-1.184607	-0.963991
C118	C	0.156633	-0.684607	-0.463991
C119	C	-0.343350	-1.184625	-1.045975
C120	C	0.156650	-0.684625	-0.545975
C121	C	-0.262824	-1.084285	-1.045994
C122	C	0.237176	-0.584285	-0.545994
C123	C	-0.262841	-1.084267	-0.964015
C124	C	0.237159	-0.584267	-0.464015
C125	C	-0.303114	-1.134431	-0.923016
C126	C	0.196886	-0.634431	-0.423016
C127	C	-0.303237	-1.134330	-0.174224
C128	C	0.196763	-0.634330	0.325776
C129	C	-0.303080	-1.134465	-0.086974
C130	C	0.196920	-0.634465	0.413026
H131	H	-0.542851	-1.225379	-0.287136
H132	H	-0.042851	-0.725379	0.212864
H133	H	-0.230062	-1.043412	-0.930652
H134	H	0.269938	-0.543412	-0.430652
H135	H	-0.230102	-0.582665	-0.287285
H136	H	0.269898	-0.082665	0.212715
N137	N	-0.670831	-1.029899	-0.482415
N138	N	-0.170831	-0.529899	0.017585
H139	H	-0.659436	-0.973816	-0.470170
H140	H	-0.159436	-0.473816	0.029830
H141	H	-0.659337	-1.042117	-0.538490
H142	H	-0.159337	-0.542117	-0.038490
H143	H	-0.376126	-1.225484	-1.079339
H144	H	0.123874	-0.725484	-0.579339
N145	N	-0.670816	-1.238709	-0.273913
N146	N	-0.170816	-0.738709	0.226087
H147	H	-0.659333	-1.294787	-0.286143
H148	H	-0.159333	-0.794787	0.213857
H149	H	-0.659407	-1.226474	-0.217835
H150	H	-0.159407	-0.726474	0.282165
N151	N	-0.387024	-0.593502	-0.482339
N152	N	0.112976	-0.093502	0.017661
H153	H	-0.416160	-0.627485	-0.450366
H154	H	0.083840	-0.127485	0.049634
H155	H	-0.412522	-0.555051	-0.514081
H156	H	0.087478	-0.055051	-0.014081
H157	H	-0.230091	-0.835516	-0.287258
H158	H	0.269909	-0.335516	0.212742
N159	N	-0.219380	-1.030186	-1.090209
N160	N	0.280620	-0.530186	-0.590209
H161	H	-0.225476	-1.037809	-1.148360
H162	H	0.274524	-0.537809	-0.648360
H163	H	-0.229168	-0.974111	-1.075871
H164	H	0.270832	-0.474111	-0.575871
N165	N	-0.219438	-1.030154	-0.837377
N166	N	0.280562	-0.530154	-0.337377
H167	H	-0.245003	-0.993760	-0.871381
H168	H	0.254997	-0.493760	-0.371381
H169	H	-0.193939	-0.998419	-0.798937
H170	H	0.306061	-0.498419	-0.298937
N171	N	-0.935025	-1.030018	-0.482474
N172	N	-0.435025	-0.530018	0.017526
H173	H	-0.907795	-0.993651	-0.450532
H174	H	-0.407795	-0.493651	0.049468
H175	H	-0.907739	-1.061936	-0.518866
H176	H	-0.407739	-0.561936	-0.018866
H177	H	-1.062954	-1.225636	-0.287263
H178	H	-0.562954	-0.725636	0.212737
N179	N	-0.219462	-0.675953	-0.274016
N180	N	0.280538	-0.175953	0.225984
H181	H	-0.190324	-0.641959	-0.305975
H182	H	0.309676	-0.141959	0.194025
H183	H	-0.245069	-0.641966	-0.237601
H184	H	0.254931	-0.141966	0.262399
N185	N	-1.071663	-1.030091	-0.482519
N186	N	-0.571663	-0.530091	0.017481
H187	H	-1.118297	-1.037734	-0.474920
H188	H	-0.618297	-0.537734	0.025080
H189	H	-1.060221	-0.974031	-0.470249
H190	H	-0.560221	-0.474031	0.029751
N191	N	-0.386807	-1.238708	-0.919771
N192	N	0.113193	-0.738708	-0.419771
H193	H	-0.412302	-1.270498	-0.958172
H194	H	0.087698	-0.770498	-0.458172
H195	H	-0.361193	-1.275048	-0.885771
H196	H	0.138807	-0.775048	-0.385771
N197	N	-0.386819	-1.238690	-0.837326
N198	N	0.113181	-0.738690	-0.337326
H199	H	-0.377050	-1.294781	-0.823068
H200	H	0.122950	-0.794781	-0.323068
H201	H	-0.431782	-1.226395	-0.823026
H202	H	0.068218	-0.726395	-0.323026
N203	N	-0.534179	-1.029843	-0.482398
N204	N	-0.034179	-0.529843	0.017602
H205	H	-0.564981	-0.998035	-0.514179
H206	H	-0.064981	-0.498035	-0.014179
H207	H	-0.506951	-0.993523	-0.450403
H208	H	-0.006951	-0.493523	0.049597
N209	N	-0.386860	-1.238653	-0.666919
N210	N	0.113140	-0.738653	-0.166919
H211	H	-0.412356	-1.270443	-0.705320
H212	H	0.087644	-0.770443	-0.205320
H213	H	-0.361249	-1.274994	-0.632917
H214	H	0.138751	-0.774994	-0.132917
N215	N	-0.387045	-0.423101	-0.482360
N216	N	0.112955	0.076899	0.017640
H217	H	-0.380931	-0.364948	-0.474767
H218	H	0.119069	0.135052	0.025233
H219	H	-0.377307	-0.437462	-0.538443
H220	H	0.122693	0.062538	-0.038443
H221	H	-0.943691	-1.225572	-0.287224
H222	H	-0.443691	-0.725572	0.212776
N223	N	-0.387022	-0.846338	-0.482306
N224	N	0.112978	-0.346338	0.017694
H225	H	-0.377302	-0.832100	-0.538416
H226	H	0.122698	-0.332100	-0.038416
H227	H	-0.380886	-0.904478	-0.474631
H228	H	0.119114	-0.404478	0.025369
N229	N	-0.387031	-0.675946	-0.482319
N230	N	0.112969	-0.175946	0.017681
H231	H	-0.377322	-0.690242	-0.538429
H232	H	0.122678	-0.190242	-0.038429
H233	H	-0.431974	-0.690206	-0.469940
H234	H	0.068026	-0.190206	0.030060
H235	H	-0.230112	-0.433938	-0.287304
H236	H	0.269888	0.066062	0.212696
H237	H	-0.230113	-1.043365	-0.677805
H238	H	0.269887	-0.543365	-0.177805
