data_functionalizedCrystal
_audit_creation_method	'MofGen! by Chris Wilmer'
_symmetry_space_group_name_H-M	'P1'
_symmetry_Int_Tables_number	1
_symmetry_cell_setting	triclinic
loop_
_symmetry_equiv_pos_as_xyz
  x,y,z
_cell_length_a	15.021413
_cell_length_b	19.288864
_cell_length_c	19.288865
_cell_angle_alpha	83.136245
_cell_angle_beta	89.985874
_cell_angle_gamma	89.980256
loop_
_atom_site_label
_atom_site_type_symbol
_atom_site_fract_x
_atom_site_fract_y
_atom_site_fract_z
O1	O	0.074328	-0.921349	-0.086652
O2	O	0.407661	-0.588016	0.246682
O3	O	0.740994	-0.254683	0.580015
O4	O	0.074268	-0.719089	-0.098340
O5	O	0.407601	-0.385755	0.234993
O6	O	0.740935	-0.052422	0.568326
O7	O	0.074282	-0.826063	0.008634
O8	O	0.407615	-0.492730	0.341968
O9	O	0.740949	-0.159397	0.675301
O10	O	0.074314	-0.814375	-0.193626
O11	O	0.407647	-0.481041	0.139707
O12	O	0.740980	-0.147708	0.473040
O13	O	-0.073782	-0.826052	0.008646
O14	O	0.259551	-0.492719	0.341979
O15	O	0.592884	-0.159386	0.675312
O16	O	-0.073796	-0.719078	-0.098329
O17	O	0.259537	-0.385744	0.235004
O18	O	0.592871	-0.052411	0.568338
O19	O	-0.073737	-0.921338	-0.086640
O20	O	0.259597	-0.588005	0.246693
O21	O	0.592930	-0.254672	0.580026
Zn22	Zn	-0.097275	-0.820206	-0.092483
Zn23	Zn	0.236059	-0.486873	0.240850
Zn24	Zn	0.569392	-0.153539	0.574184
Zn25	Zn	0.097806	-0.820221	-0.092498
Zn26	Zn	0.431140	-0.486887	0.240835
Zn27	Zn	0.764473	-0.153554	0.574169
O28	O	-0.073750	-0.814363	-0.193615
O29	O	0.259583	-0.481030	0.139718
O30	O	0.592916	-0.147697	0.473052
C31	C	0.000228	-0.693207	-0.097959
C32	C	0.333562	-0.359873	0.235375
C33	C	0.666895	-0.026540	0.568708
C34	C	0.000205	-0.616103	-0.096830
C35	C	0.333538	-0.282770	0.236504
C36	C	0.666871	0.050564	0.569837
N37	N	-0.230412	-0.820201	-0.092472
N38	N	0.102921	-0.486868	0.240861
N39	N	0.436254	-0.153535	0.574194
N40	N	0.230944	-0.820231	-0.092503
N41	N	0.564277	-0.486898	0.240830
N42	N	0.897611	-0.153564	0.574164
C43	C	0.470604	-0.869794	-0.043106
C44	C	0.803938	-0.536460	0.290227
C45	C	1.137271	-0.203127	0.623561
C46	C	0.529987	-0.882917	-0.105871
C47	C	0.863321	-0.549584	0.227462
C48	C	1.196654	-0.216251	0.560795
C49	C	0.412551	-0.820221	-0.092494
C50	C	0.745884	-0.486888	0.240839
C51	C	1.079217	-0.153555	0.574172
C52	C	0.529910	-0.807120	-0.029720
C53	C	0.863243	-0.473787	0.303613
C54	C	1.196576	-0.140453	0.636947
C55	C	0.587975	-0.820213	-0.092480
C56	C	0.921308	-0.486880	0.240853
C57	C	1.254642	-0.153547	0.574187
C58	C	0.470627	-0.833376	-0.155291
C59	C	0.803961	-0.500043	0.178042
C60	C	1.137294	-0.166709	0.511375
C61	C	0.470544	-0.757552	-0.079099
C62	C	0.803878	-0.424218	0.254235
C63	C	1.137211	-0.090885	0.587568
C64	C	0.529901	-0.770649	-0.141909
C65	C	0.863234	-0.437315	0.191424
C66	C	1.196567	-0.103982	0.524757
C67	C	0.311493	-0.820228	-0.092501
C68	C	0.644827	-0.486894	0.240832
C69	C	0.978160	-0.153561	0.574165
C70	C	0.689030	-0.820206	-0.092480
C71	C	1.022363	-0.486873	0.240853
C72	C	1.355697	-0.153540	0.574187
C73	C	0.000247	-0.825682	0.034516
C74	C	0.333580	-0.492348	0.367850
C75	C	0.666914	-0.159015	0.701183
C76	C	0.000239	-0.824553	0.111620
C77	C	0.333572	-0.491219	0.444953
C78	C	0.666906	-0.157886	0.778287
C79	C	0.000305	-0.947220	-0.087022
C80	C	0.333639	-0.613887	0.246311
C81	C	0.666972	-0.280553	0.579645
C82	C	0.000335	-1.024324	-0.088151
C83	C	0.333668	-0.690990	0.245182
C84	C	0.667001	-0.357657	0.578516
C85	C	0.000229	-0.571407	-0.159598
C86	C	0.333562	-0.238073	0.173736
C87	C	0.666895	0.095260	0.507069
C88	C	0.000238	-0.498960	-0.158537
C89	C	0.333572	-0.165626	0.174796
C90	C	0.666905	0.167707	0.508130
C91	C	0.000242	-0.471212	-0.094705
C92	C	0.333575	-0.137879	0.238629
C93	C	0.666909	0.195455	0.571962
C94	C	0.000213	-0.515918	-0.031929
C95	C	0.333546	-0.182585	0.301405
C96	C	0.666880	0.150748	0.634738
C97	C	0.000194	-0.588364	-0.032991
C98	C	0.333528	-0.255030	0.300342
C99	C	0.666861	0.078303	0.633676
C100	C	0.052137	-0.362954	-0.044530
C101	C	0.385471	-0.029621	0.288804
C102	C	0.718804	0.303713	0.622137
C103	C	0.052161	-0.290510	-0.043470
C104	C	0.385495	0.042824	0.289864
C105	C	0.718828	0.376157	0.623197
C106	C	0.000295	-0.247767	-0.091425
C107	C	0.333629	0.085567	0.241908
C108	C	0.666962	0.418900	0.575242
C109	C	-0.051584	-0.277475	-0.140452
C110	C	0.281750	0.055858	0.192881
C111	C	0.615083	0.389191	0.526215
C112	C	-0.051602	-0.349921	-0.141515
C113	C	0.281731	-0.016588	0.191819
C114	C	0.615065	0.316746	0.525152
C115	C	0.000262	-0.392658	-0.093546
C116	C	0.333595	-0.059325	0.239788
C117	C	0.666928	0.274009	0.573121
C118	C	0.000328	-0.124514	-0.153047
C119	C	0.333662	0.208819	0.180286
C120	C	0.666995	0.542152	0.513619
C121	C	0.000333	-0.052066	-0.151984
C122	C	0.333666	0.281267	0.181349
C123	C	0.666999	0.614600	0.514683
C124	C	0.000316	-0.069026	-0.025374
C125	C	0.333650	0.264307	0.307960
C126	C	0.666983	0.597640	0.641293
C127	C	0.000303	-0.141473	-0.026439
C128	C	0.333636	0.191860	0.306894
C129	C	0.666970	0.525194	0.640228
C130	C	0.000313	-0.169212	-0.090278
C131	C	0.333647	0.164121	0.243056
C132	C	0.666980	0.497454	0.576389
C133	C	0.000286	-0.814745	-0.219497
C134	C	0.333620	-0.481412	0.113836
C135	C	0.666953	-0.148078	0.447169
C136	C	0.000300	-0.815874	-0.296601
C137	C	0.333634	-0.482541	0.036733
C138	C	0.666967	-0.149207	0.370066
C139	C	0.000253	-0.887321	0.156316
C140	C	0.333586	-0.553987	0.489650
C141	C	0.666920	-0.220654	0.822983
C142	C	0.000267	-0.886260	0.228763
C143	C	0.333600	-0.552927	0.562097
C144	C	0.666934	-0.219593	0.895430
C145	C	0.000249	-0.822428	0.256511
C146	C	0.333582	-0.489094	0.589844
C147	C	0.666915	-0.155761	0.923178
C148	C	0.000240	-0.759652	0.211805
C149	C	0.333573	-0.426318	0.545138
C150	C	0.666906	-0.092985	0.878471
C151	C	0.000235	-0.760714	0.139359
C152	C	0.333568	-0.427381	0.472693
C153	C	0.666901	-0.094047	0.806026
C154	C	-0.051630	-0.772244	0.364802
C155	C	0.281704	-0.438911	0.698136
C156	C	0.615037	-0.105578	1.031469
C157	C	-0.051630	-0.771184	0.437247
C158	C	0.281703	-0.437851	0.770580
C159	C	0.615036	-0.104518	1.103913
C160	C	0.000268	-0.819148	0.479956
C161	C	0.333601	-0.485815	0.813290
C162	C	0.666934	-0.152481	1.146623
C163	C	0.052155	-0.868183	0.450214
C164	C	0.385488	-0.534850	0.783548
C165	C	0.718821	-0.201517	1.116881
C166	C	0.052150	-0.869246	0.377769
C167	C	0.385483	-0.535912	0.711102
C168	C	0.718817	-0.202579	1.044436
C169	C	0.000254	-0.821269	0.335065
C170	C	0.333588	-0.487935	0.668398
C171	C	0.666921	-0.154602	1.001732
C172	C	0.000298	-0.880770	0.603209
C173	C	0.333631	-0.547437	0.936542
C174	C	0.666965	-0.214104	1.269875
C175	C	0.000317	-0.879707	0.675657
C176	C	0.333651	-0.546374	1.008990
C177	C	0.666984	-0.213040	1.342323
C178	C	0.000281	-0.753097	0.658697
C179	C	0.333614	-0.419763	0.992030
C180	C	0.666948	-0.086430	1.325363
C181	C	0.000271	-0.754162	0.586250
C182	C	0.333604	-0.420829	0.919583
C183	C	0.666937	-0.087495	1.252917
C184	C	0.000275	-0.818000	0.558511
C185	C	0.333608	-0.484667	0.891844
C186	C	0.666942	-0.151334	1.225177
H187	H	0.444569	-0.911746	-0.001393
H188	H	0.777903	-0.578412	0.331940
H189	H	1.111236	-0.245079	0.665273
H190	H	0.000260	-0.939303	0.133736
H191	H	0.333593	-0.605970	0.467069
H192	H	0.666926	-0.272636	0.800403
Br193	Br	-0.121976	-0.219476	-0.205542
Br194	Br	0.211358	0.113857	0.127792
Br195	Br	0.544691	0.447191	0.461125
H196	H	0.556097	-0.935912	-0.117200
H197	H	0.889430	-0.602579	0.216133
H198	H	1.222763	-0.269245	0.549466
Br199	Br	0.573029	-0.700766	-0.211584
Br200	Br	0.906363	-0.367432	0.121749
Br201	Br	1.239696	-0.034099	0.455083
H202	H	0.444695	-0.844511	-0.208386
H203	H	0.778029	-0.511178	0.124948
H204	H	1.111362	-0.177844	0.458281
Br205	Br	0.426992	-0.669249	-0.060185
Br206	Br	0.760326	-0.335916	0.273148
Br207	Br	1.093659	-0.002583	0.606482
H208	H	0.555952	-0.796042	0.023361
H209	H	0.889285	-0.462709	0.356695
H210	H	1.222618	-0.129375	0.690028
Br211	Br	0.122580	-0.250196	0.023057
Br212	Br	0.455913	0.083137	0.356390
Br213	Br	0.789246	0.416470	0.689724
Br214	Br	0.000251	-0.668972	0.525587
Br215	Br	0.333584	-0.335639	0.858920
Br216	Br	0.666917	-0.002305	1.192253
Br217	Br	0.000290	-0.971451	0.289434
Br218	Br	0.333623	-0.638117	0.622768
Br219	Br	0.666957	-0.304784	0.956101
Br220	Br	0.000295	-0.967406	0.565558
Br221	Br	0.333628	-0.634072	0.898891
Br222	Br	0.666961	-0.300739	1.232225
Br223	Br	-0.122007	-0.390239	-0.208046
Br224	Br	0.211326	-0.056906	0.125288
Br225	Br	0.544659	0.276427	0.458621
Br226	Br	0.122569	-0.935787	0.337405
Br227	Br	0.455902	-0.602453	0.670739
Br228	Br	0.789235	-0.269120	1.004072
H229	H	-0.093875	-0.731254	0.461456
H230	H	0.239458	-0.397921	0.794790
H231	H	0.572792	-0.064587	1.128123
Br232	Br	0.000160	-0.649028	0.052201
Br233	Br	0.333493	-0.315694	0.385534
Br234	Br	0.666827	0.017639	0.718867
H235	H	0.000239	-0.593987	-0.211580
H236	H	0.333572	-0.260654	0.121753
H237	H	0.666905	0.072680	0.455087
Br238	Br	0.000265	-0.438288	-0.243728
Br239	Br	0.333599	-0.104955	0.089606
Br240	Br	0.666932	0.228378	0.422939
H241	H	0.000324	-0.147101	-0.205028
H242	H	0.333657	0.186233	0.128305
H243	H	0.666990	0.519566	0.461638
Br244	Br	0.000357	0.008596	-0.237177
Br245	Br	0.333690	0.341929	0.096157
Br246	Br	0.667024	0.675263	0.429490
Br247	Br	0.000306	-0.031377	0.061257
Br248	Br	0.333640	0.301956	0.394591
Br249	Br	0.666973	0.635289	0.727924
Br250	Br	-0.122070	-0.707145	0.306846
Br251	Br	0.211263	-0.373812	0.640179
Br252	Br	0.544597	-0.040478	0.973512
H253	H	0.000227	-0.707679	0.234401
H254	H	0.333560	-0.374346	0.567735
H255	H	0.666893	-0.041012	0.901068
H256	H	0.000270	-0.701123	0.681288
H257	H	0.333604	-0.367790	1.014621
H258	H	0.666937	-0.034457	1.347954
Br259	Br	0.000273	-0.202136	0.058751
Br260	Br	0.333606	0.131197	0.392084
Br261	Br	0.666940	0.464530	0.725418
H262	H	0.094378	-0.397750	-0.005477
H263	H	0.427712	-0.064417	0.327856
H264	H	0.761045	0.268916	0.661190
H265	H	0.000228	-0.493322	0.020044
H266	H	0.333562	-0.159988	0.353377
H267	H	0.666895	0.173345	0.686711
H268	H	0.094416	-0.907240	0.484988
H269	H	0.427749	-0.573906	0.818321
H270	H	0.761082	-0.240573	1.151654
H271	H	0.000334	-0.930822	0.712049
H272	H	0.333667	-0.597489	1.045382
H273	H	0.667000	-0.264156	1.378715
H274	H	0.000223	-0.709599	0.102967
H275	H	0.333556	-0.376266	0.436300
H276	H	0.666890	-0.042932	0.769633
