data_functionalizedCrystal
_audit_creation_method	'MofGen! by Chris Wilmer'
_symmetry_space_group_name_H-M	'P1'
_symmetry_Int_Tables_number	1
_symmetry_cell_setting	triclinic
loop_
_symmetry_equiv_pos_as_xyz
  x,y,z
_cell_length_a	10.540510
_cell_length_b	14.519709
_cell_length_c	12.996460
_cell_angle_alpha	89.999398
_cell_angle_beta	89.997788
_cell_angle_gamma	95.903272
loop_
_atom_site_label
_atom_site_type_symbol
_atom_site_fract_x
_atom_site_fract_y
_atom_site_fract_z
O1	O	0.166391	-1.224754	0.085427
O2	O	0.185987	-0.956381	0.085458
O3	O	-0.008582	-1.096705	0.085441
O4	O	0.360961	-1.084431	0.085443
O5	O	-0.008571	-1.096687	-0.085693
O6	O	0.185998	-0.956363	-0.085676
O7	O	0.166402	-1.224736	-0.085707
Cu8	Cu	0.176201	-1.090548	-0.101317
Cu9	Cu	0.176188	-1.090569	0.101068
O10	O	0.360972	-1.084412	-0.085690
C11	C	0.185079	-0.922008	-0.000105
C12	C	0.182343	-0.819612	-0.000093
N13	N	0.176210	-1.090539	-0.243664
C14	C	-0.055871	-1.095781	-0.000123
C15	C	-0.196793	-1.093044	-0.000117
C16	C	-0.415244	-1.190527	-0.000520
C17	C	-0.268678	-1.193446	-0.000129
C18	C	-0.241033	-1.041659	0.097613
C19	C	-0.387772	-1.039451	0.097689
C20	C	-0.387546	-1.037340	-0.096921
C21	C	-0.241254	-1.042102	-0.098208
C22	C	0.408261	-1.085336	-0.000123
C23	C	0.549183	-1.088073	-0.000123
C24	C	0.167310	-1.259110	-0.000142
C25	C	0.170047	-1.361505	-0.000147
C26	C	0.172268	-0.444662	-0.000140
C27	C	0.175066	-0.548985	-0.000127
C28	C	0.177305	-0.632134	-0.000116
C29	C	0.180103	-0.736463	-0.000104
C30	C	0.176213	-1.090544	-0.336770
C31	C	0.176205	-1.090552	-0.453575
C32	C	0.176191	-1.090564	-0.546674
C33	C	0.176183	-1.090573	-0.663486
N34	N	0.176169	-1.090585	0.243415
H35	H	-0.239740	-1.233652	-0.070185
Br36	Br	-0.424830	-0.914295	0.105102
Br37	Br	-0.458924	-1.090144	-0.220384
H38	H	-0.213019	-1.079492	-0.170508
Br39	Br	-0.485824	-1.255716	-0.117340
H40	H	-0.192890	-0.967746	0.101255
H41	H	-0.191438	-0.968800	-0.104101
H42	H	-0.459151	-1.229424	0.069162
H43	H	-0.428351	-1.074583	0.170736
Br44	Br	-0.222017	-1.260871	0.116825
Br45	Br	-0.190228	-1.101160	0.218825
Br46	Br	-0.423180	-0.911699	-0.098007
