data_functionalizedCrystal
_audit_creation_method	'MofGen! by Chris Wilmer'
_symmetry_space_group_name_H-M	'P1'
_symmetry_Int_Tables_number	1
_symmetry_cell_setting	triclinic
loop_
_symmetry_equiv_pos_as_xyz
  x,y,z
_cell_length_a	19.077236
_cell_length_b	25.639240
_cell_length_c	19.077314
_cell_angle_alpha	87.665026
_cell_angle_beta	90.071888
_cell_angle_gamma	92.325142
loop_
_atom_site_label
_atom_site_type_symbol
_atom_site_fract_x
_atom_site_fract_y
_atom_site_fract_z
Zn1	Zn	1.058270	-0.163505	-0.440510
Zn2	Zn	1.391604	0.169828	-0.107177
Zn3	Zn	1.724937	0.503161	0.226156
Zn4	Zn	1.062891	-0.254308	-0.322980
Zn5	Zn	1.396224	0.079025	0.010353
Zn6	Zn	1.729558	0.412359	0.343687
Zn7	Zn	0.945482	-0.170525	-0.318287
Zn8	Zn	1.278815	0.162808	0.015047
Zn9	Zn	1.612149	0.496142	0.348380
Zn10	Zn	0.940713	-0.254555	-0.435720
Zn11	Zn	1.274046	0.078778	-0.102387
Zn12	Zn	1.607379	0.412111	0.230947
O13	O	1.001839	-0.210723	-0.379374
O14	O	1.335172	0.122610	-0.046041
O15	O	1.668506	0.455943	0.287292
O16	O	1.157218	-0.172509	-0.428889
O17	O	1.490551	0.160824	-0.095555
O18	O	1.823884	0.494157	0.237778
O19	O	1.051246	-0.246028	-0.224024
O20	O	1.384580	0.087305	0.109309
O21	O	1.717913	0.420639	0.442642
O22	O	0.960506	-0.096425	-0.334540
O23	O	1.293839	0.236908	-0.001207
O24	O	1.627173	0.570241	0.332126
O25	O	1.160613	-0.239222	-0.342540
O26	O	1.493946	0.094112	-0.009206
O27	O	1.827279	0.427445	0.324127
O28	O	1.043371	-0.091268	-0.424338
O29	O	1.376704	0.242065	-0.091004
O30	O	1.710038	0.575398	0.242329
O31	O	0.964986	-0.184473	-0.220576
O32	O	1.298320	0.148860	0.112757
O33	O	1.631653	0.482194	0.446091
O34	O	0.846515	-0.184713	-0.329895
O35	O	1.179848	0.148620	0.003438
O36	O	1.513182	0.481954	0.336771
O37	O	0.952377	-0.239643	-0.534689
O38	O	1.285711	0.093690	-0.201355
O39	O	1.619044	0.427023	0.131978
O40	O	0.843011	-0.246450	-0.416173
O41	O	1.176344	0.086883	-0.082840
O42	O	1.509678	0.420217	0.250493
O43	O	1.038746	-0.172749	-0.538208
O44	O	1.372080	0.160584	-0.204875
O45	O	1.705413	0.493917	0.128459
O46	O	1.046622	-0.327509	-0.337895
O47	O	1.379955	0.005824	-0.004562
O48	O	1.713288	0.339158	0.328772
O49	O	0.956858	-0.327691	-0.420724
O50	O	1.290191	0.005642	-0.087391
O51	O	1.623524	0.338976	0.245942
C52	C	0.819266	-0.216370	-0.372006
C53	C	1.152599	0.116963	-0.038672
C54	C	1.485933	0.450296	0.294661
C55	C	0.741160	-0.218798	-0.368870
C56	C	1.074493	0.114535	-0.035537
C57	C	1.407827	0.447868	0.297797
C58	C	0.702696	-0.185257	-0.412423
C59	C	1.036029	0.148077	-0.079089
C60	C	1.369362	0.481410	0.254244
C61	C	0.629307	-0.187536	-0.409470
C62	C	0.962640	0.145798	-0.076137
C63	C	1.295974	0.479131	0.257196
C64	C	0.594383	-0.223359	-0.362968
C65	C	0.927717	0.109974	-0.029635
C66	C	1.261050	0.443307	0.303698
C67	C	0.632853	-0.256902	-0.319411
C68	C	0.966186	0.076431	0.013922
C69	C	1.299519	0.409764	0.347256
C70	C	0.706240	-0.254621	-0.322360
C71	C	1.039574	0.078713	0.010973
C72	C	1.372907	0.412046	0.344306
C73	C	0.375088	-0.233900	-0.349316
C74	C	0.708421	0.099433	-0.015983
C75	C	1.041754	0.432766	0.317350
C76	C	0.301695	-0.236181	-0.346372
C77	C	0.635028	0.097152	-0.013038
C78	C	0.968361	0.430486	0.320295
C79	C	0.298154	-0.166813	-0.436431
C80	C	0.631487	0.166520	-0.103097
C81	C	0.964821	0.499854	0.230236
C82	C	0.371543	-0.164537	-0.439379
C83	C	0.704876	0.168797	-0.106045
C84	C	1.038210	0.502130	0.227288
C85	C	0.410006	-0.198078	-0.395819
C86	C	0.743340	0.135256	-0.062485
C87	C	1.076673	0.468589	0.270848
N88	N	0.519368	-0.225691	-0.359951
N89	N	0.852701	0.107643	-0.026618
N90	N	1.186035	0.440976	0.306716
N91	N	0.485020	-0.195743	-0.398833
N92	N	0.818354	0.137590	-0.065500
N93	N	1.151687	0.470923	0.267834
C94	C	1.001742	-0.346571	-0.379315
C95	C	1.335075	-0.013237	-0.045982
C96	C	1.668409	0.320096	0.287351
C97	C	1.001764	-0.404684	-0.379316
C98	C	1.335097	-0.071351	-0.045983
C99	C	1.668431	0.261983	0.287351
C100	C	1.045006	-0.762316	-0.426214
C101	C	1.378339	-0.428983	-0.092880
C102	C	1.711673	-0.095650	0.240453
C103	C	1.045026	-0.816919	-0.426229
C104	C	1.378360	-0.483586	-0.092895
C105	C	1.711693	-0.150253	0.240438
O106	O	1.081676	-0.842840	-0.466041
O107	O	1.415010	-0.509506	-0.132708
O108	O	1.748343	-0.176173	0.200625
N109	N	1.001934	-0.846957	-0.379446
N110	N	1.335267	-0.513624	-0.046113
N111	N	1.668601	-0.180291	0.287221
C112	C	0.958813	-0.822390	-0.332650
C113	C	1.292147	-0.489056	0.000683
C114	C	1.625480	-0.155723	0.334017
O115	O	0.922161	-0.852953	-0.292860
O116	O	1.255495	-0.519620	0.040474
O117	O	1.588828	-0.186287	0.373807
C118	C	0.958790	-0.767787	-0.332639
C119	C	1.292123	-0.434454	0.000694
C120	C	1.625457	-0.101121	0.334028
C121	C	1.001890	-0.737752	-0.379420
C122	C	1.335224	-0.404419	-0.046087
C123	C	1.668557	-0.071085	0.287247
C124	C	1.088102	-0.732281	-0.472991
C125	C	1.421436	-0.398948	-0.139658
C126	C	1.754769	-0.065614	0.193675
C127	C	1.088083	-0.677682	-0.472975
C128	C	1.421416	-0.344348	-0.139642
C129	C	1.754750	-0.011015	0.193692
C130	C	1.044967	-0.653117	-0.426181
C131	C	1.378301	-0.319784	-0.092848
C132	C	1.711634	0.013549	0.240485
C133	C	1.001871	-0.683152	-0.379404
C134	C	1.335204	-0.349819	-0.046070
C135	C	1.668538	-0.016486	0.287263
C136	C	0.915666	-0.743220	-0.285847
C137	C	1.249000	-0.409887	0.047486
C138	C	1.582333	-0.076554	0.380820
C139	C	0.915646	-0.688614	-0.285840
C140	C	1.248980	-0.355281	0.047493
C141	C	1.582313	-0.021948	0.380827
C142	C	0.958747	-0.658579	-0.332621
C143	C	1.292080	-0.325246	0.000712
C144	C	1.625413	0.008088	0.334046
C145	C	0.958736	-0.603989	-0.332594
C146	C	1.292069	-0.270655	0.000740
C147	C	1.625403	0.062678	0.334073
N148	N	1.001828	-0.573951	-0.379376
N149	N	1.335162	-0.240617	-0.046043
N150	N	1.668495	0.092716	0.287290
C151	C	1.044944	-0.598515	-0.426170
C152	C	1.378277	-0.265182	-0.092837
C153	C	1.711611	0.068152	0.240497
C154	C	0.958865	-0.937058	-0.332678
C155	C	1.292198	-0.603725	0.000655
C156	C	1.625531	-0.270391	0.333989
C157	C	0.958891	-0.991659	-0.332685
C158	C	1.292225	-0.658326	0.000648
C159	C	1.625558	-0.324993	0.333981
C160	C	1.045103	-0.986185	-0.426265
C161	C	1.378437	-0.652852	-0.092932
C162	C	1.711770	-0.319519	0.240402
C163	C	1.045080	-0.931583	-0.426254
C164	C	1.378413	-0.598250	-0.092920
C165	C	1.711747	-0.264916	0.240413
C166	C	1.001957	-0.907020	-0.379461
C167	C	1.335290	-0.573687	-0.046127
C168	C	1.668624	-0.240353	0.287206
C169	C	1.044901	-0.483852	-0.426132
C170	C	1.378234	-0.150519	-0.092799
C171	C	1.711567	0.182814	0.240534
C172	C	1.044880	-0.429248	-0.426110
C173	C	1.378213	-0.095915	-0.092777
C174	C	1.711546	0.237418	0.240557
C175	C	0.958665	-0.434727	-0.332533
C176	C	1.291998	-0.101394	0.000800
C177	C	1.625332	0.231940	0.334134
C178	C	0.958689	-0.489326	-0.332552
C179	C	1.292022	-0.155993	0.000781
C180	C	1.625355	0.177340	0.334114
C181	C	1.001808	-0.513887	-0.379358
C182	C	1.335142	-0.180554	-0.046025
C183	C	1.668475	0.152779	0.287309
O184	O	0.922102	-0.578033	-0.292803
O185	O	1.255436	-0.244699	0.040530
O186	O	1.588769	0.088634	0.373863
O187	O	1.081583	-0.567945	-0.465960
O188	O	1.414916	-0.234612	-0.132627
O189	O	1.748250	0.098721	0.200707
C190	C	1.185125	-0.205055	-0.386772
C191	C	1.518458	0.128279	-0.053439
C192	C	1.851792	0.461612	0.279895
C193	C	1.263231	-0.202639	-0.389925
C194	C	1.596564	0.130694	-0.056591
C195	C	1.929897	0.464028	0.276742
C196	C	0.994514	-0.205441	-0.562658
C197	C	1.327848	0.127892	-0.229325
C198	C	1.661181	0.461226	0.104009
C199	C	0.991393	-0.203190	-0.640762
C200	C	1.324726	0.130143	-0.307429
C201	C	1.658060	0.463477	0.025904
C202	C	1.001955	-0.074345	-0.379450
C203	C	1.335288	0.258989	-0.046116
C204	C	1.668622	0.592322	0.287217
C205	C	1.002005	-0.016228	-0.379482
C206	C	1.335338	0.317105	-0.046149
C207	C	1.668671	0.650438	0.287185
C208	C	1.034834	-0.234179	-0.679254
C209	C	1.368167	0.099154	-0.345921
C210	C	1.701501	0.432488	-0.012587
C211	C	1.031901	-0.232058	-0.752642
C212	C	1.365235	0.101276	-0.419308
C213	C	1.698568	0.434609	-0.085975
C214	C	0.985523	-0.198949	-0.787536
C215	C	1.318857	0.134384	-0.454203
C216	C	1.652190	0.467717	-0.120869
C217	C	0.942081	-0.167957	-0.749039
C218	C	1.275414	0.165377	-0.415706
C219	C	1.608747	0.498710	-0.082372
C220	C	0.945017	-0.170076	-0.675653
C221	C	1.278351	0.163258	-0.342320
C222	C	1.611684	0.496591	-0.008986
C223	C	0.971927	-0.189172	-1.006824
C224	C	1.305261	0.144161	-0.673491
C225	C	1.638594	0.477494	-0.340157
C226	C	0.968992	-0.187057	-1.080215
C227	C	1.302326	0.146277	-0.746882
C228	C	1.635659	0.479610	-0.413548
C229	C	1.058814	-0.251157	-1.083813
C230	C	1.392148	0.082176	-0.750479
C231	C	1.725481	0.415509	-0.417146
C232	C	1.061744	-0.253276	-1.010425
C233	C	1.395077	0.080058	-0.677092
C234	C	1.728411	0.413391	-0.343758
C235	C	1.018304	-0.222281	-0.971935
C236	C	1.351637	0.111052	-0.638601
C237	C	1.684971	0.444386	-0.305268
N238	N	0.982523	-0.196781	-0.862550
N239	N	1.315856	0.136552	-0.529216
N240	N	1.649189	0.469886	-0.195883
N241	N	1.021309	-0.224447	-0.896922
N242	N	1.354642	0.108887	-0.563589
N243	N	1.687975	0.442220	-0.230256
C244	C	1.009176	-0.215946	-0.196805
C245	C	1.342509	0.117387	0.136528
C246	C	1.675842	0.450720	0.469861
C247	C	1.012433	-0.218046	-0.118707
C248	C	1.345767	0.115287	0.214627
C249	C	1.679100	0.448621	0.547960
H250	H	1.080008	-0.503843	-0.464250
H251	H	1.413341	-0.170510	-0.130917
H252	H	1.746674	0.162823	0.202416
O253	O	0.747727	-0.290797	-0.275381
O254	O	1.081060	0.042536	0.057952
O255	O	1.414393	0.375869	0.391285
H256	H	0.804625	-0.283188	-0.285237
H257	H	1.137958	0.050145	0.048096
H258	H	1.471291	0.383479	0.381429
O259	O	1.091602	-1.012688	-0.476741
O260	O	1.424935	-0.679355	-0.143408
O261	O	1.758269	-0.346022	0.189926
H262	H	1.121571	-0.982633	-0.509270
H263	H	1.454904	-0.649299	-0.175937
H264	H	1.788238	-0.315966	0.157397
O265	O	0.869177	-0.775609	-0.235392
O266	O	1.202510	-0.442275	0.097941
O267	O	1.535844	-0.108942	0.431275
H268	H	0.813536	-0.766519	-0.245184
H269	H	1.146869	-0.433186	0.088150
H270	H	1.480202	-0.099853	0.421483
O271	O	1.078758	-0.265483	-0.794155
O272	O	1.412091	0.067850	-0.460821
O273	O	1.745424	0.401184	-0.127488
H274	H	1.068933	-0.258443	-0.851047
H275	H	1.402266	0.074890	-0.517714
H276	H	1.735599	0.408223	-0.184381
H277	H	0.731125	-0.156086	-0.450292
H278	H	1.064458	0.177247	-0.116958
H279	H	1.397792	0.510580	0.216375
O280	O	0.587818	-0.151358	-0.456444
O281	O	0.921151	0.181975	-0.123111
O282	O	1.254485	0.515308	0.210223
H283	H	0.624431	-0.126069	-0.489280
H284	H	0.957765	0.207264	-0.155947
H285	H	1.291098	0.540598	0.177386
H286	H	0.399973	-0.135367	-0.477248
H287	H	0.733306	0.197966	-0.143915
H288	H	1.066639	0.531300	0.189418
O289	O	0.256672	-0.130630	-0.483402
O290	O	0.590005	0.202703	-0.150069
O291	O	0.923338	0.536037	0.183265
H292	H	0.199773	-0.138229	-0.473535
H293	H	0.533107	0.195104	-0.140202
H294	H	0.866440	0.528438	0.193131
O295	O	0.912358	-0.910566	-0.282198
O296	O	1.245691	-0.577233	0.051135
O297	O	1.579025	-0.243899	0.384468
H298	H	0.945257	-0.885735	-0.247741
H299	H	1.278590	-0.552401	0.085592
H300	H	1.611924	-0.219068	0.418925
O301	O	0.595191	-0.295541	-0.269251
O302	O	0.928524	0.037793	0.064082
O303	O	1.261857	0.371126	0.397416
H304	H	0.537697	-0.291496	-0.274521
H305	H	0.871030	0.041837	0.058813
H306	H	1.204364	0.375170	0.392146
O307	O	1.084862	-0.269884	-0.641619
O308	O	1.418195	0.063449	-0.308285
O309	O	1.751529	0.396782	0.025048
H310	H	1.114583	-0.291071	-0.680717
H311	H	1.447916	0.042262	-0.347384
H312	H	1.781250	0.375596	-0.014050
H313	H	0.923803	-1.016110	-0.294584
H314	H	1.257136	-0.682776	0.038749
H315	H	1.590469	-0.349443	0.372082
H316	H	1.079979	-0.404795	-0.464204
H317	H	1.413313	-0.071461	-0.130871
H318	H	1.746646	0.261872	0.202462
O319	O	0.869141	-0.662120	-0.235363
O320	O	1.202474	-0.328787	0.097970
O321	O	1.535808	0.004547	0.431303
H322	H	0.839184	-0.692182	-0.202835
H323	H	1.172517	-0.358849	0.130499
H324	H	1.505850	-0.025516	0.463832
O325	O	0.264023	-0.274816	-0.296207
O326	O	0.597356	0.058518	0.037127
O327	O	0.930690	0.391851	0.370460
H328	H	0.277612	-0.315085	-0.308704
H329	H	0.610945	0.018249	0.024629
H330	H	0.944279	0.351582	0.357963
O331	O	0.416570	-0.270074	-0.302334
O332	O	0.749903	0.063260	0.030999
O333	O	1.083236	0.396593	0.364333
H334	H	0.379953	-0.295368	-0.269508
H335	H	0.713287	0.037965	0.063825
H336	H	1.046620	0.371298	0.397159
O337	O	1.134612	-0.758771	-0.523463
O338	O	1.467945	-0.425438	-0.190130
O339	O	1.801279	-0.092105	0.143204
H340	H	1.164574	-0.728704	-0.555980
H341	H	1.497908	-0.395371	-0.222647
H342	H	1.831241	-0.062038	0.110687
H343	H	1.123177	-0.653230	-0.511070
H344	H	1.456510	-0.319896	-0.177737
H345	H	1.789843	0.013437	0.155597
H346	H	1.080176	-0.907131	-0.464347
H347	H	1.413509	-0.573798	-0.131014
H348	H	1.746842	-0.240464	0.202320
O349	O	0.912206	-0.521727	-0.282097
O350	O	1.245539	-0.188394	0.051237
O351	O	1.578872	0.144940	0.384570
H352	H	0.882219	-0.495470	-0.249558
H353	H	1.215553	-0.162137	0.083776
H354	H	1.548886	0.171197	0.417109
H355	H	1.094182	-0.276390	-1.115159
H356	H	1.427515	0.056943	-0.781826
H357	H	1.760849	0.390276	-0.448493
H358	H	0.923563	-0.414718	-0.294432
H359	H	1.256896	-0.081385	0.038901
H360	H	1.590230	0.251948	0.372235
H361	H	1.099499	-0.280245	-0.982019
H362	H	1.432832	0.053089	-0.648685
H363	H	1.766165	0.386422	-0.315352
H364	H	0.931227	-0.160092	-1.108624
H365	H	1.264561	0.173241	-0.775291
H366	H	1.597894	0.506575	-0.441957
H367	H	0.936552	-0.163937	-0.975494
H368	H	1.269886	0.169397	-0.642160
H369	H	1.603219	0.502730	-0.308827
H370	H	0.904322	-0.140997	-0.777456
H371	H	1.237655	0.192337	-0.444123
H372	H	1.570988	0.525670	-0.110789
H373	H	0.909645	-0.144839	-0.644314
H374	H	1.242978	0.188494	-0.310981
H375	H	1.576312	0.521827	0.022353
