data_functionalizedCrystal
_audit_creation_method	'MofGen! by Chris Wilmer'
_symmetry_space_group_name_H-M	'P1'
_symmetry_Int_Tables_number	1
_symmetry_cell_setting	triclinic
loop_
_symmetry_equiv_pos_as_xyz
  x,y,z
_cell_length_a	10.654549
_cell_length_b	16.992695
_cell_length_c	15.455313
_cell_angle_alpha	87.152573
_cell_angle_beta	87.293249
_cell_angle_gamma	92.422430
loop_
_atom_site_label
_atom_site_type_symbol
_atom_site_fract_x
_atom_site_fract_y
_atom_site_fract_z
O1	O	1.682525	-0.106807	-0.072124
O2	O	2.182525	0.393193	0.427876
O3	O	1.317954	-0.117301	-0.072127
O4	O	1.817954	0.382699	0.427873
O5	O	1.498778	0.002096	-0.072118
O6	O	1.998778	0.502096	0.427882
O7	O	1.501702	-0.226204	-0.072132
O8	O	2.001702	0.273796	0.427868
O9	O	1.488434	-0.004703	0.072143
O10	O	1.988434	0.495297	0.572143
O11	O	1.307611	-0.124100	0.072134
O12	O	1.807611	0.375900	0.572134
O13	O	1.672182	-0.113606	0.072138
O14	O	2.172182	0.386394	0.572138
Cu15	Cu	1.488952	-0.119474	0.085309
Cu16	Cu	1.988952	0.380526	0.585309
Cu17	Cu	1.501184	-0.111433	-0.085298
Cu18	Cu	2.001184	0.388567	0.414702
O19	O	1.491358	-0.233004	0.072129
O20	O	1.991358	0.266996	0.572129
C21	C	1.489846	0.027930	0.000012
C22	C	1.989846	0.527930	0.500012
C23	C	1.478627	0.115035	0.000012
C24	C	1.978627	0.615035	0.500012
C25	C	1.265918	-0.119929	0.000003
C26	C	1.765918	0.380071	0.500003
C27	C	1.126276	-0.117622	0.000002
C28	C	1.626276	0.382378	0.500002
C29	C	1.724218	-0.110978	0.000006
C30	C	2.224218	0.389022	0.500006
C31	C	1.863861	-0.113286	0.000001
C32	C	2.363861	0.386714	0.500001
C33	C	2.141882	0.025154	0.000000
C34	C	2.641882	0.525154	0.500000
C35	C	2.084082	0.097627	0.000004
C36	C	2.584082	0.597627	0.500004
C37	C	1.952876	0.099798	0.000008
C38	C	2.452876	0.599798	0.500008
C39	C	1.879466	0.029489	0.000006
C40	C	2.379466	0.529489	0.500006
C41	C	1.937267	-0.042984	0.000001
C42	C	2.437267	0.457016	0.500001
C43	C	2.068476	-0.045147	-0.000000
C44	C	2.568476	0.454853	0.500000
C45	C	1.921661	-0.185758	-0.000003
C46	C	2.421661	0.314242	0.499997
C47	C	2.052866	-0.187931	-0.000001
C48	C	2.552866	0.312069	0.499999
C49	C	1.848252	-0.256067	-0.000006
C50	C	2.348252	0.243933	0.499994
C51	C	1.906051	-0.328542	-0.000004
C52	C	2.406051	0.171458	0.499996
C53	C	2.037265	-0.330710	-0.000007
C54	C	2.537265	0.169290	0.499993
C55	C	2.110666	-0.260403	-0.000005
C56	C	2.610666	0.239597	0.499995
C57	C	1.500290	-0.258837	-0.000003
C58	C	2.000290	0.241163	0.499997
C59	C	1.511510	-0.345942	-0.000009
C60	C	2.011510	0.154058	0.499991
N61	N	1.480358	-0.125129	0.205304
N62	N	1.980358	0.374871	0.705304
C63	C	1.586877	0.164685	0.000014
C64	C	2.086877	0.664685	0.500014
C65	C	1.576329	0.246530	0.000006
C66	C	2.076329	0.746530	0.500006
C67	C	1.457528	0.278722	0.000001
C68	C	1.957528	0.778722	0.500001
C69	C	1.349269	0.229065	-0.000003
C70	C	1.849269	0.729065	0.499997
C71	C	1.359820	0.147223	-0.000001
C72	C	1.859820	0.647223	0.499999
C73	C	1.413802	0.522559	-0.000011
C74	C	1.913802	1.022559	0.499989
C75	C	1.403259	0.604407	-0.000011
C76	C	1.903259	1.104407	0.499989
C77	C	1.630320	0.621867	-0.000003
C78	C	2.130320	1.121867	0.499997
C79	C	1.640859	0.540021	0.000004
C80	C	2.140859	1.040021	0.500004
C81	C	1.532601	0.490372	-0.000005
C82	C	2.032601	0.990372	0.499995
N83	N	1.446742	0.362380	-0.000004
N84	N	1.946742	0.862380	0.499996
N85	N	1.543388	0.406716	-0.000006
N86	N	2.043388	0.906716	0.499994
N87	N	1.509788	-0.105772	-0.205293
N88	N	2.009788	0.394228	0.294707
C89	C	1.557208	-0.074424	0.250701
C90	C	2.057208	0.425576	0.750701
C91	C	1.550721	-0.078708	0.341509
C92	C	2.050721	0.421292	0.841509
C93	C	1.467389	-0.133702	0.386917
C94	C	1.967389	0.366298	0.886917
C95	C	1.390530	-0.184409	0.341513
C96	C	1.890530	0.315591	0.841513
C97	C	1.397012	-0.180121	0.250707
C98	C	1.897012	0.319879	0.750707
C99	C	1.439410	-0.152191	0.658497
C100	C	1.939410	0.347809	1.158497
C101	C	1.432937	-0.156477	0.749309
C102	C	1.932937	0.343523	1.249309
C103	C	1.593127	-0.050775	0.749299
C104	C	2.093127	0.449225	1.249299
C105	C	1.599607	-0.046494	0.658492
C106	C	2.099607	0.453506	1.158492
C107	C	1.522743	-0.097199	0.613095
C108	C	2.022743	0.402801	1.113095
N109	N	1.460759	-0.138084	0.479737
N110	N	1.960759	0.361916	0.979737
N111	N	1.529368	-0.092813	0.520277
N112	N	2.029368	0.407187	1.020277
H113	H	2.248717	0.023394	0.000007
H114	H	2.748717	0.523394	0.500007
C115	C	1.648880	-0.013926	0.200761
C116	C	2.148880	0.486074	0.700761
N117	N	1.717926	0.031645	0.163148
N118	N	2.217926	0.531645	0.663148
C119	C	2.254998	-0.262781	-0.000009
C120	C	2.754998	0.237219	0.499991
N121	N	2.363710	-0.264569	-0.000017
N122	N	2.863710	0.235431	0.499983
H123	H	1.737599	0.513817	0.000007
H124	H	2.237599	1.013817	0.500007
H125	H	1.613298	-0.037420	0.378472
H126	H	2.113298	0.462580	0.878472
C127	C	2.100834	-0.410437	-0.000010
C128	C	2.600834	0.089563	0.499990
N129	N	2.148709	-0.470489	-0.000011
N130	N	2.648709	0.029511	0.499989
H131	H	2.143866	0.154871	0.000004
H132	H	2.643866	0.654871	0.500004
C133	C	1.218586	0.264479	-0.000000
C134	C	1.718586	0.764479	0.500000
N135	N	1.120153	0.291151	0.000008
N136	N	1.620153	0.791151	0.500008
C137	C	1.691272	0.014007	0.608549
C138	C	2.191272	0.514007	1.108549
N139	N	1.760316	0.059577	0.570933
N140	N	2.260316	0.559577	1.070933
H141	H	1.683617	0.138481	0.000023
H142	H	2.183617	0.638481	0.500023
H143	H	1.376827	-0.193478	0.621543
H144	H	1.876827	0.306522	1.121543
H145	H	1.664478	0.286952	0.000009
H146	H	2.164478	0.786952	0.500009
H147	H	1.741418	-0.254294	-0.000008
H148	H	2.241418	0.245706	0.499992
H149	H	1.718457	0.662300	0.000002
H150	H	2.218457	1.162300	0.500002
H151	H	1.306512	0.630614	0.000000
H152	H	1.806512	1.130614	0.500000
H153	H	1.325650	0.482143	-0.000018
H154	H	1.825650	0.982143	0.499982
C155	C	1.677661	0.005003	0.799242
C156	C	2.177661	0.505003	1.299242
N157	N	1.741330	0.047020	0.836860
N158	N	2.241330	0.547020	1.336860
C159	C	1.889294	0.179520	0.000014
C160	C	2.389294	0.679520	0.500014
N161	N	1.841404	0.239568	0.000019
N162	N	2.341404	0.739568	0.500019
H163	H	1.365075	-0.201263	0.786277
H164	H	1.865075	0.298737	1.286277
C165	C	1.735137	0.031881	0.000010
C166	C	2.235137	0.531881	0.500010
N167	N	1.626426	0.033682	0.000017
N168	N	2.126426	0.533682	0.500017
H169	H	1.271670	0.106797	-0.000003
H170	H	1.771670	0.606797	0.499997
H171	H	1.322673	-0.229184	0.378489
H172	H	1.822673	0.270816	0.878489
H173	H	1.334430	-0.221409	0.213745
H174	H	1.834430	0.278591	0.713745
H175	H	1.846272	-0.385781	-0.000011
H176	H	2.346272	0.114219	0.499989
