data_functionalizedCrystal
_audit_creation_method	'MofGen! by Chris Wilmer'
_symmetry_space_group_name_H-M	'P1'
_symmetry_Int_Tables_number	1
_symmetry_cell_setting	triclinic
loop_
_symmetry_equiv_pos_as_xyz
  x,y,z
_cell_length_a	21.295418
_cell_length_b	19.805405
_cell_length_c	19.805399
_cell_angle_alpha	90.029301
_cell_angle_beta	90.037822
_cell_angle_gamma	90.042223
loop_
_atom_site_label
_atom_site_type_symbol
_atom_site_fract_x
_atom_site_fract_y
_atom_site_fract_z
Zn1	Zn	0.962337	-0.269193	0.383041
Zn2	Zn	0.962258	-0.382382	0.269850
Zn3	Zn	0.857071	-0.269243	0.269830
Zn4	Zn	0.857037	-0.382377	0.382960
O5	O	0.909676	-0.325799	0.326420
O6	O	1.050416	-0.284189	0.368068
O7	O	0.948286	-0.367396	0.175130
O8	O	0.871082	-0.174520	0.284873
O9	O	1.050358	-0.367348	0.284907
O10	O	0.948421	-0.174483	0.368049
O11	O	0.871005	-0.284274	0.175116
O12	O	0.768977	-0.284269	0.284795
O13	O	0.871024	-0.367340	0.477688
O14	O	0.768952	-0.367388	0.367911
O15	O	0.948388	-0.284184	0.477747
O16	O	0.948253	-0.477097	0.284828
O17	O	0.870947	-0.477094	0.367930
C18	C	0.909605	-0.501655	0.326387
C19	C	0.909632	-0.576887	0.326396
C20	C	0.746124	-0.325834	0.326342
C21	C	0.676156	-0.325866	0.326325
C22	C	0.949924	-0.612210	0.283170
C23	C	0.949951	-0.682899	0.283185
C24	C	0.909682	-0.718262	0.326423
C25	C	0.869388	-0.682934	0.369654
C26	C	0.869365	-0.612247	0.369642
C27	C	0.869481	-0.968007	0.369704
C28	C	0.869506	-1.038699	0.369711
C29	C	0.950067	-1.038659	0.283247
C30	C	0.950044	-0.967972	0.283235
C31	C	0.909753	-0.932650	0.326468
C32	C	0.909725	-0.856001	0.326452
C33	C	0.909706	-0.794909	0.326436
C34	C	0.643293	-0.369203	0.369539
C35	C	0.577550	-0.369186	0.369569
C36	C	0.544673	-0.325840	0.326374
C37	C	0.577545	-0.282494	0.283157
C38	C	0.643286	-0.282507	0.283132
N39	N	0.441403	-0.320551	0.267174
N40	N	0.378951	-0.320543	0.267199
C41	C	0.346599	-0.325796	0.326446
N42	N	0.379057	-0.331072	0.385667
N43	N	0.441514	-0.331084	0.385642
C44	C	0.473388	-0.325820	0.326396
C45	C	0.242450	-0.369118	0.369696
C46	C	0.176706	-0.369096	0.369728
C47	C	0.176702	-0.282407	0.283309
C48	C	0.242444	-0.282425	0.283283
C49	C	0.275315	-0.325784	0.326476
C50	C	1.073866	-0.325763	0.326499
C51	C	1.143834	-0.325748	0.326532
C52	C	0.909711	-0.325756	0.502963
C53	C	0.909726	-0.325738	0.578195
C54	C	0.909764	-0.149256	0.326468
C55	C	0.909802	-0.074024	0.326488
C56	C	0.909677	-0.325792	0.150564
C57	C	0.909784	-0.325620	0.075333
C58	C	0.950010	-0.282437	0.613571
C59	C	0.950017	-0.282417	0.684260
C60	C	0.909742	-0.325702	0.719571
C61	C	0.869453	-0.369006	0.684190
C62	C	0.869444	-0.369021	0.613502
C63	C	0.869489	-0.368943	0.969263
C64	C	0.869502	-0.368925	1.039955
C65	C	0.950061	-0.282338	1.040020
C66	C	0.950052	-0.282354	0.969333
C67	C	0.909762	-0.325654	0.933958
C68	C	0.909754	-0.325674	0.857310
C69	C	0.909752	-0.325686	0.796218
H70	H	0.982713	-0.583422	0.247958
H71	H	0.269202	-0.247139	0.248090
H72	H	0.982866	-0.247078	1.068831
O73	O	0.830258	-0.578004	0.411726
C74	C	0.843998	-0.595204	0.479206
H75	H	0.868209	-0.646500	0.480648
H76	H	0.798553	-0.597651	0.509499
H77	H	0.876341	-0.555370	0.502037
H78	H	0.982809	-0.247190	0.584826
H79	H	0.269214	-0.404420	0.404870
H80	H	0.149950	-0.404386	0.404922
H81	H	0.836703	-0.404174	1.068703
H82	H	0.982821	-0.247158	0.713060
H83	H	0.982760	-0.711656	0.247986
O84	O	0.989195	-0.240242	0.935138
C85	C	1.024763	-0.202029	0.981520
H86	H	0.998989	-0.199680	1.031896
H87	H	1.031500	-0.148703	0.961115
H88	H	1.072562	-0.226802	0.989056
H89	H	0.836691	-0.404210	0.940469
O90	O	0.675289	-0.411220	0.411537
C91	C	0.713374	-0.372747	0.455323
H92	H	0.723248	-0.321425	0.431539
H93	H	0.759587	-0.400338	0.464334
H94	H	0.688086	-0.365368	0.505501
H95	H	0.550788	-0.404477	0.404762
H96	H	0.836658	-0.404247	0.712945
O97	O	0.830370	-1.072948	0.411783
C98	C	0.794793	-1.026615	0.449929
H99	H	0.820557	-0.976194	0.452300
H100	H	0.788062	-1.047015	0.503251
H101	H	0.746992	-1.019170	0.425083
H102	H	0.149934	-0.247110	0.248141
O103	O	0.989221	-0.933725	0.241213
C104	C	1.024780	-0.980061	0.203052
H105	H	1.026960	-1.030429	0.230785
H106	H	1.074374	-0.959584	0.195898
H107	H	1.001761	-0.987639	0.151615
O108	O	0.830300	-0.411157	0.579240
C109	C	0.794747	-0.449351	0.625562
H110	H	0.820533	-0.451670	0.675967
H111	H	0.788012	-0.502688	0.605122
H112	H	0.746947	-0.424582	0.633055
O113	O	0.989202	-1.073077	0.241329
C114	C	0.980587	-1.143050	0.250604
H115	H	0.959934	-1.152692	0.302808
H116	H	1.027756	-1.169854	0.246097
H117	H	0.947107	-1.163188	0.210407
H118	H	0.670043	-0.247214	0.247942
H119	H	0.836674	-0.939253	0.404904
O120	O	0.830291	-0.717388	0.411592
C121	C	0.838960	-0.787354	0.402345
H122	H	0.859608	-0.797019	0.350140
H123	H	0.791813	-0.814269	0.406876
H124	H	0.872465	-0.807349	0.442541
O125	O	0.545584	-0.240486	0.241120
C126	C	0.507475	-0.278959	0.197357
H127	H	0.527239	-0.332266	0.193076
H128	H	0.506705	-0.254413	0.145312
H129	H	0.457667	-0.281308	0.218294
