data_functionalizedCrystal
_audit_creation_method	'MofGen! by Chris Wilmer'
_symmetry_space_group_name_H-M	'P1'
_symmetry_Int_Tables_number	1
_symmetry_cell_setting	triclinic
loop_
_symmetry_equiv_pos_as_xyz
  x,y,z
_cell_length_a	26.455835
_cell_length_b	26.455273
_cell_length_c	26.451828
_cell_angle_alpha	60.005170
_cell_angle_beta	60.010757
_cell_angle_gamma	59.993435
loop_
_atom_site_label
_atom_site_type_symbol
_atom_site_fract_x
_atom_site_fract_y
_atom_site_fract_z
O1	O	0.069940	-0.738516	0.617604
O2	O	0.569940	-0.238516	1.117604
O3	O	0.026299	-0.574986	0.497618
O4	O	0.526299	-0.074986	0.997618
O5	O	0.129847	-0.678463	0.497546
O6	O	0.629847	-0.178463	0.997546
O7	O	-0.033607	-0.635040	0.617676
O8	O	0.466393	-0.135040	1.117676
O9	O	0.164197	-0.644116	0.531822
O10	O	0.664197	-0.144116	1.031822
O11	O	0.060649	-0.540639	0.531894
O12	O	0.560649	-0.040639	1.031894
O13	O	0.104290	-0.704170	0.651880
O14	O	0.604290	-0.204170	1.151880
Cu15	Cu	0.085606	-0.619268	0.595016
Cu16	Cu	0.585606	-0.119268	1.095016
Cu17	Cu	0.044984	-0.659887	0.554481
Cu18	Cu	0.544984	-0.159887	1.054481
O19	O	0.000742	-0.600693	0.651952
O20	O	0.500742	-0.100693	1.151952
N21	N	0.114179	-0.590703	0.623530
N22	N	0.614179	-0.090703	1.123530
N23	N	0.016416	-0.688458	0.525968
N24	N	0.516416	-0.188458	1.025968
C25	C	0.157553	-0.547535	0.933368
C26	C	0.657553	-0.047535	1.433368
C27	C	0.424104	-0.547506	0.666656
C28	C	0.924104	-0.047506	1.166656
C29	C	0.157413	-0.547503	0.666729
C30	C	0.657413	-0.047503	1.166729
C31	C	0.157397	-0.280846	0.666749
C32	C	0.657397	0.219154	1.166749
C33	C	0.200330	-0.409550	0.709625
C34	C	0.700330	0.090450	1.209625
C35	C	0.200339	-0.504608	0.709615
C36	C	0.700339	-0.004608	1.209615
C37	C	0.224118	-0.480848	0.733375
C38	C	0.724118	0.019152	1.233375
C39	C	0.327800	-0.462984	0.678792
C40	C	0.827800	0.037016	1.178792
C41	C	0.392611	-0.484588	0.657175
C42	C	0.892611	0.015412	1.157175
C43	C	0.392630	-0.589450	0.697162
C44	C	0.892630	-0.089450	1.197162
C45	C	0.327821	-0.567844	0.718781
C46	C	0.827821	-0.067844	1.218781
C47	C	0.215955	-0.377135	0.645910
C48	C	0.715955	0.122865	1.145910
C49	C	0.194327	-0.312320	0.624323
C50	C	0.694327	0.187680	1.124323
C51	C	0.141457	-0.312339	0.730169
C52	C	0.641457	0.187661	1.230169
C53	C	0.163084	-0.377154	0.751756
C54	C	0.663084	0.122846	1.251756
C55	C	0.136618	-0.488954	0.725292
C56	C	0.636618	0.011046	1.225292
C57	C	0.115007	-0.510553	0.703686
C58	C	0.615007	-0.010553	1.203686
C59	C	0.220833	-0.563461	0.650740
C60	C	0.720833	-0.063461	1.150740
C61	C	0.242447	-0.541861	0.672339
C62	C	0.742447	-0.041861	1.172339
C63	C	0.136680	-0.488971	0.837094
C64	C	0.636680	0.011029	1.337094
C65	C	0.115112	-0.510589	0.901907
C66	C	0.615112	-0.010589	1.401907
C67	C	0.220969	-0.563508	0.901868
C68	C	0.720969	-0.063508	1.401868
C69	C	0.242535	-0.541892	0.837053
C70	C	0.742535	-0.041892	1.337053
C71	C	0.200389	-0.504622	0.804668
C72	C	0.700389	-0.004622	1.304668
C73	C	0.295409	-0.504610	0.709593
C74	C	0.795409	-0.004610	1.209593
C75	C	0.132990	-0.570876	1.004655
C76	C	0.632990	-0.070876	1.504655
C77	C	0.495389	-0.570440	0.642547
C78	C	0.995389	-0.070440	1.142547
C79	C	0.132802	-0.570856	0.643399
C80	C	0.632802	-0.070856	1.143399
C81	C	0.133212	-0.209553	0.643833
C82	C	0.633212	0.290447	1.143833
C83	C	-0.097217	-0.706972	0.506986
C84	C	0.402783	-0.206972	1.006986
C85	C	-0.002040	-0.707108	0.412067
C86	C	0.497960	-0.207108	0.912067
C87	C	-0.002230	-0.802124	0.507163
C88	C	0.497770	-0.302124	1.007163
C89	C	-0.002214	-0.707101	0.507221
C90	C	0.497786	-0.207101	1.007221
C91	C	-0.025925	-0.730827	0.483360
C92	C	0.474075	-0.230827	0.983360
N93	N	0.553723	-0.590712	0.623415
N94	N	1.053723	-0.090712	1.123415
O95	O	0.751638	-0.596429	0.475603
O96	O	1.251638	-0.096429	0.975603
O97	O	0.751819	-0.716773	0.638980
O98	O	1.251819	-0.216773	1.138980
O99	O	0.751753	-0.716500	0.535361
O100	O	1.251753	-0.216500	1.035361
O101	O	0.751705	-0.596703	0.579222
O102	O	1.251705	-0.096703	1.079222
O103	O	0.648791	-0.682239	0.569747
O104	O	1.148791	-0.182239	1.069747
O105	O	0.648858	-0.682512	0.673366
O106	O	1.148858	-0.182512	1.173366
O107	O	0.648676	-0.562169	0.509989
O108	O	1.148676	-0.062169	1.009989
Cu109	Cu	0.639366	-0.619212	0.594817
Cu110	Cu	1.139366	-0.119212	1.094817
Cu111	Cu	0.761130	-0.659729	0.554152
Cu112	Cu	1.261130	-0.159729	1.054152
O113	O	0.648743	-0.562442	0.613609
O114	O	1.148743	-0.062442	1.113609
N115	N	0.846773	-0.688230	0.525548
N116	N	1.346773	-0.188230	1.025548
N117	N	0.114157	-0.151217	0.623565
N118	N	0.614157	0.348783	1.123565
O119	O	-0.033591	0.046803	0.617717
O120	O	0.466409	0.546803	1.117717
O121	O	0.129795	0.046806	0.497390
O122	O	0.629795	0.546806	0.997390
O123	O	0.026157	0.046789	0.497680
O124	O	0.526157	0.546789	0.997680
O125	O	0.070046	0.046819	0.617427
O126	O	0.570046	0.546819	1.117427
O127	O	0.060509	-0.056181	0.532004
O128	O	0.560509	0.443819	1.032004
O129	O	0.164146	-0.056164	0.531714
O130	O	0.664146	0.443836	1.031714
O131	O	0.000760	-0.056167	0.652041
O132	O	0.500760	0.443833	1.152041
Cu133	Cu	0.085590	-0.065568	0.595012
Cu134	Cu	0.585590	0.434432	1.095012
Cu135	Cu	0.044965	0.056206	0.554419
Cu136	Cu	0.544965	0.556206	1.054419
O137	O	0.104397	-0.056151	0.651751
O138	O	0.604397	0.443849	1.151751
N139	N	0.016390	0.141855	0.525867
N140	N	0.516390	0.641855	1.025867
N141	N	0.114410	-0.590756	1.062992
N142	N	0.614410	-0.090756	1.562992
O143	O	0.108565	-0.738494	1.260998
O144	O	0.608565	-0.238494	1.760998
O145	O	-0.011747	-0.575059	1.261012
O146	O	0.488253	-0.075059	1.761012
O147	O	-0.011470	-0.678679	1.260970
O148	O	0.488530	-0.178679	1.760970
O149	O	0.108287	-0.634874	1.261040
O150	O	0.608287	-0.134874	1.761040
O151	O	0.022849	-0.644347	1.158004
O152	O	0.522849	-0.144347	1.658004
O153	O	0.022572	-0.540726	1.158046
O154	O	0.522572	-0.040726	1.658046
O155	O	0.142884	-0.704162	1.158033
O156	O	0.642884	-0.204162	1.658033
Cu157	Cu	0.085861	-0.619309	1.148638
Cu158	Cu	0.585861	-0.119309	1.648638
Cu159	Cu	0.045275	-0.659911	1.270406
Cu160	Cu	0.545275	-0.159911	1.770406
O161	O	0.142606	-0.600541	1.158074
O162	O	0.642606	-0.100541	1.658074
N163	N	0.016726	-0.688471	1.356052
N164	N	0.516726	-0.188471	1.856052
C165	C	0.039385	-0.537207	0.498225
C166	C	0.539385	-0.037207	0.998225
C167	C	0.167616	-0.665350	0.498136
C168	C	0.667616	-0.165350	0.998136
C169	C	0.091204	-0.741950	0.651272
C170	C	0.591204	-0.241950	1.151272
C171	C	-0.037027	-0.613806	0.651361
C172	C	0.462973	-0.113806	1.151361
C173	C	0.700360	-0.716215	0.676756
C174	C	1.200360	-0.216215	1.176756
C175	C	0.700279	-0.715877	0.548436
C176	C	1.200279	-0.215877	1.048436
C177	C	0.700133	-0.562725	0.472214
C178	C	1.200133	-0.062725	0.972214
C179	C	0.700218	-0.563065	0.600533
C180	C	1.200218	-0.063065	1.100533
C181	C	0.167511	-0.004552	0.497940
C182	C	0.667511	0.495448	0.997940
C183	C	0.039211	-0.004699	0.498341
C184	C	0.539211	0.495301	0.998341
C185	C	-0.036999	-0.004682	0.651449
C186	C	0.463001	0.495318	1.151449
C187	C	0.091344	-0.004663	0.651090
C188	C	0.591344	0.495337	1.151090
C189	C	-0.011156	-0.537302	1.209530
C190	C	0.488844	-0.037302	1.709530
C191	C	-0.010806	-0.665617	1.209458
C192	C	0.489194	-0.165617	1.709458
C193	C	0.142293	-0.741918	1.209514
C194	C	0.642293	-0.241918	1.709514
C195	C	0.141950	-0.613596	1.209563
C196	C	0.641950	-0.113596	1.709563
H197	H	0.102355	-0.458618	0.810728
H198	H	0.602355	0.041382	1.310728
H199	H	-0.083922	-0.004684	0.689225
H200	H	0.416078	0.495316	1.189225
C201	C	-0.099656	-0.601546	0.701645
C202	C	0.400344	-0.101546	1.201645
C203	C	-0.126874	-0.643777	0.718139
C204	C	0.373126	-0.143777	1.218139
C205	C	-0.184572	-0.632496	0.764452
C206	C	0.315428	-0.132496	1.264452
H207	H	-0.094334	-0.606212	0.736875
H208	H	0.405666	-0.106212	1.236875
H209	H	-0.125659	-0.560578	0.686635
H210	H	0.374341	-0.060578	1.186635
H211	H	-0.100877	-0.684735	0.733151
H212	H	0.399123	-0.184735	1.233151
H213	H	-0.132212	-0.639118	0.682922
H214	H	0.367788	-0.139118	1.182922
H215	H	-0.210575	-0.591528	0.749442
H216	H	0.289425	-0.091528	1.249442
H217	H	-0.179244	-0.637162	0.799678
H218	H	0.320756	-0.137162	1.299678
H219	H	-0.203049	-0.661144	0.775645
H220	H	0.296951	-0.161144	1.275645
H221	H	0.700208	-0.525435	0.609919
H222	H	1.200208	-0.025435	1.109919
C223	C	0.700026	-0.512253	0.409704
C224	C	1.200026	-0.012253	0.909704
C225	C	0.699977	-0.459349	0.409794
C226	C	1.199977	0.040651	0.909794
C227	C	0.699870	-0.412839	0.352224
C228	C	1.199870	0.087161	0.852224
H229	H	0.735909	-0.526340	0.378133
H230	H	1.235909	-0.026340	0.878133
H231	H	0.664094	-0.502493	0.402166
H232	H	1.164094	-0.002493	0.902166
H233	H	0.735905	-0.469108	0.417325
H234	H	1.235905	0.030892	0.917325
H235	H	0.664097	-0.445243	0.441353
H236	H	1.164097	0.054757	0.941353
H237	H	0.663938	-0.403079	0.344686
H238	H	1.163938	0.096921	0.844686
H239	H	0.735754	-0.426932	0.320658
H240	H	1.235754	0.073068	0.820658
H241	H	0.699831	-0.376937	0.352280
H242	H	1.199831	0.123063	0.852280
C243	C	0.026675	-0.004587	0.448119
C244	C	0.526675	0.495413	0.948119
C245	C	0.033479	0.048391	0.396303
C246	C	0.533479	0.548391	0.896303
C247	C	0.021924	0.048516	0.350034
C248	C	0.521924	0.548516	0.850034
H249	H	0.055217	-0.040457	0.436771
H250	H	0.555217	0.459543	0.936771
H251	H	-0.014330	-0.004559	0.463228
H252	H	0.485670	0.495441	0.963228
H253	H	0.074477	0.048357	0.381197
H254	H	0.574477	0.548357	0.881197
H255	H	0.004938	0.084269	0.407631
H256	H	0.504938	0.584269	0.907631
H257	H	-0.019081	0.048545	0.365142
H258	H	0.480919	0.548545	0.865142
H259	H	0.050467	0.012644	0.338691
H260	H	0.550467	0.512644	0.838691
H261	H	0.026533	0.084464	0.314874
H262	H	0.526533	0.584464	0.814874
C263	C	0.229976	-0.004135	0.447507
C264	C	0.729976	0.495865	0.947507
C265	C	0.268157	-0.003992	0.469640
C266	C	0.768157	0.496008	0.969640
C267	C	0.325701	-0.003599	0.423196
C268	C	0.825701	0.496401	0.923196
H269	H	0.248724	-0.039954	0.436061
H270	H	0.748724	0.460046	0.936061
H271	H	0.224362	0.031865	0.412435
H272	H	0.724362	0.531865	0.912435
H273	H	0.273773	-0.039988	0.504701
H274	H	0.773773	0.460012	1.004701
H275	H	0.249429	0.031825	0.481081
H276	H	0.749429	0.531825	0.981081
H277	H	0.320087	0.032401	0.388124
H278	H	0.820087	0.532401	0.888124
H279	H	0.344443	-0.039419	0.411753
H280	H	0.844443	0.460581	0.911753
H281	H	0.351612	-0.003496	0.438205
H282	H	0.851612	0.496504	0.938205
H283	H	0.179573	-0.604224	1.209577
H284	H	0.679573	-0.104224	1.709577
C285	C	0.192685	-0.804508	1.209606
C286	C	0.692685	-0.304508	1.709606
C287	C	0.209156	-0.831674	1.262582
C288	C	0.709156	-0.331674	1.762582
C289	C	0.255581	-0.889327	1.262682
C290	C	0.755581	-0.389327	1.762682
H291	H	0.177803	-0.830587	1.209619
H292	H	0.677803	-0.330587	1.709619
H293	H	0.227894	-0.799109	1.173725
H294	H	0.727894	-0.299109	1.673725
H295	H	0.173954	-0.837076	1.298453
H296	H	0.673954	-0.337076	1.798453
H297	H	0.224049	-0.805613	1.262579
H298	H	0.724049	-0.305613	1.762579
H299	H	0.290790	-0.883928	1.226802
H300	H	0.790790	-0.383928	1.726802
H301	H	0.240694	-0.915400	1.262695
H302	H	0.740694	-0.415400	1.762695
H303	H	0.266766	-0.907764	1.298623
H304	H	0.766766	-0.407764	1.798623
H305	H	0.700298	-0.753510	0.539047
H306	H	1.200298	-0.253510	1.039047
H307	H	0.100739	-0.004653	0.688708
H308	H	0.600739	0.495347	1.188708
H309	H	0.100526	-0.788925	0.688956
H310	H	0.600526	-0.288925	1.188956
C311	C	0.700525	-0.766683	0.739259
C312	C	1.200525	-0.266683	1.239259
C313	C	0.753517	-0.818442	0.731059
C314	C	1.253517	-0.318442	1.231059
C315	C	0.753687	-0.864948	0.788621
C316	C	1.253687	-0.364948	1.288621
H317	H	0.700564	-0.751815	0.765323
H318	H	1.200564	-0.251815	1.265323
H319	H	0.664658	-0.777997	0.757801
H320	H	1.164658	-0.277997	1.257801
H321	H	0.789375	-0.807129	0.712527
H322	H	1.289375	-0.307129	1.212527
H323	H	0.753489	-0.833328	0.705006
H324	H	1.253489	-0.333328	1.205006
H325	H	0.717820	-0.876261	0.807163
H326	H	1.217820	-0.376261	1.307163
H327	H	0.753724	-0.850073	0.814681
H328	H	1.253724	-0.350073	1.314681
H329	H	0.789638	-0.900073	0.783065
H330	H	1.289638	-0.400073	1.283065
C331	C	0.026832	-0.474543	0.448042
C332	C	0.526832	0.025457	0.948042
C333	C	-0.033601	-0.436455	0.470390
C334	C	0.466399	0.063545	0.970390
C335	C	-0.045190	-0.378729	0.424176
C336	C	0.454810	0.121271	0.924176
H337	H	0.055362	-0.455877	0.436725
H338	H	0.555362	0.044123	0.936725
H339	H	0.031424	-0.479888	0.412852
H340	H	0.531424	0.020112	0.912852
H341	H	-0.038188	-0.431109	0.505570
H342	H	0.461812	0.068891	1.005570
H343	H	-0.062144	-0.455102	0.481703
H344	H	0.437856	0.044898	0.981703
H345	H	-0.040597	-0.384074	0.388986
H346	H	0.459403	0.115926	0.888986
H347	H	-0.016657	-0.360068	0.412862
H348	H	0.483343	0.139932	0.912862
H349	H	-0.086196	-0.352881	0.439331
H350	H	0.413804	0.147119	0.939331
H351	H	-0.048413	-0.674973	1.209396
H352	H	0.451587	-0.174973	1.709396
H353	H	-0.048928	-0.490363	1.209534
H354	H	0.451072	0.009637	1.709534
C355	C	0.045913	-0.493491	0.936994
C356	C	0.545913	0.006509	1.436994
C357	C	0.013625	-0.456211	0.894756
C358	C	0.513625	0.043789	1.394756
C359	C	-0.050120	-0.440443	0.927057
C360	C	0.449880	0.059557	1.427057
H361	H	0.035210	-0.530087	0.962279
H362	H	0.535210	-0.030087	1.462279
H363	H	0.035274	-0.471474	0.962265
H364	H	0.535274	0.028526	1.462265
H365	H	0.024259	-0.478228	0.869495
H366	H	0.524259	0.021772	1.369495
H367	H	0.024309	-0.419607	0.869470
H368	H	0.524309	0.080393	1.369470
H369	H	-0.060759	-0.418426	0.952328
H370	H	0.439241	0.081574	1.452328
H371	H	-0.060817	-0.477042	0.952340
H372	H	0.439183	0.022958	1.452340
H373	H	-0.072036	-0.415142	0.898403
H374	H	0.427964	0.084858	1.398403
C375	C	0.230209	-0.677805	0.447855
C376	C	0.730209	-0.177805	0.947855
C377	C	0.241154	-0.727575	0.433712
C378	C	0.741154	-0.227575	0.933712
C379	C	0.298812	-0.739071	0.387402
C380	C	0.798812	-0.239071	0.887402
H381	H	0.230388	-0.642021	0.411830
H382	H	0.730388	-0.142021	0.911830
H383	H	0.261720	-0.687638	0.462068
H384	H	0.761720	-0.187638	0.962068
H385	H	0.209651	-0.717738	0.419497
H386	H	0.709651	-0.217738	0.919497
H387	H	0.240987	-0.763368	0.469723
H388	H	0.740987	-0.263368	0.969723
H389	H	0.330323	-0.748904	0.401614
H390	H	0.830323	-0.248904	0.901614
H391	H	0.298986	-0.703283	0.351381
H392	H	0.798986	-0.203283	0.851381
H393	H	0.306248	-0.772844	0.377803
H394	H	0.806248	-0.272844	0.877803
C395	C	0.266758	-0.604062	0.936991
C396	C	0.766758	-0.104062	1.436991
C397	C	0.303934	-0.658025	0.921219
C398	C	0.803934	-0.158025	1.421219
C399	C	0.346119	-0.695402	0.953568
C400	C	0.846119	-0.195402	1.453568
H401	H	0.292094	-0.582146	0.926388
H402	H	0.792094	-0.082146	1.426388
H403	H	0.244816	-0.614738	0.980241
H404	H	0.744816	-0.114738	1.480241
H405	H	0.325875	-0.647349	0.877979
H406	H	0.825875	-0.147349	1.377979
H407	H	0.278615	-0.679957	0.931824
H408	H	0.778615	-0.179957	1.431824
H409	H	0.324177	-0.706078	0.996818
H410	H	0.824177	-0.206078	1.496818
H411	H	0.371451	-0.673481	0.942962
H412	H	0.871451	-0.173481	1.442962
H413	H	0.371344	-0.732022	0.942876
H414	H	0.871344	-0.232022	1.442876
C415	C	0.045818	-0.493652	0.720828
C416	C	0.545818	0.006348	1.220828
C417	C	0.019185	-0.515718	0.785299
C418	C	0.519185	-0.015718	1.285299
C419	C	-0.044548	-0.500170	0.801114
C420	C	0.455452	-0.000170	1.301114
H421	H	0.027515	-0.449930	0.705998
H422	H	0.527515	0.050070	1.205998
H423	H	0.038956	-0.511871	0.702659
H424	H	0.538956	-0.011871	1.202659
H425	H	0.026042	-0.497497	0.803461
H426	H	0.526042	0.002503	1.303461
H427	H	0.037470	-0.559439	0.800144
H428	H	0.537470	-0.059439	1.300144
H429	H	-0.051411	-0.518389	0.782944
H430	H	0.448589	-0.018389	1.282944
H431	H	-0.062845	-0.456448	0.786280
H432	H	0.437155	0.043552	1.286280
H433	H	-0.062626	-0.515145	0.844858
H434	H	0.437374	-0.015145	1.344858
C435	C	0.266650	-0.603878	0.610255
C436	C	0.766650	-0.103878	1.110255
C437	C	0.327078	-0.612950	0.601145
C438	C	0.827078	-0.112950	1.101145
C439	C	0.369302	-0.650172	0.563845
C440	C	0.869302	-0.150172	1.063845
H441	H	0.260518	-0.642760	0.629989
H442	H	0.760518	-0.142760	1.129989
H443	H	0.260440	-0.584082	0.571390
H444	H	0.760440	-0.084082	1.071390
H445	H	0.333286	-0.632747	0.640002
H446	H	0.833286	-0.132747	1.140002
H447	H	0.333230	-0.574079	0.581404
H448	H	0.833230	-0.074079	1.081404
H449	H	0.363092	-0.630376	0.524980
H450	H	0.863092	-0.130376	1.024980
H451	H	0.363165	-0.689051	0.583583
H452	H	0.863165	-0.189051	1.083583
H453	H	0.410307	-0.656328	0.557654
H454	H	0.910307	-0.156328	1.057654
H455	H	0.294416	-0.554643	0.810656
H456	H	0.794416	-0.054643	1.310656
H457	H	0.102328	-0.458621	0.755642
H458	H	0.602328	0.041379	1.255642
H459	H	0.301449	-0.601745	0.743862
H460	H	0.801449	-0.101745	1.243862
C461	C	0.427750	-0.658108	0.707086
C462	C	0.927750	-0.158108	1.207086
C463	C	0.411958	-0.677706	0.678180
C464	C	0.911958	-0.177706	1.178180
C465	C	0.444291	-0.740950	0.687315
C466	C	0.944291	-0.240950	1.187315
H467	H	0.470996	-0.665091	0.689798
H468	H	0.970996	-0.165091	1.189798
H469	H	0.417138	-0.680735	0.750184
H470	H	0.917138	-0.180735	1.250184
H471	H	0.422574	-0.655086	0.635090
H472	H	0.922574	-0.155086	1.135090
H473	H	0.368717	-0.670739	0.695462
H474	H	0.868717	-0.170739	1.195462
H475	H	0.433680	-0.763576	0.730413
H476	H	0.933680	-0.263576	1.230413
H477	H	0.487536	-0.747927	0.670026
H478	H	0.987536	-0.247927	1.170026
H479	H	0.433577	-0.754256	0.667709
H480	H	0.933577	-0.254256	1.167709
C481	C	0.427669	-0.439291	0.623718
C482	C	0.927669	0.060709	1.123718
C483	C	0.385411	-0.379287	0.620284
C484	C	0.885411	0.120713	1.120284
C485	C	0.417686	-0.337542	0.589460
C486	C	0.917686	0.162458	1.089460
H487	H	0.452969	-0.450053	0.645754
H488	H	0.952969	0.049947	1.145754
H489	H	0.452923	-0.440909	0.583094
H490	H	0.952923	0.059091	1.083094
H491	H	0.360168	-0.377671	0.660901
H492	H	0.860168	0.122329	1.160901
H493	H	0.360111	-0.368506	0.598244
H494	H	0.860111	0.131494	1.098244
H495	H	0.442940	-0.339160	0.548836
H496	H	0.942940	0.160840	1.048836
H497	H	0.442984	-0.348309	0.611499
H498	H	0.942984	0.151691	1.111499
H499	H	0.389019	-0.296824	0.587121
H500	H	0.889019	0.203176	1.087121
H501	H	0.301415	-0.411495	0.671309
H502	H	0.801415	0.088505	1.171309
C503	C	0.256356	-0.412198	0.600073
C504	C	0.756356	0.087802	1.100073
C505	C	0.265389	-0.369935	0.539652
C506	C	0.765389	0.130065	1.039652
C507	C	0.302596	-0.402212	0.497409
C508	C	0.802596	0.097788	0.997409
H509	H	0.295248	-0.437483	0.606201
H510	H	0.795248	0.062517	1.106201
H511	H	0.236567	-0.437469	0.606271
H512	H	0.736567	0.062531	1.106271
H513	H	0.285179	-0.344675	0.533457
H514	H	0.785179	0.155325	1.033457
H515	H	0.226509	-0.344649	0.533505
H516	H	0.726509	0.155351	1.033505
H517	H	0.282807	-0.427483	0.503607
H518	H	0.782807	0.072517	1.003607
H519	H	0.341485	-0.427496	0.503542
H520	H	0.841485	0.072504	1.003542
H521	H	0.308725	-0.373542	0.456408
H522	H	0.808725	0.126458	0.956408
H523	H	0.294333	-0.554601	0.659567
H524	H	0.794333	-0.054601	1.159567
H525	H	0.111138	-0.285961	0.764475
H526	H	0.611138	0.214039	1.264475
C527	C	0.211164	-0.277089	0.555149
C528	C	0.711164	0.222911	1.055149
C529	C	0.157037	-0.239889	0.539672
C530	C	0.657037	0.260111	1.039672
C531	C	0.172524	-0.207432	0.475955
C532	C	0.672524	0.292568	0.975955
H533	H	0.233124	-0.251753	0.544449
H534	H	0.733124	0.248247	1.044449
H535	H	0.236419	-0.305645	0.533126
H536	H	0.736419	0.194355	1.033126
H537	H	0.131792	-0.211336	0.561688
H538	H	0.631792	0.288664	1.061688
H539	H	0.135070	-0.265209	0.550357
H540	H	0.635070	0.234791	1.050357
H541	H	0.197779	-0.235989	0.453932
H542	H	0.697779	0.264011	0.953932
H543	H	0.194485	-0.182100	0.465261
H544	H	0.694485	0.317900	0.965261
H545	H	0.135802	-0.182193	0.465445
H546	H	0.635802	0.317807	0.965445
H547	H	0.150353	-0.403547	0.803641
H548	H	0.650353	0.096453	1.303641
