data_functionalizedCrystal
_audit_creation_method	'MofGen! by Chris Wilmer'
_symmetry_space_group_name_H-M	'P1'
_symmetry_Int_Tables_number	1
_symmetry_cell_setting	triclinic
loop_
_symmetry_equiv_pos_as_xyz
  x,y,z
_cell_length_a	14.044191
_cell_length_b	14.044220
_cell_length_c	7.540329
_cell_angle_alpha	89.995368
_cell_angle_beta	89.999427
_cell_angle_gamma	93.190327
loop_
_atom_site_label
_atom_site_type_symbol
_atom_site_fract_x
_atom_site_fract_y
_atom_site_fract_z
O1	O	1.277170	0.230198	-0.147405
O2	O	1.527170	0.480198	0.102595
O3	O	1.777170	0.730198	0.352595
O4	O	2.027170	0.980198	0.602595
O5	O	1.000498	0.221886	-0.147427
O6	O	1.250498	0.471886	0.102573
O7	O	1.500498	0.721886	0.352573
O8	O	1.750498	0.971886	0.602573
O9	O	1.134681	0.087706	-0.147398
O10	O	1.384681	0.337706	0.102602
O11	O	1.634681	0.587706	0.352602
O12	O	1.884681	0.837706	0.602602
O13	O	1.142987	0.364378	-0.147433
O14	O	1.392987	0.614378	0.102567
O15	O	1.642987	0.864378	0.352567
O16	O	1.892987	1.114378	0.602567
O17	O	1.134672	0.087704	0.147567
O18	O	1.384672	0.337704	0.397567
O19	O	1.634672	0.587704	0.647567
O20	O	1.884672	0.837704	0.897567
O21	O	1.000489	0.221883	0.147538
O22	O	1.250489	0.471883	0.397538
O23	O	1.500489	0.721883	0.647538
O24	O	1.750489	0.971883	0.897538
O25	O	1.277162	0.230196	0.147560
O26	O	1.527162	0.480196	0.397560
O27	O	1.777162	0.730196	0.647560
O28	O	2.027162	0.980196	0.897560
Cu29	Cu	1.138824	0.226039	0.174482
Cu30	Cu	1.388824	0.476039	0.424482
Cu31	Cu	1.638824	0.726039	0.674482
Cu32	Cu	1.888824	0.976039	0.924482
Cu33	Cu	1.138835	0.226042	-0.174348
Cu34	Cu	1.388835	0.476042	0.075652
Cu35	Cu	1.638835	0.726042	0.325652
Cu36	Cu	1.888835	0.976042	0.575652
O37	O	1.142978	0.364375	0.147532
O38	O	1.392978	0.614375	0.397532
O39	O	1.642978	0.864375	0.647532
O40	O	1.892978	1.114375	0.897532
C41	C	0.964872	0.218248	0.000053
C42	C	1.214872	0.468248	0.250053
C43	C	1.464872	0.718248	0.500053
C44	C	1.714872	0.968248	0.750053
C45	C	0.858728	0.207401	0.000045
C46	C	1.108728	0.457401	0.250045
C47	C	1.358728	0.707401	0.500045
C48	C	1.608728	0.957401	0.750045
C49	C	0.613270	0.264501	0.000056
C50	C	0.863270	0.514501	0.250056
C51	C	1.113270	0.764501	0.500056
C52	C	1.363270	1.014501	0.750056
C53	C	0.664395	0.187585	0.000062
C54	C	0.914395	0.437585	0.250062
C55	C	1.164395	0.687585	0.500062
C56	C	1.414395	0.937585	0.750062
C57	C	0.772532	0.198613	0.000053
C58	C	1.022532	0.448613	0.250053
C59	C	1.272532	0.698613	0.500053
C60	C	1.522532	0.948613	0.750053
C61	C	0.505123	0.253474	0.000065
C62	C	0.755123	0.503474	0.250065
C63	C	1.005123	0.753474	0.500065
C64	C	1.255123	1.003474	0.750065
C65	C	1.131041	0.052083	0.000085
C66	C	1.381041	0.302083	0.250085
C67	C	1.631041	0.552083	0.500085
C68	C	1.881041	0.802083	0.750085
C69	C	1.120197	-0.054060	0.000086
C70	C	1.370197	0.195940	0.250086
C71	C	1.620197	0.445940	0.500086
C72	C	1.870197	0.695940	0.750086
C73	C	1.100370	-0.248398	0.000059
C74	C	1.350370	0.001602	0.250059
C75	C	1.600370	0.251602	0.500059
C76	C	1.850370	0.501602	0.750059
C77	C	1.177285	-0.299526	0.000059
C78	C	1.427285	-0.049526	0.250059
C79	C	1.677285	0.200474	0.500059
C80	C	1.927285	0.450474	0.750059
C81	C	1.166253	-0.407663	0.000044
C82	C	1.416253	-0.157663	0.250044
C83	C	1.666253	0.092337	0.500044
C84	C	1.916253	0.342337	0.750044
C85	C	1.111400	-0.140252	0.000074
C86	C	1.361400	0.109748	0.250074
C87	C	1.611400	0.359748	0.500074
C88	C	1.861400	0.609748	0.750074
C89	C	1.312788	0.233834	0.000077
C90	C	1.562788	0.483834	0.250077
C91	C	1.812788	0.733834	0.500077
C92	C	2.062788	0.983834	0.750077
C93	C	1.418931	0.244681	0.000073
C94	C	1.668931	0.494681	0.250073
C95	C	1.918931	0.744681	0.500073
C96	C	2.168931	0.994681	0.750073
C97	C	1.146618	0.399998	0.000045
C98	C	1.396618	0.649998	0.250045
C99	C	1.646618	0.899998	0.500045
C100	C	1.896618	1.149998	0.750045
C101	C	1.157463	0.506142	0.000032
C102	C	1.407463	0.756142	0.250032
C103	C	1.657463	1.006142	0.500032
C104	C	1.907463	1.256142	0.750032
N105	N	1.138824	0.226037	0.419831
N106	N	1.388824	0.476037	0.669831
N107	N	1.638824	0.726037	0.919831
N108	N	1.888824	0.976037	1.169831
N109	N	1.138842	0.226037	-0.419697
N110	N	1.388842	0.476037	-0.169697
N111	N	1.638842	0.726037	0.080303
N112	N	1.888842	0.976037	0.330303
H113	H	0.626952	0.113452	-0.000053
H114	H	0.876952	0.363452	0.249947
H115	H	1.126952	0.613452	0.499947
H116	H	1.376952	0.863452	0.749947
H117	H	0.650711	0.338628	0.000041
H118	H	0.900711	0.588628	0.250041
H119	H	1.150711	0.838628	0.500041
H120	H	1.400711	1.088628	0.750041
H121	H	1.251419	-0.262085	-0.000054
H122	H	1.501419	-0.012085	0.249946
H123	H	1.751419	0.237915	0.499946
H124	H	2.001419	0.487915	0.749946
H125	H	1.026242	-0.285837	0.000048
H126	H	1.276242	-0.035837	0.250048
H127	H	1.526242	0.214163	0.500048
H128	H	1.776242	0.464163	0.750048
