data_functionalizedCrystal
_audit_creation_method	'MofGen! by Chris Wilmer'
_symmetry_space_group_name_H-M	'P1'
_symmetry_Int_Tables_number	1
_symmetry_cell_setting	triclinic
loop_
_symmetry_equiv_pos_as_xyz
  x,y,z
_cell_length_a	13.032831
_cell_length_b	14.908520
_cell_length_c	13.032268
_cell_angle_alpha	99.985811
_cell_angle_beta	90.886977
_cell_angle_gamma	86.522975
loop_
_atom_site_label
_atom_site_type_symbol
_atom_site_fract_x
_atom_site_fract_y
_atom_site_fract_z
Zn1	Zn	1.453341	-0.608125	-0.815711
Zn2	Zn	1.465124	-0.742288	-0.651425
Zn3	Zn	1.305991	-0.570509	-0.619794
Zn4	Zn	1.271734	-0.737420	-0.801271
O5	O	1.374048	-0.664586	-0.722050
O6	O	1.597505	-0.643703	-0.813198
O7	O	1.463283	-0.705796	-0.502526
O8	O	1.334942	-0.449498	-0.638589
O9	O	1.606162	-0.742272	-0.692498
O10	O	1.443199	-0.477135	-0.782527
O11	O	1.346369	-0.579590	-0.479287
O12	O	1.158846	-0.574869	-0.624587
O13	O	1.276556	-0.733974	-0.947889
O14	O	1.133677	-0.697498	-0.757917
O15	O	1.409982	-0.638982	-0.958498
O16	O	1.430066	-0.867643	-0.678496
O17	O	1.287983	-0.864066	-0.788588
C18	C	1.109287	-0.631574	-0.686253
C19	C	0.996016	-0.617476	-0.670965
C20	C	1.356610	-0.898531	-0.735434
C21	C	1.349239	-0.998628	-0.741207
C22	C	0.933097	-0.671944	-0.730029
C23	C	0.816026	-0.657374	-0.714229
C24	C	1.483459	-1.190413	-0.637541
C25	C	1.476537	-1.284464	-0.642962
C26	C	1.328478	-1.280784	-0.757475
C27	C	1.335400	-1.186733	-0.752054
C28	C	1.412892	-1.141551	-0.692084
C29	C	1.419809	-1.047497	-0.686657
C30	C	1.271756	-1.043820	-0.801176
C31	C	1.264834	-1.137870	-0.806597
C32	C	1.639842	-0.697726	-0.757987
C33	C	1.753108	-0.711849	-0.773302
C34	C	1.338133	-0.690131	-0.991762
C35	C	1.322829	-0.701017	-1.106698
C36	C	1.391578	-0.429732	-0.708640
C37	C	1.399048	-0.329652	-0.702926
C38	C	1.382022	-0.658870	-1.163188
C39	C	1.366205	-0.670120	-1.281980
C40	C	1.409886	-0.639082	-0.453391
C41	C	1.425406	-0.627967	-0.338469
H42	H	0.965901	-0.729359	-0.792296
Br43	Br	1.175965	-0.977498	-0.875183
H44	H	1.482904	-1.010710	-0.637823
Br45	Br	1.588606	-1.129085	-0.556133
H46	H	1.534001	-1.324244	-0.598550
Br47	Br	1.223334	-1.342121	-0.838877
H48	H	0.783226	-0.599948	-0.651965
Br49	Br	1.529411	-0.553950	-1.272519
H50	H	1.201744	-1.174671	-0.855426
Br51	Br	1.485980	-0.584812	-1.097223
Br52	Br	0.807762	-0.807544	-0.877108
Br53	Br	0.941352	-0.521764	-0.567192
Br54	Br	1.218834	-0.775035	-1.172656
Br55	Br	1.262206	-0.744141	-1.347934
