data_functionalizedCrystal
_audit_creation_method	'MofGen! by Chris Wilmer'
_symmetry_space_group_name_H-M	'P1'
_symmetry_Int_Tables_number	1
_symmetry_cell_setting	triclinic
loop_
_symmetry_equiv_pos_as_xyz
  x,y,z
_cell_length_a	10.489741
_cell_length_b	16.053810
_cell_length_c	16.992695
_cell_angle_alpha	92.752725
_cell_angle_beta	92.396302
_cell_angle_gamma	92.591752
loop_
_atom_site_label
_atom_site_type_symbol
_atom_site_fract_x
_atom_site_fract_y
_atom_site_fract_z
O1	O	1.708704	0.069378	-0.107405
O2	O	1.338413	0.069391	-0.117795
O3	O	1.522073	0.069378	0.001551
O4	O	1.525043	0.069391	-0.226751
O5	O	1.512008	-0.069480	-0.005016
O6	O	1.328347	-0.069467	-0.124362
O7	O	1.698638	-0.069480	-0.113973
Zn8	Zn	1.511895	-0.091520	-0.120210
Zn9	Zn	1.525156	0.091431	-0.111557
O10	O	1.514978	-0.069467	-0.233318
C11	C	1.285780	-0.000036	-0.120293
C12	C	1.143947	-0.000031	-0.117945
N13	N	1.502853	-0.216380	-0.126115
C14	C	1.456038	-0.740008	-0.156415
C15	C	1.462392	-0.652602	-0.152300
C16	C	1.546922	-0.608898	-0.097419
C17	C	1.625095	-0.652605	-0.046644
C18	C	1.618733	-0.740010	-0.050756
C19	C	1.574664	-0.347491	-0.079452
C20	C	1.581023	-0.260080	-0.075345
C21	C	1.418317	-0.260083	-0.181001
C22	C	1.411969	-0.347490	-0.185111
C23	C	1.490137	-0.391189	-0.134334
N24	N	1.553422	-0.519555	-0.093212
N25	N	1.483630	-0.480531	-0.138537
C26	C	1.069200	-0.000044	-0.042010
C27	C	0.985156	0.068421	-0.074643
C28	C	0.975268	-0.068482	-0.081136
C29	C	1.061776	0.068490	-0.150607
C30	C	1.051892	-0.068475	-0.157093
C31	C	0.967882	0.000006	-0.189781
C32	C	1.751271	-0.000051	-0.111474
C33	C	1.893105	-0.000050	-0.113821
C34	C	1.513221	-0.000051	0.027501
C35	C	1.501826	-0.000050	0.114610
N36	N	1.534207	0.216291	-0.105646
C37	C	1.523830	-0.000036	-0.259268
C38	C	1.535225	-0.000031	-0.346377
C39	C	1.611775	-0.000055	0.164229
C40	C	1.601061	-0.000047	0.246077
C41	C	1.480396	-0.000039	0.278303
C42	C	1.370439	-0.000032	0.228677
C43	C	1.381155	-0.000035	0.146832
C44	C	1.435984	-0.000026	0.522152
C45	C	1.425276	-0.000027	0.604004
C46	C	1.655900	-0.000039	0.621398
C47	C	1.666604	-0.000047	0.539550
C48	C	1.556648	-0.000035	0.489931
N49	N	1.469442	-0.000034	0.361964
N50	N	1.567604	-0.000035	0.406272
H51	H	1.387210	-0.775586	-0.201109
H52	H	0.937298	-0.126364	-0.051729
O53	O	1.342518	-0.217671	-0.230429
C54	C	1.369584	-0.239068	-0.309226
H55	H	1.470050	-0.263111	-0.311361
H56	H	1.363088	-0.181596	-0.345810
H57	H	1.297501	-0.289798	-0.334227
O58	O	1.308151	-0.000054	0.635438
C59	C	1.322280	-0.000040	0.718317
H60	H	1.418009	-0.026336	0.735724
H61	H	1.241644	-0.040350	0.741964
H62	H	1.318610	0.066577	0.744282
O63	O	1.729091	-0.000023	0.133060
C64	C	1.823834	-0.000043	0.194410
H65	H	1.784293	0.026246	0.251443
H66	H	1.910497	0.040271	0.178752
H67	H	1.853326	-0.066660	0.202643
O68	O	1.329043	-0.000063	0.474071
C69	C	1.220250	-0.000042	0.520069
H70	H	1.244521	-0.026328	0.579720
H71	H	1.139778	-0.040359	0.488437
H72	H	1.188477	0.066575	0.529245
O73	O	1.253320	-0.000062	0.260107
C74	C	1.267437	-0.000043	0.342988
H75	H	1.363166	-0.026336	0.360401
H76	H	1.186799	-0.040355	0.366632
H77	H	1.263759	0.066574	0.368949
O78	O	1.087437	-0.137546	-0.198554
C79	C	1.165537	-0.184467	-0.149658
H80	H	1.211174	-0.142030	-0.099529
H81	H	1.243529	-0.212725	-0.185729
H82	H	1.105064	-0.236585	-0.124177
O83	O	0.915536	-0.000059	-0.264367
C84	C	0.951132	-0.071614	-0.307962
H85	H	1.042611	-0.095243	-0.280197
H86	H	0.967995	-0.055090	-0.371312
H87	H	0.871576	-0.122367	-0.307629
H88	H	1.693916	-0.617016	-0.001955
O89	O	1.386411	-0.610281	-0.201700
C90	C	1.310423	-0.667598	-0.251011
H91	H	1.358306	-0.729910	-0.255145
H92	H	1.299168	-0.642355	-0.312362
H93	H	1.212350	-0.676875	-0.225403
O94	O	0.949757	0.137535	-0.033177
C95	C	0.873547	0.185265	-0.082436
H96	H	0.894417	0.169962	-0.146692
H97	H	0.896242	0.254512	-0.067688
H98	H	0.768358	0.169919	-0.072762
H99	H	1.682385	-0.775590	-0.009414
H100	H	1.099597	0.126437	-0.179972
H101	H	1.113465	0.000038	0.020419
O102	O	1.783919	-0.000019	0.508379
C103	C	1.878667	-0.000046	0.569725
H104	H	1.839139	0.026252	0.626759
H105	H	1.965339	0.040256	0.554062
H106	H	1.908141	-0.066667	0.577962
O107	O	1.650558	-0.389836	-0.030025
C108	C	1.623461	-0.368467	0.048773
H109	H	1.578881	-0.305003	0.051959
H110	H	1.715686	-0.365470	0.086962
H111	H	1.553908	-0.417648	0.071117
H112	H	1.343138	-0.383072	-0.229800
O113	O	1.707843	0.000097	0.294313
C114	C	1.713752	0.072007	0.345581
H115	H	1.655188	0.122273	0.318354
H116	H	1.817367	0.096142	0.355336
H117	H	1.673483	0.055756	0.404510
O118	O	1.274434	-0.000143	0.098544
C119	C	1.268496	-0.072068	0.047295
H120	H	1.368477	-0.096051	0.041453
H121	H	1.228402	-0.055890	-0.013176
H122	H	1.203809	-0.122423	0.072165
H123	H	1.745420	-0.000047	0.661806
H124	H	1.649862	-0.224501	-0.030652
