data_functionalizedCrystal
_audit_creation_method	'MofGen! by Chris Wilmer'
_symmetry_space_group_name_H-M	'P1'
_symmetry_Int_Tables_number	1
_symmetry_cell_setting	triclinic
loop_
_symmetry_equiv_pos_as_xyz
  x,y,z
_cell_length_a	8.597187
_cell_length_b	10.489716
_cell_length_c	7.088929
_cell_angle_alpha	83.717280
_cell_angle_beta	88.663715
_cell_angle_gamma	84.932368
loop_
_atom_site_label
_atom_site_type_symbol
_atom_site_fract_x
_atom_site_fract_y
_atom_site_fract_z
O1	O	2.034980	0.230555	-0.494172
O2	O	1.585634	0.239147	-0.420158
O3	O	1.820551	0.049441	-0.458859
O4	O	1.800063	0.420261	-0.455471
O5	O	1.851944	0.024029	-0.146056
O6	O	1.617028	0.213735	-0.107355
O7	O	2.066373	0.205143	-0.181369
Cu8	Cu	1.844567	0.207119	-0.115801
Cu9	Cu	1.807440	0.237171	-0.485727
O10	O	1.831457	0.394849	-0.142668
C11	C	1.543792	0.224102	-0.254279
C12	C	1.372346	0.217118	-0.226040
C13	C	1.834707	-0.010825	-0.302210
C14	C	1.830100	-0.152540	-0.301468
C15	C	1.974160	-0.247554	-0.325180
C16	C	1.882558	-0.313792	-0.466865
C17	C	1.913477	-0.338811	-0.158460
C18	C	1.738545	-0.216901	-0.443290
C19	C	1.769499	-0.241925	-0.134750
C20	C	1.677787	-0.308113	-0.276455
C21	C	2.108215	0.220188	-0.347252
C22	C	2.279660	0.227173	-0.375504
C23	C	1.817300	0.455115	-0.299321
C24	C	1.821906	0.596831	-0.300075
N25	N	1.870691	0.185981	0.144384
N26	N	1.781328	0.258299	-0.745913
H27	H	1.331477	0.241126	-0.525069
O28	O	2.011390	-0.408907	0.001002
H29	H	1.936396	-0.467135	0.099551
O30	O	1.303720	0.198653	-0.027930
H31	H	1.398575	0.192395	0.077113
O32	O	1.993389	0.086717	0.232330
H33	H	2.110218	0.109080	0.174758
O34	O	2.140108	-0.211753	-0.352720
H35	H	2.186693	-0.240296	-0.490739
H36	H	1.930285	-0.345571	-0.607269
H37	H	1.664665	-0.164116	-0.563807
O38	O	1.511665	-0.343515	-0.249151
H39	H	1.439374	-0.293975	-0.367496
O40	O	1.658637	0.357554	0.166140
H41	H	1.683326	0.454474	0.200354
H42	H	1.721825	-0.210122	0.005650
