data_functionalizedCrystal
_audit_creation_method	'MofGen! by Chris Wilmer'
_symmetry_space_group_name_H-M	'P1'
_symmetry_Int_Tables_number	1
_symmetry_cell_setting	triclinic
loop_
_symmetry_equiv_pos_as_xyz
  x,y,z
_cell_length_a	10.654550
_cell_length_b	16.109301
_cell_length_c	9.730223
_cell_angle_alpha	89.994178
_cell_angle_beta	89.999957
_cell_angle_gamma	83.973206
loop_
_atom_site_label
_atom_site_type_symbol
_atom_site_fract_x
_atom_site_fract_y
_atom_site_fract_z
O1	O	1.666255	0.116774	-0.114192
O2	O	2.166255	0.616774	0.385808
O3	O	1.300625	0.127899	-0.114218
O4	O	1.800625	0.627899	0.385782
O5	O	1.493484	0.001365	-0.114190
O6	O	1.993484	0.501365	0.385810
O7	O	1.473396	0.243308	-0.114220
O8	O	1.973396	0.743308	0.385780
O9	O	1.493472	0.001362	0.114390
O10	O	1.993472	0.501362	0.614390
O11	O	1.300613	0.127896	0.114362
O12	O	1.800613	0.627896	0.614362
O13	O	1.666243	0.116770	0.114388
O14	O	2.166243	0.616770	0.614388
Zn15	Zn	1.483426	0.122333	0.150667
Zn16	Zn	1.983426	0.622333	0.650667
Zn17	Zn	1.483442	0.122337	-0.150497
Zn18	Zn	1.983442	0.622337	0.349503
O19	O	1.473384	0.243304	0.114360
O20	O	1.973384	0.743304	0.614360
C21	C	1.253832	0.127081	0.000069
C22	C	1.753832	0.627081	0.500069
C23	C	1.114422	0.124637	0.000060
C24	C	1.614422	0.624637	0.500060
C25	C	1.033926	0.199138	0.000054
C26	C	1.533926	0.699138	0.500054
C27	C	0.902936	0.196836	0.000079
C28	C	1.402936	0.696836	0.500079
C29	C	0.932952	0.045526	0.000107
C30	C	1.432952	0.545526	0.500107
C31	C	1.063939	0.047828	0.000093
C32	C	1.563939	0.547828	0.500093
C33	C	1.492664	-0.029616	0.000100
C34	C	1.992664	0.470384	0.500100
C35	C	1.490225	-0.121926	0.000102
C36	C	1.990225	0.378074	0.500102
C37	C	1.598991	-0.343552	0.000088
C38	C	2.098991	0.156448	0.500088
C39	C	1.596689	-0.430286	0.000076
C40	C	2.096689	0.069714	0.500076
C41	C	1.367868	-0.411772	0.000066
C42	C	1.867868	0.088228	0.500066
C43	C	1.370172	-0.325039	0.000067
C44	C	1.870172	0.174961	0.500067
C45	C	1.485737	-0.290932	0.000085
C46	C	1.985737	0.209068	0.500085
C47	C	1.481131	-0.464398	0.000072
C48	C	1.981131	0.035602	0.500072
C49	C	1.478634	-0.558439	0.000060
C50	C	1.978634	-0.058439	0.500060
C51	C	1.488234	-0.196885	0.000095
C52	C	1.988234	0.303115	0.500095
C53	C	1.713036	0.117589	0.000098
C54	C	2.213036	0.617589	0.500098
C55	C	1.852446	0.120033	0.000098
C56	C	2.352446	0.620033	0.500098
C57	C	1.474203	0.274286	0.000067
C58	C	1.974203	0.774286	0.500067
C59	C	1.476643	0.366596	0.000056
C60	C	1.976643	0.866596	0.500056
N61	N	1.483424	0.122329	0.356203
N62	N	1.983424	0.622329	0.856203
N63	N	1.483454	0.122334	-0.356033
N64	N	1.983454	0.622334	0.143967
C65	C	1.568851	0.066324	0.428141
C66	C	2.068851	0.566324	0.928141
C67	C	1.568863	0.066324	0.572024
C68	C	2.068863	0.566324	1.072024
C69	C	1.398018	0.178342	0.572018
C70	C	1.898018	0.678342	1.072018
C71	C	1.398001	0.178337	0.428138
C72	C	1.898001	0.678337	0.928138
H73	H	1.075024	0.261680	0.000038
H74	H	1.575024	0.761680	0.500038
F75	F	1.721985	-0.307255	0.000106
F76	F	2.221985	0.192745	0.500106
F77	F	1.149615	-0.031470	0.000108
F78	F	1.649615	0.468530	0.500108
H79	H	1.273779	-0.439553	0.000054
H80	H	1.773779	0.060447	0.500054
H81	H	0.837401	0.257503	0.000077
H82	H	1.337401	0.757503	0.500077
F83	F	1.717230	-0.486284	0.000076
F84	F	2.217230	0.013716	0.500076
H85	H	0.891833	-0.017009	0.000143
H86	H	1.391833	0.482991	0.500143
H87	H	1.638424	0.020718	0.630592
H88	H	2.138424	0.520718	1.130592
F89	F	1.249624	-0.269034	0.000055
F90	F	1.749624	0.230966	0.500055
F91	F	1.659763	0.006712	0.351589
F92	F	2.159763	0.506712	0.851589
F93	F	1.307112	0.237950	0.648586
F94	F	1.807112	0.737950	1.148586
F95	F	1.307069	0.237945	0.351570
F96	F	1.807069	0.737945	0.851570
