data_functionalizedCrystal
_audit_creation_method	'MofGen! by Chris Wilmer'
_symmetry_space_group_name_H-M	'P1'
_symmetry_Int_Tables_number	1
_symmetry_cell_setting	triclinic
loop_
_symmetry_equiv_pos_as_xyz
  x,y,z
_cell_length_a	10.654550
_cell_length_b	15.186229
_cell_length_c	10.654551
_cell_angle_alpha	90.001981
_cell_angle_beta	84.485180
_cell_angle_gamma	90.000116
loop_
_atom_site_label
_atom_site_type_symbol
_atom_site_fract_x
_atom_site_fract_y
_atom_site_fract_z
O1	O	1.667840	0.073159	0.176397
O2	O	2.167840	0.573159	0.676397
O3	O	1.302362	0.073175	0.193203
O4	O	1.802362	0.573175	0.693203
O5	O	1.493503	0.073165	0.002061
O6	O	1.993503	0.573165	0.502061
O7	O	1.476699	0.073169	0.367539
O8	O	1.976699	0.573169	0.867539
O9	O	1.493490	-0.073293	0.002058
O10	O	1.993490	0.426707	0.502058
O11	O	1.302349	-0.073282	0.193201
O12	O	1.802349	0.426718	0.693201
O13	O	1.667827	-0.073298	0.176394
O14	O	2.167827	0.426702	0.676394
Zn15	Zn	1.485086	-0.096543	0.184797
Zn16	Zn	1.985086	0.403457	0.684797
Zn17	Zn	1.485103	0.096420	0.184801
Zn18	Zn	1.985103	0.596420	0.684801
O19	O	1.476686	-0.073288	0.367537
O20	O	1.976686	0.426712	0.867537
C21	C	1.255557	-0.000052	0.191968
C22	C	1.755557	0.499948	0.691968
C23	C	1.116114	-0.000046	0.188276
C24	C	1.616114	0.499954	0.688276
C25	C	1.036629	-0.000047	0.300818
C26	C	1.536629	0.499953	0.800818
C27	C	0.905608	-0.000062	0.297341
C28	C	1.405608	0.499938	0.797341
C29	C	0.933570	-0.000071	0.068772
C30	C	1.433570	0.499929	0.568772
C31	C	1.064589	-0.000062	0.072249
C32	C	1.564589	0.499938	0.572249
N33	N	1.485084	-0.228236	0.184794
N34	N	1.985084	0.271764	0.684794
C35	C	1.569750	-0.453964	0.100185
C36	C	2.069750	0.046036	0.600185
C37	C	1.569754	-0.546153	0.100182
C38	C	2.069754	-0.046153	0.600182
C39	C	1.400439	-0.546153	0.269407
C40	C	1.900439	-0.046153	0.769407
C41	C	1.400430	-0.453965	0.269403
C42	C	1.900430	0.046035	0.769403
C43	C	1.485093	-0.407873	0.184793
C44	C	1.985093	0.092127	0.684793
C45	C	1.485106	-0.592250	0.184795
C46	C	1.985106	-0.092250	0.684795
C47	C	1.485109	-0.692207	0.184792
C48	C	1.985109	-0.192207	0.684792
C49	C	1.485088	-0.307910	0.184794
C50	C	1.985088	0.192090	0.684794
C51	C	1.714632	-0.000070	0.177630
C52	C	2.214632	0.499930	0.677630
C53	C	1.854075	-0.000070	0.181322
C54	C	2.354075	0.499930	0.681322
C55	C	1.492262	-0.000062	-0.044738
C56	C	1.992262	0.499938	0.455262
C57	C	1.488570	-0.000058	-0.184181
C58	C	1.988570	0.499942	0.315819
N59	N	1.485115	0.228113	0.184794
N60	N	1.985115	0.728113	0.684794
C61	C	1.486844	0.079777	-0.249684
C62	C	1.986844	0.579777	0.250316
C63	C	1.483364	0.079778	-0.380704
C64	C	1.983364	0.579778	0.119296
C65	C	1.483341	-0.079898	-0.380709
C66	C	1.983341	0.420102	0.119291
C67	C	1.486812	-0.079898	-0.249690
C68	C	1.986812	0.420102	0.250310
C69	C	1.477926	-0.000059	0.414336
C70	C	1.977926	0.499941	0.914336
C71	C	1.481619	-0.000057	0.553779
C72	C	1.981619	0.499943	1.053779
H73	H	0.840896	-0.000065	0.388984
H74	H	1.340896	0.499935	0.888984
H75	H	1.488211	-0.144913	-0.196356
H76	H	1.988211	0.355087	0.303644
H77	H	1.481913	-0.144901	-0.434062
H78	H	1.981913	0.355099	0.065938
H79	H	0.891602	-0.000091	-0.025693
H80	H	1.391602	0.499909	0.474307
H81	H	1.078576	-0.000040	0.395294
H82	H	1.578576	0.499960	0.895294
Cl83	Cl	1.293990	-0.396017	0.375770
Cl84	Cl	1.793990	0.103983	0.875770
Cl85	Cl	1.489046	0.180147	-0.167334
Cl86	Cl	1.989046	0.680147	0.332666
H87	H	1.129309	-0.000064	-0.019401
H88	H	1.629309	0.499936	0.480599
H89	H	1.638686	-0.416437	0.031289
H90	H	2.138686	0.083563	0.531289
Cl91	Cl	1.294016	-0.604102	0.375773
Cl92	Cl	1.794016	-0.104102	0.875773
Cl93	Cl	1.676182	-0.604093	-0.006190
Cl94	Cl	2.176182	-0.104093	0.493810
Cl95	Cl	1.481191	0.180146	-0.463044
Cl96	Cl	1.981191	0.680146	0.036956
