data_functionalizedCrystal
_audit_creation_method	'MofGen! by Chris Wilmer'
_symmetry_space_group_name_H-M	'P1'
_symmetry_Int_Tables_number	1
_symmetry_cell_setting	triclinic
loop_
_symmetry_equiv_pos_as_xyz
  x,y,z
_cell_length_a	17.699083
_cell_length_b	17.766277
_cell_length_c	19.288865
_cell_angle_alpha	90.010454
_cell_angle_beta	83.209632
_cell_angle_gamma	90.003370
loop_
_atom_site_label
_atom_site_type_symbol
_atom_site_fract_x
_atom_site_fract_y
_atom_site_fract_z
O1	O	1.003958	0.062497	0.087836
O2	O	0.783563	0.062523	0.099264
O3	O	0.900129	0.062495	-0.007573
O4	O	0.887392	0.062526	0.194673
O5	O	0.900108	-0.062694	-0.007576
O6	O	0.783542	-0.062665	0.099261
O7	O	1.003937	-0.062691	0.087833
Cu8	Cu	0.893738	-0.074109	0.093547
Cu9	Cu	0.893762	0.073941	0.093550
O10	O	0.887371	-0.062663	0.194670
C11	C	0.755356	-0.000068	0.098853
C12	C	0.671340	-0.000059	0.097624
N13	N	0.893726	-0.178239	0.093544
C14	C	0.939478	-0.217619	0.135622
C15	C	0.939490	-0.296420	0.135620
C16	C	0.893736	-0.335840	0.093548
C17	C	0.847981	-0.296451	0.051461
C18	C	0.847976	-0.217651	0.051459
C19	C	0.825510	-0.460692	0.091710
C20	C	0.825513	-0.539491	0.091717
C21	C	0.893752	-0.578886	0.093550
C22	C	0.961988	-0.539473	0.095390
C23	C	0.961983	-0.460673	0.095388
C24	C	0.893736	-0.421286	0.093545
C25	C	0.939520	-0.703711	0.135628
C26	C	0.939534	-0.782515	0.135621
C27	C	0.848018	-0.782544	0.051466
C28	C	0.848012	-0.703742	0.051469
C29	C	0.893761	-0.664331	0.093554
C30	C	0.622631	-0.000049	0.160335
C31	C	0.543689	-0.000059	0.159177
C32	C	0.513458	-0.000073	0.095307
C33	C	0.562174	-0.000085	0.032591
C34	C	0.641114	-0.000080	0.033750
C35	C	0.243817	-0.000104	0.027915
C36	C	0.164871	-0.000107	0.026761
C37	C	0.146393	-0.000083	0.153342
C38	C	0.225333	-0.000079	0.154501
C39	C	0.274041	-0.000094	0.091785
C40	C	0.359639	-0.000085	0.093042
C41	C	0.427862	-0.000077	0.094049
C42	C	1.032144	-0.000098	0.088244
C43	C	1.116160	-0.000103	0.089472
C44	C	0.899709	-0.000102	-0.033451
C45	C	0.898478	-0.000108	-0.110556
N46	N	0.893780	0.178071	0.093548
C47	C	0.966874	-0.000120	-0.155172
C48	C	0.965718	-0.000108	-0.227620
C49	C	0.896163	-0.000099	-0.255450
C50	C	0.827759	-0.000083	-0.210825
C51	C	0.828916	-0.000088	-0.138378
C52	C	0.841477	-0.043944	-0.363803
C53	C	0.840322	-0.043944	-0.436249
C54	C	0.892589	-0.000082	-0.478900
C55	C	0.946024	0.043770	-0.449097
C56	C	0.947182	0.043766	-0.376651
C57	C	0.894900	-0.000094	-0.334006
C58	C	0.959736	-0.000080	-0.602073
C59	C	0.958578	-0.000063	-0.674522
C60	C	0.820616	-0.000046	-0.657725
C61	C	0.821777	-0.000055	-0.585277
C62	C	0.891339	-0.000075	-0.557456
C63	C	0.887792	-0.000064	0.220548
C64	C	0.889022	-0.000053	0.297653
H65	H	0.976734	-0.185535	0.169887
H66	H	1.017553	-0.571547	0.096886
H67	H	1.014276	-0.000068	-0.710848
H68	H	0.647238	-0.000037	0.212346
Br69	Br	0.785902	-0.650294	-0.005626
Br70	Br	0.309912	-0.000128	-0.057199
H71	H	0.763983	-0.000035	-0.680383
Br72	Br	0.770537	-0.103476	-0.305927
Br73	Br	0.732907	-0.592972	0.089230
H74	H	0.773219	-0.000079	-0.102051
Br75	Br	1.001637	-0.835960	0.192726
H76	H	0.976747	-0.328489	0.169886
Br77	Br	1.019692	0.103280	-0.336205
H78	H	0.810718	-0.185588	0.017193
Br79	Br	1.054139	-0.000115	-0.564310
H80	H	0.766082	-0.000050	-0.548950
H81	H	0.537553	-0.000107	-0.019413
Br82	Br	0.477586	-0.000044	0.244288
H83	H	0.771126	-0.000075	-0.233489
Br84	Br	1.061279	-0.000127	-0.117417
Br85	Br	0.732903	-0.407235	0.089156
Br86	Br	0.080284	-0.000063	0.238457
H87	H	0.988584	0.079487	-0.483823
H88	H	0.796810	-0.079647	-0.460508
Br89	Br	0.123844	-0.000123	-0.059926
H90	H	0.976773	-0.671621	0.169895
Br91	Br	0.707221	-0.000100	-0.051361
H92	H	1.017543	-0.428586	0.096885
Br93	Br	0.785934	-0.836033	-0.005643
H94	H	1.021416	-0.000114	-0.263953
H95	H	0.249942	-0.000064	0.206510
H96	H	0.810729	-0.328551	0.017205
