data_functionalizedCrystal
_audit_creation_method	'MofGen! by Chris Wilmer'
_symmetry_space_group_name_H-M	'P1'
_symmetry_Int_Tables_number	1
_symmetry_cell_setting	triclinic
loop_
_symmetry_equiv_pos_as_xyz
  x,y,z
_cell_length_a	14.044220
_cell_length_b	14.971486
_cell_length_c	14.048226
_cell_angle_alpha	90.000262
_cell_angle_beta	90.003568
_cell_angle_gamma	91.598497
loop_
_atom_site_label
_atom_site_type_symbol
_atom_site_fract_x
_atom_site_fract_y
_atom_site_fract_z
O1	O	0.123533	-1.196677	0.079053
O2	O	0.138327	-0.937442	0.079079
O3	O	-0.007059	-1.063168	0.079057
O4	O	0.268919	-1.070951	0.079075
O5	O	-0.007058	-1.063156	-0.079264
O6	O	0.138328	-0.937429	-0.079242
O7	O	0.123534	-1.196664	-0.079268
Zn8	Zn	0.130931	-1.067045	-0.104392
Zn9	Zn	0.130930	-1.067062	0.104203
O10	O	0.268920	-1.070938	-0.079246
C11	C	-0.042377	-1.059755	-0.000104
C12	C	-0.147614	-1.049594	-0.000104
C13	C	0.137666	-0.904059	-0.000078
C14	C	0.135683	-0.804606	-0.000069
N15	N	0.130932	-1.067040	-0.246753
C16	C	-0.340297	-1.031018	-0.000088
C17	C	-0.397848	-1.103085	-0.000093
C18	C	-0.505063	-1.092748	-0.000084
C19	C	-0.233071	-1.041353	-0.000097
C20	C	0.304238	-1.074351	-0.000083
C21	C	0.409475	-1.084512	-0.000077
C22	C	0.124195	-1.230047	-0.000109
C23	C	0.126178	-1.329501	-0.000112
C24	C	0.221093	-0.754109	-0.000064
C25	C	0.219225	-0.660662	-0.000079
C26	C	0.131945	-0.617714	-0.000090
C27	C	0.046528	-0.668218	-0.000097
C28	C	0.048398	-0.761663	-0.000090
C29	C	0.042638	-0.473449	-0.000111
C30	C	0.040767	-0.379997	-0.000117
C31	C	0.213465	-0.372448	-0.000100
C32	C	0.215334	-0.465893	-0.000092
C33	C	0.129917	-0.516390	-0.000097
C34	C	0.073330	-1.008234	-0.703618
C35	C	0.073327	-1.008230	-0.603961
C36	C	0.130922	-1.067062	-0.554123
C37	C	0.188515	-1.125908	-0.603948
C38	C	0.188512	-1.125915	-0.703604
C39	C	0.188519	-1.125887	-0.396233
C40	C	0.188523	-1.125879	-0.296571
C41	C	0.073334	-1.008202	-0.296591
C42	C	0.073331	-1.008209	-0.396247
C43	C	0.130926	-1.067054	-0.446065
N44	N	0.130922	-1.067073	0.246564
H45	H	-0.366598	-1.172546	-0.000036
C46	C	-0.044261	-0.816604	0.000057
C47	C	-0.048223	-0.870484	0.081500
C48	C	-0.133563	-0.921116	0.081658
H49	H	-0.096589	-0.777751	0.000100
H50	H	-0.047126	-0.853269	-0.055123
H51	H	-0.045368	-0.833823	0.136666
H52	H	0.004085	-0.909354	0.081475
H53	H	-0.136427	-0.957781	0.026477
H54	H	-0.185884	-0.882257	0.081698
H55	H	-0.136258	-0.957685	0.136910
H56	H	0.283015	-0.331329	-0.000099
C57	C	0.010771	-0.944245	-0.550045
C58	C	-0.039643	-0.892704	-0.615021
C59	C	-0.097273	-0.833741	-0.565389
H60	H	-0.032873	-0.977318	-0.511167
H61	H	0.049529	-0.906123	-0.511189
H62	H	-0.078398	-0.930821	-0.653860
H63	H	0.003977	-0.859612	-0.653901
H64	H	-0.058515	-0.795620	-0.526533
H65	H	-0.140911	-0.866821	-0.526512
H66	H	-0.131479	-0.798758	-0.609467
C67	C	-0.381905	-0.938381	0.000115
C68	C	-0.351184	-0.892045	0.081579
C69	C	-0.389517	-0.806711	0.081801
H70	H	-0.361183	-0.906690	-0.055031
H71	H	-0.449477	-0.943620	0.000169
H72	H	-0.283625	-0.886801	0.081516
H73	H	-0.371904	-0.923708	0.136738
H74	H	-0.457090	-0.811951	0.081855
H75	H	-0.368793	-0.775029	0.026652
H76	H	-0.368685	-0.775265	0.137077
C77	C	0.315926	-0.800615	0.000098
C78	C	0.367574	-0.775578	0.081539
C79	C	0.454946	-0.818389	0.081712
H80	H	0.304948	-0.863508	0.000152
H81	H	0.351149	-0.783730	-0.055083
H82	H	0.332359	-0.792469	0.136706
H83	H	0.378579	-0.712692	0.081502
H84	H	0.490169	-0.801503	0.026531
H85	H	0.443958	-0.881280	0.081764
H86	H	0.490004	-0.801401	0.136964
C87	C	0.310021	-0.512651	-0.000209
C88	C	0.316135	-0.566110	-0.081637
C89	C	0.403340	-0.609209	-0.081766
H90	H	0.360714	-0.469301	-0.000253
H91	H	0.314328	-0.548989	0.054981
H92	H	0.311838	-0.529774	-0.136813
H93	H	0.265463	-0.609476	-0.081611
H94	H	0.407646	-0.645548	-0.026576
H95	H	0.454025	-0.565853	-0.081807
H96	H	0.407496	-0.645492	-0.137009
H97	H	0.026438	-0.960299	-0.436822
C98	C	0.010924	-0.944160	-0.242569
C99	C	0.036944	-0.856111	-0.266808
C100	C	-0.020511	-0.797087	-0.217054
H101	H	-0.053935	-0.955487	-0.258869
H102	H	0.019175	-0.952512	-0.176069
H103	H	0.028686	-0.847762	-0.333294
H104	H	0.101794	-0.844756	-0.250506
H105	H	-0.012261	-0.805439	-0.150554
H106	H	-0.085367	-0.808422	-0.233358
H107	H	-0.002859	-0.737339	-0.233487
C108	C	0.251080	-1.189855	-0.242630
C109	C	0.301494	-1.241412	-0.307586
C110	C	0.359121	-1.300364	-0.257931
H111	H	0.294724	-1.156774	-0.203754
H112	H	0.212321	-1.227967	-0.203771
H113	H	0.340250	-1.203305	-0.346429
H114	H	0.257874	-1.274512	-0.346464
H115	H	0.320362	-1.338477	-0.219071
H116	H	0.402760	-1.267276	-0.219056
H117	H	0.393328	-1.335358	-0.301995
H118	H	0.288775	-0.619551	-0.000074
C119	C	-0.054058	-0.333479	0.000013
C120	C	-0.105721	-0.358496	0.081445
C121	C	-0.193083	-0.315668	0.081591
H122	H	-0.043065	-0.270587	0.000063
H123	H	-0.089278	-0.350363	-0.055175
H124	H	-0.070509	-0.341606	0.136618
H125	H	-0.116739	-0.421381	0.081412
H126	H	-0.228303	-0.332553	0.026403
H127	H	-0.182081	-0.252779	0.081638
H128	H	-0.228151	-0.332643	0.136836
C129	C	-0.050027	-0.528389	0.000035
C130	C	-0.053982	-0.582266	0.081481
C131	C	-0.139321	-0.632899	0.081647
H132	H	-0.102356	-0.489538	0.000080
H133	H	-0.052895	-0.565057	-0.055143
H134	H	-0.051124	-0.545602	0.136645
H135	H	-0.001673	-0.621135	0.081453
H136	H	-0.142189	-0.669566	0.026468
H137	H	-0.191643	-0.594040	0.081689
H138	H	-0.142012	-0.669466	0.136902
H139	H	-0.024537	-0.633242	-0.000121
C140	C	0.250886	-1.189880	-0.450375
C141	C	0.193516	-1.245899	-0.507568
C142	C	0.250936	-1.304862	-0.557448
H143	H	0.294458	-1.156804	-0.489329
H144	H	0.285172	-1.224968	-0.406454
H145	H	0.159246	-1.210815	-0.551485
H146	H	0.149945	-1.278995	-0.468638
H147	H	0.285221	-1.339950	-0.513527
H148	H	0.294505	-1.271779	-0.596397
H149	H	0.212018	-1.342883	-0.596253
H150	H	0.026435	-0.960321	-0.744189
C151	C	0.250978	-1.189942	-0.757574
C152	C	0.225004	-1.277994	-0.733306
C153	C	0.282532	-1.337004	-0.782994
H154	H	0.242779	-1.181646	-0.824077
H155	H	0.315825	-1.178544	-0.741222
H156	H	0.160173	-1.289387	-0.749664
H157	H	0.233207	-1.286319	-0.666812
H158	H	0.347379	-1.325607	-0.766642
H159	H	0.274329	-1.328700	-0.849494
H160	H	0.264923	-1.396754	-0.766529
H161	H	0.235405	-1.173814	-0.563362
