data_functionalizedCrystal
_audit_creation_method	'MofGen! by Chris Wilmer'
_symmetry_space_group_name_H-M	'P1'
_symmetry_Int_Tables_number	1
_symmetry_cell_setting	triclinic
loop_
_symmetry_equiv_pos_as_xyz
  x,y,z
_cell_length_a	19.805407
_cell_length_b	12.827892
_cell_length_c	19.805399
_cell_angle_alpha	90.022529
_cell_angle_beta	90.019573
_cell_angle_gamma	90.015392
loop_
_atom_site_label
_atom_site_type_symbol
_atom_site_fract_x
_atom_site_fract_y
_atom_site_fract_z
Zn1	Zn	1.034788	-0.416057	0.382743
Zn2	Zn	1.034724	-0.590812	0.269565
Zn3	Zn	0.921602	-0.416086	0.269568
Zn4	Zn	0.921587	-0.590757	0.382712
O5	O	0.978175	-0.503428	0.326147
O6	O	1.129496	-0.439250	0.367742
O7	O	1.019698	-0.567670	0.174849
O8	O	0.936649	-0.269846	0.284595
O9	O	1.129449	-0.567642	0.284590
O10	O	1.019806	-0.269825	0.367745
O11	O	0.936588	-0.439299	0.174851
O12	O	0.826884	-0.439245	0.284565
O13	O	0.936624	-0.567547	0.477433
O14	O	0.826873	-0.567575	0.367691
O15	O	1.019792	-0.439196	0.477456
O16	O	1.019684	-0.737041	0.284560
O17	O	0.936563	-0.737000	0.367688
C18	C	0.802319	-0.503408	0.326125
C19	C	0.727087	-0.503425	0.326132
C20	C	0.691755	-0.570347	0.369346
C21	C	0.621067	-0.570349	0.369355
C22	C	0.585712	-0.503433	0.326147
C23	C	0.621049	-0.436504	0.282931
C24	C	0.691736	-0.436497	0.282926
C25	C	0.335975	-0.436527	0.282954
C26	C	0.265283	-0.436540	0.282961
C27	C	0.265306	-0.570378	0.369383
C28	C	0.335993	-0.570372	0.369378
C29	C	0.371324	-0.503439	0.326165
C30	C	0.447973	-0.503436	0.326156
C31	C	0.509065	-0.503440	0.326152
C32	C	0.978133	-0.774938	0.326135
C33	C	0.978177	-0.891091	0.326153
C34	C	1.019357	-0.942862	0.285064
C35	C	1.019403	-1.062912	0.285081
C36	C	1.154718	-0.503449	0.326169
C37	C	1.229950	-0.503458	0.326179
C38	C	0.978213	-0.503362	0.502690
C39	C	0.978229	-0.503334	0.577922
C40	C	0.978236	-0.230858	0.326174
C41	C	0.978262	-0.114705	0.326185
C42	C	0.978176	-0.503418	0.150291
C43	C	0.978291	-0.503152	0.075060
C44	C	1.021536	-0.436499	0.613279
C45	C	1.021543	-0.436468	0.683968
C46	C	0.978246	-0.503280	0.719298
C47	C	0.934935	-0.570118	0.683935
C48	C	0.934925	-0.570143	0.613248
C49	C	0.934973	-0.570021	0.969009
C50	C	0.934988	-0.569994	1.039701
C51	C	1.021591	-0.436347	1.039728
C52	C	1.021581	-0.436371	0.969041
C53	C	0.978268	-0.503205	0.933685
C54	C	0.978260	-0.503236	0.857037
C55	C	0.978257	-0.503255	0.795945
H56	H	0.236531	-0.624874	0.404572
C57	C	1.067032	-1.123055	0.237554
N58	N	1.102908	-1.168358	0.201755
C59	C	0.582205	-0.643988	0.416881
N60	N	0.552934	-0.699464	0.452675
C61	C	0.930630	-1.054568	0.373713
N62	N	0.894754	-1.009266	0.409512
H63	H	0.942958	-0.935645	0.361346
H64	H	0.364776	-0.624865	0.404560
H65	H	0.899728	-0.624402	1.068465
C66	C	0.730639	-0.643961	0.416879
N67	N	0.759925	-0.699407	0.452684
H68	H	0.236499	-0.382043	0.247776
C69	C	0.374830	-0.362905	0.235414
N70	N	0.404098	-0.307451	0.199603
C71	C	0.582156	-0.362893	0.235403
N72	N	0.552862	-0.307450	0.199603
H73	H	0.720502	-0.381997	0.247740
H74	H	1.056856	-0.381923	1.068524
H75	H	1.054581	-0.898310	0.249875
C76	C	0.887325	-0.643538	0.930126
N77	N	0.851433	-0.698912	0.900838
C78	C	1.069166	-0.362998	0.574423
N79	N	1.105039	-0.307632	0.545158
H80	H	1.056809	-0.382046	0.712753
H81	H	1.056840	-0.381970	0.940279
C82	C	0.887286	-0.643669	0.574356
N83	N	0.851401	-0.699050	0.545062
C84	C	0.887302	-0.643602	0.722801
N85	N	0.851423	-0.698951	0.752074
