data_functionalizedCrystal
_audit_creation_method	'MofGen! by Chris Wilmer'
_symmetry_space_group_name_H-M	'P1'
_symmetry_Int_Tables_number	1
_symmetry_cell_setting	triclinic
loop_
_symmetry_equiv_pos_as_xyz
  x,y,z
_cell_length_a	12.784905
_cell_length_b	12.837942
_cell_length_c	11.295483
_cell_angle_alpha	85.469583
_cell_angle_beta	86.327249
_cell_angle_gamma	96.031870
loop_
_atom_site_label
_atom_site_type_symbol
_atom_site_fract_x
_atom_site_fract_y
_atom_site_fract_z
O1	O	1.417361	0.001122	-0.099032
O2	O	1.917361	0.501122	0.400968
O3	O	1.112362	-0.042870	-0.099033
O4	O	1.612362	0.457130	0.400967
O5	O	1.258098	0.129418	-0.099025
O6	O	1.758098	0.629418	0.400975
O7	O	1.271625	-0.171167	-0.099040
O8	O	1.771625	0.328833	0.400960
O9	O	1.245296	0.114307	0.099025
O10	O	1.745296	0.614307	0.599025
O11	O	1.099560	-0.057981	0.099017
O12	O	1.599560	0.442019	0.599017
O13	O	1.404559	-0.013989	0.099018
O14	O	1.904559	0.486011	0.599018
Cu15	Cu	1.250890	-0.037365	0.117101
Cu16	Cu	1.750890	0.462635	0.617101
Cu17	Cu	1.266031	-0.019494	-0.117116
Cu18	Cu	1.766031	0.480506	0.382884
O19	O	1.258823	-0.186278	0.099011
O20	O	1.758823	0.313722	0.599011
C21	C	1.066651	-0.053287	-0.000008
C22	C	1.566651	0.446713	0.499992
C23	C	0.949520	-0.061800	-0.000008
C24	C	1.449520	0.438200	0.499992
C25	C	0.735570	0.111644	-0.000021
C26	C	1.235570	0.611644	0.499979
C27	C	0.625514	0.103650	-0.000021
C28	C	1.125514	0.603650	0.499979
C29	C	0.619352	-0.085780	-0.000017
C30	C	1.119352	0.414220	0.499983
C31	C	0.729408	-0.077786	-0.000017
C32	C	1.229408	0.422214	0.499983
C33	C	0.787512	0.020929	-0.000017
C34	C	1.287512	0.520929	0.499983
C35	C	0.897569	0.028921	-0.000008
C36	C	1.397569	0.528921	0.499992
C37	C	0.891406	-0.160507	-0.000013
C38	C	1.391406	0.339493	0.499987
C39	C	0.781350	-0.168501	-0.000013
C40	C	1.281350	0.331499	0.499987
C41	C	1.247128	0.160072	-0.000001
C42	C	1.747128	0.660072	0.499999
C43	C	1.233500	0.273921	-0.000003
C44	C	1.733500	0.773921	0.499997
C45	C	1.450270	-0.003572	-0.000009
C46	C	1.950270	0.496428	0.499991
C47	C	1.567402	0.004941	-0.000017
C48	C	2.067402	0.504941	0.499983
C49	C	1.269793	-0.216931	-0.000016
C50	C	1.769793	0.283069	0.499984
C51	C	1.283421	-0.330779	-0.000022
C52	C	1.783421	0.169221	0.499978
N53	N	1.240249	-0.049933	0.281837
N54	N	1.740249	0.450067	0.781837
C55	C	1.397333	0.529648	-0.000027
C56	C	1.897333	1.029648	0.499973
C57	C	1.384533	0.636620	-0.000029
C58	C	1.884533	1.136620	0.499971
C59	C	1.195103	0.594840	-0.000017
C60	C	1.695103	1.094840	0.499983
C61	C	1.207902	0.487868	-0.000015
C62	C	1.707902	0.987868	0.499985
C63	C	1.309020	0.455276	-0.000018
C64	C	1.809020	0.955276	0.499982
C65	C	1.321819	0.348301	-0.000008
C66	C	1.821819	0.848301	0.499992
C67	C	1.132389	0.306524	-0.000004
C68	C	1.632389	0.806524	0.499996
C69	C	1.119590	0.413496	-0.000006
C70	C	1.619590	0.913496	0.499994
N71	N	1.276679	-0.006918	-0.281852
N72	N	1.776679	0.493082	0.218148
C73	C	1.353276	0.083611	0.531133
C74	C	1.853276	0.583611	1.031133
C75	C	1.345242	0.074107	0.655796
C76	C	1.845242	0.574107	1.155796
C77	C	1.216143	-0.078441	0.655829
C78	C	1.716143	0.421559	1.155829
C79	C	1.224177	-0.068936	0.531166
C80	C	1.724177	0.431064	1.031166
C81	C	1.292746	0.012091	0.468822
C82	C	1.792746	0.512091	0.968822
C83	C	1.300785	0.021590	0.344156
C84	C	1.800785	0.521590	0.844156
C85	C	1.171681	-0.130952	0.344192
C86	C	1.671681	0.369048	0.844192
C87	C	1.163647	-0.140456	0.468855
C88	C	1.663647	0.359544	0.968855
H89	H	0.782879	0.192021	-0.000013
H90	H	1.282879	0.692021	0.499987
O91	O	1.479788	0.716832	-0.000024
O92	O	1.979788	1.216832	0.499976
H93	H	1.483712	0.772721	-0.080750
H94	H	1.983712	1.272721	0.419250
H95	H	1.122397	-0.189191	0.293445
H96	H	1.622397	0.310809	0.793445
H97	H	1.409116	0.149581	0.480371
H98	H	1.909116	0.649581	0.980371
O99	O	1.374731	0.108985	0.276905
O100	O	1.874731	0.608985	0.776905
H101	H	1.415460	0.157127	0.341183
H102	H	1.915460	0.657127	0.841183
O103	O	1.430880	0.313150	-0.000014
O104	O	1.930880	0.813150	0.499986
H105	H	1.424947	0.226270	-0.000000
H106	H	1.924947	0.726270	0.500000
O107	O	1.506388	0.494483	-0.000032
O108	O	2.006388	0.994483	0.499968
H109	H	1.565650	0.564172	-0.000044
H110	H	2.065650	1.064172	0.499956
H111	H	0.583227	0.177519	-0.000026
H112	H	1.083227	0.677519	0.499974
H113	H	0.933709	-0.234374	-0.000003
H114	H	1.433709	0.265626	0.499997
H115	H	0.734027	-0.248871	-0.000018
H116	H	1.234027	0.251129	0.499982
O117	O	1.086045	0.630000	-0.000005
O118	O	1.586045	1.130000	0.499995
H119	H	1.091986	0.716879	-0.000000
H120	H	1.591986	1.216879	0.500000
O121	O	1.010529	0.448648	0.000013
O122	O	1.510529	0.948648	0.500013
H123	H	1.016462	0.535526	0.000022
H124	H	1.516462	1.035526	0.500022
O125	O	1.037127	0.226309	0.000001
O126	O	1.537127	0.726309	0.500001
H127	H	1.063012	0.146448	-0.000004
H128	H	1.563012	0.646448	0.499996
H129	H	0.944876	0.109300	-0.000006
H130	H	1.444876	0.609300	0.499994
O131	O	0.556661	-0.192237	-0.000021
O132	O	1.056661	0.307763	0.499979
H133	H	0.581516	-0.229962	-0.080748
H134	H	1.081516	0.270038	0.419252
O135	O	1.410539	0.151234	0.723008
O136	O	1.910539	0.651234	1.223008
H137	H	1.459575	0.209164	0.658708
H138	H	1.959575	0.709164	1.158708
O139	O	1.142190	-0.165830	0.723079
O140	O	1.642190	0.334170	1.223079
H141	H	1.146780	-0.160422	0.820233
H142	H	1.646780	0.339578	1.320233
H143	H	1.107816	-0.206425	0.519630
H144	H	1.607816	0.293575	1.019630
