data_functionalizedCrystal
_audit_creation_method	'MofGen! by Chris Wilmer'
_symmetry_space_group_name_H-M	'P1'
_symmetry_Int_Tables_number	1
_symmetry_cell_setting	triclinic
loop_
_symmetry_equiv_pos_as_xyz
  x,y,z
_cell_length_a	19.077236
_cell_length_b	16.120444
_cell_length_c	19.076919
_cell_angle_alpha	95.047308
_cell_angle_beta	89.887323
_cell_angle_gamma	95.330924
loop_
_atom_site_label
_atom_site_type_symbol
_atom_site_fract_x
_atom_site_fract_y
_atom_site_fract_z
Zn1	Zn	1.044773	-0.303872	-0.452996
Zn2	Zn	1.544773	0.196128	0.047004
Zn3	Zn	1.043445	-0.438024	-0.340987
Zn4	Zn	1.543445	0.061976	0.159013
Zn5	Zn	0.932008	-0.303433	-0.330758
Zn6	Zn	1.432008	0.196567	0.169242
Zn7	Zn	0.920767	-0.449191	-0.454183
Zn8	Zn	1.420767	0.050809	0.045817
O9	O	0.985248	-0.373630	-0.394731
O10	O	1.485248	0.126370	0.105269
O11	O	1.143130	-0.317177	-0.441922
O12	O	1.643130	0.182823	0.058078
O13	O	1.032811	-0.415312	-0.241100
O14	O	1.532811	0.084688	0.258900
O15	O	0.952227	-0.186347	-0.342195
O16	O	1.452227	0.313653	0.157805
O17	O	1.142154	-0.415738	-0.359629
O18	O	1.642154	0.084262	0.140371
O19	O	1.035074	-0.186670	-0.432003
O20	O	1.535074	0.313330	0.067997
O21	O	0.950939	-0.316429	-0.233585
O22	O	1.450939	0.183571	0.266415
O23	O	0.831983	-0.327258	-0.343346
O24	O	1.331983	0.172742	0.156654
O25	O	0.933068	-0.434772	-0.552555
O26	O	1.433068	0.065228	-0.052555
O27	O	0.823725	-0.434346	-0.434026
O28	O	1.323725	0.065654	0.065974
O29	O	1.024175	-0.328006	-0.551683
O30	O	1.524175	0.171994	-0.051683
O31	O	1.021911	-0.556649	-0.360781
O32	O	1.521911	-0.056649	0.139219
O33	O	0.931781	-0.564854	-0.443945
O34	O	1.431781	-0.064854	0.056055
C35	C	0.802305	-0.381967	-0.387706
C36	C	1.302305	0.118033	0.112294
C37	C	0.724040	-0.385555	-0.384718
C38	C	1.224040	0.114445	0.115282
C39	C	0.687773	-0.336013	-0.426231
C40	C	1.187773	0.163987	0.073769
C41	C	0.614235	-0.339380	-0.423417
C42	C	1.114235	0.160620	0.076583
C43	C	0.576965	-0.392293	-0.379093
C44	C	1.076965	0.107707	0.120907
C45	C	0.613237	-0.441836	-0.337575
C46	C	1.113237	0.058164	0.162425
C47	C	0.686774	-0.438465	-0.340386
C48	C	1.186774	0.061535	0.159614
C49	C	0.356979	-0.407866	-0.366082
C50	C	0.856979	0.092134	0.133918
C51	C	0.283436	-0.411236	-0.363276
C52	C	0.783436	0.088764	0.136724
C53	C	0.284439	-0.308778	-0.449118
C54	C	0.784439	0.191222	0.050882
C55	C	0.357977	-0.305414	-0.451928
C56	C	0.857977	0.194586	0.048072
C57	C	0.394243	-0.354954	-0.410407
C58	C	0.894243	0.145046	0.089593
N59	N	0.501797	-0.395738	-0.376218
N60	N	1.001797	0.104262	0.123782
N61	N	0.469410	-0.351505	-0.413279
N62	N	0.969410	0.148495	0.086721
C63	C	0.975500	-0.591125	-0.403618
C64	C	1.475500	-0.091125	0.096382
C65	C	0.971394	-0.684169	-0.407446
C66	C	1.471394	-0.184169	0.092554
C67	C	1.006718	-0.891888	-0.375031
C68	C	1.506718	-0.391888	0.124969
C69	C	0.963909	-0.854515	-0.414443
C70	C	1.463909	-0.354515	0.085557
C71	C	0.968075	-0.759725	-0.410549
C72	C	1.468075	-0.259725	0.089451
C73	C	1.002553	-0.986686	-0.378925
C74	C	1.502553	-0.486686	0.121075
C75	C	1.168905	-0.365261	-0.401784
C76	C	1.668905	0.134739	0.098216
C77	C	1.247169	-0.361694	-0.404790
C78	C	1.747169	0.138306	0.095210
C79	C	0.977516	-0.382684	-0.578381
C80	C	1.477516	0.117316	-0.078381
C81	C	0.974221	-0.386542	-0.656642
C82	C	1.474221	0.113458	-0.156642
C83	C	0.995053	-0.155285	-0.385825
C84	C	1.495053	0.344715	0.114175
C85	C	0.999231	-0.062240	-0.382030
C86	C	1.499231	0.437760	0.117970
C87	C	1.020104	-0.332770	-0.692956
C88	C	1.520104	0.167230	-0.192956
C89	C	1.017000	-0.336392	-0.766490
C90	C	1.517000	0.163608	-0.266490
C91	C	0.968015	-0.393791	-0.803709
C92	C	1.468015	0.106209	-0.303709
C93	C	0.922126	-0.447566	-0.767390
C94	C	1.422126	0.052434	-0.267390
C95	C	0.925228	-0.443939	-0.693857
C96	C	1.425228	0.056061	-0.193857
C97	C	0.953649	-0.410596	-1.023677
C98	C	1.453649	0.089404	-0.523677
C99	C	0.950552	-0.414221	-1.097215
C100	C	1.450552	0.085779	-0.597215
C101	C	1.045425	-0.303045	-1.096311
C102	C	1.545425	0.196955	-0.596311
C103	C	1.048526	-0.299427	-1.022777
C104	C	1.548526	0.200573	-0.522777
C105	C	1.002635	-0.353198	-0.986463
C106	C	1.502635	0.146802	-0.486463
N107	N	0.964842	-0.397497	-0.878873
N108	N	1.464842	0.102503	-0.378873
N109	N	1.005805	-0.349488	-0.911301
N110	N	1.505805	0.150512	-0.411301
C111	C	0.992994	-0.364549	-0.211794
C112	C	1.492994	0.135451	0.288206
C113	C	0.996436	-0.360449	-0.133529
C114	C	1.496436	0.139551	0.366471
H115	H	0.584709	-0.299040	-0.457224
H116	H	1.084709	0.200960	0.042776
H117	H	1.082786	-0.259267	-1.125885
H118	H	1.582786	0.240733	-0.625885
C119	C	0.871423	-0.854474	-0.499625
C120	C	1.371423	-0.354474	0.000375
C121	C	0.910203	-0.907415	-0.463938
C122	C	1.410203	-0.407415	0.036062
H123	H	0.838271	-0.887137	-0.530180
H124	H	1.338271	-0.387137	-0.030180
H125	H	0.847280	-0.820136	-0.466518
H126	H	1.347280	-0.320136	0.033482
H127	H	0.902421	-0.820255	-0.526387
H128	H	1.402421	-0.320255	-0.026387
H129	H	0.879205	-0.941630	-0.437171
H130	H	1.379205	-0.441630	0.062829
H131	H	0.934347	-0.941769	-0.497048
H132	H	1.434347	-0.441769	0.002952
C133	C	0.198279	-0.305781	-0.540215
C134	C	0.698279	0.194219	-0.040215
C135	C	0.244572	-0.254320	-0.494750
C136	C	0.744572	0.245680	0.005250
H137	H	0.173665	-0.272156	-0.568382
H138	H	0.673665	0.227844	-0.068382
H139	H	0.224207	-0.342303	-0.569686
H140	H	0.724207	0.157697	-0.069686
H141	H	0.165562	-0.337773	-0.513408
H142	H	0.665562	0.162227	-0.013408
H143	H	0.277292	-0.222331	-0.521556
H144	H	0.777292	0.277669	-0.021556
H145	H	0.218642	-0.217783	-0.465276
H146	H	0.718642	0.282217	0.034724
H147	H	1.046494	-0.852700	-0.338368
H148	H	1.546494	-0.352700	0.161632
C149	C	1.113564	-0.223237	-0.699455
C150	C	1.613564	0.276763	-0.199455
C151	C	1.073950	-0.269672	-0.652049
C152	C	1.573950	0.230328	-0.152049
H153	H	1.146803	-0.184277	-0.674200
H154	H	1.646803	0.315723	-0.174200
H155	H	1.137650	-0.259896	-0.730657
H156	H	1.637650	0.240104	-0.230657
H157	H	1.083105	-0.194033	-0.725651
H158	H	1.583105	0.305967	-0.225651
H159	H	1.104409	-0.298880	-0.625856
H160	H	1.604409	0.201120	-0.125856
H161	H	1.049863	-0.233007	-0.620835
H162	H	1.549863	0.266993	-0.120835
H163	H	0.916291	-0.454392	-0.994121
H164	H	1.416291	0.045608	-0.494121
C165	C	0.707221	-0.300297	-0.544724
C166	C	1.207221	0.199703	-0.044724
C167	C	0.728736	-0.277850	-0.474956
C168	C	1.228736	0.222150	0.025044
H169	H	0.732507	-0.264383	-0.574802
H170	H	1.232507	0.235617	-0.074802
H171	H	0.716333	-0.356505	-0.557705
H172	H	1.216333	0.143495	-0.057705
H173	H	0.658234	-0.295212	-0.548980
H174	H	1.158234	0.204788	-0.048980
H175	H	0.777723	-0.282940	-0.470698
H176	H	1.277723	0.217060	0.029302
H177	H	0.719630	-0.221628	-0.461970
H178	H	1.219630	0.278372	0.038030
H179	H	0.388317	-0.262330	-0.488024
H180	H	0.888317	0.237670	0.011976
H181	H	0.910660	-0.460964	-1.127517
H182	H	1.410660	0.039036	-0.627517
C183	C	1.028347	-0.227404	-0.844947
C184	C	1.528347	0.272596	-0.344947
C185	C	1.067434	-0.277273	-0.806399
C186	C	1.567434	0.222727	-0.306399
H187	H	1.059484	-0.190898	-0.869579
H188	H	1.559484	0.309102	-0.369579
H189	H	0.998740	-0.262104	-0.877639
H190	H	1.498740	0.237896	-0.377639
H191	H	1.000316	-0.195380	-0.813763
H192	H	1.500316	0.304620	-0.313763
H193	H	1.095462	-0.309302	-0.837584
H194	H	1.595462	0.190698	-0.337584
H195	H	1.097053	-0.242569	-0.773704
H196	H	1.597053	0.257431	-0.273704
C197	C	1.090123	-0.154989	-0.995707
C198	C	1.590123	0.345011	-0.495707
C199	C	1.102367	-0.236311	-0.981882
C200	C	1.602367	0.263689	-0.481882
H201	H	1.123362	-0.116022	-0.970461
H202	H	1.623362	0.383978	-0.470461
H203	H	1.094836	-0.149476	-1.044695
H204	H	1.594836	0.350524	-0.544695
H205	H	1.043870	-0.144316	-0.981328
H206	H	1.543870	0.355684	-0.481328
H207	H	1.148619	-0.246987	-0.996266
H208	H	1.648619	0.253013	-0.496266
H209	H	1.097661	-0.241828	-0.932883
H210	H	1.597661	0.258172	-0.432883
C211	C	0.875248	-0.502494	-0.880511
C212	C	1.375248	-0.002494	-0.380511
C213	C	0.868280	-0.510661	-0.808299
C214	C	1.368280	-0.010661	-0.308299
H215	H	0.842008	-0.541453	-0.905764
H216	H	1.342008	-0.041453	-0.405764
H217	H	0.866960	-0.447320	-0.889869
H218	H	1.366960	0.052680	-0.389869
H219	H	0.921502	-0.513186	-0.894873
H220	H	1.421502	-0.013186	-0.394873
H221	H	0.822027	-0.499963	-0.793935
H222	H	1.322027	0.000037	-0.293935
H223	H	0.876563	-0.565848	-0.798936
H224	H	1.376563	-0.065848	-0.298936
C225	C	0.289828	-0.512171	-0.278697
C226	C	0.789828	-0.012171	0.221303
C227	C	0.242467	-0.469401	-0.314550
C228	C	0.742467	0.030599	0.185450
H229	H	0.264534	-0.548075	-0.248617
H230	H	0.764534	-0.048075	0.251383
H231	H	0.315793	-0.544442	-0.311733
H232	H	0.815793	-0.044442	0.188267
H233	H	0.321269	-0.472998	-0.251417
H234	H	0.821269	0.027002	0.248583
H235	H	0.211029	-0.508573	-0.341835
H236	H	0.711029	-0.008573	0.158165
H237	H	0.216490	-0.437127	-0.281510
H238	H	0.716490	0.062873	0.218490
C239	C	0.585711	-0.582858	-0.308005
C240	C	1.085711	-0.082858	0.191995
C241	C	0.572273	-0.500002	-0.288853
C242	C	1.072273	-0.000002	0.211147
H243	H	0.560425	-0.618767	-0.277923
H244	H	1.060425	-0.118767	0.222077
H245	H	0.571124	-0.598074	-0.355334
H246	H	1.071124	-0.098074	0.144666
H247	H	0.634700	-0.587928	-0.303733
H248	H	1.134700	-0.087928	0.196267
H249	H	0.523284	-0.494931	-0.293129
H250	H	1.023284	0.005069	0.206871
H251	H	0.586856	-0.484782	-0.241512
H252	H	1.086856	0.015218	0.258488
C253	C	0.435050	-0.516172	-0.363903
C254	C	0.935050	-0.016172	0.136097
C255	C	0.396835	-0.462329	-0.320449
C256	C	0.896835	0.037671	0.179551
H257	H	0.459659	-0.549793	-0.335729
H258	H	0.959659	-0.049793	0.164271
H259	H	0.403644	-0.551067	-0.394748
H260	H	0.903644	-0.051067	0.105252
H261	H	0.467772	-0.484167	-0.390695
H262	H	0.967772	0.015833	0.109305
H263	H	0.364108	-0.494334	-0.293661
H264	H	0.864108	0.005666	0.206339
H265	H	0.428244	-0.427430	-0.289592
H266	H	0.928244	0.072570	0.210408
C267	C	0.833473	-0.455817	-0.608001
C268	C	1.333473	0.044183	-0.108001
C269	C	0.874791	-0.503053	-0.653943
C270	C	1.374791	-0.003053	-0.153943
H271	H	0.802330	-0.492314	-0.583366
H272	H	1.302330	0.007686	-0.083366
H273	H	0.863087	-0.421123	-0.575312
H274	H	1.363087	0.078877	-0.075312
H275	H	0.806971	-0.421987	-0.634171
H276	H	1.306971	0.078013	-0.134171
H277	H	0.901297	-0.536878	-0.627772
H278	H	1.401297	-0.036878	-0.127772
H279	H	0.845173	-0.537761	-0.686637
H280	H	1.345173	-0.037761	-0.186637
H281	H	0.716302	-0.478806	-0.306580
H282	H	1.216302	0.021194	0.193420
