data_functionalizedCrystal
_audit_creation_method	'MofGen! by Chris Wilmer'
_symmetry_space_group_name_H-M	'P1'
_symmetry_Int_Tables_number	1
_symmetry_cell_setting	triclinic
loop_
_symmetry_equiv_pos_as_xyz
  x,y,z
_cell_length_a	16.992694
_cell_length_b	11.295483
_cell_length_c	16.992695
_cell_angle_alpha	94.374931
_cell_angle_beta	89.331777
_cell_angle_gamma	94.379711
loop_
_atom_site_label
_atom_site_type_symbol
_atom_site_fract_x
_atom_site_fract_y
_atom_site_fract_z
O1	O	1.055813	0.098876	-0.161955
O2	O	1.389147	0.432209	0.171378
O3	O	1.722480	0.765543	0.504712
O4	O	0.827415	0.098911	-0.160122
O5	O	1.160748	0.432244	0.173211
O6	O	1.494082	0.765578	0.506545
O7	O	0.940698	0.098884	-0.046839
O8	O	1.274031	0.432218	0.286494
O9	O	1.607365	0.765551	0.619828
O10	O	0.942530	0.098903	-0.275238
O11	O	1.275864	0.432236	0.058095
O12	O	1.609197	0.765569	0.391429
O13	O	0.930747	-0.099164	-0.056773
O14	O	1.264080	0.234169	0.276561
O15	O	1.597414	0.567502	0.609894
O16	O	0.817464	-0.099137	-0.170056
O17	O	1.150797	0.234196	0.163278
O18	O	1.484131	0.567529	0.496611
O19	O	1.045862	-0.099172	-0.171889
O20	O	1.379196	0.234161	0.161445
O21	O	1.712529	0.567494	0.494778
Cu22	Cu	0.930755	-0.117238	-0.171879
Cu23	Cu	1.264088	0.216095	0.161454
Cu24	Cu	1.597421	0.549428	0.494788
Cu25	Cu	0.942523	0.116977	-0.160132
Cu26	Cu	1.275856	0.450310	0.173202
Cu27	Cu	1.609189	0.783644	0.506535
O28	O	0.932579	-0.099146	-0.285172
O29	O	1.265913	0.234188	0.048162
O30	O	1.599246	0.567521	0.381495
C31	C	0.793080	-0.000109	-0.162733
C32	C	1.126413	0.333225	0.170600
C33	C	1.459746	0.666558	0.503934
C34	C	0.705596	-0.000096	-0.155703
C35	C	1.038929	0.333238	0.177630
C36	C	1.372262	0.666571	0.510963
N37	N	0.922483	-0.281973	-0.180142
N38	N	1.255817	0.051361	0.153192
N39	N	1.589150	0.384694	0.486525
C40	C	0.659605	-0.000091	-0.223521
C41	C	0.992938	0.333242	0.109812
C42	C	1.326272	0.666576	0.443145
C43	C	0.577403	-0.000108	-0.216913
C44	C	0.910737	0.333225	0.116420
C45	C	1.244070	0.666559	0.449754
C46	C	0.541194	-0.000121	-0.142486
C47	C	0.874528	0.333212	0.190847
C48	C	1.207861	0.666546	0.524181
C49	C	0.587191	-0.000129	-0.074664
C50	C	0.920524	0.333204	0.258670
C51	C	1.253858	0.666538	0.592003
C52	C	0.669391	-0.000121	-0.081273
C53	C	1.002724	0.333213	0.252061
C54	C	1.336057	0.666546	0.585394
C55	C	0.295878	-0.000155	-0.115093
C56	C	0.629212	0.333178	0.218240
C57	C	0.962545	0.666512	0.551573
C58	C	0.213673	-0.000160	-0.108489
C59	C	0.547006	0.333173	0.224844
C60	C	0.880340	0.666507	0.558178
C61	C	0.203891	-0.000141	-0.250739
C62	C	0.537224	0.333192	0.082594
C63	C	0.870557	0.666526	0.415927
C64	C	0.286093	-0.000125	-0.257342
C65	C	0.619426	0.333208	0.075992
C66	C	0.952759	0.666541	0.409325
C67	C	0.332082	-0.000140	-0.189519
C68	C	0.665415	0.333194	0.143814
C69	C	0.998749	0.666527	0.477147
N70	N	0.457172	-0.000135	-0.135730
N71	N	0.790505	0.333199	0.197604
N72	N	1.123838	0.666532	0.530937
N73	N	0.416103	-0.000135	-0.196277
N74	N	0.749436	0.333199	0.137056
N75	N	1.082769	0.666532	0.470390
C76	C	1.010339	-0.531283	-0.092341
C77	C	1.343672	-0.197950	0.240992
C78	C	1.677006	0.135384	0.574325
C79	C	1.004094	-0.655945	-0.098591
C80	C	1.337427	-0.322612	0.234742
C81	C	1.670761	0.010722	0.568075
C82	C	0.903745	-0.655961	-0.198887
C83	C	1.237079	-0.322628	0.134446
C84	C	1.570412	0.010705	0.467780
C85	C	0.909990	-0.531299	-0.192637
C86	C	1.243323	-0.197966	0.140696
C87	C	1.576657	0.135367	0.474030
C88	C	0.963290	-0.468964	-0.139363
C89	C	1.296623	-0.135631	0.193970
C90	C	1.629956	0.197702	0.527303
C91	C	0.969538	-0.344300	-0.133118
C92	C	1.302871	-0.010967	0.200215
C93	C	1.636205	0.322367	0.533549
C94	C	0.869186	-0.344319	-0.233409
C95	C	1.202519	-0.010985	0.099924
C96	C	1.535852	0.322348	0.433258
C97	C	0.862941	-0.468981	-0.239659
C98	C	1.196274	-0.135647	0.093674
C99	C	1.529607	0.197686	0.427008
C100	C	1.080198	-0.000150	-0.169278
C101	C	1.413531	0.333183	0.164056
C102	C	1.746865	0.666517	0.497389
C103	C	1.167682	-0.000155	-0.176307
C104	C	1.501016	0.333178	0.157027
C105	C	1.834349	0.666511	0.490360
C106	C	0.933367	-0.000139	-0.022446
C107	C	1.266700	0.333194	0.310888
C108	C	1.600034	0.666527	0.644221
C109	C	0.926338	-0.000138	0.065039
C110	C	1.259672	0.333195	0.398372
C111	C	1.593005	0.666529	0.731706
N112	N	0.950800	0.281711	-0.151863
N113	N	1.284133	0.615045	0.181470
N114	N	1.617467	0.948378	0.514803
C115	C	0.939911	-0.000119	-0.309565
C116	C	1.273244	0.333214	0.023768
C117	C	1.606577	0.666547	0.357102
C118	C	0.946940	-0.000113	-0.397049
C119	C	1.280273	0.333221	-0.063716
C120	C	1.613606	0.666554	0.269617
C121	C	0.994156	-0.000150	0.111029
C122	C	1.327489	0.333184	0.444363
C123	C	1.660822	0.666517	0.777696
C124	C	0.987547	-0.000137	0.193231
C125	C	1.320881	0.333196	0.526564
C126	C	1.654214	0.666529	0.859897
C127	C	0.913120	-0.000122	0.229440
C128	C	1.246454	0.333211	0.562773
C129	C	1.579787	0.666545	0.896106
C130	C	0.845298	-0.000107	0.183444
C131	C	1.178631	0.333227	0.516777
C132	C	1.511965	0.666560	0.850110
C133	C	0.851908	-0.000111	0.101244
C134	C	1.185241	0.333223	0.434578
C135	C	1.518574	0.666556	0.767911
C136	C	0.885727	-0.000101	0.474755
C137	C	1.219060	0.333232	0.808088
C138	C	1.552394	0.666565	1.141422
C139	C	0.879122	-0.000101	0.556960
C140	C	1.212456	0.333232	0.890294
C141	C	1.545789	0.666565	1.223627
C142	C	1.021372	-0.000130	0.566742
C143	C	1.354706	0.333204	0.900075
C144	C	1.688039	0.666537	1.233409
C145	C	1.027975	-0.000141	0.484540
C146	C	1.361308	0.333193	0.817874
C147	C	1.694642	0.666526	1.151207
C148	C	0.960153	-0.000119	0.438552
C149	C	1.293486	0.333214	0.771885
C150	C	1.626820	0.666548	1.105218
N151	N	0.906364	-0.000113	0.313462
N152	N	1.239697	0.333220	0.646796
N153	N	1.573030	0.666553	0.980129
N154	N	0.966911	-0.000119	0.354531
N155	N	1.300244	0.333214	0.687864
N156	N	1.633577	0.666547	1.021198
H157	H	0.689080	-0.000079	-0.284128
H158	H	1.022413	0.333254	0.049206
H159	H	1.355747	0.666587	0.382539
F160	F	1.107192	-0.000127	0.446012
F161	F	1.440525	0.333207	0.779345
F162	F	1.773858	0.666540	1.112678
H163	H	0.539961	-0.000103	-0.272138
H164	H	0.873294	0.333230	0.061196
H165	H	1.206628	0.666564	0.394529
F166	F	0.766088	-0.000077	0.221983
F167	F	1.099421	0.333256	0.555316
F168	F	1.432754	0.666590	0.888649
F169	F	0.548652	-0.000151	0.004547
F170	F	0.881986	0.333183	0.337881
F171	F	1.215319	0.666516	0.671214
F172	F	0.799903	-0.000091	0.595494
F173	F	1.133237	0.333243	0.928828
F174	F	1.466570	0.666576	1.262161
H175	H	0.333313	-0.000168	-0.059867
H176	H	0.666646	0.333166	0.273466
H177	H	0.999980	0.666499	0.606799
F178	F	1.054169	-0.722265	-0.048542
F179	F	1.387502	-0.388932	0.284791
F180	F	1.720836	-0.055598	0.618124
H181	H	0.706836	-0.000124	-0.026048
H182	H	1.040169	0.333210	0.307285
H183	H	1.373502	0.666543	0.640619
F184	F	0.779727	-0.000095	0.052298
F185	F	1.113060	0.333239	0.385632
F186	F	1.446394	0.666572	0.718965
H187	H	0.315569	-0.000101	-0.317947
H188	H	0.648902	0.333232	0.015386
H189	H	0.982235	0.666566	0.348719
F190	F	1.059728	-0.000152	0.242174
F191	F	1.393062	0.333181	0.575507
F192	F	1.726395	0.666515	0.908840
F193	F	0.154940	-0.000128	-0.322916
F194	F	0.488274	0.333205	0.010418
F195	F	0.821607	0.666538	0.343751
H196	H	0.184195	-0.000169	-0.047879
H197	H	0.517528	0.333164	0.285455
H198	H	0.850861	0.666497	0.618788
H199	H	0.860345	-0.706731	-0.242256
H200	H	1.193678	-0.373397	0.091078
H201	H	1.527011	-0.040064	0.424411
H202	H	1.012939	-0.293548	-0.089742
H203	H	1.346272	0.039785	0.243591
H204	H	1.679605	0.373119	0.576925
H205	H	0.819543	-0.519748	-0.283032
H206	H	1.152876	-0.186415	0.050302
H207	H	1.486210	0.146919	0.383635
H208	H	0.830877	-0.293565	-0.271700
H209	H	1.164210	0.039769	0.061633
H210	H	1.497544	0.373102	0.394967
F211	F	1.073371	-0.000178	0.072500
F212	F	1.406704	0.333156	0.405833
F213	F	1.740038	0.666489	0.739167
H214	H	1.076589	-0.000145	0.604195
H215	H	1.409922	0.333188	0.937528
H216	H	1.743256	0.666522	1.270861
F217	F	1.067071	-0.464941	-0.035651
F218	F	1.400404	-0.131608	0.297682
F219	F	1.733738	0.201726	0.631015
F220	F	0.813544	-0.000075	0.425821
F221	F	1.146877	0.333258	0.759154
F222	F	1.480211	0.666591	1.092488
