data_functionalizedCrystal
_audit_creation_method	'MofGen! by Chris Wilmer'
_symmetry_space_group_name_H-M	'P1'
_symmetry_Int_Tables_number	1
_symmetry_cell_setting	triclinic
loop_
_symmetry_equiv_pos_as_xyz
  x,y,z
_cell_length_a	18.101398
_cell_length_b	18.101395
_cell_length_c	14.908694
_cell_angle_alpha	93.269480
_cell_angle_beta	86.687943
_cell_angle_gamma	90.029256
loop_
_atom_site_label
_atom_site_type_symbol
_atom_site_fract_x
_atom_site_fract_y
_atom_site_fract_z
Zn1	Zn	1.156271	-0.319010	-0.509986
Zn2	Zn	1.656271	0.180990	-0.009986
Zn3	Zn	1.149023	-0.435717	-0.359130
Zn4	Zn	1.649023	0.064283	0.140870
Zn5	Zn	1.025287	-0.311891	-0.359155
Zn6	Zn	1.525287	0.188109	0.140845
Zn7	Zn	1.032379	-0.442809	-0.509952
Zn8	Zn	1.532379	0.057191	-0.009952
O9	O	1.090740	-0.377357	-0.434556
O10	O	1.590740	0.122643	0.065444
O11	O	1.258943	-0.334503	-0.489978
O12	O	1.758943	0.165497	0.010022
O13	O	1.126608	-0.413344	-0.232891
O14	O	1.626608	0.086656	0.267109
O15	O	1.042728	-0.209204	-0.379188
O16	O	1.542728	0.290796	0.120812
O17	O	1.253618	-0.420247	-0.379145
O18	O	1.753618	0.079753	0.120855
O19	O	1.138961	-0.214434	-0.490003
O20	O	1.638961	0.285566	0.009997
O21	O	1.035700	-0.322369	-0.232910
O22	O	1.535700	0.177631	0.267090
O23	O	0.922595	-0.329246	-0.379155
O24	O	1.422595	0.170754	0.120845
O25	O	1.054815	-0.432334	-0.636199
O26	O	1.554815	0.067666	-0.136199
O27	O	0.927805	-0.425431	-0.489945
O28	O	1.427805	0.074569	0.010055
O29	O	1.145838	-0.341380	-0.636224
O30	O	1.645838	0.158620	-0.136224
O31	O	1.133485	-0.540289	-0.379112
O32	O	1.633485	-0.040289	0.120888
O33	O	1.047787	-0.545500	-0.489920
O34	O	1.547787	-0.045500	0.010080
C35	C	0.898329	-0.377336	-0.434550
C36	C	1.398329	0.122664	0.065450
C37	C	0.816016	-0.377346	-0.434568
C38	C	1.316016	0.122654	0.065432
C39	C	0.665308	-0.377360	-0.434567
C40	C	1.165308	0.122640	0.065433
C41	C	0.637252	-0.437960	-0.504165
C42	C	1.137252	0.062040	-0.004165
C43	C	0.551624	-0.438182	-0.503958
C44	C	1.051624	0.061818	-0.003958
C45	C	0.516925	-0.377373	-0.434567
C46	C	1.016925	0.122627	0.065433
C47	C	0.543470	-0.393694	-0.339378
C48	C	1.043470	0.106306	0.160622
C49	C	0.629134	-0.394122	-0.339780
C50	C	1.129134	0.105878	0.160220
C51	C	0.634959	-0.300257	-0.459327
C52	C	1.134959	0.199743	0.040673
C53	C	0.549408	-0.300785	-0.461424
C54	C	1.049408	0.199215	0.038576
C55	C	0.433065	-0.377379	-0.434561
C56	C	0.933065	0.122621	0.065439
C57	C	0.749167	-0.377355	-0.434566
C58	C	1.249167	0.122645	0.065434
C59	C	1.090640	-0.569766	-0.434529
C60	C	1.590640	-0.069766	0.065471
C61	C	1.090666	-0.652081	-0.434548
C62	C	1.590666	-0.152081	0.065452
C63	C	1.090831	-0.951174	-0.434597
C64	C	1.590831	-0.451174	0.065403
C65	C	1.037053	-0.923166	-0.504487
C66	C	1.537053	-0.423166	-0.004487
C67	C	1.036771	-0.837538	-0.504269
C68	C	1.536771	-0.337538	-0.004269
C69	C	1.090749	-0.802791	-0.434573
C70	C	1.590749	-0.302791	0.065427
C71	C	1.065118	-0.829440	-0.339498
C72	C	1.565118	-0.329440	0.160502
C73	C	1.064770	-0.915105	-0.339916
C74	C	1.564770	-0.415105	0.160084
C75	C	1.170326	-0.920673	-0.458945
C76	C	1.670326	-0.420673	0.041055
C77	C	1.169964	-0.835121	-0.461030
C78	C	1.669964	-0.335121	0.038970
C79	C	1.090704	-0.718930	-0.434554
C80	C	1.590704	-0.218930	0.065446
C81	C	1.090874	-1.035034	-0.434609
C82	C	1.590874	-0.535034	0.065391
C83	C	1.283902	-0.377378	-0.434563
C84	C	1.783902	0.122622	0.065437
C85	C	1.366217	-0.377387	-0.434565
C86	C	1.866217	0.122613	0.065435
C87	C	1.101926	-0.388442	-0.669860
C88	C	1.601926	0.111558	-0.169860
C89	C	1.106692	-0.393166	-0.770132
C90	C	1.606692	0.106834	-0.270132
C91	C	1.090862	-0.184197	-0.434602
C92	C	1.590862	0.315803	0.065398
C93	C	1.090914	-0.101884	-0.434622
C94	C	1.590914	0.398116	0.065378
C95	C	1.020969	-0.307313	-0.958576
C96	C	1.520969	0.192687	-0.458576
C97	C	1.025445	-0.311749	-1.052791
C98	C	1.525445	0.188251	-0.552791
C99	C	1.120116	-0.406477	-1.052779
C100	C	1.620116	0.093523	-0.552779
C101	C	1.115640	-0.402041	-0.958564
C102	C	1.615640	0.097959	-0.458564
C103	C	1.066066	-0.352456	-0.911466
C104	C	1.566066	0.147544	-0.411466
C105	C	1.061594	-0.348017	-0.817249
C106	C	1.561594	0.151983	-0.317249
C107	C	1.156261	-0.442749	-0.817239
C108	C	1.656261	0.057251	-0.317239
C109	C	1.160737	-0.447185	-0.911454
C110	C	1.660737	0.052815	-0.411454
C111	C	1.079641	-0.366261	-0.200167
C112	C	1.579641	0.133739	0.299833
C113	C	1.075018	-0.361329	-0.099895
C114	C	1.575018	0.138671	0.400105
H115	H	0.648085	-0.450338	-0.318853
H116	H	1.148085	0.049662	0.181147
H117	H	1.053329	-0.819812	-0.574766
H118	H	1.553329	-0.319812	-0.074766
H119	H	1.006525	-0.934170	-0.319290
H120	H	1.506525	-0.434170	0.180710
N121	N	0.988747	-0.799796	-0.311687
N122	N	1.488747	-0.299796	0.188313
H123	H	0.952679	-0.818357	-0.356986
H124	H	1.452679	-0.318357	0.143014
H125	H	0.972806	-0.817252	-0.250412
H126	H	1.472806	-0.317252	0.249588
N127	N	0.528223	-0.424695	-0.597237
N128	N	1.028223	0.075305	-0.097237
H129	H	0.573569	-0.418630	-0.638882
H130	H	1.073569	0.081370	-0.138882
H131	H	0.498192	-0.468030	-0.620359
H132	H	0.998192	0.031970	-0.120359
N133	N	1.173575	-0.459952	-1.103599
N134	N	1.673575	0.040048	-0.603599
H135	H	1.225720	-0.447686	-1.087221
H136	H	1.725720	0.052314	-0.587221
H137	H	1.161200	-0.512072	-1.087175
H138	H	1.661200	-0.012072	-0.587175
N139	N	1.200123	-0.953487	-0.549211
N140	N	1.700123	-0.453487	-0.049211
H141	H	1.162389	-0.988462	-0.575236
H142	H	1.662389	-0.488462	-0.075236
H143	H	1.210551	-0.912494	-0.591338
H144	H	1.710551	-0.412494	-0.091338
H145	H	0.988723	-0.274988	-1.091144
H146	H	1.488723	0.225012	-0.591144
N147	N	1.214197	-0.500670	-0.962254
N148	N	1.714197	-0.000670	-0.462254
H149	H	1.210188	-0.496633	-1.029088
H150	H	1.710188	0.003367	-0.529088
H151	H	1.266313	-0.488373	-0.945796
H152	H	1.766313	0.011627	-0.445796
N153	N	1.204908	-0.491437	-0.766424
N154	N	1.704908	0.008563	-0.266424
H155	H	1.194472	-0.481179	-0.699593
H156	H	1.694472	0.018821	-0.199593
H157	H	1.194215	-0.545103	-0.782975
H158	H	1.694215	-0.045103	-0.282975
H159	H	1.053490	-0.947062	-0.575213
H160	H	1.553490	-0.447062	-0.075213
H161	H	0.661224	-0.428469	-0.574954
H162	H	1.161224	0.071531	-0.074954
H163	H	0.980610	-0.266932	-0.920228
H164	H	1.480610	0.233068	-0.420228
H165	H	1.021231	-0.307640	-0.778903
H166	H	1.521231	0.192360	-0.278903
H167	H	1.189211	-0.818070	-0.531000
H168	H	1.689211	-0.318070	-0.031000
N169	N	1.114050	-0.939176	-0.268562
N170	N	1.614050	-0.439176	0.231438
H171	H	1.114202	-0.994959	-0.268271
H172	H	1.614202	-0.494959	0.231729
H173	H	1.166084	-0.921054	-0.281948
H174	H	1.666084	-0.421054	0.218052
N175	N	0.664691	-0.513337	-0.482668
N176	N	1.164691	-0.013337	0.017332
H177	H	0.621060	-0.546712	-0.469925
H178	H	1.121060	-0.046712	0.030075
H179	H	0.696191	-0.535336	-0.535653
H180	H	1.196191	-0.035336	-0.035653
H181	H	0.530324	-0.495409	-0.487531
H182	H	1.030324	0.004591	0.012469
N183	N	0.513172	-0.336764	-0.268803
N184	N	1.013172	0.163236	0.231197
H185	H	0.481837	-0.362130	-0.221512
H186	H	0.981837	0.137870	0.278488
H187	H	0.555541	-0.310275	-0.239754
H188	H	1.055541	0.189725	0.260246
N189	N	0.653247	-0.337859	-0.268713
N190	N	1.153247	0.162141	0.231287
H191	H	0.631598	-0.351071	-0.207761
H192	H	1.131598	0.148929	0.292239
H193	H	0.709031	-0.337727	-0.268499
H194	H	1.209031	0.162273	0.231501
H195	H	0.520983	-0.449271	-0.318094
H196	H	1.020983	0.050729	0.181906
H197	H	1.102856	-0.806539	-0.286005
H198	H	1.602856	-0.306539	0.213995
N199	N	1.226333	-0.803817	-0.398516
N200	N	1.726333	-0.303817	0.101484
H201	H	1.266007	-0.777011	-0.434259
H202	H	1.766007	-0.277011	0.065741
H203	H	1.201151	-0.768104	-0.351959
H204	H	1.701151	-0.268104	0.148041
H205	H	0.659816	-0.284460	-0.527569
H206	H	1.159816	0.215540	-0.027569
N207	N	0.526924	-0.284357	-0.554215
N208	N	1.026924	0.215643	-0.054215
H209	H	0.495825	-0.326345	-0.578761
H210	H	0.995825	0.173655	-0.078761
H211	H	0.497275	-0.236923	-0.550581
H212	H	0.997275	0.263077	-0.050581
H213	H	0.652836	-0.255166	-0.408641
H214	H	1.152836	0.244834	0.091359
N215	N	0.518154	-0.238295	-0.399224
N216	N	1.018154	0.261705	0.100776
H217	H	0.482336	-0.258838	-0.352544
H218	H	0.982336	0.241162	0.147456
H219	H	0.559794	-0.212085	-0.368342
H220	H	1.059794	0.287915	0.131658
H221	H	1.210447	-0.938514	-0.408041
H222	H	1.710447	-0.438514	0.091959
H223	H	0.977939	-0.816349	-0.488141
H224	H	1.477939	-0.316349	0.011859
N225	N	0.959600	-0.950753	-0.483401
N226	N	1.459600	-0.450753	0.016599
H227	H	0.959197	-0.981314	-0.428773
H228	H	1.459197	-0.481314	0.071227
H229	H	0.925009	-0.907152	-0.470874
H230	H	1.425009	-0.407152	0.029126
