data_functionalizedCrystal
_audit_creation_method	'MofGen! by Chris Wilmer'
_symmetry_space_group_name_H-M	'P1'
_symmetry_Int_Tables_number	1
_symmetry_cell_setting	triclinic
loop_
_symmetry_equiv_pos_as_xyz
  x,y,z
_cell_length_a	10.685980
_cell_length_b	21.295417
_cell_length_c	10.686551
_cell_angle_alpha	85.588773
_cell_angle_beta	81.591741
_cell_angle_gamma	94.395916
loop_
_atom_site_label
_atom_site_type_symbol
_atom_site_fract_x
_atom_site_fract_y
_atom_site_fract_z
Zn1	Zn	1.995712	-0.141098	-0.866666
Zn2	Zn	1.979228	-0.255140	-0.654372
Zn3	Zn	1.767130	-0.158619	-0.638126
Zn4	Zn	1.783352	-0.255079	-0.850282
O5	O	1.881356	-0.202484	-0.752361
O6	O	2.171163	-0.148919	-0.852160
O7	O	1.937405	-0.249694	-0.474583
O8	O	1.797561	-0.068199	-0.668500
O9	O	2.159052	-0.232705	-0.696189
O10	O	1.965500	-0.055326	-0.836407
O11	O	1.781578	-0.178781	-0.462647
O12	O	1.591644	-0.178721	-0.652613
O13	O	1.825210	-0.232601	-1.030089
O14	O	1.603563	-0.249590	-0.808483
O15	O	1.981230	-0.148860	-1.042127
O16	O	1.953136	-0.343228	-0.680302
O17	O	1.809226	-0.343183	-0.824237
C18	C	1.551544	-0.216051	-0.727008
C19	C	1.410452	-0.221869	-0.716192
C20	C	1.881189	-0.366045	-0.752285
C21	C	1.881237	-0.436010	-0.752303
C22	C	1.968641	-0.462117	-0.839787
C23	C	1.968688	-0.527856	-0.839822
C24	C	1.881343	-0.567487	-0.752351
C25	C	1.793923	-0.541374	-0.664860
C26	C	1.793870	-0.475635	-0.664836
N27	N	1.863221	-0.675730	-0.640525
N28	N	1.863279	-0.738179	-0.640552
C29	C	1.881496	-0.765553	-0.752420
N30	N	1.899678	-0.728120	-0.864264
N31	N	1.899626	-0.665665	-0.864236
C32	C	1.881390	-0.638770	-0.752368
C33	C	1.968955	-0.862941	-0.839949
C34	C	1.968994	-0.928682	-0.839985
C35	C	1.794235	-0.942199	-0.665012
C36	C	1.794191	-0.876459	-0.664987
C37	C	1.881558	-0.836834	-0.752454
C38	C	2.212455	-0.188865	-0.777814
C39	C	2.353550	-0.183061	-0.788661
C40	C	1.906868	-0.188769	-1.083454
C41	C	1.917740	-0.182925	-1.224546
C42	C	1.881560	-0.038282	-0.752469
C43	C	1.881647	0.031691	-0.752515
C44	C	1.856016	-0.216097	-0.422562
C45	C	1.845390	-0.221754	-0.281490
H46	H	1.351221	-0.259547	-0.645863
C47	C	2.064722	-0.418530	-0.936018
C48	C	2.160854	-0.447252	-1.032265
C49	C	2.256928	-0.403664	-1.128502
C50	C	2.256870	-0.331354	-1.128494
C51	C	2.160734	-0.302628	-1.032244
C52	C	2.064660	-0.346216	-0.936006
H53	H	2.160901	-0.500784	-1.032274
H54	H	2.328095	-0.424929	-1.199753
H55	H	2.327990	-0.299087	-1.199735
H56	H	2.160688	-0.249096	-1.032234
H57	H	1.993494	-0.324951	-0.864755
H58	H	1.988009	-0.145210	-1.283742
C59	C	2.064841	-0.556585	-0.936052
C60	C	2.208359	-0.541971	-0.936883
C61	C	2.304513	-0.570699	-1.033111
C62	C	2.257147	-0.614040	-1.128507
C63	C	2.113622	-0.628656	-1.127679
C64	C	2.017469	-0.599929	-1.031452
H65	H	2.243428	-0.509885	-0.866262
H66	H	2.410760	-0.559878	-1.033723
H67	H	2.328326	-0.635306	-1.199740
H68	H	2.078553	-0.660742	-1.198300
H69	H	1.911222	-0.610749	-1.030840
H70	H	2.040091	-0.830677	-0.911173
H71	H	1.775134	-0.259470	-1.222302
H72	H	1.412774	-0.145381	-0.858977
H73	H	1.722804	-0.573645	-0.593644
H74	H	1.722694	-0.454380	-0.593595
H75	H	2.040168	-0.949936	-0.911230
H76	H	1.723110	-0.974466	-0.593799
H77	H	1.723023	-0.855202	-0.593744
