data_functionalizedCrystal
_audit_creation_method	'MofGen! by Chris Wilmer'
_symmetry_space_group_name_H-M	'P1'
_symmetry_Int_Tables_number	1
_symmetry_cell_setting	triclinic
loop_
_symmetry_equiv_pos_as_xyz
  x,y,z
_cell_length_a	21.395364
_cell_length_b	19.120786
_cell_length_c	19.120904
_cell_angle_alpha	89.866497
_cell_angle_beta	92.422135
_cell_angle_gamma	92.480057
loop_
_atom_site_label
_atom_site_type_symbol
_atom_site_fract_x
_atom_site_fract_y
_atom_site_fract_z
Zn1	Zn	0.931946	-0.295776	-0.384484
Zn2	Zn	1.181946	-0.045776	-0.134484
Zn3	Zn	1.431946	0.204224	0.115516
Zn4	Zn	1.681946	0.454224	0.365516
Zn5	Zn	0.932254	-0.408020	-0.262244
Zn6	Zn	1.182254	-0.158020	-0.012244
Zn7	Zn	1.432254	0.091980	0.237756
Zn8	Zn	1.682254	0.341980	0.487756
Zn9	Zn	0.831825	-0.290824	-0.267262
Zn10	Zn	1.081825	-0.040824	-0.017262
Zn11	Zn	1.331825	0.209176	0.232738
Zn12	Zn	1.581825	0.459176	0.482738
Zn13	Zn	0.822871	-0.413014	-0.379439
Zn14	Zn	1.072871	-0.163014	-0.129439
Zn15	Zn	1.322871	0.086986	0.120561
Zn16	Zn	1.572871	0.336986	0.370561
O17	O	0.879724	-0.351908	-0.323357
O18	O	1.129724	-0.101908	-0.073357
O19	O	1.379724	0.148092	0.176643
O20	O	1.629724	0.398092	0.426643
O21	O	1.019665	-0.310648	-0.368281
O22	O	1.269665	-0.060648	-0.118281
O23	O	1.519665	0.189352	0.131719
O24	O	1.769665	0.439352	0.381719
O25	O	0.922807	-0.388311	-0.164805
O26	O	1.172807	-0.138311	0.085195
O27	O	1.422807	0.111689	0.335195
O28	O	1.672807	0.361689	0.585195
O29	O	0.848725	-0.193369	-0.287023
O30	O	1.098725	0.056631	-0.037023
O31	O	1.348725	0.306631	0.212977
O32	O	1.598725	0.556631	0.462977
O33	O	1.019891	-0.393113	-0.278471
O34	O	1.269891	-0.143113	-0.028471
O35	O	1.519891	0.106887	0.221529
O36	O	1.769891	0.356887	0.471529
O37	O	0.922284	-0.197007	-0.373146
O38	O	1.172284	0.052993	-0.123146
O39	O	1.422284	0.302993	0.126854
O40	O	1.672284	0.552993	0.376854
O41	O	0.849023	-0.302208	-0.168491
O42	O	1.099023	-0.052208	0.081509
O43	O	1.349023	0.197792	0.331509
O44	O	1.599023	0.447792	0.581509
O45	O	0.742959	-0.307050	-0.282131
O46	O	0.992959	-0.057050	-0.032131
O47	O	1.242959	0.192950	0.217869
O48	O	1.492959	0.442950	0.467869
O49	O	0.833464	-0.401625	-0.478213
O50	O	1.083464	-0.151625	-0.228213
O51	O	1.333464	0.098375	0.021787
O52	O	1.583464	0.348375	0.271787
O53	O	0.736381	-0.396823	-0.364547
O54	O	0.986381	-0.146823	-0.114547
O55	O	1.236381	0.103177	0.135453
O56	O	1.486381	0.353177	0.385453
O57	O	0.913601	-0.315490	-0.481920
O58	O	1.163601	-0.065490	-0.231920
O59	O	1.413601	0.184510	0.018080
O60	O	1.663601	0.434510	0.268080
O61	O	0.914125	-0.506794	-0.273578
O62	O	1.164125	-0.256794	-0.023578
O63	O	1.414125	-0.006794	0.226422
O64	O	1.664125	0.243206	0.476422
O65	O	0.833762	-0.510463	-0.359681
O66	O	1.083762	-0.260463	-0.109681
O67	O	1.333762	-0.010463	0.140319
O68	O	1.583762	0.239537	0.390319
C69	C	0.716936	-0.351942	-0.323336
C70	C	0.966936	-0.101942	-0.073336
C71	C	1.216936	0.148058	0.176664
C72	C	1.466936	0.398058	0.426664
C73	C	0.647293	-0.351974	-0.323343
C74	C	0.897293	-0.101974	-0.073343
C75	C	1.147293	0.148026	0.176657
C76	C	1.397293	0.398026	0.426657
C77	C	0.614479	-0.309110	-0.370173
C78	C	0.864479	-0.059110	-0.120173
C79	C	1.114479	0.190890	0.129827
C80	C	1.364479	0.440890	0.379827
C81	C	0.549045	-0.309092	-0.370176
C82	C	0.799045	-0.059092	-0.120176
C83	C	1.049045	0.190908	0.129824
C84	C	1.299045	0.440908	0.379824
C85	C	0.516425	-0.351949	-0.323357
C86	C	0.766425	-0.101949	-0.073357
C87	C	1.016425	0.148051	0.176643
C88	C	1.266425	0.398051	0.426643
C89	C	0.549247	-0.394815	-0.276518
C90	C	0.799247	-0.144815	-0.026518
C91	C	1.049247	0.105185	0.223482
C92	C	1.299247	0.355185	0.473482
C93	C	0.614681	-0.394827	-0.276511
C94	C	0.864681	-0.144827	-0.026511
C95	C	1.114681	0.105173	0.223489
C96	C	1.364681	0.355173	0.473489
C97	C	0.410630	-0.414850	-0.315025
C98	C	0.660630	-0.164850	-0.065025
C99	C	0.910630	0.085150	0.184975
C100	C	1.160630	0.335150	0.434975
C101	C	0.345197	-0.414839	-0.315037
C102	C	0.595197	-0.164839	-0.065037
C103	C	0.845197	0.085161	0.184963
C104	C	1.095197	0.335161	0.434963
C105	C	0.314605	-0.351911	-0.323374
C106	C	0.564605	-0.101911	-0.073374
C107	C	0.814605	0.148089	0.176626
C108	C	1.064605	0.398089	0.426626
C109	C	0.349454	-0.288993	-0.331714
C110	C	0.599454	-0.038993	-0.081714
C111	C	0.849454	0.211007	0.168286
C112	C	1.099454	0.461007	0.418286
C113	C	0.414888	-0.289005	-0.331707
C114	C	0.664888	-0.039005	-0.081707
C115	C	0.914888	0.210995	0.168293
C116	C	1.164888	0.460995	0.418293
C117	C	0.445473	-0.351941	-0.323359
C118	C	0.695473	-0.101941	-0.073359
C119	C	0.945473	0.148059	0.176641
C120	C	1.195473	0.398059	0.426641
C121	C	0.210840	-0.309024	-0.370210
C122	C	0.460840	-0.059024	-0.120210
C123	C	0.710840	0.190976	0.129790
C124	C	0.960840	0.440976	0.379790
C125	C	0.145404	-0.309004	-0.370209
C126	C	0.395404	-0.059004	-0.120209
C127	C	0.645404	0.190996	0.129791
C128	C	0.895404	0.440996	0.379791
C129	C	0.145607	-0.394734	-0.276554
C130	C	0.395607	-0.144734	-0.026554
C131	C	0.645607	0.105266	0.223446
C132	C	0.895607	0.355266	0.473446
C133	C	0.211042	-0.394748	-0.276552
C134	C	0.461042	-0.144748	-0.026552
C135	C	0.711042	0.105252	0.223448
C136	C	0.961042	0.355252	0.473448
C137	C	0.243654	-0.351894	-0.323384
C138	C	0.493654	-0.101894	-0.073384
C139	C	0.743654	0.148106	0.176616
C140	C	0.993654	0.398106	0.426616
C141	C	0.873021	-0.534069	-0.315553
C142	C	1.123021	-0.284069	-0.065553
C143	C	1.373021	-0.034069	0.184447
C144	C	1.623021	0.215931	0.434447
C145	C	0.870210	-0.611998	-0.312238
C146	C	1.120210	-0.361998	-0.062238
C147	C	1.370210	-0.111998	0.187762
C148	C	1.620210	0.138002	0.437762
C149	C	0.907157	-0.650445	-0.355556
C150	C	1.157157	-0.400445	-0.105556
C151	C	1.407157	-0.150445	0.144444
C152	C	1.657157	0.099555	0.394444
C153	C	0.904513	-0.723669	-0.352442
C154	C	1.154513	-0.473669	-0.102442
C155	C	1.404513	-0.223669	0.147558
C156	C	1.654513	0.026331	0.397558
C157	C	0.864926	-0.758444	-0.306006
C158	C	1.114926	-0.508444	-0.056006
C159	C	1.364926	-0.258444	0.193994
C160	C	1.614926	-0.008444	0.443994
C161	C	0.827975	-0.719992	-0.262686
C162	C	1.077975	-0.469992	-0.012686
C163	C	1.327975	-0.219992	0.237314
C164	C	1.577975	0.030008	0.487314
C165	C	0.830616	-0.646770	-0.265803
C166	C	1.080616	-0.396770	-0.015803
C167	C	1.330616	-0.146770	0.234197
C168	C	1.580616	0.103230	0.484197
C169	C	0.855034	-0.979435	-0.294350
C170	C	1.105034	-0.729435	-0.044350
C171	C	1.355034	-0.479435	0.205650
C172	C	1.605034	-0.229435	0.455650
C173	C	0.852398	-1.052662	-0.291234
C174	C	1.102398	-0.802662	-0.041234
C175	C	1.352398	-0.552662	0.208766
C176	C	1.602398	-0.302662	0.458766
C177	C	0.928934	-1.056334	-0.380992
C178	C	1.178934	-0.806334	-0.130992
C179	C	1.428934	-0.556334	0.119008
C180	C	1.678934	-0.306334	0.369008
C181	C	0.931575	-0.983111	-0.384103
C182	C	1.181575	-0.733111	-0.134103
C183	C	1.431575	-0.483111	0.115897
C184	C	1.681575	-0.233111	0.365897
C185	C	0.894622	-0.944665	-0.340785
C186	C	1.144622	-0.694665	-0.090785
C187	C	1.394622	-0.444665	0.159215
C188	C	1.644622	-0.194665	0.409215
C189	C	0.862224	-0.833290	-0.302820
C190	C	1.112224	-0.583290	-0.052820
C191	C	1.362224	-0.333290	0.197180
C192	C	1.612224	-0.083290	0.447180
C193	C	0.897321	-0.869821	-0.343975
C194	C	1.147321	-0.619821	-0.093975
C195	C	1.397321	-0.369821	0.156025
C196	C	1.647321	-0.119821	0.406025
C197	C	1.043148	-0.351876	-0.323379
C198	C	1.293148	-0.101876	-0.073379
C199	C	1.543148	0.148124	0.176621
C200	C	1.793148	0.398124	0.426621
C201	C	1.112789	-0.351862	-0.323388
C202	C	1.362789	-0.101862	-0.073388
C203	C	1.612789	0.148138	0.176612
C204	C	1.862789	0.398138	0.426612
C205	C	0.872500	-0.359667	-0.506215
C206	C	1.122500	-0.109667	-0.256215
C207	C	1.372500	0.140333	-0.006215
C208	C	1.622500	0.390333	0.243785
C209	C	0.869421	-0.362973	-0.584138
C210	C	1.119421	-0.112973	-0.334138
C211	C	1.369421	0.137027	-0.084138
C212	C	1.619421	0.387027	0.165862
C213	C	0.886469	-0.169038	-0.331207
C214	C	1.136469	0.080962	-0.081207
C215	C	1.386469	0.330962	0.168793
C216	C	1.636469	0.580962	0.418793
C217	C	0.889344	-0.091109	-0.334553
C218	C	1.139344	0.158891	-0.084553
C219	C	1.389344	0.408891	0.165447
C220	C	1.639344	0.658891	0.415447
C221	C	0.909696	-0.319683	-0.622678
C222	C	1.159696	-0.069683	-0.372678
C223	C	1.409696	0.180317	-0.122678
C224	C	1.659696	0.430317	0.127322
C225	C	0.906795	-0.322787	-0.695895
C226	C	1.156795	-0.072787	-0.445895
C227	C	1.406795	0.177213	-0.195895
C228	C	1.656795	0.427213	0.054105
C229	C	0.863623	-0.369185	-0.730571
C230	C	1.113623	-0.119185	-0.480571
C231	C	1.363623	0.130815	-0.230571
C232	C	1.613623	0.380815	0.019429
C233	C	0.823344	-0.412477	-0.692026
C234	C	1.073344	-0.162477	-0.442026
C235	C	1.323344	0.087523	-0.192026
C236	C	1.573344	0.337523	0.057974
C237	C	0.826242	-0.409369	-0.618810
C238	C	1.076242	-0.159369	-0.368810
C239	C	1.326242	0.090631	-0.118810
C240	C	1.576242	0.340631	0.131190
C241	C	0.852784	-0.380810	-0.951538
C242	C	1.102784	-0.130810	-0.701538
C243	C	1.352784	0.119190	-0.451538
C244	C	1.602784	0.369190	-0.201538
C245	C	0.849891	-0.383916	-1.024759
C246	C	1.099891	-0.133916	-0.774759
C247	C	1.349891	0.116084	-0.524759
C248	C	1.599891	0.366084	-0.274759
C249	C	0.933342	-0.294224	-1.028623
C250	C	1.183342	-0.044224	-0.778623
C251	C	1.433342	0.205776	-0.528623
C252	C	1.683342	0.455776	-0.278623
C253	C	0.936238	-0.291123	-0.955405
C254	C	1.186238	-0.041123	-0.705405
C255	C	1.436238	0.208877	-0.455405
C256	C	1.686238	0.458877	-0.205405
C257	C	0.895957	-0.334413	-0.916867
C258	C	1.145957	-0.084413	-0.666867
C259	C	1.395957	0.165587	-0.416867
C260	C	1.645957	0.415587	-0.166867
C261	C	0.860659	-0.372361	-0.805410
C262	C	1.110659	-0.122361	-0.555410
C263	C	1.360659	0.127639	-0.305410
C264	C	1.610659	0.377639	-0.055410
C265	C	0.898918	-0.331233	-0.842029
C266	C	1.148918	-0.081233	-0.592029
C267	C	1.398918	0.168767	-0.342029
C268	C	1.648918	0.418767	-0.092029
C269	C	0.886958	-0.344129	-0.141213
C270	C	1.136958	-0.094129	0.108787
C271	C	1.386958	0.155871	0.358787
C272	C	1.636958	0.405871	0.608787
C273	C	0.890165	-0.340626	-0.063299
C274	C	1.140165	-0.090626	0.186701
C275	C	1.390165	0.159374	0.436701
C276	C	1.640165	0.409374	0.686701
H277	H	0.237759	-0.429655	-0.238420
H278	H	0.487759	-0.179655	0.011580
H279	H	0.737759	0.070345	0.261580
H280	H	0.987759	0.320345	0.511580
Cl281	Cl	0.990514	-0.232792	-0.911818
Cl282	Cl	1.240514	0.017208	-0.661818
Cl283	Cl	1.490514	0.267208	-0.411818
Cl284	Cl	1.740514	0.517208	-0.161818
Cl285	Cl	0.507784	-0.255202	-0.429052
Cl286	Cl	0.757784	-0.005202	-0.179052
Cl287	Cl	1.007784	0.244798	0.070948
Cl288	Cl	1.257784	0.494798	0.320948
H289	H	0.939593	-0.287537	-0.727271
H290	H	1.189593	-0.037537	-0.477271
H291	H	1.439593	0.212463	-0.227271
H292	H	1.689593	0.462463	0.022729
Cl293	Cl	0.963976	-0.261354	-0.579092
Cl294	Cl	1.213976	-0.011354	-0.329092
Cl295	Cl	1.463976	0.238646	-0.079092
Cl296	Cl	1.713976	0.488646	0.170908
H297	H	0.316828	-0.466071	-0.308249
H298	H	0.566828	-0.216071	-0.058249
H299	H	0.816828	0.033929	0.191751
H300	H	1.066828	0.283929	0.441751
H301	H	0.819993	-0.416069	-0.920169
H302	H	1.069993	-0.166069	-0.670169
H303	H	1.319993	0.083931	-0.420169
H304	H	1.569993	0.333931	-0.170169
Cl305	Cl	0.947082	-0.826103	-0.402353
Cl306	Cl	1.197082	-0.576103	-0.152353
Cl307	Cl	1.447082	-0.326103	0.097647
Cl308	Cl	1.697082	-0.076103	0.347647
H309	H	0.118688	-0.274096	-0.408343
H310	H	0.368688	-0.024096	-0.158343
H311	H	0.618688	0.225904	0.091657
H312	H	0.868688	0.475904	0.341657
H313	H	0.934603	-0.754969	-0.387711
H314	H	1.184603	-0.504969	-0.137711
H315	H	1.434603	-0.254969	0.112289
H316	H	1.684603	-0.004969	0.362289
Cl317	Cl	0.953184	-0.272899	-0.798435
Cl318	Cl	1.203184	-0.022899	-0.548435
Cl319	Cl	1.453184	0.227101	-0.298435
Cl320	Cl	1.703184	0.477101	-0.048435
H321	H	0.824947	-0.948138	-0.259078
H322	H	1.074947	-0.698138	-0.009078
H323	H	1.324947	-0.448138	0.240922
H324	H	1.574947	-0.198138	0.490922
H325	H	0.825511	-0.410142	-0.833652
H326	H	1.075511	-0.160142	-0.583652
H327	H	1.325511	0.089858	-0.333652
H328	H	1.575511	0.339858	-0.083652
H329	H	0.829994	-0.861612	-0.265010
H330	H	1.079994	-0.611612	-0.015010
H331	H	1.329994	-0.361612	0.234990
H332	H	1.579994	-0.111612	0.484990
H333	H	0.788190	-0.450253	-0.720265
H334	H	1.038190	-0.200253	-0.470265
H335	H	1.288190	0.049747	-0.220265
H336	H	1.538190	0.299747	0.029735
Cl337	Cl	0.975383	-1.104670	-0.435448
Cl338	Cl	1.225383	-0.854670	-0.185448
Cl339	Cl	1.475383	-0.604670	0.064552
Cl340	Cl	1.725383	-0.354670	0.314552
Cl341	Cl	0.251841	-0.255147	-0.429078
Cl342	Cl	0.501841	-0.005147	-0.179078
Cl343	Cl	0.751841	0.244853	0.070922
Cl344	Cl	1.001841	0.494853	0.320922
H345	H	0.939395	-0.622137	-0.393366
H346	H	1.189395	-0.372137	-0.143366
H347	H	1.439395	-0.122137	0.106634
H348	H	1.689395	0.127863	0.356634
H349	H	0.119049	-0.429630	-0.238432
H350	H	0.369049	-0.179630	0.011568
H351	H	0.619049	0.070370	0.261568
H352	H	0.869049	0.320370	0.511568
H353	H	0.966136	-0.258980	-1.060008
H354	H	1.216136	-0.008980	-0.810008
H355	H	1.466136	0.241020	-0.560008
H356	H	1.716136	0.491020	-0.310008
Cl357	Cl	0.775606	-0.463792	-0.570361
Cl358	Cl	1.025606	-0.213792	-0.320361
Cl359	Cl	1.275606	0.036208	-0.070361
Cl360	Cl	1.525606	0.286208	0.179639
H361	H	0.795740	-0.748311	-0.224879
H362	H	1.045740	-0.498311	0.025121
H363	H	1.295740	-0.248311	0.275121
H364	H	1.545740	0.001689	0.525121
H365	H	0.800530	-0.615467	-0.230530
H366	H	1.050530	-0.365467	0.019470
H367	H	1.300530	-0.115467	0.269470
H368	H	1.550530	0.134533	0.519470
Cl369	Cl	0.981342	-0.939399	-0.442483
Cl370	Cl	1.231342	-0.689399	-0.192483
Cl371	Cl	1.481342	-0.439399	0.057517
Cl372	Cl	1.731342	-0.189399	0.307517
Cl373	Cl	0.655474	-0.255235	-0.429046
Cl374	Cl	0.905474	-0.005235	-0.179046
Cl375	Cl	1.155474	0.244765	0.070954
Cl376	Cl	1.405474	0.494765	0.320954
Cl377	Cl	0.458695	-0.209912	-0.342187
Cl378	Cl	0.708695	0.040088	-0.092187
Cl379	Cl	0.958695	0.290088	0.157813
Cl380	Cl	1.208695	0.540088	0.407813
H381	H	0.814733	-0.421701	-1.052990
H382	H	1.064733	-0.171701	-0.802990
H383	H	1.314733	0.078299	-0.552990
H384	H	1.564733	0.328299	-0.302990
Cl385	Cl	0.311003	-0.209879	-0.342194
Cl386	Cl	0.561003	0.040121	-0.092194
Cl387	Cl	0.811003	0.290121	0.157806
Cl388	Cl	1.061003	0.540121	0.407806
Cl389	Cl	0.449082	-0.493965	-0.304534
Cl390	Cl	0.699082	-0.243965	-0.054534
Cl391	Cl	0.949082	0.006035	0.195466
Cl392	Cl	1.199082	0.256035	0.445466
H393	H	0.522684	-0.429710	-0.238396
H394	H	0.772684	-0.179710	0.011604
H395	H	1.022684	0.070290	0.261604
H396	H	1.272684	0.320290	0.511604
H397	H	0.641398	-0.429733	-0.238375
H398	H	0.891398	-0.179733	0.011625
H399	H	1.141398	0.070267	0.261625
H400	H	1.391398	0.320267	0.511625
H401	H	0.820158	-1.080974	-0.253419
H402	H	1.070158	-0.830974	-0.003419
H403	H	1.320158	-0.580974	0.246581
H404	H	1.570158	-0.330974	0.496581
