data_functionalizedCrystal
_audit_creation_method	'MofGen! by Chris Wilmer'
_symmetry_space_group_name_H-M	'P1'
_symmetry_Int_Tables_number	1
_symmetry_cell_setting	triclinic
loop_
_symmetry_equiv_pos_as_xyz
  x,y,z
_cell_length_a	19.077068
_cell_length_b	19.077312
_cell_length_c	19.076919
_cell_angle_alpha	94.668947
_cell_angle_beta	94.470751
_cell_angle_gamma	89.941008
loop_
_atom_site_label
_atom_site_type_symbol
_atom_site_fract_x
_atom_site_fract_y
_atom_site_fract_z
Zn1	Zn	-0.337071	1.047525	-0.369357
Zn2	Zn	-0.450221	1.047438	-0.256204
Zn3	Zn	-0.328008	0.934762	-0.255845
Zn4	Zn	-0.450192	0.924870	-0.378786
O5	O	-0.391373	0.988649	-0.315048
O6	O	-0.355886	1.146000	-0.350551
O7	O	-0.430229	1.036594	-0.157351
O8	O	-0.230722	0.953897	-0.266806
O9	O	-0.439017	1.145936	-0.267418
O10	O	-0.237381	1.036743	-0.350202
O11	O	-0.340439	0.953812	-0.157087
O12	O	-0.340411	0.834964	-0.275950
O13	O	-0.438968	0.937037	-0.476341
O14	O	-0.430179	0.827696	-0.366274
O15	O	-0.355858	1.027151	-0.469413
O16	O	-0.548706	1.027003	-0.276562
O17	O	-0.548685	0.936953	-0.366622
C18	C	-0.384309	0.805793	-0.322096
C19	C	-0.381304	0.727566	-0.325129
C20	C	-0.359698	0.287231	-0.346886
C21	C	-0.362534	0.360734	-0.344033
C22	C	-0.407157	0.397449	-0.299247
C23	C	-0.448952	0.360657	-0.257318
C24	C	-0.446119	0.287155	-0.260175
C25	C	-0.420266	0.617272	-0.286057
C26	C	-0.423094	0.690779	-0.283201
C27	C	-0.336677	0.690851	-0.369917
C28	C	-0.333845	0.617348	-0.372768
C29	C	-0.375643	0.580562	-0.330841
N30	N	-0.410056	0.472581	-0.296329
N31	N	-0.372747	0.505431	-0.333764
C32	C	-0.574233	0.980914	-0.322669
C33	C	-0.652465	0.977668	-0.325950
C34	C	-0.689209	1.023060	-0.280638
C35	C	-0.762716	1.020011	-0.283728
C36	C	-0.799478	0.971566	-0.332127
C37	C	-0.762729	0.926172	-0.377444
C38	C	-0.689223	0.929224	-0.374357
C39	C	-1.019318	0.957408	-0.346388
C40	C	-1.092829	0.954357	-0.349471
C41	C	-1.092811	1.048198	-0.255755
C42	C	-1.019304	1.051244	-0.252669
C43	C	-0.982561	1.005852	-0.297989
N44	N	-0.874614	0.968447	-0.335286
N45	N	-0.907427	1.008975	-0.294833
C46	C	-0.207800	0.996433	-0.307413
C47	C	-0.129573	0.999750	-0.304159
C48	C	-0.398421	0.981001	-0.499212
C49	C	-0.401424	0.977741	-0.577692
C50	C	-0.398466	1.172218	-0.307973
C51	C	-0.401488	1.250444	-0.304958
C52	C	-0.359566	1.023125	-0.610957
C53	C	-0.362385	1.020054	-0.684697
C54	C	-0.407065	0.971603	-0.725172
C55	C	-0.448925	0.926214	-0.691903
C56	C	-0.446102	0.929282	-0.618164
C57	C	-0.420145	0.957393	-0.946095
C58	C	-0.422966	0.954330	-1.019839
C59	C	-0.336424	1.048170	-1.012629
C60	C	-0.333609	1.051236	-0.938888
C61	C	-0.375465	1.005845	-0.905626
N62	N	-0.409949	0.968464	-0.800547
N63	N	-0.372577	1.008981	-0.830252
C64	C	-0.384304	0.996310	-0.131597
C65	C	-0.381108	0.999714	-0.053104
H66	H	-0.485288	0.390556	-0.220855
O67	O	-1.128614	1.092268	-0.211816
C68	C	-1.201374	1.079179	-0.224906
H69	H	-1.212602	1.053398	-0.280686
H70	H	-1.231117	1.130942	-0.219308
H71	H	-1.219239	1.042615	-0.185311
H72	H	-0.480151	0.257205	-0.226034
H73	H	-0.659282	1.062507	-0.241223
O74	O	-0.296152	0.726691	-0.410623
C75	C	-0.308205	0.799440	-0.398488
H76	H	-0.361980	0.808140	-0.377141
H77	H	-0.306619	0.825391	-0.450103
H78	H	-0.265764	0.823614	-0.358408
O79	O	-0.466443	0.907352	-1.059192
C80	C	-0.515072	0.943714	-1.102209
H81	H	-0.520725	0.999880	-1.078030
H82	H	-0.568279	0.915917	-1.106287
H83	H	-0.495538	0.944747	-1.157092
O84	O	-0.460863	0.913264	-0.913902
C85	C	-0.500886	0.869828	-0.965441
H86	H	-0.506464	0.896375	-1.016991
H87	H	-0.555226	0.860833	-0.946727
H88	H	-0.473332	0.817153	-0.974281
H89	H	-0.297227	1.090693	-0.905938
H90	H	-0.792667	0.886729	-0.416855
H91	H	-0.323184	1.062582	-0.578007
O92	O	-0.295787	1.092183	-1.045053
C93	C	-0.307869	1.079101	-1.118816
H94	H	-0.329208	1.023392	-1.131937
H95	H	-0.256407	1.084942	-1.144464
H96	H	-0.347760	1.118389	-1.139695
H97	H	-0.989408	0.920447	-0.383287
H98	H	-0.459434	0.720671	-0.246730
H99	H	-0.454299	0.587330	-0.251915
O100	O	-0.653635	0.885060	-0.418404
C101	C	-0.701843	0.841659	-0.461799
H102	H	-0.753054	0.838263	-0.435168
H103	H	-0.678792	0.786773	-0.470541
H104	H	-0.712666	0.864844	-0.514775
H105	H	-0.323357	0.257343	-0.383350
H106	H	-0.989374	1.090692	-0.213259
H107	H	-0.792630	1.056974	-0.246830
H108	H	-1.122759	0.914915	-0.388895
O109	O	-0.321903	0.396554	-0.384656
C110	C	-0.276477	0.442640	-0.340982
H111	H	-0.299592	0.454810	-0.288037
H112	H	-0.270186	0.493539	-0.367357
H113	H	-0.222921	0.416840	-0.332237
H114	H	-0.328301	1.057012	-0.711777
O115	O	-0.492407	0.879243	-0.731249
C116	C	-0.541035	0.915609	-0.774263
H117	H	-0.546675	0.971779	-0.750088
H118	H	-0.594246	0.887822	-0.778332
H119	H	-0.521508	0.916633	-0.829151
O120	O	-0.486842	0.885175	-0.585961
C121	C	-0.526876	0.841744	-0.637495
H122	H	-0.532431	0.868278	-0.689053
H123	H	-0.581225	0.832783	-0.618786
H124	H	-0.499346	0.789055	-0.646317
H125	H	-0.297511	0.587459	-0.409239
