data_functionalizedCrystal
_audit_creation_method	'MofGen! by Chris Wilmer'
_symmetry_space_group_name_H-M	'P1'
_symmetry_Int_Tables_number	1
_symmetry_cell_setting	triclinic
loop_
_symmetry_equiv_pos_as_xyz
  x,y,z
_cell_length_a	25.639242
_cell_length_b	25.639239
_cell_length_c	13.897441
_cell_angle_alpha	89.965695
_cell_angle_beta	89.969343
_cell_angle_gamma	90.034213
loop_
_atom_site_label
_atom_site_type_symbol
_atom_site_fract_x
_atom_site_fract_y
_atom_site_fract_z
Zn1	Zn	0.799269	-0.208196	-0.545612
Zn2	Zn	0.799179	-0.295639	-0.384303
Zn3	Zn	0.711832	-0.208213	-0.384302
Zn4	Zn	0.711790	-0.295596	-0.545527
O5	O	0.755518	-0.251911	-0.464936
O6	O	0.872422	-0.219807	-0.524249
O7	O	0.787573	-0.284066	-0.249321
O8	O	0.723486	-0.135045	-0.405735
O9	O	0.872356	-0.284051	-0.405736
O10	O	0.787725	-0.135033	-0.524249
O11	O	0.723399	-0.219835	-0.249320
O12	O	0.638662	-0.219793	-0.405653
O13	O	0.723414	-0.283977	-0.680520
O14	O	0.638631	-0.283993	-0.524105
O15	O	0.787685	-0.219765	-0.680582
O16	O	0.787532	-0.368798	-0.405654
O17	O	0.723328	-0.368767	-0.524105
C18	C	0.619675	-0.251890	-0.464870
C19	C	0.561561	-0.251894	-0.464865
C20	C	0.755430	-0.387754	-0.464892
C21	C	0.755440	-0.445868	-0.464905
C22	C	0.201191	-0.285396	-0.526555
C23	C	0.146587	-0.285399	-0.526570
O24	O	0.118344	-0.313858	-0.578966
N25	N	0.119279	-0.251925	-0.464999
C26	C	0.146578	-0.218443	-0.403415
O27	O	0.118336	-0.189970	-0.351046
C28	C	0.201181	-0.218437	-0.403405
C29	C	0.228486	-0.251917	-0.464974
C30	C	0.228496	-0.318872	-0.588119
C31	C	0.283097	-0.318870	-0.588103
C32	C	0.310392	-0.285391	-0.526522
C33	C	0.283087	-0.251914	-0.464957
C34	C	0.228479	-0.184952	-0.341827
C35	C	0.283086	-0.184949	-0.341823
C36	C	0.310392	-0.218429	-0.403392
C37	C	0.364983	-0.218432	-0.403359
N38	N	0.392291	-0.251906	-0.464931
C39	C	0.364995	-0.285385	-0.526512
C40	C	0.031907	-0.218456	-0.403441
C41	C	-0.022695	-0.218464	-0.403445
C42	C	-0.022683	-0.285420	-0.526602
C43	C	0.031921	-0.285414	-0.526592
C44	C	0.059215	-0.251930	-0.465013
C45	C	0.479660	-0.285377	-0.526472
C46	C	0.534266	-0.285373	-0.526446
C47	C	0.534249	-0.218416	-0.403294
C48	C	0.479648	-0.218421	-0.403315
C49	C	0.452355	-0.251904	-0.464911
O50	O	0.393260	-0.189987	-0.350993
O51	O	0.393243	-0.313848	-0.578881
C52	C	0.789036	-0.806235	-0.403364
C53	C	0.789056	-0.860839	-0.403376
O54	O	0.817530	-0.889079	-0.351003
N55	N	0.755610	-0.888150	-0.465000
C56	C	0.722144	-0.860854	-0.526621
O57	O	0.693697	-0.889098	-0.579039
C58	C	0.722127	-0.806251	-0.526612
C59	C	0.755572	-0.778942	-0.464978
C60	C	0.822479	-0.778926	-0.341735
C61	C	0.822458	-0.724326	-0.341721
C62	C	0.788994	-0.697033	-0.403336
C63	C	0.755551	-0.724342	-0.464964
C64	C	0.688664	-0.778956	-0.588238
C65	C	0.688650	-0.724349	-0.588224
C66	C	0.722096	-0.697040	-0.526590
C67	C	0.722066	-0.642449	-0.526565
N68	N	0.755513	-0.615138	-0.464941
C69	C	0.788977	-0.642430	-0.403327
C70	C	0.722183	-0.975525	-0.526636
C71	C	0.722198	-1.030127	-0.526641
C72	C	0.789111	-1.030108	-0.403397
C73	C	0.789094	-0.975505	-0.403388
C74	C	0.755630	-0.948213	-0.465013
C75	C	0.788930	-0.527765	-0.403302
C76	C	0.788904	-0.473160	-0.403290
C77	C	0.721993	-0.473183	-0.526537
C78	C	0.722016	-0.527784	-0.526545
C79	C	0.755489	-0.555074	-0.464924
O80	O	0.693608	-0.614174	-0.578914
O81	O	0.817424	-0.614179	-0.350927
C82	C	0.891891	-0.251932	-0.465002
C83	C	0.950005	-0.251941	-0.465030
C84	C	0.755555	-0.251865	-0.716529
C85	C	0.755571	-0.251845	-0.823743
C86	C	0.755620	-0.115538	-0.465001
C87	C	0.755664	-0.057424	-0.465029
C88	C	0.755585	-0.251810	-1.020038
C89	C	0.755575	-0.251831	-0.910806
C90	C	0.755511	-0.251919	-0.214322
C91	C	0.755596	-0.251792	-0.107108
H92	H	0.457445	-0.312641	-0.576632
H93	H	0.305324	-0.346131	-0.638240
C94	C	0.564278	-0.181585	-0.335568
H95	H	0.540198	-0.161647	-0.298897
H96	H	0.585602	-0.158833	-0.372552
H97	H	0.585555	-0.201555	-0.293461
C98	C	0.825920	-1.060136	-0.335618
H99	H	0.821140	-1.096566	-0.344460
H100	H	0.818283	-1.051221	-0.270792
H101	H	0.861046	-1.051153	-0.349804
H102	H	0.816328	-0.953273	-0.353201
C103	C	-0.052714	-0.322242	-0.594349
H104	H	-0.089144	-0.317443	-0.585540
H105	H	-0.043793	-0.357363	-0.580122
H106	H	-0.043740	-0.314626	-0.659186
H107	H	-0.044922	-0.191206	-0.353300
H108	H	0.457415	-0.191161	-0.353179
C109	C	0.198453	-0.148112	-0.274125
H110	H	0.162022	-0.152903	-0.282942
H111	H	0.207436	-0.112998	-0.288383
H112	H	0.207372	-0.155712	-0.209278
H113	H	0.556495	-0.312638	-0.576584
C114	C	0.313107	-0.148115	-0.274084
H115	H	0.289022	-0.128181	-0.237419
H116	H	0.334434	-0.125358	-0.311054
H117	H	0.334381	-0.168086	-0.231974
C118	C	0.651840	-0.694329	-0.656010
H119	H	0.656618	-0.657897	-0.647186
H120	H	0.616718	-0.703318	-0.641832
H121	H	0.659483	-0.703247	-0.720839
C122	C	0.685227	-0.557824	-0.594339
H123	H	0.665296	-0.533748	-0.631036
H124	H	0.662465	-0.579167	-0.557411
H125	H	0.705230	-0.579084	-0.636418
H126	H	0.694745	-0.450954	-0.576700
C127	C	0.651878	-0.808983	-0.656044
H128	H	0.631954	-0.784901	-0.692741
H129	H	0.629110	-0.830322	-0.619121
H130	H	0.671878	-0.830245	-0.698122
C131	C	0.198479	-0.355704	-0.655863
H132	H	0.222569	-0.375639	-0.692517
H133	H	0.177202	-0.335739	-0.697969
H134	H	0.177157	-0.378467	-0.618889
C135	C	0.825698	-0.443123	-0.335495
H136	H	0.845634	-0.467201	-0.298811
H137	H	0.805705	-0.421858	-0.293419
H138	H	0.848462	-0.421787	-0.372440
C139	C	0.061952	-0.322237	-0.594324
H140	H	0.037870	-0.342173	-0.631002
H141	H	0.083231	-0.344993	-0.557353
H142	H	0.083274	-0.302259	-0.636424
H143	H	0.054127	-0.191189	-0.353288
C144	C	0.825745	-0.557776	-0.335513
H145	H	0.845653	-0.533685	-0.298806
H146	H	0.848527	-0.579042	-0.372449
H147	H	0.805760	-0.579110	-0.293444
H148	H	0.849694	-0.702094	-0.291536
C149	C	0.859290	-0.808939	-0.273947
H150	H	0.879199	-0.784848	-0.237243
H151	H	0.882071	-0.830208	-0.310879
H152	H	0.839304	-0.830270	-0.231875
H153	H	0.694958	-1.052357	-0.576821
C154	C	0.685365	-0.945509	-0.594416
H155	H	0.665447	-0.969598	-0.631107
H156	H	0.705341	-0.924173	-0.636486
H157	H	0.662585	-0.924245	-0.557463
