data_functionalizedCrystal
_audit_creation_method	'MofGen! by Chris Wilmer'
_symmetry_space_group_name_H-M	'P1'
_symmetry_Int_Tables_number	1
_symmetry_cell_setting	triclinic
loop_
_symmetry_equiv_pos_as_xyz
  x,y,z
_cell_length_a	17.077403
_cell_length_b	17.077404
_cell_length_c	17.077396
_cell_angle_alpha	89.980813
_cell_angle_beta	89.981574
_cell_angle_gamma	89.998960
loop_
_atom_site_label
_atom_site_type_symbol
_atom_site_fract_x
_atom_site_fract_y
_atom_site_fract_z
Zn1	Zn	-0.312538	1.200158	-0.443943
Zn2	Zn	0.187462	1.700158	0.056057
Zn3	Zn	-0.443815	1.200121	-0.312702
Zn4	Zn	0.056185	1.700121	0.187298
Zn5	Zn	-0.312563	1.068895	-0.312686
Zn6	Zn	0.187437	1.568895	0.187314
Zn7	Zn	-0.443762	1.068909	-0.443921
Zn8	Zn	0.056238	1.568909	0.056079
O9	O	-0.378170	1.134521	-0.378313
O10	O	0.121830	1.634521	0.121687
O11	O	-0.329964	1.310000	-0.426549
O12	O	0.170036	1.810000	0.073451
O13	O	-0.426437	1.182693	-0.202853
O14	O	0.073563	1.682693	0.297147
O15	O	-0.202713	1.086317	-0.330100
O16	O	0.297287	1.586317	0.169900
O17	O	-0.426413	1.309973	-0.330127
O18	O	0.073587	1.809973	0.169873
O19	O	-0.202695	1.182756	-0.426534
O20	O	0.297305	1.682756	0.073466
O21	O	-0.330007	1.086281	-0.202841
O22	O	0.169993	1.586281	0.297159
O23	O	-0.329955	0.959050	-0.330079
O24	O	0.170045	1.459050	0.169921
O25	O	-0.426322	1.086340	-0.553771
O26	O	0.073678	1.586340	-0.053771
O27	O	-0.426346	0.959060	-0.426497
O28	O	0.073654	1.459060	0.073503
O29	O	-0.329913	1.182769	-0.553787
O30	O	0.170087	1.682769	-0.053787
O31	O	-0.553655	1.182706	-0.330106
O32	O	-0.053655	1.682706	0.169894
O33	O	-0.553616	1.086305	-0.426512
O34	O	-0.053616	1.586305	0.073488
C35	C	-0.378148	0.930573	-0.378284
C36	C	0.121852	1.430573	0.121716
C37	C	-0.378158	0.843323	-0.378291
C38	C	0.121842	1.343323	0.121709
C39	C	-0.328061	0.467520	-0.428629
C40	C	0.171939	0.967520	0.071371
C41	C	-0.328055	0.549500	-0.428620
C42	C	0.171945	1.049500	0.071380
C43	C	-0.378186	0.590474	-0.378333
C44	C	0.121814	1.090474	0.121667
C45	C	-0.428332	0.549463	-0.328056
C46	C	0.071668	1.049463	0.171944
C47	C	-0.428341	0.467484	-0.328069
C48	C	0.071659	0.967484	0.171931
C49	C	-0.428308	0.720333	-0.328031
C50	C	0.071692	1.220333	0.171969
C51	C	-0.428298	0.802318	-0.328016
C52	C	0.071702	1.302318	0.171984
C53	C	-0.328022	0.802349	-0.428582
C54	C	0.171978	1.302349	0.071418
C55	C	-0.328031	0.720370	-0.428595
C56	C	0.171969	1.220370	0.071405
C57	C	-0.378176	0.679365	-0.378317
C58	C	0.121824	1.179365	0.121683
C59	C	-0.582118	1.134524	-0.378325
C60	C	-0.082118	1.634524	0.121675
C61	C	-0.669367	1.134597	-0.378356
C62	C	-0.169367	1.634597	0.121644
C63	C	-0.173425	1.134539	-0.378318
C64	C	0.326575	1.634539	0.121682
C65	C	-0.086176	1.134547	-0.378320
C66	C	0.413824	1.634547	0.121680
C67	C	-0.045194	1.084343	-0.328115
C68	C	0.454806	1.584343	0.171885
C69	C	0.036787	1.084349	-0.328125
C70	C	0.536787	1.584349	0.171875
C71	C	0.077784	1.134563	-0.378337
C72	C	0.577784	1.634563	0.121663
C73	C	0.036796	1.184769	-0.428547
C74	C	0.536796	1.684769	0.071453
C75	C	-0.045183	1.184759	-0.428541
C76	C	0.454817	1.684759	0.071459
C77	C	0.207666	1.184789	-0.428556
C78	C	0.707666	1.684789	0.071444
C79	C	0.289651	1.184801	-0.428562
C80	C	0.789651	1.684801	0.071438
C81	C	0.289636	1.084380	-0.328140
C82	C	0.789636	1.584380	0.171860
C83	C	0.207657	1.084369	-0.328134
C84	C	0.707657	1.584369	0.171866
C85	C	0.166675	1.134576	-0.378343
C86	C	0.666675	1.634576	0.121657
C87	C	-0.378109	1.134560	-0.583057
C88	C	0.121891	1.634560	-0.083057
C89	C	-0.378083	1.134577	-0.670307
C90	C	0.121917	1.634577	-0.170307
C91	C	-0.378192	1.339265	-0.378342
C92	C	0.121808	1.839265	0.121658
C93	C	-0.378201	1.426515	-0.378355
C94	C	0.121799	1.926515	0.121645
C95	C	-0.327866	1.084391	-0.711291
C96	C	0.172134	1.584391	-0.211291
C97	C	-0.327848	1.084404	-0.793271
C98	C	0.172152	1.584404	-0.293271
C99	C	-0.378044	1.134607	-0.834267
C100	C	0.121956	1.634607	-0.334267
C101	C	-0.428267	1.184795	-0.793277
C102	C	0.071733	1.684795	-0.293277
C103	C	-0.428288	1.184778	-0.711298
C104	C	0.071712	1.684778	-0.211298
C105	C	-0.428218	1.184829	-0.964147
C106	C	0.071782	1.684829	-0.464147
C107	C	-0.428196	1.184848	-1.046132
C108	C	0.071804	1.684848	-0.546132
C109	C	-0.327778	1.084455	-1.046120
C110	C	0.172222	1.584455	-0.546120
C111	C	-0.327799	1.084438	-0.964141
C112	C	0.172201	1.584438	-0.464141
C113	C	-0.378021	1.134627	-0.923158
C114	C	0.121979	1.634627	-0.423158
C115	C	-0.378174	1.134527	-0.174365
C116	C	0.121826	1.634527	0.325635
C117	C	-0.377978	1.134662	-0.087116
C118	C	0.122022	1.634662	0.412884
H119	H	-0.469122	0.835677	-0.287070
H120	H	0.030878	1.335677	0.212930
H121	H	0.174301	1.225663	-0.469452
H122	H	0.674301	1.725663	0.030548
Br123	Br	-0.259990	0.664763	-0.496838
Br124	Br	0.240010	1.164763	0.003162
H125	H	0.070181	1.225652	-0.469435
H126	H	0.570181	1.725652	0.030565
Br127	Br	-0.100802	1.252891	-0.496682
Br128	Br	0.399198	1.752891	0.003318
H129	H	-0.287233	0.434165	-0.469574
H130	H	0.212767	0.934165	0.030426
H131	H	-0.286986	1.043514	-0.677918
H132	H	0.213014	1.543514	-0.177918
H133	H	-0.469152	0.582831	-0.287114
H134	H	0.030848	1.082831	0.212886
H135	H	-0.469172	0.434099	-0.287132
H136	H	0.030828	0.934099	0.212868
H137	H	0.323008	1.043499	-0.287258
H138	H	0.823008	1.543499	0.212742
H139	H	-0.286921	1.043561	-0.930765
H140	H	0.213079	1.543561	-0.430765
H141	H	-0.286959	1.043534	-0.826637
H142	H	0.213041	1.543534	-0.326637
H143	H	-0.286884	1.043590	-1.079493
H144	H	0.213116	1.543590	-0.579493
Br145	Br	-0.496312	1.252989	-1.101769
Br146	Br	0.003688	1.752989	-0.601769
Br147	Br	-0.496381	1.252939	-0.908527
Br148	Br	0.003619	1.752939	-0.408527
H149	H	-0.469141	1.225668	-0.826662
H150	H	0.030859	1.725668	-0.326662
H151	H	-0.469174	1.225651	-0.677930
H152	H	0.030826	1.725651	-0.177930
H153	H	-0.287229	0.582883	-0.469561
H154	H	0.212771	1.082883	0.030439
H155	H	-0.287192	0.835740	-0.469519
H156	H	0.212808	1.335740	0.030481
H157	H	-0.469145	0.686949	-0.287093
H158	H	0.030855	1.186949	0.212907
H159	H	-0.078568	1.043456	-0.287224
H160	H	0.421432	1.543456	0.212776
Br161	Br	0.092402	1.016199	-0.260000
Br162	Br	0.592402	1.516199	0.240000
H163	H	0.174279	1.043485	-0.287243
H164	H	0.674279	1.543485	0.212757
H165	H	0.323027	1.225689	-0.469450
H166	H	0.823027	1.725689	0.030550
