data_functionalizedCrystal
_audit_creation_method	'MofGen! by Chris Wilmer'
_symmetry_space_group_name_H-M	'P1'
_symmetry_Int_Tables_number	1
_symmetry_cell_setting	triclinic
loop_
_symmetry_equiv_pos_as_xyz
  x,y,z
_cell_length_a	14.971486
_cell_length_b	14.971482
_cell_length_c	13.448316
_cell_angle_alpha	89.993798
_cell_angle_beta	89.993189
_cell_angle_gamma	83.613368
loop_
_atom_site_label
_atom_site_type_symbol
_atom_site_fract_x
_atom_site_fract_y
_atom_site_fract_z
O1	O	0.116549	1.186949	-0.082679
O2	O	0.130511	0.926549	-0.082684
O3	O	-0.006670	1.063729	-0.082675
O4	O	0.253730	1.049770	-0.082689
O5	O	-0.006679	1.063711	0.082709
O6	O	0.130503	0.926532	0.082699
O7	O	0.116540	1.186932	0.082704
Cu8	Cu	0.123521	1.056730	0.097803
Cu9	Cu	0.123531	1.056751	-0.097783
O10	O	0.253722	1.049752	0.082695
C11	C	0.129883	0.893215	0.000007
C12	C	0.128014	0.793918	0.000005
C13	C	0.127129	0.747264	0.090157
C14	C	0.125358	0.653966	0.090158
C15	C	0.124479	0.607322	0.000007
C16	C	0.125361	0.653983	-0.090152
C17	C	0.127125	0.747281	-0.090152
C18	C	0.121686	0.459521	-0.090146
C19	C	0.119923	0.366217	-0.090146
C20	C	0.119918	0.366206	0.090165
C21	C	0.121683	0.459504	0.090165
C22	C	0.122567	0.506158	0.000006
C23	C	-0.039999	1.063096	0.000017
C24	C	-0.139296	1.061225	0.000016
C25	C	-0.196522	1.141814	0.000018
C26	C	-0.289822	1.140051	0.000008
C27	C	-0.325893	1.057698	0.000003
C28	C	-0.268659	0.977102	-0.000002
C29	C	-0.175362	0.978866	0.000001
C30	C	-0.463122	0.973431	-0.000006
C31	C	-0.556426	0.971667	-0.000007
C32	C	-0.577582	1.134616	0.000002
C33	C	-0.484284	1.136380	0.000004
C34	C	-0.427057	1.055784	0.000001
C35	C	0.287051	1.050385	0.000001
C36	C	0.386348	1.052256	-0.000005
C37	C	0.117168	1.220266	0.000011
C38	C	0.119038	1.319563	0.000006
N39	N	0.123513	1.056722	0.235367
N40	N	0.123531	1.056766	-0.235347
C41	C	0.062794	1.117485	0.287412
C42	C	0.062794	1.117490	0.391515
C43	C	0.123517	1.056737	0.443572
C44	C	0.184239	0.995969	0.391520
C45	C	0.184234	0.995960	0.287418
C46	C	0.184245	0.995994	0.608500
C47	C	0.184250	0.996004	0.712608
C48	C	0.062804	1.117524	0.712596
C49	C	0.062800	1.117515	0.608495
C50	C	0.123523	1.056747	0.556450
H51	H	0.122406	0.497504	-0.163563
H52	H	-0.624181	1.200240	0.000001
H53	H	0.013350	1.166960	0.245034
H54	H	0.127848	0.785265	-0.163563
H55	H	0.124639	0.615999	-0.163555
H56	H	0.124622	0.615986	0.163569
O57	O	0.122418	0.504927	0.177674
C58	C	0.046019	0.568930	0.183079
H59	H	0.020482	0.586262	0.104805
H60	H	-0.008866	0.540010	0.227573
C61	C	0.102568	0.633212	0.330755
C62	C	0.071207	0.654504	0.234616
H63	H	0.118102	0.685997	0.362549
H64	H	0.154038	0.590090	0.327116
H65	H	0.056825	0.609110	0.367820
H66	H	0.116954	0.678594	0.197549
H67	H	0.019745	0.697632	0.238250
O68	O	-0.161529	1.221836	-0.000155
C69	C	-0.190773	1.270984	-0.085798
H70	H	-0.210222	1.222832	-0.145664
H71	H	-0.251528	1.320759	-0.066435
C72	C	-0.090485	1.381619	-0.051108
C73	C	-0.114366	1.322477	-0.124640
H74	H	-0.043357	1.413386	-0.075066
H75	H	-0.070785	1.348509	0.006594
H76	H	-0.141122	1.423090	-0.034979
H77	H	-0.063734	1.281000	-0.140758
H78	H	-0.134056	1.355581	-0.182345
H79	H	-0.336413	1.205675	0.000012
H80	H	0.119208	0.328242	-0.163555
H81	H	-0.454919	1.203439	0.000016
H82	H	-0.128768	0.913242	-0.000001
H83	H	-0.585792	0.904607	0.000005
H84	H	-0.416529	0.907801	-0.000011
O85	O	-0.303803	0.897159	-0.000140
C86	C	-0.357112	0.891264	-0.085806
H87	H	-0.380271	0.961741	-0.114361
H88	H	-0.315929	0.851744	-0.145786
C89	C	-0.411244	0.756447	-0.024717
C90	C	-0.439696	0.843008	-0.059783
H91	H	-0.462184	0.726677	-0.008668
H92	H	-0.375327	0.760416	0.032996
H93	H	-0.376925	0.723525	-0.074706
H94	H	-0.474004	0.875932	-0.009791
H95	H	-0.475621	0.839044	-0.117488
H96	H	0.233696	0.946531	0.754988
O97	O	0.243256	0.937060	0.236749
C98	C	0.298531	0.985008	0.176527
H99	H	0.263021	1.054960	0.160922
H100	H	0.364651	0.991154	0.216631
C101	C	0.361171	0.848675	0.096816
C102	C	0.317554	0.934588	0.077643
H103	H	0.372909	0.817572	0.035821
H104	H	0.323934	0.816370	0.137391
H105	H	0.416266	0.853808	0.130239
H106	H	0.262455	0.929453	0.044233
H107	H	0.354782	0.966890	0.037060
O108	O	0.243101	0.936916	0.442197
C109	C	0.195108	0.881682	0.502419
H110	H	0.125175	0.917237	0.518018
H111	H	0.188921	0.815567	0.462319
C112	C	0.331405	0.818961	0.582143
C113	C	0.245513	0.862633	0.601308
H114	H	0.362498	0.807206	0.643140
H115	H	0.363740	0.856170	0.541567
H116	H	0.326236	0.763870	0.548724
H117	H	0.250683	0.917727	0.634715
H118	H	0.213180	0.825432	0.641891
O119	O	0.003788	1.176611	0.441917
C120	C	-0.049815	1.230224	0.373647
H121	H	-0.013144	1.231252	0.299432
H122	H	-0.116319	1.201130	0.362600
C123	C	-0.113107	1.325437	0.505403
C124	C	-0.068063	1.326706	0.414253
H125	H	-0.124368	1.384951	0.530451
H126	H	-0.076997	1.289315	0.551399
H127	H	-0.168523	1.301188	0.496185
H128	H	-0.012644	1.350943	0.423475
H129	H	-0.104165	1.362834	0.368260
H130	H	0.119199	0.328216	0.163576
H131	H	0.013359	1.166989	0.566111
O132	O	0.243355	0.937055	0.557985
C133	C	0.331924	0.951676	0.583422
H134	H	0.332476	1.023287	0.612025
H135	H	0.358119	0.902132	0.643853
C136	C	0.391860	0.849882	0.455806
C137	C	0.392540	0.937839	0.490929
H138	H	0.429253	0.841343	0.398754
H139	H	0.332190	0.840029	0.438671
H140	H	0.413688	0.808606	0.506174
H141	H	0.370702	0.979113	0.440566
H142	H	0.452208	0.947699	0.508054
H143	H	0.013361	1.167003	0.754977
O144	O	0.127822	0.792551	0.177758
C145	C	0.049991	0.779782	0.232615
H146	H	-0.004592	0.761166	0.179865
H147	H	0.066463	0.723348	0.288827
C148	C	0.083495	0.890077	0.352648
C149	C	0.016452	0.867220	0.287859
H150	H	0.062807	0.944012	0.386729
H151	H	0.135933	0.898678	0.315692
H152	H	0.097215	0.843042	0.399482
H153	H	0.002741	0.914250	0.241018
H154	H	-0.035990	0.858629	0.324808
