data_functionalizedCrystal
_audit_creation_method	'MofGen! by Chris Wilmer'
_symmetry_space_group_name_H-M	'P1'
_symmetry_Int_Tables_number	1
_symmetry_cell_setting	triclinic
loop_
_symmetry_equiv_pos_as_xyz
  x,y,z
_cell_length_a	13.033293
_cell_length_b	13.033915
_cell_length_c	12.759393
_cell_angle_alpha	97.207725
_cell_angle_beta	97.210217
_cell_angle_gamma	89.100526
loop_
_atom_site_label
_atom_site_type_symbol
_atom_site_fract_x
_atom_site_fract_y
_atom_site_fract_z
Zn1	Zn	1.624468	-0.209850	0.775062
Zn2	Zn	1.646228	-0.381866	0.580221
Zn3	Zn	1.452476	-0.231726	0.574604
Zn4	Zn	1.474311	-0.403598	0.731094
O5	O	1.549371	-0.306760	0.665245
O6	O	1.771282	-0.214417	0.769967
O7	O	1.620494	-0.362010	0.432443
O8	O	1.457047	-0.084906	0.617245
O9	O	1.787268	-0.340797	0.626819
O10	O	1.583409	-0.068833	0.764520
O11	O	1.478146	-0.251703	0.428316
O12	O	1.311446	-0.272776	0.574611
O13	O	1.494261	-0.377836	0.883959
O14	O	1.327488	-0.399049	0.689583
O15	O	1.604581	-0.235490	0.916262
O16	O	1.641667	-0.528667	0.584185
O17	O	1.515360	-0.544633	0.695031
C18	C	1.282148	-0.340645	0.626717
C19	C	1.167832	-0.355166	0.610256
C20	C	1.108969	-0.299207	0.673833
C21	C	0.990818	-0.314214	0.656822
C22	C	1.583272	-0.573963	0.635473
C23	C	1.597869	-0.688262	0.622786
C24	C	1.556908	-0.865296	0.658789
C25	C	1.541827	-0.747162	0.671912
C26	C	1.817637	-0.272743	0.703924
C27	C	1.931956	-0.258247	0.720407
C28	C	1.549430	-0.306647	0.939300
C29	C	1.549455	-0.306599	1.056087
C30	C	1.515365	-0.038510	0.695160
C31	C	1.500874	0.075803	0.707908
C32	C	1.549362	-0.306791	0.392273
C33	C	1.549499	-0.306524	0.275548
C34	C	1.606907	-0.232472	1.127772
C35	C	1.606926	-0.232432	1.237504
C36	C	1.492041	-0.380655	1.203853
C37	C	1.492016	-0.380689	1.094123
C38	C	1.673239	-0.146899	1.147202
C39	C	1.673258	-0.146859	1.256933
H40	H	0.953746	-0.373235	0.589791
N41	N	1.622789	-0.051398	1.307752
H42	H	1.674449	-0.012652	1.363877
H43	H	1.561709	-0.072354	1.341767
H44	H	1.445229	-0.441048	1.035759
H45	H	1.482681	-0.710137	0.723679
N46	N	0.981039	-0.180058	0.809197
H47	H	1.019534	-0.126731	0.778265
H48	H	1.030902	-0.216360	0.859500
N49	N	1.676216	-0.737295	0.554213
H50	H	1.711537	-0.681755	0.523237
H51	H	1.640034	-0.787239	0.494600
H52	H	1.441732	-0.887169	0.759672
N53	N	1.430076	-0.460551	1.244879
H54	H	1.438801	-0.449277	1.325270
H55	H	1.455376	-0.531987	1.219816
N56	N	1.631614	-0.044986	1.115449
H57	H	1.613049	0.000517	1.180425
H58	H	1.567953	-0.057791	1.061657
N59	N	1.778177	-0.172265	1.112295
H60	H	1.828909	-0.184454	1.176144
H61	H	1.802882	-0.112718	1.078407
N62	N	1.782356	-0.161753	1.308446
H63	H	1.782413	-0.161730	1.387613
H64	H	1.827449	-0.103570	1.295219
N65	N	1.158069	-0.221045	0.762634
H66	H	1.235514	-0.221414	0.762208
H67	H	1.141415	-0.239520	0.833164
H68	H	1.616042	-0.902327	0.607016
N69	N	1.118734	-0.433338	0.521464
H70	H	1.041289	-0.432975	0.521896
H71	H	1.146792	-0.504445	0.532183
