data_functionalizedCrystal
_audit_creation_method	'MofGen! by Chris Wilmer'
_symmetry_space_group_name_H-M	'P1'
_symmetry_Int_Tables_number	1
_symmetry_cell_setting	triclinic
loop_
_symmetry_equiv_pos_as_xyz
  x,y,z
_cell_length_a	12.759395
_cell_length_b	19.805405
_cell_length_c	19.805399
_cell_angle_alpha	89.970699
_cell_angle_beta	89.984838
_cell_angle_gamma	90.026256
loop_
_atom_site_label
_atom_site_type_symbol
_atom_site_fract_x
_atom_site_fract_y
_atom_site_fract_z
Zn1	Zn	1.606139	-0.269482	-0.382632
Zn2	Zn	2.106139	0.230518	0.117368
Zn3	Zn	1.606007	-0.382670	-0.269440
Zn4	Zn	2.106007	0.117330	0.230560
Zn5	Zn	1.430450	-0.269500	-0.269465
Zn6	Zn	1.930450	0.230500	0.230535
Zn7	Zn	1.430394	-0.382634	-0.382596
Zn8	Zn	1.930394	0.117366	0.117404
O9	O	1.518247	-0.326071	-0.326033
O10	O	2.018247	0.173929	0.173967
O11	O	1.753142	-0.284504	-0.367621
O12	O	2.253142	0.215496	0.132379
O13	O	1.582687	-0.367681	-0.174727
O14	O	2.082687	0.132319	0.325273
O15	O	1.453835	-0.174781	-0.284503
O16	O	1.953835	0.325219	0.215497
O17	O	1.753045	-0.367663	-0.284460
O18	O	2.253045	0.132337	0.215540
O19	O	1.582912	-0.174768	-0.367646
O20	O	2.082912	0.325232	0.132354
O21	O	1.453706	-0.284535	-0.174745
O22	O	1.953706	0.215465	0.325255
O23	O	1.283422	-0.284500	-0.284467
O24	O	1.783422	0.215500	0.215533
O25	O	1.453738	-0.367601	-0.477317
O26	O	1.953738	0.132399	0.022683
O27	O	1.283380	-0.367619	-0.367584
O28	O	1.783380	0.132381	0.132416
O29	O	1.582858	-0.284469	-0.477344
O30	O	2.082858	0.215531	0.022656
O31	O	1.582632	-0.477382	-0.284425
O32	O	2.082632	0.022618	0.215575
O33	O	1.453610	-0.477355	-0.367560
O34	O	1.953610	0.022645	0.132440
C35	C	1.518129	-0.501927	-0.326001
C36	C	2.018129	-0.001927	0.173999
C37	C	1.518175	-0.577159	-0.326009
C38	C	2.018175	-0.077159	0.173991
C39	C	1.245280	-0.326058	-0.326025
C40	C	1.745280	0.173942	0.173975
C41	C	1.128503	-0.326069	-0.326037
C42	C	1.628503	0.173931	0.173963
C43	C	1.585422	-0.612495	-0.282766
C44	C	2.085422	-0.112495	0.217234
C45	C	1.585466	-0.683183	-0.282781
C46	C	2.085466	-0.183183	0.217219
C47	C	1.518258	-0.718535	-0.326036
C48	C	2.018258	-0.218535	0.173964
C49	C	1.451008	-0.683194	-0.369284
C50	C	1.951008	-0.183194	0.130716
C51	C	1.450969	-0.612507	-0.369272
C52	C	1.950969	-0.112507	0.130728
C53	C	1.451163	-0.968268	-0.369334
C54	C	1.951163	-0.468268	0.130666
C55	C	1.451204	-1.038960	-0.369341
C56	C	1.951204	-0.538960	0.130659
C57	C	1.585660	-1.038944	-0.282843
C58	C	2.085660	-0.538944	0.217157
C59	C	1.585621	-0.968257	-0.282831
C60	C	2.085621	-0.468257	0.217169
C61	C	1.518376	-0.932922	-0.326081
C62	C	2.018376	-0.432922	0.173919
C63	C	1.518329	-0.856274	-0.326065
C64	C	2.018329	-0.356274	0.173935
C65	C	1.518298	-0.795182	-0.326049
C66	C	2.018298	-0.295182	0.173951
C67	C	1.128585	-0.239615	-0.412773
C68	C	1.628585	0.260385	0.087227
C69	C	1.073765	-0.196396	-0.456147
C70	C	1.573765	0.303604	0.043853
C71	C	0.964043	-0.196408	-0.456155
C72	C	1.464043	0.303592	0.043845
C73	C	0.909139	-0.239642	-0.412784
C74	C	1.409139	0.260358	0.087216
C75	C	0.963959	-0.282861	-0.369411
C76	C	1.463959	0.217139	0.130589
C77	C	1.073683	-0.282846	-0.369408
C78	C	1.573683	0.217154	0.130592
C79	C	0.963877	-0.369310	-0.282672
C80	C	1.463877	0.130690	0.217328
C81	C	1.073599	-0.369302	-0.282666
C82	C	1.573599	0.130698	0.217334
C83	C	0.908973	-0.412544	-0.239301
C84	C	1.408973	0.087456	0.260699
C85	C	0.963793	-0.455767	-0.195930
C86	C	1.463793	0.044233	0.304070
C87	C	1.073521	-0.455753	-0.195924
C88	C	1.573521	0.044247	0.304076
C89	C	1.128419	-0.412521	-0.239293
C90	C	1.628419	0.087479	0.260707
C91	C	1.792281	-0.326085	-0.326042
C92	C	2.292281	0.173915	0.173958
C93	C	1.909057	-0.326091	-0.326046
C94	C	2.409057	0.173909	0.173954
C95	C	1.518306	-0.326029	-0.502576
C96	C	2.018306	0.173971	-0.002576
C97	C	1.518331	-0.326011	-0.577808
C98	C	2.018331	0.173989	-0.077808
C99	C	1.518395	-0.149529	-0.326081
C100	C	2.018395	0.350471	0.173919
C101	C	1.518457	-0.074297	-0.326101
C102	C	2.018457	0.425703	0.173899
C103	C	1.585565	-0.282721	-0.613167
C104	C	2.085565	0.217279	-0.113167
C105	C	1.585576	-0.282702	-0.683856
C106	C	2.085576	0.217298	-0.183856
C107	C	1.518357	-0.325975	-0.719184
C108	C	2.018357	0.174025	-0.219184
C109	C	1.451116	-0.369266	-0.683820
C110	C	1.951116	0.130734	-0.183820
C111	C	1.451101	-0.369282	-0.613133
C112	C	1.951101	0.130718	-0.113133
C113	C	1.451175	-0.369203	-0.968893
C114	C	1.951175	0.130797	-0.468893
C115	C	1.451198	-0.369186	-1.039585
C116	C	1.951198	0.130814	-0.539585
C117	C	1.585651	-0.282623	-1.039616
C118	C	2.085651	0.217377	-0.539616
C119	C	1.585635	-0.282639	-0.968929
C120	C	2.085635	0.217361	-0.468929
C121	C	1.518391	-0.325927	-0.933571
C122	C	2.018391	0.174073	-0.433571
C123	C	1.518378	-0.325947	-0.856923
C124	C	2.018378	0.174053	-0.356923
C125	C	1.518374	-0.325959	-0.795831
C126	C	2.018374	0.174041	-0.295831
C127	C	1.518249	-0.326065	-0.150177
C128	C	2.018249	0.173935	0.349823
C129	C	1.518428	-0.325893	-0.074946
C130	C	2.018428	0.174107	0.425054
H131	H	1.640146	-0.583716	-0.247540
H132	H	2.140146	-0.083716	0.252460
H133	H	1.217760	-0.412503	-0.239289
H134	H	1.717760	0.087497	0.260711
H135	H	1.118480	-0.161195	-0.491457
H136	H	1.618480	0.338805	0.008543
H137	H	1.396476	-1.067741	-0.404570
H138	H	1.896476	-0.567741	0.095430
C139	C	0.903740	-0.148867	-0.503868
C140	C	1.403740	0.351133	-0.003868
N141	N	0.858319	-0.113059	-0.539806
N142	N	1.358319	0.386941	-0.039806
C143	C	1.376993	-0.573639	-0.416843
C144	C	1.876993	-0.073639	0.083157
N145	N	1.321274	-0.544364	-0.452677
N146	N	1.821274	-0.044364	0.047323
H147	H	1.396436	-0.404461	-0.940113
H148	H	1.896436	0.095539	-0.440113
C149	C	0.788442	-0.239647	-0.412790
C150	C	1.288442	0.260353	0.087210
N151	N	0.697532	-0.239652	-0.412795
N152	N	1.197532	0.260348	0.087205
H153	H	1.640345	-0.939476	-0.247607
H154	H	2.140345	-0.439476	0.252393
H155	H	0.819632	-0.412549	-0.239309
H156	H	1.319632	0.087451	0.260691
H157	H	1.217926	-0.239598	-0.412768
H158	H	1.717926	0.260402	0.087232
H159	H	1.396290	-0.711983	-0.404506
H160	H	1.896290	-0.211983	0.095494
C161	C	0.903392	-0.503317	-0.148226
C162	C	1.403392	-0.003317	0.351774
N163	N	0.857893	-0.539134	-0.112296
N164	N	1.357893	-0.039134	0.387704
H165	H	1.396407	-0.939504	-0.404548
H166	H	1.896407	-0.439504	0.095452
H167	H	1.396382	-0.404498	-0.712589
H168	H	1.896382	0.095502	-0.212589
H169	H	1.640225	-0.711950	-0.247568
H170	H	2.140225	-0.211950	0.252432
H171	H	1.396456	-0.404425	-1.068347
H172	H	1.896456	0.095575	-0.568347
H173	H	1.640306	-0.247485	-0.584408
H174	H	2.140306	0.252515	-0.084408
C175	C	1.659577	-0.235032	-0.930072
C176	C	2.159577	0.264968	-0.430072
N177	N	1.715266	-0.199170	-0.900806
N178	N	2.215266	0.300830	-0.400806
H179	H	1.118149	-0.490945	-0.160602
H180	H	1.618149	0.009055	0.339398
H181	H	1.640419	-1.067721	-0.247630
H182	H	2.140419	-0.567721	0.252370
C183	C	1.659541	-0.235081	-0.722747
C184	C	2.159541	0.264919	-0.222747
N185	N	1.715254	-0.199211	-0.752040
N186	N	2.215254	0.300789	-0.252040
H187	H	1.640401	-0.247373	-1.068413
H188	H	2.140401	0.252627	-0.568413
H189	H	1.396341	-0.404526	-0.584344
H190	H	1.896341	0.095474	-0.084344
