data_functionalizedCrystal
_audit_creation_method	'MofGen! by Chris Wilmer'
_symmetry_space_group_name_H-M	'P1'
_symmetry_Int_Tables_number	1
_symmetry_cell_setting	triclinic
loop_
_symmetry_equiv_pos_as_xyz
  x,y,z
_cell_length_a	15.297475
_cell_length_b	16.994747
_cell_length_c	15.296720
_cell_angle_alpha	80.331298
_cell_angle_beta	88.382886
_cell_angle_gamma	80.317658
loop_
_atom_site_label
_atom_site_type_symbol
_atom_site_fract_x
_atom_site_fract_y
_atom_site_fract_z
Zn1	Zn	1.253489	-0.613951	0.726881
Zn2	Zn	1.278768	-0.727542	0.580449
Zn3	Zn	1.132361	-0.569635	0.555102
Zn4	Zn	1.106993	-0.719788	0.701574
O5	O	1.192903	-0.657729	0.641002
O6	O	1.379424	-0.650811	0.728656
O7	O	1.280543	-0.691294	0.454505
O8	O	1.148466	-0.465135	0.577872
O9	O	1.397996	-0.734266	0.621073
O10	O	1.237458	-0.497694	0.704077
O11	O	1.172978	-0.575280	0.435883
O12	O	1.006415	-0.567761	0.553332
O13	O	1.105231	-0.721050	0.827513
O14	O	0.987777	-0.678078	0.660945
O15	O	1.212861	-0.643292	0.846106
O16	O	1.255945	-0.836892	0.596534
O17	O	1.129743	-0.831195	0.685524
C18	C	0.965312	-0.617270	0.601643
C19	C	0.867944	-0.599983	0.584825
C20	C	1.192846	-0.862665	0.641032
C21	C	1.192852	-0.951988	0.641031
Zn22	Zn	1.132390	-1.200723	0.555081
Zn23	Zn	1.253535	-1.245018	0.726850
Zn24	Zn	1.107026	-1.087184	0.701565
Zn25	Zn	1.278789	-1.094797	0.580424
O26	O	1.192935	-1.156930	0.640980
O27	O	1.148506	-1.316983	0.577843
O28	O	1.212916	-1.239433	0.846079
O29	O	0.987807	-1.080521	0.660946
O30	O	1.237511	-1.349527	0.704040
O31	O	1.006442	-1.163937	0.553325
O32	O	1.105277	-1.123473	0.827503
O33	O	1.129765	-0.977809	0.685519
O34	O	1.280553	-1.093496	0.454478
O35	O	1.255958	-0.983402	0.596517
O36	O	1.172994	-1.171319	0.435859
O37	O	1.379468	-1.246815	0.728613
O38	O	1.398022	-1.136448	0.621035
C39	C	0.554824	-0.781288	0.761199
C40	C	0.646306	-0.797536	0.776997
C41	C	0.701720	-0.748149	0.728956
C42	C	0.665643	-0.682512	0.665113
C43	C	0.574152	-0.666266	0.649309
C44	C	0.721048	-0.633127	0.617065
C45	C	0.684971	-0.567490	0.553223
C46	C	0.593489	-0.551247	0.537422
C47	C	0.538075	-0.600634	0.585463
C48	C	0.812539	-0.649372	0.632870
C49	C	0.831867	-0.534350	0.520980
C50	C	0.740384	-0.518103	0.505181
C51	C	1.421383	-0.698347	0.680515
C52	C	1.518747	-0.715656	0.697353
C53	C	1.153396	-0.686250	0.869482
C54	C	1.136561	-0.698403	0.966847
C55	C	1.192966	-0.451993	0.640967
C56	C	1.192996	-0.362674	0.640953
C57	C	1.232306	-0.629272	0.413419
C58	C	1.249311	-0.616926	0.316084
C59	C	1.313261	-0.570732	1.280025
C60	C	1.329084	-0.559315	1.188547
C61	C	1.280954	-0.594086	1.133118
C62	C	1.216999	-0.640276	1.169175
C63	C	1.201179	-0.651699	1.260663
C64	C	1.168873	-0.675053	1.113756
C65	C	1.104918	-0.721243	1.149813
C66	C	1.089100	-0.732664	1.241292
C67	C	1.137230	-0.697893	1.296722
C68	C	1.184693	-0.663630	1.022268
C69	C	1.072612	-0.744597	1.002906
C70	C	1.056788	-0.756014	1.094384
C71	C	1.420529	-1.197267	0.680320
C72	C	1.517891	-1.214549	0.697176
C73	C	1.232420	-1.128316	0.412496
C74	C	1.249246	-1.116122	0.315129
C75	C	0.964452	-1.116439	0.601488
C76	C	0.867086	-1.099184	0.584659
C77	C	1.153541	-1.185467	0.868564
C78	C	1.136471	-1.197768	0.965888
C79	C	1.553935	-1.280164	0.761052
C80	C	1.645416	-1.296418	0.776890
C81	C	1.700851	-1.247053	0.728855
C82	C	1.664802	-1.181433	0.664971
C83	C	1.573323	-1.165184	0.649130
C84	C	1.201142	-1.150913	0.259705
C85	C	1.216934	-1.139452	0.168216
C86	C	1.280836	-1.093206	0.132154
C87	C	1.328942	-1.058411	0.187584
C88	C	1.313144	-1.069867	0.279071
C89	C	0.811654	-1.047644	0.632788
C90	C	0.720169	-1.031415	0.616976
C91	C	0.684115	-1.066732	0.553039
C92	C	0.739554	-1.118275	0.504905
C93	C	0.831039	-1.134499	0.520713
C94	C	1.072820	-1.142872	1.001952
C95	C	1.056764	-1.154426	1.093395
C96	C	1.104363	-1.220875	1.148773
C97	C	1.168017	-1.275777	1.112703
C98	C	1.184068	-1.264225	1.021261
H99	H	0.841904	-0.702814	0.684852
C100	C	0.986438	-0.806820	1.134059
N101	N	0.933448	-0.845086	1.163943
H102	H	1.149107	-1.188572	0.289054
C103	C	0.802356	-0.766036	0.746322
N104	N	0.878159	-0.779513	0.759401
C105	C	1.298355	-0.581518	1.032488
N106	N	1.311460	-0.572045	0.956690
C107	C	0.892003	-1.191206	0.467769
N108	N	0.937918	-1.233920	0.427888
C109	C	1.725791	-1.127127	0.612152
N110	N	1.771731	-1.086219	0.572378
C111	C	0.685985	-0.869736	0.847220
N112	N	0.715872	-0.924121	0.900116
H113	H	1.037031	-0.770282	1.270648
H114	H	1.381158	-0.521710	1.159196
H115	H	1.352446	-0.542432	1.325164
H116	H	1.235904	-1.308928	0.991907
H117	H	1.034056	-1.088759	0.956874
H118	H	1.033422	-0.772912	0.957775
H119	H	1.206767	-1.329880	1.157806
H120	H	1.004933	-1.109713	1.122749
H121	H	0.509700	-0.821496	0.800302
H122	H	1.674753	-1.349850	0.828911
H123	H	1.091286	-1.230271	1.223230
C124	C	1.164012	-1.177738	0.107259
N125	N	1.124152	-1.206577	0.061349
C126	C	1.119840	-0.710462	1.397357
N127	N	1.106749	-0.719934	1.473158
C128	C	0.892818	-0.480019	0.468133
N129	N	0.938732	-0.439101	0.428332
C130	C	0.699880	-1.157124	0.434580
N131	N	0.669993	-1.186388	0.381615
H132	H	1.236765	-0.626021	0.992919
C133	C	0.437435	-0.582755	0.568101
N134	N	0.361631	-0.569287	0.555031
H135	H	1.508810	-1.320367	0.800175
C136	C	1.801482	-1.264949	0.746278
N137	N	1.877277	-1.278435	0.759401
H138	H	0.675042	-0.989446	0.656178
H139	H	0.710997	-0.464660	0.453200
C140	C	1.533684	-1.092992	0.578871
N141	N	1.503833	-1.038613	0.525951
C142	C	0.553807	-0.479045	0.467191
N143	N	0.523919	-0.424661	0.414295
H144	H	1.293692	-1.083885	0.057658
H145	H	1.380971	-1.020757	0.158208
H146	H	1.352323	-1.041537	0.324192
H147	H	0.840996	-1.018878	0.684852
H148	H	0.609622	-1.053512	0.540172
