data_functionalizedCrystal
_audit_creation_method	'MofGen! by Chris Wilmer'
_symmetry_space_group_name_H-M	'P1'
_symmetry_Int_Tables_number	1
_symmetry_cell_setting	triclinic
loop_
_symmetry_equiv_pos_as_xyz
  x,y,z
_cell_length_a	21.395362
_cell_length_b	16.625546
_cell_length_c	21.395356
_cell_angle_alpha	90.025578
_cell_angle_beta	90.035770
_cell_angle_gamma	90.038346
loop_
_atom_site_label
_atom_site_type_symbol
_atom_site_fract_x
_atom_site_fract_y
_atom_site_fract_z
Zn1	Zn	0.957845	-0.320697	0.354586
Zn2	Zn	0.957777	-0.455529	0.249808
Zn3	Zn	0.853075	-0.320751	0.249787
Zn4	Zn	0.853044	-0.455528	0.354513
O5	O	0.905435	-0.388126	0.302174
O6	O	1.045514	-0.338560	0.340726
O7	O	0.943873	-0.437673	0.162128
O8	O	0.867014	-0.207911	0.263710
O9	O	1.045464	-0.437620	0.263747
O10	O	0.943988	-0.207872	0.340705
O11	O	0.866948	-0.338652	0.162112
O12	O	0.765393	-0.338652	0.263640
O13	O	0.866961	-0.437620	0.442201
O14	O	0.765370	-0.437673	0.340582
O15	O	0.943958	-0.338560	0.442254
O16	O	0.943843	-0.568361	0.263676
O17	O	0.866896	-0.568361	0.340602
C18	C	0.742648	-0.388169	0.302101
C19	C	0.673006	-0.388207	0.302085
C20	C	0.905376	-0.597617	0.302147
C21	C	0.905408	-0.687238	0.302157
C22	C	0.640298	-0.439835	0.342088
C23	C	0.574862	-0.439815	0.342116
C24	C	0.542138	-0.388175	0.302129
C25	C	0.574854	-0.336537	0.262123
C26	C	0.640288	-0.336553	0.262101
C27	C	0.438421	-0.381689	0.245724
C28	C	0.372988	-0.381679	0.245745
C29	C	0.340317	-0.388123	0.302198
C30	C	0.373088	-0.394593	0.358632
C31	C	0.438522	-0.394609	0.358610
C32	C	0.471186	-0.388152	0.302149
C33	C	0.236656	-0.439732	0.342236
C34	C	0.171220	-0.439707	0.342265
C35	C	0.171213	-0.336433	0.262266
C36	C	0.236648	-0.336455	0.262242
C37	C	0.269366	-0.388108	0.302227
C38	C	0.905517	-1.015414	0.302222
C39	C	0.905485	-0.924105	0.302206
C40	C	0.905462	-0.851329	0.302189
C41	C	0.905431	-0.760015	0.302174
C42	C	1.068859	-0.388084	0.302247
C43	C	1.138500	-0.388066	0.302278
C44	C	0.905464	-0.388084	0.465597
C45	C	0.905476	-0.388066	0.535238
C46	C	0.905512	-0.177817	0.302214
C47	C	0.905544	-0.088196	0.302231
C48	C	0.905443	-0.388110	0.139386
C49	C	0.905552	-0.387901	0.069745
C50	C	0.945601	-0.439457	1.037043
C51	C	0.945590	-0.439482	0.971608
C52	C	0.905536	-0.387938	0.938877
C53	C	0.865479	-0.336379	0.971586
C54	C	0.865487	-0.336360	1.037021
C55	C	0.900602	-0.315324	0.835220
C56	C	0.900599	-0.315341	0.769787
C57	C	0.905508	-0.387995	0.737056
C58	C	0.910433	-0.460634	0.769766
C59	C	0.910441	-0.460616	0.835200
C60	C	0.905523	-0.387952	0.867924
C61	C	0.945547	-0.439583	0.633401
C62	C	0.945531	-0.439610	0.567965
C63	C	0.865424	-0.336499	0.567945
C64	C	0.865436	-0.336479	0.633380
C65	C	0.905501	-0.388020	0.666105
H66	H	0.548226	-0.481857	0.374694
H67	H	0.263297	-0.481788	0.374796
H68	H	0.465201	-0.399875	0.404560
H69	H	0.978141	-0.481600	0.541340
H70	H	0.346489	-0.399839	0.404602
O71	O	0.895298	-0.236996	0.734511
H72	H	0.850729	-0.206925	0.747046
H73	H	0.832809	-0.294532	0.541296
H74	H	0.144590	-0.481747	0.374844
O75	O	0.675573	-0.280881	0.218941
H76	H	0.641828	-0.244974	0.191134
H77	H	0.896646	-0.256151	0.861864
H78	H	0.914432	-0.519796	0.743118
H79	H	0.144569	-0.294384	0.229711
O80	O	0.988747	-0.495181	0.668705
H81	H	1.016586	-0.531048	0.634969
H82	H	0.832826	-0.294494	0.660006
H83	H	0.263280	-0.294417	0.229664
H84	H	0.346311	-0.376415	0.199794
H85	H	0.465015	-0.376438	0.199750
O86	O	0.915743	-0.538961	0.870477
H87	H	0.958193	-0.537668	0.900308
H88	H	0.548206	-0.294490	0.229566
O89	O	0.675583	-0.495543	0.385217
H90	H	0.726579	-0.486887	0.378479
H91	H	0.978223	-0.481427	1.063684
H92	H	0.832866	-0.294412	0.944933
O93	O	0.988794	-0.495081	0.936324
H94	H	1.016658	-0.530912	0.970073
H95	H	0.832873	-0.294376	1.063646
