data_functionalizedCrystal
_audit_creation_method	'MofGen! by Chris Wilmer'
_symmetry_space_group_name_H-M	'P1'
_symmetry_Int_Tables_number	1
_symmetry_cell_setting	triclinic
loop_
_symmetry_equiv_pos_as_xyz
  x,y,z
_cell_length_a	10.686220
_cell_length_b	29.839131
_cell_length_c	10.685910
_cell_angle_alpha	94.383469
_cell_angle_beta	89.675252
_cell_angle_gamma	94.423467
loop_
_atom_site_label
_atom_site_type_symbol
_atom_site_fract_x
_atom_site_fract_y
_atom_site_fract_z
Zn1	Zn	1.971959	-0.109630	0.562376
Zn2	Zn	1.955692	-0.190910	0.352595
Zn3	Zn	1.746126	-0.121089	0.368686
Zn4	Zn	1.762049	-0.190039	0.578378
O5	O	1.858956	-0.152917	0.465509
O6	O	2.145353	-0.115981	0.521117
O7	O	1.914421	-0.186808	0.179178
O8	O	1.776227	-0.056696	0.394417
O9	O	2.133402	-0.175697	0.366991
O10	O	1.942146	-0.048278	0.536720
O11	O	1.760454	-0.135510	0.191001
O12	O	1.572686	-0.134666	0.409934
O13	O	1.803366	-0.174213	0.751806
O14	O	1.584385	-0.185324	0.563993
O15	O	1.957586	-0.115136	0.740049
O16	O	1.929861	-0.253667	0.382508
O17	O	1.787592	-0.253027	0.548390
C18	C	1.533017	-0.161144	0.490447
C19	C	1.393580	-0.164674	0.501145
C20	C	1.858725	-0.269647	0.465464
C21	C	1.858744	-0.319581	0.465478
C22	C	1.933190	-0.629531	0.379240
C23	C	1.933349	-0.817198	0.379277
O24	O	1.996463	-0.841730	0.305920
N25	N	1.859224	-0.840350	0.465583
C26	C	1.785060	-0.816581	0.551892
O27	O	1.722025	-0.840578	0.625310
C28	C	1.784909	-0.628914	0.551860
C29	C	1.859029	-0.605765	0.465540
C30	C	2.007306	-0.606382	0.292927
C31	C	2.007260	-0.559468	0.292915
C32	C	1.933099	-0.535703	0.379214
C33	C	1.858984	-0.558851	0.465527
C34	C	1.710753	-0.605145	0.638174
C35	C	1.710724	-0.558225	0.638160
C36	C	1.784844	-0.535077	0.551840
C37	C	1.784777	-0.488172	0.551814
N38	N	1.858902	-0.465021	0.465507
C39	C	1.933063	-0.488786	0.379208
C40	C	1.785142	-0.915109	0.551901
C41	C	1.785178	-0.962026	0.551908
C42	C	1.933470	-0.962640	0.379294
C43	C	1.933426	-0.915723	0.379282
C44	C	1.859268	-0.891958	0.465595
C45	C	1.932961	-0.390264	0.379187
C46	C	1.932905	-0.343346	0.379178
C47	C	1.784619	-0.342736	0.551796
C48	C	1.784670	-0.389650	0.551801
C49	C	1.858851	-0.413412	0.465491
O50	O	1.721707	-0.463611	0.625141
O51	O	1.996110	-0.464780	0.305818
C52	C	1.933236	-0.676444	0.379253
C53	C	1.859121	-0.699593	0.465565
C54	C	1.784959	-0.675828	0.551865
C55	C	1.859156	-0.746510	0.465572
C56	C	1.933317	-0.770275	0.379272
C57	C	2.007443	-0.747124	0.292966
C58	C	2.007397	-0.700210	0.292953
C59	C	1.710834	-0.698979	0.638172
C60	C	1.710885	-0.745893	0.638176
C61	C	1.785046	-0.769658	0.551877
C62	C	2.186169	-0.144658	0.440474
C63	C	2.325607	-0.141138	0.429806
C64	C	1.884066	-0.143299	0.792719
C65	C	1.894767	-0.139201	0.932156
C66	C	1.859225	-0.035729	0.465579
C67	C	1.859339	0.014209	0.465608
C68	C	1.833934	-0.162507	1.139572
C69	C	1.823231	-0.166605	1.000135
H70	H	1.374085	-0.118288	0.360543
O71	O	1.740557	-0.198359	0.942154
C72	C	1.712327	-0.263762	0.795370
C73	C	1.806081	-0.227822	0.860924
H74	H	1.765268	-0.287598	0.729701
H75	H	1.642139	-0.246600	0.738963
H76	H	1.660161	-0.283715	0.868995
H77	H	1.858335	-0.207858	0.787382
H78	H	1.876187	-0.245012	0.917355
H79	H	1.993369	-0.409606	0.308908
H80	H	1.964203	-0.112606	0.980631
H81	H	1.345096	-0.187528	0.570404
O82	O	2.079216	-0.629531	0.209108
C83	C	2.083417	-0.687072	0.038492
C84	C	2.001807	-0.660895	0.133338
H85	H	2.020863	-0.712430	-0.022811
H86	H	2.153348	-0.705674	0.091151
H87	H	2.136461	-0.662466	-0.023140
H88	H	1.948683	-0.685471	0.194994
H89	H	1.931953	-0.642286	0.080601
O90	O	1.713022	-0.984539	0.635583
C91	C	1.545008	-1.041370	0.665314
C92	C	1.626609	-1.015904	0.570407
H93	H	1.475141	-1.066741	0.612657
H94	H	1.491910	-1.016344	0.726977
H95	H	1.607634	-1.059900	0.726583
H96	H	1.564073	-0.997373	0.509055
H97	H	1.679717	-1.040952	0.508832
H98	H	1.993782	-0.896878	0.308993
H99	H	1.650389	-0.623985	0.708460
O100	O	2.004986	-0.320804	0.295494
C101	C	2.173095	-0.264007	0.265772
C102	C	2.091536	-0.289492	0.360674
H103	H	2.243108	-0.238692	0.318434
H104	H	2.110567	-0.245424	0.204537
H105	H	2.226049	-0.289065	0.204075
H106	H	2.038570	-0.264464	0.422454
H107	H	2.154130	-0.308082	0.421822
H108	H	2.067619	-0.540623	0.222629
O109	O	1.638711	-0.675854	0.721833
C110	C	1.470486	-0.626765	0.751513
C111	C	1.552109	-0.652921	0.656631
H112	H	1.400432	-0.608224	0.698835
H113	H	1.532962	-0.601356	0.812743
H114	H	1.417581	-0.651380	0.813218
H115	H	1.605027	-0.628340	0.594844
H116	H	1.489568	-0.678335	0.595489
O117	O	2.005561	-0.985793	0.295652
C118	C	2.071457	-1.058342	0.219303
C119	C	1.989723	-1.032177	0.314056
H120	H	2.058660	-1.095849	0.234133
H121	H	2.174285	-1.045886	0.233789
H122	H	2.041866	-1.052660	0.119770
H123	H	2.019204	-1.037846	0.413628
H124	H	1.886914	-1.044638	0.299460
O125	O	1.713164	-0.892071	0.635913
C126	C	1.668474	-0.872975	0.853926
C127	C	1.750066	-0.899092	0.758926
H128	H	1.698297	-0.878635	0.953403
H129	H	1.565639	-0.885456	0.839643
H130	H	1.681137	-0.835469	0.839050
H131	H	1.737510	-0.936602	0.773744
H132	H	1.852870	-0.886574	0.773234
O133	O	1.638761	-0.535182	0.722177
C134	C	1.594123	-0.516073	0.940194
C135	C	1.675687	-0.542199	0.845186
H136	H	1.623964	-0.521729	1.039668
H137	H	1.491282	-0.528550	0.925937
H138	H	1.606795	-0.478569	0.925302
H139	H	1.663122	-0.579708	0.860021
H140	H	1.778497	-0.529685	0.859468
H141	H	1.724319	-0.408498	0.622093
H142	H	1.724234	-0.323379	0.622057
O143	O	2.079478	-0.677670	0.209275
C144	C	2.247604	-0.620880	0.179549
C145	C	2.166036	-0.646360	0.274453
H146	H	2.317623	-0.595567	0.232208
H147	H	2.185084	-0.602296	0.118310
H148	H	2.300550	-0.645942	0.117855
H149	H	2.113077	-0.621329	0.336229
H150	H	2.228622	-0.664952	0.335604
O151	O	2.079486	-0.770279	0.209283
C152	C	2.145276	-0.842834	0.132846
C153	C	2.063629	-0.816664	0.227672
H154	H	2.132463	-0.880342	0.147664
H155	H	2.248120	-0.830390	0.147263
H156	H	2.115619	-0.837144	0.033339
H157	H	2.093174	-0.822343	0.327218
H158	H	1.960802	-0.829114	0.213146
H159	H	1.650516	-0.764736	0.708469
