data_functionalizedCrystal
_audit_creation_method	'MofGen! by Chris Wilmer'
_symmetry_space_group_name_H-M	'P1'
_symmetry_Int_Tables_number	1
_symmetry_cell_setting	triclinic
loop_
_symmetry_equiv_pos_as_xyz
  x,y,z
_cell_length_a	16.992694
_cell_length_b	12.837942
_cell_length_c	16.053802
_cell_angle_alpha	92.838962
_cell_angle_beta	87.249047
_cell_angle_gamma	92.748582
loop_
_atom_site_label
_atom_site_type_symbol
_atom_site_fract_x
_atom_site_fract_y
_atom_site_fract_z
O1	O	1.059913	0.217066	-0.069322
O2	O	0.831447	0.214638	-0.069347
O3	O	0.940614	0.064530	-0.069330
O4	O	0.950746	0.367174	-0.069339
O5	O	0.934602	0.072756	0.069528
O6	O	0.825435	0.222864	0.069511
O7	O	1.053901	0.225292	0.069536
Zn8	Zn	0.938714	0.225384	0.091570
Zn9	Zn	0.946634	0.214546	-0.091381
O10	O	0.944734	0.375400	0.069519
C11	C	0.798996	0.215629	0.000079
C12	C	0.711256	0.206315	0.000070
C13	C	0.934185	0.029738	0.000098
C14	C	0.923977	-0.086184	0.000096
C15	C	0.667730	0.296178	0.000068
C16	C	0.585288	0.287422	0.000079
C17	C	0.546375	0.188801	0.000087
C18	C	0.589907	0.098931	0.000092
C19	C	0.672346	0.107689	0.000086
C20	C	0.300064	0.152502	0.000111
C21	C	0.217618	0.143751	0.000114
C22	C	0.213006	0.332243	0.000103
C23	C	0.295447	0.340992	0.000092
C24	C	0.338972	0.251122	0.000101
N25	N	0.462107	0.179847	0.000097
N26	N	0.423238	0.260077	0.000098
C27	C	1.046699	-0.316977	0.000092
C28	C	1.037111	-0.425897	0.000089
C29	C	0.895215	-0.412948	0.000082
C30	C	0.904802	-0.304027	0.000085
C31	C	0.980547	-0.256046	0.000091
C32	C	0.990134	-0.147123	0.000099
C33	C	0.848238	-0.134176	0.000086
C34	C	0.838650	-0.243097	0.000084
C35	C	1.086353	0.224300	0.000108
C36	C	1.174092	0.233614	0.000112
C37	C	0.951163	0.410191	0.000089
C38	C	0.961371	0.526114	0.000086
N39	N	0.933314	0.232780	0.216430
N40	N	0.952040	0.207141	-0.216241
C41	C	0.979785	0.168935	0.260131
C42	C	0.976016	0.174120	0.347537
C43	C	0.925779	0.243156	0.391240
C44	C	0.879303	0.307004	0.347533
C45	C	0.883068	0.301813	0.260129
C46	C	0.909329	0.265799	0.652647
C47	C	0.905569	0.270987	0.740058
C48	C	1.002281	0.138101	0.740056
C49	C	1.006046	0.132921	0.652650
C50	C	0.959566	0.196765	0.608950
N51	N	0.921927	0.248459	0.480584
N52	N	0.963414	0.191455	0.519608
H53	H	0.699407	0.376486	0.000061
C54	C	1.052870	0.068900	0.787455
C55	C	1.132583	0.091045	0.766198
C56	C	1.179207	0.027319	0.809852
H57	H	1.039815	-0.002313	0.773171
H58	H	1.043488	0.081880	0.845778
H59	H	1.141960	0.078057	0.707888
H60	H	1.145661	0.162247	0.780485
H61	H	1.169825	0.040299	0.868174
H62	H	1.166145	-0.043891	0.795564
H63	H	1.233297	0.042342	0.795441
C64	C	0.776309	-0.068199	0.000129
C65	C	0.707927	-0.133536	0.000146
C66	C	0.641653	-0.072795	0.000202
H67	H	0.779080	-0.028285	-0.048277
H68	H	0.774963	-0.022598	0.048575
H69	H	0.709273	-0.179119	-0.048295
H70	H	0.705130	-0.173451	0.048548
H71	H	0.640307	-0.027194	0.048648
H72	H	0.644431	-0.032883	-0.048205
H73	H	0.595248	-0.117116	0.000221
C74	C	0.756480	-0.295389	0.000123
C75	C	0.762239	-0.403817	0.000141
C76	C	0.686559	-0.452019	0.000191
H77	H	0.730921	-0.277862	-0.048285
H78	H	0.726798	-0.272073	0.048567
H79	H	0.791910	-0.427125	-0.048298
H80	H	0.787785	-0.421375	0.048545
H81	H	0.656876	-0.428703	0.048635
H82	H	0.661006	-0.434484	-0.048218
H83	H	0.690456	-0.525592	0.000211
H84	H	0.707785	0.034512	0.000087
H85	H	0.871485	0.317785	0.617074
H86	H	1.020697	0.112723	0.224553
C87	C	0.347414	0.055008	-0.000022
C88	C	0.397973	0.050307	-0.071453
C89	C	0.441613	-0.039489	-0.071600
H90	H	0.312521	-0.005056	-0.000064
H91	H	0.377627	0.057360	0.048374
H92	H	0.367762	0.047945	-0.119836
H93	H	0.432882	0.110349	-0.071426
H94	H	0.471827	-0.037136	-0.023204
H95	H	0.406714	-0.099546	-0.071640
H96	H	0.475928	-0.042686	-0.120061
C97	C	1.072435	-0.095224	0.000057
C98	C	1.128316	-0.171905	0.000031
C99	C	1.204141	-0.124139	-0.000023
H100	H	1.077148	-0.050144	0.048467
H101	H	1.081255	-0.055897	-0.048385
H102	H	1.119498	-0.211214	0.048469
H103	H	1.123627	-0.216989	-0.048375
H104	H	1.212962	-0.084812	-0.048466
H105	H	1.208847	-0.079060	0.048387
H106	H	1.242066	-0.176159	-0.000048
H107	H	1.046952	0.076706	0.617068
H108	H	1.013856	0.122131	0.383118
H109	H	0.864658	0.327208	0.775638
H110	H	0.838395	0.363211	0.383121
C111	C	0.832717	0.371313	0.212722
C112	C	0.852264	0.476147	0.233950
C113	C	0.805901	0.540197	0.190288
H114	H	0.778575	0.356568	0.227019
H115	H	0.842162	0.358403	0.154400
H116	H	0.842813	0.489051	0.292258
H117	H	0.906399	0.490923	0.219650
H118	H	0.815346	0.527288	0.131967
H119	H	0.751761	0.525444	0.204589
H120	H	0.819162	0.611334	0.204679
C121	C	0.538173	0.385110	0.000033
C122	C	0.589898	0.473350	-0.000002
C123	C	0.546525	0.563362	-0.000053
H124	H	0.503825	0.388632	0.048447
H125	H	0.508020	0.382797	-0.048405
H126	H	0.620037	0.475663	0.048432
H127	H	0.624247	0.469863	-0.048411
H128	H	0.516372	0.561049	-0.048492
H129	H	0.512178	0.566874	0.048361
H130	H	0.581614	0.623243	-0.000085
C131	C	1.109009	-0.491930	-0.000038
C132	C	1.157243	-0.473547	-0.071464
C133	C	1.223491	-0.534349	-0.071605
H134	H	1.092566	-0.563701	-0.000083
H135	H	1.137683	-0.473857	0.048362
H136	H	1.128574	-0.491628	-0.119851
H137	H	1.173708	-0.401789	-0.071434
H138	H	1.252165	-0.516275	-0.023205
H139	H	1.207039	-0.606115	-0.071648
H140	H	1.256229	-0.521877	-0.120062
H141	H	0.327125	0.421299	0.000076
H142	H	0.177559	0.405409	0.000097
H143	H	1.108373	-0.277909	0.000104
H144	H	0.558216	0.018632	0.000110
H145	H	0.833547	-0.452034	0.000069
H146	H	0.185938	0.063438	0.000120
