data_functionalizedCrystal
_audit_creation_method	'MofGen! by Chris Wilmer'
_symmetry_space_group_name_H-M	'P1'
_symmetry_Int_Tables_number	1
_symmetry_cell_setting	triclinic
loop_
_symmetry_equiv_pos_as_xyz
  x,y,z
_cell_length_a	14.044220
_cell_length_b	10.654553
_cell_length_c	13.101018
_cell_angle_alpha	93.395422
_cell_angle_beta	86.335600
_cell_angle_gamma	88.837528
loop_
_atom_site_label
_atom_site_type_symbol
_atom_site_fract_x
_atom_site_fract_y
_atom_site_fract_z
O1	O	0.128059	1.687565	0.085230
O2	O	0.140749	1.323363	0.085229
O3	O	-0.003616	1.499997	0.085219
O4	O	0.272424	1.510932	0.085240
O5	O	0.006751	1.487308	-0.085210
O6	O	0.151116	1.310675	-0.085200
O7	O	0.138426	1.674877	-0.085200
Zn8	Zn	0.146417	1.490761	-0.112259
Zn9	Zn	0.132758	1.507479	0.112289
O10	O	0.282791	1.498243	-0.085190
C11	C	0.145001	1.270127	0.000015
C12	C	0.142211	1.130404	0.000014
C13	C	0.143924	0.926552	-0.092880
C14	C	0.146551	1.057836	-0.092886
C15	C	0.135253	1.071680	0.092926
C16	C	0.132633	0.940398	0.092930
C17	C	0.150442	0.918561	-0.200157
C18	C	0.153069	1.049845	-0.200163
C19	C	-0.033778	1.488867	0.000004
C20	C	-0.139098	1.474591	0.000003
C21	C	-0.331932	1.448493	0.000018
C22	C	-0.388899	1.549742	0.000021
C23	C	-0.496198	1.535221	0.000029
C24	C	-0.224622	1.463013	0.000009
C25	C	0.312953	1.509373	0.000028
C26	C	0.418273	1.523650	0.000036
C27	C	0.134175	1.728113	0.000017
C28	C	0.136964	1.867837	0.000024
N29	N	0.155739	1.479361	-0.265508
C30	C	0.110743	1.534391	-0.525420
C31	C	0.168422	1.463862	-0.474544
C32	C	0.161363	1.472488	-0.358225
C33	C	0.117801	1.525766	-0.641749
N34	N	0.123429	1.518888	0.265537
H35	H	0.126978	0.892597	0.168582
H36	H	0.131729	1.130774	0.168567
Cl37	Cl	0.255514	0.852528	-0.263741
Cl38	Cl	0.046834	0.858316	-0.251708
Cl39	Cl	0.263007	1.102410	-0.251552
Cl40	Cl	0.055728	1.106408	-0.263756
H41	H	-0.357090	1.647334	0.000090
Cl42	Cl	-0.381047	1.297835	0.000023
H43	H	0.223103	1.397003	-0.518345
Cl44	Cl	0.026327	1.637617	-0.457801
