data_functionalizedCrystal
_audit_creation_method	'MofGen! by Chris Wilmer'
_symmetry_space_group_name_H-M	'P1'
_symmetry_Int_Tables_number	1
_symmetry_cell_setting	triclinic
loop_
_symmetry_equiv_pos_as_xyz
  x,y,z
_cell_length_a	15.944551
_cell_length_b	15.944551
_cell_length_c	15.021413
_cell_angle_alpha	90.003065
_cell_angle_beta	89.997174
_cell_angle_gamma	83.498738
loop_
_atom_site_label
_atom_site_type_symbol
_atom_site_fract_x
_atom_site_fract_y
_atom_site_fract_z
O1	O	1.114529	0.108321	-0.073941
O2	O	0.869979	0.121677	-0.073964
O3	O	0.998932	-0.007276	-0.073944
O4	O	0.985576	0.237274	-0.073961
O5	O	0.998912	-0.007257	0.074121
O6	O	0.869959	0.121695	0.074101
O7	O	1.114508	0.108339	0.074123
Zn8	Zn	0.992230	0.115020	0.097620
Zn9	Zn	0.992257	0.114996	-0.097461
O10	O	0.985555	0.237292	0.074103
C11	C	0.838675	0.121132	0.000066
C12	C	0.745429	0.119470	0.000057
C13	C	0.530572	0.035565	0.000081
C14	C	0.469562	0.074518	-0.072926
C15	C	0.574703	0.116462	0.000068
C16	C	0.469564	0.074556	0.073054
C17	C	0.409790	0.113551	0.000083
C18	C	0.514921	0.155438	-0.072998
C19	C	0.514930	0.155464	0.073047
C20	C	0.453937	0.194476	0.000023
C21	C	0.669705	0.118137	0.000059
C22	C	0.314789	0.111883	0.000085
C23	C	0.998367	-0.038561	0.000089
C24	C	0.996705	-0.131807	0.000089
C25	C	0.912801	-0.346663	0.000069
C26	C	0.951753	-0.407672	0.073077
C27	C	0.993698	-0.302533	0.000082
C28	C	0.951792	-0.407673	-0.072903
C29	C	0.990787	-0.467445	0.000071
C30	C	1.032672	-0.362313	0.073150
C31	C	1.032700	-0.362308	-0.072895
C32	C	1.071711	-0.423298	0.000131
C33	C	0.995372	-0.207530	0.000089
C34	C	0.989119	-0.562446	0.000070
C35	C	1.145813	0.108885	0.000092
C36	C	1.239059	0.110547	0.000094
C37	C	0.986120	0.268577	0.000069
C38	C	0.987782	0.361823	0.000063
N39	N	0.992218	0.115036	0.230758
N40	N	0.992276	0.114973	-0.230598
C41	C	0.932581	0.174636	0.470432
C42	C	1.008481	0.190943	0.529772
C43	C	0.992239	0.115015	0.412365
C44	C	0.916360	0.098727	0.529766
C45	C	0.992253	0.114997	0.587789
C46	C	1.068178	0.131360	0.470398
C47	C	0.976006	0.039111	0.470387
C48	C	1.051962	0.055386	0.529701
C49	C	0.992230	0.115028	0.311307
C50	C	0.992271	0.114984	0.688844
H51	H	0.420779	0.261683	-0.000023
H52	H	0.563905	-0.031573	-0.000005
O53	O	0.538924	0.196135	0.146766
C54	C	0.516062	0.153285	0.223592
H55	H	0.509297	0.084802	0.206106
H56	H	0.453420	0.185059	0.250228
C57	C	0.593154	0.240176	0.316630
C58	C	0.584853	0.156063	0.295155
H59	H	0.635585	0.241893	0.360775
H60	H	0.608554	0.269048	0.264871
H61	H	0.540948	0.266645	0.338821
H62	H	0.637055	0.129599	0.272954
H63	H	0.569463	0.127187	0.346911
O64	O	0.445703	0.033619	0.146660
C65	C	0.485096	-0.050134	0.146372
H66	H	0.544502	-0.054166	0.103637
H67	H	0.439848	-0.093699	0.117877
C68	C	0.436037	-0.072377	0.294765
C69	C	0.509005	-0.077326	0.242283
H70	H	0.450783	-0.089153	0.353928
H71	H	0.409495	-0.015951	0.294959
H72	H	0.398338	-0.108681	0.271009
H73	H	0.546698	-0.041015	0.266033
H74	H	0.535554	-0.133747	0.242096
O75	O	1.112106	-0.004867	0.560600
C76	C	1.073703	-0.063722	0.612262
H77	H	1.004608	-0.062347	0.592204
H78	H	1.077857	-0.046738	0.685731
C79	C	1.204345	-0.154499	0.621181
C80	C	1.119482	-0.152816	0.596540
H81	H	1.232584	-0.209456	0.611486
H82	H	1.230219	-0.114846	0.586378
H83	H	1.207794	-0.140342	0.682403
H84	H	1.116033	-0.166962	0.535316
H85	H	1.093608	-0.192473	0.631332
O86	O	0.832682	-0.306959	0.000301
C87	C	0.790325	-0.329948	0.077404
H88	H	0.838536	-0.351932	0.130940
H89	H	0.751072	-0.383339	0.060743
C90	C	0.672741	-0.226238	0.046060
C91	C	0.731954	-0.253232	0.111817
H92	H	0.636732	-0.178918	0.067286
H93	H	0.701276	-0.210752	-0.005888
H94	H	0.640039	-0.270738	0.032183
H95	H	0.764661	-0.208737	0.125685
H96	H	0.703423	-0.268709	0.163768
O97	O	0.910847	-0.431749	0.146610
C98	C	0.840805	-0.472466	0.120399
H99	H	0.851378	-0.498366	0.050058
H100	H	0.781435	-0.425359	0.121794
C101	C	0.817226	-0.513779	0.271294
C102	C	0.830216	-0.545596	0.184903
H103	H	0.810691	-0.558887	0.311085
H104	H	0.864413	-0.486345	0.288955
H105	H	0.767752	-0.474523	0.272444
H106	H	0.879695	-0.584843	0.183752
H107	H	0.783037	-0.573039	0.167244
O108	O	0.872558	0.234876	0.439268
C109	C	0.910992	0.292799	0.386377
H110	H	0.974034	0.261451	0.360321
H111	H	0.921965	0.350232	0.428177
C112	C	0.775563	0.359338	0.339335
C113	C	0.852989	0.320833	0.307327
H114	H	0.739783	0.376634	0.290575
H115	H	0.749668	0.320316	0.374971
H116	H	0.784719	0.407194	0.374169
H117	H	0.843833	0.272972	0.272503
H118	H	0.878880	0.359847	0.271683
O119	O	1.073391	-0.338314	0.146841
C120	C	1.074451	-0.250017	0.145964
H121	H	1.020537	-0.219826	0.102693
H122	H	1.137172	-0.234267	0.117747
C123	C	1.129929	-0.252706	0.294723
C124	C	1.063706	-0.215624	0.241582
H125	H	1.123305	-0.231490	0.353704
H126	H	1.129218	-0.312194	0.295313
H127	H	1.182190	-0.239577	0.271197
H128	H	1.011448	-0.228761	0.265101
H129	H	1.064408	-0.156137	0.240998
O130	O	0.839730	0.082394	0.560769
C131	C	0.777025	0.145431	0.530587
H132	H	0.800214	0.176207	0.468103
H133	H	0.763167	0.195251	0.584658
C134	C	0.667441	0.067617	0.585726
C135	C	0.695920	0.105412	0.508978
H136	H	0.617411	0.042934	0.572401
H137	H	0.709687	0.025149	0.606063
H138	H	0.655900	0.109141	0.630778
H139	H	0.707472	0.063887	0.463932
H140	H	0.653675	0.147872	0.488633
O141	O	0.911088	-0.431762	-0.146564
C142	C	0.966758	-0.487644	-0.197496
H143	H	1.019229	-0.518609	-0.152873
H144	H	0.995411	-0.451153	-0.252884
C145	C	0.853536	-0.518121	-0.293397
C146	C	0.917979	-0.556158	-0.238589
H147	H	0.823448	-0.560382	-0.318748
H148	H	0.816030	-0.480470	-0.259085
H149	H	0.877424	-0.487713	-0.339546
H150	H	0.894090	-0.586556	-0.192434
H151	H	0.955480	-0.593816	-0.272894
O152	O	1.151944	-0.462719	0.000232
C153	C	1.209514	-0.401805	0.000982
H154	H	1.177329	-0.340068	0.029358
H155	H	1.231525	-0.390886	-0.069859
C156	C	1.325672	-0.509241	0.024314
C157	C	1.286144	-0.433416	0.059173
H158	H	1.372943	-0.528740	0.060206
H159	H	1.286887	-0.550280	0.023805
H160	H	1.344007	-0.500131	-0.034719
H161	H	1.267800	-0.442529	0.118201
H162	H	1.324928	-0.392378	0.059693
O163	O	1.024900	0.267447	0.561051
C164	C	1.025413	0.266129	0.654902
H165	H	1.039104	0.198196	0.679106
H166	H	0.961206	0.294418	0.680925
C167	C	1.077399	0.401676	0.659843
C168	C	1.094221	0.318241	0.689571
H169	H	1.119840	0.433824	0.681230
H170	H	1.077050	0.402566	0.596614
H171	H	1.023891	0.425239	0.681531
H172	H	1.147723	0.294676	0.667873
H173	H	1.094581	0.317348	0.752797
H174	H	0.962240	-0.025051	0.444283
O175	O	1.144679	0.147962	0.439277
C176	C	1.143733	0.147815	0.345421
H177	H	1.075865	0.160959	0.320875
H178	H	1.172471	0.083550	0.319972
C179	C	1.278915	0.200570	0.340583
C180	C	1.195559	0.216720	0.310434
H181	H	1.310887	0.243070	0.319000
H182	H	1.279555	0.200666	0.403815
H183	H	1.302852	0.147013	0.319373
H184	H	1.171620	0.270271	0.331653
H185	H	1.194917	0.216635	0.247204
O186	O	1.073383	-0.338177	-0.146547
C187	C	1.018142	-0.281086	-0.196583
H188	H	0.966330	-0.249822	-0.151336
H189	H	0.988553	-0.316557	-0.252154
C190	C	1.131395	-0.251438	-0.292865
C191	C	1.067763	-0.213033	-0.237290
H192	H	1.162003	-0.209462	-0.317979
H193	H	1.168612	-0.289903	-0.259157
H194	H	1.106728	-0.280996	-0.339167
H195	H	1.092431	-0.183485	-0.190984
H196	H	1.030551	-0.174561	-0.270992
H197	H	0.534918	0.189621	-0.134787
O198	O	0.445630	0.033558	-0.146486
C199	C	0.485049	-0.050185	-0.146235
H200	H	0.503290	-0.069670	-0.075191
H201	H	0.544130	-0.054592	-0.189503
C202	C	0.401257	-0.085458	-0.270736
C203	C	0.423654	-0.109391	-0.183478
H204	H	0.363388	-0.121979	-0.293713
H205	H	0.374701	-0.029037	-0.270908
H206	H	0.450496	-0.089130	-0.306782
H207	H	0.374417	-0.105708	-0.147432
H208	H	0.450201	-0.165813	-0.183301
