data_functionalizedCrystal
_audit_creation_method	'MofGen! by Chris Wilmer'
_symmetry_space_group_name_H-M	'P1'
_symmetry_Int_Tables_number	1
_symmetry_cell_setting	triclinic
loop_
_symmetry_equiv_pos_as_xyz
  x,y,z
_cell_length_a	16.992694
_cell_length_b	14.519709
_cell_length_c	15.455313
_cell_angle_alpha	92.669068
_cell_angle_beta	87.142206
_cell_angle_gamma	87.174184
loop_
_atom_site_label
_atom_site_type_symbol
_atom_site_fract_x
_atom_site_fract_y
_atom_site_fract_z
O1	O	1.044092	0.191795	-0.072025
O2	O	0.815805	0.189648	-0.072051
O3	O	0.936001	0.056918	-0.072029
O4	O	0.923896	0.324525	-0.072046
O5	O	0.929127	0.064474	0.072232
O6	O	0.808932	0.197205	0.072210
O7	O	1.037219	0.199352	0.072236
Cu8	Cu	0.922447	0.198968	0.085395
Cu9	Cu	0.930576	0.190031	-0.085210
O10	O	0.917023	0.332082	0.072215
C11	C	0.783152	0.190666	0.000077
C12	C	0.696097	0.182430	0.000067
C13	C	0.645968	0.261890	0.000063
C14	C	0.564170	0.254147	0.000075
C15	C	0.532502	0.166943	0.000086
C16	C	0.582638	0.087478	0.000093
C17	C	0.664434	0.095222	0.000087
C18	C	0.288859	0.134847	0.000111
C19	C	0.207056	0.127109	0.000115
C20	C	0.188594	0.293779	0.000099
C21	C	0.270393	0.301515	0.000087
C22	C	0.320520	0.222050	0.000099
N23	N	0.448892	0.159027	0.000096
N24	N	0.404129	0.229968	0.000095
C25	C	0.932000	0.026296	0.000101
C26	C	0.930309	-0.076207	0.000102
C27	C	0.924087	-0.451550	0.000078
C28	C	0.925815	-0.347118	0.000085
C29	C	0.927198	-0.263882	0.000091
C30	C	0.928926	-0.159443	0.000096
C31	C	1.069872	0.198333	0.000107
C32	C	1.156927	0.206569	0.000111
C33	C	0.921024	0.362704	0.000082
C34	C	0.922715	0.465206	0.000076
N35	N	0.916736	0.205254	0.205390
N36	N	0.936294	0.183739	-0.205204
C37	C	0.967817	0.148889	0.250793
C38	C	0.963505	0.153651	0.341600
C39	C	0.908115	0.214784	0.387002
C40	C	0.857028	0.271151	0.341593
C41	C	0.861337	0.266383	0.250787
C42	C	0.889516	0.235339	0.658581
C43	C	0.885212	0.240104	0.749392
C44	C	0.991689	0.122602	0.749393
C45	C	0.995996	0.117844	0.658586
C46	C	0.944907	0.174208	0.613185
N47	N	0.903708	0.219655	0.479822
N48	N	0.949311	0.169331	0.520367
H49	H	1.012925	0.099112	0.213832
H50	H	0.811924	0.320923	0.378565
H51	H	0.840105	0.289889	0.786355
C52	C	0.547805	-0.008447	0.000107
C53	C	0.563106	-0.072204	0.075025
C54	C	0.528274	-0.168131	0.075037
C55	C	0.478141	-0.200301	0.000131
C56	C	0.462837	-0.136543	-0.074793
C57	C	0.497669	-0.040616	-0.074805
H58	H	0.600220	-0.048390	0.130480
H59	H	0.539604	-0.215328	0.130501
H60	H	0.452357	-0.271312	0.000140
H61	H	0.425724	-0.160357	-0.130248
H62	H	0.486340	0.006581	-0.130269
H63	H	0.819740	0.312280	0.213821
H64	H	1.005099	0.107754	0.378567
H65	H	0.705249	0.030517	0.000090
C66	C	1.047879	0.060597	0.799335
C67	C	1.043144	0.065832	0.899218
C68	C	1.099335	0.003820	0.949158
C69	C	1.160261	-0.063425	0.899216
C70	C	1.164998	-0.068662	0.799328
C71	C	1.108807	-0.006651	0.749388
H72	H	0.998041	0.115613	0.936193
H73	H	1.095828	0.007697	1.023102
H74	H	1.201857	-0.109330	0.936185
H75	H	1.210101	-0.118444	0.762353
H76	H	1.112314	-0.010528	0.675444
C77	C	1.056922	0.050595	0.608641
C78	C	1.054872	-0.053879	0.621135
C79	C	1.115800	-0.121125	0.571187
C80	C	1.178776	-0.083897	0.508743
C81	C	1.180828	0.020581	0.496246
C82	C	1.119900	0.087828	0.546194
H83	H	1.008251	-0.081442	0.667362
H84	H	1.114281	-0.198467	0.580438
H85	H	1.223878	-0.133677	0.471768
H86	H	1.227449	0.048144	0.450019
H87	H	1.121419	0.165170	0.536943
H88	H	0.329663	0.070141	0.000121
H89	H	0.671744	0.332900	0.000054
C90	C	0.509031	0.341557	0.000071
C91	C	0.516218	0.407443	-0.074849
C92	C	0.461081	0.494859	-0.074849
C93	C	0.398757	0.516390	0.000069
C94	C	0.391568	0.450503	0.074994
C95	C	0.446705	0.363087	0.074995
H96	H	0.562356	0.391505	-0.130313
H97	H	0.466403	0.543633	-0.130314
H98	H	0.357941	0.581101	0.000068
H99	H	0.345430	0.466440	0.130459
H100	H	0.441383	0.314313	0.130460
H101	H	0.296170	0.372525	0.000069
H102	H	0.147771	0.358475	0.000091
H103	H	0.181276	0.056094	0.000123
H104	H	0.847918	0.281234	0.621622
