data_functionalizedCrystal
_audit_creation_method	'MofGen! by Chris Wilmer'
_symmetry_space_group_name_H-M	'P1'
_symmetry_Int_Tables_number	1
_symmetry_cell_setting	triclinic
loop_
_symmetry_equiv_pos_as_xyz
  x,y,z
_cell_length_a	27.732048
_cell_length_b	15.944499
_cell_length_c	15.021413
_cell_angle_alpha	89.995782
_cell_angle_beta	90.003465
_cell_angle_gamma	83.060132
loop_
_atom_site_label
_atom_site_type_symbol
_atom_site_fract_x
_atom_site_fract_y
_atom_site_fract_z
O1	O	0.062218	1.113724	0.074095
O2	O	0.069930	0.869068	0.074087
O3	O	-0.004291	0.998995	0.074074
O4	O	0.136439	0.983798	0.074108
O5	O	-0.004286	0.999010	-0.073990
O6	O	0.069935	0.869083	-0.073978
O7	O	0.062223	1.113739	-0.073969
Zn8	Zn	0.066079	0.991414	-0.097482
Zn9	Zn	0.066073	0.991394	0.097599
O10	O	0.136443	0.983813	-0.073957
C11	C	0.069617	0.837785	0.000053
C12	C	0.068670	0.744549	0.000049
C13	C	0.111790	0.452449	0.000072
C14	C	0.089373	0.513764	0.073072
C15	C	0.065231	0.408957	0.000069
C16	C	0.089365	0.513765	-0.072908
C17	C	0.066923	0.573844	0.000058
C18	C	0.042801	0.469044	0.073129
C19	C	0.042799	0.469039	-0.072917
C20	C	0.020348	0.530337	0.000101
C21	C	0.064257	0.313970	0.000076
C22	C	0.067893	0.668830	0.000057
C23	C	-0.022297	0.998683	0.000040
C24	C	-0.075956	0.997723	0.000032
C25	C	-0.414472	1.068453	0.000080
C26	C	-0.616147	1.064889	0.000093
O27	O	-0.647129	1.129568	0.000134
N28	N	-0.635596	0.987848	0.000089
C29	C	-0.604623	0.911693	0.000088
O30	O	-0.625793	0.846083	0.000095
C31	C	-0.402949	0.915258	0.000082
C32	C	-0.383503	0.992304	0.000077
C33	C	-0.395025	1.145493	0.000076
C34	C	-0.344609	1.146384	0.000068
C35	C	-0.313640	1.070234	0.000065
C36	C	-0.333087	0.993194	0.000069
C37	C	-0.371977	0.839103	0.000088
C38	C	-0.321556	0.840001	0.000089
C39	C	-0.302110	0.917047	0.000083
C40	C	-0.251702	0.917934	0.000058
N41	N	-0.232253	0.994976	0.000061
C42	C	-0.263222	1.071125	0.000065
C43	C	-0.710505	0.909826	0.000090
C44	C	-0.760923	0.908935	0.000090
C45	C	-0.772443	1.062132	0.000096
C46	C	-0.722024	1.063023	0.000089
C47	C	-0.691056	0.986868	0.000093
C48	C	-0.157345	1.072989	0.000047
C49	C	-0.106925	1.073872	0.000036
C50	C	-0.095409	0.920676	0.000034
C51	C	-0.145825	0.919792	0.000041
C52	C	-0.176792	0.995955	0.000051
O53	O	-0.220691	0.853291	0.000026
O54	O	-0.242043	1.136726	0.000078
C55	C	-0.464888	1.067563	0.000088
C56	C	-0.484334	0.990523	0.000093
C57	C	-0.453365	0.914374	0.000089
C58	C	-0.534752	0.989632	0.000093
C59	C	-0.565721	1.065782	0.000096
C60	C	-0.546272	1.142823	0.000100
C61	C	-0.495857	1.143713	0.000092
C62	C	-0.472814	0.837332	0.000086
C63	C	-0.523231	0.836449	0.000093
C64	C	-0.554200	0.912598	0.000096
C65	C	0.154449	0.984124	0.000080
C66	C	0.208108	0.985085	0.000093
C67	C	0.062536	1.145022	0.000066
C68	C	0.063483	1.238258	0.000076
N69	N	0.066083	0.991433	-0.230619
C70	C	0.031756	1.051523	-0.470284
C71	C	0.022374	0.975744	-0.529619
C72	C	0.066077	0.991414	-0.412226
C73	C	0.075430	1.067174	-0.529634
C74	C	0.066070	0.991402	-0.587650
C75	C	0.056674	0.915597	-0.470254
C76	C	0.109749	1.007077	-0.470264
C77	C	0.100386	0.931243	-0.529571
C78	C	0.066080	0.991422	-0.311169
C79	C	0.066068	0.991385	-0.688706
N80	N	0.066066	0.991381	0.230737
H81	H	-0.018326	0.564020	0.000130
C82	C	-0.647125	0.821918	0.076204
C83	C	-0.676469	0.826107	0.000089
H84	H	-0.626118	0.770230	0.076202
H85	H	-0.628323	0.867914	0.076201
H86	H	-0.667037	0.824756	0.127831
H87	H	-0.656557	0.823275	-0.051538
H88	H	-0.695273	0.780098	0.000085
H89	H	0.023124	0.449317	0.134913
C90	C	-0.034756	1.143275	0.000022
C91	C	-0.085550	1.158567	0.000033
H92	H	-0.021562	1.195561	0.000016
H93	H	-0.024124	1.111950	0.051649
H94	H	-0.024134	1.111955	-0.051618
H95	H	-0.096172	1.189882	0.051676
H96	H	-0.096186	1.189905	-0.051600
C97	C	-0.163654	1.224508	0.000040
C98	C	-0.191380	1.156708	0.000050
H99	H	-0.184667	1.276191	0.000032
H100	H	-0.143748	1.221663	0.051669
H101	H	-0.143751	1.221657	-0.051598
H102	H	-0.211281	1.159555	0.051692
H103	H	-0.211294	1.159555	-0.051584
C104	C	0.040693	0.464522	-0.232615
C105	C	0.016240	0.442227	-0.156243
H106	H	0.024300	0.447962	-0.284061
H107	H	0.041368	0.523934	-0.233510
H108	H	0.072994	0.436779	-0.232075
H109	H	-0.016060	0.469975	-0.156780
H110	H	0.015560	0.382804	-0.155348
H111	H	-0.328781	1.209122	0.000067
C112	C	-0.026814	0.957263	-0.658031
C113	C	-0.027484	0.957838	-0.564824
H114	H	-0.057594	0.946206	-0.679761
H115	H	-0.019935	1.010671	-0.679229
H116	H	-0.002461	0.914510	-0.678313
H117	H	-0.051834	1.000595	-0.544542
H118	H	-0.034368	0.904423	-0.543617
C119	C	0.163831	0.500790	-0.156061
C120	C	0.115958	0.540525	-0.156222
H121	H	0.180249	0.517305	-0.207497
H122	H	0.180050	0.516865	-0.104224
H123	H	0.163659	0.441249	-0.156368
H124	H	0.116130	0.600066	-0.155909
H125	H	0.099736	0.524455	-0.208073
C126	C	-0.401334	1.297005	0.000066
C127	C	-0.429061	1.229207	0.000072
H128	H	-0.422346	1.348689	0.000052
H129	H	-0.381431	1.294160	0.051699
H130	H	-0.381428	1.294151	-0.051568
H131	H	-0.448965	1.232058	0.051710
H132	H	-0.448973	1.232054	-0.051566
C133	C	0.188212	0.429157	0.076732
C134	C	0.163949	0.406759	0.000179
H135	H	0.220410	0.400943	0.076802
H136	H	0.189184	0.488497	0.077254
H137	H	0.171500	0.413205	0.128058
H138	H	0.180659	0.422717	-0.051147
H139	H	0.162979	0.347406	-0.000351
H140	H	-0.571496	1.204827	0.000099
H141	H	0.109065	0.533598	0.134793
C142	C	-0.738487	1.214358	0.000101
C143	C	-0.700651	1.147713	0.000097
H144	H	-0.725293	1.266644	0.000114
H145	H	-0.757911	1.210829	-0.051532
H146	H	-0.757912	1.210805	0.051735
H147	H	-0.681228	1.151262	-0.051540
H148	H	-0.681220	1.151244	0.051736
H149	H	0.002715	1.102303	-0.444252
H150	H	0.048718	0.851508	-0.444281
H151	H	-0.797667	1.124136	0.000098
H152	H	-0.296343	0.777985	0.000093
H153	H	-0.776751	0.846196	0.000079
C154	C	-0.355504	0.687770	0.000109
C155	C	-0.393343	0.754410	0.000102
H156	H	-0.368695	0.635482	0.000124
H157	H	-0.336085	0.691309	-0.051525
H158	H	-0.336075	0.691320	0.051742
H159	H	-0.412770	0.750864	-0.051535
H160	H	-0.412770	0.750869	0.051741
C161	C	0.163379	0.819882	-0.492477
C162	C	0.139564	0.862542	-0.564503
H163	H	0.187562	0.777465	-0.514046
H164	H	0.178200	0.858832	-0.456885
H165	H	0.140527	0.794405	-0.457660
H166	H	0.162417	0.888024	-0.599316
H167	H	0.124744	0.823585	-0.600109
C168	C	0.169319	1.104425	-0.464950
C169	C	0.159593	1.025008	-0.435029
H170	H	0.200089	1.115502	-0.443190
H171	H	0.169592	1.105064	-0.528174
H172	H	0.144874	1.146572	-0.443762
H173	H	0.184036	0.982860	-0.456222
H174	H	0.159325	1.024363	-0.371791
H175	H	-0.161659	0.857055	0.000021
H176	H	0.083345	1.131249	-0.555716
H177	H	-0.070185	0.858677	0.000028
C178	C	-0.528917	0.705593	0.076219
C179	C	-0.544602	0.751751	0.000102
H180	H	-0.542113	0.653309	0.076231
H181	H	-0.494461	0.695234	0.076203
H182	H	-0.539546	0.736928	0.127844
H183	H	-0.533970	0.720419	-0.051524
H184	H	-0.579065	0.762107	0.000109
H185	H	-0.480029	1.206452	0.000088
H186	H	-0.447604	0.775321	0.000085
