data_functionalizedCrystal
_audit_creation_method	'MofGen! by Chris Wilmer'
_symmetry_space_group_name_H-M	'P1'
_symmetry_Int_Tables_number	1
_symmetry_cell_setting	triclinic
loop_
_symmetry_equiv_pos_as_xyz
  x,y,z
_cell_length_a	12.759401
_cell_length_b	12.759393
_cell_length_c	12.759400
_cell_angle_alpha	89.974496
_cell_angle_beta	89.999471
_cell_angle_gamma	90.020566
loop_
_atom_site_label
_atom_site_type_symbol
_atom_site_fract_x
_atom_site_fract_y
_atom_site_fract_z
Zn1	Zn	-1.606357	-0.594046	-0.418266
Zn2	Zn	-1.606286	-0.418382	-0.593981
Zn3	Zn	-1.430655	-0.418382	-0.418311
Zn4	Zn	-1.430685	-0.594020	-0.593898
O5	O	-1.518496	-0.506208	-0.506114
O6	O	-1.753368	-0.570754	-0.441591
O7	O	-1.582946	-0.271361	-0.570732
O8	O	-1.453980	-0.441696	-0.271284
O9	O	-1.753316	-0.441694	-0.570688
O10	O	-1.583067	-0.570755	-0.271251
O11	O	-1.453911	-0.271361	-0.441668
O12	O	-1.283638	-0.441671	-0.441587
O13	O	-1.454031	-0.741045	-0.570546
O14	O	-1.283660	-0.570711	-0.570590
O15	O	-1.583096	-0.741064	-0.441509
O16	O	-1.582975	-0.441669	-0.740991
O17	O	-1.453962	-0.570710	-0.740930
C18	C	-1.245528	-0.506188	-0.506085
C19	C	-1.128752	-0.506205	-0.506098
C20	C	-1.073918	-0.573510	-0.438997
C21	C	-0.964194	-0.573515	-0.439003
C22	C	-0.964148	-0.438908	-0.573222
C23	C	-1.073870	-0.438899	-0.573209
C24	C	-1.518574	-0.780241	-0.506013
C25	C	-1.518608	-0.897018	-0.505970
C26	C	-1.518492	-0.506209	-0.779081
C27	C	-1.518587	-0.506245	-0.895858
C28	C	-0.792529	-0.506223	-0.506134
C29	C	-0.909306	-0.506220	-0.506117
C30	C	-1.585817	-0.951891	-0.438770
C31	C	-1.585835	-1.061616	-0.438725
C32	C	-1.451431	-1.061583	-0.573088
C33	C	-1.451409	-0.951860	-0.573128
C34	C	-1.518478	-0.233240	-0.506139
C35	C	-1.518648	-0.116464	-0.505886
C36	C	-1.518528	-0.506229	-0.232081
C37	C	-1.518542	-0.506238	-0.115304
C38	C	-1.451407	-0.573428	0.049325
C39	C	-1.451381	-0.573422	-0.060399
C40	C	-1.585725	-0.439048	-0.060479
C41	C	-1.585744	-0.439049	0.049243
H42	H	-1.118517	-0.384086	-0.627853
H43	H	-1.640532	-0.907242	-0.384083
O44	O	-1.133117	-0.646086	-0.366602
H45	H	-1.076549	-0.692877	-0.319934
O46	O	-1.658159	-0.366582	-0.119699
H47	H	-1.704869	-0.319858	-0.063145
H48	H	-1.396723	-1.106249	-0.627768
H49	H	-0.919552	-0.628319	-0.384360
H50	H	-1.640562	-1.106289	-0.384002
O51	O	-1.658218	-0.366591	0.108370
H52	H	-1.646942	-0.377877	0.193890
H53	H	-0.919449	-0.384111	-0.627863
H54	H	-1.396672	-0.907181	-0.627849
O55	O	-1.378954	-0.645884	0.108535
H56	H	-1.396976	-0.728344	0.087501
H57	H	-1.396676	-0.628128	-0.105026
