data_functionalizedCrystal
_audit_creation_method	'MofGen! by Chris Wilmer'
_symmetry_space_group_name_H-M	'P1'
_symmetry_Int_Tables_number	1
_symmetry_cell_setting	triclinic
loop_
_symmetry_equiv_pos_as_xyz
  x,y,z
_cell_length_a	10.489746
_cell_length_b	19.288859
_cell_length_c	17.766277
_cell_angle_alpha	89.998897
_cell_angle_beta	90.003705
_cell_angle_gamma	83.837513
loop_
_atom_site_label
_atom_site_type_symbol
_atom_site_fract_x
_atom_site_fract_y
_atom_site_fract_z
O1	O	1.691834	0.098007	0.062539
O2	O	1.320431	0.107201	0.062551
O3	O	1.516868	0.001545	0.062545
O4	O	1.495397	0.203663	0.062545
O5	O	1.516842	0.001549	-0.062644
O6	O	1.320405	0.107205	-0.062638
O7	O	1.691808	0.098010	-0.062650
Cu8	Cu	1.506104	0.102608	-0.074074
Cu9	Cu	1.506135	0.102604	0.073976
O10	O	1.495370	0.203666	-0.062643
C11	C	1.272902	0.106508	-0.000042
C12	C	1.131320	0.104428	-0.000037
C13	C	0.980013	0.035971	-0.000048
C14	C	1.056619	0.070199	-0.061770
C15	C	1.056600	0.070211	0.061656
C16	C	0.955659	0.134984	-0.061829
C17	C	0.955635	0.134987	0.061653
C18	C	1.032191	0.169262	-0.000084
C19	C	1.516166	-0.024334	-0.000048
C20	C	1.514096	-0.101452	-0.000043
C21	C	1.739337	0.098704	-0.000055
C22	C	1.880919	0.100784	-0.000055
C23	C	1.496073	0.229545	-0.000049
C24	C	1.498143	0.306663	-0.000049
N25	N	1.506091	0.102611	-0.178205
C26	C	1.396886	0.870024	-0.000031
C27	C	1.394930	0.797564	-0.000037
C28	C	1.510190	0.753632	-0.000040
C29	C	1.627416	0.782164	-0.000057
C30	C	1.629368	0.854622	-0.000058
C31	C	1.596160	0.632936	0.043816
C32	C	1.594202	0.560479	0.043822
C33	C	1.504172	0.530145	-0.000039
C34	C	1.416077	0.572279	-0.043896
C35	C	1.418030	0.644737	-0.043897
C36	C	1.508086	0.675062	-0.000039
C37	C	1.384833	0.423052	-0.000034
C38	C	1.382881	0.350591	-0.000044
C39	C	1.615371	0.335192	-0.000057
C40	C	1.617319	0.407652	-0.000054
C41	C	1.502046	0.451578	-0.000039
C42	C	1.583265	0.145127	-0.782495
C43	C	1.583253	0.145134	-0.703693
C44	C	1.506147	0.102596	-0.664294
C45	C	1.429023	0.060061	-0.703702
C46	C	1.429029	0.060061	-0.782502
C47	C	1.502979	0.039950	-0.539449
C48	C	1.502983	0.039949	-0.460650
C49	C	1.506123	0.102597	-0.421247
C50	C	1.509286	0.165248	-0.460652
C51	C	1.509291	0.165248	-0.539453
C52	C	1.506132	0.102592	-0.578848
C53	C	1.583221	0.145140	-0.296402
C54	C	1.583200	0.145148	-0.217599
C55	C	1.428978	0.060069	-0.217609
C56	C	1.428992	0.060068	-0.296411
C57	C	1.506121	0.102602	-0.335803
N58	N	1.506157	0.102596	0.178106
H59	H	1.055389	0.225662	-0.000118
H60	H	1.100674	0.042837	0.113839
C61	C	1.253934	0.319215	-0.000033
N62	N	1.156808	0.295582	-0.000023
H63	H	1.366189	0.025438	-0.185531
C64	C	0.896345	0.171920	-0.132409
N65	N	0.851667	0.199736	-0.185570
H66	H	1.724818	0.877846	-0.000068
H67	H	0.911526	0.162322	0.113838
H68	H	1.346303	0.679039	-0.079609
C69	C	1.344318	0.013210	-0.660361
N70	N	1.280553	-0.022101	-0.627716
C71	C	1.116182	0.033238	-0.132266
N72	N	1.161042	0.005395	-0.185361
C73	C	1.668030	0.191939	-0.174261
N74	N	1.731928	0.227181	-0.141617
H75	H	1.303021	0.905785	-0.000020
C76	C	1.265984	0.766180	-0.000016
N77	N	1.168862	0.742544	0.000002
H78	H	1.511843	0.216263	-0.428572
H79	H	1.342765	0.547583	-0.079610
H80	H	0.956569	-0.020386	-0.000110
C81	C	1.258032	0.471373	-0.000030
N82	N	1.162524	0.507767	-0.000030
C83	C	1.668059	0.191931	-0.339736
N84	N	1.731960	0.227174	-0.372373
C85	C	1.499504	-0.028968	-0.417312
N86	N	1.496880	-0.080878	-0.384672
H87	H	1.709218	0.299422	-0.000062
C88	C	1.746261	0.439030	-0.000059
N89	N	1.843386	0.462663	-0.000064
H90	H	1.646067	0.179764	-0.814563
H91	H	1.665931	0.526179	0.079534
H92	H	1.669481	0.657626	0.079533
C93	C	1.499540	-0.028974	-0.582785
N94	N	1.496955	-0.080886	-0.615424
C95	C	1.754203	0.733836	-0.000060
N96	N	1.849703	0.697436	-0.000064
H97	H	1.646042	0.179772	-0.671609
C98	C	1.512745	0.234164	-0.582796
N99	N	1.515336	0.286074	-0.615441
H100	H	1.366236	0.025426	-0.814580
H101	H	1.366208	0.025430	-0.328490
