data_functionalizedCrystal
_audit_creation_method	'MofGen! by Chris Wilmer'
_symmetry_space_group_name_H-M	'P1'
_symmetry_Int_Tables_number	1
_symmetry_cell_setting	triclinic
loop_
_symmetry_equiv_pos_as_xyz
  x,y,z
_cell_length_a	23.196402
_cell_length_b	19.851628
_cell_length_c	23.196401
_cell_angle_alpha	90.015407
_cell_angle_beta	60.008822
_cell_angle_gamma	59.998846
loop_
_atom_site_label
_atom_site_type_symbol
_atom_site_fract_x
_atom_site_fract_y
_atom_site_fract_z
Zr1	Zr	0.630948	0.648968	-0.075581
O2	O	0.751223	0.541381	-0.167635
O3	O	0.510680	0.681947	-0.047365
O4	O	0.630947	0.681917	-0.167630
O5	O	0.630954	0.541437	0.047501
O6	O	0.630938	0.792777	-0.167622
O7	O	0.630956	0.541410	-0.047370
O8	O	0.415802	0.792830	0.047510
O9	O	0.846090	0.541384	-0.167631
O10	O	0.560139	0.778749	-0.035321
O11	O	0.560144	0.696035	0.035474
O12	O	0.701743	0.696000	-0.106122
O13	O	0.701748	0.613285	-0.035327
Zr14	Zr	0.630932	0.825820	0.075741
Zr15	Zr	0.630934	0.825777	-0.075568
Zr16	Zr	0.630946	0.649010	0.075728
Zr17	Zr	0.782250	0.648973	-0.075575
Zr18	Zr	0.479629	0.825815	0.075734
O19	O	0.751200	0.792841	0.047525
O20	O	0.751203	0.792781	-0.167617
O21	O	0.751220	0.541441	0.047507
O22	O	0.510656	0.933407	0.167795
O23	O	0.510660	0.933347	-0.047347
O24	O	0.510676	0.682007	0.167777
O25	O	0.630925	0.933351	-0.047342
O26	O	0.630933	0.792871	0.167790
O27	O	0.630941	0.682011	0.167782
O28	O	0.630924	0.933377	0.047529
O29	O	0.846079	0.681924	-0.167621
O30	O	0.415800	0.792864	0.167781
O31	O	0.415789	0.933404	0.167791
O32	O	0.415791	0.933370	0.047520
O33	O	0.846088	0.541417	-0.047361
O34	O	0.846077	0.681957	-0.047351
O35	O	0.560136	0.778788	0.106282
O36	O	0.560131	0.861502	0.035486
O37	O	0.701735	0.778753	-0.035315
O38	O	0.701741	0.696039	0.035481
C39	C	0.441683	0.737388	0.000072
C40	C	0.377452	0.737386	0.000069
C41	C	0.347278	0.780556	-0.036888
C42	C	0.286917	0.780564	-0.036883
C43	C	0.256743	0.737386	0.000071
C44	C	0.286921	0.694213	0.037036
C45	C	0.347275	0.694214	0.037035
C46	C	0.194720	0.665046	-0.005209
C47	C	0.134370	0.665044	-0.005213
C48	C	0.070589	0.737387	0.000078
C49	C	0.067171	0.809731	0.005359
C50	C	0.127525	0.809731	0.005358
C51	C	0.191299	0.737381	0.000076
C52	C	-0.025036	0.780569	-0.036875
C53	C	-0.085401	0.780580	-0.036864
C54	C	-0.085391	0.694221	0.037050
C55	C	-0.025032	0.694219	0.037044
C56	C	0.005144	0.737391	0.000078
C57	C	0.630957	0.516232	0.000064
C58	C	0.630963	0.441172	0.000059
C59	C	0.708154	0.169813	-0.038527
C60	C	0.669572	0.237291	0.028039
C61	C	0.630931	0.171026	0.000088
C62	C	0.669553	0.237263	-0.066484
C63	C	0.630951	0.303755	0.000071
C64	C	0.592348	0.237516	0.066694
C65	C	0.592340	0.237478	-0.027877
C66	C	0.553702	0.304968	0.038730
C67	C	0.630922	0.094563	0.000098
C68	C	0.630954	0.380220	0.000068
C69	C	0.820196	0.737400	0.000088
C70	C	0.884428	0.737402	0.000091
C71	C	0.630943	0.737341	-0.189185
C72	C	0.630944	0.737323	-0.253419
C73	C	0.630922	0.958556	0.000096
C74	C	0.630916	1.033616	0.000101
C75	C	0.704857	0.694133	-0.320550
C76	C	0.704859	0.694154	-0.380905
C77	C	0.630942	0.737354	-0.374126
C78	C	0.557018	0.780553	-0.306983
C79	C	0.557019	0.780538	-0.246630
C80	C	0.574314	0.731217	-0.441446
C81	C	0.574316	0.731227	-0.501799
C82	C	0.630935	0.737406	-0.560273
C83	C	0.687566	0.743559	-0.558393
C84	C	0.687567	0.743544	-0.498040
C85	C	0.630932	0.737376	-0.439564
C86	C	0.704855	0.694236	-0.692850
C87	C	0.704853	0.694263	-0.753205
C88	C	0.557011	0.780657	-0.679281
C89	C	0.557015	0.780636	-0.618928
C90	C	0.630940	0.737421	-0.625718
C91	C	0.630937	0.737447	0.189344
C92	C	0.630936	0.737465	0.253579
C93	C	0.441666	0.958550	0.000087
C94	C	0.377428	1.033608	0.000090
C95	C	0.441681	0.737441	0.189336
C96	C	0.377448	0.737457	0.253568
C97	C	0.441663	0.958602	0.189352
C98	C	0.377424	1.033679	0.253589
C99	C	0.820216	0.516185	-0.189192
C100	C	0.884455	0.441109	-0.253430
C101	C	0.820213	0.516238	0.000072
C102	C	0.884451	0.441180	0.000069
C103	C	0.820199	0.737347	-0.189177
C104	C	0.884432	0.737331	-0.253408
C105	C	0.347266	1.025659	-0.036876
C106	C	0.286916	1.096178	-0.036888
C107	C	0.256726	1.174644	0.000071
C108	C	0.286894	1.182591	0.037038
C109	C	0.347247	1.112073	0.037045
C110	C	0.347279	0.780661	0.320699
C111	C	0.286934	0.780672	0.381057
C112	C	0.256754	0.737485	0.374283
C113	C	0.286929	0.694275	0.307145
C114	C	0.347277	0.694259	0.246788
C115	C	0.347254	1.112118	0.246801
C116	C	0.286904	1.182667	0.307153
C117	C	0.256720	1.174774	0.374292
C118	C	0.286896	1.096326	0.381079
C119	C	0.347250	1.025779	0.320728
C120	C	0.914632	0.362669	-0.246641
C121	C	0.975002	0.292120	-0.306993
C122	C	1.005189	0.300013	-0.374133
C123	C	0.975009	0.378461	-0.380919
C124	C	0.914645	0.449008	-0.320568
C125	C	0.914620	0.449128	0.037029
C126	C	0.974987	0.378610	0.037024
C127	C	1.005179	0.300144	0.000063
C128	C	0.975007	0.292197	-0.036901
C129	C	0.914646	0.362715	-0.036900
C130	C	0.914592	0.780527	-0.246612
C131	C	0.974938	0.780529	-0.306958
C132	C	1.005126	0.737328	-0.374101
C133	C	0.974959	0.694131	-0.380897
C134	C	0.914611	0.694135	-0.320551
H135	H	0.015233	0.868642	0.009675
H136	H	0.999595	0.384878	-0.435591
H137	H	0.890023	0.815706	-0.191946
H138	H	0.496826	0.815802	-0.564266
Cl139	Cl	0.876681	0.547763	0.083496
Cl140	Cl	0.719963	0.238233	-0.153393
Cl141	Cl	0.876709	0.547616	-0.329114
H142	H	0.702211	0.237960	0.051688
Cl143	Cl	1.012854	0.834833	-0.298399
H144	H	0.371845	0.815712	-0.066986
Cl145	Cl	1.012968	0.193548	-0.083359
Cl146	Cl	0.248982	0.639939	0.083498
H147	H	0.371821	1.118561	0.192138
Cl148	Cl	1.080996	0.737328	-0.449959
Cl149	Cl	0.248929	1.281240	0.083501
Cl150	Cl	0.385153	1.122080	0.083527
H151	H	0.496834	0.815728	-0.301467
H152	H	0.262340	1.246537	0.301614
H153	H	1.054329	0.242731	0.000068
Cl154	Cl	0.541994	0.236390	-0.064415
H155	H	0.496826	0.815833	-0.673760
H156	H	0.371845	0.815830	0.326228
H157	H	0.488368	0.362737	0.071424
H158	H	0.890061	0.658956	-0.326095
H159	H	0.999548	0.658958	-0.435573
H160	H	0.559716	0.236961	0.123014
H161	H	0.262346	0.815720	-0.066978
Cl162	Cl	0.180844	1.263471	0.450157
H163	H	0.999542	0.385097	0.067127
H164	H	0.765050	0.658981	-0.435573
Cl165	Cl	0.123226	0.900675	0.012000
Cl166	Cl	0.797791	0.639788	-0.329088
Cl167	Cl	0.876721	0.352708	-0.083363
Cl168	Cl	0.758755	0.751280	-0.495676
Cl169	Cl	0.274901	0.574091	-0.011862
H170	H	0.207582	1.232057	0.000060
Cl171	Cl	-0.123331	0.834852	-0.083332
Cl172	Cl	0.012898	0.834849	-0.083339
H173	H	0.528208	0.726179	-0.393838
H174	H	0.137162	0.606136	-0.009516
H175	H	0.262373	0.815861	0.435718
Cl176	Cl	0.797787	0.639931	-0.701382
Cl177	Cl	-0.123318	0.639938	0.083506
Cl178	Cl	0.248941	1.086418	0.465488
Cl179	Cl	0.758750	0.751328	-0.631899
Cl180	Cl	0.797783	0.639966	-0.837603
Cl181	Cl	0.503130	0.723483	-0.504160
H182	H	-0.000462	0.659062	0.067135
Cl183	Cl	0.464091	0.834833	-0.162231
Cl184	Cl	0.180886	0.737515	0.450169
H185	H	0.262360	1.089691	-0.066990
Cl186	Cl	0.385209	0.639938	0.083499
H187	H	0.890058	0.356227	-0.191979
Cl188	Cl	0.385210	0.927025	-0.083348
Cl189	Cl	0.248978	0.639988	0.298641
Cl190	Cl	0.808940	0.080477	-0.088851
H191	H	0.371832	0.659080	0.192129
Cl192	Cl	0.385165	0.927172	0.329274
H193	H	0.999564	0.228252	-0.301454
Cl194	Cl	1.081075	0.211316	-0.449997
