data_functionalizedCrystal
_audit_creation_method	'MofGen! by Chris Wilmer'
_symmetry_space_group_name_H-M	'P1'
_symmetry_Int_Tables_number	1
_symmetry_cell_setting	triclinic
loop_
_symmetry_equiv_pos_as_xyz
  x,y,z
_cell_length_a	12.594517
_cell_length_b	12.827892
_cell_length_c	12.827885
_cell_angle_alpha	89.970214
_cell_angle_beta	90.021568
_cell_angle_gamma	89.984808
loop_
_atom_site_label
_atom_site_type_symbol
_atom_site_fract_x
_atom_site_fract_y
_atom_site_fract_z
Zn1	Zn	1.627274	0.415988	0.590913
Zn2	Zn	1.627167	0.590765	0.416173
Zn3	Zn	1.449278	0.416038	0.416179
Zn4	Zn	1.449263	0.590687	0.590866
O5	O	1.538245	0.503370	0.503533
O6	O	1.776206	0.439184	0.567750
O7	O	1.603530	0.567641	0.269938
O8	O	1.472941	0.269796	0.439380
O9	O	1.776127	0.567592	0.439369
O10	O	1.603714	0.269759	0.567756
O11	O	1.472836	0.439270	0.269942
O12	O	1.300330	0.439194	0.439335
O13	O	1.472915	0.567459	0.737108
O14	O	1.300319	0.567508	0.567676
O15	O	1.603700	0.439108	0.737143
O16	O	1.603516	0.736991	0.439324
O17	O	1.472810	0.736934	0.567670
C18	C	1.261704	0.503349	0.503502
C19	C	1.143399	0.503365	0.503514
C20	C	1.538179	0.774880	0.503514
C21	C	1.538248	0.891033	0.503541
C22	C	1.538341	0.230800	0.503574
C23	C	1.538382	0.114646	0.503592
C24	C	1.074121	0.433480	0.433842
C25	C	1.003311	0.528803	0.408139
C26	C	1.003410	0.408088	0.529235
C27	C	1.074147	0.598738	0.477761
C28	C	1.074252	0.477959	0.598901
C29	C	1.003474	0.573348	0.573234
C30	C	1.815866	0.503391	0.503564
C31	C	1.934171	0.503401	0.503578
C32	C	1.538318	0.503269	0.776103
C33	C	1.538349	0.503227	0.892256
C34	C	1.603001	0.942811	0.440102
C35	C	1.603074	1.062862	0.440129
C36	C	1.538234	0.503394	0.232023
C37	C	1.538410	0.503143	0.115870
C38	C	1.603072	0.439702	0.944058
C39	C	1.603105	0.439656	1.064108
H40	H	0.972152	0.550314	0.327499
H41	H	1.658455	0.385347	0.899531
C42	C	1.617675	0.820029	0.299632
C43	C	1.677771	0.882685	0.366748
H44	H	1.663837	0.782917	0.254342
H45	H	1.577051	0.771994	0.339433
H46	H	1.571392	0.862689	0.259592
H47	H	1.724049	0.840024	0.406795
H48	H	1.718412	0.930725	0.326944
H49	H	1.482868	0.935580	0.557878
C50	C	1.663563	1.230256	0.381081
C51	C	1.677960	1.122964	0.366844
H52	H	1.709813	1.267360	0.335852
H53	H	1.592074	1.248177	0.365701
H54	H	1.679058	1.247996	0.451346
H55	H	1.662457	1.105223	0.296581
H56	H	1.749465	1.105036	0.382216
C57	C	1.783332	0.388785	1.097946
C58	C	1.677914	0.366234	1.124241
H59	H	1.829515	0.343458	1.135077
H60	H	1.793118	0.379176	1.025168
H61	H	1.798861	0.459012	1.115778
H62	H	1.662383	0.296009	1.106402
H63	H	1.668124	0.375834	1.197035
H64	H	1.482999	0.557535	1.071329
C65	C	1.523666	0.643641	1.015102
C66	C	1.463576	0.576611	0.952351
H67	H	1.477502	0.688952	1.052193
H68	H	1.564262	0.603780	1.063155
H69	H	1.569975	0.683664	0.972508
H70	H	1.417272	0.536583	0.994946
H71	H	1.422962	0.616477	0.904292
H72	H	1.482936	1.070126	0.557904
H73	H	1.105141	0.374438	0.374850
H74	H	1.105089	0.679351	0.455943
H75	H	1.105437	0.456419	0.679516
C76	C	1.047781	0.702906	0.701066
C77	C	0.961851	0.653240	0.652807
H78	H	1.022081	0.752234	0.750182
H79	H	1.090268	0.652540	0.735845
H80	H	1.089260	0.737643	0.649897
H81	H	0.920376	0.618496	0.703975
H82	H	0.919347	0.703614	0.618027
C83	C	0.997133	0.226236	0.485472
C84	C	0.961466	0.299298	0.558577
H85	H	0.971245	0.159072	0.503587
H86	H	0.971795	0.244775	0.418222
H87	H	1.072551	0.225298	0.485043
H88	H	0.886047	0.300241	0.559001
H89	H	0.986798	0.280754	0.625846
