data_functionalizedCrystal
_audit_creation_method	'MofGen! by Chris Wilmer'
_symmetry_space_group_name_H-M	'P1'
_symmetry_Int_Tables_number	1
_symmetry_cell_setting	triclinic
loop_
_symmetry_equiv_pos_as_xyz
  x,y,z
_cell_length_a	14.908558
_cell_length_b	14.909351
_cell_length_c	17.077396
_cell_angle_alpha	86.727426
_cell_angle_beta	93.311752
_cell_angle_gamma	83.621657
loop_
_atom_site_label
_atom_site_type_symbol
_atom_site_fract_x
_atom_site_fract_y
_atom_site_fract_z
Zn1	Zn	1.404627	-0.440319	0.536373
Zn2	Zn	1.904627	0.059681	1.036373
Zn3	Zn	1.413260	-0.591676	0.413151
Zn4	Zn	1.913260	-0.091676	0.913151
Zn5	Zn	1.253259	-0.431601	0.397097
Zn6	Zn	1.753259	0.068399	0.897097
Zn7	Zn	1.261957	-0.582875	0.536350
Zn8	Zn	1.761957	-0.082875	1.036350
O9	O	1.333276	-0.511618	0.470743
O10	O	1.833276	-0.011618	0.970743
O11	O	1.532440	-0.467729	0.526755
O12	O	2.032440	0.032271	1.026755
O13	O	1.392008	-0.570475	0.301175
O14	O	1.892008	-0.070475	0.801175
O15	O	1.266085	-0.306105	0.408863
O16	O	1.766085	0.193895	0.908863
O17	O	1.538783	-0.578929	0.436225
O18	O	2.038783	-0.078929	0.936225
O19	O	1.377294	-0.312511	0.511189
O20	O	1.877294	0.187489	1.011189
O21	O	1.274456	-0.452869	0.289380
O22	O	1.774456	0.047131	0.789380
O23	O	1.127745	-0.444336	0.408841
O24	O	1.627745	0.055664	0.908841
O25	O	1.280910	-0.563931	0.646200
O26	O	1.780910	-0.063931	1.146200
O27	O	1.134135	-0.555477	0.511150
O28	O	1.634135	-0.055477	1.011150
O29	O	1.385729	-0.459196	0.646217
O30	O	1.885729	0.040804	1.146217
O31	O	1.400442	-0.717160	0.436203
O32	O	1.900442	-0.217160	0.936203
O33	O	1.289281	-0.710695	0.526717
O34	O	1.789281	-0.210695	1.026717
C35	C	1.098096	-0.498006	0.458252
C36	C	1.598096	0.001994	0.958252
C37	C	0.997487	-0.492205	0.452928
C38	C	1.497487	0.007795	0.952928
C39	C	1.346767	-0.746769	0.483218
C40	C	1.846767	-0.246769	0.983218
C41	C	1.352622	-0.847372	0.488585
C42	C	1.852622	-0.347372	0.988585
C43	C	0.852324	-0.426078	0.392235
C44	C	1.352324	0.073922	0.892235
C45	C	0.946855	-0.431524	0.397234
C46	C	1.446855	0.068476	0.897234
C47	C	0.953580	-0.547441	0.503627
C48	C	1.453580	-0.047441	1.003627
C49	C	0.859049	-0.541994	0.498629
C50	C	1.359049	-0.041994	0.998629
C51	C	0.808424	-0.481312	0.442930
C52	C	1.308424	0.018688	0.942930
C53	C	0.713891	-0.475871	0.437927
C54	C	1.213891	0.024129	0.937927
C55	C	0.720618	-0.591782	0.544324
C56	C	1.220618	-0.091782	1.044324
C57	C	0.815149	-0.597228	0.549323
C58	C	1.315149	-0.097228	1.049323
C59	C	1.418713	-0.992426	0.549452
C60	C	1.918713	-0.492426	1.049452
C61	C	1.413219	-0.897901	0.544413
C62	C	1.913219	-0.397901	1.044413
C63	C	1.297517	-0.891375	0.437790
C64	C	1.797517	-0.391375	0.937790
C65	C	1.303011	-0.985900	0.442829
C66	C	1.803011	-0.485900	0.942829
C67	C	1.363611	-1.036423	0.498662
C68	C	1.863611	-0.536423	0.998662
C69	C	1.369100	-1.130949	0.503704
C70	C	1.869100	-0.630949	1.003704
C71	C	1.253403	-1.124422	0.397077
C72	C	1.753403	-0.624422	0.897077
C73	C	1.247909	-1.029896	0.392039
C74	C	1.747909	-0.529896	0.892039
C75	C	1.569374	-0.525283	0.483283
C76	C	2.069374	-0.025283	0.983283
C77	C	1.669985	-0.531107	0.488627
C78	C	2.169985	-0.031107	0.988627
C79	C	1.333327	-0.511554	0.675487
C80	C	1.833327	-0.011554	1.175487
C81	C	1.333348	-0.511527	0.762736
C82	C	1.833348	-0.011527	1.262736
C83	C	1.319756	-0.275550	0.458238
C84	C	1.819756	0.224450	0.958238
C85	C	1.313995	-0.174952	0.452909
C86	C	1.813995	0.325048	0.952909
C87	C	1.333273	-0.511619	0.266795
C88	C	1.833273	-0.011619	0.766795
C89	C	1.333412	-0.511401	0.179542
C90	C	1.833412	-0.011401	0.679542
C91	C	1.387929	-0.456987	0.803736
C92	C	1.887929	0.043013	1.303736
C93	C	1.387938	-0.456957	0.885716
C94	C	1.887938	0.043043	1.385716
C95	C	1.333371	-0.511474	0.926694
C96	C	1.833371	-0.011474	1.426694
C97	C	1.278784	-0.566016	0.885688
C98	C	1.778784	-0.066016	1.385688
C99	C	1.278770	-0.566040	0.803710
C100	C	1.778770	-0.066040	1.303710
C101	C	1.278817	-0.565964	1.056557
C102	C	1.778817	-0.065964	1.556557
C103	C	1.278832	-0.565941	1.138542
C104	C	1.778832	-0.065941	1.638542
C105	C	1.387985	-0.456881	1.138563
C106	C	1.887985	0.043119	1.638563
C107	C	1.387972	-0.456905	1.056585
C108	C	1.887972	0.043095	1.556585
C109	C	1.333386	-0.511449	1.015585
C110	C	1.833386	-0.011449	1.515585
H111	H	0.672673	-0.426459	0.392575
H112	H	1.172673	0.073541	0.892575
Br113	Br	1.462070	-0.382860	1.194205
Br114	Br	1.962070	0.117140	1.694205
Br115	Br	1.488008	-0.838194	0.613342
Br116	Br	1.988008	-0.338194	1.113342
H117	H	0.994815	-0.596841	0.548978
H118	H	1.494815	-0.096841	1.048978
H119	H	1.432386	-0.412547	0.919094
H120	H	1.932386	0.087453	1.419094
Br121	Br	1.204766	-0.639919	1.194154
Br122	Br	1.704766	-0.139919	1.694154
Br123	Br	0.883863	-0.679584	0.624906
Br124	Br	1.383863	-0.179584	1.124906
H125	H	0.684865	-0.636758	0.585603
H126	H	1.184865	-0.136758	1.085603
H127	H	0.811104	-0.376670	0.346881
H128	H	1.311104	0.123330	0.846881
Br129	Br	1.462037	-0.382926	1.000972
Br130	Br	1.962037	0.117074	1.500972
Br131	Br	1.204732	-0.639985	1.000914
Br132	Br	1.704732	-0.139985	1.500914
H133	H	1.418436	-1.172083	0.549173
H134	H	1.918436	-0.672083	1.049173
H135	H	1.432367	-0.412596	0.770378
H136	H	1.932367	0.087404	1.270378
H137	H	0.982594	-0.386544	0.355956
H138	H	1.482594	0.113456	0.855956
H139	H	1.198572	-0.988750	0.346578
H140	H	1.698572	-0.488750	0.846578
H141	H	1.234351	-0.610401	0.919059
H142	H	1.734351	-0.110401	1.419059
H143	H	1.248185	-0.850227	0.392326
H144	H	1.748185	-0.350227	0.892326
Br145	Br	1.178615	-1.184135	0.328145
Br146	Br	1.678615	-0.684135	0.828145
Br147	Br	1.500943	-1.060997	0.625230
Br148	Br	2.000943	-0.560997	1.125230
H149	H	1.234315	-0.610443	0.770328
H150	H	1.734315	-0.110443	1.270328
