data_functionalizedCrystal
_audit_creation_method	'MofGen! by Chris Wilmer'
_symmetry_space_group_name_H-M	'P1'
_symmetry_Int_Tables_number	1
_symmetry_cell_setting	triclinic
loop_
_symmetry_equiv_pos_as_xyz
  x,y,z
_cell_length_a	11.026623
_cell_length_b	9.483334
_cell_length_c	11.026607
_cell_angle_alpha	78.597888
_cell_angle_beta	108.586360
_cell_angle_gamma	101.356579
loop_
_atom_site_label
_atom_site_type_symbol
_atom_site_fract_x
_atom_site_fract_y
_atom_site_fract_z
O1	O	-1.711229	0.120888	-0.549242
O2	O	-1.344649	0.120890	-0.488476
O3	O	-1.497558	0.120884	-0.335568
O4	O	-1.558320	0.120894	-0.702150
O5	O	-1.528550	-0.120893	-0.304344
O6	O	-1.375641	-0.120887	-0.457252
O7	O	-1.742221	-0.120889	-0.518017
Cu8	Cu	-1.561761	-0.142964	-0.484783
Cu9	Cu	-1.525109	0.142965	-0.521710
O10	O	-1.589312	-0.120883	-0.670925
C11	C	-1.312485	0.000001	-0.461654
C12	C	-1.170471	0.000002	-0.428236
C13	C	-1.116821	0.000006	-0.520506
C14	C	-0.970043	0.000006	-0.485969
C15	C	-0.774384	0.000002	-0.544838
C16	C	-0.916397	0.000010	-0.578252
N17	N	-1.587549	-0.344071	-0.458812
C18	C	-1.532700	-0.416298	-0.514046
C19	C	-1.554186	-0.583705	-0.492431
C20	C	-1.501844	-0.000003	-0.272296
C21	C	-1.468426	0.000002	-0.130283
N22	N	-1.499329	0.344072	-0.547673
C23	C	-1.585026	0.000007	-0.734197
C24	C	-1.618442	0.000011	-0.876212
C25	C	-1.560696	0.000004	-0.076634
C26	C	-1.526159	0.000010	0.070144
H27	H	-0.979125	0.000003	-0.682822
H28	H	-1.722999	0.000120	0.061046
O29	O	-1.457537	-0.342390	-0.589443
C30	C	-1.331567	-0.379473	-0.536651
H31	H	-1.334976	-0.490019	-0.473346
H32	H	-1.267210	-0.293851	-0.475678
C33	C	-1.272108	-0.250536	-0.724616
C34	C	-1.276296	-0.386317	-0.646872
H35	H	-1.238011	-0.254752	-0.792604
H36	H	-1.356975	-0.225548	-0.760181
H37	H	-1.218479	-0.179199	-0.673791
H38	H	-1.329937	-0.457647	-0.697694
H39	H	-1.191437	-0.411318	-0.611318
H40	H	-1.107734	0.000036	-0.323677
H41	H	-1.421588	0.000020	0.132872
H42	H	-1.617060	-0.645797	-0.429143
O43	O	-1.424163	-0.582023	-0.623074
C44	C	-1.298191	-0.619102	-0.570284
H45	H	-1.301598	-0.729649	-0.506981
H46	H	-1.233836	-0.533481	-0.509310
C47	C	-1.238736	-0.490158	-0.758248
C48	C	-1.242921	-0.625940	-0.680507
H49	H	-1.204638	-0.494371	-0.826237
H50	H	-1.323603	-0.465172	-0.793813
H51	H	-1.185108	-0.418822	-0.707422
H52	H	-1.296561	-0.697270	-0.731330
H53	H	-1.158060	-0.650939	-0.644953
O54	O	-1.343701	0.000201	-0.055346
C55	C	-1.302826	0.125443	0.006240
H56	H	-1.390740	0.167190	0.011872
H57	H	-1.247955	0.213122	-0.051415
C58	C	-1.105564	0.036140	0.136874
C59	C	-1.213541	0.087408	0.143800
H60	H	-1.050484	0.012682	0.221725
H61	H	-1.133099	-0.048236	0.095379
H62	H	-1.059853	0.109215	0.088822
H63	H	-1.259258	0.014327	0.191837
H64	H	-1.186012	0.171771	0.185306
O65	O	-1.662350	-0.418208	-0.383132
C66	C	-1.587985	-0.506296	-0.278440
H67	H	-1.481169	-0.460357	-0.260453
H68	H	-1.604849	-0.621588	-0.302083
C69	C	-1.759457	-0.565257	-0.178531
C70	C	-1.628264	-0.508827	-0.156432
H71	H	-1.784306	-0.566825	-0.103272
H72	H	-1.809561	-0.505915	-0.249066
H73	H	-1.773494	-0.661329	-0.198236
H74	H	-1.614233	-0.412751	-0.136744
H75	H	-1.578159	-0.568153	-0.085891
H76	H	-1.179555	0.000000	-0.625068
H77	H	-0.907309	0.000040	-0.381404
H78	H	-1.665260	-0.000005	-0.139367
