data_functionalizedCrystal
_audit_creation_method	'MofGen! by Chris Wilmer'
_symmetry_space_group_name_H-M	'P1'
_symmetry_Int_Tables_number	1
_symmetry_cell_setting	triclinic
loop_
_symmetry_equiv_pos_as_xyz
  x,y,z
_cell_length_a	14.519709
_cell_length_b	14.853567
_cell_length_c	13.330367
_cell_angle_alpha	90.004582
_cell_angle_beta	89.994415
_cell_angle_gamma	96.342462
loop_
_atom_site_label
_atom_site_type_symbol
_atom_site_fract_x
_atom_site_fract_y
_atom_site_fract_z
O1	O	0.120405	-1.196416	-0.083357
O2	O	0.134748	-0.933962	-0.083374
O3	O	-0.006665	-1.072147	-0.083356
O4	O	0.261818	-1.058230	-0.083375
O5	O	-0.006668	-1.072127	0.083491
O6	O	0.134745	-0.933942	0.083473
O7	O	0.120402	-1.196395	0.083491
Cu8	Cu	0.127573	-1.065167	0.098716
Cu9	Cu	0.127577	-1.065190	-0.098600
O10	O	0.261814	-1.058210	0.083472
C11	C	0.134096	-0.900363	0.000047
C12	C	0.132149	-0.800278	0.000041
N13	N	0.127570	-1.065157	0.237498
C14	C	-0.041026	-1.071488	0.000068
C15	C	-0.143407	-1.069545	0.000068
C16	C	-0.518299	-1.062390	0.000042
C17	C	-0.413992	-1.064377	0.000050
C18	C	-0.330856	-1.065967	0.000056
C19	C	-0.226543	-1.067955	0.000062
C20	C	0.296175	-1.058869	0.000046
C21	C	0.398556	-1.060812	0.000039
C22	C	0.121053	-1.229994	0.000067
C23	C	0.123001	-1.330079	0.000067
C24	C	0.039914	-0.387709	0.000070
C25	C	0.207916	-0.366493	0.000057
C26	C	0.209747	-0.460527	0.000054
C27	C	0.126660	-0.518157	0.000057
C28	C	0.041743	-0.481752	0.000064
C29	C	0.294663	-0.496939	0.000037
C30	C	0.296498	-0.590979	0.000033
C31	C	0.213410	-0.648610	0.000043
C32	C	0.128489	-0.612200	0.000051
C33	C	0.045403	-0.669830	0.000054
C34	C	-0.039520	-0.633422	0.000069
C35	C	-0.041345	-0.539383	0.000074
C36	C	0.215235	-0.742649	0.000038
C37	C	0.047231	-0.763873	0.000048
N38	N	0.127572	-1.065208	-0.237381
C39	C	0.190170	-1.003999	0.710113
C40	C	0.064976	-1.126406	0.710097
C41	C	0.064974	-1.126396	0.605078
C42	C	0.127571	-1.065187	0.552572
C43	C	0.190170	-1.003989	0.605085
C44	C	0.002381	-1.187599	0.552558
C45	C	0.002376	-1.187592	0.447534
C46	C	0.064970	-1.126378	0.395026
C47	C	0.127572	-1.065177	0.447544
C48	C	0.190169	-1.003968	0.395038
C49	C	0.252767	-0.942762	0.447555
C50	C	0.252764	-0.942775	0.552577
C51	C	0.064973	-1.126365	0.290004
C52	C	0.190170	-1.003958	0.290010
H53	H	-0.107168	-0.680356	0.000065
H54	H	0.014010	-1.176202	0.247250
H55	H	-0.110484	-0.509731	0.000110
H56	H	-0.048595	-1.237428	0.404781
C57	C	0.396027	-0.684404	-0.085769
C58	C	0.389846	-0.630986	0.000008
H59	H	0.453661	-0.709096	-0.085787
H60	H	0.346820	-0.732186	-0.085754
H61	H	0.391808	-0.648152	-0.143941
H62	H	0.394058	-0.667240	0.058180
H63	H	0.439067	-0.583198	0.000002
C64	C	-0.119020	-0.775398	0.000058
C65	C	-0.044103	-0.827217	0.000046
H66	H	-0.175404	-0.814506	0.000050
H67	H	-0.116240	-0.738284	0.058243
H68	H	-0.116230	-0.738272	-0.058124
H69	H	-0.046889	-0.864338	0.058232
H70	H	-0.046884	-0.864347	-0.058145
C71	C	0.314750	-0.836095	-0.085753
C72	C	0.308572	-0.782670	0.000020
H73	H	0.372379	-0.860796	-0.085763
H74	H	0.265536	-0.883870	-0.085738
H75	H	0.310542	-0.799845	-0.143928
H76	H	0.312774	-0.818922	0.058195
H77	H	0.357800	-0.734888	0.000014
C78	C	0.308350	-0.888408	0.286563
C79	C	0.321572	-0.875482	0.389833
H80	H	0.350824	-0.846869	0.250928
H81	H	0.318484	-0.948581	0.269354
H82	H	0.246778	-0.878523	0.269371
H83	H	0.383144	-0.885374	0.407026
H84	H	0.311446	-0.815294	0.407049
C85	C	0.412320	-0.890077	0.584894
C86	C	0.321571	-0.875501	0.610297
H87	H	0.454797	-0.848541	0.620526
H88	H	0.422445	-0.950252	0.602097
H89	H	0.421265	-0.881309	0.514830
H90	H	0.312625	-0.884275	0.680361
H91	H	0.311442	-0.815312	0.593102
H92	H	0.241134	-0.954163	0.752874
C93	C	-0.094578	-1.179078	0.742442
C94	C	-0.003833	-1.193676	0.767813
H95	H	-0.137061	-1.220610	0.778075
H96	H	-0.104689	-1.118901	0.759667
H97	H	-0.103530	-1.187837	0.672379
H98	H	0.005121	-1.184909	0.837876
H99	H	0.006282	-1.253866	0.750595
C100	C	0.366446	-0.343366	0.000061
C101	C	0.385987	-0.433593	0.000040
H102	H	0.422829	-0.304257	0.000072
H103	H	0.331641	-0.332316	-0.058115
H104	H	0.331627	-0.332330	0.058252
H105	H	0.420801	-0.444631	-0.058155
H106	H	0.420807	-0.444648	0.058222
H107	H	-0.048579	-1.237438	0.595312
C108	C	-0.059614	-0.294274	-0.085683
C109	C	-0.053430	-0.347695	0.000082
H110	H	-0.117244	-0.269576	-0.085676
H111	H	-0.010402	-0.246496	-0.085673
H112	H	-0.055405	-0.330526	-0.143863
H113	H	-0.057633	-0.311441	0.058263
H114	H	-0.102656	-0.395479	0.000082
H115	H	0.275561	-0.319566	0.000046
H116	H	0.241141	-0.954111	0.247266
