data_functionalizedCrystal
_audit_creation_method	'MofGen! by Chris Wilmer'
_symmetry_space_group_name_H-M	'P1'
_symmetry_Int_Tables_number	1
_symmetry_cell_setting	triclinic
loop_
_symmetry_equiv_pos_as_xyz
  x,y,z
_cell_length_a	12.645331
_cell_length_b	12.645330
_cell_length_c	15.296720
_cell_angle_alpha	80.351902
_cell_angle_beta	80.334383
_cell_angle_gamma	90.013057
loop_
_atom_site_label
_atom_site_type_symbol
_atom_site_fract_x
_atom_site_fract_y
_atom_site_fract_z
Zn1	Zn	1.516978	-0.525718	0.509983
Zn2	Zn	1.547575	-0.672333	0.359135
Zn3	Zn	1.370388	-0.495090	0.359157
Zn4	Zn	1.339696	-0.702935	0.509952
O5	O	1.443660	-0.599019	0.434557
O6	O	1.669383	-0.545178	0.489977
O7	O	1.549721	-0.623196	0.232899
O8	O	1.389873	-0.350810	0.379186
O9	O	1.691863	-0.652895	0.379150
O10	O	1.497572	-0.373312	0.489998
O11	O	1.419542	-0.492976	0.232915
O12	O	1.217971	-0.522650	0.379156
O13	O	1.337563	-0.705052	0.636195
O14	O	1.195421	-0.675352	0.489945
O15	O	1.467811	-0.574851	0.636218
O16	O	1.519960	-0.824735	0.379119
O17	O	1.367232	-0.847218	0.489924
C18	C	1.168231	-0.598999	0.434550
C19	C	1.050397	-0.599020	0.434568
C20	C	0.991386	-0.695205	0.504163
C21	C	0.868868	-0.695500	0.503957
C22	C	0.901819	-0.609504	0.339381
C23	C	1.024335	-0.610165	0.339784
C24	C	1.000202	-0.492010	0.459328
C25	C	0.877170	-0.493055	0.461424
C26	C	1.443611	-0.874444	0.434535
C27	C	1.443681	-0.992278	0.434556
C28	C	1.539659	-1.145625	0.364708
C29	C	1.539891	-1.023100	0.364879
C30	C	1.454629	-1.055995	0.529646
C31	C	1.455353	-1.178518	0.529275
C32	C	1.336532	-1.154665	0.410253
C33	C	1.337503	-1.031627	0.408120
C34	C	1.720163	-0.599039	0.434564
C35	C	1.837993	-0.599048	0.434567
C36	C	1.395851	-0.646781	0.669854
C37	C	1.375477	-0.667135	0.770123
C38	C	1.443733	-0.322522	0.434598
C39	C	1.443765	-0.204695	0.434615
C40	C	1.491343	-0.551365	0.200175
C41	C	1.511922	-0.530713	0.099906
C42	C	1.589310	-0.453363	1.052814
C43	C	1.608459	-0.434241	0.958606
C44	C	1.550215	-0.492463	0.911481
C45	C	1.472820	-0.569810	0.958573
C46	C	1.453675	-0.588939	1.052790
C47	C	1.414580	-0.628039	0.911457
C48	C	1.337185	-0.705386	0.958549
C49	C	1.318043	-0.724511	1.052757
C50	C	1.376287	-0.666289	1.099882
C51	C	1.433724	-0.608910	0.817239
C52	C	1.298089	-0.744486	0.817215
C53	C	1.278941	-0.763607	0.911423
H54	H	1.039520	-0.420590	0.408644
H55	H	1.671476	-0.371268	0.920270
H56	H	1.496739	-0.545932	0.778906
H57	H	1.386073	-1.037725	0.583127
H58	H	1.535330	-1.160800	0.293994
C59	C	1.355242	-0.687334	1.203518
N60	N	1.339400	-0.703188	1.281577
C61	C	1.318046	-1.177831	0.318206
N62	N	1.304135	-1.195278	0.248873
H63	H	1.064916	-0.542064	0.286151
H64	H	1.636730	-0.405973	1.091192
H65	H	0.883514	-0.540756	0.286103
H66	H	1.565810	-0.476889	0.834772
C67	C	1.325867	-0.973219	0.313589
N68	N	1.317103	-0.929216	0.242390
C69	C	1.037428	-0.802277	0.482237
N70	N	1.072106	-0.882923	0.465717
H71	H	1.250664	-0.791896	0.778846
H72	H	1.263769	-1.010607	0.455305
H73	H	1.255031	-0.787500	1.091097
C74	C	0.808876	-0.689347	0.599213
N75	N	0.763700	-0.684567	0.670938
H76	H	1.057166	-0.687799	0.318857
H77	H	1.215924	-0.826583	0.949779
H78	H	1.619708	-0.996968	0.380992
H79	H	1.006496	-0.691216	0.574950
C80	C	0.866166	-0.713082	0.310624
N81	N	0.839313	-0.791101	0.288970
C82	C	1.558402	-1.020176	0.557988
N83	N	1.636568	-0.993198	0.579330
C84	C	1.240328	-1.207845	0.479035
N85	N	1.167875	-1.247906	0.530844
H86	H	1.017267	-0.478647	0.527569
C87	C	0.818654	-0.481906	0.556057
N88	N	0.774569	-0.473510	0.627333
C89	C	0.833731	-0.803156	0.481749
N90	N	0.807269	-0.884244	0.465015
H91	H	0.856097	-0.419164	0.414470
H92	H	1.535282	-0.978760	0.294372
H93	H	1.533159	-1.211226	0.549912
C94	C	1.646936	-1.191532	0.386218
N95	N	1.727735	-1.226119	0.402416
H96	H	1.387510	-1.219142	0.583155
