data_functionalizedCrystal
_audit_creation_method	'MofGen! by Chris Wilmer'
_symmetry_space_group_name_H-M	'P1'
_symmetry_Int_Tables_number	1
_symmetry_cell_setting	triclinic
loop_
_symmetry_equiv_pos_as_xyz
  x,y,z
_cell_length_a	18.215407
_cell_length_b	12.759400
_cell_length_c	18.215399
_cell_angle_alpha	90.023429
_cell_angle_beta	90.019833
_cell_angle_gamma	90.013614
loop_
_atom_site_label
_atom_site_type_symbol
_atom_site_fract_x
_atom_site_fract_y
_atom_site_fract_z
Zn1	Zn	1.125132	-0.418264	0.416139
Zn2	Zn	1.125065	-0.593962	0.293082
Zn3	Zn	1.002064	-0.418299	0.293086
Zn4	Zn	1.002056	-0.593903	0.416107
O5	O	1.063579	-0.506107	0.354604
O6	O	1.228107	-0.441581	0.399827
O7	O	1.108725	-0.570699	0.190099
O8	O	1.018421	-0.271273	0.309424
O9	O	1.228059	-0.570665	0.309418
O10	O	1.108838	-0.271248	0.399831
O11	O	1.018357	-0.441640	0.190102
O12	O	0.899079	-0.441583	0.309394
O13	O	1.018406	-0.570566	0.519096
O14	O	0.899072	-0.570599	0.399777
O15	O	1.108830	-0.441525	0.519119
O16	O	1.108716	-0.740975	0.309387
O17	O	1.018341	-0.740932	0.399773
C18	C	0.872373	-0.506089	0.354583
C19	C	0.790574	-0.506107	0.354591
C20	C	0.602396	-0.573391	0.401594
C21	C	0.525537	-0.573394	0.401604
C22	C	0.525515	-0.438842	0.307629
C23	C	0.602372	-0.438835	0.307624
C24	C	0.640811	-0.506115	0.354606
C25	C	0.487095	-0.506126	0.354620
C26	C	0.403761	-0.506129	0.354630
C27	C	0.724150	-0.506111	0.354597
C28	C	1.063541	-0.779075	0.354592
C29	C	1.063592	-0.895851	0.354612
C30	C	1.110648	-0.950620	0.401725
C31	C	1.110682	-1.060344	0.401743
C32	C	1.016601	-1.060520	0.307528
C33	C	1.016564	-0.950798	0.307515
C34	C	1.157676	-0.895673	0.448822
C35	C	1.204737	-0.950442	0.495938
C36	C	1.204771	-1.060166	0.495956
C37	C	1.157744	-1.115121	0.448858
C38	C	1.255532	-0.506126	0.354625
C39	C	1.337331	-0.506134	0.354635
C40	C	1.063624	-0.506035	0.546557
C41	C	1.063643	-0.506004	0.628356
C42	C	1.063638	-0.232074	0.354632
C43	C	1.063663	-0.115297	0.354643
C44	C	1.063577	-0.506103	0.163398
C45	C	1.063700	-0.505838	0.081599
C46	C	1.110744	-0.438749	0.816563
C47	C	1.110753	-0.438719	0.893422
C48	C	1.016595	-0.573096	0.893386
C49	C	1.016583	-0.573120	0.816529
C50	C	1.063662	-0.505949	0.778119
C51	C	1.063682	-0.505894	0.931835
C52	C	1.063691	-0.505861	1.015169
C53	C	1.063652	-0.505980	0.694780
H54	H	0.633691	-0.628172	0.439852
C55	C	1.006319	-0.714466	0.730067
C56	C	0.964828	-0.646991	0.774263
H57	H	0.974366	-0.760061	0.703971
H58	H	1.038370	-0.754647	0.760051
H59	H	1.034349	-0.674448	0.696198
H60	H	0.936801	-0.687010	0.808136
H61	H	0.932763	-0.606807	0.744277
C62	C	1.209753	-0.424093	0.979884
C63	C	1.162504	-0.364851	0.935684
H64	H	1.241697	-0.378484	1.005978
H65	H	1.237892	-0.469868	0.949904
H66	H	1.181710	-0.464091	1.013756
H67	H	1.190546	-0.324859	0.901809
H68	H	1.134362	-0.319058	0.965667
C69	C	1.246463	-0.782167	0.537743
C70	C	1.256426	-0.890040	0.547708
H71	H	1.278378	-0.744881	0.569702
H72	H	1.197011	-0.764229	0.548468
H73	H	1.257256	-0.764231	0.488300
H74	H	1.245627	-0.907978	0.597149
H75	H	1.305889	-0.907986	0.536988
H76	H	0.494208	-0.384067	0.269377
H77	H	0.494264	-0.628176	0.439868
H78	H	0.633650	-0.384044	0.269360
C79	C	1.297765	-1.048966	0.589078
C80	C	1.256497	-1.120370	0.547746
H81	H	1.329704	-1.086134	0.621046
H82	H	1.265672	-1.006181	0.617193
H83	H	1.325915	-1.006168	0.557022
H84	H	1.228343	-1.163163	0.579801
H85	H	1.288594	-1.163174	0.519629
H86	H	1.157655	-0.806330	0.448811
H87	H	1.149076	-0.384051	0.785292
H88	H	1.157767	-1.204466	0.448885
H89	H	0.978315	-1.105273	0.269183
C90	C	0.891958	-0.917170	0.271555
C91	C	0.964838	-0.890585	0.255730
H92	H	0.860023	-0.879999	0.239584
H93	H	0.881164	-0.899160	0.320986
H94	H	0.885258	-0.990381	0.264815
H95	H	0.971539	-0.817375	0.262475
H96	H	0.975636	-0.908588	0.206287
C97	C	0.974808	-0.632731	1.011188
C98	C	0.964853	-0.646937	0.935609
H99	H	0.942868	-0.678325	1.037252
H100	H	0.964051	-0.562145	1.023788
H101	H	1.024257	-0.648107	1.023783
H102	H	0.915406	-0.631553	0.923014
H103	H	0.975605	-0.717539	0.923004
