data_functionalizedCrystal
_audit_creation_method	'MofGen! by Chris Wilmer'
_symmetry_space_group_name_H-M	'P1'
_symmetry_Int_Tables_number	1
_symmetry_cell_setting	triclinic
loop_
_symmetry_equiv_pos_as_xyz
  x,y,z
_cell_length_a	10.685661
_cell_length_b	25.639239
_cell_length_c	10.686551
_cell_angle_alpha	94.409979
_cell_angle_beta	99.072622
_cell_angle_gamma	85.660166
loop_
_atom_site_label
_atom_site_type_symbol
_atom_site_fract_x
_atom_site_fract_y
_atom_site_fract_z
Zn1	Zn	1.995462	-0.244037	0.866094
Zn2	Zn	1.978942	-0.337709	0.653803
Zn3	Zn	1.766897	-0.244061	0.637619
Zn4	Zn	1.783085	-0.325208	0.849770
O5	O	1.881097	-0.287754	0.751821
O6	O	2.170893	-0.261684	0.851538
O7	O	1.937125	-0.330528	0.474026
O8	O	1.797356	-0.170895	0.667985
O9	O	2.158755	-0.330505	0.695569
O10	O	1.965282	-0.170877	0.835844
O11	O	1.781337	-0.261725	0.462135
O12	O	1.591423	-0.249604	0.652156
O13	O	1.824946	-0.309199	1.029565
O14	O	1.603316	-0.309222	0.808023
O15	O	1.980979	-0.249563	1.041558
O16	O	1.952822	-0.409213	0.679740
O17	O	1.808927	-0.400029	0.823716
C18	C	1.551314	-0.278059	0.726562
C19	C	1.410234	-0.273924	0.715787
C20	C	1.880875	-0.423592	0.751744
C21	C	1.880900	-0.481706	0.751761
C22	C	1.806153	-0.728134	0.826763
C23	C	1.806105	-0.673529	0.826744
O24	O	1.742341	-0.641236	0.890454
N25	N	1.881064	-0.650983	0.751840
C26	C	1.956087	-0.683044	0.676959
O27	O	2.019842	-0.658853	0.613247
C28	C	1.956141	-0.737649	0.676985
C29	C	1.881167	-0.760192	0.751885
C30	C	1.731186	-0.750678	0.901657
C31	C	1.731233	-0.805280	0.901673
C32	C	1.806247	-0.837337	0.826795
C33	C	1.881213	-0.814793	0.751901
C34	C	2.031169	-0.769709	0.602112
C35	C	2.031217	-0.824317	0.602146
C36	C	1.956243	-0.846860	0.677045
C37	C	1.956274	-0.901453	0.677039
N38	N	1.881314	-0.923999	0.751943
C39	C	1.806301	-0.891942	0.826821
C40	C	1.955969	-0.568372	0.676912
C41	C	1.955909	-0.513768	0.676878
C42	C	1.805929	-0.504257	0.826665
C43	C	1.805983	-0.558861	0.826691
C44	C	1.881009	-0.590918	0.751816
C45	C	1.806404	-1.006609	0.826849
C46	C	1.806453	-1.061216	0.826854
C47	C	1.956437	-1.070722	0.677073
C48	C	1.956384	-1.016121	0.677062
C49	C	1.881363	-0.984065	0.751960
O50	O	2.020009	-0.933778	0.613365
O51	O	1.742569	-0.916140	0.890536
C52	C	2.212167	-0.297486	0.777180
C53	C	2.353249	-0.301634	0.787986
C54	C	1.906611	-0.277984	1.082907
C55	C	1.917484	-0.273821	1.223996
C56	C	1.881356	-0.151385	0.751930
C57	C	1.881466	-0.093273	0.751976
C58	C	1.855755	-0.297450	0.422029
C59	C	1.845128	-0.301473	0.280960
H60	H	1.351084	-0.247034	0.645728
N61	N	1.756977	-0.335174	1.206762
N62	N	1.766422	-0.383236	1.222079
H63	H	1.704163	-0.407038	1.169671
N64	N	2.107831	-0.857063	0.525635
N65	N	2.057025	-0.888640	0.441300
H66	H	2.111128	-0.911766	0.387260
H67	H	1.745398	-1.079567	0.887849
H68	H	1.412394	-0.328517	0.858051
N69	N	1.729772	-0.973878	0.903366
N70	N	1.662849	-0.994022	0.970226
H71	H	1.608722	-0.970906	1.024263
N72	N	1.654644	-0.828294	0.978192
N73	N	1.587683	-0.799657	1.045040
H74	H	1.533590	-0.815907	1.099089
N75	N	1.654554	-0.717945	0.978163
N76	N	1.587636	-0.738091	1.045024
H77	H	1.533503	-0.714977	1.099057
H78	H	1.744940	-0.577212	0.887688
H79	H	1.987759	-0.246962	1.283172
H80	H	2.016944	-0.495418	0.615873
N81	N	1.729316	-0.471497	0.903154
N82	N	1.729297	-0.422745	0.903121
H83	H	1.675196	-0.399607	0.957139
H84	H	2.017061	-0.594470	0.615929
N85	N	2.107759	-0.746700	0.525593
N86	N	2.174730	-0.775339	0.458758
H87	H	2.228829	-0.759090	0.404712
N88	N	2.032953	-0.993098	0.600529
N89	N	2.099915	-1.021730	0.533671
H90	H	2.154000	-1.005474	0.479623
H91	H	2.017507	-1.096834	0.616104
