data_functionalizedCrystal
_audit_creation_method	'MofGen! by Chris Wilmer'
_symmetry_space_group_name_H-M	'P1'
_symmetry_Int_Tables_number	1
_symmetry_cell_setting	triclinic
loop_
_symmetry_equiv_pos_as_xyz
  x,y,z
_cell_length_a	13.897449
_cell_length_b	17.077402
_cell_length_c	17.077396
_cell_angle_alpha	89.970216
_cell_angle_beta	89.981559
_cell_angle_gamma	90.024163
loop_
_atom_site_label
_atom_site_type_symbol
_atom_site_fract_x
_atom_site_fract_y
_atom_site_fract_z
Zn1	Zn	1.474646	-0.312481	-0.443813
Zn2	Zn	1.474532	-0.443756	-0.312544
Zn3	Zn	1.313342	-0.312511	-0.312564
Zn4	Zn	1.313302	-0.443712	-0.443770
O5	O	1.393955	-0.378115	-0.378173
O6	O	1.609612	-0.329901	-0.426410
O7	O	1.453118	-0.426377	-0.202700
O8	O	1.334803	-0.202660	-0.330000
O9	O	1.609529	-0.426348	-0.329967
O10	O	1.453313	-0.202638	-0.426429
O11	O	1.334692	-0.329952	-0.202714
O12	O	1.178355	-0.329909	-0.329959
O13	O	1.334736	-0.426273	-0.553623
O14	O	1.178326	-0.426302	-0.426356
O15	O	1.453275	-0.329858	-0.553655
O16	O	1.453080	-0.553597	-0.329926
O17	O	1.334625	-0.553565	-0.426337
C18	C	1.393862	-0.582063	-0.378142
C19	C	1.393911	-0.669313	-0.378155
C20	C	1.143341	-0.378105	-0.378155
C21	C	1.036127	-0.378119	-0.378166
C22	C	1.455653	-0.710294	-0.328007
C23	C	1.455700	-0.792274	-0.328027
C24	C	1.393999	-0.833272	-0.378191
C25	C	1.332254	-0.792286	-0.428344
C26	C	1.332213	-0.710307	-0.428328
C27	C	1.332344	-0.963156	-0.428374
C28	C	1.332384	-1.045140	-0.428390
C29	C	1.455831	-1.045123	-0.328074
C30	C	1.455790	-0.963144	-0.328057
C31	C	1.394043	-0.922163	-0.378209
C32	C	0.839832	-0.378122	-0.378187
C33	C	0.949065	-0.378118	-0.378173
C34	C	1.645548	-0.378126	-0.378191
C35	C	1.752762	-0.378131	-0.378199
C36	C	1.394014	-0.378057	-0.582917
C37	C	1.394039	-0.378033	-0.670167
C38	C	1.394075	-0.173371	-0.378222
C39	C	1.394126	-0.086121	-0.378242
C40	C	1.455764	-0.327825	-0.711175
C41	C	1.455776	-0.327799	-0.793156
C42	C	1.394066	-0.377985	-0.834127
C43	C	1.332334	-0.428195	-0.793113
C44	C	1.332318	-0.428216	-0.711134
C45	C	1.332373	-0.428147	-0.963983
C46	C	1.332390	-0.428127	-1.045968
C47	C	1.455830	-0.327731	-1.046005
C48	C	1.455814	-0.327752	-0.964026
C49	C	1.394083	-0.377963	-0.923018
C50	C	1.393953	-0.378116	-0.174225
C51	C	1.394115	-0.377920	-0.086976
H52	H	1.505893	-0.676919	-0.287154
H53	H	1.506041	-0.286917	-0.826541
C54	C	1.265435	-0.482866	-0.666644
C55	C	1.286422	-0.560527	-0.686552
C56	C	1.224838	-0.610893	-0.645574
H57	H	1.200595	-0.471483	-0.680033
H58	H	1.274277	-0.475741	-0.611946
H59	H	1.277572	-0.567648	-0.741237
H60	H	1.351250	-0.571935	-0.673161
H61	H	1.233681	-0.603769	-0.590876
H62	H	1.160003	-0.599503	-0.658967
H63	H	1.239076	-0.663592	-0.659070
H64	H	1.505976	-0.825637	-0.287192
H65	H	1.282021	-0.825673	-0.469192
C66	C	1.522913	-1.089471	-0.273539
C67	C	1.576916	-1.036021	-0.229586
C68	C	1.638705	-1.076849	-0.179333
H69	H	1.565025	-1.121402	-0.303515
H70	H	1.486075	-1.121486	-0.239276
H71	H	1.613750	-1.004020	-0.263845
H72	H	1.534828	-1.004088	-0.199594
H73	H	1.601867	-1.108863	-0.145070
H74	H	1.680811	-1.108778	-0.209315
H75	H	1.675347	-1.040589	-0.149499
H76	H	1.506069	-0.286891	-0.930669
H77	H	1.506092	-0.286846	-1.079397
H78	H	1.506026	-0.929764	-0.287206
H79	H	1.282085	-0.469054	-0.826478
H80	H	1.281937	-0.676941	-0.469164
H81	H	1.506018	-0.286961	-0.677822
C82	C	1.265281	-0.482640	-1.090311
C83	C	1.211192	-0.526597	-1.036855
C84	C	1.149352	-0.576815	-1.077675
H85	H	1.302056	-0.516907	-1.122290
H86	H	1.223232	-0.452613	-1.122278
H87	H	1.253236	-0.556621	-1.004901
H88	H	1.174397	-0.492351	-1.004875
H89	H	1.107303	-0.546789	-1.109642
H90	H	1.186135	-0.611077	-1.109652
H91	H	1.112639	-0.606641	-1.041411
H92	H	1.282160	-1.078518	-0.469252
H93	H	1.282066	-0.929791	-0.469216
H94	H	1.282090	-0.469022	-0.930597
