data_functionalizedCrystal
_audit_creation_method	'MofGen! by Chris Wilmer'
_symmetry_space_group_name_H-M	'P1'
_symmetry_Int_Tables_number	1
_symmetry_cell_setting	triclinic
loop_
_symmetry_equiv_pos_as_xyz
  x,y,z
_cell_length_a	16.625548
_cell_length_b	12.827893
_cell_length_c	12.827885
_cell_angle_alpha	90.025051
_cell_angle_beta	90.021236
_cell_angle_gamma	90.004578
loop_
_atom_site_label
_atom_site_type_symbol
_atom_site_fract_x
_atom_site_fract_y
_atom_site_fract_z
Zn1	Zn	1.232792	-0.415953	0.590938
Zn2	Zn	1.232738	-0.590730	0.416213
Zn3	Zn	1.097952	-0.416007	0.416206
Zn4	Zn	1.097969	-0.590656	0.590907
O5	O	1.165363	-0.503336	0.503566
O6	O	1.345617	-0.439146	0.567776
O7	O	1.214829	-0.567606	0.269976
O8	O	1.115855	-0.269764	0.439394
O9	O	1.345578	-0.567554	0.439406
O10	O	1.214921	-0.269724	0.567769
O11	O	1.115802	-0.439238	0.269970
O12	O	0.985122	-0.439166	0.439364
O13	O	1.115883	-0.567427	0.737147
O14	O	0.985134	-0.567480	0.567716
O15	O	1.214937	-0.439073	0.737170
O16	O	1.214845	-0.736956	0.439376
O17	O	1.115831	-0.736901	0.567723
C18	C	1.165356	-0.774846	0.503570
C19	C	1.165427	-0.890999	0.503606
C20	C	0.955872	-0.503321	0.503536
C21	C	0.866251	-0.503340	0.503549
C22	C	1.165418	-0.503236	0.776136
C23	C	1.165441	-0.503193	0.892289
C24	C	0.538075	-0.503347	0.503593
C25	C	0.629384	-0.503342	0.503578
C26	C	0.702160	-0.503344	0.503570
C27	C	0.793474	-0.503338	0.503556
C28	C	1.375672	-0.503352	0.503596
C29	C	1.465293	-0.503359	0.503608
C30	C	1.165392	-0.230766	0.503584
C31	C	1.165404	-0.114613	0.503593
C32	C	1.116394	-0.062848	0.440079
C33	C	1.116405	0.057202	0.440085
C34	C	1.165355	-0.503361	0.232056
C35	C	1.165487	-0.503109	0.115903
C36	C	1.214461	-0.439667	0.944085
C37	C	1.214487	-0.439622	1.064136
H38	H	1.074423	-0.107407	0.385701
N39	N	1.060824	0.116167	0.368056
H40	H	1.003201	0.097239	0.384259
H41	H	1.073385	0.097175	0.293402
H42	H	1.123486	-0.557539	0.936821
N43	N	1.270036	-0.367674	0.885107
H44	H	1.302754	-0.325274	0.936167
H45	H	1.237180	-0.319367	0.839819
N46	N	1.221016	0.050066	0.575650
H47	H	1.258342	0.004761	0.533151
H48	H	1.188167	0.004863	0.624020
N49	N	1.220997	-0.055593	0.575628
H50	H	1.278616	-0.074541	0.559423
H51	H	1.208432	-0.074526	0.650280
N52	N	1.270087	-0.367581	1.123126
H53	H	1.262225	-0.377762	1.200524
H54	H	1.257555	-0.292936	1.104107
N55	N	1.109885	-0.575163	1.056931
H56	H	1.142666	-0.623573	1.011646
H57	H	1.072555	-0.532596	1.011704
