data_functionalizedCrystal
_audit_creation_method	'MofGen! by Chris Wilmer'
_symmetry_space_group_name_H-M	'P1'
_symmetry_Int_Tables_number	1
_symmetry_cell_setting	triclinic
loop_
_symmetry_equiv_pos_as_xyz
  x,y,z
_cell_length_a	15.944545
_cell_length_b	15.944564
_cell_length_c	15.021413
_cell_angle_alpha	89.997162
_cell_angle_beta	89.995468
_cell_angle_gamma	96.499946
loop_
_atom_site_label
_atom_site_type_symbol
_atom_site_fract_x
_atom_site_fract_y
_atom_site_fract_z
O1	O	1.114537	-0.108295	-0.073977
O2	O	0.869987	-0.121657	-0.073992
O3	O	0.998935	0.007298	-0.073975
O4	O	0.985590	-0.237250	-0.073993
O5	O	0.998914	0.007280	0.074089
O6	O	0.869967	-0.121675	0.074073
O7	O	1.114517	-0.108314	0.074087
Zn8	Zn	0.992238	-0.114997	0.097588
Zn9	Zn	0.992265	-0.114973	-0.097493
O10	O	0.985569	-0.237269	0.074071
C11	C	0.838683	-0.121112	0.000039
C12	C	0.745437	-0.119452	0.000033
C13	C	0.474800	-0.034559	0.000049
C14	C	0.525373	-0.075497	0.073052
C15	C	0.409793	-0.113531	0.000049
C16	C	0.525374	-0.075500	-0.072928
C17	C	0.574706	-0.116436	0.000040
C18	C	0.459138	-0.154448	0.073112
C19	C	0.459135	-0.154439	-0.072933
C20	C	0.509676	-0.195435	0.000087
C21	C	0.314790	-0.111856	0.000055
C22	C	0.669706	-0.118118	0.000040
C23	C	0.998369	0.038583	0.000057
C24	C	0.996702	0.131828	0.000058
C25	C	1.145821	-0.108858	0.000055
C26	C	1.239067	-0.110518	0.000055
C27	C	0.912788	0.346682	0.000042
C28	C	0.951737	0.407691	0.073049
C29	C	0.993687	0.302553	0.000052
C30	C	0.951777	0.407692	-0.072931
C31	C	0.990769	0.467465	0.000042
C32	C	1.032659	0.362334	0.073119
C33	C	1.032687	0.362329	-0.072926
C34	C	1.071695	0.423320	0.000099
C35	C	0.995366	0.207551	0.000058
C36	C	0.989096	0.562465	0.000042
N37	N	0.992226	-0.115013	0.230726
C38	C	0.986124	0.731445	0.000038
C39	C	0.987756	0.638195	0.000034
N40	N	0.992284	-0.114950	-0.230630
C41	C	0.932592	-0.174614	0.470402
C42	C	1.008493	-0.190919	0.529739
C43	C	0.992248	-0.114992	0.412333
C44	C	0.916367	-0.098706	0.529737
C45	C	0.992262	-0.114974	0.587757
C46	C	1.068187	-0.131335	0.470364
C47	C	0.976011	-0.039089	0.470356
C48	C	1.051967	-0.055362	0.529667
C49	C	0.992238	-0.115005	0.311276
C50	C	0.992279	-0.114961	0.688812
H51	H	0.525171	-0.263500	0.000125
H52	H	0.430321	-0.187783	0.134896
H53	H	0.430199	-0.187755	-0.134658
Cl54	Cl	0.570032	-0.023976	-0.168210
Cl55	Cl	0.809119	0.295255	0.000142
H56	H	0.917511	0.427790	0.134766
H57	H	1.066839	0.342336	0.134908
Cl58	Cl	1.175454	0.474521	0.000165
Cl59	Cl	1.085484	0.331258	-0.168219
H60	H	0.917557	0.427776	-0.134657
H61	H	0.882194	-0.225075	0.444380
H62	H	1.022239	-0.255101	0.555823
Cl63	Cl	0.450623	0.070443	0.000163
Cl64	Cl	1.167295	-0.152707	0.430274
H65	H	1.102477	-0.004931	0.555526
H66	H	0.554294	-0.042152	0.134774
H67	H	0.962242	0.025072	0.444252
H68	H	0.852190	-0.084939	0.555819
