data_functionalizedCrystal
_audit_creation_method	'MofGen! by Chris Wilmer'
_symmetry_space_group_name_H-M	'P1'
_symmetry_Int_Tables_number	1
_symmetry_cell_setting	triclinic
loop_
_symmetry_equiv_pos_as_xyz
  x,y,z
_cell_length_a	12.759401
_cell_length_b	12.594516
_cell_length_c	12.759393
_cell_angle_alpha	90.029726
_cell_angle_beta	90.020938
_cell_angle_gamma	90.013340
loop_
_atom_site_label
_atom_site_type_symbol
_atom_site_fract_x
_atom_site_fract_y
_atom_site_fract_z
Zn1	Zn	1.606287	-0.423647	0.594026
Zn2	Zn	2.106287	0.076353	1.094026
Zn3	Zn	1.606187	-0.601663	0.418348
Zn4	Zn	2.106187	-0.101663	0.918348
Zn5	Zn	1.430586	-0.423704	0.418361
Zn6	Zn	1.930586	0.076296	0.918361
Zn7	Zn	1.430587	-0.601589	0.593985
Zn8	Zn	1.930587	-0.101589	1.093985
O9	O	1.518412	-0.512651	0.506180
O10	O	2.018412	-0.012651	1.006180
O11	O	1.753295	-0.447269	0.570733
O12	O	2.253295	0.052731	1.070733
O13	O	1.582851	-0.578111	0.271329
O14	O	2.082851	-0.078111	0.771329
O15	O	1.453935	-0.274751	0.441685
O16	O	1.953935	0.225249	0.941685
O17	O	1.753222	-0.578056	0.441664
O18	O	2.253222	-0.078056	0.941664
O19	O	1.583022	-0.274709	0.570746
O20	O	2.083022	0.225291	1.070746
O21	O	1.453838	-0.447365	0.271338
O22	O	1.953838	0.052635	0.771338
O23	O	1.283565	-0.447293	0.441646
O24	O	1.783565	0.052707	0.941646
O25	O	1.453936	-0.577930	0.741012
O26	O	1.953936	-0.077930	1.241012
O27	O	1.283566	-0.577985	0.570677
O28	O	1.783566	-0.077985	1.070677
O29	O	1.583023	-0.447197	0.741042
O30	O	2.083023	0.052803	1.241042
O31	O	1.582852	-0.750599	0.441625
O32	O	2.082852	-0.250599	0.941625
O33	O	1.453839	-0.750545	0.570665
O34	O	1.953839	-0.250545	1.070665
C35	C	1.245445	-0.512638	0.506159
C36	C	1.745445	-0.012638	1.006159
C37	C	1.128668	-0.512658	0.506175
C38	C	1.628668	-0.012658	1.006175
C39	C	1.073834	-0.580812	0.573256
C40	C	1.573834	-0.080812	1.073256
C41	C	0.964110	-0.580816	0.573277
C42	C	1.464110	-0.080816	1.073277
C43	C	0.964064	-0.444509	0.439127
C44	C	1.464064	0.055491	0.939127
C45	C	1.073786	-0.444500	0.439113
C46	C	1.573786	0.055500	0.939113
C47	C	1.518363	-0.789192	0.506162
C48	C	2.018363	-0.289192	1.006162
C49	C	1.518439	-0.907497	0.506189
C50	C	2.018439	-0.407497	1.006189
C51	C	1.588690	-0.976741	0.436079
C52	C	2.088690	-0.476741	0.936079
C53	C	1.614368	-1.047434	0.531972
C54	C	2.114368	-0.547434	1.031972
C55	C	1.492893	-1.047603	0.410357
C56	C	1.992893	-0.547603	0.910357
C57	C	1.544165	-0.976632	0.602133
C58	C	2.044165	-0.476632	1.102133
C59	C	1.422645	-0.976795	0.480453
C60	C	1.922645	-0.476795	0.980453
C61	C	1.448286	-1.047456	0.576412
C62	C	1.948286	-0.547456	1.076412
C63	C	1.792445	-0.512665	0.506202
C64	C	2.292445	-0.012665	1.006202
C65	C	1.909222	-0.512671	0.506211
C66	C	2.409222	-0.012671	1.006211
C67	C	1.518491	-0.512549	0.780214
C68	C	2.018491	-0.012549	1.280214
C69	C	1.518524	-0.512505	0.896990
C70	C	2.018524	-0.012505	1.396990
C71	C	1.518489	-0.235030	0.506221
C72	C	2.018489	0.264970	1.006221
C73	C	1.518522	-0.116725	0.506239
C74	C	2.018522	0.383275	1.006239
C75	C	1.518394	-0.512676	0.233213
C76	C	2.018394	-0.012676	0.733213
C77	C	1.518564	-0.512420	0.116437
C78	C	2.018564	-0.012420	0.616437
C79	C	1.585744	-0.444422	0.951869
C80	C	2.085744	0.055578	1.451869
C81	C	1.585762	-0.444376	1.061594
C82	C	2.085762	0.055624	1.561594
C83	C	1.451336	-0.580506	1.061550
C84	C	1.951336	-0.080506	1.561550
C85	C	1.451314	-0.580546	0.951828
C86	C	1.951314	-0.080546	1.451828
H87	H	0.919365	-0.389018	0.384526
H88	H	1.419365	0.110982	0.884526
H89	H	1.396619	-0.635905	1.106212
H90	H	1.896619	-0.135905	1.606212
H91	H	1.396568	-0.635987	0.907144
H92	H	1.896568	-0.135987	1.407144
H93	H	1.118516	-0.636308	0.627865
H94	H	1.618516	-0.136308	1.127865
H95	H	0.919469	-0.636313	0.627902
H96	H	1.419469	-0.136313	1.127902
H97	H	1.118433	-0.388994	0.384488
H98	H	1.618433	0.111006	0.884488
H99	H	1.648109	-0.945691	0.376843
H100	H	2.148109	-0.445691	0.876843
N101	N	1.721716	-1.088547	0.560851
N102	N	2.221716	-0.588547	1.060851
H103	H	1.774704	-1.062833	0.507831
H104	H	2.274704	-0.562833	1.007831
H105	H	1.720679	-1.168729	0.561339
H106	H	2.220679	-0.668729	1.061339
N107	N	1.658266	-0.370952	1.120794
N108	N	2.158266	0.129048	1.620794
H109	H	1.615591	-0.321606	1.166315
H110	H	2.115591	0.178394	1.666315
H111	H	1.700826	-0.327926	1.069343
H112	H	2.200826	0.172074	1.569343
H113	H	1.565726	-0.945590	0.683267
H114	H	2.065726	-0.445590	1.183267
H115	H	1.388913	-1.078309	0.635791
H116	H	1.888913	-0.578309	1.135791
H117	H	1.341623	-0.945740	0.458628
H118	H	1.841623	-0.445740	0.958628
N119	N	1.464219	-1.088902	0.302984
N120	N	1.964219	-0.588902	0.802984
H121	H	1.517307	-1.063179	0.250069
H122	H	2.017307	-0.563179	0.750069
H123	H	1.392328	-1.062094	0.283072
H124	H	1.892328	-0.562094	0.783072
N125	N	1.658230	-0.371038	0.892721
N126	N	2.158230	0.128962	1.392721
H127	H	1.700815	-0.327899	0.944140
H128	H	2.200815	0.172101	1.444140
H129	H	1.615470	-0.321795	0.847196
H130	H	2.115470	0.178205	1.347196
