data_functionalizedCrystal
_audit_creation_method	'MofGen! by Chris Wilmer'
_symmetry_space_group_name_H-M	'P1'
_symmetry_Int_Tables_number	1
_symmetry_cell_setting	triclinic
loop_
_symmetry_equiv_pos_as_xyz
  x,y,z
_cell_length_a	11.169417
_cell_length_b	15.297327
_cell_length_c	11.169409
_cell_angle_alpha	99.639974
_cell_angle_beta	89.979436
_cell_angle_gamma	99.707226
loop_
_atom_site_label
_atom_site_type_symbol
_atom_site_fract_x
_atom_site_fract_y
_atom_site_fract_z
Zn1	Zn	1.752176	-0.359064	-0.761131
Zn2	Zn	2.252176	0.140936	-0.261131
Zn3	Zn	1.717269	-0.509957	-0.595155
Zn4	Zn	2.217269	-0.009957	-0.095155
Zn5	Zn	1.551447	-0.359119	-0.560478
Zn6	Zn	2.051447	0.140881	-0.060478
Zn7	Zn	1.516693	-0.509883	-0.795783
Zn8	Zn	2.016693	-0.009883	-0.295783
O9	O	1.634396	-0.434506	-0.678137
O10	O	2.134396	0.065494	-0.178137
O11	O	1.915493	-0.379088	-0.739125
O12	O	2.415493	0.120912	-0.239125
O13	O	1.695208	-0.490001	-0.422618
O14	O	2.195208	0.009999	0.077382
O15	O	1.607227	-0.232867	-0.558081
O16	O	2.107227	0.267133	-0.058081
O17	O	1.889848	-0.489948	-0.617183
O18	O	2.389848	0.010052	-0.117183
O19	O	1.754702	-0.232827	-0.705500
O20	O	2.254702	0.267173	-0.205500
O21	O	1.573379	-0.379182	-0.397141
O22	O	2.073379	0.120818	0.102859
O23	O	1.378889	-0.379111	-0.591682
O24	O	1.878889	0.120889	-0.091682
O25	O	1.547994	-0.489823	-0.959124
O26	O	2.047994	0.010177	-0.459124
O27	O	1.353355	-0.489876	-0.764559
O28	O	1.853355	0.010124	-0.264559
O29	O	1.721003	-0.379017	-0.933666
O30	O	2.221003	0.120983	-0.433666
O31	O	1.661509	-0.636191	-0.650783
O32	O	2.161509	-0.136191	-0.150783
O33	O	1.514146	-0.636138	-0.798184
O34	O	2.014146	-0.136138	-0.298184
C35	C	1.322575	-0.434492	-0.678119
C36	C	1.822575	0.065508	-0.178119
C37	C	1.189171	-0.434508	-0.678144
C38	C	1.689171	0.065492	-0.178144
C39	C	1.580301	-0.668898	-0.732033
C40	C	2.080301	-0.168898	-0.232033
C41	C	1.557269	-0.769172	-0.755130
C42	C	2.057269	-0.269172	-0.255130
C43	C	1.799506	-1.051815	-0.513469
C44	C	2.299506	-0.551815	-0.013469
C45	C	1.821146	-0.957602	-0.491762
C46	C	2.321146	-0.457602	0.008238
C47	C	1.755179	-0.910490	-0.557602
C48	C	2.255179	-0.410490	-0.057602
C49	C	1.667568	-0.957600	-0.645153
C50	C	2.167568	-0.457600	-0.145153
C51	C	1.645920	-1.051821	-0.666855
C52	C	2.145920	-0.551821	-0.166855
C53	C	1.601592	-0.910497	-0.710988
C54	C	2.101592	-0.410497	-0.210988
C55	C	1.513981	-0.957606	-0.798539
C56	C	2.013981	-0.457606	-0.298539
C57	C	1.492338	-1.051819	-0.820238
C58	C	1.992338	-0.551819	-0.320238
C59	C	1.558305	-1.098931	-0.754398
C60	C	2.058305	-0.598931	-0.254398
C61	C	1.623240	-0.816275	-0.689286
C62	C	2.123240	-0.316275	-0.189286
C63	C	1.469654	-0.816282	-0.842672
C64	C	1.969654	-0.316282	-0.342672
C65	C	1.448014	-0.910494	-0.864379
C66	C	1.948014	-0.410494	-0.364379
C67	C	1.947435	-0.434520	-0.678157
C68	C	2.447435	0.065480	-0.178157
C69	C	2.080834	-0.434526	-0.678165
C70	C	2.580834	0.065474	-0.178165
C71	C	1.634515	-0.434406	-0.991157
C72	C	2.134515	0.065594	-0.491157
C73	C	1.634566	-0.434363	-1.124547
C74	C	2.134566	0.065637	-0.624547
C75	C	1.688735	-0.199198	-0.624057
C76	C	2.188735	0.300802	-0.124057
C77	C	1.711891	-0.098924	-0.601012
C78	C	2.211891	0.401076	-0.101012
C79	C	1.634361	-0.434540	-0.366320
C80	C	2.134361	0.065460	0.133680
C81	C	1.634602	-0.434329	-0.232872
C82	C	2.134602	0.065671	0.267128
H83	H	1.694573	-0.777927	-0.618002
H84	H	2.194573	-0.277927	-0.118002
Br85	Br	1.528402	-1.226795	-0.783315
Br86	Br	2.028402	-0.726795	-0.283315
H87	H	1.772802	-0.833778	-0.539922
H88	H	2.272802	-0.333778	-0.039922
Br89	Br	1.940051	-0.893674	-0.372960
Br90	Br	2.440051	-0.393674	0.127040
H91	H	1.853200	-1.090182	-0.459864
H92	H	2.353200	-0.590182	0.040136
Br93	Br	1.380110	-0.752352	-0.932021
Br94	Br	1.880110	-0.252352	-0.432021
Br95	Br	1.373429	-1.115752	-0.939048
Br96	Br	1.873429	-0.615752	-0.439048
H97	H	1.376680	-0.948864	-0.935663
H98	H	1.876680	-0.448864	-0.435663
