data_functionalizedCrystal
_audit_creation_method	'MofGen! by Chris Wilmer'
_symmetry_space_group_name_H-M	'P1'
_symmetry_Int_Tables_number	1
_symmetry_cell_setting	triclinic
loop_
_symmetry_equiv_pos_as_xyz
  x,y,z
_cell_length_a	13.635800
_cell_length_b	17.804464
_cell_length_c	19.551833
_cell_angle_alpha	96.812085
_cell_angle_beta	101.663477
_cell_angle_gamma	99.506423
loop_
_atom_site_label
_atom_site_type_symbol
_atom_site_fract_x
_atom_site_fract_y
_atom_site_fract_z
V1	V	1.993289	0.106212	0.218150
O2	O	1.997520	-0.004282	0.213699
O3	O	1.959479	0.209810	0.216944
O4	O	1.964754	0.104939	0.313162
O5	O	1.992208	0.101315	0.116816
V6	V	2.236910	0.092953	0.205995
O7	O	2.119840	0.135297	0.244813
O8	O	2.335458	0.063868	0.179331
O9	O	2.159117	-0.010645	0.207200
O10	O	2.291377	0.203447	0.210445
O11	O	2.296689	0.097850	0.307329
O12	O	2.153842	0.094226	0.110983
V13	V	2.493289	0.106212	0.218150
O14	O	2.497520	-0.004282	0.213699
O15	O	2.459479	0.209810	0.216944
O16	O	2.464754	0.104939	0.313162
O17	O	2.492208	0.101315	0.116816
V18	V	2.736910	0.092953	0.205995
O19	O	2.619840	0.135297	0.244813
O20	O	2.835458	0.063868	0.179331
O21	O	2.659117	-0.010645	0.207200
O22	O	2.791377	0.203447	0.210445
O23	O	2.796689	0.097850	0.307329
O24	O	2.653842	0.094226	0.110983
C25	C	2.070485	-0.035885	0.210566
C26	C	2.047133	-0.120579	0.210922
C27	C	2.122983	-0.164262	0.207591
C28	C	2.101031	-0.243843	0.207914
C29	C	2.003231	-0.279739	0.211575
C30	C	1.927375	-0.236050	0.214905
C31	C	1.949325	-0.156471	0.214576
C32	C	1.838848	-0.556982	0.216231
C33	C	1.816904	-0.636566	0.216561
C34	C	1.990554	-0.644354	0.209569
C35	C	2.012505	-0.564775	0.209240
C36	C	1.936646	-0.521094	0.212566
C37	C	1.960449	-0.434803	0.212214
C38	C	1.979429	-0.366027	0.211933
C39	C	1.879782	0.235054	0.213577
C40	C	1.892752	0.319749	0.213225
C41	C	1.886511	0.101279	0.336311
C42	C	1.903759	0.100924	0.413985
C43	C	2.063756	0.097888	0.087830
C44	C	2.036128	0.098240	0.010155
C45	C	2.379782	0.235054	0.213577
C46	C	2.392752	0.319749	0.213225
C47	C	2.386511	0.101279	0.336311
C48	C	2.403759	0.100924	0.413985
C49	C	2.002394	0.104581	0.454043
C50	C	2.018600	0.104247	0.527026
C51	C	1.936169	0.100271	0.559952
C52	C	1.837519	0.096609	0.519884
C53	C	1.821314	0.096935	0.446901
C54	C	1.900924	0.141697	0.679377
C55	C	1.917134	0.141376	0.752360
C56	C	1.986146	0.099261	0.785056
C57	C	2.038965	0.057479	0.744762
C58	C	2.022760	0.057805	0.671778
C59	C	1.953730	0.099917	0.639089
C60	C	2.102360	0.102556	0.904250
C61	C	2.118562	0.102217	0.977234
C62	C	1.937479	0.094587	0.970092
C63	C	1.921278	0.094918	0.897108
C64	C	2.003723	0.098906	0.864193
C65	C	2.570485	-0.035885	0.210566
C66	C	2.547133	-0.120579	0.210922
C67	C	2.563756	0.097888	0.087830
C68	C	2.536128	0.098240	0.010155
C69	C	2.489384	0.363420	0.216561
C70	C	2.501588	0.443002	0.216241
C71	C	2.417158	0.478911	0.212579
C72	C	2.320520	0.435234	0.209245
C73	C	2.308318	0.355654	0.209570
C74	C	2.502401	0.104569	0.454034
C75	C	2.518619	0.104225	0.527017
C76	C	2.436195	0.100241	0.559950
C77	C	2.337544	0.096594	0.519895
C78	C	2.321326	0.096932	0.446913
C79	C	2.622996	-0.164250	0.207588
C80	C	2.601063	-0.243832	0.207911
C81	C	2.503270	-0.279740	0.211575
C82	C	2.427401	-0.236064	0.214907
C83	C	2.449332	-0.156484	0.214579
C84	C	2.436322	0.102214	-0.022760
C85	C	2.410345	0.102536	-0.095746
C86	C	2.484179	0.098888	-0.135813
C87	C	2.583993	0.094911	-0.102894
C88	C	2.609966	0.094584	-0.029911
H89	H	2.202623	-0.135042	0.204614
H90	H	2.376190	0.105185	0.009854
Br91	Br	2.187445	0.091994	0.392571
H92	H	2.198883	0.105190	1.009848
Br93	Br	2.755725	-0.115535	0.202617
H94	H	2.463019	0.099164	-0.195239
H95	H	2.662852	-0.279382	0.205199
H96	H	2.580282	0.478553	0.218954
H97	H	2.485425	-0.344539	0.211841
Br98	Br	2.433735	0.586915	0.212138
H99	H	2.329068	0.105774	-0.122538
H100	H	1.847740	-0.265283	0.217881
Br101	Br	1.687441	0.091973	0.392534
H102	H	2.691240	0.091352	-0.003117
H103	H	2.065766	0.023782	0.638974
Br104	Br	2.614281	0.109976	0.409356
H105	H	2.251782	0.464483	0.206263
Br106	Br	2.294683	-0.284810	0.219873
H107	H	2.229628	0.320102	0.206849
H108	H	2.162799	-0.279407	0.205204
Br109	Br	2.346361	-0.097226	0.219105
H110	H	2.644100	0.091938	-0.135528
H111	H	2.092144	-0.535553	0.206263
H112	H	2.052319	-0.679929	0.206857
H113	H	1.737260	-0.665789	0.219542
H114	H	2.598952	0.107198	0.559620
H115	H	1.840961	0.091948	0.864494
H116	H	2.270440	0.093351	0.546721
Br117	Br	1.735888	-0.497712	0.220730
Br118	Br	1.846380	-0.097186	0.219094
H119	H	2.069528	0.107826	0.427247
Br120	Br	2.132638	0.000326	0.789125
Br121	Br	2.152472	0.109204	0.581400
H122	H	1.870360	0.091342	0.996898
H123	H	2.169491	0.105801	0.877448
H124	H	1.874130	0.175403	0.785163
Br125	Br	1.807241	0.198844	0.635010
H126	H	1.770403	0.093369	0.546697
H127	H	2.558141	0.334193	0.219538
Br128	Br	2.458224	0.099784	0.658999
