data_functionalizedCrystal
_audit_creation_method	'MofGen! by Chris Wilmer'
_symmetry_space_group_name_H-M	'P1'
_symmetry_Int_Tables_number	1
_symmetry_cell_setting	triclinic
loop_
_symmetry_equiv_pos_as_xyz
  x,y,z
_cell_length_a	27.440280
_cell_length_b	19.851628
_cell_length_c	19.851628
_cell_angle_alpha	90.004875
_cell_angle_beta	60.004397
_cell_angle_gamma	59.995303
loop_
_atom_site_label
_atom_site_type_symbol
_atom_site_fract_x
_atom_site_fract_y
_atom_site_fract_z
Zr1	Zr	0.533342	-0.088318	0.649065
O2	O	0.635022	-0.195897	0.541508
O3	O	0.431675	-0.055341	0.682025
O4	O	0.533348	-0.195881	0.682031
O5	O	0.533339	0.055505	0.541510
O6	O	0.533339	-0.195868	0.792893
O7	O	0.533348	-0.055356	0.541501
O8	O	0.351464	0.055533	0.792881
O9	O	0.715214	-0.195895	0.541522
O10	O	0.473480	-0.041265	0.778832
O11	O	0.473480	0.041460	0.696103
O12	O	0.593188	-0.124008	0.696111
O13	O	0.593188	-0.041283	0.613383
Zr14	Zr	0.533312	0.088515	0.825891
Zr15	Zr	0.533327	-0.088297	0.825877
Zr16	Zr	0.533327	0.088493	0.649079
Zr17	Zr	0.661240	-0.088316	0.649088
Zr18	Zr	0.405414	0.088513	0.825868
O19	O	0.634979	0.055538	0.792932
O20	O	0.635001	-0.195866	0.792911
O21	O	0.635001	0.055507	0.541528
O22	O	0.431632	0.196093	0.933448
O23	O	0.431654	-0.055310	0.933428
O24	O	0.431654	0.196063	0.682045
O25	O	0.533315	-0.055309	0.933446
O26	O	0.533306	0.196078	0.792925
O27	O	0.533315	0.196064	0.682063
O28	O	0.533306	0.055553	0.933455
O29	O	0.715202	-0.195878	0.682064
O30	O	0.351452	0.196075	0.792892
O31	O	0.351440	0.196092	0.933434
O32	O	0.351452	0.055550	0.933423
O33	O	0.715202	-0.055353	0.541533
O34	O	0.715191	-0.055336	0.682075
O35	O	0.473466	0.124205	0.778845
O36	O	0.473466	0.041480	0.861573
O37	O	0.593174	-0.041263	0.778853
O38	O	0.593174	0.041462	0.696125
C39	C	0.373347	0.000096	0.737450
C40	C	0.319051	0.000095	0.737440
C41	C	0.533346	0.000071	0.516314
C42	C	0.533352	0.000062	0.441252
C43	C	0.533308	0.221263	0.737496
C44	C	0.533302	0.296324	0.737502
C45	C	-0.017691	-0.043076	0.780684
C46	C	-0.068715	-0.043074	0.780692
O47	O	-0.095121	-0.079773	0.817443
N48	N	-0.094231	0.000106	0.737508
C49	C	-0.068726	0.043293	0.694320
O50	O	-0.095115	0.080022	0.657590
C51	C	-0.017706	0.043295	0.694318
C52	C	0.007812	0.000106	0.737498
C53	C	0.007827	-0.086261	0.823861
C54	C	0.058848	-0.086265	0.823853
C55	C	0.084351	-0.043083	0.780666
C56	C	0.058833	0.000103	0.737489
C57	C	0.007795	0.086487	0.651136
C58	C	0.058817	0.086486	0.651138
C59	C	0.084336	0.043296	0.694318
C60	C	0.135358	0.043281	0.694294
N61	N	0.160874	0.000101	0.737478
C62	C	0.135371	-0.043081	0.780664
C63	C	-0.175871	0.043287	0.694329
C64	C	-0.226886	0.043281	0.694326
C65	C	-0.226873	-0.043086	0.780699
C66	C	-0.175853	-0.043083	0.780697
C67	C	-0.150355	0.000107	0.737513
C68	C	0.242520	-0.043085	0.780642
C69	C	0.293547	-0.043087	0.780626
C70	C	0.293527	0.043282	0.694257
C71	C	0.242506	0.043281	0.694269
C72	C	0.217002	0.000096	0.737467
O73	O	0.161794	0.079964	0.657565
O74	O	0.161760	-0.079794	0.817397
C75	C	0.693308	0.000101	0.737507
C76	C	0.747603	0.000102	0.737516
C77	C	0.533346	-0.221066	0.737460
C78	C	0.533352	-0.296127	0.737454
C79	C	0.468048	0.522784	0.782588
C80	C	0.500669	0.545144	0.815287
C81	C	0.533320	0.433731	0.737487
C82	C	0.500694	0.545111	0.704810
C83	C	0.533332	0.566463	0.737472
C84	C	0.565942	0.455102	0.770232
C85	C	0.565957	0.455072	0.659711
C86	C	0.598626	0.477379	0.692391
C87	C	0.533311	0.357269	0.737497
C88	C	0.533346	0.642920	0.737463
C89	C	0.598606	-0.045025	0.214805
C90	C	0.565985	-0.077716	0.192435
C91	C	0.533334	0.000086	0.303846
C92	C	0.565960	0.032762	0.192475
C93	C	0.533322	0.000108	0.171114
C94	C	0.500712	-0.032650	0.282465
C95	C	0.500697	0.077870	0.282502
C96	C	0.468028	0.045199	0.260185
C97	C	0.533343	0.000071	0.380308
C98	C	0.533308	0.000122	0.094656
C99	C	0.533308	0.000125	0.958643
C100	C	0.533302	0.000134	1.033704
C101	C	0.373328	0.000123	0.958614
C102	C	0.319025	0.000131	1.033666
C103	C	0.373328	0.221260	0.737467
C104	C	0.319025	0.296321	0.737464
C105	C	0.373309	0.221287	0.958632
C106	C	0.319000	0.296357	1.033690
C107	C	0.693345	-0.221091	0.516324
C108	C	0.747654	-0.296160	0.441266
C109	C	0.693326	0.000074	0.516342
C110	C	0.747629	0.000066	0.441290
C111	C	0.693326	-0.221064	0.737489
C112	C	0.747629	-0.296124	0.737492
C113	C	0.293532	-0.043065	1.025720
C114	C	0.242516	-0.043073	1.096233
C115	C	0.216991	0.000119	1.174689
C116	C	0.242490	0.043315	1.182633
C117	C	0.293508	0.043319	1.112121
C118	C	0.293517	0.374769	0.780652
C119	C	0.242502	0.445303	0.780646
C120	C	0.216992	0.437387	0.737455
C121	C	0.242505	0.358930	0.694261
C122	C	0.293523	0.288398	0.694263
C123	C	0.293496	0.288429	1.112128
C124	C	0.242475	0.358957	1.182660
C125	C	0.216954	0.437414	1.174751
C126	C	0.242463	0.445340	1.096304
C127	C	0.293488	0.374812	1.025774
C128	C	0.773164	-0.288232	0.362828
C129	C	0.824201	-0.358761	0.292297
C130	C	0.849724	-0.437217	0.300206
C131	C	0.824212	-0.445144	0.378652
C132	C	0.773179	-0.374615	0.449182
C133	C	0.773128	0.043254	0.449236
C134	C	0.824157	0.043243	0.378724
C135	C	0.849684	0.000049	0.300267
C136	C	0.824183	-0.043145	0.292323
C137	C	0.773157	-0.043138	0.362835
C138	C	0.773122	-0.288181	0.780691
C139	C	0.824138	-0.358701	0.780711
C140	C	0.849663	-0.437164	0.737526
C141	C	0.824164	-0.445105	0.694325
C142	C	0.773146	-0.374586	0.694311
H143	H	0.314324	-0.078260	0.815788
H144	H	0.314282	0.381231	0.815824
H145	H	0.221701	0.078481	1.246522
H146	H	0.314259	0.078499	1.118602
H147	H	0.593575	-0.143488	0.153624
H148	H	-0.012975	0.121658	0.615975
Cl149	Cl	0.856261	-0.348777	0.193688
H150	H	0.175449	0.000110	1.232097
H151	H	0.221735	0.509179	0.815822
H152	H	0.593523	0.416260	0.593957
H153	H	-0.247651	0.078439	0.659154
Cl154	Cl	0.458136	0.179396	0.342423
H155	H	0.844912	0.078420	0.385208
H156	H	0.175449	0.494825	0.737460
H157	H	0.593556	0.060387	0.153681
H158	H	0.314268	0.224552	1.118584
Cl159	Cl	0.683814	-0.104004	0.186334
Cl160	Cl	0.913829	0.000051	0.211631
H161	H	0.221727	0.352496	0.659096
H162	H	0.473149	-0.060352	0.321152
H163	H	0.412792	0.083348	0.278785
Cl164	Cl	0.856278	-0.097439	0.193686
H165	H	0.593505	0.416406	0.797936
Cl166	Cl	0.856267	-0.543750	0.640030
H167	H	0.314314	-0.078247	0.961843
H168	H	0.752395	-0.381064	0.659130
Cl169	Cl	0.325580	0.189779	0.639969
H170	H	0.221710	0.352489	1.246528
Cl171	Cl	0.683902	0.448658	0.633512
Cl172	Cl	0.741044	-0.189551	0.834989
H173	H	0.752398	-0.078305	0.356354
H174	H	0.473079	0.583957	0.881056
Cl175	Cl	0.152807	0.526071	1.263426
H176	H	0.844894	-0.352219	0.815889
H177	H	0.221677	0.509229	1.089876
H178	H	0.314246	0.381279	0.961909
Cl179	Cl	0.913804	-0.525810	0.737549
H180	H	0.752386	-0.224355	0.356372
Cl181	Cl	0.458091	0.605015	0.662148
H182	H	0.891279	-0.494639	0.242769
Cl183	Cl	0.210464	-0.097374	0.834950
Cl184	Cl	0.741110	-0.384597	0.547788
Cl185	Cl	0.090918	-0.140559	0.878143
Cl186	Cl	0.741051	0.097558	0.547859
Cl187	Cl	-0.024221	-0.140561	0.878154
H188	H	0.079576	0.121656	0.615971
Cl189	Cl	-0.143780	-0.097378	0.834985
Cl190	Cl	-0.258946	-0.097369	0.834994
Cl191	Cl	0.210433	0.097566	0.639973
Cl192	Cl	-0.143816	0.097582	0.640028
Cl193	Cl	0.382840	0.551271	0.841549
Cl194	Cl	0.325597	0.097566	0.639970
Cl195	Cl	0.210468	-0.097378	1.086227
H196	H	0.845000	-0.509031	0.385082
