data_functionalizedCrystal
_audit_creation_method	'MofGen! by Chris Wilmer'
_symmetry_space_group_name_H-M	'P1'
_symmetry_Int_Tables_number	1
_symmetry_cell_setting	triclinic
loop_
_symmetry_equiv_pos_as_xyz
  x,y,z
_cell_length_a	10.686220
_cell_length_b	16.120484
_cell_length_c	10.685880
_cell_angle_alpha	97.443083
_cell_angle_beta	89.641569
_cell_angle_gamma	97.070967
loop_
_atom_site_label
_atom_site_type_symbol
_atom_site_fract_x
_atom_site_fract_y
_atom_site_fract_z
Zn1	Zn	1.953705	-0.262275	-0.583880
Zn2	Zn	2.287038	0.071058	-0.250547
Zn3	Zn	2.620372	0.404392	0.082786
Zn4	Zn	1.928247	-0.392927	-0.384842
Zn5	Zn	2.261580	-0.059593	-0.051509
Zn6	Zn	2.594913	0.273740	0.281825
Zn7	Zn	1.727713	-0.263987	-0.390343
Zn8	Zn	2.061047	0.069346	-0.057010
Zn9	Zn	2.394380	0.402679	0.276323
Zn10	Zn	1.733154	-0.414283	-0.612365
Zn11	Zn	2.066487	-0.080950	-0.279032
Zn12	Zn	2.399820	0.252384	0.054302
O13	O	1.835705	-0.333368	-0.492858
O14	O	2.169038	-0.000035	-0.159524
O15	O	2.502371	0.333299	0.173809
O16	O	2.126553	-0.269952	-0.543254
O17	O	2.459887	0.063381	-0.209921
O18	O	2.793220	0.396715	0.123412
O19	O	1.888714	-0.367602	-0.209356
O20	O	2.222048	-0.034268	0.123977
O21	O	2.555381	0.299065	0.457310
O22	O	1.766069	-0.146183	-0.406398
O23	O	2.099403	0.187150	-0.073065
O24	O	2.432736	0.520484	0.260269
O25	O	2.107849	-0.365941	-0.397021
O26	O	2.441183	-0.032608	-0.063688
O27	O	2.774516	0.300725	0.269645
O28	O	1.932104	-0.144925	-0.548589
O29	O	2.265438	0.188408	-0.215255
O30	O	2.598771	0.521742	0.118078
O31	O	1.741383	-0.272871	-0.213398
O32	O	2.074717	0.060463	0.119935
O33	O	2.408050	0.393796	0.453268
O34	O	1.552210	-0.293579	-0.434018
O35	O	1.885543	0.039755	-0.100685
O36	O	2.218876	0.373088	0.232648
O37	O	1.775341	-0.402340	-0.784802
O38	O	2.108675	-0.069006	-0.451468
O39	O	2.442008	0.264327	-0.118135
O40	O	1.556206	-0.404000	-0.597137
O41	O	1.889540	-0.070667	-0.263803
O42	O	2.222873	0.262667	0.069530
O43	O	1.937380	-0.290660	-0.763874
O44	O	2.270713	0.042673	-0.430541
O45	O	2.604046	0.376006	-0.097208
O46	O	1.893990	-0.513337	-0.424642
O47	O	2.227323	-0.180004	-0.091308
O48	O	2.560656	0.153330	0.242025
O49	O	1.750655	-0.529027	-0.591802
O50	O	2.083989	-0.195694	-0.258469
O51	O	2.417322	0.137639	0.074865
C52	C	1.508515	-0.351293	-0.519266
C53	C	1.841848	-0.017960	-0.185933
C54	C	2.175181	0.315373	0.147400
C55	C	1.368542	-0.358983	-0.530595
C56	C	1.701876	-0.025650	-0.197262
C57	C	2.035209	0.307683	0.136071
C58	C	1.820186	-0.551668	-0.510741
C59	C	2.153520	-0.218335	-0.177407
C60	C	2.486853	0.114999	0.155926
C61	C	1.813666	-0.645053	-0.518424
C62	C	2.146999	-0.311720	-0.185091
C63	C	2.480333	0.021613	0.148243
C64	C	1.801771	-0.816029	-0.532477
C65	C	2.135104	-0.482696	-0.199143
C66	C	2.468437	-0.149363	0.134190
C67	C	1.869866	-0.849855	-0.453241
C68	C	2.203199	-0.516521	-0.119908
C69	C	2.536533	-0.183188	0.213425
C70	C	1.863247	-0.944992	-0.461060
C71	C	2.196581	-0.611658	-0.127727
C72	C	2.529914	-0.278325	0.205606
C73	C	1.808388	-0.720884	-0.524659
C74	C	2.141721	-0.387551	-0.191326
C75	C	2.475054	-0.054217	0.142007
C76	C	2.164172	-0.315374	-0.466347
C77	C	2.497506	0.017960	-0.133013
C78	C	2.830839	0.351293	0.200320
C79	C	2.304146	-0.307705	-0.455049
C80	C	2.637479	0.025628	-0.121716
C81	C	2.970812	0.358961	0.211617
C82	C	1.859807	-0.348691	-0.821306
C83	C	2.193140	-0.015358	-0.487973
C84	C	2.526474	0.317976	-0.154639
C85	C	1.870078	-0.355221	-0.961271
C86	C	2.203411	-0.021888	-0.627938
C87	C	2.536745	0.311446	-0.294605
C88	C	1.851320	-0.114215	-0.474930
C89	C	2.184653	0.219118	-0.141596
C90	C	2.517987	0.552452	0.191737
C91	C	1.857974	-0.020825	-0.467290
C92	C	2.191307	0.312508	-0.133957
C93	C	2.524641	0.645842	0.199377
C94	C	1.811773	-0.318040	-0.165676
C95	C	2.145106	0.015293	0.167657
C96	C	2.478439	0.348627	0.500990
C97	C	1.801763	-0.311260	-0.025673
C98	C	2.135096	0.022073	0.307661
C99	C	2.468429	0.355407	0.640994
H100	H	1.356096	-0.257922	-0.381703
H101	H	1.689429	0.075412	-0.048370
H102	H	2.022763	0.408745	0.284964
H103	H	1.735407	-0.268630	-0.973733
H104	H	2.068740	0.064703	-0.640400
H105	H	2.402074	0.398036	-0.307066
N106	N	1.303375	-0.421435	-0.622628
N107	N	1.636708	-0.088101	-0.289295
N108	N	1.970042	0.245232	0.044039
N109	N	1.326901	-0.420606	-0.737222
N110	N	1.660234	-0.087273	-0.403889
N111	N	1.993568	0.246060	-0.070556
H112	H	1.280876	-0.464711	-0.802221
H113	H	1.614209	-0.131378	-0.468888
H114	H	1.947543	0.201956	-0.135554
H115	H	1.933134	-0.807363	-0.379533
H116	H	2.266467	-0.474030	-0.046199
H117	H	2.599801	-0.140697	0.287134
H118	H	1.738505	-0.858518	-0.606178
H119	H	2.071839	-0.525184	-0.272844
H120	H	2.405172	-0.191851	0.060489
N121	N	1.953327	-0.408716	-1.026402
N122	N	2.286660	-0.075383	-0.693069
N123	N	2.619994	0.257950	-0.359736
N124	N	1.938398	-0.486030	-1.018818
N125	N	2.271731	-0.152697	-0.685484
N126	N	2.605064	0.180636	-0.352151
H127	H	1.997193	-0.523811	-1.064813
H128	H	2.330527	-0.190478	-0.731480
H129	H	2.663860	0.142855	-0.398147
