data_functionalizedCrystal
_audit_creation_method	'MofGen! by Chris Wilmer'
_symmetry_space_group_name_H-M	'P1'
_symmetry_Int_Tables_number	1
_symmetry_cell_setting	triclinic
loop_
_symmetry_equiv_pos_as_xyz
  x,y,z
_cell_length_a	11.792241
_cell_length_b	15.500227
_cell_length_c	11.792254
_cell_angle_alpha	87.152438
_cell_angle_beta	84.196007
_cell_angle_gamma	92.859701
loop_
_atom_site_label
_atom_site_type_symbol
_atom_site_fract_x
_atom_site_fract_y
_atom_site_fract_z
O1	O	1.512157	0.071860	0.150336
O2	O	1.181818	0.071880	0.166368
O3	O	1.354996	0.071864	-0.006817
O4	O	1.338979	0.071877	0.323521
O5	O	1.344487	-0.072024	0.003651
O6	O	1.171309	-0.072007	0.176836
O7	O	1.501648	-0.072027	0.160804
Cu8	Cu	1.335519	-0.085155	0.169776
Cu9	Cu	1.347947	0.085008	0.157396
O10	O	1.328470	-0.072011	0.333989
C11	C	1.134273	-0.000061	0.170594
C12	C	1.008259	-0.000053	0.167579
N13	N	1.326786	-0.204840	0.178482
C14	C	0.777545	-0.000078	0.162038
C15	C	0.905931	-0.000065	0.165117
C16	C	1.400193	-0.250123	0.105125
C17	C	1.393599	-0.340695	0.111720
C18	C	1.313602	-0.385982	0.191678
C19	C	1.240187	-0.340692	0.265039
C20	C	1.246776	-0.250122	0.258437
C21	C	1.289863	-0.659447	0.215440
C22	C	1.283282	-0.750024	0.222038
C23	C	1.436693	-0.750021	0.068717
C24	C	1.443280	-0.659449	0.062128
C25	C	1.369861	-0.614166	0.135484
C26	C	1.306862	-0.478562	0.198424
C27	C	1.376596	-0.521589	0.128732
C28	C	1.549193	-0.000084	0.156577
C29	C	1.675207	-0.000086	0.159592
C30	C	1.348732	-0.000080	-0.043874
C31	C	1.345712	-0.000079	-0.169887
N32	N	1.356689	0.204692	0.148681
C33	C	1.343259	-0.000076	-0.272224
C34	C	1.340191	-0.000067	-0.400611
C35	C	1.334733	-0.000065	0.371046
C36	C	1.337754	-0.000061	0.497058
H37	H	1.453372	-0.377565	0.051986
H38	H	1.465339	-0.213257	0.040019
H39	H	1.218135	-0.786892	0.287155
H40	H	1.508420	-0.622578	-0.002981
H41	H	1.230084	-0.622585	0.275172
C42	C	1.166029	-0.200307	0.339134
C43	C	1.078073	-0.250118	0.427127
C44	C	0.997318	-0.200304	0.507822
C45	C	1.004519	-0.100680	0.500525
C46	C	1.092478	-0.050864	0.412528
C47	C	1.173233	-0.100677	0.331833
H48	H	1.072739	-0.323870	0.432532
H49	H	0.932205	-0.237182	0.572963
H50	H	0.944740	-0.063805	0.560260
H51	H	1.097812	0.022889	0.407123
H52	H	1.238346	-0.063799	0.266692
C53	C	1.517442	-0.799831	-0.011980
C54	C	1.510201	-0.899455	-0.004732
C55	C	1.590951	-0.949265	-0.085437
C56	C	1.678943	-0.899450	-0.173390
C57	C	1.686187	-0.799820	-0.180642
C58	C	1.605437	-0.750011	-0.099937
H59	H	1.445061	-0.936336	0.060380
H60	H	1.585588	-1.023017	-0.080068
H61	H	1.738719	-0.936322	-0.233133
H62	H	1.751327	-0.762939	-0.245753
H63	H	1.610800	-0.676258	-0.105305
H64	H	1.175046	-0.377570	0.330139
H65	H	1.441726	-0.484714	0.063626
H66	H	1.241729	-0.515442	0.263530
