data_functionalizedCrystal
_audit_creation_method	'MofGen! by Chris Wilmer'
_symmetry_space_group_name_H-M	'P1'
_symmetry_Int_Tables_number	1
_symmetry_cell_setting	triclinic
loop_
_symmetry_equiv_pos_as_xyz
  x,y,z
_cell_length_a	19.077269
_cell_length_b	16.959454
_cell_length_c	19.076919
_cell_angle_alpha	92.276329
_cell_angle_beta	85.330942
_cell_angle_gamma	92.274148
loop_
_atom_site_label
_atom_site_type_symbol
_atom_site_fract_x
_atom_site_fract_y
_atom_site_fract_z
Zn1	Zn	1.061663	0.378613	0.355298
Zn2	Zn	1.066320	0.505688	0.237426
Zn3	Zn	0.948520	0.368428	0.242165
Zn4	Zn	0.943751	0.505648	0.360009
O5	O	1.005064	0.439594	0.298725
O6	O	1.160927	0.399749	0.335707
O7	O	1.054639	0.483234	0.139407
O8	O	0.963575	0.259171	0.257183
O9	O	1.164349	0.493110	0.249108
O10	O	1.046701	0.266654	0.340302
O11	O	0.968091	0.382390	0.142888
O12	O	0.849241	0.382351	0.261752
O13	O	0.955448	0.493043	0.458032
O14	O	0.845738	0.483166	0.348332
O15	O	1.042077	0.399711	0.454571
O16	O	1.050015	0.616291	0.253676
O17	O	0.959964	0.616262	0.343737
C18	C	0.821911	0.431650	0.306068
C19	C	0.743557	0.428271	0.309226
C20	C	0.708528	0.475207	0.265554
C21	C	0.634905	0.472032	0.268531
C22	C	0.596314	0.421918	0.315176
C23	C	0.631349	0.374980	0.358852
C24	C	0.704970	0.378159	0.355878
C25	C	0.375940	0.407211	0.328915
C26	C	0.302314	0.404034	0.331883
C27	C	0.305876	0.501087	0.241563
C28	C	0.379498	0.504258	0.238591
C29	C	0.414526	0.457324	0.282269
N30	N	0.521060	0.418670	0.318218
N31	N	0.489779	0.460576	0.279230
C32	C	1.004996	0.644957	0.298718
C33	C	1.005030	0.732816	0.298737
C34	C	0.958210	1.104309	0.345623
C35	C	1.052051	1.104286	0.251912
C36	C	1.052030	1.021739	0.251905
C37	C	1.005098	0.980473	0.298757
C38	C	0.958186	1.021754	0.345616
C39	C	1.098937	0.980451	0.205043
C40	C	1.098917	0.897899	0.205033
C41	C	1.051988	0.856632	0.251889
C42	C	1.005075	0.897918	0.298750
C43	C	0.958142	0.856652	0.345602
C44	C	0.911232	0.897938	0.392468
C45	C	0.911257	0.980487	0.392472
C46	C	1.051963	0.774082	0.251885
C47	C	0.958119	0.774097	0.345596
C48	C	1.188931	0.447570	0.291353
C49	C	1.267285	0.450969	0.288212
C50	C	0.997711	0.447508	0.482595
C51	C	0.994578	0.450881	0.560950
C52	C	1.005139	1.233431	0.298750
C53	C	1.005142	1.145575	0.298771
C54	C	1.012428	0.431656	0.115568
C55	C	1.015698	0.428066	0.037208
C56	C	1.038207	0.403875	0.595960
C57	C	1.035254	0.407040	0.669583
C58	C	0.988675	0.457217	0.708194
C59	C	0.945042	0.504225	0.673179
C60	C	0.947991	0.501055	0.599557
C61	C	0.975014	0.471904	0.928572
C62	C	0.972069	0.475073	1.002198
C63	C	1.062281	0.377887	0.998597
C64	C	1.065229	0.374724	0.924974
C65	C	1.021593	0.421729	0.889965
N66	N	0.985658	0.460455	0.783448
N67	N	1.024608	0.418486	0.814713
H68	H	0.733490	0.339939	0.391439
H69	H	1.070783	0.368765	0.698084
C70	C	0.927010	0.523609	0.890072
N71	N	0.890850	0.562555	0.861071
H72	H	1.137114	0.864290	0.166874
C73	C	0.906496	0.728712	0.397146
N74	N	0.867616	0.694529	0.435976
C75	C	1.116462	0.319518	0.882507
N76	N	1.155051	0.277935	0.850521
C77	C	1.110269	0.326175	1.037113
N78	N	1.146411	0.287219	1.066123
C79	C	0.920825	0.530271	1.044669
N80	N	0.882230	0.571844	1.076658
C81	C	0.859607	0.852534	0.444003
N82	N	0.820726	0.818334	0.482818
C83	C	0.267339	0.552717	0.193525
N84	N	0.238313	0.591609	0.157343
H85	H	0.873064	1.014109	0.430626
C86	C	1.089446	0.348675	0.553494
N87	N	1.128039	0.307095	0.521511
C88	C	0.899997	0.552767	0.561047
N89	N	0.863845	0.591717	0.532041
C90	C	0.750971	0.530337	0.214241
N91	N	0.782938	0.571865	0.175592
C92	C	0.596377	0.523656	0.220480
N93	N	0.567357	0.562538	0.184284
C94	C	0.421943	0.559388	0.187278
N95	N	0.453913	0.600910	0.148626
H96	H	0.270895	0.363218	0.369865
C97	C	0.893798	0.559412	0.715654
N98	N	0.855200	0.600979	0.747646
H99	H	0.920018	1.137927	0.383781
C100	C	0.588896	0.319843	0.410152
N101	N	0.556921	0.278306	0.448788
C102	C	0.414462	0.355571	0.376954
N103	N	0.443479	0.316670	0.413137
H104	H	1.137141	1.014055	0.166893
C105	C	1.103562	0.728672	0.200337
N106	N	1.142431	0.694471	0.161511
C107	C	1.103667	1.149681	0.200371
N108	N	1.142546	1.183875	0.161548
