data_functionalizedCrystal
_audit_creation_method	'MofGen! by Chris Wilmer'
_symmetry_space_group_name_H-M	'P1'
_symmetry_Int_Tables_number	1
_symmetry_cell_setting	triclinic
loop_
_symmetry_equiv_pos_as_xyz
  x,y,z
_cell_length_a	31.640172
_cell_length_b	31.640172
_cell_length_c	14.395555
_cell_angle_alpha	59.994181
_cell_angle_beta	89.995623
_cell_angle_gamma	59.994337
loop_
_atom_site_label
_atom_site_type_symbol
_atom_site_fract_x
_atom_site_fract_y
_atom_site_fract_z
Zr1	Zr	0.407158	0.462625	-0.122113
O2	O	0.339666	0.550812	-0.270464
O3	O	0.427851	0.374442	-0.076612
O4	O	0.427848	0.462620	-0.270439
O5	O	0.339669	0.462636	0.076229
O6	O	0.497404	0.462613	-0.270445
O7	O	0.339669	0.462633	-0.076638
O8	O	0.497409	0.304878	0.076275
O9	O	0.339663	0.620372	-0.270490
O10	O	0.488582	0.410707	-0.057239
O11	O	0.436672	0.410714	0.056848
O12	O	0.436669	0.514533	-0.171357
O13	O	0.384759	0.514541	-0.057269
Zr14	Zr	0.518092	0.462619	0.121683
Zr15	Zr	0.518092	0.462614	-0.122123
Zr16	Zr	0.407158	0.462630	0.121693
Zr17	Zr	0.407154	0.573566	-0.122155
Zr18	Zr	0.518096	0.351679	0.121725
O19	O	0.497399	0.550803	0.076182
O20	O	0.497400	0.550796	-0.270478
O21	O	0.339665	0.550819	0.076196
O22	O	0.585584	0.374432	0.270034
O23	O	0.585585	0.374425	-0.076626
O24	O	0.427850	0.374449	0.270048
O25	O	0.585581	0.462608	-0.076660
O26	O	0.497402	0.462624	0.270008
O27	O	0.427846	0.462631	0.270014
O28	O	0.585581	0.462611	0.076208
O29	O	0.427841	0.620363	-0.270498
O30	O	0.497409	0.304881	0.270068
O31	O	0.585587	0.304872	0.270060
O32	O	0.585587	0.304868	0.076267
O33	O	0.339663	0.620376	-0.076697
O34	O	0.427841	0.620367	-0.076705
O35	O	0.488581	0.410711	0.170927
O36	O	0.540491	0.410704	0.056839
O37	O	0.488578	0.514530	-0.057279
O38	O	0.436668	0.514538	0.056809
C39	C	0.462631	0.323853	-0.000163
C40	C	0.462633	0.276756	-0.000145
C41	C	0.424306	0.023084	-0.084463
C42	C	0.424302	-0.153897	-0.084494
O43	O	0.391724	-0.144189	-0.156157
N44	N	0.462622	-0.214352	-0.000266
C45	C	0.500947	-0.230561	0.083971
O46	O	0.533543	-0.286042	0.155604
C47	C	0.500953	-0.053580	0.083996
C48	C	0.462627	0.006875	-0.000230
C49	C	0.385984	0.083535	-0.168683
C50	C	0.385983	0.127777	-0.168671
C51	C	0.424305	0.111568	-0.084438
C52	C	0.462627	0.051117	-0.000218
C53	C	0.539280	-0.069789	0.168228
C54	C	0.539279	-0.025538	0.168225
C55	C	0.500953	0.034917	0.083999
C56	C	0.500949	0.079150	0.084027
N57	N	0.462629	0.139604	-0.000200
C58	C	0.424307	0.155813	-0.084433
C59	C	0.500941	-0.323475	0.083952
C60	C	0.500939	-0.367720	0.083947
C61	C	0.424294	-0.291054	-0.084519
C62	C	0.424294	-0.246808	-0.084508
C63	C	0.462621	-0.263021	-0.000275
C64	C	0.424309	0.248722	-0.084400
C65	C	0.424311	0.292965	-0.084378
C66	C	0.500957	0.216295	0.084084
C67	C	0.500954	0.172056	0.084066
C68	C	0.462628	0.188274	-0.000186
O69	O	0.533512	0.069486	0.155645
O70	O	0.391722	0.211297	-0.156070
C71	C	0.424306	-0.021158	-0.084475
C72	C	0.462628	-0.081610	-0.000255
C73	C	0.500950	-0.097819	0.083978
C74	C	0.462626	-0.125855	-0.000260
C75	C	0.424304	-0.109646	-0.084492
C76	C	0.385984	-0.049192	-0.168720
C77	C	0.385984	-0.004949	-0.168707
C78	C	0.539269	-0.158273	0.168206
C79	C	0.539266	-0.202513	0.168187
C80	C	0.500944	-0.186303	0.083955
C81	C	0.323863	0.462637	-0.000203
C82	C	0.276769	0.462641	-0.000199
C83	C	-0.015236	0.462610	-0.084429
C84	C	-0.192223	0.462602	-0.084437
O85	O	-0.215095	0.462574	-0.156032
N86	N	-0.214354	0.462605	-0.000222
C87	C	-0.192233	0.462606	0.084005
O88	O	-0.215115	0.462602	0.155641
C89	C	-0.015246	0.462609	0.084017
C90	C	0.006880	0.462612	-0.000210
C91	C	0.006890	0.462612	-0.168648
C92	C	0.051132	0.462617	-0.168649
C93	C	0.073248	0.462620	-0.084430
C94	C	0.051122	0.462618	-0.000211
C95	C	0.006876	0.462606	0.168248
C96	C	0.051127	0.462605	0.168245
C97	C	0.073252	0.462608	0.084018
C98	C	0.117481	0.462625	0.084007
N99	N	0.139612	0.462622	-0.000207
C100	C	0.117496	0.462620	-0.084426
C101	C	-0.285155	0.462606	0.083991
C102	C	-0.329402	0.462606	0.083987
C103	C	-0.329388	0.462601	-0.084454
C104	C	-0.285142	0.462605	-0.084454
C105	C	-0.263024	0.462603	-0.000224
C106	C	0.210407	0.462631	-0.084421
C107	C	0.254653	0.462639	-0.084417
C108	C	0.254636	0.462641	0.084026
C109	C	0.210393	0.462636	0.084019
C110	C	0.188281	0.462629	-0.000210
O111	O	0.140384	0.462647	0.155572
O112	O	0.140392	0.462610	-0.156037
C113	C	-0.059479	0.462605	-0.084428
C114	C	-0.081605	0.462602	-0.000209
C115	C	-0.059488	0.462605	0.084010
C116	C	-0.125852	0.462602	-0.000213
C117	C	-0.147968	0.462600	-0.084431
C118	C	-0.125837	0.462597	-0.168646
C119	C	-0.081595	0.462602	-0.168647
C120	C	-0.081619	0.462608	0.168224
C121	C	-0.125862	0.462603	0.168217
C122	C	-0.147978	0.462601	0.083999
C123	C	0.601387	0.462608	-0.000227
C124	C	0.648481	0.462603	-0.000232
C125	C	0.462626	0.462616	-0.305179
C126	C	0.462626	0.462614	-0.408681
C127	C	0.462619	0.601392	-0.000267
C128	C	0.462617	0.648489	-0.000285
C129	C	0.490934	0.406003	-0.407047
C130	C	0.442123	0.434307	-0.500075
C131	C	0.511425	0.434313	-0.500081
C132	C	0.413787	0.490918	-0.500345
C133	C	0.483124	0.490916	-0.500337
C134	C	0.434284	0.519261	-0.593382
C135	C	0.462624	0.462629	0.304748
C136	C	0.462624	0.462631	0.408250
C137	C	0.601393	0.323839	-0.000175
C138	C	0.648489	0.276737	-0.000162
C139	C	0.462630	0.323859	0.304801
C140	C	0.462631	0.276764	0.408320
C141	C	0.601391	0.323845	0.304788
C142	C	0.648488	0.276745	0.408304
C143	C	0.323859	0.601400	-0.305219
C144	C	0.276762	0.648499	-0.408734
C145	C	0.323858	0.601406	-0.000255
C146	C	0.276761	0.648508	-0.000269
C147	C	0.462620	0.601385	-0.305231
C148	C	0.462619	0.648480	-0.408751
C149	C	0.643510	0.254619	-0.059713
C150	C	0.687758	0.210368	-0.059723
C151	C	0.736984	0.188232	-0.000174
C152	C	0.741962	0.210355	0.059379
C153	C	0.697715	0.254608	0.059382
C154	C	0.489728	0.254646	0.516492
C155	C	0.489727	0.210402	0.613769
C156	C	0.462633	0.188273	0.602872
C157	C	0.435533	0.210395	0.494688
C158	C	0.435531	0.254642	0.397414
C159	C	0.697705	0.254623	0.397363
C160	C	0.741961	0.210374	0.494618
C161	C	0.736998	0.188245	0.602812
C162	C	0.687776	0.210372	0.613750
C163	C	0.643521	0.254623	0.516497
C164	C	0.227545	0.670627	-0.397793
C165	C	0.183289	0.714890	-0.495048
C166	C	0.188252	0.737021	-0.603242
C167	C	0.237474	0.714891	-0.614180
C168	C	0.281729	0.670632	-0.516927
C169	C	0.281740	0.670630	0.059273
C170	C	0.237492	0.714894	0.059256
C171	C	0.188266	0.737031	-0.000296
C172	C	0.183288	0.714906	-0.059845
C173	C	0.227535	0.670647	-0.059834
C174	C	0.489718	0.670595	-0.397817
C175	C	0.489727	0.714840	-0.495075
C176	C	0.462632	0.736972	-0.603266
C177	C	0.435532	0.714853	-0.614198
C178	C	0.435527	0.670606	-0.516941
H179	H	0.393101	0.261936	-0.153008
H180	H	0.511797	0.192395	0.701847
H181	H	0.143202	0.732937	-0.108331
H182	H	0.773038	0.152212	0.681992
O183	O	0.516051	0.276097	0.527297
C184	C	0.539969	0.247074	0.643640
H185	H	0.518718	0.228838	0.695506
H186	H	0.538499	0.280276	0.657177
H187	H	0.582032	0.208641	0.672317
O188	O	0.145276	0.780085	-0.697744
C189	C	0.145351	0.831279	-0.762947
H190	H	0.170376	0.831228	-0.705871
H191	H	0.104069	0.873104	-0.802343
H192	H	0.161667	0.830902	-0.833351
O193	O	0.409150	0.649215	-0.527773
C194	C	0.385249	0.678233	-0.644124
H195	H	0.379895	0.723080	-0.695985
H196	H	0.345882	0.685877	-0.657700
H197	H	0.410642	0.649208	-0.672770
H198	H	0.241509	0.732916	-0.702283
H199	H	0.354775	0.044273	-0.237292
H200	H	0.603447	0.272629	0.525421
H201	H	-0.063583	0.462604	-0.237232
H202	H	-0.063615	0.462609	0.236807
H203	H	0.683742	0.192348	0.701855
H204	H	0.321803	0.652616	-0.525849
O205	O	0.222624	0.649224	-0.292787
C206	C	0.169690	0.678247	-0.304009
H207	H	0.146093	0.723099	-0.390811
H208	H	0.163525	0.685882	-0.234271
H209	H	0.156647	0.649231	-0.296017
H210	H	0.782037	0.192362	0.485691
H211	H	0.462639	0.152245	0.682088
H212	H	0.393099	0.342191	-0.152963
O213	O	0.516079	0.648997	-0.292667
C214	C	0.554117	0.586989	-0.232843
H215	H	0.542724	0.568223	-0.269968
H216	H	0.557401	0.564062	-0.139243
H217	H	0.592984	0.578541	-0.240942
H218	H	0.143214	0.732901	-0.486119
O219	O	0.329516	0.649215	0.117146
C220	C	0.324411	0.678230	0.169710
H221	H	0.284924	0.723088	0.122980
H222	H	0.356148	0.685851	0.166500
H223	H	0.328035	0.649215	0.262151
H224	H	0.223474	0.652636	-0.108317
O225	O	0.516056	0.736279	-0.484238
C226	C	0.539971	0.707249	-0.367889
H227	H	0.518711	0.689022	-0.316040
H228	H	0.538507	0.740444	-0.354337
H229	H	0.582031	0.668809	-0.339205
H230	H	0.413474	0.192371	0.485832
O231	O	0.242270	0.736362	0.117202
C232	C	0.218307	0.725542	0.200805
H233	H	0.188140	0.720053	0.175763
H234	H	0.198670	0.764843	0.208023
H235	H	0.248730	0.682981	0.286230
H236	H	0.532157	0.122830	0.152661
H237	H	0.701776	0.272611	0.107883
O238	O	0.779980	0.145315	-0.000301
C239	C	0.809639	0.166920	-0.047635
H240	H	0.783667	0.217872	-0.104624
H241	H	0.827561	0.149534	-0.100153
H242	H	0.841674	0.150826	0.023593
H243	H	0.152241	0.773070	-0.000296
O244	O	0.421516	0.405673	-0.501038
C245	C	0.451469	0.345999	-0.403926
H246	H	0.492200	0.331992	-0.371153
H247	H	0.453576	0.315605	-0.427197
H248	H	0.432852	0.342147	-0.334903
O249	O	0.462673	0.779974	-0.697619
C250	C	0.492414	0.794733	-0.664754
H251	H	0.494445	0.782537	-0.574982
H252	H	0.473656	0.844748	-0.726200
H253	H	0.533190	0.768849	-0.666506
H254	H	0.410310	0.567170	-0.673026
O255	O	0.409205	0.276035	0.292423
C256	C	0.385285	0.247021	0.303679
H257	H	0.406541	0.202173	0.390489
H258	H	0.386748	0.239379	0.233954
H259	H	0.343226	0.276047	0.295696
H260	H	0.354779	0.177000	-0.237265
O261	O	0.519378	0.348925	-0.311790
C262	C	0.487762	0.339694	-0.246452
H263	H	0.453454	0.384499	-0.268511
H264	H	0.511212	0.309461	-0.152161
H265	H	0.473057	0.317659	-0.265848
O266	O	0.702441	0.276163	0.292186
C267	C	0.652831	0.319977	0.208676
H268	H	0.623500	0.312711	0.246573
H269	H	0.653324	0.316384	0.133683
H270	H	0.641553	0.366263	0.178245
O271	O	0.409219	0.736443	-0.719383
C272	C	0.415047	0.780229	-0.802867
H273	H	0.425033	0.799567	-0.764948
H274	H	0.377333	0.817472	-0.877873
H275	H	0.447488	0.759058	-0.833287
H276	H	0.354777	0.096744	-0.237281
H277	H	0.372498	0.514829	-0.499529
H278	H	0.782048	0.192326	0.107862
H279	H	0.393091	-0.277862	-0.153105
O280	O	0.387043	-0.188113	-0.166442
C281	C	0.353213	-0.183303	-0.240763
H282	H	0.373860	-0.226082	-0.236746
H283	H	0.340842	-0.143713	-0.331395
H284	H	0.317582	-0.176222	-0.214248
H285	H	0.532153	-0.336686	0.152549
O286	O	0.538216	-0.426416	0.165827
C287	C	0.572030	-0.431226	0.240183
H288	H	0.570203	-0.388447	0.194802
H289	H	0.613265	-0.470816	0.267375
H290	H	0.559965	-0.438305	0.318495
H291	H	-0.143876	0.462606	0.236804
H292	H	0.570489	-0.119008	0.236813
H293	H	0.570490	-0.038746	0.236819
O294	O	0.538139	0.200527	0.166043
C295	C	0.535724	0.166381	0.273876
H296	H	0.495310	0.176637	0.264151
H297	H	0.544464	0.178097	0.331069
H298	H	0.565444	0.116799	0.313603
O299	O	0.348732	-0.033512	-0.250386
C300	C	0.320691	-0.056802	-0.198819
H301	H	0.345392	-0.096717	-0.106834
H302	H	0.310245	-0.071685	-0.247196
H303	H	0.283762	-0.020840	-0.200731
H304	H	0.570475	-0.251738	0.236785
O305	O	0.682888	0.188824	-0.117419
C306	C	0.655583	0.163243	-0.073614
H307	H	0.659288	0.149955	0.017167
H308	H	0.672386	0.121921	-0.073763
H309	H	0.612998	0.197166	-0.128824
H310	H	0.272665	0.462643	-0.153009
O311	O	0.576520	-0.174128	0.250149
C312	C	0.610346	-0.236974	0.324460
H313	H	0.589696	-0.257270	0.320426
H314	H	0.622715	-0.251006	0.415097
H315	H	0.645978	-0.253466	0.297950
H316	H	0.069145	0.462617	-0.237230
O317	O	0.188983	0.462653	-0.166355
C318	C	0.218014	0.462641	-0.240663
H319	H	0.240138	0.481467	-0.236646
H320	H	0.190803	0.491507	-0.331297
H321	H	0.246577	0.414943	-0.214134
H322	H	-0.267130	0.462607	-0.153038
O323	O	-0.014539	0.462638	-0.250579
C324	C	0.014495	0.462624	-0.324882
H325	H	0.036622	0.481444	-0.320856
H326	H	-0.012715	0.491493	-0.415520
H327	H	0.043055	0.414926	-0.298357
H328	H	-0.347403	0.462600	-0.153029
H329	H	-0.347419	0.462613	0.152562
O330	O	0.503910	0.519345	-0.499125
C331	C	0.555383	0.489342	-0.497677
H332	H	0.571232	0.441036	-0.461991
H333	H	0.580130	0.490149	-0.441878
H334	H	0.556411	0.512578	-0.587988
H335	H	-0.267150	0.462604	0.152583
O336	O	-0.014599	0.462678	0.250045
C337	C	-0.029546	0.514175	0.244678
H338	H	-0.006011	0.531349	0.201843
H339	H	-0.022232	0.502588	0.334458
H340	H	-0.072482	0.550231	0.193396
O341	O	0.072618	0.462687	0.249915
C342	C	0.072446	0.514191	0.198357
H343	H	0.070493	0.531358	0.106365
H344	H	0.109349	0.502615	0.246727
H345	H	0.037359	0.550247	0.200288
H346	H	0.272649	0.462645	0.152594
O347	O	0.188900	0.462719	0.165798
C348	C	0.173941	0.514223	0.160416
H349	H	0.197479	0.531397	0.117596
H350	H	0.181241	0.502645	0.250191
H351	H	0.131007	0.550275	0.109112
O352	O	-0.147291	0.462487	-0.250315
C353	C	-0.147143	0.410998	-0.198740
H354	H	-0.115811	0.375012	-0.111393
H355	H	-0.139000	0.393708	-0.254224
H356	H	-0.186498	0.422637	-0.188898
H357	H	0.552697	0.410375	-0.500974
H358	H	0.603432	0.272641	-0.108219
