data_functionalizedCrystal
_audit_creation_method	'MofGen! by Chris Wilmer'
_symmetry_space_group_name_H-M	'P1'
_symmetry_Int_Tables_number	1
_symmetry_cell_setting	triclinic
loop_
_symmetry_equiv_pos_as_xyz
  x,y,z
_cell_length_a	12.759401
_cell_length_b	12.759400
_cell_length_c	12.759393
_cell_angle_alpha	89.968385
_cell_angle_beta	89.980163
_cell_angle_gamma	90.016209
loop_
_atom_site_label
_atom_site_type_symbol
_atom_site_fract_x
_atom_site_fract_y
_atom_site_fract_z
Zn1	Zn	1.606255	-0.418161	-0.594020
Zn2	Zn	2.106255	0.081839	-0.094020
Zn3	Zn	1.606150	-0.593880	-0.418340
Zn4	Zn	2.106150	-0.093880	0.081660
Zn5	Zn	1.430557	-0.418220	-0.418355
Zn6	Zn	1.930557	0.081780	0.081645
Zn7	Zn	1.430546	-0.593803	-0.593978
Zn8	Zn	1.930546	-0.093803	-0.093978
O9	O	1.518377	-0.506016	-0.506173
O10	O	2.018377	-0.006016	-0.006173
O11	O	1.753262	-0.441478	-0.570727
O12	O	2.253262	0.058522	-0.070727
O13	O	1.582818	-0.570635	-0.271321
O14	O	2.082818	-0.070635	0.228679
O15	O	1.453913	-0.271191	-0.441682
O16	O	1.953913	0.228809	0.058318
O17	O	1.753185	-0.570578	-0.441656
O18	O	2.253185	-0.070578	0.058344
O19	O	1.582997	-0.271148	-0.570742
O20	O	2.082997	0.228852	-0.070742
O21	O	1.453811	-0.441579	-0.271332
O22	O	1.953811	0.058421	0.228668
O23	O	1.283535	-0.441505	-0.441640
O24	O	1.783535	0.058495	0.058360
O25	O	1.453893	-0.570447	-0.741004
O26	O	1.953893	-0.070447	-0.241004
O27	O	1.283526	-0.570504	-0.570669
O28	O	1.783526	-0.070504	-0.070669
O29	O	1.582986	-0.441403	-0.741036
O30	O	2.082986	0.058597	-0.241036
O31	O	1.582806	-0.740891	-0.441615
O32	O	2.082806	-0.240891	0.058385
O33	O	1.453791	-0.740834	-0.570655
O34	O	1.953791	-0.240834	-0.070655
C35	C	1.245410	-0.506003	-0.506152
C36	C	1.745410	-0.006003	-0.006152
C37	C	1.128633	-0.506023	-0.506168
C38	C	1.628633	-0.006023	-0.006168
C39	C	1.073794	-0.573296	-0.573248
C40	C	1.573794	-0.073296	-0.073248
C41	C	0.964070	-0.573300	-0.573269
C42	C	1.464070	-0.073300	-0.073269
C43	C	0.964033	-0.438756	-0.439122
C44	C	1.464033	0.061244	0.060878
C45	C	1.073755	-0.438747	-0.439107
C46	C	1.573755	0.061253	0.060893
C47	C	1.518315	-0.778984	-0.506151
C48	C	2.018315	-0.278984	-0.006151
C49	C	1.518384	-0.895760	-0.506177
C50	C	2.018384	-0.395760	-0.006177
C51	C	1.585637	-0.950617	-0.439060
C52	C	2.085637	-0.450617	0.060940
C53	C	1.585701	-1.060341	-0.439093
C54	C	2.085701	-0.560341	0.060907
C55	C	1.451251	-1.060342	-0.573362
C56	C	1.951251	-0.560342	-0.073362
C57	C	1.451193	-0.950620	-0.573334
C58	C	1.951193	-0.450620	-0.073334
C59	C	1.652828	-0.895757	-0.371904
C60	C	2.152828	-0.395757	0.128096
C61	C	1.720086	-0.950613	-0.304781
C62	C	2.220086	-0.450613	0.195219
C63	C	1.720150	-1.060338	-0.304813
C64	C	2.220150	-0.560338	0.195187
C65	C	1.652957	-1.115205	-0.371969
C66	C	2.152957	-0.615205	0.128031
C67	C	1.792410	-0.506030	-0.506195
C68	C	2.292410	-0.006030	-0.006195
C69	C	1.909187	-0.506036	-0.506204
C70	C	2.409187	-0.006036	-0.006204
C71	C	1.518450	-0.505910	-0.780207
C72	C	2.018450	-0.005910	-0.280207
C73	C	1.518482	-0.505865	-0.896984
C74	C	2.018482	-0.005865	-0.396984
C75	C	1.518468	-0.231983	-0.506218
C76	C	2.018468	0.268017	-0.006218
C77	C	1.518507	-0.115206	-0.506238
C78	C	2.018507	0.384794	-0.006238
C79	C	1.451332	-0.438653	-0.951851
C80	C	1.951332	0.061347	-0.451851
C81	C	1.451356	-0.438620	-1.061575
C82	C	1.951356	0.061380	-0.561575
C83	C	1.585689	-0.573015	-1.061555
C84	C	2.085689	-0.073015	-0.561555
C85	C	1.585659	-0.573052	-0.951833
C86	C	2.085659	-0.073052	-0.451833
C87	C	1.518364	-0.506046	-0.233206
C88	C	2.018364	-0.006046	0.266794
C89	C	1.518537	-0.505796	-0.116430
C90	C	2.018537	-0.005796	0.383570
H91	H	1.118472	-0.628073	-0.627857
H92	H	1.618472	-0.128073	-0.127857
C93	C	1.659552	-0.646975	-0.891475
C94	C	2.159552	-0.146975	-0.391475
N95	N	1.715211	-0.702646	-0.846014
N96	N	2.215211	-0.202646	-0.346014
C97	C	1.377426	-0.364754	-0.891521
C98	C	1.877426	0.135246	-0.391521
N99	N	1.321755	-0.309094	-0.846083
N100	N	1.821755	0.190906	-0.346083
H101	H	1.396675	-0.383891	-1.106243
H102	H	1.896675	0.116109	-0.606243
H103	H	1.640383	-0.627715	-1.106226
H104	H	2.140383	-0.127715	-0.606226
H105	H	0.919425	-0.628078	-0.627893
H106	H	1.419425	-0.128078	-0.127893
H107	H	1.774922	-1.104999	-0.250166
H108	H	2.274922	-0.604999	0.249834
C109	C	0.903658	-0.364762	-0.365352
C110	C	1.403658	0.135238	0.134648
N111	N	0.858184	-0.309030	-0.309785
N112	N	1.358184	0.190970	0.190215
C113	C	1.793996	-0.890257	-0.230916
C114	C	2.293996	-0.390257	0.269084
N115	N	1.849666	-0.844798	-0.175279
N116	N	2.349666	-0.344798	0.324721
H117	H	1.118406	-0.383959	-0.384482
H118	H	1.618406	0.116041	0.115518
C119	C	1.377334	-1.120701	-0.647217
C120	C	1.877334	-0.620701	-0.147217
N121	N	1.321654	-1.166162	-0.702842
N122	N	1.821654	-0.666162	-0.202842
H123	H	1.652780	-0.806414	-0.371867
H124	H	2.152780	-0.306414	0.128133
H125	H	1.653023	-1.204550	-0.371998
H126	H	2.153023	-0.704550	0.128002
C127	C	1.377195	-0.890274	-0.647150
C128	C	1.877195	-0.390274	-0.147150
N129	N	1.321456	-0.844822	-0.702748
N130	N	1.821456	-0.344822	-0.202748
