data_functionalizedCrystal
_audit_creation_method	'MofGen! by Chris Wilmer'
_symmetry_space_group_name_H-M	'P1'
_symmetry_Int_Tables_number	1
_symmetry_cell_setting	triclinic
loop_
_symmetry_equiv_pos_as_xyz
  x,y,z
_cell_length_a	16.120530
_cell_length_b	25.639239
_cell_length_c	25.639234
_cell_angle_alpha	89.975416
_cell_angle_beta	87.085087
_cell_angle_gamma	87.134054
loop_
_atom_site_label
_atom_site_type_symbol
_atom_site_fract_x
_atom_site_fract_y
_atom_site_fract_z
Zn1	Zn	1.274427	-0.248770	-0.336096
Zn2	Zn	1.274294	-0.336194	-0.248656
Zn3	Zn	1.135016	-0.244339	-0.244246
Zn4	Zn	1.134940	-0.331735	-0.331634
O5	O	1.204669	-0.290259	-0.290158
O6	O	1.391074	-0.264088	-0.328210
O7	O	1.255794	-0.324021	-0.174905
O8	O	1.153597	-0.171764	-0.256452
O9	O	1.390975	-0.328318	-0.263969
O10	O	1.256022	-0.175020	-0.323934
O11	O	1.153467	-0.256535	-0.171665
O12	O	1.018342	-0.252211	-0.252125
O13	O	1.153468	-0.320718	-0.405392
O14	O	1.018286	-0.316420	-0.316328
O15	O	1.255948	-0.259764	-0.408670
O16	O	1.255720	-0.408765	-0.259642
O17	O	1.153338	-0.405489	-0.320605
C18	C	0.988064	-0.283351	-0.283264
C19	C	0.895400	-0.280409	-0.280327
C20	C	0.725741	-0.275024	-0.274969
C21	C	0.684438	-0.305534	-0.305385
C22	C	0.590034	-0.302538	-0.302404
C23	C	0.820153	-0.278019	-0.277950
C24	C	1.204529	-0.426098	-0.290130
C25	C	1.204545	-0.484212	-0.290137
C26	C	1.258119	-0.846277	-0.258476
C27	C	1.258151	-0.900882	-0.258484
O28	O	1.303556	-0.930561	-0.231533
N29	N	1.204816	-0.926503	-0.290197
C30	C	1.151451	-0.897516	-0.321909
O31	O	1.106088	-0.924323	-0.348884
C32	C	1.151423	-0.842912	-0.321903
C33	C	1.204756	-0.817294	-0.290184
C34	C	1.311448	-0.820659	-0.226760
C35	C	1.311415	-0.766057	-0.226751
C36	C	1.258052	-0.737074	-0.258459
C37	C	1.204722	-0.762692	-0.290175
C38	C	1.098063	-0.813926	-0.353617
C39	C	1.098040	-0.759318	-0.353609
C40	C	1.151373	-0.733700	-0.321889
C41	C	1.151326	-0.679107	-0.321874
N42	N	1.204661	-0.653486	-0.290161
C43	C	1.258024	-0.682470	-0.258453
C44	C	1.151514	-1.012189	-0.321919
C45	C	1.151536	-1.066792	-0.321922
C46	C	1.258238	-1.070154	-0.258498
C47	C	1.258211	-1.015550	-0.258492
C48	C	1.204849	-0.986568	-0.290205
C49	C	1.257949	-0.567802	-0.258437
C50	C	1.257908	-0.513195	-0.258430
C51	C	1.151210	-0.509838	-0.321856
C52	C	1.151247	-0.564440	-0.321861
C53	C	1.204624	-0.593421	-0.290150
O54	O	1.105947	-0.649394	-0.348813
O55	O	1.303387	-0.655656	-0.231487
C56	C	1.422120	-0.297195	-0.297079
C57	C	1.514785	-0.300150	-0.300029
C58	C	1.204715	-0.290238	-0.426532
C59	C	1.204734	-0.290229	-0.484647
C60	C	1.204833	-0.153892	-0.290199
C61	C	1.204902	-0.095780	-0.290216
C62	C	1.258037	-0.325326	-0.737521
C63	C	1.258028	-0.325337	-0.682916
O64	O	1.303310	-0.355234	-0.656107
N65	N	1.204752	-0.290204	-0.653922
C66	C	1.151475	-0.255062	-0.679534
O67	O	1.106158	-0.225180	-0.649858
C68	C	1.151480	-0.255054	-0.734138
C69	C	1.204766	-0.290185	-0.763130
C70	C	1.311318	-0.360455	-0.766513
C71	C	1.311328	-0.360444	-0.821114
C72	C	1.258057	-0.325303	-0.846723
C73	C	1.204776	-0.290174	-0.817731
C74	C	1.098199	-0.219914	-0.759749
C75	C	1.098208	-0.219910	-0.814356
C76	C	1.151494	-0.255042	-0.843348
C77	C	1.151514	-0.255022	-0.897940
N78	N	1.204790	-0.290155	-0.926935
C79	C	1.258062	-0.325295	-0.901326
C80	C	1.151467	-0.255081	-0.564863
C81	C	1.151465	-0.255086	-0.510261
C82	C	1.258018	-0.325362	-0.513647
C83	C	1.258023	-0.325354	-0.568250
C84	C	1.204743	-0.290214	-0.593858
C85	C	1.258079	-0.325269	-1.015992
C86	C	1.258086	-0.325252	-1.070598
C87	C	1.151530	-0.254979	-1.067207
C88	C	1.151526	-0.254993	-1.012606
C89	C	1.204803	-0.290142	-0.987000
O90	O	1.106253	-0.225141	-0.924785
O91	O	1.303364	-0.355177	-0.931009
C92	C	1.204672	-0.290245	-0.154316
C93	C	1.204815	-0.290112	-0.096206
H94	H	0.690203	-0.246656	-0.246693
H95	H	1.108160	-0.226367	-1.088067
H96	H	1.054629	-0.834774	-0.379444
H97	H	1.108053	-0.988593	-0.347742
C98	C	1.316581	-0.485017	-0.223538
C99	C	1.309842	-0.492352	-0.163884
C100	C	1.368514	-0.464176	-0.128994
C101	C	1.433924	-0.428665	-0.153758
C102	C	1.440665	-0.421328	-0.213415
C103	C	1.381993	-0.449504	-0.248305
H104	H	1.261419	-0.518641	-0.145549
H105	H	1.363523	-0.469608	-0.084831
H106	H	1.477356	-0.407807	-0.127930
H107	H	1.489088	-0.395039	-0.231750
H108	H	1.386984	-0.444072	-0.292467
H109	H	1.301394	-0.353976	-0.492786
C110	C	1.370092	-0.737884	-0.191863
C111	C	1.363358	-0.745222	-0.132209
C112	C	1.422042	-0.717055	-0.097321
C113	C	1.487460	-0.681550	-0.122086
C114	C	1.494197	-0.674211	-0.181743
C115	C	1.435513	-0.702378	-0.216632
H116	H	1.314929	-0.771506	-0.113874
H117	H	1.417055	-0.722488	-0.053159
H118	H	1.530902	-0.660699	-0.096260
H119	H	1.542626	-0.647926	-0.200079
H120	H	1.440500	-0.696944	-0.260794
C121	C	1.370152	-0.852533	-0.191876
C122	C	1.363393	-0.844835	-0.132221
C123	C	1.422097	-0.876705	-0.097331
C124	C	1.487560	-0.916273	-0.122096
C125	C	1.494322	-0.923973	-0.181754
C126	C	1.435618	-0.892104	-0.216644
H127	H	1.314931	-0.815542	-0.113885
H128	H	1.417091	-0.871004	-0.053168
H129	H	1.531016	-0.939865	-0.096268
H130	H	1.542784	-0.953266	-0.200089
H131	H	1.440624	-0.897804	-0.260807
H132	H	1.107760	-0.486231	-0.347670
C133	C	1.369931	-0.399107	-0.738347
C134	C	1.333779	-0.439014	-0.699640
C135	C	1.392405	-0.477663	-0.671478
C136	C	1.487182	-0.476404	-0.682022
C137	C	1.523338	-0.436496	-0.720731
C138	C	1.464713	-0.397847	-0.748894
H139	H	1.263615	-0.439947	-0.691833
H140	H	1.365638	-0.507206	-0.642823
H141	H	1.530579	-0.505015	-0.661175
H142	H	1.593502	-0.435563	-0.728539
H143	H	1.491479	-0.368304	-0.777549
C144	C	1.092857	-0.216436	-0.478373
C145	C	1.027367	-0.237006	-0.438741
C146	C	0.968753	-0.198358	-0.406855
C147	C	0.975630	-0.139139	-0.414600
C148	C	1.041124	-0.118566	-0.454234
C149	C	1.099738	-0.157214	-0.486120
H150	H	1.022273	-0.280847	-0.433006
H151	H	0.920270	-0.213588	-0.377515
H152	H	0.932241	-0.110529	-0.390996
H153	H	1.046218	-0.074725	-0.459969
H154	H	1.148220	-0.141984	-0.515459
C155	C	1.316945	-1.102043	-0.223621
C156	C	1.316975	-1.162105	-0.223635
C157	C	1.375677	-1.193995	-0.188760
C158	C	1.434349	-1.165823	-0.153872
C159	C	1.434322	-1.105757	-0.153858
C160	C	1.375619	-1.073867	-0.188732
H161	H	1.273540	-1.182963	-0.249462
H162	H	1.375698	-1.238460	-0.188772
H163	H	1.477804	-1.189429	-0.128056
H164	H	1.477756	-1.084899	-0.128030
H165	H	1.375599	-1.029402	-0.188721
C166	C	1.039337	-0.727438	-0.388492
C167	C	0.944571	-0.731994	-0.381162
C168	C	0.885866	-0.700114	-0.416044
C169	C	0.921927	-0.663679	-0.458255
C170	C	1.016698	-0.659121	-0.465587
C171	C	1.075403	-0.691000	-0.430705
H172	H	0.917872	-0.758967	-0.349914
H173	H	0.815710	-0.703489	-0.410616
H174	H	0.878470	-0.640079	-0.484076
H175	H	1.043397	-0.632147	-0.496836
H176	H	1.145558	-0.687626	-0.436133
C177	C	1.316685	-0.363930	-0.987830
C178	C	1.411465	-0.362680	-0.998366
C179	C	1.470075	-0.401338	-0.970204
C180	C	1.433905	-0.441245	-0.931504
C181	C	1.339121	-0.442497	-0.920965
C182	C	1.280511	-0.403839	-0.949128
H183	H	1.438244	-0.333136	-1.027016
H184	H	1.540241	-0.400411	-0.978005
H185	H	1.477292	-0.469862	-0.910656
H186	H	1.312341	-0.472040	-0.892316
H187	H	1.210345	-0.404766	-0.941326
H188	H	1.301415	-0.591392	-0.232616
C189	C	1.092865	-0.216417	-0.593029
C190	C	0.998084	-0.217657	-0.582489
C191	C	0.939482	-0.178993	-0.610652
C192	C	0.975661	-0.139091	-0.649354
C193	C	1.070446	-0.137850	-0.659895
C194	C	1.129048	-0.176513	-0.631733
H195	H	0.971299	-0.247196	-0.553838
H196	H	0.869316	-0.179912	-0.602848
H197	H	0.932280	-0.110470	-0.670201
H198	H	1.097231	-0.108310	-0.688546
H199	H	1.199214	-0.175594	-0.639536
C200	C	1.039600	-0.181253	-0.842524
C201	C	0.944820	-0.182500	-0.831989
C202	C	0.886214	-0.143843	-0.860156
C203	C	0.922388	-0.103939	-0.898858
C204	C	1.017173	-0.102690	-0.909395
C205	C	1.075779	-0.141347	-0.881228
H206	H	0.918037	-0.212041	-0.803338
H207	H	0.816047	-0.144768	-0.852356
H208	H	0.879005	-0.075323	-0.919709
H209	H	1.043956	-0.073150	-0.938046
H210	H	1.145946	-0.140423	-0.889028
H211	H	0.719978	-0.333904	-0.333664
H212	H	1.301639	-0.994695	-0.232664
H213	H	1.108099	-1.087645	-0.347746
H214	H	1.107822	-0.585299	-0.347691
H215	H	1.301481	-0.353861	-1.094201
H216	H	1.354716	-0.389053	-0.844715
H217	H	1.301413	-0.353962	-0.591852
H218	H	1.054806	-0.191307	-0.736152
H219	H	1.108147	-0.226379	-0.988999
