data_functionalizedCrystal
_audit_creation_method	'MofGen! by Chris Wilmer'
_symmetry_space_group_name_H-M	'P1'
_symmetry_Int_Tables_number	1
_symmetry_cell_setting	triclinic
loop_
_symmetry_equiv_pos_as_xyz
  x,y,z
_cell_length_a	18.215407
_cell_length_b	12.827892
_cell_length_c	18.215399
_cell_angle_alpha	89.975972
_cell_angle_beta	89.982632
_cell_angle_gamma	90.012645
loop_
_atom_site_label
_atom_site_type_symbol
_atom_site_fract_x
_atom_site_fract_y
_atom_site_fract_z
Zn1	Zn	1.125121	-0.416115	-0.416088
Zn2	Zn	1.625121	0.083885	0.083912
Zn3	Zn	1.125051	-0.590874	-0.293030
Zn4	Zn	1.625051	-0.090874	0.206970
Zn5	Zn	1.002054	-0.416140	-0.293040
Zn6	Zn	1.502054	0.083860	0.206960
Zn7	Zn	1.002041	-0.590807	-0.416060
Zn8	Zn	1.502041	-0.090807	0.083940
O9	O	1.063567	-0.503484	-0.354554
O10	O	1.563567	-0.003484	0.145446
O11	O	1.228096	-0.439315	-0.399771
O12	O	1.728096	0.060685	0.100229
O13	O	1.108711	-0.567734	-0.190047
O14	O	1.608711	-0.067734	0.309953
O15	O	1.018414	-0.269901	-0.309379
O16	O	1.518414	0.230099	0.190621
O17	O	1.228044	-0.567710	-0.309361
O18	O	1.728044	-0.067710	0.190639
O19	O	1.108831	-0.269882	-0.399781
O20	O	1.608831	0.230118	0.100219
O21	O	1.018346	-0.439358	-0.190054
O22	O	1.518346	0.060642	0.309946
O23	O	0.899068	-0.439292	-0.309352
O24	O	1.399068	0.060708	0.190648
O25	O	1.018392	-0.567595	-0.519048
O26	O	1.518392	-0.067595	-0.019048
O27	O	0.899058	-0.567619	-0.399734
O28	O	1.399058	-0.067619	0.100266
O29	O	1.108819	-0.439250	-0.519068
O30	O	1.608819	0.060750	-0.019068
O31	O	1.108698	-0.737101	-0.309334
O32	O	1.608698	-0.237101	0.190666
O33	O	1.018323	-0.737052	-0.399724
O34	O	1.518323	-0.237052	0.100276
C35	C	0.872360	-0.503452	-0.354541
C36	C	1.372360	-0.003452	0.145459
C37	C	0.790562	-0.503463	-0.354553
C38	C	1.290562	-0.003463	0.145447
C39	C	0.602394	-0.436746	-0.401704
C40	C	1.102394	0.063254	0.098296
C41	C	0.525535	-0.436755	-0.401707
C42	C	1.025535	0.063245	0.098293
C43	C	0.525492	-0.570252	-0.307417
C44	C	1.025492	-0.070252	0.192583
C45	C	0.602349	-0.570237	-0.307412
C46	C	1.102349	-0.070237	0.192588
C47	C	0.640798	-0.503485	-0.354559
C48	C	1.140798	-0.003485	0.145441
C49	C	0.487082	-0.503509	-0.354567
C50	C	0.987082	-0.003509	0.145433
C51	C	0.403748	-0.503519	-0.354570
C52	C	0.903748	-0.003519	0.145430
C53	C	0.724137	-0.503473	-0.354556
C54	C	1.224137	-0.003473	0.145444
C55	C	1.063521	-0.774994	-0.354541
C56	C	1.563521	-0.274994	0.145459
C57	C	1.063569	-0.891147	-0.354559
C58	C	1.563569	-0.391147	0.145441
C59	C	1.018838	-0.942942	-0.399254
C60	C	1.518838	-0.442942	0.100746
C61	C	1.018887	-1.062992	-0.399275
C62	C	1.518887	-0.562992	0.100725
C63	C	1.255520	-0.503517	-0.354568
C64	C	1.755520	-0.003517	0.145432
C65	C	1.337318	-0.503531	-0.354573
C66	C	1.837318	-0.003531	0.145427
C67	C	1.063612	-0.503412	-0.546507
C68	C	1.563612	-0.003412	-0.046507
C69	C	1.063631	-0.503381	-0.628306
C70	C	1.563631	-0.003381	-0.128306
C71	C	1.063632	-0.230914	-0.354584
C72	C	1.563632	0.269086	0.145416
C73	C	1.063660	-0.114761	-0.354597
C74	C	1.563660	0.385239	0.145403
C75	C	1.110733	-0.436489	-0.816512
C76	C	1.610733	0.063511	-0.316512
C77	C	1.110742	-0.436459	-0.893371
C78	C	1.610742	0.063541	-0.393371
C79	C	1.016580	-0.570112	-0.893338
C80	C	1.516580	-0.070112	-0.393338
C81	C	1.016569	-0.570136	-0.816481
C82	C	1.516569	-0.070136	-0.316481
C83	C	1.063649	-0.503327	-0.778070
C84	C	1.563649	-0.003327	-0.278070
C85	C	1.063670	-0.503272	-0.931786
C86	C	1.563670	-0.003272	-0.431786
C87	C	1.063679	-0.503239	-1.015120
C88	C	1.563679	-0.003239	-0.515120
C89	C	1.063639	-0.503357	-0.694731
C90	C	1.563639	-0.003357	-0.194731
C91	C	1.063564	-0.503480	-0.163348
C92	C	1.563564	-0.003480	0.336652
C93	C	1.063688	-0.503217	-0.081550
C94	C	1.563688	-0.003217	0.418450
H95	H	0.494270	-0.382407	-0.440096
H96	H	0.994270	0.117593	0.059904
O97	O	1.114344	-0.950130	-0.303889
O98	O	1.614344	-0.450130	0.196111
H99	H	1.147099	-0.893927	-0.271141
H100	H	1.647099	-0.393927	0.228859
H101	H	1.149081	-0.382032	-0.924667
H102	H	1.649081	0.117968	-0.424667
O103	O	0.643865	-0.364746	-0.452550
O104	O	1.143865	0.135254	0.047450
H105	H	0.678876	-0.311522	-0.419668
H106	H	1.178876	0.188478	0.080332
H107	H	0.980503	-0.898411	-0.437502
H108	H	1.480503	-0.398411	0.062498
H109	H	1.149067	-0.382086	-0.785240
H110	H	1.649067	0.117914	-0.285240
O111	O	0.965803	-0.642171	-0.934766
O112	O	1.465803	-0.142171	-0.434766
H113	H	0.973724	-0.630932	-0.994669
H114	H	1.473724	-0.130932	-0.494669
O115	O	0.484022	-0.642247	-0.256567
O116	O	0.984022	-0.142247	0.243433
H117	H	0.449020	-0.695488	-0.289444
H118	H	0.949020	-0.195488	0.210556
H119	H	0.978222	-0.624562	-0.785180
H120	H	1.478222	-0.124562	-0.285180
O121	O	0.643780	-0.642219	-0.256558
O122	O	1.143780	-0.142219	0.243442
H123	H	0.604133	-0.688648	-0.223781
H124	H	1.104133	-0.188648	0.276219
O125	O	0.968149	-1.121980	-0.449960
O126	O	1.468149	-0.621980	0.050040
H127	H	0.976142	-1.207014	-0.442015
H128	H	1.476142	-0.707014	0.057985
H129	H	1.101961	-1.070226	-0.316332
H130	H	1.601961	-0.570226	0.183668
