data_functionalizedCrystal
_audit_creation_method	'MofGen! by Chris Wilmer'
_symmetry_space_group_name_H-M	'P1'
_symmetry_Int_Tables_number	1
_symmetry_cell_setting	triclinic
loop_
_symmetry_equiv_pos_as_xyz
  x,y,z
_cell_length_a	10.654545
_cell_length_b	15.995350
_cell_length_c	9.130313
_cell_angle_alpha	89.997713
_cell_angle_beta	89.996934
_cell_angle_gamma	83.987727
loop_
_atom_site_label
_atom_site_type_symbol
_atom_site_fract_x
_atom_site_fract_y
_atom_site_fract_z
O1	O	1.666307	0.117584	-0.121777
O2	O	1.300681	0.128793	-0.121782
O3	O	1.493488	0.001359	-0.121778
O4	O	1.473499	0.245018	-0.121781
O5	O	1.493475	0.001355	0.121821
O6	O	1.300668	0.128789	0.121817
O7	O	1.666294	0.117581	0.121822
Cu8	Cu	1.483479	0.123185	0.144062
Cu9	Cu	1.483495	0.123189	-0.144022
O10	O	1.473486	0.245015	0.121818
C11	C	1.253887	0.127969	0.000016
C12	C	1.114476	0.125509	0.000014
C13	C	1.048979	0.124349	0.132801
C14	C	0.917990	0.122024	0.132801
C15	C	0.918005	0.122022	-0.132784
C16	C	1.048993	0.124341	-0.132783
C17	C	1.492655	-0.029842	0.000019
C18	C	1.490178	-0.122807	0.000010
C19	C	1.481281	-0.460606	0.000015
C20	C	1.343967	-0.413968	-0.000533
C21	C	1.346445	-0.317264	0.000016
C22	C	1.485694	-0.293020	0.000012
C23	C	1.553415	-0.333707	0.139117
C24	C	1.549965	-0.430363	0.139234
C25	C	1.552817	-0.430700	-0.137784
C26	C	1.552784	-0.333755	-0.139622
C27	C	1.488195	-0.198308	0.000015
C28	C	1.478783	-0.555319	0.000022
C29	C	1.713087	0.118405	0.000020
C30	C	1.852499	0.120865	0.000013
C31	C	1.474319	0.276216	0.000018
C32	C	1.476797	0.369181	0.000017
N33	N	1.483478	0.123181	0.346685
N34	N	1.483507	0.123186	-0.346645
C35	C	1.568881	0.066777	0.423338
C36	C	1.568893	0.066777	0.576675
C37	C	1.398094	0.179592	0.576691
C38	C	1.398077	0.179588	0.423357
H39	H	0.864673	0.121072	-0.240902
H40	H	1.328525	0.225519	0.360941
H41	H	1.328564	0.225519	0.639133
H42	H	1.638435	0.020847	0.639082
H43	H	0.864669	0.121079	0.240929
Cl44	Cl	1.711363	-0.310985	0.147109
Cl45	Cl	1.705607	-0.479253	0.148995
Cl46	Cl	1.131339	0.125793	-0.299728
H47	H	1.293211	-0.289149	-0.099700
H48	H	1.102291	0.125300	0.240932
H49	H	1.289089	-0.432816	-0.100288
Cl50	Cl	1.480780	-0.290317	0.298949
H51	H	1.289322	-0.433880	0.098665
Cl52	Cl	1.263683	-0.274718	0.154228
H53	H	1.638418	0.020846	0.360915
H54	H	1.500572	-0.448952	0.243220
H55	H	1.507928	-0.451499	-0.243217
H56	H	1.503272	-0.306792	-0.242529
Cl57	Cl	1.709565	-0.309126	-0.152605
Cl58	Cl	1.709122	-0.478832	-0.139237
