data_functionalizedCrystal
_audit_creation_method	'MofGen! by Chris Wilmer'
_symmetry_space_group_name_H-M	'P1'
_symmetry_Int_Tables_number	1
_symmetry_cell_setting	triclinic
loop_
_symmetry_equiv_pos_as_xyz
  x,y,z
_cell_length_a	12.970454
_cell_length_b	23.196402
_cell_length_c	23.196401
_cell_angle_alpha	59.999265
_cell_angle_beta	90.004635
_cell_angle_gamma	59.999878
loop_
_atom_site_label
_atom_site_type_symbol
_atom_site_fract_x
_atom_site_fract_y
_atom_site_fract_z
Zr1	Zr	0.993227	0.631008	-0.075642
O2	O	0.828578	0.751289	-0.167694
O3	O	1.043697	0.510738	-0.047426
O4	O	1.043663	0.631024	-0.167701
O5	O	0.828643	0.630987	0.047459
O6	O	1.213330	0.631023	-0.167703
O7	O	0.828612	0.631003	-0.047419
O8	O	1.213391	0.415853	0.047447
O9	O	0.828583	0.846157	-0.167690
O10	O	1.191847	0.560202	-0.035390
O11	O	1.065250	0.560190	0.035418
O12	O	1.065210	0.701811	-0.106190
O13	O	0.938613	0.701800	-0.035381
Zr14	Zr	1.263877	0.630981	0.075677
Zr15	Zr	1.263827	0.631007	-0.075644
Zr16	Zr	0.993277	0.630982	0.075679
Zr17	Zr	0.993235	0.782310	-0.075635
Zr18	Zr	1.263870	0.479679	0.075670
O19	O	1.213407	0.751251	0.047461
O20	O	1.213336	0.751288	-0.167697
O21	O	0.828649	0.751252	0.047465
O22	O	1.428526	0.510699	0.167729
O23	O	1.428455	0.510736	-0.047430
O24	O	1.043768	0.510701	0.167732
O25	O	1.428461	0.631002	-0.047425
O26	O	1.213441	0.630965	0.167736
O27	O	1.043774	0.630966	0.167737
O28	O	1.428492	0.630985	0.047454
O29	O	1.043674	0.846156	-0.167692
O30	O	1.213431	0.415833	0.167727
O31	O	1.428522	0.415832	0.167725
O32	O	1.428482	0.415853	0.047445
O33	O	0.828622	0.846136	-0.047410
O34	O	1.043713	0.846135	-0.047412
O35	O	1.191894	0.560178	0.106224
O36	O	1.318492	0.560189	0.035416
O37	O	1.191854	0.701799	-0.035384
O38	O	1.065257	0.701787	0.035424
C39	C	1.128543	0.441738	0.000009
C40	C	1.128540	0.377506	0.000006
C41	C	1.194614	0.347342	-0.036957
C42	C	1.194626	0.286981	-0.036952
C43	C	1.128539	0.256798	0.000008
C44	C	1.062463	0.286966	0.036980
C45	C	1.062463	0.347320	0.036979
C46	C	1.017827	0.194770	-0.005266
C47	C	1.017824	0.134421	-0.005270
C48	C	1.128541	0.070643	0.000015
C49	C	1.239261	0.067230	0.005290
C50	C	1.239261	0.127584	0.005289
C51	C	1.128533	0.191354	0.000014
C52	C	1.194634	-0.024972	-0.036944
C53	C	1.194650	-0.085338	-0.036933
C54	C	1.062474	-0.085345	0.036994
C55	C	1.062471	-0.024987	0.036988
C56	C	1.128548	0.005199	0.000015
C57	C	0.790073	0.630995	0.000020
C58	C	0.675196	0.630996	0.000021
C59	C	1.467031	0.630993	0.000014
C60	C	1.581908	0.630993	0.000013
C61	C	1.128490	0.631027	-0.189262
C62	C	1.128468	0.631038	-0.253501
C63	C	1.128561	0.820251	0.000025
C64	C	1.128565	0.884483	0.000028
C65	C	1.221942	0.631039	-0.283665
C66	C	1.221971	0.631023	-0.344012
C67	C	1.128505	0.631022	-0.374201
C68	C	1.035022	0.631016	-0.344027
C69	C	1.035004	0.631024	-0.283677
C70	C	1.014437	0.678517	-0.493579
C71	C	1.014455	0.678514	-0.553930
C72	C	1.128561	0.630993	-0.560337
C73	C	1.242656	0.583485	-0.506390
C74	C	1.242638	0.583494	-0.446041
C75	C	1.128515	0.631012	-0.439639
C76	C	1.222073	0.630975	-0.655935
C77	C	1.222102	0.630953	-0.716280
C78	C	1.035143	0.630955	-0.716298
C79	C	1.035125	0.630968	-0.655950
C80	C	1.128589	0.630982	-0.625774
C81	C	1.128615	0.630962	0.189297
C82	C	1.128636	0.630951	0.253536
C83	C	1.467022	0.441737	0.000006
C84	C	1.581896	0.377505	0.000003
C85	C	1.128605	0.441706	0.189288
C86	C	1.128624	0.377463	0.253525
C87	C	1.467085	0.441705	0.189285
C88	C	1.581980	0.377461	0.253521
C89	C	0.790020	0.820284	-0.189251
C90	C	0.675125	0.884527	-0.253487
C91	C	0.790082	0.820252	0.000028
C92	C	0.675209	0.884484	0.000032
C93	C	1.128499	0.820283	-0.189254
C94	C	1.128481	0.884526	-0.253491
C95	C	1.569735	0.347347	-0.036965
C96	C	1.677660	0.287003	-0.036983
C97	C	1.797746	0.256813	-0.000028
C98	C	1.809905	0.286976	0.036941
C99	C	1.701980	0.347324	0.036954
C100	C	1.194739	0.347287	0.320658
C101	C	1.194751	0.286933	0.381021
C102	C	1.128655	0.256751	0.374250
C103	C	1.062531	0.286932	0.307110
C104	C	1.062512	0.347290	0.246749
C105	C	1.702029	0.347298	0.246726
C106	C	1.809996	0.286943	0.307077
C107	C	1.797909	0.256749	0.374222
C108	C	1.677847	0.286918	0.381016
C109	C	1.569883	0.347276	0.320666
C110	C	0.555075	0.914698	-0.246691
C111	C	0.447109	0.975072	-0.307042
C112	C	0.459195	1.005270	-0.374187
C113	C	0.579257	0.975097	-0.380981
C114	C	0.687221	0.914728	-0.320631
C115	C	0.687370	0.914648	0.036994
C116	C	0.579444	0.975009	0.036995
C117	C	0.459358	1.005201	0.000038
C118	C	0.447200	0.975035	-0.036929
C119	C	0.555124	0.914679	-0.036933
C120	C	1.194590	0.914689	-0.246697
C121	C	1.194598	0.975044	-0.307049
C122	C	1.128488	1.005239	-0.374193
C123	C	1.062376	0.975070	-0.380985
C124	C	1.062377	0.914712	-0.320634
H125	H	1.248433	0.262417	-0.067053
O126	O	1.358695	-0.001555	0.010998
H127	H	1.340105	-0.042958	0.010123
O128	O	1.322920	0.630967	-0.748819
H129	H	1.417174	0.575709	-0.709590
H130	H	0.349359	0.999628	-0.301497
O131	O	1.265885	0.379897	-0.076829
H132	H	1.311840	0.348774	-0.102528
O133	O	0.934295	0.630985	-0.748859
H134	H	0.938868	0.575724	-0.709648
H135	H	1.008551	0.999665	-0.435662
H136	H	1.711900	0.371870	0.067062
H137	H	0.371490	1.054347	0.000047
H138	H	1.907746	0.262386	0.301532
O139	O	0.342733	1.070385	-0.439272
H140	H	0.342765	1.047243	-0.471155
O141	O	0.991051	0.882191	-0.327965
H142	H	0.945074	0.913340	-0.384796
H143	H	0.545205	0.890121	-0.067030
H144	H	0.958923	0.631013	-0.368609
H145	H	1.668025	0.262324	0.435694
O146	O	1.440400	0.379790	0.327998
H147	H	1.450148	0.348640	0.384829
O148	O	1.358672	0.123904	0.010987
H149	H	1.435669	0.069416	0.014668
H150	H	0.921510	0.717206	-0.488367
O151	O	1.265915	0.007583	-0.076809
H152	H	1.311882	-0.023546	-0.102502
O153	O	1.440225	0.379907	-0.076837
H154	H	1.367206	0.426937	-0.070621
O155	O	1.664534	0.254472	-0.076855
H156	H	1.612145	0.226964	-0.055483
O157	O	1.265915	0.882118	-0.174280
H158	H	1.311896	0.913231	-0.179707
H159	H	1.298180	0.630983	-0.631363
O160	O	1.266028	0.379838	0.327969
H161	H	1.311985	0.348714	0.384796
H162	H	1.128497	1.054387	-0.423329
O163	O	1.265911	-0.117873	-0.076807
H164	H	1.311842	-0.086734	-0.102521
O165	O	1.266096	0.254372	0.453431
H166	H	1.312074	0.285490	0.447992
H167	H	1.885615	0.207673	-0.000044
O168	O	0.991228	0.379756	0.174367
H169	H	0.918107	0.446335	0.145048
H170	H	1.008666	-0.109920	0.067088
O171	O	1.128703	0.191636	0.439357
H172	H	1.185802	0.175719	0.487174
H173	H	1.907693	0.262387	0.067028
O174	O	0.542020	0.882132	-0.174275
H175	H	0.588064	0.893697	-0.145002
O176	O	1.715080	0.379869	0.174309
H177	H	1.816705	0.348756	0.179734
H178	H	1.885831	0.207601	0.423357
O179	O	0.592574	1.007526	0.076880
H180	H	0.645010	1.035005	0.055536
H181	H	0.927655	0.246707	-0.009584
O182	O	1.365663	0.532087	-0.387774
H183	H	1.346464	0.540023	-0.344708
O184	O	0.991284	0.254353	0.299811
H185	H	1.002439	0.207301	0.353066
H186	H	0.589083	0.999692	-0.435658
H187	H	0.784968	0.890164	-0.326172
O188	O	1.265907	1.007575	-0.299713
H189	H	1.227702	1.035074	-0.270411
O190	O	0.991187	0.007564	0.076845
H191	H	0.945223	-0.023557	0.102542
O192	O	0.816884	0.882101	0.076845
H193	H	0.807188	0.913235	0.102534
H194	H	1.008656	0.262387	0.067074
O195	O	0.898408	0.138106	-0.010968
H196	H	0.821424	0.192585	-0.014633
O197	O	0.991182	0.379868	0.076841
H198	H	0.945222	0.348745	0.102541
H199	H	1.298049	0.631048	-0.259096
O200	O	1.322781	0.631036	-0.376564
H201	H	1.387761	0.631055	-0.345445
H202	H	0.349412	0.999627	-0.067018
O203	O	1.365741	0.532219	-0.513283
H204	H	1.346591	0.540183	-0.564305
H205	H	0.921553	0.717201	-0.597852
O206	O	0.934293	0.630981	-0.623417
H207	H	0.869296	0.630985	-0.654549
H208	H	0.958885	0.631023	-0.259117
