data_functionalizedCrystal
_audit_creation_method	'MofGen! by Chris Wilmer'
_symmetry_space_group_name_H-M	'P1'
_symmetry_Int_Tables_number	1
_symmetry_cell_setting	triclinic
loop_
_symmetry_equiv_pos_as_xyz
  x,y,z
_cell_length_a	19.121459
_cell_length_b	19.121274
_cell_length_c	15.296720
_cell_angle_alpha	102.475208
_cell_angle_beta	82.354682
_cell_angle_gamma	94.747614
loop_
_atom_site_label
_atom_site_type_symbol
_atom_site_fract_x
_atom_site_fract_y
_atom_site_fract_z
Zn1	Zn	-0.381918	-1.031642	0.432641
Zn2	Zn	-0.479229	-1.056947	0.275077
Zn3	Zn	-0.358303	-0.932619	0.288524
Zn4	Zn	-0.494517	-0.918970	0.432601
O5	O	-0.428492	-0.985044	0.357211
O6	O	-0.398311	-1.134184	0.406129
O7	O	-0.446907	-1.056757	0.150623
O8	O	-0.263705	-0.940876	0.313285
O9	O	-0.469805	-1.152776	0.290368
O10	O	-0.281055	-1.013628	0.419168
O11	O	-0.358063	-0.965413	0.160502
O12	O	-0.372887	-0.831623	0.313247
O13	O	-0.495861	-0.917614	0.558845
O14	O	-0.472963	-0.821595	0.419100
O15	O	-0.413136	-1.000393	0.558874
O16	O	-0.578988	-1.043523	0.290329
O17	O	-0.590220	-0.942151	0.406061
C18	C	-0.422022	-0.800891	0.367629
C19	C	-0.419273	-0.722107	0.372106
C20	C	-0.455122	-0.694779	0.313857
C21	C	-0.452541	-0.620752	0.318075
C22	C	-0.414108	-0.574055	0.380539
C23	C	-0.378259	-0.601388	0.438795
C24	C	-0.380844	-0.675413	0.434580
C25	C	-0.404448	-0.350061	0.396289
C26	C	-0.401864	-0.276031	0.400498
C27	C	-0.476148	-0.295401	0.279779
C28	C	-0.478726	-0.369427	0.275566
C29	C	-0.442880	-0.396753	0.333825
C30	C	-0.411467	-0.498387	0.384851
C31	C	-0.445525	-0.472419	0.329517
C32	C	-0.609947	-0.994119	0.346750
C33	C	-0.687581	-0.998062	0.342302
C34	C	-1.126365	-1.023028	0.314097
C35	C	-1.053420	-1.019317	0.318279
C36	C	-1.022816	-0.964657	0.380583
C37	C	-1.065161	-0.913700	0.438703
C38	C	-1.138104	-0.917409	0.434516
C39	C	-0.802869	-0.950814	0.396234
C40	C	-0.729920	-0.947110	0.400419
C41	C	-0.718184	-1.052727	0.279993
C42	C	-0.791130	-1.056433	0.275815
C43	C	-0.833467	-1.005474	0.333931
C44	C	-0.948255	-0.960863	0.384862
C45	C	-0.908026	-1.009266	0.329648
C46	C	-0.246331	-0.975952	0.367731
C47	C	-0.168704	-0.972077	0.372214
C48	C	-0.458838	-0.954658	0.592507
C49	C	-0.471770	-0.941710	0.692775
C50	C	-0.434976	-0.169918	0.346741
C51	C	-0.437712	-0.248703	0.342249
C52	C	-0.398214	-1.015350	0.122831
C53	C	-0.385091	-1.028427	0.022566
C54	C	-0.335944	-1.077611	0.975478
C55	C	-0.323796	-1.089782	0.881270
C56	C	-0.360788	-1.052765	0.834141
C57	C	-0.409931	-1.003575	0.881231
C58	C	-0.422085	-0.991408	0.975447
C59	C	-0.446929	-0.966561	0.834111
C60	C	-0.496072	-0.917372	0.881200
C61	C	-0.508224	-0.905206	0.975408
C62	C	-0.471232	-0.942223	1.022536
C63	C	-0.434775	-0.978729	0.739894
C64	C	-0.520916	-0.892525	0.739864
C65	C	-0.533065	-0.880355	0.834072
H66	H	-0.351652	-0.697662	0.482012
F67	F	-0.486430	-0.522118	0.263043
F68	F	-0.347856	-1.065718	0.733877
F69	F	-0.360953	-0.226334	0.466980
H70	H	-0.481732	-0.598505	0.270643
H71	H	-1.040239	-0.869191	0.489430
F72	F	-0.585366	-0.828006	0.884199
H73	H	-0.394761	-1.018779	0.701564
H74	H	-0.283785	-1.129834	0.842936
H75	H	-0.375261	-0.372300	0.443729
H76	H	-0.932946	-1.053768	0.278917
H77	H	-0.305835	-1.107749	1.013857
F78	F	-0.337361	-0.551687	0.505280
F79	F	-0.519612	-0.419123	0.209063
H80	H	-0.505333	-0.273143	0.232350
F81	F	-0.370566	-0.448683	0.451330
F82	F	-1.158929	-1.081209	0.247787
H83	H	-0.816041	-1.100942	0.225078
F84	F	-1.008363	-1.073552	0.256429
F85	F	-0.673120	-1.106956	0.218144
H86	H	-0.705007	-0.902596	0.451158
F87	F	-0.847920	-0.896586	0.458099
H88	H	-1.172577	-0.875922	0.481846
H89	H	-0.923332	-0.916358	0.435593
H90	H	-0.551039	-0.862384	0.701493
H91	H	-0.481121	-0.932317	1.099248
H92	H	-0.486415	-0.732796	0.262988
F93	F	-0.560537	-0.852865	1.025520
