data_functionalizedCrystal
_audit_creation_method	'MofGen! by Chris Wilmer'
_symmetry_space_group_name_H-M	'P1'
_symmetry_Int_Tables_number	1
_symmetry_cell_setting	triclinic
loop_
_symmetry_equiv_pos_as_xyz
  x,y,z
_cell_length_a	10.723023
_cell_length_b	12.376457
_cell_length_c	10.723024
_cell_angle_alpha	78.613680
_cell_angle_beta	95.532291
_cell_angle_gamma	78.598019
loop_
_atom_site_label
_atom_site_type_symbol
_atom_site_fract_x
_atom_site_fract_y
_atom_site_fract_z
O1	O	-1.680917	0.094007	0.151308
O2	O	-1.317765	0.094008	0.168062
O3	O	-1.507716	0.094003	-0.021890
O4	O	-1.490965	0.094012	0.341260
O5	O	-1.460245	-0.094008	0.025532
O6	O	-1.270293	-0.094003	0.215485
O7	O	-1.633445	-0.094004	0.198731
Zn8	Zn	-1.444332	-0.123854	0.214637
Zn9	Zn	-1.506878	0.123858	0.152155
O10	O	-1.443494	-0.093999	0.388683
C11	C	-1.247529	0.000003	0.190554
C12	C	-1.108975	0.000003	0.186907
N13	N	-1.401656	-0.292911	0.257278
C14	C	-0.928599	0.097396	0.156945
C15	C	-1.071802	0.097398	0.160714
C16	C	-1.648630	-0.647902	0.010495
C17	C	-1.678493	-0.529563	-0.019350
C18	C	-1.609286	-0.470395	0.049804
C19	C	-1.510212	-0.529576	0.148809
C20	C	-1.480353	-0.647927	0.178664
C21	C	-1.441008	-0.470419	0.217973
C22	C	-1.341934	-0.529601	0.316978
C23	C	-1.312080	-0.647940	0.346827
C24	C	-1.381287	-0.707109	0.277673
C25	C	-1.470867	-0.352069	0.188118
C26	C	-1.302590	-0.352093	0.356288
C27	C	-1.272727	-0.470432	0.386133
C28	C	-0.703681	0.000002	0.176238
C29	C	-0.842235	0.000001	0.179886
C30	C	-1.482762	-0.000001	-0.044679
C31	C	-1.479115	0.000003	-0.183234
N32	N	-1.549564	0.292916	0.109504
C33	C	-1.585403	0.000005	-0.258217
C34	C	-1.581637	0.000009	-0.401422
C35	C	-1.468449	0.000008	0.411471
C36	C	-1.472097	0.000011	0.550024
H37	H	-0.896521	0.180778	0.134507
H38	H	-1.704976	-0.696085	-0.045795
Cl39	Cl	-0.994464	-0.128746	0.217233
Cl40	Cl	-1.187545	-0.722342	0.471304
Cl41	Cl	-1.186318	0.226143	0.130409
Cl42	Cl	-1.334312	0.000015	-0.247795
H43	H	-1.759159	-0.481382	-0.099958
H44	H	-0.874314	-0.083381	0.202310
H45	H	-1.633604	-0.374037	0.025500
Cl46	Cl	-1.595411	-0.277683	0.063659
H47	H	-1.679187	-0.000003	-0.216394
H48	H	-1.192059	-0.518633	0.466745
H49	H	-1.356970	-0.803471	0.301969
H50	H	-1.246237	-0.303919	0.412602
H51	H	-1.672626	0.000005	-0.465854
Cl52	Cl	-1.331599	0.000000	-0.350508
