data_functionalizedCrystal
_audit_creation_method	'MofGen! by Chris Wilmer'
_symmetry_space_group_name_H-M	'P1'
_symmetry_Int_Tables_number	1
_symmetry_cell_setting	triclinic
loop_
_symmetry_equiv_pos_as_xyz
  x,y,z
_cell_length_a	16.992694
_cell_length_b	15.944551
_cell_length_c	16.053802
_cell_angle_alpha	92.564789
_cell_angle_beta	87.249047
_cell_angle_gamma	87.083481
loop_
_atom_site_label
_atom_site_type_symbol
_atom_site_fract_x
_atom_site_fract_y
_atom_site_fract_z
O1	O	1.043704	0.174798	-0.069327
O2	O	0.815419	0.172843	-0.069352
O3	O	0.935795	0.051964	-0.069332
O4	O	0.923328	0.295677	-0.069348
O5	O	0.929169	0.058588	0.069526
O6	O	0.808793	0.179467	0.069506
O7	O	1.037078	0.181422	0.069530
Zn8	Zn	0.921884	0.181497	0.091565
Zn9	Zn	0.930613	0.172769	-0.091386
O10	O	0.916702	0.302301	0.069510
C11	C	0.782894	0.173641	0.000074
C12	C	0.695850	0.166141	0.000065
C13	C	0.645613	0.238506	0.000061
C14	C	0.563826	0.231454	0.000073
C15	C	0.532276	0.152037	0.000083
C16	C	0.582519	0.079667	0.000089
C17	C	0.664305	0.086719	0.000083
C18	C	0.288676	0.122807	0.000107
C19	C	0.206884	0.115759	0.000111
C20	C	0.188196	0.267548	0.000095
C21	C	0.269984	0.274593	0.000084
C22	C	0.320220	0.202223	0.000095
N23	N	0.448677	0.144827	0.000092
N24	N	0.403818	0.209434	0.000092
C25	C	0.931964	0.023948	0.000097
C26	C	0.930413	-0.069402	0.000098
C27	C	0.852090	-0.289513	0.000078
C28	C	0.885194	-0.344825	0.068547
C29	C	0.927606	-0.240317	0.000091
C30	C	0.891744	-0.351338	-0.068356
C31	C	0.924889	-0.405412	0.000081
C32	C	0.960728	-0.294396	0.068617
C33	C	0.967271	-0.300907	-0.068348
C34	C	1.000429	-0.356196	0.000138
C35	C	0.929169	-0.145209	0.000098
C36	C	0.923332	-0.500518	0.000080
C37	C	1.069603	0.180624	0.000103
C38	C	1.156648	0.188124	0.000106
C39	C	0.920533	0.330318	0.000079
C40	C	0.922085	0.423667	0.000073
N41	N	0.915931	0.187453	0.216424
N42	N	0.936572	0.166806	-0.216246
C43	C	0.967170	0.136040	0.260127
C44	C	0.963014	0.140215	0.347533
C45	C	0.907622	0.195808	0.391235
C46	C	0.856378	0.247223	0.347526
C47	C	0.860531	0.243043	0.260121
C48	C	0.889481	0.214042	0.652641
C49	C	0.885333	0.218220	0.740052
C50	C	0.991968	0.111209	0.740053
C51	C	0.996120	0.107038	0.652646
C52	C	0.944873	0.158450	0.608945
N53	N	0.903374	0.200078	0.480578
N54	N	0.949118	0.154175	0.519604
H55	H	0.181201	0.051085	0.000118
H56	H	1.063164	-0.385145	0.000184
C57	C	0.852316	-0.385100	-0.146556
C58	C	0.844269	-0.480313	-0.161278
C59	C	0.804836	-0.514070	-0.239474
C60	C	0.773449	-0.452615	-0.302949
C61	C	0.781494	-0.357396	-0.288230
C62	C	0.820928	-0.323638	-0.210033
H63	H	0.867505	-0.525811	-0.114288
H64	H	0.798880	-0.584558	-0.250370
H65	H	0.744258	-0.477604	-0.360835
H66	H	0.758259	-0.311897	-0.335220
H67	H	0.826883	-0.253150	-0.199138
C68	C	0.795445	0.308378	0.395593
C69	C	0.790910	0.313025	0.491735
C70	C	0.729977	0.374183	0.539799
C71	C	0.673580	0.430695	0.491722
C72	C	0.678113	0.426050	0.395575
C73	C	0.739046	0.364891	0.347511
H74	H	0.832660	0.271190	0.527329
H75	H	0.726621	0.377622	0.610974
H76	H	0.628474	0.475968	0.527302
H77	H	0.636363	0.467885	0.359981
H78	H	0.742401	0.361453	0.276336
C79	C	0.508562	0.311054	0.000063
C80	C	0.446338	0.330524	0.072171
C81	C	0.391073	0.410127	0.072162
C82	C	0.398031	0.470259	0.000045
C83	C	0.460257	0.450790	-0.072069
C84	C	0.515523	0.371187	-0.072060
H85	H	0.441185	0.286010	0.125562
H86	H	0.345008	0.424539	0.125546
H87	H	0.357120	0.529185	0.000038
H88	H	0.465411	0.495305	-0.125460
H89	H	0.561587	0.356776	-0.125444
H90	H	0.989876	-0.269501	0.126566
H91	H	0.329568	0.063878	0.000117
H92	H	0.847755	0.255905	0.617067
C93	C	1.014115	-0.274542	-0.146539
C94	C	1.101254	-0.304884	-0.162414
C95	C	1.148091	-0.278518	-0.240614
C96	C	1.107790	-0.221810	-0.302939
C97	C	1.020646	-0.191465	-0.287066
C98	C	0.973809	-0.217831	-0.208867
H99	H	1.131092	-0.346866	-0.116275
H100	H	1.212601	-0.300982	-0.252364
H101	H	1.142462	-0.202292	-0.360828
H102	H	0.990808	-0.149483	-0.333205
H103	H	0.909299	-0.195367	-0.197117
C104	C	0.767409	-0.250184	0.000156
C105	C	0.696775	-0.306991	0.000964
C106	C	0.612098	-0.267661	0.001047
C107	C	0.598055	-0.171524	0.000322
C108	C	0.668691	-0.114711	-0.000486
C109	C	0.753368	-0.154042	-0.000569
H110	H	0.707169	-0.378163	0.001501
H111	H	0.559809	-0.309718	0.001645
H112	H	0.535371	-0.142410	0.000383
H113	H	0.658297	-0.043540	-0.001023
H114	H	0.805658	-0.111985	-0.001168
H115	H	1.012279	0.090773	0.224550
C116	C	0.680314	0.325867	0.000049
C117	C	0.657930	0.390947	0.072152
C118	C	0.692629	0.478310	0.072144
C119	C	0.749711	0.500593	0.000032
C120	C	0.772098	0.435512	-0.072077
C121	C	0.737399	0.348148	-0.072068
H122	H	0.615672	0.374453	0.125538
H123	H	0.676056	0.526488	0.125523
H124	H	0.775397	0.565265	0.000025
H125	H	0.814356	0.452006	-0.125463
H126	H	0.753972	0.299971	-0.125448
C127	C	0.132935	0.347150	0.000092
C128	C	0.077566	0.359738	-0.072008
C129	C	0.022305	0.439345	-0.072007
C130	C	0.022413	0.506364	0.000094
C131	C	0.077785	0.493779	0.072200
C132	C	0.133046	0.414172	0.072199
H133	H	0.077484	0.310124	-0.125386
H134	H	-0.018685	0.448661	-0.125384
H135	H	-0.018494	0.565294	0.000095
H136	H	0.077867	0.543392	0.125578
H137	H	0.174035	0.404856	0.125576
H138	H	0.850491	-0.364314	0.126426
H139	H	0.840224	0.263494	0.775630
C140	C	0.547816	-0.007693	0.000101
C141	C	0.490727	-0.029972	0.072208
C142	C	0.456026	-0.117334	0.072216
C143	C	0.478413	-0.182417	0.000117
C144	C	0.535505	-0.160140	-0.071996
C145	C	0.570207	-0.072778	-0.072004
H146	H	0.474152	0.018208	0.125586
H147	H	0.413763	-0.133825	0.125600
H148	H	0.452725	-0.247087	0.000123
H149	H	0.552081	-0.208319	-0.125374
H150	H	0.612470	-0.056287	-0.125388
H151	H	0.705207	0.027792	0.000086
H152	H	1.004736	0.098349	0.383115
C153	C	1.057047	0.045883	0.604572
C154	C	1.113413	-0.010678	0.652635
C155	C	1.174342	-0.071831	0.604557
C156	C	1.178905	-0.076422	0.508416
C157	C	1.122538	-0.019859	0.460347
C158	C	1.061609	0.041293	0.508425
H159	H	1.110036	-0.007281	0.723810
H160	H	1.216068	-0.113702	0.640142
H161	H	1.224009	-0.121690	0.472826
H162	H	1.125914	-0.023256	0.389172
H163	H	1.019882	0.083165	0.472840
H164	H	0.295666	0.339262	0.000066
H165	H	0.818806	0.284908	0.224539
C166	C	1.048332	0.054652	0.788124
C167	C	1.014840	-0.008793	0.848225
C168	C	1.071204	-0.065356	0.896295
C169	C	1.161060	-0.058475	0.884264
C170	C	1.194557	0.004972	0.824160
C171	C	1.138193	0.061535	0.776090
H172	H	0.948319	-0.013889	0.857134
H173	H	1.046407	-0.112324	0.940788
H174	H	1.202784	-0.100347	0.919849
H175	H	1.261078	0.010068	0.815252
H176	H	1.162989	0.108503	0.731597
