data_functionalizedCrystal
_audit_creation_method	'MofGen! by Chris Wilmer'
_symmetry_space_group_name_H-M	'P1'
_symmetry_Int_Tables_number	1
_symmetry_cell_setting	triclinic
loop_
_symmetry_equiv_pos_as_xyz
  x,y,z
_cell_length_a	6.817900
_cell_length_b	16.256275
_cell_length_c	27.923456
_cell_angle_alpha	96.642785
_cell_angle_beta	98.963413
_cell_angle_gamma	103.500333
loop_
_atom_site_label
_atom_site_type_symbol
_atom_site_fract_x
_atom_site_fract_y
_atom_site_fract_z
V1	V	-3.976814	-0.118348	-0.151447
O2	O	-3.965235	0.004398	-0.148386
O3	O	-3.928713	-0.233424	-0.150582
O4	O	-3.906610	-0.117093	-0.217420
O5	O	-3.987491	-0.112739	-0.081085
V6	V	-4.463228	-0.103599	-0.143010
O7	O	-4.231730	-0.150700	-0.169953
O8	O	-4.658509	-0.071247	-0.124504
O9	O	-4.288122	0.011477	-0.143875
O10	O	-4.592203	-0.226345	-0.146071
O11	O	-4.569947	-0.109209	-0.213372
O12	O	-4.310225	-0.104854	-0.077037
C13	C	-3.774493	-0.261460	-0.148237
C14	C	-3.816306	-0.355540	-0.147970
C15	C	-4.106634	-0.587377	-0.149847
C16	C	-4.060095	-0.652669	-0.188623
C17	C	-3.892772	-0.527784	-0.147471
C18	C	-4.013800	-0.630128	-0.108228
C19	C	-3.966647	-0.694164	-0.146988
C20	C	-3.845701	-0.591846	-0.186285
C21	C	-3.799410	-0.569290	-0.105854
C22	C	-3.752728	-0.634556	-0.144638
C23	C	-3.850220	-0.431937	-0.147750
C24	C	-4.009185	-0.790009	-0.146713
C25	C	-3.746297	-0.113067	-0.233495
C26	C	-3.770184	-0.112802	-0.287430
C27	C	-4.099783	-0.115329	-0.624354
C28	C	-4.189650	-0.114303	-0.827060
O29	O	-4.355436	-0.117743	-0.855374
N30	N	-4.019588	-0.109933	-0.849929
C31	C	-3.827041	-0.105815	-0.822117
O32	O	-3.684450	-0.102066	-0.846219
C33	C	-3.737174	-0.106835	-0.619412
C34	C	-3.907253	-0.111213	-0.596547
C35	C	-4.269847	-0.119706	-0.601489
C36	C	-4.247382	-0.119967	-0.550816
C37	C	-4.054853	-0.115852	-0.523008
C38	C	-3.884788	-0.111474	-0.545874
C39	C	-3.544627	-0.102710	-0.591601
C40	C	-3.522173	-0.102963	-0.540921
C41	C	-3.692253	-0.107342	-0.518056
C42	C	-3.669794	-0.107620	-0.467393
N43	N	-3.839856	-0.111989	-0.444524
C44	C	-4.032386	-0.116105	-0.472332
C45	C	-3.874237	-0.105281	-0.928541
C46	C	-3.896704	-0.105028	-0.979217
C47	C	-4.259311	-0.113514	-0.984156
C48	C	-4.236844	-0.113774	-0.933480
C49	C	-4.044299	-0.109651	-0.905672
C50	C	-3.985195	-0.116654	-0.365915
C51	C	-3.962713	-0.116918	-0.315237
C52	C	-3.600107	-0.108427	-0.310302
C53	C	-3.622587	-0.108167	-0.360976
C54	C	-3.815145	-0.112278	-0.388781
O55	O	-3.504070	-0.104172	-0.439048
O56	O	-4.174941	-0.119834	-0.448219
C57	C	-4.122248	-0.115068	-0.675027
C58	C	-3.952183	-0.110691	-0.697893
C59	C	-3.759654	-0.106575	-0.670085
C60	C	-3.974650	-0.110437	-0.748569
C61	C	-4.167180	-0.114553	-0.776376
C62	C	-4.337242	-0.118923	-0.753508
C63	C	-4.314777	-0.119184	-0.702835
C64	C	-3.589591	-0.102206	-0.692954
C65	C	-3.612072	-0.101946	-0.743627
C66	C	-3.804601	-0.106062	-0.771435
C67	C	-4.105685	0.039508	-0.146219
C68	C	-4.043108	0.133587	-0.146490
C69	C	-4.133881	-0.108883	-0.060960
C70	C	-4.089233	-0.109143	-0.007025
H71	H	-3.603363	-0.655265	-0.142445
Br72	Br	-3.615177	-0.508959	-0.047530
H73	H	-4.255835	-0.566528	-0.152101
H74	H	-3.774342	-0.574845	-0.219311
H75	H	-4.085318	-0.647247	-0.075241
H76	H	-4.453277	-0.122749	-0.684223
Br77	Br	-4.193556	-0.122866	-0.284210
H78	H	-4.141990	-0.120003	-0.388548
H79	H	-4.170686	-0.688847	-0.223615
Br80	Br	-4.531169	-0.125295	-0.639219
H81	H	-4.385880	-0.123529	-0.532203
Br82	Br	-4.467677	-0.119716	-0.902454
Br83	Br	-4.520604	-0.119100	-1.021904
H84	H	-3.758211	-0.101475	-0.997830
Br85	Br	-3.612909	-0.099696	-0.890810
H86	H	-3.406124	-0.099145	-0.610209
Br87	Br	-3.260844	-0.097358	-0.503184
H88	H	-3.484099	-0.104612	-0.379594
Br89	Br	-3.338826	-0.102846	-0.272554
Br90	Br	-3.328283	-0.096627	-0.655223
H91	H	-3.473561	-0.098387	-0.762240
Br92	Br	-4.598538	-0.124515	-0.791257
