data_functionalizedCrystal
_audit_creation_method	'MofGen! by Chris Wilmer'
_symmetry_space_group_name_H-M	'P1'
_symmetry_Int_Tables_number	1
_symmetry_cell_setting	triclinic
loop_
_symmetry_equiv_pos_as_xyz
  x,y,z
_cell_length_a	10.654550
_cell_length_b	10.654550
_cell_length_c	9.730223
_cell_angle_alpha	90.000193
_cell_angle_beta	90.000073
_cell_angle_gamma	95.515097
loop_
_atom_site_label
_atom_site_type_symbol
_atom_site_fract_x
_atom_site_fract_y
_atom_site_fract_z
O1	O	1.667834	-0.176393	-0.114277
O2	O	1.302355	-0.193199	-0.114282
O3	O	1.493498	-0.002057	-0.114274
O4	O	1.476692	-0.367535	-0.114285
O5	O	1.493496	-0.002062	0.114306
O6	O	1.302353	-0.193204	0.114298
O7	O	1.667832	-0.176398	0.114303
Zn8	Zn	1.485092	-0.184802	0.150592
Zn9	Zn	1.485095	-0.184795	-0.150572
O10	O	1.476689	-0.367540	0.114295
C11	C	1.255556	-0.191968	0.000008
C12	C	1.116113	-0.188276	0.000006
C13	C	1.492263	0.044739	0.000014
C14	C	1.488571	0.184182	0.000009
C15	C	1.714631	-0.177630	0.000010
C16	C	1.854074	-0.181321	0.000003
C17	C	1.933560	-0.068780	0.000001
C18	C	2.064581	-0.072257	0.000007
C19	C	2.036617	-0.300826	0.000012
C20	C	1.905599	-0.297348	0.000016
C21	C	1.882035	0.047247	-0.000012
C22	C	1.961522	0.159798	-0.000016
C23	C	2.092543	0.156321	-0.000009
C24	C	2.144077	0.040294	0.000001
C25	C	1.477924	-0.414336	0.000004
C26	C	1.481616	-0.553779	-0.000000
N27	N	1.485099	-0.184805	0.356129
C28	C	1.601112	0.263668	0.000015
C29	C	1.597636	0.394688	0.000005
C30	C	1.369066	0.366725	-0.000010
C31	C	1.372544	0.235707	-0.000010
C32	C	1.733075	0.279813	0.000029
C33	C	1.729599	0.410834	0.000019
N34	N	1.485098	-0.184782	-0.356108
C35	C	1.569759	-0.100197	0.428058
C36	C	1.569756	-0.100181	0.571941
C37	C	1.400429	-0.269395	0.571953
C38	C	1.400427	-0.269403	0.428072
C39	C	1.667522	-0.002506	0.428053
C40	C	1.667519	-0.002491	0.571935
H41	H	1.775353	0.050090	-0.000021
C42	C	1.789844	0.231674	0.133362
N43	N	1.832600	0.195414	0.233791
H44	H	1.840879	-0.388989	0.000023
C45	C	1.797868	-0.031657	0.624698
N46	N	1.896032	-0.053661	0.664439
H47	H	1.280902	0.170993	-0.000034
C48	C	1.241443	0.423415	-0.000015
N49	N	1.145315	0.466113	-0.000013
H50	H	2.157258	0.247965	0.000001
H51	H	2.250764	0.037472	0.000019
C52	C	1.802798	0.240147	-0.129196
N53	N	1.855310	0.210271	-0.226527
H54	H	1.331480	-0.338287	0.369509
C55	C	1.783501	0.472508	-0.133296
N56	N	1.824106	0.518963	-0.233704
H57	H	2.078587	-0.395290	0.000019
C58	C	1.796756	0.467251	0.129254
N59	N	1.847334	0.509744	0.226592
H60	H	1.758706	-0.033094	0.383426
C61	C	1.307293	-0.362445	0.651104
N62	N	1.237140	-0.432533	0.710720
H63	H	1.646080	0.094027	0.389001
H64	H	1.637006	0.088732	0.616553
C65	C	1.904832	0.287420	-0.000019
N66	N	1.862134	0.383549	-0.000023
