data_functionalizedCrystal
_audit_creation_method	'MofGen! by Chris Wilmer'
_symmetry_space_group_name_H-M	'P1'
_symmetry_Int_Tables_number	1
_symmetry_cell_setting	triclinic
loop_
_symmetry_equiv_pos_as_xyz
  x,y,z
_cell_length_a	15.298708
_cell_length_b	16.625546
_cell_length_c	15.296720
_cell_angle_alpha	80.357530
_cell_angle_beta	72.673117
_cell_angle_gamma	99.716994
loop_
_atom_site_label
_atom_site_type_symbol
_atom_site_fract_x
_atom_site_fract_y
_atom_site_fract_z
Zn1	Zn	1.330620	-0.158241	0.280164
Zn2	Zn	1.357440	-0.264885	0.124676
Zn3	Zn	1.202036	-0.158294	0.151545
Zn4	Zn	1.175084	-0.321272	0.306982
O5	O	1.266295	-0.225673	0.215842
O6	O	1.464307	-0.148767	0.237070
O7	O	1.359329	-0.227169	-0.001883
O8	O	1.219148	-0.045449	0.168628
O9	O	1.484011	-0.227118	0.122834
O10	O	1.313619	-0.045410	0.263124
O11	O	1.245154	-0.148857	0.017858
O12	O	1.068331	-0.203534	0.194633
O13	O	1.173212	-0.323222	0.433548
O14	O	1.048529	-0.323273	0.308832
O15	O	1.287484	-0.203444	0.413845
O16	O	1.333194	-0.385202	0.148838
O17	O	1.199218	-0.426630	0.282778
C18	C	1.024689	-0.269529	0.257558
C19	C	0.921325	-0.288314	0.275427
C20	C	1.266214	-0.435173	0.215818
C21	C	1.266258	-0.524788	0.215825
C22	C	0.671029	-0.091657	0.088362
C23	C	0.768145	-0.074003	0.071574
C24	C	0.806445	-0.127580	0.122536
C25	C	0.747620	-0.198812	0.190288
C26	C	0.650494	-0.216465	0.207082
C27	C	0.785909	-0.252387	0.241256
C28	C	0.727084	-0.323620	0.309008
C29	C	0.629968	-0.341269	0.325799
C30	C	0.591668	-0.287693	0.274838
C31	C	0.883035	-0.234735	0.224462
C32	C	0.862500	-0.359542	0.343182
C33	C	0.765384	-0.377196	0.359970
C34	C	1.266404	-0.852952	0.215893
C35	C	1.266360	-0.761647	0.215877
C36	C	1.266330	-0.688873	0.215859
C37	C	1.266288	-0.597563	0.215843
C38	C	1.508844	-0.181647	0.173963
C39	C	1.612204	-0.162886	0.156117
C40	C	1.224350	-0.269617	0.458380
C41	C	1.206476	-0.288343	0.561735
C42	C	1.266398	-0.015354	0.215882
C43	C	1.266442	0.074271	0.215899
C44	C	1.308130	-0.181832	-0.025761
C45	C	1.326184	-0.162846	-0.129147
C46	C	1.394080	-0.091686	0.812041
C47	C	1.410880	-0.074092	0.714933
C48	C	1.359780	-0.127653	0.676628
C49	C	1.291878	-0.198811	0.735442
C50	C	1.275082	-0.216411	0.832559
C51	C	1.240782	-0.252378	0.697146
C52	C	1.172880	-0.323536	0.755960
C53	C	1.156087	-0.341132	0.853067
C54	C	1.207186	-0.287571	0.891371
C55	C	1.257578	-0.234779	0.600029
C56	C	1.138580	-0.359504	0.620547
C57	C	1.121780	-0.377097	0.717655
H58	H	0.930921	-0.176734	0.169300
F59	F	1.084197	-0.416514	0.579786
F60	F	0.903255	-0.416561	0.397430
F61	F	1.049517	-0.452828	0.780260
F62	F	1.189313	-0.306295	0.994725
H63	H	1.100804	-0.399079	0.900950
F64	F	1.329842	-0.159049	0.537447
F65	F	0.702768	-0.453008	0.432071
H66	H	0.885521	-0.113201	0.108864
F67	F	0.567363	-0.417075	0.397916
H68	H	1.373462	-0.113324	0.597558
F69	F	1.448463	-0.034696	0.852812
F70	F	0.830742	0.001808	-0.000525
H71	H	0.639835	-0.048040	0.046881
F72	F	0.488306	-0.306476	0.292704
H73	H	1.466168	-0.016156	0.667053
