data_functionalizedCrystal
_audit_creation_method	'MofGen! by Chris Wilmer'
_symmetry_space_group_name_H-M	'P1'
_symmetry_Int_Tables_number	1
_symmetry_cell_setting	triclinic
loop_
_symmetry_equiv_pos_as_xyz
  x,y,z
_cell_length_a	6.817900
_cell_length_b	11.102233
_cell_length_c	16.305550
_cell_angle_alpha	93.873504
_cell_angle_beta	103.455250
_cell_angle_gamma	108.604738
loop_
_atom_site_label
_atom_site_type_symbol
_atom_site_fract_x
_atom_site_fract_y
_atom_site_fract_z
V1	V	-4.052582	-0.176912	-0.263034
O2	O	-4.012740	0.007398	-0.258024
O3	O	-4.029759	-0.349726	-0.261238
O4	O	-4.003655	-0.174675	-0.377751
O5	O	-4.039025	-0.168865	-0.140705
V6	V	-4.532964	-0.154809	-0.248402
O7	O	-4.320731	-0.225397	-0.295131
O8	O	-4.715013	-0.106325	-0.216306
O9	O	-4.332580	0.018004	-0.250198
O10	O	-4.690203	-0.339119	-0.253413
O11	O	-4.663918	-0.162857	-0.370732
O12	O	-4.358684	-0.157046	-0.133685
C13	C	-3.880999	-0.391839	-0.257090
C14	C	-3.943622	-0.533119	-0.256386
C15	C	-3.848810	-0.725753	-0.251174
C16	C	-3.789972	-0.593007	-0.251843
C17	C	-4.156131	-0.605987	-0.260269
C18	C	-4.214969	-0.738732	-0.259606
C19	C	-3.637408	-0.718257	-0.246306
C20	C	-3.578570	-0.585511	-0.246975
C21	C	-3.847700	-0.168543	-0.405713
C22	C	-3.889149	-0.167857	-0.499494
C23	C	-4.039841	-0.165201	-0.840240
C24	C	-3.802619	-0.157315	-0.799311
C25	C	-3.759610	-0.158554	-0.701816
C26	C	-3.965079	-0.166518	-0.671192
C27	C	-4.150798	-0.292034	-0.721821
C28	C	-4.192555	-0.291324	-0.819370
C29	C	-4.077234	-0.048574	-0.794394
C30	C	-4.029157	-0.047581	-0.696552
C31	C	-3.922841	-0.167267	-0.575654
C32	C	-4.082090	-0.164461	-0.935779
C33	C	-4.144683	0.060111	-0.254345
C34	C	-4.061299	0.201390	-0.255054
C35	C	-4.177983	-0.163183	-0.105720
C36	C	-4.115771	-0.163862	-0.011937
H37	H	-3.448528	-0.532429	-0.185978
H38	H	-3.705801	-0.243313	-0.685524
H39	H	-4.249993	-0.053235	-0.821210
H40	H	-3.971675	0.046528	-0.807761
H41	H	-3.770002	-0.241107	-0.830825
H42	H	-4.169554	-0.379614	-0.849753
H43	H	-3.556122	-0.742478	-0.183396
H44	H	-3.894289	0.045258	-0.662172
H45	H	-4.305497	-0.302401	-0.702908
H46	H	-4.108511	-0.380348	-0.705009
H47	H	-4.176212	-0.046019	-0.675204
H48	H	-3.605103	-0.765579	-0.303569
H49	H	-4.387999	-0.798051	-0.262776
H50	H	-3.528672	-0.556643	-0.306870
H51	H	-3.619678	-0.068309	-0.666791
H52	H	-4.281236	-0.557218	-0.263975
H53	H	-3.682982	-0.066643	-0.811673
H54	H	-4.368030	-0.302332	-0.847362
