data_functionalizedCrystal
_audit_creation_method	'MofGen! by Chris Wilmer'
_symmetry_space_group_name_H-M	'P1'
_symmetry_Int_Tables_number	1
_symmetry_cell_setting	triclinic
loop_
_symmetry_equiv_pos_as_xyz
  x,y,z
_cell_length_a	18.101398
_cell_length_b	18.050589
_cell_length_c	18.101389
_cell_angle_alpha	90.014016
_cell_angle_beta	90.024327
_cell_angle_gamma	90.023488
loop_
_atom_site_label
_atom_site_type_symbol
_atom_site_fract_x
_atom_site_fract_y
_atom_site_fract_z
Zn1	Zn	1.132136	-0.295831	0.418861
Zn2	Zn	1.382136	-0.045831	0.668861
Zn3	Zn	1.632136	0.204169	0.918861
Zn4	Zn	1.882136	0.454169	1.168861
Zn5	Zn	1.132038	-0.420005	0.295029
Zn6	Zn	1.382038	-0.170005	0.545029
Zn7	Zn	1.632038	0.079995	0.795029
Zn8	Zn	1.882038	0.329995	1.045029
Zn9	Zn	1.008295	-0.295823	0.295023
Zn10	Zn	1.258295	-0.045823	0.545023
Zn11	Zn	1.508295	0.204177	0.795023
Zn12	Zn	1.758295	0.454177	1.045023
Zn13	Zn	1.008252	-0.419974	0.418818
Zn14	Zn	1.258252	-0.169974	0.668818
Zn15	Zn	1.508252	0.080026	0.918818
Zn16	Zn	1.758252	0.330026	1.168818
O17	O	1.070180	-0.357908	0.356933
O18	O	1.320180	-0.107908	0.606933
O19	O	1.570180	0.142092	0.856933
O20	O	1.820180	0.392092	1.106933
O21	O	1.235756	-0.312320	0.402456
O22	O	1.485756	-0.062320	0.652456
O23	O	1.735756	0.187680	0.902456
O24	O	1.985756	0.437680	1.152456
O25	O	1.115600	-0.403542	0.191396
O26	O	1.365600	-0.153542	0.441396
O27	O	1.615600	0.096458	0.691396
O28	O	1.865600	0.346458	0.941396
O29	O	1.024782	-0.191900	0.311465
O30	O	1.274782	0.058100	0.561465
O31	O	1.524782	0.308100	0.811465
O32	O	1.774782	0.558100	1.061465
O33	O	1.235684	-0.403550	0.311477
O34	O	1.485684	-0.153550	0.561477
O35	O	1.735684	0.096450	0.811477
O36	O	1.985684	0.346450	1.061477
O37	O	1.115767	-0.191905	0.402449
O38	O	1.365767	0.058095	0.652449
O39	O	1.615767	0.308095	0.902449
O40	O	1.865767	0.558095	1.152449
O41	O	1.024687	-0.312306	0.191391
O42	O	1.274687	-0.062306	0.441391
O43	O	1.524687	0.187694	0.691391
O44	O	1.774687	0.437694	0.941391
O45	O	0.904656	-0.312276	0.311423
O46	O	1.154656	-0.062276	0.561423
O47	O	1.404656	0.187724	0.811423
O48	O	1.654656	0.437724	1.061423
O49	O	1.024708	-0.403496	0.522457
O50	O	1.274708	-0.153496	0.772457
O51	O	1.524708	0.096504	1.022457
O52	O	1.774708	0.346504	1.272457
O53	O	0.904625	-0.403488	0.402375
O54	O	1.154625	-0.153488	0.652375
O55	O	1.404625	0.096512	0.902375
O56	O	1.654625	0.346512	1.152375
O57	O	1.115725	-0.312289	0.522489
O58	O	1.365725	-0.062289	0.772489
O59	O	1.615725	0.187711	1.022489
O60	O	1.865725	0.437711	1.272489
O61	O	1.115558	-0.523926	0.311435
O62	O	1.365558	-0.273926	0.561435
O63	O	1.615558	-0.023926	0.811435
O64	O	1.865558	0.226074	1.061435
O65	O	1.024613	-0.523902	0.402382
O66	O	1.274613	-0.273902	0.652382
O67	O	1.524613	-0.023902	0.902382
O68	O	1.774613	0.226098	1.152382
C69	C	0.877770	-0.357878	0.356894
C70	C	1.127770	-0.107878	0.606894
C71	C	1.377770	0.142122	0.856894
C72	C	1.627770	0.392122	1.106894
C73	C	0.795455	-0.357883	0.356895
C74	C	1.045455	-0.107883	0.606895
C75	C	1.295455	0.142117	0.856895
C76	C	1.545455	0.392117	1.106895
C77	C	0.496364	-0.357930	0.356957
C78	C	0.746364	-0.107930	0.606957
C79	C	0.996364	0.142070	0.856957
C80	C	1.246364	0.392070	1.106957
C81	C	0.527685	-0.300254	0.300012
C82	C	0.777685	-0.050254	0.550012
C83	C	1.027685	0.199746	0.800012
C84	C	1.277685	0.449746	1.050012
C85	C	0.613303	-0.300409	0.299769
C86	C	0.863303	-0.050409	0.549769
C87	C	1.113303	0.199591	0.799769
C88	C	1.363303	0.449591	1.049769
C89	C	0.644747	-0.357906	0.356927
C90	C	0.894747	-0.107906	0.606927
C91	C	1.144747	0.142094	0.856927
C92	C	1.394747	0.392094	1.106927
C93	C	0.613633	-0.436133	0.335608
C94	C	0.863633	-0.186133	0.585608
C95	C	1.113633	0.063867	0.835608
C96	C	1.363633	0.313867	1.085608
C97	C	0.527988	-0.435813	0.335212
C98	C	0.777988	-0.185813	0.585212
C99	C	1.027988	0.064187	0.835212
C100	C	1.277988	0.314187	1.085212
C101	C	0.527978	-0.338057	0.435355
C102	C	0.777978	-0.088057	0.685355
C103	C	1.027978	0.161943	0.935355
C104	C	1.277978	0.411943	1.185355
C105	C	0.613629	-0.336315	0.434927
C106	C	0.863629	-0.086315	0.684927
C107	C	1.113629	0.163685	0.934927
C108	C	1.363629	0.413685	1.184927
C109	C	0.728606	-0.357897	0.356910
C110	C	0.978606	-0.107897	0.606910
C111	C	1.228606	0.142103	0.856910
C112	C	1.478606	0.392103	1.106910
C113	C	0.412505	-0.357943	0.356972
C114	C	0.662505	-0.107943	0.606972
C115	C	0.912505	0.142057	0.856972
C116	C	1.162505	0.392057	1.106972
C117	C	1.070091	-0.550860	0.356921
C118	C	1.320091	-0.300860	0.606921
C119	C	1.570091	-0.050860	0.856921
C120	C	1.820091	0.199140	1.106921
C121	C	1.070120	-0.633406	0.356940
C122	C	1.320120	-0.383406	0.606940
C123	C	1.570120	-0.133406	0.856940
C124	C	1.820120	0.116594	1.106940
C125	C	1.020713	-0.832871	0.406380
C126	C	1.270713	-0.582871	0.656380
C127	C	1.520713	-0.332871	0.906380
C128	C	1.770713	-0.082871	1.156380
C129	C	1.002661	-0.882299	0.338801
C130	C	1.252661	-0.632299	0.588801
C131	C	1.502661	-0.382299	0.838801
C132	C	1.752661	-0.132299	1.088801
C133	C	1.070193	-0.784537	0.356950
C134	C	1.320193	-0.534537	0.606950
C135	C	1.570193	-0.284537	0.856950
C136	C	1.820193	-0.034537	1.106950
C137	C	1.088281	-0.882191	0.424536
C138	C	1.338281	-0.632191	0.674536
C139	C	1.588281	-0.382191	0.924536
C140	C	1.838281	-0.132191	1.174536
C141	C	1.070262	-0.930522	0.356965
C142	C	1.320262	-0.680522	0.606965
C143	C	1.570262	-0.430522	0.856965
C144	C	1.820262	-0.180522	1.106965
C145	C	1.052106	-0.832877	0.289335
C146	C	1.302106	-0.582877	0.539335
C147	C	1.552106	-0.332877	0.789335
C148	C	1.802106	-0.082877	1.039335
C149	C	1.137757	-0.832765	0.375116
C150	C	1.387757	-0.582765	0.625116
C151	C	1.637757	-0.332765	0.875116
C152	C	1.887757	-0.082765	1.125116
C153	C	1.119731	-0.882170	0.307491
C154	C	1.369731	-0.632170	0.557491
C155	C	1.619731	-0.382170	0.807491
C156	C	1.869731	-0.132170	1.057491
C157	C	1.070151	-0.700438	0.356942
C158	C	1.320151	-0.450438	0.606942
C159	C	1.570151	-0.200438	0.856942
C160	C	1.820151	0.049562	1.106942
C161	C	1.070304	-1.014618	0.356965
C162	C	1.320304	-0.764618	0.606965
C163	C	1.570304	-0.514618	0.856965
C164	C	1.820304	-0.264618	1.106965
C165	C	1.263342	-0.357939	0.356972
C166	C	1.513342	-0.107939	0.606972
C167	C	1.763342	0.142061	0.856972
C168	C	2.013342	0.392061	1.106972
C169	C	1.345656	-0.357952	0.356989
C170	C	1.595656	-0.107952	0.606989
C171	C	1.845656	0.142048	0.856989
C172	C	2.095656	0.392048	1.106989
C173	C	1.070223	-0.357890	0.550095
C174	C	1.320223	-0.107890	0.800095
C175	C	1.570223	0.142110	1.050095
C176	C	1.820223	0.392110	1.300095
C177	C	1.070241	-0.357882	0.632409
C178	C	1.320241	-0.107882	0.882409
C179	C	1.570241	0.142118	1.132409
C180	C	1.820241	0.392118	1.382409
C181	C	1.070290	-0.164203	0.356961
C182	C	1.320290	0.085797	0.606961
C183	C	1.570290	0.335797	0.856961
C184	C	1.820290	0.585797	1.106961
C185	C	1.070337	-0.081657	0.356974
C186	C	1.320337	0.168343	0.606974
C187	C	1.570337	0.418343	0.856974
C188	C	1.820337	0.668343	1.106974
C189	C	1.070180	-0.357873	0.164522
C190	C	1.320180	-0.107873	0.414522
C191	C	1.570180	0.142127	0.664522
C192	C	1.820180	0.392127	0.914522
C193	C	1.070305	-0.357672	0.082209
C194	C	1.320305	-0.107672	0.332209
C195	C	1.570305	0.142328	0.582209
C196	C	1.820305	0.392328	0.832209
C197	C	1.070284	-0.357742	0.931500
C198	C	1.320284	-0.107742	1.181500
C199	C	1.570284	0.142258	1.431500
C200	C	1.820284	0.392258	1.681500
C201	C	1.012822	-0.414945	0.900155
C202	C	1.262822	-0.164945	1.150155
C203	C	1.512822	0.085055	1.400155
C204	C	1.762822	0.335055	1.650155
C205	C	1.012977	-0.415210	0.814536
C206	C	1.262977	-0.165210	1.064536
C207	C	1.512977	0.084790	1.314536
C208	C	1.762977	0.334790	1.564536
C209	C	1.070262	-0.357811	0.783117
C210	C	1.320262	-0.107811	1.033117
C211	C	1.570262	0.142189	1.283117
C212	C	1.820262	0.392189	1.533117
C213	C	1.148289	-0.379062	0.814225
C214	C	1.398289	-0.129062	1.064225
C215	C	1.648289	0.120938	1.314225
C216	C	1.898289	0.370938	1.564225
C217	C	1.147969	-0.379437	0.899870
C218	C	1.397969	-0.129437	1.149870
C219	C	1.647969	0.120563	1.399870
C220	C	1.897969	0.370563	1.649870
C221	C	1.050399	-0.279163	0.899918
C222	C	1.300399	-0.029163	1.149918
C223	C	1.550399	0.220837	1.399918
C224	C	1.800399	0.470837	1.649918
C225	C	1.048663	-0.279616	0.814267
C226	C	1.298663	-0.029616	1.064267
C227	C	1.548663	0.220384	1.314267
C228	C	1.798663	0.470384	1.564267
C229	C	1.070255	-0.357849	0.699258
C230	C	1.320255	-0.107849	0.949258
C231	C	1.570255	0.142151	1.199258
C232	C	1.820255	0.392151	1.449258
C233	C	1.070297	-0.357706	1.015360
C234	C	1.320297	-0.107706	1.265360
C235	C	1.570297	0.142294	1.515360
C236	C	1.820297	0.392294	1.765360
H237	H	0.506403	-0.282008	0.454739
H238	H	0.756403	-0.032008	0.704739
H239	H	1.006403	0.217992	0.954739
H240	H	1.256403	0.467992	1.204739
H241	H	1.103553	-0.903852	0.481687
H242	H	1.353553	-0.653852	0.731687
H243	H	1.603553	-0.403852	0.981687
H244	H	1.853553	-0.153852	1.231687
H245	H	0.507112	-0.242068	0.313227
H246	H	0.757112	0.007932	0.563227
H247	H	1.007112	0.257932	0.813227
H248	H	1.257112	0.507932	1.063227
H249	H	1.194849	-0.810992	0.390500
H250	H	1.444849	-0.560992	0.640500
H251	H	1.694849	-0.310992	0.890500
H252	H	1.944849	-0.060992	1.140500
H253	H	0.945556	-0.904073	0.323450
H254	H	1.195556	-0.654073	0.573450
H255	H	1.445556	-0.404073	0.823450
H256	H	1.695556	-0.154073	1.073450
H257	H	0.978808	-0.811224	0.448122
H258	H	1.228808	-0.561224	0.698122
H259	H	1.478808	-0.311224	0.948122
H260	H	1.728808	-0.061224	1.198122
H261	H	1.036768	-0.811305	0.232168
H262	H	1.286768	-0.561305	0.482168
H263	H	1.536768	-0.311305	0.732168
H264	H	1.786768	-0.061305	0.982168
H265	H	0.633970	-0.278749	0.451002
H266	H	0.883970	-0.028749	0.701002
H267	H	1.133970	0.221251	0.951002
H268	H	1.383970	0.471251	1.201002
H269	H	1.161604	-0.903680	0.265648
H270	H	1.411604	-0.653680	0.515648
H271	H	1.661604	-0.403680	0.765648
H272	H	1.911604	-0.153680	1.015648
H273	H	0.635048	-0.453280	0.278915
H274	H	0.885048	-0.203280	0.528915
H275	H	1.135048	0.046720	0.778915
H276	H	1.385048	0.296720	1.028915
H277	H	0.955117	-0.401912	0.793503
H278	H	1.205117	-0.151912	1.043503
H279	H	1.455117	0.098088	1.293503
H280	H	1.705117	0.348088	1.543503
H281	H	0.634000	-0.480257	0.375787
H282	H	0.884000	-0.230257	0.625787
H283	H	1.134000	0.019743	0.875787
H284	H	1.384000	0.269743	1.125787
H285	H	0.954788	-0.401782	0.920740
H286	H	1.204788	-0.151782	1.170740
H287	H	1.454788	0.098218	1.420740
H288	H	1.704788	0.348218	1.670740
H289	H	1.192253	-0.338707	0.793876
H290	H	1.442253	-0.088707	1.043876
H291	H	1.692253	0.161293	1.293876
H292	H	1.942253	0.411293	1.543876
H293	H	1.025820	-0.472835	0.921685
H294	H	1.275820	-0.222835	1.171685
H295	H	1.525820	0.027165	1.421685
H296	H	1.775820	0.277165	1.671685
H297	H	1.026106	-0.473456	0.794059
H298	H	1.276106	-0.223456	1.044059
H299	H	1.526106	0.026544	1.294059
H300	H	1.776106	0.276544	1.544059
H301	H	0.635036	-0.375263	0.479629
H302	H	0.885036	-0.125263	0.729629
H303	H	1.135036	0.124737	0.979629
H304	H	1.385036	0.374737	1.229629
H305	H	1.164826	-0.436880	0.919858
H306	H	1.414826	-0.186880	1.169858
H307	H	1.664826	0.063120	1.419858
H308	H	1.914826	0.313120	1.669858
H309	H	1.192234	-0.339582	0.920607
H310	H	1.442234	-0.089582	1.170607
H311	H	1.692234	0.160418	1.420607
H312	H	1.942234	0.410418	1.670607
H313	H	0.507724	-0.380066	0.477785
H314	H	0.757724	-0.130066	0.727785
H315	H	1.007724	0.119934	0.977785
H316	H	1.257724	0.369934	1.227785
H317	H	0.507268	-0.480240	0.374880
H318	H	0.757268	-0.230240	0.624880
H319	H	1.007268	0.019760	0.874880
H320	H	1.257268	0.269760	1.124880
H321	H	1.165437	-0.435894	0.792787
H322	H	1.415437	-0.185894	1.042787
H323	H	1.665437	0.064106	1.292787
H324	H	1.915437	0.314106	1.542787
H325	H	0.994491	-0.259803	0.921503
H326	H	1.244491	-0.009803	1.171503
H327	H	1.494491	0.240197	1.421503
H328	H	1.744491	0.490197	1.671503
H329	H	0.506136	-0.313242	0.242258
H330	H	0.756136	-0.063242	0.492258
H331	H	1.006136	0.186758	0.742258
H332	H	1.256136	0.436758	0.992258
H333	H	0.991242	-0.263592	0.793934
H334	H	1.241242	-0.013592	1.043934
H335	H	1.491242	0.236408	1.293934
H336	H	1.741242	0.486408	1.543934
H337	H	0.507977	-0.452667	0.277900
H338	H	0.757977	-0.202667	0.527900
H339	H	1.007977	0.047333	0.777900
H340	H	1.257977	0.297333	1.027900
H341	H	1.087462	-0.234735	0.792880
H342	H	1.337462	0.015265	1.042880
H343	H	1.587462	0.265265	1.292880
H344	H	1.837462	0.515265	1.542880
H345	H	0.634341	-0.242399	0.313131
H346	H	0.884341	0.007601	0.563131
H347	H	1.134341	0.257601	0.813131
H348	H	1.384341	0.507601	1.063131
H349	H	0.633757	-0.313545	0.241677
H350	H	0.883757	-0.063545	0.491677
H351	H	1.133757	0.186455	0.741677
H352	H	1.383757	0.436455	0.991677
H353	H	1.092252	-0.236544	0.920191
H354	H	1.342252	0.013456	1.170191
H355	H	1.592252	0.263456	1.420191
H356	H	1.842252	0.513456	1.670191
