data_functionalizedCrystal
_audit_creation_method	'MofGen! by Chris Wilmer'
_symmetry_space_group_name_H-M	'P1'
_symmetry_Int_Tables_number	1
_symmetry_cell_setting	triclinic
loop_
_symmetry_equiv_pos_as_xyz
  x,y,z
_cell_length_a	14.044220
_cell_length_b	19.288864
_cell_length_c	17.766277
_cell_angle_alpha	90.023209
_cell_angle_beta	89.993125
_cell_angle_gamma	91.837439
loop_
_atom_site_label
_atom_site_type_symbol
_atom_site_fract_x
_atom_site_fract_y
_atom_site_fract_z
O1	O	0.118215	-0.928949	-0.062840
O2	O	0.134161	-0.727713	-0.062789
O3	O	-0.011784	-0.825310	-0.062806
O4	O	0.264160	-0.831351	-0.062822
O5	O	-0.011791	-0.825291	0.062383
O6	O	0.134154	-0.727693	0.062400
O7	O	0.118207	-0.928929	0.062349
Cu8	Cu	0.126180	-0.828310	0.073805
Cu9	Cu	0.126189	-0.828332	-0.074245
O10	O	0.264152	-0.831332	0.062366
C11	C	-0.047091	-0.822656	-0.000211
C12	C	-0.152283	-0.814768	-0.000208
C13	C	0.133645	-0.701794	-0.000188
C14	C	0.132104	-0.624591	-0.000168
C15	C	0.118724	-0.954848	-0.000254
C16	C	0.120264	-1.032051	-0.000278
C17	C	-0.344882	-0.800348	-0.000215
C18	C	-0.402755	-0.856291	-0.000231
C19	C	-0.509924	-0.848267	-0.000235
C20	C	-0.237703	-0.808370	-0.000211
C21	C	0.299459	-0.833986	-0.000231
C22	C	0.404651	-0.841874	-0.000239
N23	N	0.126173	-0.828299	0.177935
C24	C	0.217738	-0.585397	-0.000185
C25	C	0.216291	-0.512857	-0.000193
C26	C	0.129205	-0.479514	-0.000200
C27	C	0.043560	-0.518717	-0.000178
C28	C	0.045010	-0.591256	-0.000163
C29	C	0.060749	-0.366860	-0.044080
C30	C	0.059303	-0.294323	-0.044100
C31	C	0.124731	-0.255781	-0.000245
C32	C	0.191621	-0.289785	0.043621
C33	C	0.193071	-0.362323	0.043637
C34	C	0.127624	-0.400858	-0.000216
C35	C	0.208802	-0.137930	-0.000270
C36	C	0.207351	-0.065389	-0.000273
C37	C	0.034617	-0.071251	-0.000266
C38	C	0.036071	-0.143790	-0.000255
C39	C	0.123165	-0.177126	-0.000260
N40	N	0.126188	-0.828348	-0.178375
C41	C	0.061580	-0.871532	0.217315
C42	C	0.061576	-0.871536	0.296116
C43	C	0.126181	-0.828314	0.335536
C44	C	0.190779	-0.785072	0.296147
C45	C	0.190775	-0.785064	0.217347
C46	C	0.212524	-0.824563	0.460370
C47	C	0.212529	-0.824575	0.539169
C48	C	0.126192	-0.828333	0.578582
C49	C	0.039847	-0.832093	0.539187
C50	C	0.039843	-0.832085	0.460387
C51	C	0.126192	-0.828317	0.420982
C52	C	0.061589	-0.871573	0.703407
C53	C	0.061583	-0.871572	0.782211
C54	C	0.190794	-0.785111	0.782240
C55	C	0.190792	-0.785109	0.703438
C56	C	0.126190	-0.828343	0.664027
H57	H	-0.371814	-0.910212	-0.000296
N58	N	0.297770	-0.171976	-0.000271
N59	N	0.374226	-0.136968	-0.000276
H60	H	0.437062	-0.161011	-0.000276
H61	H	-0.024726	-0.623168	-0.000149
H62	H	-0.036290	-0.044104	-0.000318
H63	H	0.277088	-0.033478	-0.000283
N64	N	-0.004381	-0.915711	0.336364
N65	N	-0.004355	-0.915718	0.406721
H66	H	-0.050932	-0.946920	0.435146
H67	H	-0.375822	-0.746431	-0.000203
H68	H	0.288658	-0.612534	-0.000191
N69	N	-0.004333	-0.915761	0.177070
N70	N	-0.061949	-0.954402	0.212246
H71	H	-0.108473	-0.985663	0.183822
H72	H	-0.033662	-0.175703	-0.000245
N73	N	0.258481	-0.250444	0.088423
N74	N	0.345865	-0.255603	0.077358
H75	H	0.393090	-0.227820	0.108996
N76	N	0.303777	-0.472821	-0.000206
N77	N	0.381530	-0.502593	-0.000207
H78	H	0.443318	-0.474320	-0.000216
N79	N	0.256800	-0.740971	0.822498
N80	N	0.344388	-0.747349	0.813685
H81	H	0.391006	-0.716173	0.842121
N82	N	-0.009017	-0.259602	-0.088919
N83	N	-0.067437	-0.294020	-0.128066
H84	H	-0.115689	-0.269501	-0.159722
H85	H	0.247532	-0.390006	0.079357
N86	N	0.300734	-0.820728	0.579391
N87	N	0.356684	-0.769663	0.570607
H88	H	0.418984	-0.766945	0.599011
H89	H	0.007467	-0.398235	-0.079797
H90	H	-0.027346	-0.491565	-0.000194
N91	N	-0.048357	-0.835925	0.420157
N92	N	-0.125441	-0.839282	0.455348
H93	H	-0.187735	-0.841992	0.426936
N94	N	-0.048344	-0.835922	0.579447
N95	N	-0.048333	-0.835915	0.649804
H96	H	-0.110615	-0.838616	0.678241
H97	H	0.008983	-0.906775	0.671317
N98	N	-0.004415	-0.915734	0.822427
N99	N	-0.062087	-0.954328	0.787225
H100	H	-0.108701	-0.985519	0.815627
H101	H	0.243393	-0.749907	0.671373
H102	H	0.282834	-0.821491	0.428286
H103	H	0.243379	-0.749878	0.328246
H104	H	0.243375	-0.749858	0.185284
