data_functionalizedCrystal
_audit_creation_method	'MofGen! by Chris Wilmer'
_symmetry_space_group_name_H-M	'P1'
_symmetry_Int_Tables_number	1
_symmetry_cell_setting	triclinic
loop_
_symmetry_equiv_pos_as_xyz
  x,y,z
_cell_length_a	8.597340
_cell_length_b	10.489746
_cell_length_c	7.681481
_cell_angle_alpha	84.198774
_cell_angle_beta	103.474906
_cell_angle_gamma	84.938432
loop_
_atom_site_label
_atom_site_type_symbol
_atom_site_fract_x
_atom_site_fract_y
_atom_site_fract_z
O1	O	2.101875	0.176391	0.172462
O2	O	1.638048	0.196714	0.102087
O3	O	1.880513	0.000876	0.138888
O4	O	1.859410	0.372229	0.135660
O5	O	1.910355	-0.023283	0.436276
O6	O	1.667891	0.172555	0.399474
O7	O	2.131718	0.152232	0.469849
Zn8	Zn	1.904542	0.158558	0.481878
Zn9	Zn	1.865223	0.190388	0.090058
O10	O	1.889253	0.348070	0.433048
C11	C	1.593576	0.183798	0.241769
C12	C	1.416603	0.181289	0.214918
C13	C	1.893838	-0.058723	0.287339
C14	C	1.889065	-0.200317	0.286614
C15	C	1.731965	-0.352011	0.262756
C16	C	1.795794	-0.263289	0.128049
C17	C	1.825254	-0.287149	0.421255
C18	C	1.944454	-0.363869	0.150469
C19	C	1.973905	-0.387745	0.443803
C20	C	2.037839	-0.299069	0.309077
C21	C	2.176189	0.165148	0.330163
C22	C	2.353161	0.167658	0.357002
C23	C	1.875927	0.407670	0.284592
C24	C	1.880698	0.549264	0.285306
N25	N	1.931388	0.136833	0.749287
N26	N	1.838390	0.212102	-0.177349
H27	H	1.335519	0.191042	0.072715
C28	C	2.011374	-0.408981	-0.002280
C29	C	2.006027	-0.542066	-0.001270
C30	C	2.067632	-0.583667	-0.141971
H31	H	2.119677	-0.390646	0.013579
H32	H	1.948459	-0.365270	-0.114282
H33	H	2.068943	-0.585762	0.110704
H34	H	1.897742	-0.560435	-0.017153
H35	H	2.004717	-0.539956	-0.253973
H36	H	2.175932	-0.565324	-0.126100
H37	H	2.063999	-0.673965	-0.141315
H38	H	1.743457	0.288929	0.733045
C39	C	1.758395	-0.242154	0.574111
C40	C	1.850372	-0.307546	0.738896
C41	C	1.788836	-0.266122	0.879739
H42	H	1.649812	-0.259849	0.557710
H43	H	1.762874	-0.151993	0.574288
H44	H	1.845877	-0.397686	0.738717
H45	H	1.958955	-0.289859	0.755354
H46	H	1.793315	-0.175961	0.879916
H47	H	1.680254	-0.283819	0.863321
H48	H	1.851241	-0.310475	0.991563
C49	C	2.057881	0.034202	0.868528
C50	C	2.025868	-0.087438	0.818935
C51	C	2.142366	-0.182009	0.928723
H52	H	2.055082	0.036391	0.991090
H53	H	2.161430	0.050365	0.854051
H54	H	1.922346	-0.103597	0.833427
H55	H	2.028682	-0.089669	0.696390
H56	H	2.245915	-0.165846	0.914246
H57	H	2.139557	-0.179808	1.051279
H58	H	2.120669	-0.264551	0.895079
H59	H	1.434238	0.157897	0.499195
C60	C	2.074391	-0.459657	0.621763
C61	C	2.233713	-0.431479	0.647060
C62	C	2.326308	-0.497693	0.810999
H63	H	2.071611	-0.549826	0.619714
H64	H	2.031917	-0.433494	0.717873
H65	H	2.276176	-0.457649	0.550975
H66	H	2.236543	-0.341322	0.649144
H67	H	2.283835	-0.471530	0.907108
H68	H	2.323516	-0.587859	0.808934
H69	H	2.434415	-0.478574	0.828191
H70	H	1.602620	-0.375762	0.242987
H71	H	1.720566	-0.209279	-0.005440
C72	C	2.210307	-0.267444	0.335230
C73	C	2.213101	-0.134333	0.337137
C74	C	2.371949	-0.105155	0.361235
H75	H	2.252589	-0.293629	0.239026
H76	H	2.273883	-0.311750	0.446516
H77	H	2.149550	-0.090043	0.225865
H78	H	2.170852	-0.108117	0.433338
H79	H	2.435525	-0.149461	0.472521
H80	H	2.414218	-0.131347	0.265028
H81	H	2.373868	-0.014839	0.362549
