data_functionalizedCrystal
_audit_creation_method	'MofGen! by Chris Wilmer'
_symmetry_space_group_name_H-M	'P1'
_symmetry_Int_Tables_number	1
_symmetry_cell_setting	triclinic
loop_
_symmetry_equiv_pos_as_xyz
  x,y,z
_cell_length_a	16.992694
_cell_length_b	10.654550
_cell_length_c	15.455313
_cell_angle_alpha	92.692163
_cell_angle_beta	87.142206
_cell_angle_gamma	87.576563
loop_
_atom_site_label
_atom_site_type_symbol
_atom_site_fract_x
_atom_site_fract_y
_atom_site_fract_z
O1	O	1.045244	0.261289	-0.072018
O2	O	0.816944	0.258364	-0.072044
O3	O	0.936343	0.077541	-0.072027
O4	O	0.925845	0.442112	-0.072035
O5	O	0.929515	0.087836	0.072234
O6	O	0.810116	0.268659	0.072217
O7	O	1.038416	0.271584	0.072243
Cu8	Cu	0.923642	0.271061	0.085402
Cu9	Cu	0.931717	0.258886	-0.085203
O10	O	0.919017	0.452406	0.072226
C11	C	0.784297	0.259751	0.000083
C12	C	0.697192	0.248531	0.000074
C13	C	0.647540	0.356782	0.000072
C14	C	0.565696	0.346233	0.000084
C15	C	0.533505	0.227433	0.000092
C16	C	0.583163	0.119174	0.000096
C17	C	0.665006	0.129724	0.000090
C18	C	0.289668	0.183707	0.000116
C19	C	0.207819	0.173165	0.000119
C20	C	0.190358	0.400226	0.000109
C21	C	0.272203	0.410765	0.000098
C22	C	0.321854	0.302507	0.000107
N23	N	0.449847	0.216648	0.000102
N24	N	0.405510	0.313293	0.000103
C25	C	0.932158	0.035824	0.000102
C26	C	0.929852	-0.103819	0.000099
C27	C	1.000152	-0.177229	0.000109
C28	C	0.997980	-0.308438	0.000103
C29	C	0.855203	-0.292815	0.000079
C30	C	0.857375	-0.161609	0.000080
C31	C	1.072629	-0.119439	0.000129
C32	C	1.142934	-0.192850	0.000140
C33	C	1.140763	-0.324059	0.000134
C34	C	1.068286	-0.381857	0.000116
C35	C	1.071063	0.270196	0.000114
C36	C	1.158168	0.281416	0.000118
C37	C	0.923202	0.494124	0.000095
C38	C	0.925508	0.633766	0.000093
N39	N	0.917968	0.279624	0.205397
N40	N	0.937397	0.250314	-0.205198
C41	C	0.968711	0.202836	0.250798
C42	C	0.964428	0.209324	0.341605
C43	C	0.909405	0.292607	0.387010
C44	C	0.858656	0.369399	0.341602
C45	C	0.862937	0.362903	0.250797
C46	C	0.890929	0.320610	0.658589
C47	C	0.886654	0.327102	0.749401
C48	C	0.992425	0.167025	0.749398
C49	C	0.996704	0.160543	0.658590
C50	C	0.945953	0.237329	0.613191
N51	N	0.905027	0.299244	0.479830
N52	N	0.950328	0.230685	0.520373
H53	H	0.673743	0.453522	0.000065
H54	H	0.841845	0.394926	0.786365
H55	H	1.201944	-0.145783	0.000133
O56	O	1.013750	0.134923	0.385808
C57	C	1.115940	0.126385	0.488285
C58	C	1.060111	0.210792	0.438294
H59	H	1.153448	0.187691	0.530718
H60	H	1.079768	0.063245	0.530867
H61	H	1.155973	0.065718	0.440224
H62	H	1.020066	0.271536	0.486292
H63	H	1.096331	0.273848	0.395699
H64	H	1.074405	-0.012603	0.000137
O65	O	0.805275	0.450270	0.385840
C66	C	0.751776	0.531175	0.525729
C67	C	0.812278	0.439548	0.475742
H68	H	0.757406	0.522518	0.598423
H69	H	0.763381	0.631606	0.507926
H70	H	0.689706	0.507169	0.507835
H71	H	0.874372	0.463438	0.493609
H72	H	0.800604	0.339143	0.493549
H73	H	0.821616	0.425431	0.213832
O74	O	1.050173	0.079527	0.614622
C75	C	1.154662	-0.078510	0.624204
C76	C	1.094130	0.013158	0.674107
H77	H	1.190228	-0.132175	0.672276
H78	H	1.122495	-0.147833	0.581726
H79	H	1.196114	-0.023311	0.581657
H80	H	1.052661	-0.041937	0.716701
H81	H	1.126348	0.082481	0.716530
H82	H	0.525272	0.434383	0.000082
H83	H	0.330084	0.095555	0.000124
O84	O	0.303504	0.526138	-0.000083
C85	C	0.389301	0.664448	-0.074862
C86	C	0.353903	0.533748	-0.074755
H87	H	0.430069	0.670634	-0.135219
H88	H	0.339776	0.740037	-0.074927
H89	H	0.424306	0.679402	-0.014476
H90	H	0.318906	0.518672	-0.135131
H91	H	0.403464	0.458226	-0.074645
O92	O	0.551767	0.003864	0.000066
C93	C	0.433424	-0.113017	0.000128
C94	C	0.468873	0.017649	0.000145
H95	H	0.366398	-0.101915	0.000210
H96	H	0.456616	-0.171264	-0.060257
H97	H	0.451020	-0.162610	0.060489
H98	H	0.451291	0.067349	-0.060175
H99	H	0.445682	0.075803	0.060570
H100	H	0.149924	0.488363	0.000104
O101	O	0.784791	-0.348910	-0.000085
C102	C	0.665612	-0.380981	-0.074811
C103	C	0.745340	-0.317407	-0.074746
H104	H	0.633686	-0.355514	-0.135158
H105	H	0.676093	-0.487381	-0.074863
H106	H	0.628009	-0.347043	-0.014415
H107	H	0.782985	-0.351244	-0.135131
H108	H	0.734802	-0.211015	-0.074648
H109	H	1.033743	0.104508	0.786370
H110	H	0.849607	0.383135	0.621632
O111	O	1.022184	0.121825	0.206831
C112	C	1.126670	-0.036215	0.216422
C113	C	1.066137	0.055458	0.266320
H114	H	1.162233	-0.089878	0.264497
H115	H	1.094504	-0.105539	0.173944
H116	H	1.168125	0.018981	0.173875
H117	H	1.024666	0.000368	0.308914
H118	H	1.098355	0.124783	0.308743
H119	H	0.181613	0.076419	0.000125
H120	H	0.705432	0.041574	0.000091
H121	H	1.198010	-0.383827	0.000134
H122	H	1.066524	-0.488698	0.000102
H123	H	0.800130	-0.101836	0.000072
