data_functionalizedCrystal
_audit_creation_method	'MofGen! by Chris Wilmer'
_symmetry_space_group_name_H-M	'P1'
_symmetry_Int_Tables_number	1
_symmetry_cell_setting	triclinic
loop_
_symmetry_equiv_pos_as_xyz
  x,y,z
_cell_length_a	25.639242
_cell_length_b	29.839131
_cell_length_c	25.639234
_cell_angle_alpha	89.974256
_cell_angle_beta	89.970648
_cell_angle_gamma	90.036947
loop_
_atom_site_label
_atom_site_type_symbol
_atom_site_fract_x
_atom_site_fract_y
_atom_site_fract_z
Zn1	Zn	0.799252	-0.178934	-0.295739
Zn2	Zn	1.132586	0.154399	0.037594
Zn3	Zn	1.465919	0.487732	0.370927
Zn4	Zn	0.799161	-0.254057	-0.208302
Zn5	Zn	1.132494	0.079277	0.125031
Zn6	Zn	1.465827	0.412610	0.458364
Zn7	Zn	0.711818	-0.178936	-0.208303
Zn8	Zn	1.045151	0.154398	0.125030
Zn9	Zn	1.378484	0.487731	0.458363
Zn10	Zn	0.711769	-0.254032	-0.295692
Zn11	Zn	1.045103	0.079301	0.037641
Zn12	Zn	1.378436	0.412635	0.370975
O13	O	0.755500	-0.216490	-0.252009
O14	O	1.088833	0.116844	0.081324
O15	O	1.422167	0.450177	0.414657
O16	O	0.872405	-0.188909	-0.284160
O17	O	1.205739	0.144424	0.049174
O18	O	1.539072	0.477758	0.382507
O19	O	0.787556	-0.244103	-0.135137
O20	O	1.120889	0.089230	0.198196
O21	O	1.454223	0.422564	0.531530
O22	O	0.723474	-0.116068	-0.219922
O23	O	1.056808	0.217265	0.113411
O24	O	1.390141	0.550598	0.446745
O25	O	0.872338	-0.244101	-0.219920
O26	O	1.205671	0.089232	0.113413
O27	O	1.539005	0.422565	0.446746
O28	O	0.787712	-0.116067	-0.284161
O29	O	1.121046	0.217266	0.049173
O30	O	1.454379	0.550599	0.382506
O31	O	0.723386	-0.188912	-0.135138
O32	O	1.056719	0.144422	0.198195
O33	O	1.390052	0.477755	0.531529
O34	O	0.638646	-0.188888	-0.219876
O35	O	0.971979	0.144446	0.113457
O36	O	1.305313	0.477779	0.446790
O37	O	0.723392	-0.244059	-0.368864
O38	O	1.056726	0.089274	-0.035530
O39	O	1.390059	0.422607	0.297803
O40	O	0.638611	-0.244061	-0.284081
O41	O	0.971944	0.089273	0.049253
O42	O	1.305277	0.422606	0.382586
O43	O	0.787666	-0.188885	-0.368898
O44	O	1.120999	0.144448	-0.035565
O45	O	1.454332	0.477782	0.297768
O46	O	0.787509	-0.316921	-0.219875
O47	O	1.120843	0.016413	0.113459
O48	O	1.454176	0.349746	0.446792
O49	O	0.723304	-0.316903	-0.284080
O50	O	1.056637	0.016431	0.049254
O51	O	1.389970	0.349764	0.382587
C52	C	0.619657	-0.216472	-0.251974
C53	C	0.952991	0.116861	0.081360
C54	C	1.286324	0.450195	0.414693
C55	C	0.561543	-0.216475	-0.251971
C56	C	0.894877	0.116858	0.081362
C57	C	1.228210	0.450191	0.414696
C58	C	0.755406	-0.333212	-0.251983
C59	C	1.088739	0.000121	0.081350
C60	C	1.422072	0.333454	0.414683
C61	C	0.755413	-0.383147	-0.251990
C62	C	1.088746	-0.049813	0.081344
C63	C	1.422080	0.283520	0.414677
C64	C	0.201171	-0.245266	-0.285409
C65	C	0.534504	0.088067	0.047925
C66	C	0.867837	0.421400	0.381258
C67	C	0.146566	-0.245269	-0.285417
C68	C	0.479900	0.088064	0.047916
C69	C	0.813233	0.421398	0.381250
O70	O	0.118322	-0.269726	-0.313817
O71	O	0.451655	0.063607	0.019517
O72	O	0.784988	0.396940	0.352850
N73	N	0.119261	-0.216502	-0.252043
N74	N	0.452594	0.116831	0.081290
N75	N	0.785928	0.450165	0.414623
C76	C	0.146562	-0.187727	-0.218663
C77	C	0.479896	0.145606	0.114670
C78	C	0.813229	0.478939	0.448004
O79	O	0.118323	-0.163259	-0.190277
O80	O	0.451656	0.170075	0.143056
O81	O	0.784990	0.503408	0.476389
C82	C	0.201166	-0.187723	-0.218658
C83	C	0.534499	0.145611	0.114675
C84	C	0.867832	0.478944	0.448009
C85	C	0.228469	-0.216495	-0.252030
C86	C	0.561802	0.116839	0.081303
C87	C	0.895135	0.450172	0.414637
C88	C	0.228474	-0.274036	-0.318778
C89	C	0.561807	0.059298	0.014555
C90	C	0.895140	0.392631	0.347888
C91	C	0.283074	-0.274033	-0.318769
C92	C	0.616407	0.059300	0.014564
C93	C	0.949741	0.392633	0.347897
C94	C	0.310372	-0.245262	-0.285391
C95	C	0.643705	0.088072	0.047943
C96	C	0.977039	0.421405	0.381276
C97	C	0.283069	-0.216492	-0.252021
C98	C	0.616402	0.116841	0.081313
C99	C	0.949736	0.450174	0.414646
C100	C	0.228466	-0.158946	-0.185281
C101	C	0.561800	0.174387	0.148053
C102	C	0.895133	0.507721	0.481386
C103	C	0.283073	-0.158943	-0.185279
C104	C	0.616407	0.174390	0.148055
C105	C	0.949740	0.507723	0.481388
C106	C	0.310376	-0.187716	-0.218651
C107	C	0.643709	0.145618	0.114683
C108	C	0.977043	0.478951	0.448016
C109	C	0.364967	-0.187719	-0.218633
C110	C	0.698301	0.145615	0.114700
C111	C	1.031634	0.478948	0.448034
N112	N	0.392273	-0.216485	-0.252007
N113	N	0.725606	0.116848	0.081327
N114	N	1.058940	0.450181	0.414660
C115	C	0.364975	-0.245257	-0.285385
C116	C	0.698309	0.088076	0.047948
C117	C	1.031642	0.421410	0.381281
C118	C	0.031892	-0.187739	-0.218677
C119	C	0.365225	0.145595	0.114656
C120	C	0.698558	0.478928	0.447989
C121	C	-0.022711	-0.187745	-0.218679
C122	C	0.310623	0.145588	0.114654
C123	C	0.643956	0.478921	0.447987
C124	C	-0.022703	-0.245287	-0.285434
C125	C	0.310631	0.088047	0.047899
C126	C	0.643964	0.421380	0.381233
C127	C	0.031901	-0.245282	-0.285429
C128	C	0.365234	0.088051	0.047904
C129	C	0.698567	0.421385	0.381238
C130	C	0.059197	-0.216506	-0.252051
C131	C	0.392531	0.116828	0.081283
C132	C	0.725864	0.450161	0.414616
C133	C	0.479640	-0.245250	-0.285363
C134	C	0.812974	0.088083	0.047970
C135	C	1.146307	0.421416	0.381303
C136	C	0.534246	-0.245247	-0.285350
C137	C	0.867579	0.088086	0.047984
C138	C	1.200912	0.421420	0.381317
C139	C	0.534233	-0.187704	-0.218597
C140	C	0.867566	0.145629	0.114736
C141	C	1.200900	0.478962	0.448069
C142	C	0.479632	-0.187709	-0.218609
C143	C	0.812966	0.145624	0.114725
C144	C	1.146299	0.478958	0.448058
C145	C	0.452337	-0.216484	-0.251996
C146	C	0.785671	0.116850	0.081337
C147	C	1.119004	0.450183	0.414671
O148	O	0.393247	-0.163273	-0.190249
O149	O	0.726580	0.170061	0.143084
O150	O	1.059914	0.503394	0.476418
O151	O	0.393221	-0.269717	-0.313771
O152	O	0.726555	0.063616	0.019562
O153	O	1.059888	0.396949	0.352896
C154	C	0.788993	-0.692787	-0.218627
C155	C	1.122326	-0.359454	0.114707
C156	C	1.455659	-0.026120	0.448040
C157	C	0.789057	-0.880460	-0.218647
C158	C	1.122391	-0.547127	0.114686
C159	C	1.455724	-0.213793	0.448020
O160	O	0.817533	-0.904722	-0.190260
O161	O	1.150866	-0.571389	0.143073
O162	O	1.484200	-0.238055	0.476406
N163	N	0.755608	-0.903932	-0.252049
N164	N	1.088942	-0.570598	0.081285
N165	N	1.422275	-0.237265	0.414618
C166	C	0.722143	-0.880482	-0.285450
C167	C	1.055477	-0.547149	0.047883
C168	C	1.388810	-0.213816	0.381216
O169	O	0.693698	-0.904753	-0.313865
O170	O	1.027032	-0.571420	0.019469
O171	O	1.360365	-0.238086	0.352802
C172	C	0.722082	-0.692810	-0.285432
C173	C	1.055415	-0.359477	0.047901
C174	C	1.388749	-0.026144	0.381235
C175	C	0.755529	-0.669341	-0.252024
C176	C	1.088863	-0.336008	0.081309
C177	C	1.422196	-0.002674	0.414642
C178	C	0.822438	-0.669318	-0.185222
C179	C	1.155771	-0.335984	0.148111
C180	C	1.489104	-0.002651	0.481445
C181	C	0.822419	-0.622402	-0.185215
C182	C	1.155753	-0.289069	0.148118
C183	C	1.489086	0.044265	0.481451
C184	C	0.788956	-0.598956	-0.218613
C185	C	1.122289	-0.265623	0.114720
C186	C	1.455622	0.067711	0.448054
C187	C	0.755511	-0.622425	-0.252018
C188	C	1.088844	-0.289092	0.081316
C189	C	1.422177	0.044241	0.414649
C190	C	0.688620	-0.669362	-0.318836
C191	C	1.021953	-0.336028	0.014497
C192	C	1.355287	-0.002695	0.347831
C193	C	0.688608	-0.622441	-0.318829
C194	C	1.021942	-0.289107	0.014504
C195	C	1.355275	0.044226	0.347837
C196	C	0.722056	-0.598971	-0.285422
C197	C	1.055389	-0.265638	0.047912
C198	C	1.388722	0.067695	0.381245
C199	C	0.722029	-0.552064	-0.285409
C200	C	1.055362	-0.218731	0.047925
C201	C	1.388695	0.114603	0.381258
N202	N	0.755478	-0.528592	-0.252007
N203	N	1.088811	-0.195259	0.081326
N204	N	1.422144	0.138074	0.414660
C205	C	0.788941	-0.552038	-0.218609
C206	C	1.122274	-0.218705	0.114724
C207	C	1.455608	0.114628	0.448058
C208	C	0.722177	-0.979013	-0.285457
C209	C	1.055511	-0.645680	0.047877
C210	C	1.388844	-0.312346	0.381210
C211	C	0.722192	-1.025931	-0.285461
C212	C	1.055525	-0.692598	0.047873
C213	C	1.388859	-0.359264	0.381206
C214	C	0.789107	-1.025905	-0.218658
C215	C	1.122440	-0.692572	0.114676
C216	C	1.455773	-0.359238	0.448009
C217	C	0.789089	-0.978986	-0.218652
C218	C	1.122422	-0.645653	0.114682
C219	C	1.455756	-0.312320	0.448015
C220	C	0.755626	-0.955541	-0.252055
C221	C	1.088960	-0.622208	0.081279
C222	C	1.422293	-0.288875	0.414612
C223	C	0.788899	-0.453512	-0.218597
C224	C	1.122233	-0.120179	0.114736
C225	C	1.455566	0.213154	0.448070
C226	C	0.788877	-0.406593	-0.218592
C227	C	1.122210	-0.073259	0.114742
C228	C	1.455543	0.260074	0.448075
C229	C	0.721964	-0.406623	-0.285396
C230	C	1.055297	-0.073289	0.047937
C231	C	1.388631	0.260044	0.381270
C232	C	0.721985	-0.453538	-0.285400
C233	C	1.055318	-0.120205	0.047933
C234	C	1.388651	0.213129	0.381267
C235	C	0.755457	-0.476982	-0.251999
C236	C	1.088790	-0.143649	0.081335
C237	C	1.422123	0.189685	0.414668
O238	O	0.693572	-0.527773	-0.313785
O239	O	1.026905	-0.194440	0.019549
O240	O	1.360239	0.138894	0.352882
O241	O	0.817390	-0.527760	-0.190207
O242	O	1.150723	-0.194426	0.143126
O243	O	1.484057	0.138907	0.476460
C244	C	0.789011	-0.739702	-0.218633
C245	C	1.122345	-0.406369	0.114700
C246	C	1.455678	-0.073036	0.448033
C247	C	0.755566	-0.763172	-0.252038
C248	C	1.088900	-0.429838	0.081295
C249	C	1.422233	-0.096505	0.414629
C250	C	0.722103	-0.739726	-0.285436
C251	C	1.055436	-0.406392	0.047898
C252	C	1.388769	-0.073059	0.381231
C253	C	0.755581	-0.810090	-0.252042
C254	C	1.088914	-0.476756	0.081291
C255	C	1.422247	-0.143423	0.414625
C256	C	0.789044	-0.833536	-0.218644
C257	C	1.122378	-0.500202	0.114689
C258	C	1.455711	-0.166869	0.448023
C259	C	0.822493	-0.810064	-0.185242
C260	C	1.155827	-0.476731	0.148091
C261	C	1.489160	-0.143397	0.481424
C262	C	0.822475	-0.763148	-0.185235
C263	C	1.155808	-0.429815	0.148098
C264	C	1.489141	-0.096482	0.481431
C265	C	0.688654	-0.763198	-0.318838
C266	C	1.021987	-0.429864	0.014496
C267	C	1.355320	-0.096531	0.347829
C268	C	0.688675	-0.810113	-0.318841
C269	C	1.022008	-0.476780	0.014492
C270	C	1.355341	-0.143446	0.347825
C271	C	0.722138	-0.833559	-0.285443
C272	C	1.055471	-0.500226	0.047890
C273	C	1.388805	-0.166892	0.381223
C274	C	0.891873	-0.216508	-0.252045
C275	C	1.225206	0.116825	0.081288
C276	C	1.558540	0.450159	0.414622
C277	C	0.949987	-0.216516	-0.252060
C278	C	1.283320	0.116818	0.081273
C279	C	1.616654	0.450151	0.414606
C280	C	0.755534	-0.216469	-0.388382
C281	C	1.088867	0.116864	-0.055049
C282	C	1.422201	0.450197	0.278284
C283	C	0.755548	-0.216461	-0.446496
C284	C	1.088882	0.116873	-0.113163
C285	C	1.422215	0.450206	0.220170
C286	C	0.755609	-0.099311	-0.252047
C287	C	1.088942	0.234022	0.081287
C288	C	1.422276	0.567355	0.414620
C289	C	0.755655	-0.049377	-0.252063
C290	C	1.088989	0.283956	0.081271
C291	C	1.422322	0.617290	0.414604
C292	C	0.722150	-0.187669	-0.806865
C293	C	1.055483	0.145664	-0.473532
C294	C	1.388816	0.478998	-0.140199
C295	C	0.722152	-0.187661	-0.861470
C296	C	1.055486	0.145672	-0.528136
C297	C	1.388819	0.479006	-0.194803
O298	O	0.693729	-0.163231	-0.889712
O299	O	1.027062	0.170103	-0.556378
O300	O	1.360396	0.503436	-0.223045
N301	N	0.755566	-0.216390	-0.888779
N302	N	1.088899	0.116943	-0.555446
N303	N	1.422232	0.450277	-0.222112
C304	C	0.788975	-0.245132	-0.861481
C305	C	1.122308	0.088201	-0.528148
C306	C	1.455642	0.421534	-0.194814
O307	O	0.817396	-0.269568	-0.889724
O308	O	1.150729	0.063765	-0.556390
O309	O	1.484062	0.397098	-0.223057
C310	C	0.788969	-0.245143	-0.806878
C311	C	1.122302	0.088191	-0.473544
C312	C	1.455636	0.421524	-0.140211
C313	C	0.755557	-0.216408	-0.779571
C314	C	1.088890	0.116925	-0.446238
C315	C	1.422224	0.450258	-0.112905
C316	C	0.688740	-0.158937	-0.779559
C317	C	1.022073	0.174396	-0.446226
C318	C	1.355407	0.507729	-0.112892
C319	C	0.688738	-0.158945	-0.724958
C320	C	1.022071	0.174388	-0.391625
C321	C	1.355405	0.507722	-0.058292
C322	C	0.722146	-0.187684	-0.697664
C323	C	1.055479	0.145649	-0.364331
C324	C	1.388812	0.478982	-0.030998
C325	C	0.755555	-0.216416	-0.724971
C326	C	1.088888	0.116917	-0.391637
C327	C	1.422222	0.450251	-0.058304
C328	C	0.822375	-0.273887	-0.779581
C329	C	1.155708	0.059446	-0.446247
C330	C	1.489042	0.392780	-0.112914
C331	C	0.822366	-0.273895	-0.724974
C332	C	1.155699	0.059439	-0.391640
C333	C	1.489033	0.392772	-0.058307
C334	C	0.788954	-0.245160	-0.697667
C335	C	1.122287	0.088173	-0.364334
C336	C	1.455621	0.421506	-0.031001
C337	C	0.788961	-0.245163	-0.643076
C338	C	1.122294	0.088170	-0.309743
C339	C	1.455627	0.421504	0.023591
N340	N	0.755547	-0.216434	-0.615767
N341	N	1.088881	0.116900	-0.282434
N342	N	1.422214	0.450233	0.050900
C343	C	0.722140	-0.187694	-0.643061
C344	C	1.055473	0.145639	-0.309728
C345	C	1.388806	0.478972	0.023606
C346	C	0.788984	-0.245110	-0.976152
C347	C	1.122317	0.088224	-0.642818
C348	C	1.455651	0.421557	-0.309485
C349	C	0.788993	-0.245098	-1.030754
C350	C	1.122326	0.088236	-0.697421
C351	C	1.455660	0.421569	-0.364087
C352	C	0.722169	-0.187627	-1.030739
C353	C	1.055503	0.145707	-0.697406
C354	C	1.388836	0.479040	-0.364072
C355	C	0.722164	-0.187637	-0.976136
C356	C	1.055497	0.145697	-0.642802
C357	C	1.388830	0.479030	-0.309469
C358	C	0.755571	-0.216381	-0.948843
C359	C	1.088904	0.116953	-0.615509
C360	C	1.422237	0.450286	-0.282176
C361	C	0.722138	-0.187712	-0.528396
C362	C	1.055472	0.145621	-0.195062
C363	C	1.388805	0.478954	0.138271
C364	C	0.722141	-0.187721	-0.473790
C365	C	1.055474	0.145612	-0.140457
C366	C	1.388807	0.478945	0.192876
C367	C	0.788962	-0.245194	-0.473810
C368	C	1.122295	0.088139	-0.140477
C369	C	1.455629	0.421473	0.192856
C370	C	0.788962	-0.245184	-0.528411
C371	C	1.122295	0.088150	-0.195078
C372	C	1.455628	0.421483	0.138256
C373	C	0.755546	-0.216441	-0.555702
C374	C	1.088879	0.116892	-0.222369
C375	C	1.422212	0.450225	0.110964
O376	O	0.817368	-0.269582	-0.614800
O377	O	1.150701	0.063752	-0.281466
O378	O	1.484035	0.397085	0.051867
O379	O	0.693719	-0.163267	-0.614812
O380	O	1.027052	0.170067	-0.281478
O381	O	1.360386	0.503400	0.051855
C382	C	0.755496	-0.216478	-0.116167
C383	C	1.088830	0.116856	0.217167
C384	C	1.422163	0.450189	0.550500
C385	C	0.755583	-0.216360	-0.058053
C386	C	1.088916	0.116973	0.275280
C387	C	1.422250	0.450307	0.608614
H388	H	0.556473	-0.268678	-0.312526
H389	H	0.889806	0.064655	0.020808
H390	H	1.223140	0.397988	0.354141
C391	C	0.825707	-0.276807	-0.443776
C392	C	1.159040	0.056526	-0.110443
C393	C	1.492374	0.389860	0.222890
N394	N	0.853380	-0.300621	-0.421153
N395	N	1.186714	0.032712	-0.087820
N396	N	1.520047	0.366046	0.245514
H397	H	0.849656	-0.603296	-0.158013
H398	H	1.182990	-0.269963	0.175320
H399	H	1.516323	0.063371	0.508653
H400	H	0.816157	-0.472595	-0.191400
H401	H	1.149490	-0.139261	0.141934
H402	H	1.482823	0.194072	0.475267
H403	H	0.849582	-0.297286	-0.801804
H404	H	1.182916	0.036047	-0.468471
H405	H	1.516249	0.369381	-0.135138
C406	C	0.651853	-0.737413	-0.355594
C407	C	0.985187	-0.404080	-0.022261
C408	C	1.318520	-0.070747	0.311073
N409	N	0.624136	-0.717995	-0.383285
N410	N	0.957469	-0.384661	-0.049952
N411	N	1.290803	-0.051328	0.283382
H412	H	0.816174	-0.268576	-0.550645
H413	H	1.149507	0.064757	-0.217312
H414	H	1.482841	0.398090	0.116022
C415	C	0.313100	-0.305683	-0.355484
C416	C	0.646433	0.027650	-0.022151
C417	C	0.979767	0.360984	0.311182
N418	N	0.335712	-0.329522	-0.383141
N419	N	0.669045	0.003811	-0.049808
N420	N	1.002379	0.337144	0.283526
H421	H	0.206246	-0.135518	-0.158104
H422	H	0.539579	0.197816	0.175229
H423	H	0.872912	0.531149	0.508563
H424	H	0.661433	-0.829218	-0.346045
H425	H	0.994766	-0.495884	-0.012712
H426	H	1.328100	-0.162551	0.320621
H427	H	0.849711	-0.744043	-0.158032
H428	H	1.183044	-0.410710	0.175301
H429	H	1.516377	-0.077376	0.508635
C430	C	0.313096	-0.127288	-0.148557
C431	C	0.646430	0.206045	0.184776
C432	C	0.979763	0.539379	0.518109
N433	N	0.335709	-0.103446	-0.120898
N434	N	0.669042	0.229887	0.212436
N435	N	1.002375	0.563221	0.545769
H436	H	0.661381	-0.688463	-0.346038
H437	H	0.994714	-0.355129	-0.012704
H438	H	1.328048	-0.021796	0.320629
H439	H	0.457401	-0.164282	-0.191433
H440	H	0.790735	0.169052	0.141900
H441	H	1.124068	0.502385	0.475233
H442	H	0.054114	-0.164306	-0.191493
H443	H	0.387447	0.169027	0.141840
H444	H	0.720780	0.502361	0.475174
H445	H	0.694957	-0.164238	-0.953906
H446	H	1.028290	0.169095	-0.620573
H447	H	1.361624	0.502428	-0.287240
H448	H	0.694967	-0.164226	-1.052972
H449	H	1.028300	0.169108	-0.719638
H450	H	1.361634	0.502441	-0.386305
H451	H	0.849574	-0.297299	-0.702754
H452	H	1.182907	0.036034	-0.369421
H453	H	1.516241	0.369367	-0.036088
C454	C	0.449624	-0.276907	-0.322087
C455	C	0.782957	0.056426	0.011246
C456	C	1.116290	0.389759	0.344579
N457	N	0.427015	-0.300754	-0.349744
N458	N	0.760349	0.032579	-0.016411
N459	N	1.093682	0.365913	0.316922
C460	C	0.685382	-0.156092	-0.558408
C461	C	1.018716	0.177242	-0.225075
C462	C	1.352049	0.510575	0.108258
N463	N	0.657701	-0.132272	-0.581014
N464	N	0.991034	0.201061	-0.247680
N465	N	1.324367	0.534395	0.085653
H466	H	0.206254	-0.297465	-0.345962
H467	H	0.539587	0.035868	-0.012629
H468	H	0.872920	0.369202	0.320704
C469	C	0.061928	-0.276931	-0.322143
C470	C	0.395262	0.056403	0.011190
C471	C	0.728595	0.389736	0.344523
N472	N	0.084543	-0.300769	-0.349800
N473	N	0.417876	0.032565	-0.016466
N474	N	0.751209	0.365898	0.316867
H475	H	0.816206	-0.268491	-1.052982
H476	H	1.149539	0.064842	-0.719649
H477	H	1.482873	0.398176	-0.386316
H478	H	-0.044938	-0.268713	-0.312615
H479	H	0.288395	0.064621	0.020719
H480	H	0.621728	0.397954	0.354052
H481	H	-0.044936	-0.164321	-0.191499
H482	H	0.288398	0.169013	0.141834
H483	H	0.621731	0.502346	0.475167
C484	C	0.685158	-0.380823	-0.322134
C485	C	1.018491	-0.047490	0.011199
C486	C	1.351825	0.285844	0.344532
N487	N	0.657439	-0.361389	-0.349809
N488	N	0.990772	-0.028056	-0.016475
N489	N	1.324105	0.305277	0.316858
C490	C	0.825670	-0.380779	-0.181837
C491	C	1.159004	-0.047446	0.151497
C492	C	1.492337	0.285887	0.484830
N493	N	0.853382	-0.361338	-0.154153
N494	N	1.186716	-0.028005	0.179180
N495	N	1.520049	0.305329	0.512514
C496	C	0.564271	-0.156052	-0.181889
C497	C	0.897604	0.177282	0.151445
C498	C	1.230938	0.510615	0.484778
N499	N	0.586897	-0.132207	-0.154244
N500	N	0.920231	0.201127	0.179089
N501	N	1.253564	0.534460	0.512423
C502	C	0.859251	-0.695101	-0.148475
C503	C	1.192584	-0.361767	0.184858
C504	C	1.525917	-0.028434	0.518191
N505	N	0.886977	-0.714518	-0.120792
N506	N	1.220311	-0.381184	0.212541
N507	N	1.553644	-0.047851	0.545875
C508	C	0.825885	-0.953175	-0.181902
C509	C	1.159218	-0.619841	0.151431
C510	C	1.492552	-0.286508	0.484764
N511	N	0.853602	-0.933735	-0.154222
N512	N	1.186935	-0.600402	0.179111
N513	N	1.520269	-0.267069	0.512445
H514	H	0.816354	-1.045003	-0.191464
H515	H	1.149687	-0.711670	0.141869
H516	H	1.483021	-0.378336	0.475203
H517	H	0.694951	-1.045036	-0.312660
H518	H	1.028284	-0.711702	0.020674
H519	H	1.361618	-0.378369	0.354007
C520	C	0.651796	-0.596654	-0.355577
C521	C	0.985129	-0.263321	-0.022244
C522	C	1.318462	0.070013	0.311090
N523	N	0.624068	-0.577232	-0.383254
N524	N	0.957401	-0.243899	-0.049921
N525	N	1.290734	0.089434	0.283413
C526	C	0.685377	-0.953229	-0.322219
C527	C	1.018710	-0.619896	0.011114
C528	C	1.352044	-0.286563	0.344448
N529	N	0.657662	-0.933811	-0.349913
N530	N	0.990996	-0.600478	-0.016580
N531	N	1.324329	-0.267144	0.316754
C532	C	0.685189	-0.479355	-0.322148
C533	C	1.018523	-0.146022	0.011185
C534	C	1.351856	0.187312	0.344519
N535	N	0.657478	-0.498797	-0.349832
N536	N	0.990812	-0.165464	-0.016498
N537	N	1.324145	0.167869	0.316835
H538	H	0.849739	-0.829162	-0.158047
H539	H	1.183072	-0.495828	0.175286
H540	H	1.516406	-0.162495	0.508620
C541	C	0.685382	-0.156111	-0.443757
C542	C	1.018715	0.177222	-0.110423
C543	C	1.352049	0.510555	0.222910
N544	N	0.657695	-0.132304	-0.421137
N545	N	0.991028	0.201029	-0.087804
N546	N	1.324362	0.534362	0.245530
H547	H	0.661528	-0.135548	-0.702730
H548	H	0.994862	0.197785	-0.369397
H549	H	1.328195	0.531118	-0.036064
H550	H	0.661533	-0.135534	-0.801776
H551	H	0.994866	0.197799	-0.468443
H552	H	1.328199	0.531133	-0.135109
C553	C	0.825750	-0.276721	-0.946134
C554	C	1.159084	0.056613	-0.612801
C555	C	1.492417	0.389946	-0.279468
N556	N	0.853446	-0.300527	-0.923528
N557	N	1.186779	0.032806	-0.590194
N558	N	1.520112	0.366139	-0.256861
