data_functionalizedCrystal
_audit_creation_method	'MofGen! by Chris Wilmer'
_symmetry_space_group_name_H-M	'P1'
_symmetry_Int_Tables_number	1
_symmetry_cell_setting	triclinic
loop_
_symmetry_equiv_pos_as_xyz
  x,y,z
_cell_length_a	15.944551
_cell_length_b	16.109301
_cell_length_c	14.586319
_cell_angle_alpha	90.005214
_cell_angle_beta	89.999016
_cell_angle_gamma	83.480110
loop_
_atom_site_label
_atom_site_type_symbol
_atom_site_fract_x
_atom_site_fract_y
_atom_site_fract_z
O1	O	-1.114488	-0.107227	-0.076148
O2	O	-0.869934	-0.120447	-0.076171
O3	O	-0.998929	0.007192	-0.076149
O4	O	-0.985492	-0.234866	-0.076169
O5	O	-0.998920	0.007194	0.076332
O6	O	-0.869925	-0.120445	0.076310
O7	O	-1.114479	-0.107225	0.076333
Cu8	Cu	-0.992201	-0.113835	0.090244
Cu9	Cu	-0.992211	-0.113837	-0.090082
O10	O	-0.985484	-0.234864	0.076312
C11	C	-0.838635	-0.119897	0.000067
C12	C	-0.745390	-0.118252	0.000058
C13	C	-0.998380	0.038168	0.000091
C14	C	-0.996748	0.130464	0.000093
C15	C	-1.145777	-0.107775	0.000094
C16	C	-1.239022	-0.109420	0.000096
C17	C	-0.530561	-0.035203	0.000083
C18	C	-0.469532	-0.073769	-0.075101
C19	C	-0.574665	-0.115275	0.000069
C20	C	-0.469546	-0.073786	0.075233
C21	C	-0.409753	-0.112394	0.000084
C22	C	-0.514865	-0.153864	-0.075177
C23	C	-0.514884	-0.153870	0.075225
C24	C	-0.453874	-0.192494	0.000022
C25	C	-0.669667	-0.116933	0.000060
C26	C	-0.314753	-0.110743	0.000087
C27	C	-0.986032	-0.265840	0.000069
C28	C	-0.987664	-0.358136	0.000062
N29	N	-0.992200	-0.113833	0.217076
C30	C	-1.069497	0.352712	0.000085
C31	C	-1.067958	0.439433	0.000077
C32	C	-0.914909	0.419608	0.000066
C33	C	-0.916450	0.332889	0.000068
C34	C	-0.993746	0.299444	0.000082
C35	C	-0.990666	0.472884	0.000073
C36	C	-0.988996	0.566910	0.000064
C37	C	-0.995417	0.205411	0.000088
N38	N	-0.992219	-0.113833	-0.216914
C39	C	-1.049337	-0.057333	0.452092
C40	C	-1.049340	-0.057331	0.548073
C41	C	-0.935075	-0.170335	0.548064
C42	C	-0.935070	-0.170332	0.452084
C43	C	-0.992205	-0.113833	0.404101
C44	C	-0.992214	-0.113833	0.596062
C45	C	-0.992216	-0.113831	0.700129
C46	C	-0.992202	-0.113833	0.300027
H47	H	-0.563915	0.031251	-0.000005
H48	H	-1.095861	-0.011324	0.587145
H49	H	-1.095860	-0.011327	0.413026
C50	C	-0.829890	0.456402	0.000064
H51	H	-0.839820	0.515678	0.000074
H52	H	-0.798698	0.438115	-0.053109
H53	H	-0.798704	0.438120	0.053244
H54	H	-0.420693	-0.259016	-0.000026
H55	H	-0.888558	-0.216337	0.587141
C56	C	-0.872229	-0.232489	0.399286
H57	H	-0.880405	-0.224389	0.335252
H58	H	-0.881337	-0.287982	0.415007
H59	H	-0.816171	-0.223425	0.415016
C60	C	-0.442376	-0.028021	-0.160957
H61	H	-0.468895	0.027855	-0.160862
H62	H	-0.458650	-0.055927	-0.214349
H63	H	-0.382827	-0.027750	-0.160613
H64	H	-0.854760	0.289515	0.000062
C65	C	-1.151281	0.498029	0.000078
H66	H	-1.139297	0.554467	0.000063
H67	H	-1.182977	0.487899	0.053252
H68	H	-1.182972	0.487879	-0.053101
C69	C	-0.442419	-0.028022	0.161099
H70	H	-0.404731	-0.065069	0.196503
H71	H	-0.490806	-0.009467	0.196736
H72	H	-0.414968	0.018703	0.143025
H73	H	-0.534845	-0.187707	-0.138809
C74	C	-1.154519	0.315924	0.000090
H75	H	-1.199412	0.360073	0.000083
H76	H	-1.158304	0.282512	0.053263
H77	H	-1.158300	0.282504	-0.053090
H78	H	-0.535001	-0.187708	0.138785
