data_functionalizedCrystal
_audit_creation_method	'MofGen! by Chris Wilmer'
_symmetry_space_group_name_H-M	'P1'
_symmetry_Int_Tables_number	1
_symmetry_cell_setting	triclinic
loop_
_symmetry_equiv_pos_as_xyz
  x,y,z
_cell_length_a	14.044220
_cell_length_b	16.992694
_cell_length_c	16.053833
_cell_angle_alpha	92.723321
_cell_angle_beta	87.349981
_cell_angle_gamma	88.071450
loop_
_atom_site_label
_atom_site_type_symbol
_atom_site_fract_x
_atom_site_fract_y
_atom_site_fract_z
O1	O	0.198257	-1.051308	0.069327
O2	O	0.531591	-0.717974	0.402661
O3	O	0.864924	-0.384641	0.735994
O4	O	0.196039	-0.822866	0.069352
O5	O	0.529373	-0.489533	0.402685
O6	O	0.862706	-0.156199	0.736018
O7	O	0.058904	-0.933658	0.069332
O8	O	0.392238	-0.600325	0.402665
O9	O	0.725571	-0.266992	0.735998
O10	O	0.335392	-0.940515	0.069347
O11	O	0.668726	-0.607182	0.402681
O12	O	1.002059	-0.273849	0.736014
O13	O	0.066516	-0.940090	-0.069527
O14	O	0.399849	-0.606756	0.263807
O15	O	0.733183	-0.273423	0.597140
O16	O	0.203651	-0.829298	-0.069507
O17	O	0.536984	-0.495964	0.263827
O18	O	0.870317	-0.162631	0.597160
O19	O	0.205869	-1.057739	-0.069531
O20	O	0.539202	-0.724406	0.263802
O21	O	0.872535	-0.391072	0.597136
Zn22	Zn	0.205968	-0.944539	-0.091566
Zn23	Zn	0.539302	-0.611206	0.241768
Zn24	Zn	0.872635	-0.277873	0.575101
Zn25	Zn	0.195940	-0.936066	0.091386
Zn26	Zn	0.529273	-0.602732	0.424720
Zn27	Zn	0.862606	-0.269399	0.758053
O28	O	0.343004	-0.946947	-0.069511
O29	O	0.676337	-0.613614	0.263822
O30	O	1.009670	-0.280280	0.597156
C31	C	0.196993	-0.796670	-0.000074
C32	C	0.530326	-0.463336	0.333259
C33	C	0.863660	-0.130003	0.666592
C34	C	0.188484	-0.709030	-0.000065
C35	C	0.521817	-0.375697	0.333268
C36	C	0.855151	-0.042363	0.666602
C37	C	0.027168	-0.933872	-0.000098
C38	C	0.360502	-0.600539	0.333236
C39	C	0.693835	-0.267206	0.666569
C40	C	-0.078736	-0.924918	-0.000098
C41	C	0.254598	-0.591585	0.333236
C42	C	0.587931	-0.258251	0.666569
N43	N	0.212812	-0.950328	-0.216425
N44	N	0.546146	-0.616995	0.116908
N45	N	0.879479	-0.283662	0.450241
C46	C	-0.272638	-0.908548	-0.000084
C47	C	0.060695	-0.575214	0.333250
C48	C	0.394029	-0.241881	0.666583
C49	C	-0.325460	-0.972054	-0.000088
C50	C	0.007873	-0.638721	0.333245
C51	C	0.341206	-0.305387	0.666579
C52	C	-0.433354	-0.962945	-0.000080
C53	C	-0.100021	-0.629612	0.333253
C54	C	0.233313	-0.296278	0.666586
C55	C	-0.164734	-0.917655	-0.000091
C56	C	0.168599	-0.584322	0.333242
C57	C	0.501932	-0.250988	0.666575
C58	C	0.374740	-0.946733	-0.000080
C59	C	0.708073	-0.613400	0.333253
C60	C	1.041406	-0.280066	0.666587
C61	C	0.480643	-0.955687	-0.000074
C62	C	0.813977	-0.622353	0.333259
C63	C	1.147310	-0.289020	0.666592
C64	C	0.204915	-1.083935	-0.000103
C65	C	0.538248	-0.750602	0.333230
C66	C	0.871582	-0.417269	0.666564
C67	C	0.213424	-1.171575	-0.000107
C68	C	0.546757	-0.838242	0.333227
C69	C	0.880090	-0.504908	0.666560
C70	C	0.270580	-0.664531	-0.000061
C71	C	0.603914	-0.331198	0.333272
C72	C	0.937247	0.002135	0.666606
C73	C	0.262581	-0.582186	-0.000073
C74	C	0.595914	-0.248853	0.333260
C75	C	0.929247	0.084481	0.666594
C76	C	0.172483	-0.544340	-0.000083
C77	C	0.505817	-0.211007	0.333250
C78	C	0.839150	0.122327	0.666584
C79	C	0.090381	-0.588845	-0.000090
C80	C	0.423714	-0.255511	0.333244
C81	C	0.757047	0.077822	0.666577
C82	C	0.098382	-0.671189	-0.000084
C83	C	0.431715	-0.337856	0.333250
C84	C	0.765048	-0.004522	0.666583
C85	C	0.139322	-0.298424	-0.000107
C86	C	0.472656	0.034909	0.333226
C87	C	0.805989	0.368243	0.666559
C88	C	0.131327	-0.216073	-0.000111
C89	C	0.464661	0.117260	0.333223
C90	C	0.797994	0.450593	0.666556
C91	C	0.303528	-0.209420	-0.000096
C92	C	0.636862	0.123913	0.333238
C93	C	0.970195	0.457246	0.666571
C94	C	0.311521	-0.291766	-0.000085
C95	C	0.644854	0.041567	0.333249
C96	C	0.978188	0.374900	0.666582
C97	C	0.229419	-0.336264	-0.000096
C98	C	0.562752	-0.002931	0.333238
C99	C	0.896085	0.330403	0.666571
N100	N	0.164304	-0.460170	-0.000093
N101	N	0.497637	-0.126836	0.333241
N102	N	0.830971	0.206497	0.666574
N103	N	0.237599	-0.420433	-0.000092
N104	N	0.570933	-0.087100	0.333241
N105	N	0.904266	0.246233	0.666575
C106	C	0.248143	-0.980108	-0.740056
C107	C	0.581477	-0.646774	-0.406722
C108	C	0.914810	-0.313441	-0.073389
C109	C	0.243349	-0.976062	-0.652649
C110	C	0.576682	-0.642728	-0.319316
C111	C	0.910016	-0.309395	0.014017
C112	C	0.179495	-0.922194	-0.608943
C113	C	0.512828	-0.588861	-0.275609
C114	C	0.846162	-0.255527	0.057724
C115	C	0.120438	-0.872364	-0.652647
C116	C	0.453771	-0.539030	-0.319314
C117	C	0.787105	-0.205697	0.014020
C118	C	0.125238	-0.876406	-0.740052
C119	C	0.458571	-0.543073	-0.406719
C120	C	0.791904	-0.209740	-0.073385
C121	C	0.158555	-0.904541	-0.347535
C122	C	0.491888	-0.571207	-0.014201
C123	C	0.825222	-0.237874	0.319132
C124	C	0.153758	-0.900503	-0.260124
C125	C	0.487091	-0.567170	0.073210
C126	C	0.820424	-0.233837	0.406543
C127	C	0.276670	-1.004201	-0.260132
C128	C	0.610004	-0.670867	0.073202
C129	C	0.943337	-0.337534	0.406535
C130	C	0.281460	-1.008242	-0.347538
C131	C	0.614794	-0.674908	-0.014205
C132	C	0.948127	-0.341575	0.319128
C133	C	0.222407	-0.958409	-0.391235
C134	C	0.555741	-0.625075	-0.057902
C135	C	0.889074	-0.291742	0.275432
N136	N	0.174591	-0.918059	-0.519599
N137	N	0.507924	-0.584726	-0.186266
N138	N	0.841258	-0.251392	0.147067
N139	N	0.227317	-0.962541	-0.480577
N140	N	0.560650	-0.629207	-0.147244
N141	N	0.893983	-0.295874	0.186090
N142	N	0.189089	-0.930283	0.216246
N143	N	0.522422	-0.596949	0.549579
N144	N	0.855755	-0.263616	0.882913
H145	H	-0.289655	-1.033262	-0.000039
H146	H	0.043678	-0.699928	0.333295
H147	H	0.377011	-0.366595	0.666628
H148	H	0.017022	-0.558025	-0.000110
H149	H	0.350355	-0.224691	0.333224
H150	H	0.683688	0.108642	0.666557
F151	F	0.051940	-0.345771	-0.000119
F152	F	0.385274	-0.012438	0.333215
F153	F	0.718607	0.320895	0.666548
H154	H	0.110467	-0.863965	-0.383102
H155	H	0.443800	-0.530632	-0.049769
H156	H	0.777133	-0.197298	0.283565
F157	F	-0.319439	-0.828546	-0.000071
F158	F	0.013894	-0.495213	0.333263
F159	F	0.347228	-0.161879	0.666596
F160	F	0.035430	-0.175798	-0.000136
F161	F	0.368763	0.157536	0.333197
F162	F	0.702096	0.490869	0.666531
H163	H	0.343947	-0.695339	-0.000052
H164	H	0.677281	-0.362006	0.333281
H165	H	1.010614	-0.028673	0.666614
F166	F	0.349960	-0.534830	-0.000065
F167	F	0.683293	-0.201497	0.333268
F168	F	1.016626	0.131836	0.666602
F169	F	0.349425	-1.065574	-0.394048
F170	F	0.682758	-0.732240	-0.060714
F171	F	1.016091	-0.398907	0.272619
H172	H	0.384887	-0.322574	-0.000067
H173	H	0.718221	0.010759	0.333266
H174	H	1.051554	0.344093	0.666600
F175	F	0.390901	-0.162057	-0.000086
F176	F	0.724234	0.171276	0.333247
F177	F	1.057568	0.504609	0.666581
H178	H	0.031530	-0.707419	-0.000086
H179	H	0.364863	-0.374086	0.333247
H180	H	0.698196	-0.040752	0.666580
H181	H	0.300137	-1.023975	-0.775635
H182	H	0.633470	-0.690642	-0.442302
H183	H	0.966803	-0.357309	-0.108969
F184	F	0.306227	-1.029073	-0.606146
F185	F	0.639561	-0.695740	-0.272813
F186	F	0.972894	-0.362407	0.060521
H187	H	0.324749	-1.044771	-0.224545
H188	H	0.658083	-0.711438	0.108789
H189	H	0.991416	-0.378104	0.442122
H190	H	0.101760	-0.856633	-0.224540
H191	H	0.435094	-0.523300	0.108793
H192	H	0.768427	-0.189966	0.442126
F193	F	0.052484	-0.815029	-0.606129
F194	F	0.385818	-0.481696	-0.272796
F195	F	0.719151	-0.148363	0.060538
F196	F	0.062386	-0.823374	-0.786558
F197	F	0.395719	-0.490040	-0.453225
F198	F	0.729053	-0.156707	-0.119892
