data_functionalizedCrystal
_audit_creation_method	'MofGen! by Chris Wilmer'
_symmetry_space_group_name_H-M	'P1'
_symmetry_Int_Tables_number	1
_symmetry_cell_setting	triclinic
loop_
_symmetry_equiv_pos_as_xyz
  x,y,z
_cell_length_a	12.645331
_cell_length_b	13.032721
_cell_length_c	13.033454
_cell_angle_alpha	90.931327
_cell_angle_beta	97.160230
_cell_angle_gamma	82.796443
loop_
_atom_site_label
_atom_site_type_symbol
_atom_site_fract_x
_atom_site_fract_y
_atom_site_fract_z
Zn1	Zn	1.495869	0.335532	-0.633493
Zn2	Zn	1.490108	0.529385	-0.483355
Zn3	Zn	1.337915	0.357426	-0.461538
Zn4	Zn	1.293600	0.507464	-0.655266
O5	O	1.404373	0.432452	-0.558413
O6	O	1.643448	0.361259	-0.613595
O7	O	1.486054	0.524911	-0.336551
O8	O	1.379825	0.210602	-0.466106
O9	O	1.639215	0.503681	-0.503289
O10	O	1.495873	0.194517	-0.592440
O11	O	1.374239	0.398573	-0.320523
O12	O	1.183693	0.377317	-0.487218
O13	O	1.304296	0.466320	-0.796287
O14	O	1.151135	0.487549	-0.629550
O15	O	1.452902	0.340002	-0.780290
O16	O	1.443083	0.670396	-0.524402
O17	O	1.298710	0.654291	-0.650705
C18	C	1.128950	0.432431	-0.558380
C19	C	1.011117	0.432444	-0.558394
C20	C	1.365489	0.699658	-0.592306
C21	C	1.348947	0.813965	-0.606840
C22	C	1.374299	0.398274	-0.826646
C23	C	1.361483	0.383709	-0.940951
C24	C	0.864004	0.362676	-0.469245
C25	C	0.986572	0.362926	-0.468923
C26	C	0.954190	0.544546	-0.542538
C27	C	0.831716	0.544178	-0.541944
C28	C	0.835712	0.391102	-0.663834
C29	C	0.958737	0.388759	-0.662921
C30	C	1.680871	0.432473	-0.558447
C31	C	1.798698	0.432482	-0.558461
C32	C	1.443435	0.164199	-0.524410
C33	C	1.460081	0.049886	-0.509920
C34	C	1.413057	0.872855	-0.550874
C35	C	1.395962	0.990998	-0.565894
C36	C	1.411093	0.439725	-0.999843
C37	C	1.397848	0.424673	-1.117983
C38	C	1.434402	0.466422	-0.291214
C39	C	1.447465	0.480697	-0.176873
H40	H	1.026255	0.280230	-0.477283
H41	H	1.527633	1.012845	-0.450886
C42	C	1.327217	0.344824	-1.168017
N43	N	1.274018	0.284684	-1.205705
H44	H	0.808628	0.577651	-0.465320
H45	H	1.463376	0.498822	-0.962798
C46	C	0.837218	0.250662	-0.480223
N47	N	0.817035	0.166291	-0.488492
C48	C	1.257696	0.864008	-0.686593
N49	N	1.188961	0.901700	-0.746663
H50	H	0.968213	0.598545	-0.606083
H51	H	1.309209	0.324604	-0.977994
C52	C	0.830967	0.400751	-0.363983
N53	N	0.806080	0.429432	-0.284701
C54	C	1.034813	0.401378	-0.363056
N55	N	1.071147	0.430345	-0.283313
C56	C	1.518097	0.560547	-1.126841
N57	N	1.571294	0.620690	-1.089156
H58	H	0.786942	0.598691	-0.604838
H59	H	1.480605	0.835810	-0.491843
C60	C	0.805124	0.281610	-0.686892
N61	N	0.782090	0.199136	-0.704246
C62	C	1.002893	0.590159	-0.440240
N63	N	1.039574	0.624509	-0.363185
H64	H	1.328418	1.028040	-0.624936
H65	H	0.974583	0.434791	-0.731837
C66	C	1.010294	0.277214	-0.679405
N67	N	1.049131	0.193196	-0.691816
C68	C	0.776193	0.459559	-0.753408
N69	N	0.731357	0.511122	-0.820869
