data_functionalizedCrystal
_audit_creation_method	'MofGen! by Chris Wilmer'
_symmetry_space_group_name_H-M	'P1'
_symmetry_Int_Tables_number	1
_symmetry_cell_setting	triclinic
loop_
_symmetry_equiv_pos_as_xyz
  x,y,z
_cell_length_a	11.026660
_cell_length_b	12.811415
_cell_length_c	10.065875
_cell_angle_alpha	93.481155
_cell_angle_beta	79.302288
_cell_angle_gamma	96.258766
loop_
_atom_site_label
_atom_site_type_symbol
_atom_site_fract_x
_atom_site_fract_y
_atom_site_fract_z
O1	O	1.638220	0.422277	-0.165762
O2	O	2.138220	0.922277	0.334238
O3	O	1.283709	0.372836	-0.159644
O4	O	1.783709	0.872836	0.340356
O5	O	1.466980	0.248410	-0.144237
O6	O	1.966980	0.748410	0.355763
O7	O	1.454949	0.546702	-0.181168
O8	O	1.954949	1.046702	0.318832
O9	O	1.432035	0.272258	0.079798
O10	O	1.932035	0.772258	0.579798
O11	O	1.248764	0.396684	0.064392
O12	O	1.748764	0.896684	0.564392
O13	O	1.603275	0.446125	0.058274
O14	O	2.103275	0.946125	0.558274
Zn15	Zn	1.420472	0.425191	0.096904
Zn16	Zn	1.920472	0.925191	0.596904
Zn17	Zn	1.466512	0.393770	-0.198273
Zn18	Zn	1.966512	0.893770	0.301727
O19	O	1.420005	0.570550	0.042868
O20	O	1.920005	1.070550	0.542868
C21	C	1.220803	0.375638	-0.046497
C22	C	1.720803	0.875638	0.453503
C23	C	1.085426	0.348448	-0.043132
C24	C	1.585426	0.848448	0.456868
C25	C	0.873535	0.395433	-0.048953
C26	C	1.373535	0.895433	0.451047
C27	C	1.013453	0.423538	-0.052430
C28	C	1.513453	0.923538	0.447570
C29	C	1.447762	0.221553	-0.027421
C30	C	1.947762	0.721553	0.472579
C31	C	1.442548	0.105993	-0.013123
C32	C	1.942548	0.605993	0.486877
C33	C	1.470827	-0.137151	-0.230526
C34	C	1.970827	0.362849	0.269474
C35	C	1.465928	-0.245731	-0.217098
C36	C	1.965928	0.254269	0.282902
C37	C	1.427843	-0.219748	0.027161
C38	C	1.927843	0.280252	0.527161
C39	C	1.432741	-0.111169	0.013733
C40	C	1.932741	0.388831	0.513733
C41	C	1.454236	-0.069875	-0.115115
C42	C	1.954236	0.430125	0.384885
C43	C	1.459143	0.038708	-0.128542
C44	C	1.959143	0.538708	0.371458
C45	C	1.421049	0.064687	0.115715
C46	C	1.921049	0.564687	0.615715
C47	C	1.416150	-0.043892	0.129143
C48	C	1.916150	0.456108	0.629143
C49	C	1.666181	0.443322	-0.054876
C50	C	2.166181	0.943322	0.445124
C51	C	1.801560	0.470512	-0.058250
C52	C	2.301560	0.970512	0.441750
C53	C	1.439222	0.597408	-0.073952
C54	C	1.939222	1.097408	0.426048
C55	C	1.444439	0.712967	-0.088259
C56	C	1.944439	1.212967	0.411741
N57	N	1.389059	0.446636	0.298354
N58	N	1.889059	0.946636	0.798354
N59	N	1.497935	0.372319	-0.399723
N60	N	1.997935	0.872319	0.100277
C61	C	1.455575	0.401223	0.371756
C62	C	1.955575	0.901223	0.871756
C63	C	1.431409	0.417738	0.526878
C64	C	1.931409	0.917738	1.026878
H65	H	1.043482	0.263347	-0.032687
H66	H	1.543482	0.763347	0.467313
H67	H	1.398645	-0.077530	0.234047
H68	H	1.898645	0.422470	0.734047
H69	H	1.410333	-0.253391	0.132062
H70	H	1.910333	0.246609	0.632062
H71	H	1.479434	-0.300505	-0.311078
H72	H	1.979434	0.199495	0.188922
H73	H	1.407544	0.119477	0.209692
H74	H	1.907544	0.619477	0.709692
H75	H	1.356561	0.468842	0.578871
H76	H	1.856561	0.968842	1.078871
H77	H	1.055412	0.508629	-0.062956
H78	H	1.555412	1.008629	0.437044
H79	H	1.572773	0.321205	0.548285
H80	H	2.072773	0.821205	1.048285
H81	H	1.530409	0.350113	0.319760
H82	H	2.030409	0.850113	0.819760
H83	H	1.314217	0.497736	0.350353
H84	H	1.814217	0.997736	0.850353
H85	H	0.843524	0.555598	-0.068775
H86	H	1.343524	1.055598	0.431225
H87	H	0.831566	0.310350	-0.038399
H88	H	1.331566	0.810350	0.461601
H89	H	1.476649	0.072328	-0.233456
H90	H	1.976649	0.572328	0.266544
H91	H	1.488340	-0.103528	-0.335439
H92	H	1.988340	0.396472	0.164561
