data_functionalizedCrystal
_audit_creation_method	'MofGen! by Chris Wilmer'
_symmetry_space_group_name_H-M	'P1'
_symmetry_Int_Tables_number	1
_symmetry_cell_setting	triclinic
loop_
_symmetry_equiv_pos_as_xyz
  x,y,z
_cell_length_a	19.188930
_cell_length_b	19.188930
_cell_length_c	17.666332
_cell_angle_alpha	89.988397
_cell_angle_beta	89.976766
_cell_angle_gamma	83.144779
loop_
_atom_site_label
_atom_site_type_symbol
_atom_site_fract_x
_atom_site_fract_y
_atom_site_fract_z
O1	O	0.926150	0.087169	-0.063200
O2	O	1.426150	0.587169	0.436800
O3	O	0.722838	0.098903	-0.063149
O4	O	1.222838	0.598903	0.436851
O5	O	0.830361	-0.008620	-0.063161
O6	O	1.330361	0.491380	0.436839
O7	O	0.818627	0.194692	-0.063188
O8	O	1.318627	0.694692	0.436812
O9	O	0.830342	-0.008625	0.062735
O10	O	1.330342	0.491375	0.562735
O11	O	0.722820	0.098897	0.062747
O12	O	1.222820	0.598897	0.562747
O13	O	0.926131	0.087163	0.062697
O14	O	1.426131	0.587163	0.562697
Cu15	Cu	0.824473	0.093030	0.074217
Cu16	Cu	1.324473	0.593030	0.574217
Cu17	Cu	0.824496	0.093036	-0.074670
Cu18	Cu	1.324496	0.593036	0.425330
O19	O	0.818608	0.194686	0.062709
O20	O	1.318608	0.694686	0.562709
C21	C	0.696818	0.098520	-0.000194
C22	C	1.196818	0.598520	0.499806
C23	C	0.619313	0.097380	-0.000174
C24	C	1.119313	0.597380	0.499826
C25	C	0.574389	0.160470	-0.000194
C26	C	1.074389	0.660470	0.499806
C27	C	0.501566	0.159399	-0.000203
C28	C	1.001566	0.659399	0.499797
C29	C	0.473669	0.095233	-0.000206
C30	C	0.973669	0.595233	0.499794
C31	C	0.518603	0.032133	-0.000181
C32	C	1.018603	0.532133	0.499819
C33	C	0.591425	0.033207	-0.000166
C34	C	1.091425	0.533207	0.499834
N35	N	0.365695	0.046188	-0.043078
N36	N	0.865695	0.546188	0.456922
N37	N	0.296517	0.045172	-0.043095
N38	N	0.796517	0.545172	0.456905
C39	C	0.254260	0.091994	-0.000252
C40	C	0.754260	0.591994	0.499748
N41	N	0.283795	0.139881	0.042599
N42	N	0.783795	0.639881	0.542599
N43	N	0.352979	0.140899	0.042612
N44	N	0.852979	0.640899	0.542612
C45	C	0.394707	0.094062	-0.000222
C46	C	0.894707	0.594062	0.499778
C47	C	0.130372	0.153928	-0.000280
C48	C	0.630372	0.653928	0.499720
C49	C	0.057547	0.152853	-0.000283
C50	C	0.557547	0.652853	0.499717
C51	C	0.074586	0.025586	-0.000270
C52	C	0.574586	0.525586	0.499730
C53	C	0.147409	0.026662	-0.000258
C54	C	0.647409	0.526662	0.499742
C55	C	0.175298	0.090835	-0.000267
C56	C	0.675298	0.590835	0.499733
C57	C	0.829972	-0.034634	-0.000211
C58	C	1.329972	0.465366	0.499789
C59	C	0.828831	-0.112138	-0.000204
C60	C	1.328831	0.387862	0.499796
C61	C	0.891922	-0.157062	-0.000216
C62	C	1.391922	0.342938	0.499784
C63	C	0.890850	-0.229886	-0.000228
C64	C	1.390850	0.270114	0.499772
C65	C	0.826684	-0.257782	-0.000212
C66	C	1.326684	0.242218	0.499788
C67	C	0.763585	-0.212849	-0.000205
C68	C	1.263585	0.287151	0.499795
C69	C	0.764658	-0.140026	-0.000200
C70	C	1.264658	0.359974	0.499800
N71	N	0.777630	-0.365789	0.042645
N72	N	1.277630	0.134211	0.542645
N73	N	0.776615	-0.434968	0.042642
N74	N	1.276615	0.065032	0.542642
C75	C	0.823446	-0.477191	-0.000227
C76	C	1.323446	0.022809	0.499773
N77	N	0.871341	-0.447624	-0.043084
N78	N	1.371341	0.052376	0.456916
N79	N	0.872359	-0.378439	-0.043079
N80	N	1.372359	0.121561	0.456921
C81	C	0.825513	-0.336745	-0.000218
C82	C	1.325513	0.163255	0.499782
C83	C	0.885379	-0.601079	-0.000253
C84	C	1.385379	-0.101079	0.499747
C85	C	0.884305	-0.673904	-0.000270
C86	C	1.384305	-0.173904	0.499730
C87	C	0.757038	-0.656865	-0.000239
C88	C	1.257038	-0.156865	0.499761
C89	C	0.758114	-0.584042	-0.000230
C90	C	1.258114	-0.084042	0.499770
C91	C	0.822287	-0.556154	-0.000233
C92	C	1.322287	-0.056154	0.499767
C93	C	0.952151	0.087546	-0.000260
C94	C	1.452151	0.587546	0.499740
C95	C	1.029656	0.088687	-0.000285
C96	C	1.529656	0.588687	0.499715
C97	C	0.818997	0.220700	-0.000244
C98	C	1.318997	0.720700	0.499756
C99	C	0.820138	0.298204	-0.000255
C100	C	1.320138	0.798204	0.499745
N101	N	0.824463	0.093025	0.178937
N102	N	1.324463	0.593025	0.678937
N103	N	0.824512	0.093036	-0.179390
N104	N	1.324512	0.593036	0.320610
C105	C	0.872089	0.045437	0.218541
C106	C	1.372089	0.545437	0.718541
C107	C	0.872093	0.045433	0.297789
C108	C	1.372093	0.545433	0.797789
C109	C	0.824478	0.093030	0.337429
C110	C	1.324478	0.593030	0.837429
C111	C	0.776842	0.140621	0.297815
C112	C	1.276842	0.640621	0.797815
C113	C	0.776835	0.140619	0.218569
C114	C	1.276835	0.640619	0.718569
N115	N	0.815401	0.154837	0.461841
N116	N	1.315401	0.654837	0.961841
N117	N	0.815413	0.154837	0.537121
N118	N	1.315413	0.654837	1.037121
C119	C	0.824496	0.093040	0.576193
C120	C	1.324496	0.593040	1.076193
N121	N	0.833582	0.031239	0.537140
N122	N	1.333582	0.531239	1.037140
N123	N	0.833574	0.031240	0.461853
N124	N	1.333574	0.531240	0.961853
C125	C	0.824480	0.093038	0.423358
C126	C	1.324480	0.593038	0.923358
C127	C	0.872130	0.045444	0.701727
C128	C	1.372130	0.545444	1.201727
C129	C	0.872129	0.045440	0.780976
C130	C	1.372129	0.545440	1.280976
C131	C	0.776881	0.140634	0.781000
C132	C	1.276881	0.640634	1.281000
C133	C	0.776878	0.140632	0.701753
C134	C	1.276878	0.640632	1.201753
C135	C	0.824506	0.093038	0.662121
C136	C	1.324506	0.593038	1.162121
H137	H	0.495885	-0.020111	-0.000194
H138	H	0.995885	0.479889	0.499806
H139	H	0.711340	-0.235567	-0.000194
H140	H	1.211340	0.264433	0.499806
N141	N	0.725486	0.191961	0.340562
N142	N	1.225486	0.691961	0.840562
H143	H	0.675959	0.184038	0.326802
H144	H	1.175959	0.684038	0.826802
H145	H	0.732779	0.184719	0.396761
H146	H	1.232779	0.684719	0.896761
H147	H	0.183988	-0.024713	-0.000246
H148	H	0.683988	0.475287	0.499754
H149	H	0.051874	-0.026659	-0.000319
H150	H	0.551874	0.473341	0.499681
N151	N	0.690066	-0.535583	-0.000212
N152	N	1.190066	-0.035583	0.499788
H153	H	0.649253	-0.564303	-0.000204
H154	H	1.149253	-0.064303	0.499796
H155	H	0.687732	-0.505008	0.046462
H156	H	1.187732	-0.005008	0.546462
N157	N	0.961139	-0.126992	-0.000236
N158	N	1.461139	0.373008	0.499764
H159	H	0.964428	-0.097151	-0.046907
H160	H	1.464428	0.402849	0.453093
H161	H	0.964379	-0.097201	0.046464
H162	H	1.464379	0.402799	0.546464
N163	N	0.923472	-0.005894	0.340510
N164	N	1.423472	0.494106	0.840510
H165	H	0.954299	0.020720	0.373363
H166	H	1.454299	0.520720	0.873363
H167	H	0.896848	-0.036734	0.373371
H168	H	1.396848	0.463266	0.873371
N169	N	0.952359	-0.722358	-0.000280
N170	N	1.452359	-0.222358	0.499720
H171	H	0.954737	-0.752963	0.046386
H172	H	1.454737	-0.252963	0.546386
H173	H	0.954723	-0.752894	-0.046985
H174	H	1.454723	-0.252894	0.453015
N175	N	0.923453	-0.005901	0.175798
N176	N	1.423453	0.494099	0.675798
H177	H	0.916225	0.001318	0.119585
H178	H	1.416225	0.501318	0.619585
H179	H	0.972956	0.002049	0.189622
H180	H	1.472956	0.502049	0.689622
H181	H	0.910909	0.006688	0.669457
H182	H	1.410909	0.506688	1.169457
N183	N	0.725462	0.191945	0.175847
N184	N	1.225462	0.691945	0.675847
H185	H	0.695294	0.222096	0.212981
H186	H	1.195294	0.722096	0.712981
H187	H	0.752090	0.222748	0.142945
H188	H	1.252090	0.722748	0.642945
N189	N	0.687830	-0.686946	-0.000210
N190	N	1.187830	-0.186946	0.499790
H191	H	0.648023	-0.647432	-0.000195
H192	H	1.148023	-0.147432	0.499805
H193	H	0.684614	-0.716780	-0.046881
H194	H	1.184614	-0.216780	0.453119
H195	H	0.910910	0.006684	0.813222
H196	H	1.410910	0.506684	1.313222
H197	H	0.738109	0.179385	0.813275
H198	H	1.238109	0.679385	1.313275
N199	N	0.160453	0.223141	-0.000278
N200	N	0.660453	0.723141	0.499722
H201	H	0.190265	0.226419	0.046395
H202	H	0.690265	0.726419	0.546395
H203	H	0.190275	0.226385	-0.046976
H204	H	0.690275	0.726385	0.453024
N205	N	0.958900	-0.278352	-0.000243
N206	N	1.458900	0.221648	0.499757
H207	H	0.999715	-0.249634	-0.000246
H208	H	1.499715	0.250366	0.499754
H209	H	0.961213	-0.308946	0.046428
H210	H	1.461213	0.191054	0.546428
N211	N	0.725509	0.191959	0.659031
N212	N	1.225509	0.691959	1.159031
H213	H	0.695344	0.222111	0.696165
H214	H	1.195344	0.722111	1.196165
H215	H	0.752136	0.222761	0.626126
H216	H	1.252136	0.722761	1.126126
N217	N	0.696608	-0.091567	-0.000188
N218	N	1.196608	0.408433	0.499812
H219	H	0.655794	-0.120287	-0.000182
H220	H	1.155794	0.379713	0.499818
H221	H	0.694274	-0.060994	0.046488
H222	H	1.194274	0.439006	0.546488
N223	N	0.954589	-0.570993	-0.000260
N224	N	1.454589	-0.070993	0.499740
H225	H	0.994396	-0.610505	-0.000276
H226	H	1.494396	-0.110505	0.499724
H227	H	0.957813	-0.541136	-0.046928
H228	H	1.457813	-0.041136	0.453072
H229	H	0.464982	0.210776	-0.000217
H230	H	0.964982	0.710776	0.499783
N231	N	0.604460	0.229687	-0.000205
N232	N	1.104460	0.729687	0.499795
H233	H	0.588035	0.257319	0.046457
H234	H	1.088035	0.757319	0.546457
H235	H	0.657406	0.220744	-0.000222
H236	H	1.157406	0.720744	0.499778
N237	N	0.639879	-0.034847	-0.000143
N238	N	1.139879	0.465153	0.499857
H239	H	0.630954	-0.062852	-0.046811
H240	H	1.130954	0.437148	0.453189
H241	H	0.690224	-0.024375	-0.000105
H242	H	1.190224	0.475625	0.499895
N243	N	0.009111	0.220919	-0.000260
N244	N	0.509111	0.720919	0.499740
H245	H	0.018077	0.248943	-0.046921
H246	H	0.518077	0.748943	0.453079
H247	H	-0.041241	0.210468	-0.000222
H248	H	0.458759	0.710468	0.499778
