data_functionalizedCrystal
_audit_creation_method	'MofGen! by Chris Wilmer'
_symmetry_space_group_name_H-M	'P1'
_symmetry_Int_Tables_number	1
_symmetry_cell_setting	triclinic
loop_
_symmetry_equiv_pos_as_xyz
  x,y,z
_cell_length_a	12.759401
_cell_length_b	12.594516
_cell_length_c	12.759401
_cell_angle_alpha	90.005407
_cell_angle_beta	90.003006
_cell_angle_gamma	90.016214
loop_
_atom_site_label
_atom_site_type_symbol
_atom_site_fract_x
_atom_site_fract_y
_atom_site_fract_z
Zn1	Zn	1.606085	-0.423924	0.593999
Zn2	Zn	1.606023	-0.601870	0.418326
Zn3	Zn	1.430434	-0.423906	0.418338
Zn4	Zn	1.430371	-0.601861	0.593968
O5	O	1.518228	-0.512890	0.506158
O6	O	1.753098	-0.447540	0.570703
O7	O	1.582731	-0.578258	0.271307
O8	O	1.453787	-0.274963	0.441658
O9	O	1.753052	-0.578276	0.441638
O10	O	1.582837	-0.274976	0.570715
O11	O	1.453727	-0.447509	0.271316
O12	O	1.283405	-0.447501	0.441628
O13	O	1.453680	-0.578262	0.740993
O14	O	1.283359	-0.578244	0.570662
O15	O	1.582776	-0.447532	0.741016
O16	O	1.582670	-0.750814	0.441608
O17	O	1.453619	-0.750808	0.570651
C18	C	1.245261	-0.512871	0.506144
C19	C	1.128484	-0.512888	0.506162
C20	C	1.518159	-0.789431	0.506147
C21	C	1.518226	-0.907737	0.506178
C22	C	1.073626	-0.581075	0.573239
C23	C	0.963902	-0.581088	0.573251
C24	C	0.963904	-0.444725	0.439099
C25	C	1.073626	-0.444707	0.439094
C26	C	1.128483	-0.649255	0.640308
C27	C	1.073625	-0.717449	0.707390
C28	C	0.963901	-0.717462	0.707401
C29	C	0.909035	-0.649282	0.640331
C30	C	1.448029	-0.977025	0.576315
C31	C	1.422455	-1.047855	0.480449
C32	C	1.543895	-1.047705	0.602061
C33	C	1.492602	-0.977009	0.410261
C34	C	1.614086	-0.976852	0.531938
C35	C	1.588549	-1.047651	0.436005
C36	C	1.792262	-0.512911	0.506173
C37	C	1.909038	-0.512919	0.506179
C38	C	1.518228	-0.512898	0.780191
C39	C	1.518227	-0.512901	0.896968
C40	C	1.518326	-0.235269	0.506191
C41	C	1.518368	-0.116964	0.506205
C42	C	1.585388	-0.580978	0.951823
C43	C	1.585391	-0.580976	1.061547
C44	C	1.451062	-0.444818	1.061551
C45	C	1.451066	-0.444815	0.951829
C46	C	1.652550	-0.649064	0.896961
C47	C	1.719716	-0.717147	0.951816
C48	C	1.719718	-0.717146	1.061540
C49	C	1.652555	-0.649061	1.116409
C50	C	1.518222	-0.512906	1.233190
C51	C	1.518226	-0.512902	1.116414
H52	H	1.118303	-0.772951	0.762002
H53	H	0.919238	-0.772981	0.762029
H54	H	1.652570	-0.649057	1.205754
C55	C	1.792458	-0.791194	0.892192
C56	C	1.732940	-0.859427	0.829215
C57	C	1.799916	-0.927663	0.774287
H58	H	1.838270	-0.750608	0.849307
H59	H	1.832442	-0.831799	0.940545
H60	H	1.692975	-0.818826	0.780868
H61	H	1.687131	-0.900036	0.872073
H62	H	1.839899	-0.968268	0.822640
H63	H	1.845725	-0.887068	0.731408
H64	H	1.759542	-0.973973	0.731558
C65	C	1.792680	-0.791174	1.120909
C66	C	1.851475	-0.850814	1.049375
C67	C	1.918687	-0.919036	1.104025
H68	H	1.838568	-0.750585	1.163722
H69	H	1.752493	-0.837602	1.163682
H70	H	1.891659	-0.804392	1.006620
H71	H	1.805615	-0.891425	1.006560
H72	H	1.878500	-0.965464	1.146798
H73	H	1.964568	-0.878438	1.146836
H74	H	1.958580	-0.959516	1.055497
H75	H	1.388559	-0.946012	0.635542
C76	C	1.572708	-1.089322	0.710104
C77	C	1.573299	-1.200477	0.708454
C78	C	1.599813	-1.238846	0.807969
H79	H	1.640285	-1.064081	0.728973
H80	H	1.522698	-1.065201	0.759860
H81	H	1.623306	-1.224587	0.658714
H82	H	1.505732	-1.225746	0.689604
H83	H	1.549803	-1.214726	0.857725
H84	H	1.667388	-1.213598	0.826829
H85	H	1.600208	-1.314268	0.806865
H86	H	0.919224	-0.389217	0.384493
C87	C	1.133006	-0.370647	0.366142
C88	C	1.061482	-0.310972	0.307377
C89	C	1.116145	-0.242747	0.240151
H90	H	1.175827	-0.324234	0.406284
H91	H	1.175773	-0.411268	0.320243
H92	H	1.018734	-0.270354	0.353270
H93	H	1.018659	-0.357357	0.267213
H94	H	1.158911	-0.283368	0.194252
H95	H	1.158963	-0.196341	0.280302
H96	H	1.067625	-0.202256	0.200264
C97	C	1.314371	-1.089387	0.451603
C98	C	1.241117	-1.053634	0.525279
C99	C	1.141540	-1.091878	0.498755
H100	H	1.295560	-1.064165	0.384015
H101	H	1.315322	-1.164814	0.451240
H102	H	1.240163	-0.978222	0.525631
H103	H	1.259893	-1.078853	0.592873
H104	H	1.142491	-1.167304	0.498393
H105	H	1.122740	-1.066653	0.431166
H106	H	1.091827	-1.067633	0.548745
C107	C	1.463565	-0.935576	0.302210
C108	C	1.463759	-0.824414	0.303475
C109	C	1.436999	-0.786207	0.203966
H110	H	1.513125	-0.960209	0.252268
H111	H	1.395705	-0.960419	0.283799
H112	H	1.531610	-0.799580	0.321873
H113	H	1.414199	-0.799753	0.353396
H114	H	1.369138	-0.811051	0.185555
H115	H	1.486561	-0.810847	0.154032
H116	H	1.437117	-0.710781	0.204814
H117	H	1.396381	-0.389377	0.907165
C118	C	1.247612	-0.649360	0.640489
C119	C	1.283916	-0.723644	0.713597
C120	C	1.393649	-0.723760	0.713799
H121	H	1.272550	-0.667686	0.572718
H122	H	1.272486	-0.580720	0.658827
H123	H	1.259053	-0.792269	0.695253
H124	H	1.259007	-0.705335	0.781378
H125	H	1.418523	-0.655120	0.732136
H126	H	1.418577	-0.742084	0.646024
H127	H	1.418296	-0.774153	0.763408
C128	C	0.789905	-0.649452	0.640497
C129	C	0.753600	-0.723758	0.713599
C130	C	0.643867	-0.723942	0.713784
H131	H	0.765003	-0.580850	0.658830
H132	H	0.764995	-0.667794	0.572699
H133	H	0.778500	-0.705410	0.781382
H134	H	0.778473	-0.792371	0.695283
H135	H	0.618957	-0.742284	0.645986
H136	H	0.618976	-0.655337	0.732115
H137	H	0.619220	-0.774364	0.763375
C138	C	1.667647	-1.088694	0.356682
C139	C	1.640360	-1.052700	0.256514
C140	C	1.713187	-1.090502	0.183412
H141	H	1.735529	-1.063331	0.374250
H142	H	1.667660	-1.164124	0.357461
H143	H	1.640358	-0.977286	0.255738
H144	H	1.572490	-1.078060	0.238913
H145	H	1.713200	-1.165932	0.184191
H146	H	1.781065	-1.065137	0.200990
H147	H	1.694678	-1.066094	0.115439
C148	C	1.722162	-0.935380	0.560876
C149	C	1.795777	-0.972744	0.488349
C150	C	1.895349	-0.934574	0.514994
H151	H	1.721627	-0.859967	0.560003
H152	H	1.740313	-0.959576	0.629023
H153	H	1.777631	-0.948543	0.420220
H154	H	1.796345	-1.048153	0.489211
H155	H	1.913500	-0.958769	0.583140
H156	H	1.894803	-0.859161	0.514121
H157	H	1.945310	-0.959927	0.465794
H158	H	1.652553	-0.649076	0.807618
H159	H	1.396380	-0.389387	1.106234
