data_functionalizedCrystal
_audit_creation_method	'MofGen! by Chris Wilmer'
_symmetry_space_group_name_H-M	'P1'
_symmetry_Int_Tables_number	1
_symmetry_cell_setting	triclinic
loop_
_symmetry_equiv_pos_as_xyz
  x,y,z
_cell_length_a	10.723024
_cell_length_b	14.519709
_cell_length_c	9.198806
_cell_angle_alpha	89.995869
_cell_angle_beta	89.996352
_cell_angle_gamma	84.074007
loop_
_atom_site_label
_atom_site_type_symbol
_atom_site_fract_x
_atom_site_fract_y
_atom_site_fract_z
O1	O	1.655978	0.129347	-0.120886
O2	O	1.292710	0.141728	-0.120892
O3	O	1.483976	0.001349	-0.120876
O4	O	1.464713	0.269727	-0.120902
O5	O	1.483960	0.001348	0.120909
O6	O	1.292695	0.141728	0.120893
O7	O	1.655963	0.129347	0.120899
Cu8	Cu	1.474328	0.135538	0.142973
Cu9	Cu	1.474345	0.135538	-0.142966
O10	O	1.464697	0.269727	0.120883
C11	C	1.246211	0.140827	0.000000
C12	C	1.107682	0.138132	-0.000001
C13	C	1.031965	0.216681	-0.000010
C14	C	0.888788	0.213896	-0.000012
C15	C	1.483070	-0.033016	0.000017
C16	C	1.480380	-0.135411	0.000018
C17	C	1.470476	-0.510357	-0.000020
C18	C	1.473227	-0.406035	-0.000009
C19	C	1.475428	-0.322887	0.000000
C20	C	1.478179	-0.218559	0.000008
C21	C	1.702462	0.130248	0.000003
C22	C	1.840991	0.132944	-0.000005
C23	C	1.465603	0.304091	-0.000013
C24	C	1.468293	0.406486	-0.000024
N25	N	1.474324	0.135537	0.344087
N26	N	1.474359	0.135532	-0.344080
C27	C	1.554633	0.076335	0.416290
C28	C	1.554653	0.076332	0.583703
H29	H	0.906045	0.065696	-0.000006
H30	H	1.623414	0.025651	0.645795
H31	H	1.623371	0.025649	0.354170
H32	H	1.405604	0.186222	0.593837
O33	O	1.392258	0.195876	0.418347
C34	C	1.315023	0.146082	0.506383
H35	H	1.364326	0.074155	0.529028
H36	H	1.222683	0.139424	0.447832
C37	C	1.228235	0.286189	0.623236
C38	C	1.288795	0.197849	0.651060
H39	H	1.212051	0.318122	0.712478
H40	H	1.280266	0.319737	0.563922
H41	H	1.151292	0.280627	0.574441
H42	H	1.365743	0.203411	0.699838
H43	H	1.236776	0.164302	0.710387
H44	H	1.066508	0.068822	-0.000032
H45	H	0.823726	0.281141	-0.000025
O46	O	1.081279	0.299293	-0.000075
C47	C	1.213257	0.283681	-0.000029
H48	H	1.243538	0.211886	-0.045801
H49	H	1.249498	0.288339	0.115970
C50	C	1.230369	0.445501	-0.038628
C51	C	1.267561	0.357324	-0.094857
H52	H	1.263868	0.490929	-0.097116
H53	H	1.141453	0.456020	-0.038654
H54	H	1.260573	0.449369	0.058037
H55	H	1.237343	0.353453	-0.191513
H56	H	1.356473	0.346806	-0.094850
