data_functionalizedCrystal
_audit_creation_method	'MofGen! by Chris Wilmer'
_symmetry_space_group_name_H-M	'P1'
_symmetry_Int_Tables_number	1
_symmetry_cell_setting	triclinic
loop_
_symmetry_equiv_pos_as_xyz
  x,y,z
_cell_length_a	10.723023
_cell_length_b	10.489741
_cell_length_c	9.198806
_cell_angle_alpha	89.997101
_cell_angle_beta	89.996191
_cell_angle_gamma	84.503361
loop_
_atom_site_label
_atom_site_type_symbol
_atom_site_fract_x
_atom_site_fract_y
_atom_site_fract_z
O1	O	1.657298	0.178901	-0.120888
O2	O	1.294156	0.196027	-0.120891
O3	O	1.483990	0.001861	-0.120881
O4	O	1.467464	0.373067	-0.120898
O5	O	1.483975	0.001861	0.120904
O6	O	1.294141	0.196027	0.120894
O7	O	1.657283	0.178901	0.120897
Cu8	Cu	1.475710	0.187464	0.142972
Cu9	Cu	1.475728	0.187464	-0.142966
O10	O	1.467448	0.373067	0.120887
C11	C	1.247648	0.194781	0.000001
C12	C	1.109091	0.191053	-0.000000
C13	C	1.482734	-0.045670	0.000011
C14	C	1.479000	-0.187297	0.000008
C15	C	0.904112	0.185537	0.125246
C16	C	1.047317	0.189390	0.125250
C17	C	1.358214	-0.255360	-0.000004
C18	C	1.415265	-0.347519	0.119210
C19	C	1.415308	-0.347493	-0.119172
C20	C	1.536100	-0.277591	0.119320
C21	C	1.536127	-0.277556	-0.119168
C22	C	1.593265	-0.369688	0.000074
C23	C	1.703791	0.180147	0.000002
C24	C	1.842347	0.183875	-0.000006
C25	C	1.468704	0.420598	-0.000008
C26	C	1.472439	0.562225	-0.000015
N27	N	1.475707	0.187463	0.344086
N28	N	1.475741	0.187456	-0.344080
C29	C	1.555412	0.105578	0.416288
C30	C	1.555432	0.105574	0.583700
H31	H	0.850971	0.184114	0.232476
N32	N	1.117663	0.191275	0.267303
H33	H	1.209992	0.193759	0.247171
H34	H	1.085560	0.269604	0.324887
H35	H	0.895486	0.185313	-0.107236
N36	N	1.038748	0.189149	-0.142053
H37	H	0.975320	0.266629	-0.147855
H38	H	1.099736	0.190740	-0.225556
N39	N	1.226671	-0.189505	0.000135
H40	H	1.181205	-0.214770	0.090272
H41	H	1.230224	-0.093644	-0.000841
H42	H	1.364151	-0.378498	0.219995
N43	N	1.603737	-0.236811	0.252971
H44	H	1.605810	-0.140755	0.252178
H45	H	1.558409	-0.262935	0.342829
N46	N	1.724925	-0.435248	0.000148
H47	H	1.770364	-0.409838	0.090233
H48	H	1.721586	-0.531138	-0.000764
N49	N	1.603776	-0.236476	-0.252676
H50	H	1.545703	-0.174838	-0.311359
H51	H	1.679686	-0.193030	-0.222193
N52	N	1.347600	-0.388499	-0.252667
H53	H	1.258817	-0.346501	-0.252554
H54	H	1.392428	-0.361820	-0.342637
H55	H	1.623634	0.035472	0.354166
N56	N	1.385324	0.280315	0.426367
H57	H	1.433737	0.337034	0.489509
H58	H	1.332149	0.334873	0.355092
N59	N	1.645837	0.012715	0.665931
H60	H	1.633038	0.025876	0.773868
H61	H	1.630381	-0.077867	0.639412
H62	H	1.407503	0.257568	0.593839
