data_functionalizedCrystal
_audit_creation_method	'MofGen! by Chris Wilmer'
_symmetry_space_group_name_H-M	'P1'
_symmetry_Int_Tables_number	1
_symmetry_cell_setting	triclinic
loop_
_symmetry_equiv_pos_as_xyz
  x,y,z
_cell_length_a	9.065218
_cell_length_b	14.971491
_cell_length_c	13.448316
_cell_angle_alpha	89.990854
_cell_angle_beta	89.995634
_cell_angle_gamma	84.316060
loop_
_atom_site_label
_atom_site_type_symbol
_atom_site_fract_x
_atom_site_fract_y
_atom_site_fract_z
O1	O	0.192297	1.188378	-0.082730
O2	O	0.692297	1.688378	0.417270
O3	O	0.215313	0.928150	-0.082723
O4	O	0.715313	1.428150	0.417277
O5	O	-0.010947	1.063643	-0.082725
O6	O	0.489053	1.563643	0.417275
O7	O	0.418556	1.052886	-0.082728
O8	O	0.918556	1.552886	0.417272
O9	O	-0.010959	1.063624	0.082659
O10	O	0.489041	1.563624	0.582659
O11	O	0.215300	0.928132	0.082661
O12	O	0.715300	1.428132	0.582661
O13	O	0.192285	1.188360	0.082653
O14	O	0.692285	1.688360	0.582653
Cu15	Cu	0.203791	1.058244	0.097758
Cu16	Cu	0.703791	1.558244	0.597758
Cu17	Cu	0.203806	1.058266	-0.097827
Cu18	Cu	0.703806	1.558266	0.402173
O19	O	0.418544	1.052867	0.082655
O20	O	0.918544	1.552867	0.582655
C21	C	0.214276	0.894809	-0.000030
C22	C	0.714276	1.394809	0.499970
C23	C	0.211187	0.795489	-0.000027
C24	C	0.711187	1.295489	0.499973
C25	C	0.197866	0.367694	-0.090200
C26	C	0.697866	0.867694	0.409800
C27	C	0.200764	0.461016	-0.090197
C28	C	0.700764	0.961016	0.409803
C29	C	0.202216	0.507663	-0.000043
C30	C	0.702216	1.007663	0.499957
C31	C	0.200755	0.460983	0.090114
C32	C	0.700755	0.960983	0.590114
C33	C	0.197847	0.367664	0.090109
C34	C	0.697847	0.867664	0.590109
C35	C	0.206820	0.655490	0.090117
C36	C	0.706820	1.155490	0.590117
C37	C	0.209731	0.748816	0.090123
C38	C	0.709731	1.248816	0.590123
C39	C	0.209737	0.748842	-0.090188
C40	C	0.709737	1.248842	0.409812
C41	C	0.206829	0.655523	-0.090193
C42	C	0.706829	1.155523	0.409807
C43	C	0.205371	0.608850	-0.000036
C44	C	0.705371	1.108850	0.499964
C45	C	-0.065918	1.062600	-0.000034
C46	C	0.434082	1.562600	0.499966
C47	C	-0.229699	1.059509	-0.000039
C48	C	0.270301	1.559509	0.499961
C49	C	0.473516	1.053910	-0.000037
C50	C	0.973516	1.553910	0.499963
C51	C	0.637296	1.057001	-0.000039
C52	C	1.137296	1.557001	0.499961
C53	C	0.193321	1.221701	-0.000042
C54	C	0.693321	1.721701	0.499958
C55	C	0.196410	1.321021	-0.000051
C56	C	0.696410	1.821021	0.499949
N57	N	0.203780	1.058235	0.235322
N58	N	0.703780	1.558235	0.735322
C59	C	0.103635	1.118250	0.287362
C60	C	0.603635	1.618250	0.787362
C61	C	0.103635	1.118254	0.391465
C62	C	0.603635	1.618254	0.891465
C63	C	0.203788	1.058248	0.443527
C64	C	0.703788	1.558248	0.943527
C65	C	0.303939	0.998226	0.391480
C66	C	0.803939	1.498226	0.891480
C67	C	0.303931	0.998218	0.287379
C68	C	0.803931	1.498218	0.787379
C69	C	0.303951	0.998249	0.608460
C70	C	0.803951	1.498249	1.108460
C71	C	0.303962	0.998258	0.712569
C72	C	0.803962	1.498258	1.212569
C73	C	0.103655	1.118285	0.712547
C74	C	0.603655	1.618285	1.212547
C75	C	0.103647	1.118277	0.608445
C76	C	0.603647	1.618277	1.108445
C77	C	0.203800	1.058257	0.556406
C78	C	0.703800	1.558257	1.056406
N79	N	0.203816	1.058273	0.764608
N80	N	0.703816	1.558273	1.264608
H81	H	0.196676	0.329663	0.163518
H82	H	0.696676	0.829663	0.663518
F83	F	0.205296	0.605879	-0.186145
F84	F	0.705296	1.105879	0.313855
H85	H	0.022084	1.167118	0.244980
H86	H	0.522084	1.667118	0.744980
H87	H	0.385502	0.949371	0.566093
H88	H	0.885502	1.449371	1.066093
F89	F	-0.002953	1.182128	0.446850
F90	F	0.497047	1.682128	0.946850
H91	H	0.022101	1.167143	0.566057
H92	H	0.522101	1.667143	1.066057
F93	F	0.211303	0.798515	-0.186141
F94	F	0.711303	1.298515	0.313859
F95	F	0.205252	0.605821	0.186073
F96	F	0.705252	1.105821	0.686073
H97	H	0.385481	0.949363	0.433875
H98	H	0.885481	1.449363	0.933875
H99	H	0.022107	1.167156	0.754923
H100	H	0.522107	1.667156	1.254923
F101	F	0.202307	0.510685	-0.186146
F102	F	0.702307	1.010685	0.313854
H103	H	0.201928	0.498971	0.163519
H104	H	0.701928	0.998971	0.663519
F105	F	0.410558	0.934389	0.767970
F106	F	0.910558	1.434389	1.267970
H107	H	0.385478	0.949347	0.245009
H108	H	0.885478	1.449347	0.745009
H109	H	0.196695	0.329721	-0.163615
H110	H	0.696695	0.829721	0.336385
H111	H	0.210921	0.786792	0.163534
H112	H	0.710921	1.286792	0.663534
