data_functionalizedCrystal
_audit_creation_method	'MofGen! by Chris Wilmer'
_symmetry_space_group_name_H-M	'P1'
_symmetry_Int_Tables_number	1
_symmetry_cell_setting	triclinic
loop_
_symmetry_equiv_pos_as_xyz
  x,y,z
_cell_length_a	18.050591
_cell_length_b	18.050590
_cell_length_c	18.050582
_cell_angle_alpha	90.023337
_cell_angle_beta	90.010544
_cell_angle_gamma	90.017393
loop_
_atom_site_label
_atom_site_type_symbol
_atom_site_fract_x
_atom_site_fract_y
_atom_site_fract_z
Zn1	Zn	1.135342	-0.295730	0.419822
Zn2	Zn	1.468676	0.037604	0.753155
Zn3	Zn	1.802009	0.370937	1.086489
Zn4	Zn	1.135274	-0.419913	0.295630
Zn5	Zn	1.468607	-0.086580	0.628964
Zn6	Zn	1.801941	0.246754	0.962297
Zn7	Zn	1.011162	-0.295739	0.295655
Zn8	Zn	1.344495	0.037595	0.628989
Zn9	Zn	1.677828	0.370928	0.962322
Zn10	Zn	1.011131	-0.419880	0.419788
Zn11	Zn	1.344464	-0.086546	0.753122
Zn12	Zn	1.677797	0.246787	1.086455
O13	O	1.073227	-0.357815	0.357724
O14	O	1.406560	-0.024482	0.691057
O15	O	1.739894	0.308851	1.024391
O16	O	1.239258	-0.312213	0.403351
O17	O	1.572591	0.021120	0.736684
O18	O	1.905925	0.354454	1.070018
O19	O	1.118795	-0.403459	0.191709
O20	O	1.452128	-0.070125	0.525042
O21	O	1.785461	0.263208	0.858376
O22	O	1.027676	-0.191813	0.312151
O23	O	1.361009	0.141520	0.645484
O24	O	1.694343	0.474854	0.978818
O25	O	1.239208	-0.403450	0.312108
O26	O	1.572541	-0.070116	0.645441
O27	O	1.905874	0.263217	0.978775
O28	O	1.118911	-0.191806	0.403376
O29	O	1.452244	0.141527	0.736709
O30	O	1.785578	0.474860	1.070042
O31	O	1.027610	-0.312228	0.191727
O32	O	1.360943	0.021105	0.525061
O33	O	1.694276	0.354438	0.858394
O34	O	0.907233	-0.312196	0.312118
O35	O	1.240566	0.021137	0.645452
O36	O	1.573900	0.354470	0.978785
O37	O	1.027623	-0.403393	0.523717
O38	O	1.360956	-0.070060	0.857051
O39	O	1.694290	0.263273	1.190384
O40	O	0.907210	-0.403402	0.403318
O41	O	1.240543	-0.070069	0.736652
O42	O	1.573877	0.263265	1.069985
O43	O	1.118881	-0.312181	0.523742
O44	O	1.452214	0.021153	0.857075
O45	O	1.785548	0.354486	1.190409
O46	O	1.118764	-0.523833	0.312075
O47	O	1.452098	-0.190500	0.645409
O48	O	1.785431	0.142834	0.978742
O49	O	1.027557	-0.523809	0.403294
O50	O	1.360890	-0.190475	0.736627
O51	O	1.694223	0.142858	1.069960
C52	C	0.880275	-0.357797	0.357718
C53	C	1.213608	-0.024464	0.691051
C54	C	1.546942	0.308870	1.024384
C55	C	0.797729	-0.357807	0.357733
C56	C	1.131063	-0.024474	0.691066
C57	C	1.464396	0.308859	1.024399
C58	C	1.073170	-0.550767	0.357694
C59	C	1.406503	-0.217434	0.691028
C60	C	1.739837	0.115899	1.024361
C61	C	1.073214	-0.633313	0.357706
C62	C	1.406547	-0.299980	0.691040
C63	C	1.739880	0.033354	1.024373
C64	C	0.548913	-0.407508	0.407260
C65	C	0.882246	-0.074174	0.740593
C66	C	1.215579	0.259159	1.073926
C67	C	0.598286	-0.425579	0.339473
C68	C	0.931619	-0.092245	0.672807
C69	C	1.264952	0.241088	1.006140
C70	C	0.500609	-0.357831	0.357731
C71	C	0.833942	-0.024497	0.691065
C72	C	1.167275	0.308836	1.024398
C73	C	0.598317	-0.339783	0.425514
C74	C	0.931651	-0.006450	0.758848
C75	C	1.264984	0.326884	1.092181
C76	C	0.646594	-0.357821	0.357736
C77	C	0.979927	-0.024488	0.691069
C78	C	1.313261	0.308846	1.024402
C79	C	0.548895	-0.375937	0.289909
C80	C	0.882228	-0.042603	0.623243
C81	C	1.215561	0.290730	0.956576
C82	C	0.548922	-0.290110	0.375996
C83	C	0.882255	0.043224	0.709329
C84	C	1.215589	0.376557	1.042663
C85	C	0.598273	-0.308155	0.308163
C86	C	0.931606	0.025179	0.641496
C87	C	1.264939	0.358512	0.974830
C88	C	0.416511	-0.357838	0.357730
C89	C	0.749844	-0.024505	0.691063
C90	C	1.083177	0.308829	1.024397
C91	C	0.730690	-0.357813	0.357730
C92	C	1.064024	-0.024480	0.691063
C93	C	1.397357	0.308853	1.024396
C94	C	1.122915	-0.832750	0.308171
C95	C	1.456249	-0.499417	0.641504
C96	C	1.789582	-0.166083	0.974838
C97	C	1.141051	-0.882089	0.375950
C98	C	1.474384	-0.548756	0.709283
C99	C	1.807718	-0.215422	1.042617
C100	C	1.073256	-0.784444	0.357736
C101	C	1.406589	-0.451110	0.691069
C102	C	1.739922	-0.117777	1.024403
C103	C	1.055196	-0.882186	0.289988
C104	C	1.388529	-0.548853	0.623321
C105	C	1.721862	-0.215519	0.956654
C106	C	1.073298	-0.930429	0.357759
C107	C	1.406631	-0.597095	0.691092
C108	C	1.739964	-0.263762	1.024425
C109	C	1.091426	-0.832695	0.425550
C110	C	1.424759	-0.499362	0.758884
C111	C	1.758093	-0.166029	1.092217
C112	C	1.005539	-0.832788	0.339543
C113	C	1.338873	-0.499455	0.672876
C114	C	1.672206	-0.166121	1.006209
C115	C	1.023649	-0.882105	0.407368
C116	C	1.356982	-0.548771	0.740701
C117	C	1.690316	-0.215438	1.074035
C118	C	1.073233	-0.700345	0.357722
C119	C	1.406567	-0.367012	0.691055
C120	C	1.739900	-0.033679	1.024389
C121	C	1.073320	-1.014525	0.357780
C122	C	1.406653	-0.681192	0.691114
C123	C	1.739987	-0.347858	1.024447
C124	C	1.266933	-0.357834	0.357730
C125	C	1.600266	-0.024501	0.691064
C126	C	1.933599	0.308833	1.024397
C127	C	1.349478	-0.357842	0.357733
C128	C	1.682812	-0.024509	0.691067
C129	C	2.016145	0.308825	1.024400
C130	C	1.073256	-0.357782	0.551430
C131	C	1.406590	-0.024449	0.884763
C132	C	1.739923	0.308884	1.218096
C133	C	1.073269	-0.357768	0.633975
C134	C	1.406602	-0.024435	0.967309
C135	C	1.739935	0.308898	1.300642
C136	C	1.073305	-0.164110	0.357770
C137	C	1.406638	0.169224	0.691103
C138	C	1.739971	0.502557	1.024437
C139	C	1.073338	-0.081564	0.357789
C140	C	1.406671	0.251769	0.691123
C141	C	1.740004	0.585103	1.024456
C142	C	1.073241	-0.357794	0.164772
C143	C	1.406574	-0.024461	0.498105
C144	C	1.739908	0.308872	0.831438
C145	C	1.073372	-0.357599	0.082226
C146	C	1.406706	-0.024266	0.415560
C147	C	1.740039	0.309067	0.748893
C148	C	1.023680	-0.407302	0.833413
C149	C	1.357014	-0.073969	1.166746
C150	C	1.690347	0.259365	1.500079
C151	C	1.091439	-0.425457	0.882799
C152	C	1.424772	-0.092123	1.216132
C153	C	1.758105	0.241210	1.549465
C154	C	1.073305	-0.357712	0.785106
C155	C	1.406639	-0.024378	1.118439
C156	C	1.739972	0.308955	1.451773
C157	C	1.005584	-0.339536	0.882802
C158	C	1.338917	-0.006203	1.216135
C159	C	1.672251	0.327131	1.549468
C160	C	1.073335	-0.357658	0.931091
C161	C	1.406668	-0.024325	1.264424
C162	C	1.740001	0.309008	1.597758
C163	C	1.141099	-0.375902	0.833405
C164	C	1.474432	-0.042569	1.166738
C165	C	1.807766	0.290765	1.500071
C166	C	1.055199	-0.289950	0.833403
C167	C	1.388532	0.043384	1.166737
C168	C	1.721865	0.376717	1.500070
C169	C	1.123004	-0.308079	0.882767
C170	C	1.456337	0.025254	1.216100
C171	C	1.789670	0.358588	1.549434
C172	C	1.073287	-0.357744	0.701008
C173	C	1.406621	-0.024411	1.034341
C174	C	1.739954	0.308922	1.367674
C175	C	1.073360	-0.357626	1.015188
C176	C	1.406694	-0.024292	1.348521
C177	C	1.740027	0.309041	1.681854
H178	H	0.527240	-0.449554	0.449090
H179	H	0.860573	-0.116221	0.782423
H180	H	1.193907	0.217113	1.115756
H181	H	1.198335	-0.903747	0.391353
H182	H	1.531669	-0.570413	0.724686
H183	H	1.865002	-0.237080	1.058019
F184	F	1.035207	-0.910601	0.215089
F185	F	1.368540	-0.577268	0.548423
F186	F	1.701874	-0.243935	0.881756
H187	H	0.619809	-0.266140	0.266232
H188	H	0.953142	0.067193	0.599565
H189	H	1.286475	0.400526	0.932899
H190	H	0.981672	-0.903639	0.449342
H191	H	1.315005	-0.570305	0.782675
H192	H	1.648338	-0.236972	1.116008
H193	H	0.981754	-0.449294	0.811743
H194	H	1.315087	-0.115960	1.145076
H195	H	1.648421	0.217373	1.478410
F196	F	1.111510	-0.804404	0.500470
F197	F	1.444843	-0.471071	0.833804
F198	F	1.778176	-0.137738	1.167137
H199	H	0.948301	-0.324186	0.904500
H200	H	1.281634	0.009148	1.237834
H201	H	1.614968	0.342481	1.571167
F202	F	0.626631	-0.500428	0.319277
F203	F	0.959964	-0.167095	0.652611
F204	F	1.293298	0.166239	0.985944
H205	H	1.106771	-0.482739	0.904496
H206	H	1.440105	-0.149406	1.237829
H207	H	1.773438	0.183928	1.571162
H208	H	0.948271	-0.811114	0.324120
H209	H	1.281605	-0.477781	0.657453
H210	H	1.614938	-0.144448	0.990786
H211	H	1.198399	-0.391318	0.811797
H212	H	1.531732	-0.057984	1.145131
H213	H	1.865066	0.275349	1.478464
F214	F	1.177934	-0.253235	0.910917
F215	F	1.511268	0.080098	1.244250
F216	F	1.844601	0.413432	1.577584
F217	F	0.626694	-0.319836	0.500436
F218	F	0.960028	0.013498	0.833770
F219	F	1.293361	0.346831	1.167103
H220	H	0.527277	-0.391267	0.232572
H221	H	0.860610	-0.057933	0.565906
H222	H	1.193943	0.275400	0.899239
F223	F	0.520556	-0.215280	0.396218
F224	F	0.853889	0.118053	0.729551
F225	F	1.187223	0.451387	1.062885
F226	F	1.177823	-0.804422	0.253440
F227	F	1.511156	-0.471089	0.586774
F228	F	1.844489	-0.137756	0.920107
H229	H	1.039846	-0.232684	0.811690
H230	H	1.373180	0.100649	1.145023
H231	H	1.706513	0.433982	1.478356
