data_functionalizedCrystal
_audit_creation_method	'MofGen! by Chris Wilmer'
_symmetry_space_group_name_H-M	'P1'
_symmetry_Int_Tables_number	1
_symmetry_cell_setting	triclinic
loop_
_symmetry_equiv_pos_as_xyz
  x,y,z
_cell_length_a	14.908571
_cell_length_b	18.101397
_cell_length_c	14.908854
_cell_angle_alpha	86.667946
_cell_angle_beta	89.795614
_cell_angle_gamma	86.716412
loop_
_atom_site_label
_atom_site_type_symbol
_atom_site_fract_x
_atom_site_fract_y
_atom_site_fract_z
Zn1	Zn	1.345317	-0.330803	-0.587565
Zn2	Zn	1.353893	-0.462187	-0.437189
Zn3	Zn	1.203627	-0.331644	-0.428559
Zn4	Zn	1.194925	-0.447886	-0.578846
O5	O	1.274440	-0.393130	-0.508040
O6	O	1.472281	-0.353865	-0.574878
O7	O	1.341190	-0.451207	-0.310216
O8	O	1.222475	-0.227900	-0.449689
O9	O	1.478581	-0.450392	-0.464398
O10	O	1.326574	-0.227283	-0.566510
O11	O	1.230791	-0.355297	-0.303876
O12	O	1.076646	-0.341430	-0.441234
O13	O	1.207644	-0.426018	-0.705831
O14	O	1.070253	-0.426833	-0.551649
O15	O	1.318136	-0.339998	-0.712237
O16	O	1.332753	-0.563922	-0.455943
O17	O	1.215960	-0.553415	-0.560018
C18	C	1.040824	-0.382671	-0.494559
C19	C	0.940881	-0.378214	-0.488814
C20	C	0.746478	-0.458923	-0.592838
C21	C	0.652572	-0.454737	-0.587442
C22	C	0.659162	-0.365653	-0.472632
C23	C	0.753068	-0.369839	-0.478028
C24	C	0.796722	-0.416476	-0.538132
C25	C	0.890630	-0.420665	-0.543522
C26	C	0.897218	-0.331578	-0.428717
C27	C	0.803312	-0.327392	-0.423322
C28	C	1.274366	-0.585539	-0.507992
C29	C	1.274415	-0.667855	-0.508006
C30	C	1.274525	-0.966947	-0.508095
C31	C	1.347825	-0.942202	-0.442417
C32	C	1.348054	-0.856585	-0.442611
C33	C	1.274470	-0.818564	-0.508050
C34	C	1.294689	-0.845966	-0.604307
C35	C	1.295248	-0.931654	-0.603959
C36	C	1.180774	-0.932419	-0.478325
C37	C	1.181366	-0.846897	-0.476236
C38	C	1.274438	-0.734704	-0.508030
C39	C	1.274559	-1.050807	-0.508121
C40	C	1.508969	-0.403630	-0.521573
C41	C	1.608911	-0.408104	-0.527341
C42	C	1.260963	-0.381319	-0.742572
C43	C	1.255220	-0.376286	-0.842515
C44	C	1.274538	-0.199969	-0.508109
C45	C	1.274580	-0.117656	-0.508139
C46	C	1.359408	-0.466697	-1.036926
C47	C	1.354015	-0.461971	-1.130832
C48	C	1.239045	-0.362103	-1.124236
C49	C	1.244439	-0.366830	-1.030330
C50	C	1.304621	-0.419129	-0.986678
C51	C	1.310009	-0.423859	-0.892770
C52	C	1.195045	-0.323988	-0.886176
C53	C	1.189652	-0.319262	-0.980082
C54	C	1.287917	-0.404844	-0.274423
C55	C	1.293834	-0.409676	-0.174490
H56	H	0.782022	-0.496901	-0.641771
Br57	Br	1.089858	-0.958108	-0.557941
Br58	Br	1.428376	-0.526527	-1.199024
Br59	Br	1.120651	-0.259454	-0.817976
H60	H	0.767756	-0.289419	-0.374390
H61	H	0.926172	-0.458641	-0.592460
H62	H	1.408415	-0.509278	-1.001384
H63	H	0.623602	-0.327678	-0.423705
Br64	Br	0.584384	-0.512341	-0.661694
Br65	Br	0.965413	-0.273978	-0.354458
H66	H	1.336038	-0.838430	-0.371409
Br67	Br	1.157388	-0.291121	-1.183494
H68	H	1.336015	-0.965670	-0.371015
Br69	Br	1.463136	-0.981876	-0.475620
Br70	Br	1.391679	-0.494839	-0.833528
H71	H	1.242697	-0.820746	-0.654794
Br72	Br	1.107984	-0.248284	-1.039332
H73	H	1.362256	-0.826484	-0.629191
Br74	Br	1.463986	-0.826247	-0.476167
Br75	Br	1.409193	-0.968321	-0.644928
Br76	Br	1.209624	-0.958121	-0.688780
H77	H	1.161323	-0.956441	-0.409066
Br78	Br	1.086175	-0.803270	-0.549394
Br79	Br	1.155781	-0.817515	-0.358126
