data_functionalizedCrystal
_audit_creation_method	'MofGen! by Chris Wilmer'
_symmetry_space_group_name_H-M	'P1'
_symmetry_Int_Tables_number	1
_symmetry_cell_setting	triclinic
loop_
_symmetry_equiv_pos_as_xyz
  x,y,z
_cell_length_a	20.919287
_cell_length_b	20.919467
_cell_length_c	18.878441
_cell_angle_alpha	61.853663
_cell_angle_beta	86.842895
_cell_angle_gamma	60.190942
loop_
_atom_site_label
_atom_site_type_symbol
_atom_site_fract_x
_atom_site_fract_y
_atom_site_fract_z
Zr1	Zr	0.653239	0.664226	-0.092320
O2	O	0.557969	0.790825	-0.191898
O3	O	0.677623	0.537628	-0.066851
O4	O	0.684579	0.664228	-0.207338
O5	O	0.551011	0.664223	0.065160
O6	O	0.789936	0.664229	-0.213765
O7	O	0.551013	0.664225	-0.051411
O8	O	0.777493	0.437764	0.037541
O9	O	0.563454	0.890687	-0.186146
O10	O	0.772475	0.589700	-0.054675
O11	O	0.693846	0.589698	0.037117
O12	O	0.702036	0.738753	-0.128289
O13	O	0.623408	0.738751	-0.036497
Zr14	Zr	0.821269	0.664224	0.083347
Zr15	Zr	0.821272	0.664227	-0.102570
Zr16	Zr	0.653236	0.664223	0.093597
Zr17	Zr	0.661988	0.823495	-0.083146
Zr18	Zr	0.812521	0.504955	0.074173
O19	O	0.796885	0.790822	0.057878
O20	O	0.796890	0.790826	-0.206473
O21	O	0.557965	0.790821	0.072452
O22	O	0.916539	0.537625	0.182925
O23	O	0.916544	0.537629	-0.081425
O24	O	0.677618	0.537624	0.197499
O25	O	0.923497	0.664227	-0.074133
O26	O	0.789929	0.664222	0.198365
O27	O	0.684572	0.664222	0.204792
O28	O	0.923495	0.664225	0.042438
O29	O	0.697018	0.890688	-0.194293
O30	O	0.777490	0.437762	0.185320
O31	O	0.911054	0.437763	0.177173
O32	O	0.911056	0.437765	0.029394
O33	O	0.563452	0.890685	-0.038367
O34	O	0.697015	0.890686	-0.046514
O35	O	0.772472	0.589697	0.119316
O36	O	0.851100	0.589699	0.027524
O37	O	0.780662	0.738752	-0.046090
O38	O	0.702033	0.738750	0.045702
C39	C	0.726311	0.465004	-0.015962
C40	C	0.722598	0.397390	-0.019857
C41	C	0.527071	0.664224	0.008335
C42	C	0.455737	0.664224	0.012686
C43	C	0.775858	0.310603	0.035820
C44	C	0.772334	0.247092	0.032158
C45	C	0.715553	0.270369	-0.027185
C46	C	0.662287	0.357165	-0.082865
C47	C	0.665808	0.420674	-0.079198
C48	C	0.702166	0.081365	-0.041129
C49	C	0.698651	0.017847	-0.044793
C50	C	0.808697	-0.092222	0.070231
C51	C	0.812215	-0.028706	0.073889
C52	C	0.758948	0.058084	0.018212
C53	C	0.711951	0.205452	-0.030932
C54	C	0.762547	0.122999	0.021963
C55	C	0.422225	0.664227	-0.049491
C56	C	0.355201	0.664222	-0.045399
C57	C	0.321687	0.664220	0.020869
C58	C	0.355205	0.664215	0.083052
C59	C	0.422231	0.664213	0.078962
C60	C	0.119315	0.664219	0.036434
C61	C	0.052284	0.664223	0.040518
C62	C	0.052285	0.664229	-0.087932
C63	C	0.119309	0.664233	-0.092019
C64	C	0.152823	0.664223	-0.029834
C65	C	0.253176	0.664218	0.025052
C66	C	0.221336	0.664219	-0.034015
C67	C	0.947437	0.664226	-0.017308
C68	C	1.018772	0.664226	-0.021659
C69	C	0.737258	0.664229	-0.237041
C70	C	0.737259	0.664230	-0.315967
C71	C	0.748197	0.863446	0.006989
C72	C	0.751911	0.931060	0.010884
C73	C	0.679207	0.664219	-0.652383
C74	C	0.679211	0.664215	-0.578223
C75	C	0.737254	0.664220	-0.544688
C76	C	0.795302	0.664219	-0.585315
C77	C	0.795300	0.664216	-0.659471
C78	C	0.795300	0.664227	-0.430750
C79	C	0.795301	0.664231	-0.356590
C80	C	0.679211	0.664227	-0.349502
C81	C	0.679209	0.664224	-0.423658
C82	C	0.737256	0.664224	-0.464280
C83	C	0.737250	0.664221	0.228068
C84	C	0.737249	0.664220	0.306994
C85	C	0.936495	0.465005	-0.028783
C86	C	1.004115	0.397391	-0.037029
C87	C	0.726307	0.465000	0.216592
C88	C	0.722592	0.397385	0.291624
C89	C	0.936491	0.465001	0.203771
C90	C	1.004110	0.397386	0.274451
C91	C	0.538018	0.863449	-0.212744
C92	C	0.470399	0.931064	-0.283425
C93	C	0.538014	0.863445	0.019810
C94	C	0.470393	0.931059	0.028056
C95	C	0.748201	0.863450	-0.225565
C96	C	0.751916	0.931065	-0.300597
C97	C	0.994828	0.365640	-0.083817
C98	C	1.058359	0.302119	-0.091581
C99	C	1.131175	0.270346	-0.052553
C100	C	1.140460	0.302103	-0.005764
C101	C	1.076931	0.365628	0.001995
C102	C	0.761889	0.365632	0.369775
C103	C	0.758396	0.302109	0.440283
C104	C	0.715610	0.270337	0.432639
C105	C	0.676308	0.302096	0.354480
C106	C	0.679797	0.365622	0.283974
C107	C	1.076915	0.365635	0.259729
C108	C	1.140457	0.302112	0.326134
C109	C	1.131192	0.270338	0.407261
C110	C	1.058380	0.302096	0.421982
C111	C	0.994839	0.365622	0.355578
C112	C	0.397594	0.962823	-0.268702
C113	C	0.334053	1.026365	-0.335106
C114	C	0.343318	1.058143	-0.416232
C115	C	0.416130	1.026381	-0.430954
C116	C	0.479670	0.962844	-0.364550
C117	C	0.479680	0.962817	0.074836
C118	C	0.416150	1.026356	0.082582
C119	C	0.343335	1.058131	0.043551
C120	C	0.334049	1.026370	-0.003235
C121	C	0.397578	0.962837	-0.010985
C122	C	0.794709	0.962818	-0.292926
C123	C	0.798215	1.026341	-0.363421
C124	C	0.758922	1.058115	-0.441586
C125	C	0.716128	1.026356	-0.449255
C126	C	0.712627	0.962830	-0.378762
H127	H	0.822097	0.291640	0.084141
Br128	Br	0.235246	1.069456	-0.315107
H129	H	1.050784	0.276269	-0.129681
Br130	Br	1.217434	0.184124	0.497373
H131	H	0.858454	-0.047669	0.122210
Br132	Br	1.045819	0.258966	0.532088
H133	H	0.538949	0.936986	-0.376548
Br134	Br	0.896035	0.408702	0.375574
Br135	Br	0.384999	0.919709	-0.158609
Br136	Br	0.839600	0.091412	0.102503
H137	H	0.291573	1.109878	-0.470294
Br138	Br	0.662799	1.069494	-0.555342
H139	H	0.616052	0.376113	-0.131179
H140	H	1.182899	0.218619	-0.058877
Br141	Br	0.428691	1.069514	-0.541060
Br142	Br	0.257123	1.144356	0.054076
H143	H	0.631939	0.664220	-0.679684
H144	H	0.024992	0.664236	-0.138560
H145	H	0.826706	0.936957	-0.229287
H146	H	0.790403	0.276258	0.503916
H147	H	0.538965	0.936950	0.106627
H148	H	0.449516	0.664209	0.129594
Br149	Br	0.384961	0.919740	-0.074472
Br150	Br	0.654538	0.919751	-0.389187
H151	H	0.146596	0.664213	0.087066
H152	H	0.423726	1.052205	0.120682
H153	H	1.199756	0.276225	0.026010
H154	H	0.025000	0.664222	0.094484
Br155	Br	0.235221	1.069501	-0.056198
Br156	Br	0.629871	0.199143	-0.116688
H157	H	1.084502	0.391472	0.040099
H158	H	0.712775	0.218610	0.490056
H159	H	0.622431	0.491341	-0.124528
Br160	Br	0.626462	0.408705	0.177914
H161	H	0.815704	0.176428	0.077496
H162	H	0.852063	-0.162890	0.115561
H163	H	0.796731	0.391494	0.376015
Br164	Br	0.600432	0.664229	-0.469177
Br165	Br	0.309729	0.664203	0.172993
Br166	Br	0.618244	0.258966	0.344119
H167	H	1.084472	0.391496	0.193677
H168	H	0.935544	0.391509	-0.115610
Br169	Br	0.763681	1.144331	-0.537248
Br170	Br	0.856293	1.069432	-0.352993
H171	H	0.665720	0.224397	-0.079249
Br172	Br	0.621592	0.049443	-0.125343
H173	H	0.449504	0.664234	-0.103456
H174	H	0.327916	0.664224	-0.096028
Br175	Br	0.164791	0.664241	-0.181956
H176	H	0.248627	0.664215	-0.087967
Br177	Br	0.207691	0.664216	0.114986
Br178	Br	1.239264	0.259024	0.306136
H179	H	0.631950	0.664214	-0.545148
Br180	Br	0.600432	0.664232	-0.294373
H181	H	0.842570	0.664223	-0.463821
H182	H	0.842565	0.664217	-0.558005
H183	H	0.842564	0.664215	-0.692545
Br184	Br	0.874077	0.664237	-0.311084
