data_functionalizedCrystal
_audit_creation_method	'MofGen! by Chris Wilmer'
_symmetry_space_group_name_H-M	'P1'
_symmetry_Int_Tables_number	1
_symmetry_cell_setting	triclinic
loop_
_symmetry_equiv_pos_as_xyz
  x,y,z
_cell_length_a	13.262522
_cell_length_b	11.804783
_cell_length_c	17.699083
_cell_angle_alpha	76.686354
_cell_angle_beta	83.879452
_cell_angle_gamma	92.339612
loop_
_atom_site_label
_atom_site_type_symbol
_atom_site_fract_x
_atom_site_fract_y
_atom_site_fract_z
O1	O	1.293704	0.517964	0.030232
O2	O	1.793704	1.017964	0.530232
O3	O	1.005855	0.424752	0.054222
O4	O	1.505855	0.924752	0.554222
O5	O	1.157914	0.473982	-0.068287
O6	O	1.657914	0.973982	0.431713
O7	O	1.141646	0.468735	0.152741
O8	O	1.641646	0.968735	0.652741
O9	O	1.193450	0.287451	-0.042468
O10	O	1.693450	0.787451	0.457532
O11	O	1.041391	0.238222	0.080040
O12	O	1.541391	0.738222	0.580040
O13	O	1.329240	0.331434	0.056050
O14	O	1.829240	0.831434	0.556050
Cu15	Cu	1.188560	0.267796	0.070403
Cu16	Cu	1.688560	0.767796	0.570403
Cu17	Cu	1.146535	0.488390	0.039870
Cu18	Cu	1.646535	0.988390	0.539870
O19	O	1.177181	0.282204	0.178559
O20	O	1.677181	0.782204	0.678559
C21	C	0.986794	0.319561	0.068161
C22	C	1.486794	0.819561	0.568161
C23	C	0.877053	0.284024	0.071221
C24	C	1.377053	0.784024	0.571221
C25	C	0.844875	0.165644	0.086734
C26	C	1.344875	0.665644	0.586734
C27	C	0.741771	0.132247	0.089603
C28	C	1.241771	0.632247	0.589603
C29	C	0.670834	0.217225	0.076966
C30	C	1.170834	0.717225	0.576966
C31	C	0.703010	0.335607	0.061458
C32	C	1.203010	0.835607	0.561458
C33	C	0.806125	0.369008	0.058582
C34	C	1.306125	0.869008	0.558582
C35	C	0.632084	0.420589	0.048814
C36	C	1.132084	0.920589	0.548814
C37	C	0.664260	0.538971	0.033306
C38	C	1.164260	1.038971	0.533306
C39	C	0.767365	0.572366	0.030431
C40	C	1.267365	1.072366	0.530431
C41	C	0.838303	0.487387	0.043069
C42	C	1.338303	0.987387	0.543069
C43	C	0.528969	0.387188	0.051689
C44	C	1.028969	0.887188	0.551689
C45	C	0.490218	0.590552	0.023537
C46	C	0.990218	1.090552	0.523537
C47	C	0.593322	0.623949	0.020668
C48	C	1.093322	1.123949	0.520668
N49	N	1.218125	0.112644	0.091877
N50	N	1.718125	0.612644	0.591877
C51	C	1.045946	-0.317147	-0.033183
C52	C	1.545946	0.182853	0.466817
C53	C	1.023561	-0.199745	-0.049432
C54	C	1.523561	0.300255	0.450568
C55	C	1.072200	-0.121642	-0.014106
C56	C	1.572200	0.378358	0.485894
C57	C	1.143228	-0.160952	0.037472
C58	C	1.643228	0.339048	0.537472
C59	C	1.165621	-0.278363	0.053718
C60	C	1.665621	0.221637	0.553718
C61	C	1.191875	-0.082859	0.072795
C62	C	1.691875	0.417141	0.572795
C63	C	1.262904	-0.122169	0.124372
C64	C	1.762904	0.377831	0.624372
C65	C	1.285292	-0.239569	0.140616
C66	C	1.785292	0.260431	0.640616
C67	C	1.236653	-0.317672	0.105290
C68	C	1.736653	0.182328	0.605290
C69	C	1.169482	0.034552	0.056549
C70	C	1.669482	0.534552	0.556549
C71	C	1.289157	0.073335	0.143449
C72	C	1.789157	0.573335	0.643449
C73	C	1.311543	-0.044066	0.159699
C74	C	1.811543	0.455934	0.659699
C75	C	1.348301	0.436628	0.042111
C76	C	1.848301	0.936628	0.542111
C77	C	1.458041	0.472172	0.039050
C78	C	1.958041	0.972172	0.539050
C79	C	1.175099	0.380528	-0.083551
C80	C	1.675099	0.880528	0.416449
C81	C	1.173351	0.379961	-0.167499
C82	C	1.673351	0.879961	0.332501
N83	N	1.116978	0.643545	0.018389
N84	N	1.616978	1.143545	0.518389
C85	C	1.262605	0.408862	-0.219697
C86	C	1.762605	0.908862	0.280303
C87	C	1.260955	0.408338	-0.298576
C88	C	1.760955	0.908338	0.201424
C89	C	1.170050	0.378905	-0.325254
C90	C	1.670050	0.878905	0.174746
C91	C	1.080788	0.350005	-0.273049
C92	C	1.580788	0.850005	0.226951
C93	C	1.082438	0.350537	-0.194173
C94	C	1.582438	0.850537	0.305827
C95	C	1.074131	0.347859	-0.591147
C96	C	1.574131	0.847859	-0.091147
C97	C	1.072489	0.347325	-0.670029
C98	C	1.572489	0.847325	-0.170029
C99	C	1.252648	0.405660	-0.695549
C100	C	1.752648	0.905660	-0.195549
C101	C	1.254298	0.406192	-0.616673
C102	C	1.754298	0.906192	-0.116673
C103	C	1.165035	0.377298	-0.564477
C104	C	1.665035	0.877298	-0.064477
C105	C	1.166826	0.377869	-0.478948
C106	C	1.666826	0.877869	0.021052
C107	C	1.168260	0.378326	-0.410780
C108	C	1.668260	0.878326	0.089220
C109	C	1.159996	0.375661	0.193823
C110	C	1.659996	0.875661	0.693823
C111	C	1.161743	0.376235	0.277770
C112	C	1.661743	0.876235	0.777770
H113	H	0.432460	0.659748	0.013247
H114	H	0.932460	1.159748	0.513247
H115	H	0.922260	0.514574	0.040737
H116	H	1.422260	1.014574	0.540737
H117	H	1.336632	0.432823	-0.197982
H118	H	1.836632	0.932823	0.302018
H119	H	1.006358	-0.380745	-0.061945
H120	H	1.506358	0.119255	0.438055
F121	F	0.920376	0.075219	0.100178
F122	F	1.420376	0.575219	0.600178
F123	F	0.627580	0.749937	0.004161
F124	F	1.127580	1.249937	0.504161
F125	F	0.561101	0.181677	0.080024
F126	F	1.061101	0.681677	0.580024
H127	H	1.328765	0.136928	0.172214
H128	H	1.828765	0.636928	0.672214
F129	F	1.360897	-0.281399	0.195502
F130	F	1.860897	0.218601	0.695502
H131	H	1.009758	0.327003	-0.151673
H132	H	1.509758	0.827003	0.348327
F133	F	1.355952	0.439096	-0.354126
F134	F	1.855952	0.939096	0.145874
H135	H	0.998459	0.323354	-0.691745
H136	H	1.498459	0.823354	-0.191745
F137	F	1.093892	0.076376	0.001657
F138	F	1.593892	0.576376	0.501657
F139	F	1.387134	-0.085918	0.214591
F140	F	1.887134	0.414082	0.714591
H141	H	0.793560	0.668760	0.017793
H142	H	1.293560	1.168760	0.517793
F143	F	1.351050	0.437520	-0.588286
F144	F	1.851050	0.937520	-0.088286
F145	F	1.347649	0.436415	-0.751108
F146	F	1.847649	0.936415	-0.251108
H147	H	1.254872	-0.413273	0.118521
H148	H	1.754872	0.086727	0.618521
F149	F	1.048373	0.003307	-0.031401
F150	F	1.548373	0.503307	0.468599
F151	F	0.979129	0.317110	-0.535606
F152	F	1.479129	0.817110	-0.035606
H153	H	0.502780	0.290801	0.064322
H154	H	1.002780	0.790801	0.564322
F155	F	0.707532	0.006262	0.106116
F156	F	1.207532	0.506262	0.606116
F157	F	0.947950	-0.157923	-0.104306
F158	F	1.447950	0.342077	0.395694
F159	F	0.984038	0.318692	-0.301446
F160	F	1.484038	0.818692	0.198554
