data_functionalizedCrystal
_audit_creation_method	'MofGen! by Chris Wilmer'
_symmetry_space_group_name_H-M	'P1'
_symmetry_Int_Tables_number	1
_symmetry_cell_setting	triclinic
loop_
_symmetry_equiv_pos_as_xyz
  x,y,z
_cell_length_a	29.839134
_cell_length_b	29.839131
_cell_length_c	29.839125
_cell_angle_alpha	89.982291
_cell_angle_beta	89.978020
_cell_angle_gamma	90.036281
loop_
_atom_site_label
_atom_site_type_symbol
_atom_site_fract_x
_atom_site_fract_y
_atom_site_fract_z
Zn1	Zn	0.686720	-0.178978	-0.254125
Zn2	Zn	1.186720	0.321022	0.245875
Zn3	Zn	0.686652	-0.254090	-0.178995
Zn4	Zn	1.186652	0.245910	0.321005
Zn5	Zn	0.611602	-0.178968	-0.178995
Zn6	Zn	1.111602	0.321032	0.321005
Zn7	Zn	0.611550	-0.254075	-0.254083
Zn8	Zn	1.111550	0.245925	0.245917
O9	O	0.649131	-0.216528	-0.216549
O10	O	1.149131	0.283472	0.283451
O11	O	0.749578	-0.188952	-0.244176
O12	O	1.249578	0.311048	0.255824
O13	O	0.676690	-0.244127	-0.116128
O14	O	1.176690	0.255873	0.383872
O15	O	0.621617	-0.116102	-0.188978
O16	O	1.121617	0.383898	0.311022
O17	O	0.749528	-0.244137	-0.188979
O18	O	1.249528	0.255863	0.311021
O19	O	0.676805	-0.116109	-0.244176
O20	O	1.176805	0.383891	0.255824
O21	O	0.621551	-0.188935	-0.116127
O22	O	1.121551	0.311065	0.383873
O23	O	0.548728	-0.188921	-0.188938
O24	O	1.048728	0.311079	0.311062
O25	O	0.621528	-0.244111	-0.316956
O26	O	1.121528	0.255889	0.183044
O27	O	0.548690	-0.244101	-0.244105
O28	O	1.048690	0.255899	0.255895
O29	O	0.676755	-0.188937	-0.316987
O30	O	1.176755	0.311063	0.183013
O31	O	0.676639	-0.316955	-0.188938
O32	O	1.176639	0.183045	0.311062
O33	O	0.621462	-0.316944	-0.244105
O34	O	1.121462	0.183056	0.255895
C35	C	0.532408	-0.216509	-0.216517
C36	C	1.032408	0.283491	0.283483
C37	C	0.482474	-0.216511	-0.216514
C38	C	0.982474	0.283489	0.283486
C39	C	0.172820	-0.245303	-0.245240
C40	C	0.672820	0.254697	0.254760
C41	C	-0.014853	-0.245315	-0.245260
C42	C	0.485147	0.254685	0.254740
O43	O	-0.039127	-0.269774	-0.269665
O44	O	0.460873	0.230226	0.230335
N45	N	-0.038311	-0.216544	-0.216583
N46	N	0.461689	0.283456	0.283417
C47	C	-0.014848	-0.187766	-0.187902
C48	C	0.485152	0.312234	0.312098
O49	O	-0.039107	-0.163291	-0.163514
O50	O	0.460893	0.336709	0.336486
C51	C	0.172824	-0.187751	-0.187884
C52	C	0.672824	0.312249	0.312116
C53	C	0.196280	-0.216527	-0.216560
C54	C	0.696280	0.283473	0.283440
C55	C	0.196276	-0.274076	-0.273913
C56	C	0.696276	0.225924	0.226087
C57	C	0.243191	-0.274075	-0.273906
C58	C	0.743191	0.225925	0.226094
C59	C	0.266651	-0.245299	-0.245226
C60	C	0.766651	0.254701	0.254774
C61	C	0.243195	-0.216526	-0.216553
C62	C	0.743195	0.283474	0.283447
C63	C	0.196286	-0.158971	-0.159205
C64	C	0.696286	0.341029	0.340795
C65	C	0.243207	-0.158969	-0.159204
C66	C	0.743207	0.341031	0.340796
C67	C	0.266663	-0.187745	-0.187880
C68	C	0.766663	0.312255	0.312120
C69	C	0.313570	-0.187749	-0.187865
C70	C	0.813570	0.312251	0.312135
N71	N	0.337029	-0.216520	-0.216542
N72	N	0.837029	0.283480	0.283458
C73	C	0.313569	-0.245295	-0.245222
C74	C	0.813569	0.254705	0.254778
C75	C	-0.113379	-0.187776	-0.187912
C76	C	0.386621	0.312224	0.312088
C77	C	-0.160297	-0.187780	-0.187916
C78	C	0.339703	0.312220	0.312084
C79	C	-0.160298	-0.245329	-0.245275
C80	C	0.339702	0.254671	0.254725
C81	C	-0.113380	-0.245327	-0.245269
C82	C	0.386620	0.254673	0.254731
C83	C	-0.089921	-0.216547	-0.216589
C84	C	0.410079	0.283453	0.283411
C85	C	0.412095	-0.245290	-0.245205
C86	C	0.912095	0.254710	0.254795
C87	C	0.459014	-0.245287	-0.245194
C88	C	0.959014	0.254713	0.254806
C89	C	0.459012	-0.187736	-0.187837
C90	C	0.959012	0.312264	0.312163
C91	C	0.412096	-0.187740	-0.187846
C92	C	0.912096	0.312260	0.312154
C93	C	0.388639	-0.216519	-0.216534
C94	C	0.888639	0.283481	0.283466
O95	O	0.337873	-0.163299	-0.163477
O96	O	0.837873	0.336701	0.336523
O97	O	0.337836	-0.269759	-0.269613
O98	O	0.837836	0.230241	0.230387
C99	C	0.125905	-0.245304	-0.245247
C100	C	0.625905	0.254696	0.254753
C101	C	0.102449	-0.216531	-0.216574
C102	C	0.602449	0.283469	0.283426
C103	C	0.125909	-0.187755	-0.187893
C104	C	0.625909	0.312245	0.312107
C105	C	0.055531	-0.216535	-0.216577
C106	C	0.555531	0.283465	0.283423
C107	C	0.032071	-0.245310	-0.245258
C108	C	0.532071	0.254690	0.254742
C109	C	0.055529	-0.274082	-0.273934
C110	C	0.555529	0.225918	0.226066
C111	C	0.102445	-0.274080	-0.273927
C112	C	0.602445	0.225920	0.226073
C113	C	0.102451	-0.158984	-0.159217
C114	C	0.602451	0.341016	0.340783
C115	C	0.055535	-0.158989	-0.159226
C116	C	0.555535	0.341011	0.340774
C117	C	0.032075	-0.187764	-0.187906
C118	C	0.532075	0.312236	0.312094
C119	C	0.649050	-0.333250	-0.216527
C120	C	1.149050	0.166750	0.283473
C121	C	0.649056	-0.383185	-0.216533
C122	C	1.149056	0.116815	0.283467
C123	C	0.677914	-0.692821	-0.187866
C124	C	1.177914	-0.192821	0.312134
C125	C	0.677969	-0.880494	-0.187883
C126	C	1.177969	-0.380494	0.312117
O127	O	0.702441	-0.904753	-0.163493
O128	O	1.202441	-0.404753	0.336507
N129	N	0.649224	-0.903970	-0.216583
N130	N	1.149224	-0.403970	0.283417
C131	C	0.620465	-0.880524	-0.245283
C132	C	1.120465	-0.380524	0.254717
O133	O	0.596020	-0.904798	-0.269698
O134	O	1.096020	-0.404798	0.230302
C135	C	0.620412	-0.692852	-0.245268
C136	C	1.120412	-0.192852	0.254732
C137	C	0.649156	-0.669379	-0.216563
C138	C	1.149156	-0.169379	0.283437
C139	C	0.706656	-0.669348	-0.159164
C140	C	1.206656	-0.169348	0.340836
C141	C	0.706640	-0.622433	-0.159158
C142	C	1.206640	-0.122433	0.340842
C143	C	0.677882	-0.598990	-0.187854
C144	C	1.177882	-0.098990	0.312146
C145	C	0.649140	-0.622463	-0.216557
C146	C	1.149140	-0.122463	0.283443
C147	C	0.591656	-0.669407	-0.273969
C148	C	1.091656	-0.169407	0.226031
C149	C	0.591646	-0.622486	-0.273964
C150	C	1.091646	-0.122486	0.226036
C151	C	0.620390	-0.599013	-0.245259
C152	C	1.120390	-0.099013	0.254741
C153	C	0.620367	-0.552106	-0.245248
C154	C	1.120367	-0.052106	0.254752
N155	N	0.649112	-0.528630	-0.216548
N156	N	1.149112	-0.028630	0.283452
C157	C	0.677869	-0.552072	-0.187851
C158	C	1.177869	-0.052072	0.312149
C159	C	0.620494	-0.979055	-0.245289
C160	C	1.120494	-0.479055	0.254711
C161	C	0.620507	-1.025973	-0.245292
C162	C	1.120507	-0.525973	0.254708
C163	C	0.678012	-1.025939	-0.187893
C164	C	1.178012	-0.525939	0.312107
C165	C	0.677996	-0.979021	-0.187887
C166	C	1.177996	-0.479021	0.312113
C167	C	0.649239	-0.955579	-0.216589
C168	C	1.149239	-0.455579	0.283411
C169	C	0.677834	-0.453547	-0.187841
C170	C	1.177834	0.046453	0.312159
C171	C	0.677814	-0.406627	-0.187836
C172	C	1.177814	0.093373	0.312164
C173	C	0.620311	-0.406664	-0.245237
C174	C	1.120311	0.093336	0.254763
C175	C	0.620329	-0.453580	-0.245240
C176	C	1.120329	0.046420	0.254760
C177	C	0.649094	-0.477020	-0.216540
C178	C	1.149094	0.022980	0.283460
O179	O	0.595912	-0.527818	-0.269629
O180	O	1.095912	-0.027818	0.230371
O181	O	0.702318	-0.527791	-0.163447
O182	O	1.202318	-0.027791	0.336553
C183	C	0.677930	-0.739737	-0.187872
C184	C	1.177930	-0.239737	0.312128
C185	C	0.649188	-0.763210	-0.216574
C186	C	1.149188	-0.263210	0.283426
C187	C	0.620430	-0.739767	-0.245271
C188	C	1.120430	-0.239767	0.254729
C189	C	0.649200	-0.810128	-0.216578
C190	C	1.149200	-0.310128	0.283422
C191	C	0.677958	-0.833570	-0.187881
C192	C	1.177958	-0.333570	0.312119
C193	C	0.706703	-0.810094	-0.159181
C194	C	1.206703	-0.310094	0.340819
C195	C	0.706687	-0.763179	-0.159175
C196	C	1.206687	-0.263179	0.340825
C197	C	0.591685	-0.763243	-0.273971
C198	C	1.091685	-0.263243	0.226029
C199	C	0.591703	-0.810158	-0.273974
C200	C	1.091703	-0.310158	0.226026
C201	C	0.620461	-0.833601	-0.245277
C202	C	1.120461	-0.333601	0.254723
C203	C	0.766309	-0.216547	-0.216582
C204	C	1.266309	0.283453	0.283418
C205	C	0.816244	-0.216555	-0.216596
C206	C	1.316244	0.283445	0.283404
C207	C	0.649143	-0.216524	-0.333728
C208	C	1.149143	0.283476	0.166272
C209	C	0.649148	-0.216522	-0.383662
C210	C	1.149148	0.283478	0.116338
C211	C	0.649225	-0.099349	-0.216582
C212	C	1.149225	0.400651	0.283418
C213	C	0.649265	-0.049415	-0.216595
C214	C	1.149265	0.450585	0.283405
C215	C	0.677935	-0.187718	-0.693325
C216	C	1.177935	0.312282	-0.193325
C217	C	0.677957	-0.187680	-0.880998
C218	C	1.177957	0.312320	-0.380998
O219	O	0.702399	-0.163232	-0.905279
O220	O	1.202399	0.336768	-0.405279
N221	N	0.649208	-0.216402	-0.904448
N222	N	1.149208	0.283598	-0.404448
C223	C	0.620449	-0.245133	-0.880976
C224	C	1.120449	0.254867	-0.380976
O225	O	0.595993	-0.269559	-0.905228
O226	O	1.095993	0.230441	-0.405228
C227	C	0.620424	-0.245169	-0.693304
C228	C	1.120424	0.254831	-0.193304
C229	C	0.649179	-0.216448	-0.669857
C230	C	1.149179	0.283552	-0.169857
C231	C	0.706687	-0.158999	-0.669877
C232	C	1.206687	0.341001	-0.169877
C233	C	0.706683	-0.159011	-0.622962
C234	C	1.206683	0.340989	-0.122962
C235	C	0.677927	-0.187741	-0.599494
C236	C	1.177927	0.312259	-0.099494
C237	C	0.649175	-0.216460	-0.622941
C238	C	1.149175	0.283540	-0.122941
C239	C	0.591663	-0.273898	-0.669833
C240	C	1.091663	0.226102	-0.169833
C241	C	0.591659	-0.273903	-0.622912
C242	C	1.091659	0.226097	-0.122912
C243	C	0.620414	-0.245183	-0.599465
C244	C	1.120414	0.254817	-0.099465
C245	C	0.620415	-0.245202	-0.552558
C246	C	1.120415	0.254798	-0.052558
N247	N	0.649164	-0.216480	-0.529108
N248	N	1.149164	0.283520	-0.029108
C249	C	0.677920	-0.187749	-0.552576
C250	C	1.177920	0.312251	-0.052576
C251	C	0.620464	-0.245113	-0.979507
C252	C	1.120464	0.254887	-0.479507
C253	C	0.620471	-0.245105	-1.026425
C254	C	1.120471	0.254895	-0.526425
C255	C	0.677979	-0.187650	-1.026443
C256	C	1.177979	0.312350	-0.526443
C257	C	0.677974	-0.187661	-0.979524
C258	C	1.177974	0.312339	-0.479524
C259	C	0.649214	-0.216391	-0.956057
C260	C	1.149214	0.283609	-0.456057
C261	C	0.677910	-0.187776	-0.454050
C262	C	1.177910	0.312224	0.045950
C263	C	0.677904	-0.187792	-0.407130
C264	C	1.177904	0.312208	0.092870
C265	C	0.620395	-0.245244	-0.407116
C266	C	1.120395	0.254756	0.092884
C267	C	0.620401	-0.245230	-0.454032
C268	C	1.120401	0.254770	0.045968
C269	C	0.649161	-0.216493	-0.477497
C270	C	1.149161	0.283507	0.022503
O271	O	0.595982	-0.269633	-0.528248
O272	O	1.095982	0.230367	-0.028248
O273	O	0.702366	-0.163320	-0.528316
O274	O	1.202366	0.336680	-0.028316
C275	C	0.677939	-0.187706	-0.740240
C276	C	1.177939	0.312294	-0.240240
C277	C	0.649187	-0.216425	-0.763688
C278	C	1.149187	0.283575	-0.263688
C279	C	0.620431	-0.245155	-0.740219
C280	C	1.120431	0.254845	-0.240219
C281	C	0.649194	-0.216417	-0.810605
C282	C	1.149194	0.283583	-0.310605
C283	C	0.677950	-0.187686	-0.834074
C284	C	1.177950	0.312314	-0.334074
C285	C	0.706699	-0.158964	-0.810624
C286	C	1.206699	0.341036	-0.310624
C287	C	0.706695	-0.158976	-0.763708
C288	C	1.206695	0.341024	-0.263708
C289	C	0.591682	-0.273877	-0.763669
C290	C	1.091682	0.226123	-0.263669
C291	C	0.591689	-0.273864	-0.810585
C292	C	1.091689	0.226136	-0.310585
C293	C	0.620445	-0.245133	-0.834053
C294	C	1.120445	0.254867	-0.334053
C295	C	0.649145	-0.216499	-0.099827
C296	C	1.149145	0.283501	0.400173
C297	C	0.649227	-0.216374	-0.049893
C298	C	1.149227	0.283626	0.450107
H299	H	-0.179407	-0.268759	-0.268628
H300	H	0.320593	0.231241	0.231372
O301	O	0.592533	-0.956237	-0.273106
O302	O	1.092533	-0.456237	0.226894
C303	C	0.563519	-0.929143	-0.247494
C304	C	1.063519	-0.429143	0.252506
H305	H	0.579388	-0.922108	-0.213467
H306	H	1.079388	-0.422108	0.286533
H307	H	0.557471	-0.896151	-0.265787
H308	H	1.057471	-0.396151	0.234213
H309	H	0.530237	-0.947261	-0.242519
H310	H	1.030237	-0.447261	0.257481
O311	O	0.265994	-0.302070	-0.301702
O312	O	0.765994	0.197930	0.198298
C313	C	0.293116	-0.331043	-0.276078
C314	C	0.793116	0.168957	0.223922
H315	H	0.278963	-0.333771	-0.240690
H316	H	0.778963	0.166229	0.259310
H317	H	0.293633	-0.365639	-0.292269
H318	H	0.793633	0.134361	0.207731
H319	H	0.328682	-0.317150	-0.274555
H320	H	0.828682	0.182850	0.225445
H321	H	0.392998	-0.164309	-0.164496
H322	H	0.892998	0.335691	0.335504
H323	H	0.596895	-0.387570	-0.268600
H324	H	1.096895	0.112430	0.231400
H325	H	0.478121	-0.164309	-0.164485
H326	H	0.978121	0.335691	0.335515
H327	H	0.701393	-0.164257	-1.045559
H328	H	1.201393	0.335743	-0.545559
O329	O	0.592495	-0.273193	-0.476763
O330	O	1.092495	0.226807	0.023237
C331	C	0.602283	-0.317975	-0.465312
C332	C	1.102283	0.182025	0.034688
H333	H	0.619551	-0.318921	-0.431252
H334	H	1.119551	0.181079	0.068748
H335	H	0.569843	-0.338113	-0.463696
H336	H	1.069843	0.161887	0.036304
H337	H	0.625368	-0.333102	-0.491726
H338	H	1.125368	0.166898	0.008274
H339	H	0.701327	-0.164374	-0.473150
H340	H	1.201327	0.335626	0.026850
H341	H	0.568248	-0.688511	-0.297342
H342	H	1.068248	-0.188511	0.202658
H343	H	0.568268	-0.744160	-0.297340
H344	H	1.068268	-0.244160	0.202660
O345	O	0.734544	-0.599685	-0.131215
O346	O	1.234544	-0.099685	0.368785
C347	C	0.724757	-0.611171	-0.086429
C348	C	1.224757	-0.111171	0.413571
H349	H	0.707491	-0.645249	-0.085484
H350	H	1.207491	-0.145249	0.414516
H351	H	0.757197	-0.612763	-0.066325
H352	H	1.257197	-0.112763	0.433675
H353	H	0.701671	-0.584789	-0.071264
H354	H	1.201671	-0.084789	0.428736
H355	H	0.121538	-0.297512	-0.297278
H356	H	0.621538	0.202488	0.202722
O357	O	0.032715	-0.301969	-0.301843
O358	O	0.532715	0.198031	0.198157
C359	C	0.005598	-0.276430	-0.330897
C360	C	0.505598	0.223570	0.169103
H361	H	0.019765	-0.241053	-0.333734
H362	H	0.519765	0.258947	0.166266
H363	H	0.005067	-0.292728	-0.365442
H364	H	0.505067	0.207272	0.134558
H365	H	-0.029964	-0.274859	-0.317009
H366	H	0.470036	0.225141	0.182991
O367	O	0.032822	-0.130991	-0.131354
O368	O	0.532822	0.369009	0.368646
C369	C	0.063595	-0.105602	-0.106033
C370	C	0.563595	0.394398	0.393967
H371	H	0.097050	-0.104080	-0.124434
H372	H	0.597050	0.395920	0.375566
H373	H	0.050063	-0.070197	-0.101311
H374	H	0.550063	0.429803	0.398689
H375	H	0.068557	-0.121999	-0.071881
H376	H	0.568557	0.378001	0.428119
O377	O	0.563826	-0.832937	-0.301925
O378	O	1.063826	-0.332937	0.198075
C379	C	0.573607	-0.821428	-0.346706
C380	C	1.073607	-0.321428	0.153294
H381	H	0.609492	-0.808496	-0.349006
H382	H	1.109492	-0.308496	0.150994
H383	H	0.569733	-0.852274	-0.368906
H384	H	1.069733	-0.352274	0.131094
H385	H	0.549507	-0.794210	-0.358418
H386	H	1.049507	-0.294210	0.141582
O387	O	-0.183009	-0.159788	-0.160043
O388	O	0.316991	0.340212	0.339957
C389	C	-0.152236	-0.134399	-0.134723
C390	C	0.347764	0.365601	0.365277
H391	H	-0.118783	-0.132872	-0.153127
H392	H	0.381217	0.367128	0.346873
H393	H	-0.165771	-0.098995	-0.129996
H394	H	0.334229	0.401005	0.370004
H395	H	-0.147271	-0.150798	-0.100573
H396	H	0.352729	0.349202	0.399427
O397	O	0.734667	-0.692051	-0.131307
O398	O	1.234667	-0.192051	0.368693
C399	C	0.779424	-0.680527	-0.141195
C400	C	1.279424	-0.180527	0.358805
H401	H	0.780308	-0.646462	-0.158480
H402	H	1.280308	-0.146462	0.341520
H403	H	0.799596	-0.678886	-0.108798
H404	H	1.299596	-0.178886	0.391202
H405	H	0.794559	-0.706912	-0.164300
H406	H	1.294559	-0.206912	0.335700
H407	H	0.730093	-0.744071	-0.135801
H408	H	1.230093	-0.244071	0.364199
O409	O	0.125284	-0.131094	-0.131331
O410	O	0.625284	0.368906	0.368669
C411	C	0.152382	-0.156627	-0.102255
C412	C	0.652382	0.343373	0.397745
H413	H	0.159405	-0.190695	-0.118038
H414	H	0.659405	0.309305	0.381962
H415	H	0.185380	-0.138315	-0.096255
H416	H	0.685380	0.361685	0.403745
H417	H	0.134275	-0.161518	-0.068959
H418	H	0.634275	0.338482	0.431041
O419	O	0.563669	-0.599785	-0.301861
O420	O	1.063669	-0.099785	0.198139
C421	C	0.538315	-0.630568	-0.327203
C422	C	1.038315	-0.130568	0.172797
H423	H	0.536781	-0.664021	-0.308802
H424	H	1.036781	-0.164021	0.191198
H425	H	0.502911	-0.617045	-0.331962
H426	H	1.002911	-0.117045	0.168038
H427	H	0.554749	-0.635530	-0.361339
H428	H	1.054749	-0.135530	0.138661
H429	H	0.568274	-0.297256	-0.829671
H430	H	1.068274	0.202744	-0.329671
O431	O	0.173561	-0.302075	-0.301789
O432	O	0.673561	0.197925	0.198211
C433	C	0.204334	-0.327457	-0.327100
C434	C	0.704334	0.172543	0.172900
H435	H	0.237767	-0.328974	-0.308689
H436	H	0.737767	0.171026	0.191311
H437	H	0.190768	-0.362865	-0.331827
H438	H	0.690768	0.137135	0.168173
H439	H	0.209349	-0.311059	-0.361250
H440	H	0.709349	0.188941	0.138750
H441	H	0.568233	-0.297294	-0.603808
H442	H	1.068233	0.202706	-0.103808
O443	O	0.705840	-0.159736	-0.956701
O444	O	1.205840	0.340264	-0.456701
C445	C	0.680281	-0.130710	-0.929572
C446	C	1.180281	0.369290	-0.429572
H447	H	0.646223	-0.146551	-0.922528
H448	H	1.146223	0.353449	-0.422528
H449	H	0.698582	-0.124691	-0.896587
H450	H	1.198582	0.375309	-0.396587
H451	H	0.675371	-0.097416	-0.947663
H452	H	1.175371	0.402584	-0.447663
O453	O	0.734611	-0.130992	-0.833376
O454	O	1.234611	0.369008	-0.333376
C455	C	0.724818	-0.086217	-0.821923
C456	C	1.224818	0.413783	-0.321923
H457	H	0.707550	-0.085288	-0.787851
H458	H	1.207550	0.414712	-0.287851
H459	H	0.757255	-0.066075	-0.820335
H460	H	1.257255	0.433925	-0.320335
H461	H	0.701731	-0.071079	-0.848322
H462	H	1.201731	0.428921	-0.348322
O463	O	0.592500	-0.273022	-1.049129
O464	O	1.092500	0.226978	-0.549129
C465	C	0.567127	-0.298387	-1.018349
C466	C	1.067127	0.201613	-0.518349
H467	H	0.565585	-0.279989	-0.984907
H468	H	1.065585	0.220011	-0.484907
H469	H	0.531728	-0.303171	-1.031892
H470	H	1.031728	0.196829	-0.531892
H471	H	0.583551	-0.332510	-1.013358
H472	H	1.083551	0.167490	-0.513358
O473	O	0.705780	-0.383895	-0.159937
O474	O	1.205780	0.116105	0.340063
C475	C	0.731158	-0.414651	-0.134604
C476	C	1.231158	0.085349	0.365396
H477	H	0.732710	-0.448085	-0.153013
H478	H	1.232710	0.051915	0.346987
H479	H	0.766553	-0.401065	-0.129848
H480	H	1.266553	0.098935	0.370152
H481	H	0.714732	-0.419672	-0.100467
H482	H	1.214732	0.080328	0.399533
O483	O	0.705715	-0.476365	-0.159945
O484	O	1.205715	0.023635	0.340055
C485	C	0.680174	-0.503537	-0.130895
C486	C	1.180174	-0.003537	0.369105
H487	H	0.646117	-0.510594	-0.146698
H488	H	1.146117	-0.010594	0.353302
H489	H	0.698492	-0.536513	-0.124903
H490	H	1.198492	-0.036513	0.375097
H491	H	0.675259	-0.485476	-0.097593
H492	H	1.175259	0.014524	0.402407
H493	H	0.730097	-0.135623	-0.603875
H494	H	1.230097	0.364377	-0.103875
O495	O	0.705962	-0.956290	-0.159991
O496	O	1.205962	-0.456290	0.340009
C497	C	0.731335	-0.987048	-0.134656
C498	C	1.231335	-0.487048	0.365344
H499	H	0.732883	-1.020483	-0.153063
H500	H	1.232883	-0.520483	0.346937
H501	H	0.766732	-0.973466	-0.129899
H502	H	1.266732	-0.473466	0.370101
H503	H	0.714907	-0.992066	-0.100519
H504	H	1.214907	-0.492066	0.399481
O505	O	0.592527	-0.273173	-0.384261
O506	O	1.092527	0.226827	0.115739
C507	C	0.618084	-0.302202	-0.357134
C508	C	1.118084	0.197798	0.142866
H509	H	0.652144	-0.286364	-0.350127
H510	H	1.152144	0.213636	0.149873
H511	H	0.599784	-0.308219	-0.324130
H512	H	1.099784	0.191781	0.175870
H513	H	0.622990	-0.335496	-0.375208
H514	H	1.122990	0.164504	0.124792
H515	H	0.701427	-1.045034	-0.164527
H516	H	1.201427	-0.545034	0.335473
O517	O	0.592567	-1.048702	-0.273215
O518	O	1.092567	-0.548702	0.226785
C519	C	0.567177	-1.017944	-0.298533
C520	C	1.067177	-0.517944	0.201467
H521	H	0.585571	-0.984484	-0.300102
H522	H	1.085571	-0.484484	0.199898
H523	H	0.562364	-1.031487	-0.333926
H524	H	1.062364	-0.531487	0.166074
H525	H	0.533068	-1.012991	-0.282044
H526	H	1.033068	-0.512991	0.217956
H527	H	0.596925	-0.472692	-0.268615
H528	H	1.096925	0.027308	0.231385
O529	O	0.734666	-0.131075	-0.692601
O530	O	1.234666	0.368925	-0.192601
C531	C	0.760029	-0.105725	-0.661835
C532	C	1.260029	0.394275	-0.161835
H533	H	0.761557	-0.124136	-0.628390
H534	H	1.261557	0.375864	-0.128390
H535	H	0.795434	-0.100938	-0.675393
H536	H	1.295434	0.399062	-0.175393
H537	H	0.743607	-0.071602	-0.656845
H538	H	1.243607	0.428398	-0.156845
O539	O	-0.090545	-0.159882	-0.160026
O540	O	0.409455	0.340118	0.339974
C541	C	-0.063444	-0.185412	-0.130950
C542	C	0.436556	0.314588	0.369050
H543	H	-0.056419	-0.219479	-0.146734
H544	H	0.443581	0.280521	0.353266
H545	H	-0.030447	-0.167097	-0.124954
H546	H	0.469553	0.332903	0.375046
H547	H	-0.081548	-0.190304	-0.097654
H548	H	0.418452	0.309696	0.402346
O549	O	0.563712	-0.301736	-0.692655
O550	O	1.063712	0.198264	-0.192655
C551	C	0.534711	-0.276151	-0.719783
C552	C	1.034711	0.223849	-0.219783
H553	H	0.550582	-0.242107	-0.726823
H554	H	1.050582	0.257893	-0.226823
H555	H	0.528679	-0.294446	-0.752770
H556	H	1.028679	0.205554	-0.252770
H557	H	0.501420	-0.271213	-0.701692
H558	H	1.001420	0.228787	-0.201692
H559	H	0.730117	-0.829189	-0.135814
H560	H	1.230117	-0.329189	0.364186
H561	H	0.701321	-0.164403	-0.388042
H562	H	1.201321	0.335597	0.111958
H563	H	0.597044	-0.268511	-0.960404
H564	H	1.097044	0.231489	-0.460404
H565	H	0.568265	-0.297274	-0.744566
H566	H	1.068265	0.202726	-0.244566
O567	O	0.481729	-0.273255	-0.273094
O568	O	0.981729	0.226745	0.226906
C569	C	0.450958	-0.298659	-0.298402
C570	C	0.950958	0.201341	0.201598
H571	H	0.417526	-0.280259	-0.299994
H572	H	0.917526	0.219741	0.200006
H573	H	0.464528	-0.303504	-0.333788
H574	H	0.964528	0.196496	0.166212
H575	H	0.445939	-0.332754	-0.281889
H576	H	0.945939	0.167246	0.218111
O577	O	-0.090617	-0.273230	-0.273191
O578	O	0.409383	0.226770	0.226809
C579	C	-0.102069	-0.263486	-0.317983
C580	C	0.397931	0.236514	0.182017
H581	H	-0.114944	-0.227601	-0.320316
H582	H	0.385056	0.272399	0.179684
H583	H	-0.071208	-0.267388	-0.340172
H584	H	0.428792	0.232612	0.159828
H585	H	-0.129313	-0.287591	-0.329681
H586	H	0.370687	0.212409	0.170319
O587	O	0.173578	-0.130972	-0.131338
O588	O	0.673578	0.369028	0.368662
C589	C	0.204355	-0.105583	-0.106022
C590	C	0.704355	0.394417	0.393978
H591	H	0.237808	-0.104062	-0.124426
H592	H	0.737808	0.395938	0.375574
H593	H	0.190824	-0.070177	-0.101300
H594	H	0.690824	0.429823	0.398700
H595	H	0.209319	-0.121978	-0.071870
H596	H	0.709319	0.378022	0.428130
H597	H	0.730110	-0.135588	-0.744622
H598	H	1.230110	0.364412	-0.244622
H599	H	0.393001	-0.268723	-0.268566
H600	H	0.893001	0.231277	0.231434
H601	H	0.262305	-0.135529	-0.135852
H602	H	0.762305	0.364471	0.364148
