data_functionalizedCrystal
_audit_creation_method	'MofGen! by Chris Wilmer'
_symmetry_space_group_name_H-M	'P1'
_symmetry_Int_Tables_number	1
_symmetry_cell_setting	triclinic
loop_
_symmetry_equiv_pos_as_xyz
  x,y,z
_cell_length_a	17.077404
_cell_length_b	12.645330
_cell_length_c	17.077396
_cell_angle_alpha	89.973796
_cell_angle_beta	89.981638
_cell_angle_gamma	90.010616
loop_
_atom_site_label
_atom_site_type_symbol
_atom_site_fract_x
_atom_site_fract_y
_atom_site_fract_z
Zn1	Zn	1.200110	-0.422097	-0.443831
Zn2	Zn	1.200041	-0.599382	-0.312570
Zn3	Zn	1.068842	-0.422127	-0.312582
Zn4	Zn	1.068834	-0.599312	-0.443797
O5	O	1.134457	-0.510730	-0.378195
O6	O	1.309948	-0.445631	-0.426429
O7	O	1.182612	-0.575911	-0.202725
O8	O	1.086288	-0.273776	-0.330012
O9	O	1.309897	-0.575882	-0.329992
O10	O	1.182730	-0.273754	-0.426440
O11	O	1.086221	-0.445682	-0.202733
O12	O	0.958994	-0.445614	-0.329978
O13	O	1.086273	-0.575762	-0.553648
O14	O	0.958988	-0.575792	-0.426381
O15	O	1.182722	-0.445563	-0.553674
O16	O	1.182603	-0.747720	-0.329959
O17	O	1.086206	-0.747669	-0.426370
C18	C	0.930509	-0.510700	-0.378177
C19	C	0.843259	-0.510712	-0.378189
C20	C	0.802296	-0.443011	-0.428480
C21	C	0.720316	-0.443018	-0.428483
C22	C	0.679300	-0.510732	-0.378199
C23	C	0.720268	-0.578436	-0.327902
C24	C	0.802247	-0.578423	-0.327895
C25	C	0.549398	-0.578460	-0.327922
C26	C	0.467414	-0.578475	-0.327930
C27	C	0.467467	-0.443055	-0.428510
C28	C	0.549446	-0.443042	-0.428503
C29	C	0.590409	-0.510748	-0.378207
C30	C	1.134418	-0.786159	-0.378177
C31	C	1.134473	-0.903989	-0.378195
C32	C	1.195019	-1.071541	-0.317419
C33	C	1.195216	-0.948981	-0.317568
C34	C	1.156905	-0.948374	-0.460938
C35	C	1.157385	-1.070972	-0.460616
C36	C	1.051470	-1.071312	-0.357042
C37	C	1.051868	-0.948708	-0.355187
C38	C	1.339201	-0.510761	-0.378213
C39	C	1.426451	-0.510774	-0.378221
C40	C	1.134504	-0.510651	-0.582939
C41	C	1.134525	-0.510618	-0.670189
C42	C	1.134518	-0.234224	-0.378231
C43	C	1.134544	-0.116394	-0.378246
C44	C	1.184747	-0.442818	-0.711194
C45	C	1.184757	-0.442782	-0.793174
C46	C	1.134547	-0.510554	-0.834149
C47	C	1.084319	-0.578357	-0.793138
C48	C	1.084306	-0.578386	-0.711159
C49	C	1.084350	-0.578294	-0.964009
C50	C	1.084364	-0.578266	-1.045993
C51	C	1.184801	-0.442689	-1.046024
C52	C	1.184788	-0.442719	-0.964045
C53	C	1.134561	-0.510524	-0.923040
C54	C	1.134455	-0.510731	-0.174247
C55	C	1.134587	-0.510466	-0.086998
H56	H	0.686968	-0.387891	-0.469437
N57	N	1.033017	-0.647647	-0.669259
N58	N	1.033012	-0.647664	-0.596065
H59	H	0.996787	-0.696579	-0.566472
N60	N	1.103341	-0.911828	-0.519331
N61	N	1.064165	-0.976796	-0.558144
H62	H	1.026335	-0.950985	-0.599385
N63	N	1.033040	-0.647455	-1.087837
N64	N	0.988173	-0.707953	-1.051219
H65	H	0.951912	-0.756803	-1.080771
H66	H	1.115267	-1.100638	-0.507498
H67	H	1.256746	-0.919576	-0.331593
H68	H	0.835598	-0.633552	-0.286943
H69	H	1.218108	-1.099488	-0.478577
N70	N	0.591244	-0.647602	-0.276535
N71	N	0.582062	-0.640445	-0.204112
H72	H	0.611616	-0.689276	-0.167822
N73	N	1.236071	-0.373545	-0.835062
N74	N	1.286087	-0.410842	-0.880810
H75	H	1.322330	-0.361941	-0.910394
H76	H	0.686867	-0.633565	-0.286956
H77	H	1.181181	-0.918976	-0.256215
N78	N	0.844190	-0.373825	-0.479833
N79	N	0.889924	-0.306217	-0.452293
H80	H	0.919510	-0.257348	-0.488559
H81	H	1.181160	-1.101092	-0.255887
N82	N	1.271790	-1.110102	-0.334820
N83	N	1.282158	-1.170473	-0.391824
H84	H	1.336377	-1.197709	-0.404116
H85	H	1.216941	-0.917589	-0.479198
N86	N	1.236035	-0.373574	-0.669356
N87	N	1.230848	-0.275751	-0.678529
H88	H	1.267069	-0.226841	-0.648983
H89	H	1.031071	-1.102319	-0.297757
N90	N	1.030658	-0.912332	-0.278795
N91	N	1.076166	-0.853687	-0.241393
H92	H	1.061190	-0.827992	-0.187440
N93	N	1.033034	-0.647553	-0.922134
N94	N	0.988208	-0.708059	-0.958725
H95	H	0.951967	-0.756975	-0.929152
N96	N	0.992298	-0.910294	-0.406692
N97	N	1.009833	-0.849064	-0.461442
H98	H	0.967763	-0.821936	-0.497826
N99	N	0.425635	-0.373899	-0.479896
N100	N	0.379909	-0.411284	-0.529876
H101	H	0.350365	-0.362447	-0.566170
H102	H	1.006411	-1.100319	-0.401345
N103	N	1.236088	-0.373498	-0.922201
N104	N	1.280931	-0.312966	-0.958819
H105	H	1.317163	-0.264076	-0.929267
H106	H	0.434021	-0.633614	-0.286984
H107	H	1.043434	-0.633534	-0.826506
N108	N	0.591332	-0.373880	-0.479880
N109	N	0.554752	-0.313438	-0.524784
H110	H	0.584333	-0.264590	-0.561070
N111	N	1.236104	-0.373435	-1.087916
N112	N	1.236109	-0.373413	-1.161111
H113	H	1.272343	-0.324508	-1.190702
