data_functionalizedCrystal
_audit_creation_method	'MofGen! by Chris Wilmer'
_symmetry_space_group_name_H-M	'P1'
_symmetry_Int_Tables_number	1
_symmetry_cell_setting	triclinic
loop_
_symmetry_equiv_pos_as_xyz
  x,y,z
_cell_length_a	14.044220
_cell_length_b	8.559649
_cell_length_c	7.681481
_cell_angle_alpha	94.930900
_cell_angle_beta	96.248816
_cell_angle_gamma	98.516229
loop_
_atom_site_label
_atom_site_type_symbol
_atom_site_fract_x
_atom_site_fract_y
_atom_site_fract_z
O1	O	1.219993	-0.394972	-0.146409
O2	O	1.553327	-0.061639	0.186924
O3	O	1.886660	0.271695	0.520257
O4	O	0.945025	-0.381214	-0.146414
O5	O	1.278359	-0.047881	0.186919
O6	O	1.611692	0.285452	0.520252
O7	O	1.106734	-0.158944	-0.146410
O8	O	1.440068	0.174389	0.186924
O9	O	1.773401	0.507723	0.520257
O10	O	1.058284	-0.617243	-0.146414
O11	O	1.391618	-0.283909	0.186919
O12	O	1.724951	0.049424	0.520253
O13	O	1.126643	-0.131518	0.146449
O14	O	1.459976	0.201815	0.479782
O15	O	1.793310	0.535148	0.813115
O16	O	0.964934	-0.353789	0.146444
O17	O	1.298267	-0.020456	0.479777
O18	O	1.631601	0.312878	0.813111
O19	O	1.239902	-0.367547	0.146449
O20	O	1.573235	-0.034213	0.479782
O21	O	1.906569	0.299120	0.813116
Zn22	Zn	1.105579	-0.356313	0.192944
Zn23	Zn	1.438912	-0.022980	0.526277
Zn24	Zn	1.772246	0.310353	0.859611
Zn25	Zn	1.079348	-0.392448	-0.192909
Zn26	Zn	1.412682	-0.059114	0.140424
Zn27	Zn	1.746015	0.274219	0.473757
O28	O	1.078193	-0.589817	0.146444
O29	O	1.411526	-0.256484	0.479778
O30	O	1.744860	0.076850	0.813111
C31	C	1.120360	-0.086225	0.000016
C32	C	1.453693	0.247108	0.333350
C33	C	1.787027	0.580442	0.666683
C34	C	1.131289	0.089597	0.000007
C35	C	1.464622	0.422930	0.333340
C36	C	1.797955	0.756263	0.666673
C37	C	0.920104	-0.361479	0.000014
C38	C	1.253437	-0.028146	0.333347
C39	C	1.586770	0.305187	0.666681
C40	C	0.816185	-0.343516	0.000012
C41	C	1.149519	-0.010183	0.333345
C42	C	1.482852	0.323151	0.666679
C43	C	1.264823	-0.387282	0.000017
C44	C	1.598157	-0.053949	0.333350
C45	C	1.931490	0.279385	0.666683
C46	C	1.368741	-0.405247	0.000007
C47	C	1.702074	-0.071913	0.333341
C48	C	2.035408	0.261420	0.666674
C49	C	1.559012	-0.438088	0.000009
C50	C	1.892345	-0.104755	0.333342
C51	C	2.225678	0.228579	0.666675
C52	C	1.625920	-0.310681	0.000010
C53	C	1.959253	0.022652	0.333344
C54	C	2.292586	0.355985	0.666677
C55	C	1.731793	-0.328955	0.000011
C56	C	2.065126	0.004378	0.333345
C57	C	2.398460	0.337712	0.666678
C58	C	1.453128	-0.419817	0.000008
C59	C	1.786462	-0.086484	0.333341
C60	C	2.119795	0.246850	0.666675
C61	C	1.064567	-0.662536	0.000014
C62	C	1.397900	-0.329203	0.333348
C63	C	1.731234	0.004130	0.666681
C64	C	1.053638	-0.838359	0.000012
C65	C	1.386971	-0.505026	0.333346
C66	C	1.720304	-0.171692	0.666679
N67	N	1.123487	-0.331653	0.456279
N68	N	1.456821	0.001681	0.789612
N69	N	1.790154	0.335014	1.122945
N70	N	1.061448	-0.417097	-0.456244
N71	N	1.394782	-0.083763	-0.122911
N72	N	1.728115	0.249570	0.210422
H73	H	1.603679	-0.187893	-0.000116
H74	H	1.937013	0.145440	0.333217
H75	H	2.270346	0.478773	0.666551
H76	H	0.998119	-0.504308	0.468557
H77	H	1.331453	-0.170975	0.801890
H78	H	1.664786	0.162358	1.135224
H79	H	1.186826	-0.244448	0.531486
H80	H	1.520160	0.088886	0.864820
H81	H	1.853493	0.422219	1.198153
H82	H	0.978796	0.088812	0.000017
H83	H	1.312129	0.422145	0.333350
H84	H	1.645463	0.755479	0.666683
F85	F	1.229122	0.184796	0.000029
F86	F	1.562455	0.518130	0.333363
F87	F	1.895788	0.851463	0.666696
F88	F	1.588067	-0.598588	-0.000003
F89	F	1.921401	-0.265254	0.333330
F90	F	2.254734	0.068079	0.666663
