data_functionalizedCrystal
_audit_creation_method	'MofGen! by Chris Wilmer'
_symmetry_space_group_name_H-M	'P1'
_symmetry_Int_Tables_number	1
_symmetry_cell_setting	triclinic
loop_
_symmetry_equiv_pos_as_xyz
  x,y,z
_cell_length_a	10.654549
_cell_length_b	10.654551
_cell_length_c	9.730223
_cell_angle_alpha	89.998425
_cell_angle_beta	89.997731
_cell_angle_gamma	84.485069
loop_
_atom_site_label
_atom_site_type_symbol
_atom_site_fract_x
_atom_site_fract_y
_atom_site_fract_z
O1	O	1.667840	0.176396	-0.114249
O2	O	1.302362	0.193203	-0.114258
O3	O	1.493503	0.002060	-0.114254
O4	O	1.476698	0.367539	-0.114253
O5	O	1.493491	0.002055	0.114326
O6	O	1.302349	0.193198	0.114322
O7	O	1.667828	0.176391	0.114331
Zn8	Zn	1.485086	0.184793	0.150619
Zn9	Zn	1.485103	0.184800	-0.150545
O10	O	1.476686	0.367533	0.114327
C11	C	1.255557	0.191966	0.000031
C12	C	1.116114	0.188275	0.000027
C13	C	0.905600	0.297338	0.000033
C14	C	1.036620	0.300816	0.000025
C15	C	1.064581	0.072247	0.000024
C16	C	0.933563	0.068770	0.000022
C17	C	1.492263	-0.044740	0.000033
C18	C	1.488570	-0.184183	0.000024
C19	C	1.486845	-0.249692	-0.124573
C20	C	1.483365	-0.380713	-0.124567
C21	C	1.483341	-0.380704	0.124644
C22	C	1.486812	-0.249685	0.124636
C23	C	1.486864	-0.249699	-0.268453
C24	C	1.483384	-0.380720	-0.268446
C25	C	1.714632	0.177628	0.000039
C26	C	1.854075	0.181319	0.000034
C27	C	1.477926	0.414334	0.000037
C28	C	1.481619	0.553777	0.000038
N29	N	1.485084	0.184788	0.356155
N30	N	1.485115	0.184796	-0.356082
C31	C	1.569751	0.100186	0.428083
C32	C	1.569764	0.100187	0.571966
C33	C	1.400439	0.269402	0.571981
C34	C	1.400421	0.269394	0.428100
H35	H	1.129316	-0.019386	0.000018
C36	C	1.093292	0.428437	0.000032
H37	H	1.027184	0.494963	0.000049
H38	H	1.143823	0.434553	-0.079678
H39	H	1.143818	0.434538	0.079754
C40	C	0.876881	-0.058857	0.000027
H41	H	0.942984	-0.125389	0.000041
H42	H	0.826355	-0.064961	-0.079683
H43	H	0.826350	-0.064960	0.079748
H44	H	1.638687	0.031293	0.369508
C45	C	1.481415	-0.452761	0.261706
H46	H	1.479106	-0.540175	0.243868
H47	H	1.408873	-0.422343	0.312899
H48	H	1.555100	-0.440232	0.312902
C49	C	1.610619	-0.209741	-0.328712
H50	H	1.608812	-0.120439	-0.326637
H51	H	1.619608	-0.238369	-0.420965
H52	H	1.679796	-0.245751	-0.275668
H53	H	1.488210	-0.196352	0.226095
H54	H	1.400078	-0.203417	-0.323704
H55	H	0.840884	0.388983	0.000042
C56	C	1.359654	-0.420672	-0.328770
H57	H	1.306964	-0.347802	-0.355648
H58	H	1.317691	-0.465737	-0.261323
H59	H	1.377978	-0.473114	-0.406576
H60	H	1.638705	0.031295	0.630525
C61	C	1.600634	-0.443270	-0.343049
H62	H	1.598260	-0.532177	-0.343054
H63	H	1.674534	-0.422590	-0.297031
H64	H	1.601427	-0.413643	-0.435104
C65	C	1.307329	0.362472	0.651125
H66	H	1.319473	0.350371	0.747117
H67	H	1.223391	0.348056	0.627567
H68	H	1.321701	0.446422	0.627529
C69	C	1.307287	0.362464	0.348974
H70	H	1.256879	0.412866	0.412427
H71	H	1.254614	0.316794	0.292860
H72	H	1.352918	0.415166	0.292834
