data_functionalizedCrystal
_audit_creation_method	'MofGen! by Chris Wilmer'
_symmetry_space_group_name_H-M	'P1'
_symmetry_Int_Tables_number	1
_symmetry_cell_setting	triclinic
loop_
_symmetry_equiv_pos_as_xyz
  x,y,z
_cell_length_a	16.992694
_cell_length_b	27.732048
_cell_length_c	15.455313
_cell_angle_alpha	92.637842
_cell_angle_beta	87.142206
_cell_angle_gamma	86.655439
loop_
_atom_site_label
_atom_site_type_symbol
_atom_site_fract_x
_atom_site_fract_y
_atom_site_fract_z
O1	O	1.042606	0.100467	-0.072038
O2	O	0.814336	0.099342	-0.072063
O3	O	0.935560	0.029815	-0.072033
O4	O	0.921382	0.169994	-0.072068
O5	O	0.928628	0.033773	0.072227
O6	O	0.807404	0.103301	0.072197
O7	O	1.035674	0.104425	0.072223
Cu8	Cu	0.920906	0.104225	0.085382
Cu9	Cu	0.929104	0.099543	-0.085222
O10	O	0.914450	0.173953	0.072193
C11	C	0.781675	0.099876	0.000064
C12	C	0.694684	0.095561	0.000055
C13	C	0.931796	0.013774	0.000100
C14	C	0.930900	-0.039919	0.000107
C15	C	0.643939	0.137184	0.000046
C16	C	0.562201	0.133129	0.000059
C17	C	0.531209	0.087449	0.000075
C18	C	0.581960	0.045823	0.000087
C19	C	0.663696	0.049880	0.000080
C20	C	0.287814	0.070637	0.000102
C21	C	0.206071	0.066583	0.000106
C22	C	0.186318	0.153889	0.000080
C23	C	0.268057	0.157941	0.000068
C24	C	0.318800	0.116315	0.000084
N25	N	0.447660	0.083302	0.000086
N26	N	0.402347	0.120463	0.000080
C27	C	0.996895	-0.375882	0.000069
C28	C	0.993571	-0.577686	0.000057
O29	O	1.053919	-0.606333	0.000026
N30	N	0.921689	-0.599917	0.000050
C31	C	0.850634	-0.571695	0.000040
O32	O	0.789419	-0.595235	0.000025
C33	C	0.853960	-0.369892	0.000046
C34	C	0.925846	-0.347663	0.000062
C35	C	1.068775	-0.353652	0.000084
C36	C	1.069605	-0.303204	0.000092
C37	C	0.998556	-0.274986	0.000085
C38	C	0.926676	-0.297215	0.000070
C39	C	0.782906	-0.341671	0.000030
C40	C	0.783744	-0.291218	0.000030
C41	C	0.855630	-0.268989	0.000046
C42	C	0.856457	-0.218549	0.000071
N43	N	0.928338	-0.196317	0.000078
C44	C	0.999387	-0.224535	0.000085
C45	C	0.848893	-0.677644	0.000038
C46	C	0.848061	-0.728095	0.000038
C47	C	0.990998	-0.734082	0.000054
C48	C	0.991829	-0.683630	0.000060
C49	C	0.920775	-0.655413	0.000046
C50	C	1.001126	-0.118591	0.000102
C51	C	1.001949	-0.068138	0.000114
C52	C	0.859013	-0.062155	0.000094
C53	C	0.858189	-0.112603	0.000087
C54	C	0.929251	-0.140820	0.000088
O55	O	0.796141	-0.189872	0.000092
O56	O	1.060595	-0.200987	0.000081
C57	C	0.996065	-0.426330	0.000062
C58	C	0.924185	-0.448559	0.000047
C59	C	0.853136	-0.420341	0.000039
C60	C	0.923354	-0.499010	0.000047
C61	C	0.994403	-0.527228	0.000054
C62	C	1.066285	-0.504997	0.000061
C63	C	1.067115	-0.454549	0.000069
C64	C	0.781254	-0.442573	0.000032
C65	C	0.780430	-0.493021	0.000025
C66	C	0.851480	-0.521240	0.000033
C67	C	1.068335	0.103892	0.000094
C68	C	1.155327	0.108206	0.000097
C69	C	0.918214	0.189993	0.000058
C70	C	0.919111	0.243687	0.000046
N71	N	0.915146	0.107517	0.205376
N72	N	0.934870	0.096247	-0.205217
C73	C	0.966664	0.077992	0.250783
C74	C	0.962315	0.080486	0.341590
C75	C	0.906451	0.112509	0.386988
C76	C	0.854928	0.142036	0.341575
C77	C	0.859274	0.139538	0.250770
C78	C	0.887693	0.123276	0.658565
C79	C	0.883353	0.125773	0.749377
C80	C	0.990739	0.064222	0.749385
C81	C	0.995083	0.061730	0.658578
C82	C	0.943557	0.091254	0.613173
N83	N	0.902006	0.115061	0.479807
N84	N	0.947999	0.088700	0.520356
H85	H	0.669166	0.174382	0.000032
H86	H	0.799653	-0.130703	0.000098
O87	O	1.012388	0.051879	0.385798
C88	C	1.057913	0.081087	0.438290
H89	H	1.025581	0.118048	0.451877
H90	H	1.067500	0.063162	0.502154
H91	H	1.117469	0.085668	0.403288
H92	H	0.724370	-0.359761	0.000012
H93	H	1.060489	-0.050041	0.000129
O94	O	0.800625	0.173077	0.385770
C95	C	0.750069	0.146761	0.438300
H96	H	0.781093	0.110546	0.451915
H97	H	0.734372	0.168200	0.502148
H98	H	0.693862	0.140258	0.403318
H99	H	1.040572	0.035654	0.621617
H100	H	0.817322	0.163580	0.213800
H101	H	0.725882	-0.268245	0.000017
O102	O	0.837721	0.152031	0.614510
C103	C	0.848809	0.200963	0.636699
H104	H	0.910360	0.204328	0.661643
H105	H	0.842352	0.223221	0.576978
H106	H	0.802683	0.214908	0.689416
H107	H	0.705012	0.015986	0.000088
O108	O	0.337181	0.030233	-0.000008
C109	C	0.388618	0.027908	-0.074736
H110	H	0.393487	0.065733	-0.099651
H111	H	0.449468	0.012741	-0.057934
H112	H	0.364492	0.003372	-0.127047
O113	O	0.513022	0.173609	0.000010
C114	C	0.557902	0.214797	0.000010
H115	H	0.620369	0.204140	-0.027306
H116	H	0.529382	0.243005	-0.041879
H117	H	0.560246	0.230551	0.069214
O118	O	0.136913	0.194274	0.000109
C119	C	0.058125	0.180901	0.000096
H120	H	0.054141	0.143581	0.027417
H121	H	0.018747	0.208387	0.041976
H122	H	0.037776	0.179921	-0.069111
H123	H	0.293284	0.195138	0.000044
H124	H	0.180842	0.029383	0.000119
O125	O	0.551955	0.001420	-0.000014
C126	C	0.581503	-0.026190	-0.074733
H127	H	0.639235	-0.011517	-0.099647
H128	H	0.592531	-0.065524	-0.057920
H129	H	0.536640	-0.023857	-0.127050
H130	H	1.126636	-0.376623	0.000087
O131	O	1.070211	-0.145948	-0.000008
C132	C	1.117475	-0.137489	-0.074723
H133	H	1.098945	-0.100690	-0.099633
H134	H	1.182073	-0.138036	-0.057905
H135	H	1.109626	-0.166900	-0.127044
O136	O	1.139507	-0.281693	0.000062
C137	C	1.202029	-0.317426	0.000087
H138	H	1.181786	-0.353255	-0.027227
H139	H	1.254268	-0.306095	-0.041791
H140	H	1.220591	-0.321821	0.069298
O141	O	1.061729	-0.662118	0.000028
C142	C	1.124254	-0.697848	0.000059
H143	H	1.104014	-0.733680	-0.027250
H144	H	1.176492	-0.686518	-0.041821
H145	H	1.142815	-0.702240	0.069270
H146	H	1.048849	-0.757066	0.000060
O147	O	0.778164	-0.749608	-0.000006
C148	C	0.715637	-0.713877	0.000008
H149	H	0.738501	-0.679541	-0.027299
H150	H	0.667424	-0.727501	-0.041883
H151	H	0.690425	-0.705696	0.069214
O152	O	0.779912	-0.650182	0.000145
C153	C	0.772512	-0.618784	0.074870
H154	H	0.833489	-0.613139	0.099783
H155	H	0.743648	-0.582502	0.058064
H156	H	0.734416	-0.635321	0.127184
H157	H	0.801166	-0.039170	0.000091
H158	H	1.012157	0.051917	0.213826
H159	H	1.125651	-0.436454	0.000081
H160	H	1.124135	-0.527981	0.000070
O161	O	0.710527	-0.514534	-0.000027
C162	C	0.648000	-0.478803	-0.000012
H163	H	0.670866	-0.444465	-0.027309
H164	H	0.599791	-0.492424	-0.041911
H165	H	0.622782	-0.470626	0.069193
O166	O	1.040752	0.035469	0.793400
C167	C	1.029635	-0.013463	0.771247
H168	H	1.002584	-0.016391	0.705320
H169	H	1.088978	-0.035049	0.768145
H170	H	0.988356	-0.028517	0.822363
H171	H	0.723396	-0.419602	0.000024
H172	H	0.837859	0.151851	0.786336
