data_functionalizedCrystal
_audit_creation_method	'MofGen! by Chris Wilmer'
_symmetry_space_group_name_H-M	'P1'
_symmetry_Int_Tables_number	1
_symmetry_cell_setting	triclinic
loop_
_symmetry_equiv_pos_as_xyz
  x,y,z
_cell_length_a	15.995350
_cell_length_b	15.995350
_cell_length_c	14.472310
_cell_angle_alpha	89.998838
_cell_angle_beta	89.990621
_cell_angle_gamma	96.507625
loop_
_atom_site_label
_atom_site_type_symbol
_atom_site_fract_x
_atom_site_fract_y
_atom_site_fract_z
O1	O	1.110997	-0.107921	-0.076758
O2	O	0.867221	-0.121248	-0.076776
O3	O	0.995773	0.007303	-0.076766
O4	O	0.982445	-0.236472	-0.076769
O5	O	0.995740	0.007296	0.076916
O6	O	0.867188	-0.121256	0.076906
O7	O	1.110963	-0.107928	0.076924
Cu8	Cu	0.989073	-0.114593	0.090947
Cu9	Cu	0.989112	-0.114584	-0.090800
O10	O	0.982412	-0.236480	0.076913
C11	C	0.836010	-0.120701	0.000062
C12	C	0.743060	-0.119049	0.000055
C13	C	0.405312	-0.113117	0.000074
C14	C	0.452746	-0.021565	0.000418
C15	C	0.549436	-0.023217	0.000065
C16	C	0.572873	-0.116060	0.000065
C17	C	0.531804	-0.161212	-0.087692
C18	C	0.435169	-0.158912	-0.087759
C19	C	0.434792	-0.160812	0.087007
C20	C	0.531737	-0.160790	0.088160
C21	C	0.667570	-0.117727	0.000057
C22	C	0.310614	-0.111452	0.000076
C23	C	0.995205	0.038494	0.000073
C24	C	0.993553	0.131444	0.000068
C25	C	1.142175	-0.108476	0.000083
C26	C	1.235125	-0.110127	0.000084
C27	C	0.982980	-0.267671	0.000072
C28	C	0.984631	-0.360621	0.000071
N29	N	0.989051	-0.114598	0.218778
C30	C	0.987621	0.469192	0.000071
C31	C	0.896069	0.421758	-0.000281
C32	C	0.897721	0.325068	0.000066
C33	C	0.990564	0.301631	0.000069
C34	C	1.035701	0.342705	0.087831
C35	C	1.033401	0.439340	0.087904
C36	C	1.035330	0.439707	-0.086861
C37	C	1.035309	0.342762	-0.088021
C38	C	0.992231	0.206934	0.000071
C39	C	0.985956	0.563890	0.000075
N40	N	0.989140	-0.114572	-0.218631
C41	C	0.989111	-0.114581	0.592869
C42	C	0.920095	-0.183135	0.553698
C43	C	0.920254	-0.183385	0.446610
C44	C	0.989081	-0.114590	0.407278
C45	C	1.076445	-0.133671	0.446122
C46	C	1.076057	-0.134159	0.553243
C47	C	0.971542	-0.026741	0.553398
C48	C	0.969538	-0.027327	0.446270
C49	C	0.989069	-0.114593	0.302390
C50	C	0.989128	-0.114579	0.697757
H51	H	0.416874	-0.125979	-0.153359
H52	H	1.102831	0.471468	-0.087449
H53	H	0.854945	-0.171953	0.579481
C54	C	0.391597	-0.249711	-0.093151
C55	C	0.294861	-0.266139	-0.094314
C56	C	0.251295	-0.356936	-0.099713
C57	C	0.304464	-0.431305	-0.103949
C58	C	0.401205	-0.414879	-0.102785
C59	C	0.444772	-0.324083	-0.097386
H60	H	0.255497	-0.211085	-0.091179
H61	H	0.179680	-0.369095	-0.100575
H62	H	0.272213	-0.498518	-0.107945
H63	H	0.440569	-0.469934	-0.105920
H64	H	0.516387	-0.311924	-0.096525
H65	H	1.005412	0.460250	-0.153379
C66	C	1.033040	0.044825	0.410121
C67	C	1.025523	0.136116	0.439828
C68	C	1.089036	0.208265	0.403684
C69	C	1.160068	0.189123	0.337833
C70	C	1.167588	0.097828	0.308122
C71	C	1.104075	0.025679	0.344266
H72	H	0.972938	0.150290	0.488578
H73	H	1.083469	0.275848	0.425679
H74	H	1.207084	0.242533	0.311077
H75	H	1.220173	0.083655	0.259372
H76	H	1.109642	-0.041904	0.322272
C77	C	0.993312	0.304370	0.176061
C78	C	0.990324	0.209262	0.194510
C79	C	0.947928	0.170929	0.282738
C80	C	0.908521	0.227703	0.352515
C81	C	0.911507	0.322817	0.334067
C82	C	0.953903	0.361150	0.245840
H83	H	1.019497	0.167229	0.142856
H84	H	0.945718	0.100519	0.296394
H85	H	0.877137	0.199327	0.417826
H86	H	0.882334	0.364850	0.385722
H87	H	0.956113	0.431560	0.232184
H88	H	1.129018	-0.086196	0.579154
H89	H	1.091540	-0.198219	0.578220
C90	C	0.935026	-0.270716	0.590014
C91	C	0.951174	-0.340892	0.521647
C92	C	0.966102	-0.428478	0.557950
C93	C	0.964881	-0.445888	0.662621
C94	C	0.948732	-0.375709	0.730995
C95	C	0.933804	-0.288124	0.694692
H96	H	0.952079	-0.328007	0.444157
H97	H	0.978057	-0.480429	0.507335
H98	H	0.975932	-0.510724	0.689495
H99	H	0.947828	-0.388595	0.808485
H100	H	0.921849	-0.236173	0.745307
C101	C	0.552481	-0.252259	0.095317
C102	C	0.644717	-0.270646	0.102173
C103	C	0.665459	-0.362120	0.109319
C104	C	0.593964	-0.435206	0.109607
C105	C	0.501722	-0.416820	0.102751
C106	C	0.480981	-0.325347	0.095605
H107	H	0.697647	-0.216542	0.101960
H108	H	0.733742	-0.375729	0.114394
H109	H	0.609318	-0.502920	0.114897
H110	H	0.448793	-0.470925	0.102964
H111	H	0.412697	-0.311737	0.090530
C112	C	1.097866	-0.219228	0.409877
C113	C	1.111579	-0.290128	0.478306
C114	C	1.132994	-0.375687	0.442064
C115	C	1.140696	-0.390346	0.337392
C116	C	1.126983	-0.319444	0.268957
C117	C	1.105567	-0.233885	0.305199
H118	H	1.105878	-0.279279	0.555796
H119	H	1.143146	-0.428174	0.492725
H120	H	1.156549	-0.453682	0.310563
H121	H	1.132684	-0.330293	0.191467
H122	H	1.095416	-0.181398	0.254538
H123	H	1.129029	-0.085068	0.420643
H124	H	1.002307	0.315516	-0.152945
H125	H	0.545930	-0.229421	-0.090955
C126	C	0.832521	-0.168047	0.411125
C127	C	0.761824	-0.155482	0.480260
C128	C	0.674085	-0.140151	0.444781
C129	C	0.657043	-0.137385	0.340166
C130	C	0.727741	-0.149950	0.271024
C131	C	0.815480	-0.165281	0.306503
H132	H	0.774439	-0.157530	0.557708
H133	H	0.621750	-0.130850	0.495965
H134	H	0.592093	-0.126036	0.313903
H135	H	0.715127	-0.147902	0.193576
H136	H	0.867816	-0.174582	0.255319
C137	C	0.570136	-0.118830	-0.175927
C138	C	0.638647	-0.043314	-0.168533
C139	C	0.676973	-0.000923	-0.256765
C140	C	0.646788	-0.034048	-0.352391
C141	C	0.578273	-0.109568	-0.359789
C142	C	0.539947	-0.151959	-0.271557
H143	H	0.660995	-0.018789	-0.097741
H144	H	0.727692	0.054982	-0.251288
H145	H	0.675159	-0.002668	-0.417706
H146	H	0.555925	-0.134093	-0.430581
H147	H	0.489228	-0.207864	-0.277034
H148	H	0.931473	-0.248569	0.420976
H149	H	0.909219	-0.008392	0.580461
H150	H	1.103014	0.327400	-0.093317
H151	H	0.905272	-0.012845	0.420883
C152	C	1.039527	0.042182	0.587622
C153	C	1.095562	0.094902	0.517544
C154	C	1.163550	0.163816	0.551775
C155	C	1.175503	0.180010	0.656084
C156	C	1.119467	0.127288	0.726168
C157	C	1.051479	0.058374	0.691938
H158	H	1.086715	0.082916	0.440323
H159	H	1.205031	0.202844	0.499893
H160	H	1.225831	0.231024	0.681423
H161	H	1.128314	0.139274	0.803390
H162	H	1.009997	0.019346	0.743819
H163	H	0.403031	-0.228313	0.087600
C164	C	0.587833	0.024746	0.085037
C165	C	0.530522	0.064822	0.153690
C166	C	0.568915	0.112796	0.238659
C167	C	0.664619	0.120694	0.254975
C168	C	0.721935	0.080617	0.186319
C169	C	0.683542	0.032643	0.101350
H170	H	0.459671	0.058976	0.141615
H171	H	0.526485	0.142463	0.289483
H172	H	0.693040	0.156207	0.317874
H173	H	0.792786	0.086463	0.198395
H174	H	0.725972	0.002976	0.050526
H175	H	0.862239	0.296649	-0.062846
C176	C	0.846650	0.446783	-0.085309
C177	C	0.888816	0.510599	-0.155465
C178	C	0.839398	0.535624	-0.240501
C179	C	0.747815	0.496833	-0.255381
C180	C	0.705644	0.433014	-0.185223
C181	C	0.755062	0.407989	-0.100187
H182	H	0.956616	0.539317	-0.144452
H183	H	0.870616	0.582868	-0.292437
H184	H	0.711233	0.515358	-0.318330
H185	H	0.637844	0.404295	-0.196236
H186	H	0.723843	0.360745	-0.048251
H187	H	1.103909	0.328579	0.091097
C188	C	0.846831	0.448216	0.084259
C189	C	0.889388	0.512648	0.153516
C190	C	0.840152	0.539109	0.238057
C191	C	0.748358	0.501139	0.253341
C192	C	0.705795	0.436703	0.184082
C193	C	0.755032	0.410242	0.099541
H194	H	0.957344	0.540760	0.142204
H195	H	0.871660	0.586809	0.289326
H196	H	0.711910	0.520727	0.315923
H197	H	0.637839	0.408592	0.195395
H198	H	0.723524	0.362542	0.048272
C199	C	0.988890	0.464065	0.176519
C200	C	1.035958	0.525392	0.245942
C201	C	0.991444	0.550111	0.334558
C202	C	0.899861	0.513503	0.353751
C203	C	0.852788	0.452173	0.284326
C204	C	0.897302	0.427454	0.195710
H205	H	1.103758	0.552495	0.231735
H206	H	1.026291	0.595512	0.385950
H207	H	0.866909	0.531802	0.419350
H208	H	0.784988	0.425070	0.298533
H209	H	0.862455	0.382053	0.144318
H210	H	0.434210	0.015027	0.063352
H211	H	0.433166	0.014865	-0.062168
H212	H	0.861973	0.297200	0.063079
C213	C	0.587093	0.025057	-0.085069
C214	C	0.652413	0.102643	-0.072427
C215	C	0.690068	0.150920	-0.157567
C216	C	0.662403	0.121611	-0.255348
C217	C	0.597080	0.044021	-0.267995
C218	C	0.559425	-0.004256	-0.182855
H219	H	0.672896	0.124343	-0.000040
H220	H	0.738425	0.208358	-0.148205
H221	H	0.690278	0.157349	-0.318374
H222	H	0.576598	0.022321	-0.340382
H223	H	0.511068	-0.061693	-0.192217
H224	H	0.559040	-0.127830	0.153082
C225	C	0.407041	-0.120381	0.176871
C226	C	0.357246	-0.043533	0.172462
C227	C	0.329495	-0.003091	0.262320
C228	C	0.351541	-0.039498	0.356588
C229	C	0.401339	-0.116350	0.361002
C230	C	0.429089	-0.156792	0.271143
H231	H	0.340924	-0.016579	0.102675
H232	H	0.292631	0.053800	0.259053
H233	H	0.330999	-0.009561	0.423107
H234	H	0.417661	-0.143304	0.430788
H235	H	0.465954	-0.213683	0.274411
C236	C	1.124200	0.482912	0.093310
C237	C	1.198568	0.429743	0.097551
C238	C	1.289363	0.473310	0.102967
C239	C	1.305791	0.570046	0.104143
C240	C	1.231420	0.623221	0.099902
C241	C	1.140625	0.579654	0.094486
H242	H	1.186409	0.358129	0.096680
H243	H	1.344417	0.433947	0.106106
H244	H	1.373003	0.602297	0.108153
H245	H	1.243579	0.694835	0.100773
H246	H	1.085571	0.619017	0.091347
