data_functionalizedCrystal
_audit_creation_method	'MofGen! by Chris Wilmer'
_symmetry_space_group_name_H-M	'P1'
_symmetry_Int_Tables_number	1
_symmetry_cell_setting	triclinic
loop_
_symmetry_equiv_pos_as_xyz
  x,y,z
_cell_length_a	19.377372
_cell_length_b	19.379189
_cell_length_c	20.016444
_cell_angle_alpha	52.484415
_cell_angle_beta	90.001744
_cell_angle_gamma	62.432560
loop_
_atom_site_label
_atom_site_type_symbol
_atom_site_fract_x
_atom_site_fract_y
_atom_site_fract_z
Zr1	Zr	0.316705	1.207683	-0.434078
O2	O	0.190289	1.345840	-0.552520
O3	O	0.382873	1.039846	-0.372110
O4	O	0.343330	1.220809	-0.548492
O5	O	0.229838	1.164873	-0.266193
O6	O	0.432866	1.264925	-0.574503
O7	O	0.229832	1.164877	-0.376138
O8	O	0.503601	0.941215	-0.258988
O9	O	0.159104	1.488582	-0.581708
O10	O	0.444790	1.152795	-0.396094
O11	O	0.377975	1.119869	-0.294631
O12	O	0.331419	1.332929	-0.502298
O13	O	0.264604	1.300003	-0.400836
Zr14	Zr	0.459514	1.278035	-0.300212
Zr15	Zr	0.459504	1.278042	-0.475562
Zr16	Zr	0.316715	1.207676	-0.258728
Zr17	Zr	0.266967	1.435340	-0.480630
Zr18	Zr	0.509251	1.050378	-0.253661
O19	O	0.393346	1.445871	-0.362180
O20	O	0.393332	1.445882	-0.611505
O21	O	0.190304	1.345830	-0.303195
O22	O	0.585929	1.139878	-0.181770
O23	O	0.585915	1.139888	-0.431095
O24	O	0.382887	1.039836	-0.122786
O25	O	0.546381	1.320845	-0.468097
O26	O	0.432888	1.264909	-0.185798
O27	O	0.343353	1.220793	-0.159788
O28	O	0.546387	1.320840	-0.358152
O29	O	0.272610	1.544508	-0.614682
O30	O	0.503609	0.941209	-0.119608
O31	O	0.617115	0.997135	-0.152582
O32	O	0.617107	0.997141	-0.291962
O33	O	0.159112	1.488577	-0.442328
O34	O	0.272618	1.544503	-0.475302
O35	O	0.444800	1.152788	-0.231992
O36	O	0.511615	1.185715	-0.333454
O37	O	0.398243	1.365849	-0.439659
O38	O	0.331429	1.332923	-0.338197
C39	C	0.450323	0.958094	-0.308917
C40	C	0.471438	0.861448	-0.289154
C41	C	0.208477	0.814852	-0.535429
C42	C	0.228358	0.723973	-0.516761
C43	C	0.361351	0.615411	-0.392146
C44	C	0.341479	0.706281	-0.410800
C45	C	0.265041	0.805997	-0.482443
C46	C	0.398043	0.697427	-0.357815
C47	C	0.378174	0.788291	-0.376471
C48	C	0.301741	0.888009	-0.448112
C49	C	0.245172	0.896861	-0.501099
C50	C	0.474483	0.597711	-0.286177
C51	C	0.531047	0.588856	-0.233191
C52	C	0.511176	0.679720	-0.251843
C53	C	0.434743	0.779439	-0.323484
C54	C	0.567745	0.670868	-0.198855
C55	C	0.547876	0.761732	-0.217511
C56	C	0.414874	0.870303	-0.342140
C57	C	0.209489	1.154851	-0.315255
C58	C	0.148867	1.124981	-0.297644
C59	C	-0.346397	1.496875	-0.516912
C60	C	-0.403345	1.468784	-0.500348
C61	C	-0.284985	1.280737	-0.389479
C62	C	-0.228025	1.308813	-0.406030
C63	C	-0.258738	1.416884	-0.469748
C64	C	-0.140367	1.228822	-0.358866
C65	C	-0.083413	1.256896	-0.375419
C66	C	-0.114117	1.364961	-0.439137
C67	C	-0.201784	1.444958	-0.486301
C68	C	-0.109655	1.120752	-0.295153
C69	C	-0.021997	1.040760	-0.247989
C70	C	0.034959	1.068833	-0.264537
C71	C	0.004254	1.176899	-0.328255
C72	C	0.122626	0.988837	-0.217372
C73	C	0.179580	1.016911	-0.233926
C74	C	0.061209	1.204973	-0.344808
C75	C	0.566730	1.330867	-0.419035
C76	C	0.627352	1.360736	-0.436646
C77	C	0.388097	1.242868	-0.586481
C78	C	0.388093	1.242871	-0.660922
C79	C	0.325896	1.527623	-0.425374
C80	C	0.304781	1.624270	-0.445136
C81	C	0.328929	1.336891	-0.887616
C82	C	0.328935	1.336888	-0.957558
C83	C	0.447296	1.148821	-0.846666
C84	C	0.447293	1.148826	-0.776727
C85	C	0.388105	1.242863	-0.797205
C86	C	0.388114	1.242855	-0.937085
C87	C	0.388122	1.242851	-1.012919
C88	C	0.388098	1.242867	-0.721367
C89	C	0.388122	1.242850	-0.147809
C90	C	0.388126	1.242847	-0.073369
C91	C	0.628944	1.046103	-0.360806
C92	C	0.710680	0.979326	-0.358655
C93	C	0.450336	0.958085	-0.089581
C94	C	0.471455	0.861436	0.004622
C95	C	0.628956	1.046094	-0.141471
C96	C	0.710697	0.979314	-0.064879
C97	C	0.147263	1.439624	-0.592820
C98	C	0.065522	1.506404	-0.669412
C99	C	0.147275	1.439615	-0.373484
C100	C	0.065538	1.506392	-0.375635
C101	C	0.325883	1.527632	-0.644710
C102	C	0.304764	1.624282	-0.738912
C103	C	0.714183	0.930783	-0.390349
C104	C	0.790976	0.868048	-0.388345
C105	C	0.864265	0.853852	-0.354641
C106	C	0.860759	0.902403	-0.322947
C107	C	0.783966	0.965142	-0.324957
C108	C	0.516254	0.833232	0.081565
C109	C	0.536092	0.742431	0.170084
C110	C	0.511136	0.679831	0.181657
C111	C	0.466330	0.708042	0.104705
C112	C	0.446488	0.798846	0.016189
C113	C	0.783966	0.965143	-0.081874
C114	C	0.860773	0.902411	-0.009919
C115	C	0.864311	0.853845	0.079033
C116	C	0.791033	0.868021	0.096027
C117	C	0.714226	0.930758	0.024071
C118	C	-0.007750	1.520586	-0.652418
C119	C	-0.084563	1.583346	-0.724379
C120	C	-0.088102	1.631917	-0.813332
C121	C	-0.014823	1.617735	-0.830325
C122	C	0.061988	1.554982	-0.758366
C123	C	0.062033	1.554945	-0.343950
C124	C	-0.014764	1.617704	-0.345979
C125	C	-0.088055	1.631904	-0.379686
C126	C	-0.084548	1.583348	-0.411376
C127	C	-0.007752	1.520596	-0.409354
C128	C	0.329734	1.686856	-0.750456
C129	C	0.309906	1.777663	-0.838964
C130	C	0.265103	1.805898	-0.915928
C131	C	0.240134	1.743314	-0.904381
C132	C	0.259967	1.652505	-0.815874
H133	H	0.285567	0.961995	-0.463302
H134	H	0.527298	0.605896	0.253738
H135	H	0.147621	0.900847	-0.165500
H136	H	0.654572	0.942284	0.037923
N137	N	-0.018543	1.670083	-0.311811
H138	H	-0.037176	1.643424	-0.259072
H139	H	-0.060518	1.750351	-0.363386
H140	H	0.793815	0.828522	-0.414154
N141	N	0.028099	1.321532	-0.413523
H142	H	-0.007681	1.357751	-0.393685
H143	H	-0.007652	1.357678	-0.476051
N144	N	0.511126	1.047408	-0.679205
H145	H	0.548618	0.987834	-0.676842
H146	H	0.480156	1.026788	-0.638026
N147	N	0.939815	0.887078	-0.286595
H148	H	0.984912	0.808326	-0.232179
H149	H	0.925882	0.927405	-0.266870
N150	N	0.265099	1.438320	-0.909710
H151	H	0.296008	1.459037	-0.892905
H152	H	0.228924	1.425926	-0.873423
H153	H	-0.017714	1.657290	-0.902758
H154	H	0.146219	0.896043	-0.593746
H155	H	0.926790	0.802762	-0.353008
N156	N	0.443795	0.507863	-0.314883
H157	H	0.447801	0.451644	-0.311105
H158	H	0.445634	0.488382	-0.254921
N159	N	-0.003943	1.468213	-0.556482
H160	H	0.038045	1.387933	-0.513325
H161	H	-0.062053	1.486813	-0.556730
N162	N	0.608879	0.752191	-0.160365
H163	H	0.627325	0.799126	-0.201341
H164	H	0.660270	0.675207	-0.112154
H165	H	-0.150581	1.683003	-0.381328
N166	N	-0.497894	1.555077	-0.551220
H167	H	-0.524161	1.547622	-0.505633
H168	H	-0.524101	1.547583	-0.588018
N169	N	0.274129	0.930640	-0.183063
H170	H	0.284944	0.857918	-0.140184
H171	H	0.300340	0.938195	-0.146327
H172	H	0.352617	0.951493	-0.400458
H173	H	-0.144231	1.594920	-0.438821
H174	H	0.182915	0.978052	-0.559417
N175	N	0.141068	1.539655	-0.307600
H176	H	0.162799	1.567867	-0.357433
H177	H	0.186121	1.460899	-0.253159
N178	N	0.939801	0.887127	-0.028259
H179	H	0.925901	0.927406	-0.095527
H180	H	0.984875	0.808362	0.010229
N181	N	0.439428	0.640509	0.117194
H182	H	0.375497	0.685731	0.086312
H183	H	0.458862	0.578714	0.184962
N184	N	0.398129	0.829254	-0.066775
H185	H	0.431543	0.768982	-0.064472
H186	H	0.389319	0.896308	-0.124587
H187	H	0.781126	1.004659	-0.299142
H188	H	0.248959	1.879844	-0.987991
N189	N	-0.163591	1.598631	-0.706040
H190	H	-0.149685	1.558327	-0.638767
H191	H	-0.185299	1.570444	-0.722660
H192	H	-0.004908	1.481063	-0.435152
N193	N	0.780165	1.017508	-0.177808
H194	H	0.838242	0.999004	-0.177642
H195	H	0.738131	1.097772	-0.220914
N196	N	0.167347	0.733526	-0.573915
H197	H	0.115911	0.810484	-0.622129
H198	H	0.148965	0.686536	-0.532879
N199	N	0.947155	0.786180	0.156638
H200	H	0.993031	0.784575	0.132366
H201	H	0.963580	0.710870	0.205677
H202	H	-0.150651	1.683011	-0.871917
H203	H	0.536580	0.884193	0.072159
H204	H	-0.067739	1.387816	-0.452615
H205	H	0.366213	1.663883	-0.687798
N206	N	0.511121	1.047402	-0.824589
H207	H	0.503446	0.989769	-0.778434
H208	H	0.570511	1.022910	-0.797962
H209	H	-0.226796	1.532960	-0.538163
H210	H	0.793926	0.828470	0.168460
H211	H	-0.259989	1.192747	-0.337601
H212	H	-0.371408	1.584877	-0.568774
N213	N	0.584420	0.712013	0.253072
H214	H	0.597225	0.765445	0.232302
H215	H	0.639403	0.638130	0.292415
H216	H	0.330240	1.828611	-0.848348
N217	N	0.265129	1.438312	-1.055078
H218	H	0.227642	1.497883	-1.057435
H219	H	0.228998	1.425905	-1.076794
H220	H	0.121647	1.543437	-0.772212
H221	H	0.203654	1.766317	-0.967057
N222	N	0.233031	1.585019	-0.803430
H223	H	0.201639	1.616694	-0.865620
H224	H	0.194506	1.583552	-0.769330
H225	H	0.490667	0.523732	-0.271005
N226	N	0.635143	0.946083	-0.426702
H227	H	0.649026	0.905810	-0.446477
H228	H	0.590072	1.024851	-0.481091
H229	H	-0.156035	1.097898	-0.281683
H230	H	0.593284	0.507659	-0.174862
H231	H	0.629984	0.589671	-0.140530
H232	H	0.002999	0.952769	-0.196112
