data_functionalizedCrystal
_audit_creation_method	'MofGen! by Chris Wilmer'
_symmetry_space_group_name_H-M	'P1'
_symmetry_Int_Tables_number	1
_symmetry_cell_setting	triclinic
loop_
_symmetry_equiv_pos_as_xyz
  x,y,z
_cell_length_a	17.077404
_cell_length_b	10.685194
_cell_length_c	10.685986
_cell_angle_alpha	99.091424
_cell_angle_beta	85.652620
_cell_angle_gamma	94.372382
loop_
_atom_site_label
_atom_site_type_symbol
_atom_site_fract_x
_atom_site_fract_y
_atom_site_fract_z
Zn1	Zn	1.146312	-0.450364	0.678970
Zn2	Zn	1.146241	-0.678979	0.450435
Zn3	Zn	1.024377	-0.466708	0.466727
Zn4	Zn	1.005706	-0.662573	0.662635
O5	O	1.080659	-0.564656	0.564692
O6	O	1.256148	-0.480717	0.648673
O7	O	1.137860	-0.664526	0.274965
O8	O	1.048396	-0.286893	0.508537
O9	O	1.256096	-0.648679	0.480769
O10	O	1.137981	-0.274886	0.664471
O11	O	1.048327	-0.508571	0.286935
O12	O	0.912056	-0.492663	0.492697
O13	O	1.016574	-0.620717	0.842433
O14	O	0.898338	-0.636564	0.636629
O15	O	1.119876	-0.464808	0.854434
O16	O	1.119755	-0.854449	0.464929
O17	O	1.016505	-0.842395	0.620831
C18	C	0.876715	-0.564608	0.564659
C19	C	0.789464	-0.564615	0.564673
C20	C	0.406521	-0.639774	0.639532
C21	C	0.488503	-0.639759	0.639514
C22	C	0.536610	-0.564688	0.564710
C23	C	0.502732	-0.489637	0.489908
C24	C	0.420751	-0.489660	0.489920
C25	C	0.673605	-0.489592	0.489891
C26	C	0.755591	-0.489567	0.489880
C27	C	0.741357	-0.639691	0.639485
C28	C	0.659376	-0.639714	0.639497
C29	C	0.625503	-0.564661	0.564697
C30	C	1.066116	-0.894481	0.539367
C31	C	1.059965	-1.035579	0.528575
C32	C	1.285400	-0.564705	0.564725
C33	C	1.372648	-0.564726	0.564740
C34	C	1.066150	-0.539110	0.895779
C35	C	1.059967	-0.528223	1.036869
C36	C	1.095279	-0.233540	0.590143
C37	C	1.101509	-0.092438	0.600989
C38	C	1.095161	-0.590011	0.234900
C39	C	1.101512	-0.600540	0.093838
H40	H	0.367357	-0.700898	0.700455
Cl41	Cl	0.816068	-0.395204	0.395826
Cl42	Cl	0.531083	-0.734112	0.733541
Cl43	Cl	0.598899	-0.734083	0.733546
Cl44	Cl	1.163738	-0.708980	1.002494
Cl45	Cl	0.997769	-1.127079	0.420107
H46	H	0.646029	-0.428473	0.428983
H47	H	0.541907	-0.428519	0.428995
H48	H	1.141784	-1.033175	0.671248
Cl49	Cl	0.783939	-0.734020	0.733542
Cl50	Cl	0.997753	-0.419775	1.128209
H51	H	0.393173	-0.428544	0.429020
