data_functionalizedCrystal
_audit_creation_method	'MofGen! by Chris Wilmer'
_symmetry_space_group_name_H-M	'P1'
_symmetry_Int_Tables_number	1
_symmetry_cell_setting	triclinic
loop_
_symmetry_equiv_pos_as_xyz
  x,y,z
_cell_length_a	19.288859
_cell_length_b	17.699083
_cell_length_c	17.766277
_cell_angle_alpha	89.992740
_cell_angle_beta	89.989768
_cell_angle_gamma	83.208370
loop_
_atom_site_label
_atom_site_type_symbol
_atom_site_fract_x
_atom_site_fract_y
_atom_site_fract_z
O1	O	0.921467	0.094395	-0.062610
O2	O	0.719221	0.107137	-0.062609
O3	O	0.826058	-0.009432	-0.062603
O4	O	0.814630	0.210963	-0.062616
O5	O	0.826040	-0.009437	0.062585
O6	O	0.719203	0.107131	0.062580
O7	O	0.921449	0.094389	0.062578
Cu8	Cu	0.820324	0.100759	0.074010
Cu9	Cu	0.820346	0.100766	-0.074040
O10	O	0.814612	0.210957	0.062572
C11	C	0.693335	0.106724	-0.000014
C12	C	0.616230	0.105496	-0.000014
C13	C	0.052260	0.165583	-0.000018
C14	C	0.124708	0.166744	-0.000022
C15	C	0.169334	0.098347	-0.000017
C16	C	0.141506	0.028784	-0.000027
C17	C	0.069060	0.027626	-0.000030
C18	C	0.290537	0.047335	0.043848
C19	C	0.362982	0.048497	0.043856
C20	C	0.392784	0.101919	-0.000009
C21	C	0.350130	0.154191	-0.043873
C22	C	0.277683	0.153033	-0.043877
C23	C	0.247891	0.099596	-0.000013
C24	C	0.499159	0.172736	-0.000009
C25	C	0.571609	0.173894	-0.000018
C26	C	0.588406	0.035932	-0.000015
C27	C	0.515958	0.034776	-0.000014
C28	C	0.471338	0.103180	-0.000007
C29	C	0.825639	-0.037631	-0.000009
C30	C	0.824411	-0.121647	-0.000008
C31	C	0.887122	-0.170358	-0.000008
C32	C	0.885964	-0.249299	-0.000015
C33	C	0.822093	-0.279529	-0.000016
C34	C	0.759378	-0.230812	-0.000019
C35	C	0.760537	-0.151872	-0.000018
C36	C	0.754702	-0.549169	-0.000025
C37	C	0.753547	-0.628115	-0.000024
C38	C	0.880129	-0.646596	-0.000022
C39	C	0.881288	-0.567656	-0.000021
C40	C	0.818572	-0.518946	-0.000027
C41	C	0.819829	-0.433349	-0.000022
C42	C	0.820836	-0.365125	-0.000017
C43	C	0.947335	0.094801	-0.000018
C44	C	1.024440	0.096030	-0.000024
C45	C	0.815031	0.239157	-0.000024
C46	C	0.816259	0.323173	-0.000029
N47	N	0.820313	0.100754	0.178140
N48	N	0.820362	0.100766	-0.178171
C49	C	0.867636	0.049163	0.217529
C50	C	0.867640	0.049159	0.296331
C51	C	0.820328	0.100760	0.335740
C52	C	0.772996	0.152355	0.296341
C53	C	0.772989	0.152352	0.217541
C54	C	0.811111	0.169722	0.460574
C55	C	0.811123	0.169726	0.539373
C56	C	0.820347	0.100769	0.578787
C57	C	0.829573	0.031805	0.539392
C58	C	0.829565	0.031802	0.460592
C59	C	0.820330	0.100769	0.421186
C60	C	0.867676	0.049170	0.703622
C61	C	0.867675	0.049165	0.782425
C62	C	0.773035	0.152368	0.782434
C63	C	0.773033	0.152366	0.703632
C64	C	0.820357	0.100768	0.664231
H65	H	0.242958	0.195594	-0.079594
H66	H	0.177845	-0.026905	-0.000024
H67	H	0.397705	0.005937	0.079577
F68	F	0.601215	0.247926	-0.000019
F69	F	0.722641	0.207270	0.338284
F70	F	0.918041	-0.005751	0.824348
F71	F	0.039452	-0.046406	-0.000038
F72	F	0.486349	-0.039254	-0.000021
F73	F	0.258831	-0.009557	0.090504
H74	H	0.147363	0.223385	-0.000011
H75	H	0.939133	-0.145752	-0.000002
H76	H	0.937029	-0.288957	-0.000012
F77	F	0.381840	0.211057	-0.090555
F78	F	0.004777	0.238386	-0.000019
H79	H	0.837083	-0.024346	0.571481
F80	F	0.451670	0.245536	-0.000005
F81	F	0.635895	-0.036862	-0.000018
F82	F	0.946877	-0.698443	-0.000017
H83	H	0.933297	-0.543048	-0.000015
F84	F	0.685564	-0.660285	-0.000027
F85	F	0.687954	-0.497338	-0.000034
F86	F	0.691402	-0.262987	-0.000030
H87	H	0.906169	0.007147	0.185451
H88	H	0.709471	-0.112212	-0.000019
H89	H	0.803588	0.225879	0.428490
F90	F	0.722620	0.207265	0.175618
H91	H	0.906177	0.007146	0.328408
F92	F	0.839379	-0.041592	0.418667
F93	F	0.918040	-0.005748	0.661688
F94	F	0.722668	0.207279	0.661708
F95	F	0.722678	0.207280	0.824373
F96	F	0.801309	0.243123	0.581293
