data_functionalizedCrystal
_audit_creation_method	'MofGen! by Chris Wilmer'
_symmetry_space_group_name_H-M	'P1'
_symmetry_Int_Tables_number	1
_symmetry_cell_setting	triclinic
loop_
_symmetry_equiv_pos_as_xyz
  x,y,z
_cell_length_a	6.817900
_cell_length_b	16.418049
_cell_length_c	16.418042
_cell_angle_alpha	95.404742
_cell_angle_beta	103.389568
_cell_angle_gamma	103.389670
loop_
_atom_site_label
_atom_site_type_symbol
_atom_site_fract_x
_atom_site_fract_y
_atom_site_fract_z
V1	V	-4.025096	-0.116568	-0.261450
O2	O	-4.013114	0.004901	-0.256170
O3	O	-3.976170	-0.230460	-0.259954
O4	O	-3.976177	-0.115082	-0.375345
O5	O	-4.013107	-0.111276	-0.139981
V6	V	-4.508860	-0.102002	-0.246886
O7	O	-4.285827	-0.148518	-0.293398
O8	O	-4.698326	-0.070052	-0.214938
O9	O	-4.334579	0.011890	-0.248382
O10	O	-4.638239	-0.223471	-0.252167
O11	O	-4.638246	-0.107294	-0.368356
O12	O	-4.334573	-0.103488	-0.132992
C13	C	-3.821060	-0.258215	-0.255905
C14	C	-3.862341	-0.351326	-0.255441
C15	C	-4.139359	-0.569823	-0.258578
C16	C	-4.178135	-0.657312	-0.258150
C17	C	-3.813956	-0.648746	-0.249763
C18	C	-3.775186	-0.561260	-0.250198
C19	C	-3.937892	-0.521801	-0.254602
C20	C	-4.015438	-0.696774	-0.253738
C21	C	-4.057479	-0.791633	-0.253273
C22	C	-3.895850	-0.426936	-0.255068
C23	C	-3.821067	-0.111038	-0.403096
C24	C	-3.862350	-0.110577	-0.496207
C25	C	-4.139358	-0.113692	-0.714701
C26	C	-4.178129	-0.113252	-0.802187
C27	C	-3.813954	-0.104873	-0.793623
C28	C	-3.775183	-0.105308	-0.706138
C29	C	-3.937894	-0.109722	-0.666680
C30	C	-4.015436	-0.108847	-0.841652
C31	C	-4.057471	-0.108369	-0.936508
C32	C	-3.895856	-0.110198	-0.571817
C33	C	-4.153032	0.039641	-0.252429
C34	C	-4.090989	0.132751	-0.252899
C35	C	-4.153025	-0.107535	-0.105236
C36	C	-4.090980	-0.107992	-0.012124
H37	H	-4.342186	-0.696409	-0.261389
C38	C	-3.556607	-0.101171	-0.653935
C39	C	-3.561399	-0.173607	-0.614942
C40	C	-3.360101	-0.169833	-0.566848
H41	H	-3.465113	-0.098538	-0.689889
H42	H	-3.508313	-0.052110	-0.611793
H43	H	-3.609665	-0.222655	-0.657079
H44	H	-3.652852	-0.176254	-0.578975
H45	H	-3.311808	-0.120772	-0.524706
H46	H	-3.268623	-0.167199	-0.602808
H47	H	-3.363329	-0.218976	-0.540380
H48	H	-4.271847	-0.537698	-0.262163
H49	H	-3.681487	-0.101281	-0.825761
H50	H	-4.342177	-0.116484	-0.841283
H51	H	-3.681490	-0.680884	-0.246177
C52	C	-3.556299	-0.509130	-0.245702
C53	C	-3.418283	-0.516330	-0.170631
C54	C	-3.216645	-0.468312	-0.166458
H55	H	-3.513034	-0.529435	-0.292935
H56	H	-3.556403	-0.451359	-0.246547
H57	H	-3.418172	-0.574089	-0.169794
H58	H	-3.461480	-0.496020	-0.123385
H59	H	-3.216748	-0.410541	-0.167303
H60	H	-3.173401	-0.488622	-0.213695
H61	H	-3.122979	-0.473185	-0.115520
H62	H	-4.271850	-0.117285	-0.682577
