data_functionalizedCrystal
_audit_creation_method	'MofGen! by Chris Wilmer'
_symmetry_space_group_name_H-M	'P1'
_symmetry_Int_Tables_number	1
_symmetry_cell_setting	triclinic
loop_
_symmetry_equiv_pos_as_xyz
  x,y,z
_cell_length_a	6.394989
_cell_length_b	16.992694
_cell_length_c	15.455313
_cell_angle_alpha	87.142206
_cell_angle_beta	87.254133
_cell_angle_gamma	91.417033
loop_
_atom_site_label
_atom_site_type_symbol
_atom_site_fract_x
_atom_site_fract_y
_atom_site_fract_z
O1	O	-0.435072	1.048122	-0.072012
O2	O	-0.430202	0.819790	-0.072038
O3	O	-0.129113	0.937197	-0.072026
O4	O	-0.736160	0.930715	-0.072025
O5	O	-0.146255	0.930482	0.072236
O6	O	-0.447343	0.813075	0.072223
O7	O	-0.452214	1.041407	0.072249
Cu8	Cu	-0.451344	0.926628	0.085408
Cu9	Cu	-0.431071	0.934569	-0.085198
O10	O	-0.753302	0.924000	0.072236
C11	C	-0.432511	0.787158	0.000089
C12	C	-0.413829	0.699930	0.000079
C13	C	-0.594077	0.651470	0.000080
C14	C	-0.576513	0.569510	0.000092
C15	C	-0.378698	0.536010	0.000097
C16	C	-0.198437	0.584476	0.000099
C17	C	-0.216003	0.666434	0.000093
C18	C	-0.305891	0.291692	0.000120
C19	C	-0.288338	0.209727	0.000123
C20	C	-0.666416	0.194766	0.000118
C21	C	-0.683964	0.276728	0.000107
C22	C	-0.503704	0.325186	0.000113
N23	N	-0.360740	0.452233	0.000106
N24	N	-0.521664	0.408961	0.000110
C25	C	-0.059649	0.932558	0.000102
C26	C	0.177240	0.928641	0.000100
C27	C	-0.449904	1.074039	0.000120
C28	C	-0.468586	1.161267	0.000124
N29	N	-0.465602	0.921049	0.205403
N30	N	-0.416798	0.940154	-0.205192
C31	C	-0.337742	0.970946	0.250803
C32	C	-0.348545	0.966733	0.341610
C33	C	-0.487220	0.912628	0.387016
C34	C	-0.615085	0.862725	0.341611
C35	C	-0.604270	0.866934	0.250805
C36	C	-0.533847	0.894461	0.658596
C37	C	-0.544658	0.890257	0.749408
C38	C	-0.278114	0.994265	0.749401
C39	C	-0.267319	0.998472	0.658594
C40	C	-0.395176	0.948567	0.613196
N41	N	-0.498271	0.908323	0.479836
N42	N	-0.384114	0.952869	0.520378
H43	H	-0.127245	0.182455	0.000126
H44	H	-0.813173	0.155303	0.000115
H45	H	-0.845045	0.303997	0.000093
O46	O	-0.751654	0.522480	-0.000065
C47	C	-1.060596	0.488121	-0.074784
C48	C	-0.862284	0.541418	-0.074726
H49	H	-1.150118	0.503425	-0.135132
H50	H	-1.014197	0.423775	-0.074830
H51	H	-1.164366	0.497743	-0.014388
H52	H	-0.758424	0.531865	-0.135111
H53	H	-0.908833	0.605745	-0.074634
H54	H	-0.755159	0.678739	0.000075
O55	O	-0.130707	0.338728	-0.000034
C56	C	0.196015	0.380014	-0.074744
C57	C	-0.002318	0.326716	-0.074688
H58	H	0.299892	0.370309	-0.135086
H59	H	0.149637	0.444366	-0.074800
H60	H	0.285414	0.364785	-0.014342
H61	H	-0.091809	0.341875	-0.135079
H62	H	0.044199	0.262379	-0.074586
O63	O	-0.041049	0.713598	-0.000027
C64	C	0.167484	0.818255	-0.074793
C65	C	-0.030752	0.764907	-0.074760
H66	H	0.175897	0.859741	-0.135217
H67	H	0.161555	0.854254	-0.014462
H68	H	0.311852	0.780219	-0.074748
H69	H	-0.175223	0.802884	-0.074835
H70	H	-0.024640	0.728904	-0.135085
O71	O	-0.202851	1.023526	0.206833
C72	C	0.060301	1.126271	0.216421
C73	C	-0.092343	1.066748	0.266321
H74	H	0.149656	1.161243	0.264495
H75	H	0.175733	1.093341	0.173942
H76	H	-0.031605	1.168334	0.173875
H77	H	-0.000612	1.024670	0.308914
H78	H	-0.207775	1.099729	0.308746
H79	H	-0.037373	0.557193	0.000115
H80	H	-0.154399	1.042529	0.621626
O81	O	-0.224127	1.015097	0.385745
C82	C	0.046516	1.024265	0.488306
C83	C	-0.094236	0.969399	0.438366
H84	H	0.151537	0.987340	0.530876
H85	H	0.147618	1.063646	0.440289
H86	H	-0.055531	1.062434	0.530772
H87	H	0.007650	0.931181	0.395900
H88	H	-0.195351	0.930071	0.486430
H89	H	-0.174016	1.034894	0.786373
H90	H	-0.657592	0.846196	0.786374
H91	H	-0.637958	0.853827	0.621640
O92	O	-0.749745	0.810235	0.385850
C93	C	-0.884459	0.757627	0.525741
C94	C	-0.731891	0.817120	0.475751
H95	H	-0.870044	0.763162	0.598435
H96	H	-1.051686	0.770339	0.507940
H97	H	-0.844487	0.695292	0.507846
H98	H	-0.771670	0.879477	0.493619
H99	H	-0.564706	0.804340	0.493557
O100	O	-0.728692	0.818433	0.206835
C101	C	-0.994119	0.714796	0.216420
C102	C	-0.853370	0.769694	0.266321
H103	H	-1.094925	0.675365	0.264492
H104	H	-1.099429	0.751663	0.173919
H105	H	-0.892073	0.676678	0.173894
H106	H	-0.955253	0.807823	0.308894
H107	H	-0.748046	0.732781	0.308767
