data_functionalizedCrystal
_audit_creation_method	'MofGen! by Chris Wilmer'
_symmetry_space_group_name_H-M	'P1'
_symmetry_Int_Tables_number	1
_symmetry_cell_setting	triclinic
loop_
_symmetry_equiv_pos_as_xyz
  x,y,z
_cell_length_a	10.654547
_cell_length_b	14.519709
_cell_length_c	13.596369
_cell_angle_alpha	89.993066
_cell_angle_beta	89.993970
_cell_angle_gamma	84.083100
loop_
_atom_site_label
_atom_site_type_symbol
_atom_site_fract_x
_atom_site_fract_y
_atom_site_fract_z
O1	O	1.666596	0.129546	-0.081811
O2	O	2.166596	0.629546	0.418189
O3	O	1.300999	0.141884	-0.081809
O4	O	1.800999	0.641884	0.418191
O5	O	1.493491	0.001527	-0.081801
O6	O	1.993491	0.501527	0.418199
O7	O	1.474104	0.269903	-0.081819
O8	O	1.974104	0.769903	0.418181
O9	O	1.493471	0.001520	0.081782
O10	O	1.993471	0.501520	0.581782
O11	O	1.300980	0.141877	0.081774
O12	O	1.800980	0.641877	0.581774
O13	O	1.666577	0.129539	0.081772
O14	O	2.166577	0.629539	0.581772
Zn15	Zn	1.483775	0.135706	0.107745
Zn16	Zn	1.983775	0.635706	0.607745
Zn17	Zn	1.483800	0.135716	-0.107782
Zn18	Zn	1.983800	0.635716	0.392218
O19	O	1.474085	0.269896	0.081764
O20	O	1.974085	0.769896	0.581764
C21	C	1.254200	0.140974	-0.000017
C22	C	1.754200	0.640974	0.499983
C23	C	1.114783	0.138262	-0.000017
C24	C	1.614783	0.638262	0.499983
C25	C	1.492577	-0.032841	-0.000009
C26	C	1.992577	0.467159	0.499991
C27	C	1.489870	-0.135236	-0.000009
C28	C	1.989870	0.364764	0.499991
C29	C	0.852833	0.133158	-0.178372
C30	C	1.352833	0.633158	0.321628
C31	C	0.918350	0.134438	-0.267541
C32	C	1.418350	0.634438	0.232459
C33	C	1.049342	0.136993	-0.267539
C34	C	1.549342	0.636993	0.232461
C35	C	1.114823	0.138266	-0.178358
C36	C	1.614823	0.638266	0.321642
C37	C	1.049306	0.136986	-0.089188
C38	C	1.549306	0.636986	0.410812
C39	C	0.918310	0.134434	-0.089200
C40	C	1.418310	0.634434	0.410800
C41	C	1.049267	0.136982	0.089153
C42	C	1.549267	0.636982	0.589153
C43	C	0.918273	0.134434	0.089152
C44	C	1.418273	0.634434	0.589152
C45	C	1.114747	0.138255	0.178334
C46	C	1.614747	0.638255	0.678334
C47	C	1.049229	0.136982	0.267506
C48	C	1.549229	0.636982	0.767506
C49	C	0.918228	0.134428	0.267499
C50	C	1.418228	0.634428	0.767499
C51	C	0.852756	0.133154	0.178322
C52	C	1.352756	0.633154	0.678322
C53	C	1.479903	-0.510184	-0.000034
C54	C	1.979903	-0.010184	0.499966
C55	C	1.482671	-0.405862	-0.000027
C56	C	1.982671	0.094138	0.499973
C57	C	1.484886	-0.322714	-0.000021
C58	C	1.984886	0.177286	0.499979
C59	C	1.487655	-0.218385	-0.000015
C60	C	1.987655	0.281615	0.499985
C61	C	1.713375	0.130449	-0.000022
C62	C	2.213375	0.630449	0.499978
C63	C	1.852792	0.133161	-0.000029
C64	C	2.352792	0.633161	0.499971
C65	C	1.474998	0.304264	-0.000030
C66	C	1.974998	0.804264	0.499970
C67	C	1.477705	0.406659	-0.000037
C68	C	1.977705	0.906659	0.499963
N69	N	1.483767	0.135699	0.254837
N70	N	1.983767	0.635699	0.754837
N71	N	1.483818	0.135717	-0.254874
N72	N	1.983818	0.635717	0.245126
C73	C	1.483799	0.135717	0.656128
C74	C	1.983799	0.635717	1.156128
C75	C	1.483786	0.135715	0.544477
C76	C	1.983786	0.635715	1.044477
C77	C	1.483783	0.135709	0.455486
C78	C	1.983783	0.635709	0.955486
C79	C	1.483770	0.135706	0.343828
C80	C	1.983770	0.635706	0.843828
H81	H	0.865022	0.133397	-0.340151
H82	H	1.365022	0.633397	0.159849
H83	H	0.746170	0.131090	-0.178383
H84	H	1.246170	0.631090	0.321617
N85	N	0.847572	0.133039	0.363678
N86	N	1.347572	0.633039	0.863678
H87	H	0.909046	0.133590	0.420164
H88	H	1.409046	0.633590	0.920164
H89	H	0.783762	0.189381	0.367858
H90	H	1.283762	0.689381	0.867858
H91	H	1.102686	0.138034	-0.340148
H92	H	1.602686	0.638034	0.159852
H93	H	1.221486	0.140335	-0.178364
H94	H	1.721486	0.640335	0.321636
N95	N	1.256034	0.140995	0.178328
N96	N	1.756034	0.640995	0.678328
H97	H	1.277545	0.198678	0.143313
H98	H	1.777545	0.698678	0.643313
H99	H	1.287488	0.141566	0.248373
H100	H	1.787488	0.641566	0.748373
N101	N	1.119851	0.138350	0.363684
N102	N	1.619851	0.638350	0.863684
H103	H	1.212776	0.140157	0.350155
H104	H	1.712776	0.640157	0.850155
H105	H	1.086897	0.194977	0.402616
H106	H	1.586897	0.694977	0.902616
N107	N	0.711472	0.130397	0.178321
N108	N	1.211472	0.630397	0.678321
H109	H	0.669866	0.186850	0.143304
H110	H	1.169866	0.686850	0.643304
H111	H	0.690096	0.072678	0.143332
H112	H	1.190096	0.572678	0.643332
