data_functionalizedCrystal
_audit_creation_method	'MofGen! by Chris Wilmer'
_symmetry_space_group_name_H-M	'P1'
_symmetry_Int_Tables_number	1
_symmetry_cell_setting	triclinic
loop_
_symmetry_equiv_pos_as_xyz
  x,y,z
_cell_length_a	11.792241
_cell_length_b	15.995350
_cell_length_c	10.268362
_cell_angle_alpha	89.996947
_cell_angle_beta	89.999626
_cell_angle_gamma	83.842895
loop_
_atom_site_label
_atom_site_type_symbol
_atom_site_fract_x
_atom_site_fract_y
_atom_site_fract_z
O1	O	1.505952	0.114763	-0.108167
O2	O	1.175512	0.126591	-0.108197
O3	O	1.349764	-0.001170	-0.108180
O4	O	1.331699	0.242524	-0.108184
O5	O	1.349749	-0.001175	0.108421
O6	O	1.175497	0.126586	0.108404
O7	O	1.505936	0.114758	0.108434
Cu8	Cu	1.340715	0.120671	0.128196
Cu9	Cu	1.340733	0.120678	-0.127959
O10	O	1.331684	0.242518	0.108417
C11	C	1.133220	0.125845	0.000100
C12	C	1.007224	0.123621	0.000088
C13	C	1.349010	-0.032370	0.000118
C14	C	1.346771	-0.125331	0.000111
C15	C	0.776546	0.119532	0.000126
C16	C	0.904913	0.121804	0.000105
C17	C	1.338730	-0.463115	0.000114
C18	C	1.214630	-0.416244	-0.000383
C19	C	1.216870	-0.319544	0.000106
C20	C	1.342718	-0.295536	0.000112
C21	C	1.403920	-0.336339	0.123804
C22	C	1.400803	-0.432989	0.123908
C23	C	1.403383	-0.433329	-0.122408
C24	C	1.403354	-0.336384	-0.124042
C25	C	1.344979	-0.200829	0.000115
C26	C	1.336473	-0.557823	0.000120
C27	C	1.548229	0.115504	0.000134
C28	C	1.674224	0.117727	0.000137
C29	C	1.332438	0.273719	0.000116
C30	C	1.334677	0.366680	0.000115
N31	N	1.340711	0.120666	0.308362
N32	N	1.340746	0.120676	-0.308125
C33	C	1.340727	0.120676	0.574033
C34	C	1.340715	0.120673	0.426195
H35	H	1.168761	-0.291338	-0.088562
O36	O	1.341660	-0.457513	0.246366
H37	H	1.315546	-0.400365	0.304951
O38	O	1.521481	-0.475168	0.131379
H39	H	1.581807	-0.426507	0.134913
O40	O	1.152713	-0.282929	0.117758
H41	H	1.080155	-0.237739	0.085443
H42	H	1.358608	-0.309336	-0.215547
O43	O	1.148929	-0.441086	-0.117878
H44	H	1.061721	-0.407212	-0.116034
H45	H	1.362816	-0.454051	-0.216159
O46	O	1.526388	-0.317068	0.129930
H47	H	1.544975	-0.278109	0.044677
H48	H	1.165243	-0.436065	0.087817
O49	O	1.524581	-0.474852	-0.123524
H50	H	1.538756	-0.516506	-0.037291
H51	H	1.361400	-0.308153	0.215848
O52	O	1.524924	-0.315491	-0.133940
H53	H	1.573212	-0.339620	-0.046512
