data_functionalizedCrystal
_audit_creation_method	'MofGen! by Chris Wilmer'
_symmetry_space_group_name_H-M	'P1'
_symmetry_Int_Tables_number	1
_symmetry_cell_setting	triclinic
loop_
_symmetry_equiv_pos_as_xyz
  x,y,z
_cell_length_a	15.995350
_cell_length_b	10.723022
_cell_length_c	9.198806
_cell_angle_alpha	89.996352
_cell_angle_beta	89.999047
_cell_angle_gamma	83.979800
loop_
_atom_site_label
_atom_site_type_symbol
_atom_site_fract_x
_atom_site_fract_y
_atom_site_fract_z
O1	O	0.117428	1.655691	-0.120875
O2	O	0.128671	1.292395	-0.120879
O3	O	0.001219	1.483974	-0.120876
O4	O	0.244880	1.464112	-0.120879
O5	O	0.001218	1.483959	0.120909
O6	O	0.128670	1.292380	0.120906
O7	O	0.117428	1.655676	0.120910
Cu8	Cu	0.123049	1.474026	0.142985
Cu9	Cu	0.123050	1.474044	-0.142954
O10	O	0.244880	1.464097	0.120906
C11	C	0.127853	1.245898	0.000013
C12	C	0.125406	1.107375	0.000011
C13	C	0.051909	1.059751	0.000011
C14	C	0.049378	0.916581	0.000009
C15	C	-0.029981	1.483145	0.000014
C16	C	-0.122945	1.480683	0.000006
C17	C	-0.460744	1.471843	0.000011
C18	C	-0.414093	1.335404	-0.000533
C19	C	-0.317388	1.337866	0.000012
C20	C	-0.293158	1.476228	0.000007
C21	C	-0.333849	1.543516	0.138077
C22	C	-0.430505	1.540088	0.138192
C23	C	-0.430846	1.542924	-0.136763
C24	C	-0.333901	1.542892	-0.138587
C25	C	-0.198446	1.478713	0.000010
C26	C	-0.555456	1.469361	0.000017
C27	C	0.276079	1.464925	0.000013
C28	C	0.369044	1.467387	0.000012
C29	C	0.118246	1.702172	0.000015
C30	C	0.120693	1.840696	0.000007
N31	N	0.123048	1.474023	0.344099
N32	N	0.123044	1.474058	-0.344068
C33	C	0.069299	1.554464	0.416297
C34	C	0.069296	1.554484	0.583709
H35	H	-0.289270	1.284973	-0.098962
O36	O	-0.300240	1.487928	0.260705
C37	C	-0.261591	1.576553	0.343445
H38	H	-0.244688	1.655476	0.269527
H39	H	-0.306772	1.616782	0.431540
C40	C	-0.201934	1.415472	0.505461
C41	C	-0.181167	1.512402	0.414671
H42	H	-0.152327	1.375902	0.549403
H43	H	-0.227975	1.355764	0.449722
H44	H	-0.239587	1.449011	0.578861
H45	H	-0.143524	1.478860	0.341263
H46	H	-0.155118	1.572103	0.470400
H47	H	0.186455	1.042154	0.000003
H48	H	-0.009141	1.124973	0.000005
O49	O	0.014436	1.636807	0.342384
C50	C	0.028584	1.760436	0.379458
H51	H	0.060802	1.760475	0.489996
H52	H	0.070458	1.799136	0.293817
C53	C	-0.095619	1.843104	0.250556
C54	C	-0.056055	1.843153	0.386327
H55	H	-0.147827	1.894130	0.254787
H56	H	-0.105149	1.759813	0.225574
H57	H	-0.060715	1.875351	0.179203
H58	H	-0.090954	1.810891	0.457674
H59	H	-0.046532	1.926440	0.411322
O60	O	-0.436695	1.270500	-0.118687
C61	C	-0.495009	1.347527	-0.202706
H62	H	-0.527674	1.424659	-0.131165
H63	H	-0.460707	1.391574	-0.295030
C64	C	-0.520804	1.173236	-0.354276
C65	C	-0.560928	1.267966	-0.266405
H66	H	-0.561463	1.124160	-0.393575
H67	H	-0.481514	1.121342	-0.297675
H68	H	-0.492219	1.209957	-0.431201
H69	H	-0.589502	1.231244	-0.189473
H70	H	-0.600224	1.319852	-0.322995
H71	H	-0.451642	1.498322	-0.241411
H72	H	0.023282	1.623358	0.645797
H73	H	0.169066	1.405189	0.593854
O74	O	-0.025627	0.867462	-0.000057
C75	C	-0.011456	0.735449	-0.000020
H76	H	0.053729	0.705012	-0.045793
H77	H	-0.015690	0.699200	0.115977
C78	C	-0.158372	0.718712	-0.038623
C79	C	-0.078313	0.681328	-0.094853
H80	H	-0.199614	0.685326	-0.097114
H81	H	-0.167920	0.807652	-0.038642
H82	H	-0.161889	0.688502	0.058040
H83	H	-0.074794	0.711552	-0.191507
H84	H	-0.068766	0.592392	-0.094852
H85	H	-0.317960	1.643792	-0.146927
H86	H	0.183624	0.881696	0.000015
O87	O	-0.468432	1.659510	0.145627
C88	C	-0.556431	1.657545	0.145852
H89	H	-0.572929	1.566543	0.094443
H90	H	-0.580604	1.663806	0.262487
C91	C	-0.577351	1.881638	0.121127
C92	C	-0.597616	1.769872	0.057974
H93	H	-0.602758	1.950929	0.066926
H94	H	-0.518065	1.882963	0.120981
H95	H	-0.597497	1.886838	0.218321
H96	H	-0.577461	1.764666	-0.039211
H97	H	-0.656900	1.768549	0.058102
H98	H	-0.433999	1.281106	0.097926
O99	O	-0.284593	1.274170	0.118243
C100	C	-0.304029	1.149036	0.112000
H101	H	-0.361824	1.143575	0.040702
H102	H	-0.248527	1.087190	0.063969
C103	C	-0.251179	1.109974	0.353948
C104	C	-0.322168	1.103269	0.266388
H105	H	-0.262365	1.081739	0.449181
H106	H	-0.238082	1.194278	0.358153
H107	H	-0.204934	1.058436	0.313905
H108	H	-0.368409	1.154819	0.306421
H109	H	-0.335274	1.018973	0.262193
O110	O	-0.452768	1.481397	0.261166
C111	C	-0.492329	1.374456	0.223466
H112	H	-0.519152	1.386219	0.108886
H113	H	-0.444456	1.287924	0.227547
C114	C	-0.531031	1.344194	0.472282
C115	C	-0.563983	1.358646	0.331556
H116	H	-0.575229	1.334436	0.538959
H117	H	-0.504376	1.416239	0.497683
H118	H	-0.491138	1.272085	0.475662
H119	H	-0.603867	1.430762	0.328174
H120	H	-0.590647	1.286613	0.306157
H121	H	-0.306935	1.493696	-0.240727
O122	O	-0.467947	1.662987	-0.138074
C123	C	-0.440707	1.725834	-0.261183
H124	H	-0.377780	1.677269	-0.299649
H125	H	-0.489143	1.723765	-0.351831
C126	C	-0.507810	1.922529	-0.173999
C127	C	-0.430519	1.862888	-0.221238
H128	H	-0.501530	2.007072	-0.149364
H129	H	-0.526166	1.880189	-0.091062
H130	H	-0.548166	1.920792	-0.249548
H131	H	-0.390168	1.864611	-0.145683
H132	H	-0.412156	1.905232	-0.304162
H133	H	-0.319140	1.645166	0.143208
O134	O	0.177831	1.391823	0.418364
C135	C	0.132623	1.314698	0.506395
H136	H	0.067320	1.364161	0.529035
H137	H	0.126578	1.222372	0.447844
C138	C	0.259826	1.227598	0.623261
C139	C	0.179622	1.288355	0.651077
H140	H	0.288818	1.211342	0.712506
H141	H	0.290285	1.279554	0.563950
H142	H	0.254778	1.150667	0.574465
H143	H	0.184672	1.365290	0.699856
H144	H	0.149166	1.236410	0.710401
