data_functionalizedCrystal
_audit_creation_method	'MofGen! by Chris Wilmer'
_symmetry_space_group_name_H-M	'P1'
_symmetry_Int_Tables_number	1
_symmetry_cell_setting	triclinic
loop_
_symmetry_equiv_pos_as_xyz
  x,y,z
_cell_length_a	16.992694
_cell_length_b	14.044220
_cell_length_c	15.455313
_cell_angle_alpha	92.908275
_cell_angle_beta	87.142206
_cell_angle_gamma	91.928550
loop_
_atom_site_label
_atom_site_type_symbol
_atom_site_fract_x
_atom_site_fract_y
_atom_site_fract_z
O1	O	1.057683	0.198159	-0.072025
O2	O	0.829244	0.195941	-0.072050
O3	O	0.940034	0.058806	-0.072029
O4	O	0.946893	0.335294	-0.072046
O5	O	0.933696	0.066614	0.072232
O6	O	0.822906	0.203749	0.072211
O7	O	1.051345	0.205967	0.072236
Cu8	Cu	0.936547	0.205571	0.085396
Cu9	Cu	0.944042	0.196337	-0.085210
O10	O	0.940555	0.343102	0.072215
C11	C	0.796663	0.196993	0.000077
C12	C	0.709024	0.188484	0.000068
C13	C	0.664526	0.270581	0.000063
C14	C	0.582179	0.262581	0.000076
C15	C	0.544332	0.172483	0.000086
C16	C	0.588836	0.090381	0.000093
C17	C	0.671181	0.098382	0.000087
C18	C	0.298414	0.139322	0.000112
C19	C	0.216063	0.131327	0.000115
C20	C	0.209411	0.303528	0.000100
C21	C	0.291759	0.311521	0.000088
C22	C	0.336255	0.229419	0.000099
N23	N	0.460161	0.164304	0.000096
N24	N	0.420425	0.237599	0.000096
C25	C	0.933863	0.027168	0.000101
C26	C	0.924909	-0.078736	0.000101
C27	C	0.908540	-0.272638	0.000087
C28	C	0.972046	-0.325460	0.000092
C29	C	0.962938	-0.433354	0.000084
C30	C	0.917647	-0.164734	0.000095
C31	C	1.083926	0.204915	0.000107
C32	C	1.171565	0.213424	0.000111
C33	C	0.946726	0.374740	0.000083
C34	C	0.955680	0.480644	0.000077
N35	N	0.931281	0.212065	0.205390
N36	N	0.949314	0.189836	-0.205204
C37	C	0.978368	0.153829	0.250793
C38	C	0.974393	0.158750	0.341600
C39	C	0.923335	0.221911	0.387003
C40	C	0.876243	0.280149	0.341594
C41	C	0.880214	0.275223	0.250788
C42	C	0.906193	0.243148	0.658581
C43	C	0.902227	0.248072	0.749393
C44	C	1.000377	0.126671	0.749394
C45	C	1.004347	0.121754	0.658586
C46	C	0.957251	0.179989	0.613185
N47	N	0.919273	0.226945	0.479822
N48	N	0.961310	0.174950	0.520367
H49	H	0.558015	0.017022	0.000114
C50	C	0.825852	-0.321004	0.000083
C51	C	0.752275	-0.259918	0.000085
C52	C	0.669588	-0.308297	0.000086
C53	C	0.660480	-0.417762	0.000085
C54	C	0.734060	-0.478854	0.000083
C55	C	0.816746	-0.430475	0.000082
H56	H	0.759016	-0.178880	0.000086
H57	H	0.615120	-0.263072	0.000087
H58	H	0.599270	-0.453575	0.000085
H59	H	0.727319	-0.559893	0.000082
H60	H	0.871215	-0.475700	0.000081
C61	C	1.060507	0.052274	0.608641
C62	C	1.112305	-0.011793	0.658574
C63	C	1.168467	-0.081270	0.608626
C64	C	1.172831	-0.086682	0.508743
C65	C	1.121031	-0.022613	0.458804
C66	C	1.064869	0.046865	0.508753
H67	H	1.109076	-0.007789	0.732518
H68	H	1.206813	-0.128698	0.645594
H69	H	1.214405	-0.138113	0.471768
H70	H	1.124260	-0.026617	0.384860
H71	H	1.026523	0.094292	0.471784
C72	C	1.054738	-0.277094	0.000110
C73	C	1.128311	-0.338187	0.000119
C74	C	1.210999	-0.289816	0.000139
C75	C	1.220116	-0.180351	0.000151
C76	C	1.146541	-0.119251	0.000142
C77	C	1.063852	-0.167622	0.000121
H78	H	1.121564	-0.419225	0.000110
H79	H	1.265464	-0.335046	0.000146
H80	H	1.281327	-0.144543	0.000166
H81	H	1.153288	-0.038213	0.000151
H82	H	1.009388	-0.122391	0.000115
H83	H	0.185251	0.057956	0.000123
C84	C	0.846055	0.317552	0.799334
C85	C	0.794252	0.381604	0.749391
C86	C	0.738085	0.451083	0.799330
C87	C	0.733720	0.456509	0.899213
C88	C	0.785525	0.392455	0.949161
C89	C	0.841692	0.322976	0.899222
H90	H	0.797482	0.377589	0.675447
H91	H	0.699736	0.498500	0.762355
H92	H	0.692142	0.507941	0.936181
H93	H	0.782295	0.396470	1.023105
H94	H	0.880041	0.275559	0.936198
H95	H	1.019948	0.102401	0.213833
H96	H	1.012735	0.111329	0.378567
C97	C	0.820077	0.349629	0.391531
C98	C	0.815746	0.355104	0.491414
C99	C	0.759580	0.424588	0.541349
C100	C	0.707746	0.488598	0.491401
C101	C	0.712076	0.483126	0.391513
C102	C	0.768241	0.413642	0.341578
H103	H	0.854118	0.307718	0.528393
H104	H	0.756376	0.428639	0.615293
H105	H	0.666170	0.540035	0.528366
H106	H	0.673704	0.530512	0.354534
H107	H	0.771446	0.409591	0.267634
H108	H	1.038719	0.079258	0.786368
H109	H	0.867847	0.290567	0.621622
H110	H	0.841869	0.322643	0.213822
H111	H	0.695334	0.343947	0.000054
H112	H	0.334634	0.072468	0.000121
C113	C	0.533235	0.352892	0.000066
C114	C	0.478988	0.367014	-0.074841
C115	C	0.430045	0.457331	-0.074850
C116	C	0.435351	0.533525	0.000048
C117	C	0.489600	0.519404	0.074960
C118	C	0.538542	0.429088	0.074970
H119	H	0.475058	0.310609	-0.130290
H120	H	0.389886	0.467784	-0.130306
H121	H	0.399121	0.600383	0.000041
H122	H	0.493529	0.575810	0.130409
H123	H	0.578701	0.418635	0.130425
C124	C	0.160463	0.393836	0.000097
C125	C	0.106215	0.407965	-0.074809
C126	C	0.057267	0.498277	-0.074807
C127	C	0.062566	0.574461	0.000099
C128	C	0.116816	0.560335	0.075010
C129	C	0.165765	0.470023	0.075009
H130	H	0.102290	0.351567	-0.130264
H131	H	0.017107	0.508734	-0.130262
H132	H	0.026332	0.641316	0.000100
H133	H	0.120741	0.616733	0.130465
H134	H	0.205924	0.459566	0.130463
H135	H	0.707411	0.031530	0.000090
H136	H	0.322568	0.384887	0.000070
