data_functionalizedCrystal
_audit_creation_method	'MofGen! by Chris Wilmer'
_symmetry_space_group_name_H-M	'P1'
_symmetry_Int_Tables_number	1
_symmetry_cell_setting	triclinic
loop_
_symmetry_equiv_pos_as_xyz
  x,y,z
_cell_length_a	14.044220
_cell_length_b	15.944493
_cell_length_c	12.503552
_cell_angle_alpha	86.475032
_cell_angle_beta	93.839891
_cell_angle_gamma	88.331960
loop_
_atom_site_label
_atom_site_type_symbol
_atom_site_fract_x
_atom_site_fract_y
_atom_site_fract_z
O1	O	1.263136	0.198069	0.089180
O2	O	0.987170	0.190760	0.089209
O3	O	1.132718	0.072703	0.089203
O4	O	1.117588	0.316127	0.089186
O5	O	1.121760	0.081589	-0.089439
O6	O	0.976211	0.199647	-0.089434
O7	O	1.252178	0.206956	-0.089462
Cu8	Cu	1.113194	0.204112	-0.105759
Cu9	Cu	1.126154	0.193603	0.105506
O10	O	1.106629	0.325013	-0.089456
C11	C	0.946377	0.192005	-0.000109
C12	C	0.841154	0.182463	-0.000097
C13	C	0.648494	0.165020	-0.000117
C14	C	0.590849	0.232692	-0.000126
C15	C	0.483646	0.222986	-0.000138
C16	C	0.755707	0.174724	-0.000106
C17	C	1.126621	0.045805	-0.000114
C18	C	1.124768	-0.047584	-0.000100
C19	C	1.210440	-0.276927	-0.000129
C20	C	1.169643	-0.335336	0.087955
C21	C	1.121332	-0.218561	-0.000113
C22	C	1.158817	-0.326553	-0.088172
C23	C	1.118020	-0.383718	-0.000130
C24	C	1.080564	-0.275744	0.088044
C25	C	1.069747	-0.266952	-0.088162
C26	C	1.028886	-0.325334	-0.000057
C27	C	1.123243	-0.123419	-0.000102
C28	C	1.116102	-0.478858	-0.000133
C29	C	1.292971	0.205711	-0.000142
C30	C	1.398195	0.215253	-0.000146
C31	C	1.112727	0.351911	-0.000137
C32	C	1.114580	0.445299	-0.000144
N33	N	1.104086	0.211504	-0.254351
C34	C	1.148664	0.175330	-0.526786
C35	C	1.090695	0.222377	-0.473460
C36	C	1.098147	0.216326	-0.351537
C37	C	1.141212	0.181380	-0.648721
N38	N	1.135270	0.186206	0.254098
H39	H	1.211842	-0.365168	0.162417
C40	C	1.223275	0.114784	-0.464772
C41	C	1.230715	0.108737	-0.341085
C42	C	1.305328	0.048195	-0.279056
C43	C	1.372501	-0.006300	-0.340715
C44	C	1.365063	-0.000255	-0.464409
C45	C	1.290450	0.060287	-0.526437
H46	H	1.180988	0.149079	-0.295436
H47	H	1.310834	0.043721	-0.187490
H48	H	1.427734	-0.051116	-0.294798
H49	H	1.414790	-0.040597	-0.510058
H50	H	1.284944	0.064762	-0.618004
H51	H	1.035470	0.267202	-0.519373
H52	H	0.617336	0.099800	-0.000119
H53	H	0.622009	0.297917	-0.000126
H54	H	1.047527	-0.253448	0.162592
H55	H	1.287200	-0.255555	-0.000048
C56	C	0.925122	-0.354011	0.000014
C57	C	0.863817	-0.333615	0.093267
C58	C	0.760056	-0.362295	0.093343
C59	C	0.717599	-0.411370	0.000166
C60	C	0.778905	-0.431769	-0.093095
C61	C	0.882666	-0.403090	-0.093171
H62	H	0.895245	-0.297284	0.162249
H63	H	0.714674	-0.347194	0.162381
H64	H	0.640789	-0.432601	0.000222
H65	H	0.747476	-0.468100	-0.162077
H66	H	0.928048	-0.418191	-0.162209
H67	H	1.027579	-0.237103	-0.162627
H68	H	1.191900	-0.348960	-0.162635
