data_functionalizedCrystal
_audit_creation_method	'MofGen! by Chris Wilmer'
_symmetry_space_group_name_H-M	'P1'
_symmetry_Int_Tables_number	1
_symmetry_cell_setting	triclinic
loop_
_symmetry_equiv_pos_as_xyz
  x,y,z
_cell_length_a	19.805407
_cell_length_b	13.897447
_cell_length_c	19.805399
_cell_angle_alpha	90.023747
_cell_angle_beta	90.019573
_cell_angle_gamma	90.019530
loop_
_atom_site_label
_atom_site_type_symbol
_atom_site_fract_x
_atom_site_fract_y
_atom_site_fract_z
Zn1	Zn	1.034768	-0.384037	0.382738
Zn2	Zn	1.034696	-0.545343	0.269557
Zn3	Zn	0.921583	-0.384064	0.269562
Zn4	Zn	0.921560	-0.545292	0.382704
O5	O	0.978152	-0.464684	0.326140
O6	O	1.129475	-0.405445	0.367736
O7	O	1.019671	-0.523982	0.174841
O8	O	0.936636	-0.249079	0.284592
O9	O	1.129423	-0.523956	0.284583
O10	O	1.019793	-0.249059	0.367741
O11	O	0.936567	-0.405490	0.174845
O12	O	0.826863	-0.405441	0.284559
O13	O	0.936597	-0.523869	0.477425
O14	O	0.826846	-0.523894	0.367683
O15	O	1.019771	-0.405395	0.477450
O16	O	1.019649	-0.680318	0.284550
O17	O	0.936528	-0.680280	0.367678
C18	C	0.802296	-0.464666	0.326118
C19	C	0.727064	-0.464681	0.326125
C20	C	0.691729	-0.526453	0.369338
C21	C	0.621040	-0.526454	0.369347
C22	C	0.585688	-0.464688	0.326140
C23	C	0.621028	-0.402910	0.282925
C24	C	0.691715	-0.402904	0.282920
C25	C	0.335955	-0.402931	0.282948
C26	C	0.265263	-0.402944	0.282955
C27	C	0.265280	-0.526481	0.369375
C28	C	0.335967	-0.526476	0.369370
C29	C	0.371301	-0.464694	0.326158
C30	C	0.447949	-0.464692	0.326149
C31	C	0.509041	-0.464695	0.326145
C32	C	0.978097	-0.715298	0.326125
C33	C	0.978135	-0.822512	0.326140
C34	C	0.978168	-0.909582	0.326156
C35	C	0.978215	-1.018815	0.326173
C36	C	1.154694	-0.464703	0.326163
C37	C	1.229926	-0.464711	0.326172
C38	C	0.978190	-0.464623	0.502683
C39	C	0.978206	-0.464597	0.577915
C40	C	0.978225	-0.213091	0.326171
C41	C	0.978257	-0.105877	0.326184
C42	C	0.978153	-0.464675	0.150284
C43	C	0.978268	-0.464429	0.075053
C44	C	1.021515	-0.402905	0.613273
C45	C	1.021522	-0.402877	0.683962
C46	C	0.978223	-0.464547	0.719291
C47	C	0.934908	-0.526242	0.683927
C48	C	0.934899	-0.526264	0.613240
C49	C	0.934947	-0.526152	0.969001
C50	C	0.934961	-0.526127	1.039693
C51	C	1.021570	-0.402765	1.039722
C52	C	1.021560	-0.402787	0.969035
C53	C	0.978244	-0.464478	0.933678
C54	C	0.978236	-0.464507	0.857030
C55	C	0.978234	-0.464524	0.795938
H56	H	0.720507	-0.576753	0.404520
C57	C	1.069188	-0.334947	0.930174
C58	C	1.069177	-0.334969	0.852421
C59	C	1.116803	-0.267122	0.813561
C60	C	1.164440	-0.199254	0.852454
C61	C	1.164453	-0.199230	0.930211
C62	C	1.116827	-0.267076	0.969071
H63	H	1.033912	-0.385211	0.823626
H64	H	1.116794	-0.267141	0.755999
H65	H	1.199696	-0.149030	0.823687
H66	H	1.199718	-0.148987	0.959006
H67	H	1.116837	-0.267057	1.026633
H68	H	0.899699	-0.576347	1.068456
H69	H	0.364715	-0.352632	0.247757
H70	H	0.899686	-0.576398	0.940222
H71	H	0.236502	-0.576783	0.404563
H72	H	0.592239	-0.352615	0.247748
C73	C	0.374853	-0.594416	0.416900
C74	C	0.335986	-0.662361	0.464439
C75	C	0.374871	-0.730299	0.511973
C76	C	0.452624	-0.730293	0.511968
C77	C	0.491496	-0.662346	0.464427
C78	C	0.452611	-0.594408	0.416894
H79	H	0.278424	-0.662367	0.464444
H80	H	0.346095	-0.780598	0.547165
H81	H	0.481410	-0.780585	0.547155
H82	H	0.549058	-0.662340	0.464422
H83	H	0.481387	-0.544109	0.381701
C84	C	0.226374	-0.334992	0.235428
C85	C	0.265238	-0.267031	0.187898
C86	C	0.226348	-0.199085	0.140372
C87	C	0.148595	-0.199100	0.140377
C88	C	0.109727	-0.267063	0.187909
C89	C	0.148616	-0.335009	0.235434
H90	H	0.322799	-0.267018	0.187892
H91	H	0.255122	-0.148774	0.105186
H92	H	0.119807	-0.148802	0.105196
H93	H	0.052166	-0.267076	0.187914
H94	H	0.119843	-0.385320	0.270621
H95	H	1.056777	-0.352690	0.584513
C96	C	0.887278	-0.594080	0.722787
C97	C	0.887289	-0.594064	0.800540
C98	C	0.839658	-0.661906	0.839398
C99	C	0.792017	-0.729765	0.800503
C100	C	0.792004	-0.729784	0.722745
C101	C	0.839634	-0.661942	0.683887
H102	H	0.922557	-0.543828	0.829337
H103	H	0.839668	-0.661892	0.896959
H104	H	0.756758	-0.779986	0.829268
H105	H	0.756735	-0.780020	0.693949
H106	H	0.839625	-0.661956	0.626326
H107	H	1.056838	-0.352530	1.068519
H108	H	0.899625	-0.576490	0.584453
H109	H	1.056791	-0.352644	0.712747
C110	C	0.730589	-0.334956	0.235385
C111	C	0.779209	-0.259278	0.264806
C112	C	0.818082	-0.191324	0.217273
C113	C	0.808334	-0.199049	0.140318
C114	C	0.759712	-0.274730	0.110892
C115	C	0.720839	-0.342684	0.158426
H116	H	0.786427	-0.253556	0.321776
H117	H	0.854076	-0.135299	0.239056
H118	H	0.837110	-0.148745	0.105131
H119	H	0.752494	-0.280452	0.053922
H120	H	0.684845	-0.398709	0.136643
H121	H	0.592273	-0.576756	0.404535
