data_functionalizedCrystal
_audit_creation_method	'MofGen! by Chris Wilmer'
_symmetry_space_group_name_H-M	'P1'
_symmetry_Int_Tables_number	1
_symmetry_cell_setting	triclinic
loop_
_symmetry_equiv_pos_as_xyz
  x,y,z
_cell_length_a	18.050591
_cell_length_b	12.759399
_cell_length_c	12.759393
_cell_angle_alpha	89.967969
_cell_angle_beta	89.972345
_cell_angle_gamma	90.011122
loop_
_atom_site_label
_atom_site_type_symbol
_atom_site_fract_x
_atom_site_fract_y
_atom_site_fract_z
Zn1	Zn	1.135410	-0.418316	-0.594236
Zn2	Zn	1.135334	-0.594035	-0.418555
Zn3	Zn	1.011214	-0.418358	-0.418547
Zn4	Zn	1.011205	-0.593941	-0.594168
O5	O	1.073291	-0.506162	-0.506377
O6	O	1.239324	-0.441647	-0.570963
O7	O	1.118841	-0.570788	-0.271533
O8	O	1.027724	-0.271331	-0.441878
O9	O	1.239269	-0.570747	-0.441891
O10	O	1.118970	-0.271300	-0.570956
O11	O	1.027651	-0.441719	-0.271527
O12	O	0.907288	-0.441628	-0.441812
O13	O	1.027709	-0.570587	-0.741198
O14	O	0.907282	-0.570628	-0.570840
O15	O	1.118961	-0.441556	-0.741248
O16	O	1.118833	-0.741043	-0.441825
O17	O	1.027636	-0.740974	-0.570848
C18	C	1.073245	-0.779130	-0.506353
C19	C	1.073294	-0.895906	-0.506378
C20	C	0.880339	-0.506123	-0.506319
C21	C	0.797793	-0.506132	-0.506319
C22	C	1.120834	-0.950769	-0.439272
C23	C	1.120882	-1.060493	-0.439307
C24	C	1.025842	-1.060482	-0.573557
C25	C	1.025799	-0.950760	-0.573526
C26	C	0.598324	-0.435900	-0.436315
C27	C	0.548918	-0.531731	-0.410465
C28	C	0.646662	-0.506164	-0.506366
C29	C	0.548987	-0.410366	-0.532213
C30	C	0.500677	-0.506186	-0.506410
C31	C	0.598343	-0.602045	-0.480466
C32	C	0.598417	-0.480615	-0.602259
C33	C	0.549033	-0.576512	-0.576446
C34	C	0.730761	-0.506149	-0.506338
C35	C	0.416581	-0.506211	-0.506438
C36	C	1.266996	-0.506202	-0.506436
C37	C	1.349542	-0.506219	-0.506461
C38	C	1.073343	-0.506056	-0.780410
C39	C	1.073365	-0.506011	-0.897187
C40	C	1.073357	-0.232129	-0.506424
C41	C	1.073385	-0.115352	-0.506444
C42	C	1.025899	-0.438792	-0.952046
C43	C	1.025916	-0.438760	-1.061770
C44	C	1.120871	-0.573167	-1.061767
C45	C	1.120850	-0.573204	-0.952045
C46	C	1.073282	-0.506192	-0.233409
C47	C	1.073404	-0.505942	-0.116633
H48	H	1.159508	-0.906110	-0.384598
O49	O	0.979726	-0.373615	-1.115102
C50	C	0.931765	-0.433399	-1.178553
H51	H	0.927155	-0.516156	-1.145467
H52	H	0.954735	-0.436994	-1.261720
C53	C	0.860236	-0.280413	-1.220852
C54	C	0.854569	-0.382054	-1.180209
H55	H	0.812618	-0.248740	-1.221878
H56	H	0.892549	-0.240134	-1.178107
H57	H	0.879380	-0.283423	-1.290153
H58	H	0.835434	-0.379042	-1.110904
H59	H	0.822250	-0.422332	-1.222943
O60	O	0.624027	-0.365075	-0.365496
C61	C	0.563690	-0.316070	-0.315266
H62	H	0.512822	-0.368763	-0.320573
H63	H	0.551533	-0.237998	-0.355197
C64	C	0.645396	-0.232106	-0.192772
C65	C	0.582920	-0.296829	-0.199282
H66	H	0.657258	-0.220232	-0.121229
H67	H	0.686046	-0.265118	-0.226615
H68	H	0.635256	-0.167053	-0.226054
H69	H	0.593064	-0.361884	-0.166013
H70	H	0.542272	-0.263827	-0.165431
H71	H	0.527177	-0.553357	-0.329389
O72	O	0.624217	-0.698661	-0.454264
C73	C	0.702323	-0.697478	-0.454541
H74	H	0.722767	-0.613740	-0.442992
H75	H	0.723504	-0.728767	-0.532679
C76	C	0.706302	-0.869885	-0.379079
C77	C	0.731412	-0.767037	-0.364885
H78	H	0.724247	-0.912796	-0.323779
H79	H	0.653681	-0.870685	-0.378895
H80	H	0.723955	-0.895945	-0.444197
H81	H	0.713751	-0.740975	-0.299774
H82	H	0.784032	-0.766235	-0.365055
O83	O	0.523402	-0.647629	-0.647022
C84	C	0.548703	-0.748468	-0.619419
H85	H	0.562449	-0.750361	-0.532245
H86	H	0.600474	-0.768029	-0.666729
C87	C	0.470951	-0.827312	-0.750185
C88	C	0.487829	-0.829640	-0.643114
H89	H	0.433404	-0.877384	-0.764805
H90	H	0.453908	-0.759375	-0.768785
H91	H	0.514099	-0.843609	-0.789597
H92	H	0.444684	-0.813329	-0.603705
H93	H	0.504864	-0.897576	-0.624508
O94	O	0.624346	-0.454602	-0.698922
C95	C	0.599228	-0.353493	-0.725860
H96	H	0.585322	-0.308082	-0.651492
H97	H	0.547592	-0.360191	-0.776834
C98	C	0.677409	-0.351117	-0.878225
C99	C	0.660334	-0.295339	-0.786885
H100	H	0.715100	-0.315246	-0.915872
H101	H	0.694329	-0.419238	-0.860079
H102	H	0.634373	-0.356695	-0.920691
H103	H	0.703367	-0.289774	-0.744414
H104	H	0.643422	-0.227216	-0.805025
O105	O	0.523210	-0.313628	-0.558158
C106	C	0.548309	-0.239799	-0.484053
H107	H	0.600288	-0.270873	-0.443964
H108	H	0.503292	-0.225995	-0.422902
C109	C	0.502477	-0.097657	-0.589101
C110	C	0.566324	-0.135819	-0.539869
H111	H	0.513587	-0.033515	-0.623529
H112	H	0.485565	-0.147396	-0.639025
H113	H	0.464969	-0.086162	-0.538133
H114	H	0.603827	-0.147325	-0.590839
H115	H	0.583243	-0.086078	-0.489955
O116	O	1.167079	-0.638279	-1.115106
C117	C	1.215061	-0.578454	-1.178620
H118	H	1.219664	-0.495721	-1.145572
H119	H	1.192116	-0.574800	-1.261770
C120	C	1.286598	-0.731416	-1.220908
C121	C	1.292256	-0.629803	-1.180312
H122	H	1.334215	-0.763092	-1.221957
H123	H	1.254270	-0.771723	-1.178121
H124	H	1.267475	-0.728356	-1.290196
H125	H	1.311370	-0.632865	-1.111021
H126	H	1.324589	-0.589498	-1.223088
O127	O	0.979698	-0.373499	-0.898918
C128	C	0.937819	-0.314148	-0.970872
H129	H	0.935256	-0.357155	-1.049076
H130	H	0.965034	-0.234355	-0.982566
C131	C	0.861920	-0.246188	-0.831984
C132	C	0.858767	-0.299014	-0.928032
H133	H	0.813158	-0.236847	-0.805557
H134	H	0.890136	-0.286170	-0.783505
H135	H	0.884602	-0.179699	-0.841742
H136	H	0.836094	-0.365505	-0.918270
H137	H	0.830545	-0.259042	-0.976508
H138	H	0.987086	-0.906087	-0.628176
O139	O	1.166980	-1.113934	-0.374125
C140	C	1.124786	-1.177534	-0.306208
H141	H	1.068477	-1.193973	-0.343136
H142	H	1.116681	-1.135379	-0.228286
C143	C	1.234864	-1.261554	-0.242038
C144	C	1.165708	-1.281752	-0.287398
H145	H	1.260107	-1.325839	-0.230430
H146	H	1.263292	-1.218703	-0.287792
H147	H	1.228101	-1.226422	-0.177108
H148	H	1.172472	-1.316871	-0.352332
H149	H	1.137281	-1.324612	-0.241654
O150	O	1.166925	-0.638650	-0.898864
C151	C	1.150660	-0.743350	-0.925626
H152	H	1.122130	-0.745495	-1.005285
H153	H	1.112454	-0.778745	-0.863856
C154	C	1.258085	-0.804374	-0.832856
C155	C	1.223049	-0.807009	-0.930699
H156	H	1.302737	-0.843644	-0.835981
H157	H	1.269042	-0.733836	-0.814822
H158	H	1.226239	-0.833868	-0.781392
H159	H	1.254891	-0.777504	-0.982159
H160	H	1.212099	-0.877544	-0.948742
H161	H	0.987172	-1.105157	-0.628225
