data_functionalizedCrystal
_audit_creation_method	'MofGen! by Chris Wilmer'
_symmetry_space_group_name_H-M	'P1'
_symmetry_Int_Tables_number	1
_symmetry_cell_setting	triclinic
loop_
_symmetry_equiv_pos_as_xyz
  x,y,z
_cell_length_a	19.188933
_cell_length_b	19.188928
_cell_length_c	13.448316
_cell_angle_alpha	90.009631
_cell_angle_beta	89.992918
_cell_angle_gamma	96.855309
loop_
_atom_site_label
_atom_site_type_symbol
_atom_site_fract_x
_atom_site_fract_y
_atom_site_fract_z
O1	O	0.926148	-0.087171	-0.082675
O2	O	1.259481	0.246162	0.250659
O3	O	1.592814	0.579496	0.583992
O4	O	0.722836	-0.098904	-0.082686
O5	O	1.056170	0.234429	0.250647
O6	O	1.389503	0.567763	0.583980
O7	O	0.830360	0.008618	-0.082655
O8	O	1.163693	0.341952	0.250678
O9	O	1.497027	0.675285	0.584012
O10	O	0.818624	-0.194693	-0.082706
O11	O	1.151957	0.138640	0.250627
O12	O	1.485291	0.471973	0.583961
O13	O	0.830342	0.008615	0.082729
O14	O	1.163675	0.341949	0.416062
O15	O	1.497009	0.675282	0.749395
O16	O	0.722818	-0.098907	0.082698
O17	O	1.056152	0.234427	0.416031
O18	O	1.389485	0.567760	0.749364
O19	O	0.926130	-0.087174	0.082709
O20	O	1.259463	0.246159	0.416042
O21	O	1.592796	0.579493	0.749376
Cu22	Cu	0.824472	-0.093041	0.097804
Cu23	Cu	1.157806	0.240293	0.431138
Cu24	Cu	1.491139	0.573626	0.764471
Cu25	Cu	0.824494	-0.093037	-0.097781
Cu26	Cu	1.157827	0.240296	0.235552
Cu27	Cu	1.491160	0.573629	0.568885
O28	O	0.818606	-0.194696	0.082678
O29	O	1.151939	0.138637	0.416011
O30	O	1.485273	0.471971	0.749345
C31	C	0.696816	-0.098525	0.000005
C32	C	1.030150	0.234808	0.333338
C33	C	1.363483	0.568142	0.666671
C34	C	0.619312	-0.097384	0.000001
C35	C	0.952645	0.235949	0.333335
C36	C	1.285979	0.569283	0.666668
C37	C	0.829971	0.034628	0.000041
C38	C	1.163304	0.367961	0.333375
C39	C	1.496638	0.701295	0.666708
C40	C	0.828831	0.112132	0.000054
C41	C	1.162164	0.445466	0.333387
C42	C	1.495498	0.778799	0.666721
C43	C	0.066066	-0.089237	-0.090137
C44	C	0.399400	0.244096	0.243197
C45	C	0.732733	0.577430	0.576530
C46	C	0.138891	-0.090305	-0.090141
C47	C	0.472224	0.243028	0.243193
C48	C	0.805557	0.576361	0.576526
C49	C	0.175298	-0.090844	0.000010
C50	C	0.508631	0.242489	0.333343
C51	C	0.841965	0.575822	0.666676
C52	C	0.138877	-0.090297	0.090171
C53	C	0.472210	0.243036	0.423504
C54	C	0.805544	0.576370	0.756837
C55	C	0.066055	-0.089222	0.090172
C56	C	0.399388	0.244112	0.423506
C57	C	0.732722	0.577445	0.756839
N58	N	0.284310	-0.132264	0.067102
N59	N	0.617643	0.201069	0.400436
N60	N	0.950977	0.534403	0.733769
N61	N	0.353488	-0.133287	0.067095
N62	N	0.686821	0.200047	0.400428
N63	N	1.020154	0.533380	0.733761
C64	C	0.394706	-0.094082	0.000010
C65	C	0.728040	0.239251	0.333344
C66	C	1.061373	0.572585	0.666677
N67	N	0.364133	-0.053825	-0.067081
N68	N	0.697466	0.279509	0.266252
N69	N	1.030800	0.612842	0.599586
N70	N	0.294949	-0.052805	-0.067076
N71	N	0.628282	0.280528	0.266257
N72	N	0.961615	0.613862	0.599590
C73	C	0.254261	-0.092010	0.000018
C74	C	0.587594	0.241324	0.333351
C75	C	0.920928	0.574657	0.666685
C76	C	0.510083	-0.095782	-0.090149
C77	C	0.843417	0.237551	0.243184
C78	C	1.176750	0.570884	0.576517
C79	C	0.582910	-0.096846	-0.090150
C80	C	0.916243	0.236487	0.243184
C81	C	1.249576	0.569820	0.576517
C82	C	0.582894	-0.096845	0.090164
C83	C	0.916227	0.236488	0.423498
C84	C	1.249560	0.569822	0.756831
C85	C	0.510070	-0.095774	0.090162
C86	C	0.843403	0.237559	0.423495
C87	C	1.176737	0.570893	0.756829
C88	C	0.473669	-0.095246	0.000002
C89	C	0.807002	0.238087	0.333336
C90	C	1.140335	0.571420	0.666669
C91	C	0.891922	0.157056	0.000065
C92	C	1.225256	0.490389	0.333398
C93	C	1.558589	0.823723	0.666731
C94	C	0.890851	0.229880	0.000053
C95	C	1.224185	0.563213	0.333386
C96	C	1.557518	0.896547	0.666720
C97	C	0.826685	0.257777	0.000050
C98	C	1.160019	0.591110	0.333384
C99	C	1.493352	0.924444	0.666717
C100	C	0.763586	0.212844	0.000034
C101	C	1.096919	0.546177	0.333367
C102	C	1.430253	0.879510	0.666701
C103	C	0.764659	0.140021	0.000036
C104	C	1.097992	0.473355	0.333369
C105	C	1.431325	0.806688	0.666703
N106	N	0.777633	0.365781	0.056337
N107	N	1.110966	0.699115	0.389670
N108	N	1.444300	1.032448	0.723004
N109	N	0.776618	0.434960	0.056337
N110	N	1.109951	0.768293	0.389671
N111	N	1.443285	1.101627	0.723004
C112	C	0.823449	0.477186	0.000043
C113	C	1.156782	0.810519	0.333376
C114	C	1.490116	1.143853	0.666709
N115	N	0.871344	0.447621	-0.056240
N116	N	1.204677	0.780954	0.277093
N117	N	1.538011	1.114288	0.610426
N118	N	0.872361	0.378436	-0.056236
N119	N	1.205694	0.711770	0.277097
N120	N	1.539028	1.045103	0.610430
C121	C	0.825515	0.336740	0.000048
C122	C	1.158848	0.670073	0.333381
C123	C	1.492182	1.003406	0.666714
C124	C	0.885383	0.601074	0.000039
C125	C	1.218717	0.934407	0.333372
C126	C	1.552050	1.267741	0.666706
C127	C	0.884310	0.673899	0.000021
C128	C	1.217643	1.007232	0.333354
C129	C	1.550976	1.340566	0.666688
C130	C	0.757043	0.656861	0.000012
C131	C	1.090376	0.990194	0.333345
C132	C	1.423709	1.323528	0.666679
C133	C	0.758118	0.584038	0.000020
C134	C	1.091451	0.917371	0.333353
C135	C	1.424785	1.250704	0.666687
C136	C	0.822290	0.556149	0.000038
C137	C	1.155624	0.889482	0.333372
C138	C	1.488957	1.222815	0.666705
C139	C	0.952150	-0.087553	0.000016
C140	C	1.285483	0.245781	0.333349
C141	C	1.618816	0.579114	0.666683
C142	C	1.029654	-0.088694	0.000013
C143	C	1.362987	0.244639	0.333346
C144	C	1.696321	0.577973	0.666679
C145	C	0.818997	0.779295	-0.000006
C146	C	1.152330	1.112628	0.333327
C147	C	1.485664	1.445961	0.666660
C148	C	0.820143	0.701791	0.000017
C149	C	1.153477	1.035124	0.333350
C150	C	1.486810	1.368458	0.666683
N151	N	0.824462	-0.093043	0.235368
N152	N	1.157796	0.240291	0.568702
N153	N	1.491129	0.573624	0.902035
N154	N	0.824509	-0.093030	-0.235346
N155	N	1.157842	0.240304	0.097988
N156	N	1.491176	0.573637	0.431321
C157	C	0.872127	-0.045438	0.712601
C158	C	1.205461	0.287895	1.045934
C159	C	1.538794	0.621228	1.379267
C160	C	0.872121	-0.045443	0.608497
C161	C	1.205455	0.287890	0.941831
C162	C	1.538788	0.621224	1.275164
C163	C	0.824494	-0.093036	0.556450
C164	C	1.157827	0.240297	0.889783
C165	C	1.491160	0.573630	1.223116
C166	C	0.776873	-0.140633	0.608511
C167	C	1.110206	0.192700	0.941844
C168	C	1.443540	0.526034	1.275177
C169	C	0.776883	-0.140631	0.712612
C170	C	1.110216	0.192702	1.045945
C171	C	1.443549	0.526036	1.379279
C172	C	0.776855	-0.140633	0.391531
C173	C	1.110188	0.192701	0.724864
C174	C	1.443522	0.526034	1.058197
C175	C	0.776844	-0.140634	0.287422
C176	C	1.110177	0.192699	0.620755
C177	C	1.443511	0.526033	0.954089
C178	C	0.872094	-0.045445	0.287416
C179	C	1.205427	0.287889	0.620749
C180	C	1.538760	0.621222	0.954083
C181	C	0.872103	-0.045443	0.391517
C182	C	1.205437	0.287891	0.724851
C183	C	1.538770	0.621224	1.058184
C184	C	0.824482	-0.093039	0.443571
C185	C	1.157815	0.240295	0.776904
C186	C	1.491148	0.573628	1.110238
H187	H	0.036433	-0.088805	-0.163552
H188	H	0.369767	0.244529	0.169782
H189	H	0.703100	0.577862	0.503115
H190	H	0.944176	0.134354	0.000076
H191	H	1.277510	0.467687	0.333409
H192	H	1.610843	0.801021	0.666743
H193	H	0.612536	-0.097281	0.163566
H194	H	0.945869	0.236052	0.496900
H195	H	1.279203	0.569386	0.830233
H196	H	0.480422	-0.095334	0.163571
H197	H	0.813755	0.237999	0.496905
H198	H	1.147089	0.571332	0.830238
H199	H	0.168543	-0.090752	-0.163553
H200	H	0.501876	0.242582	0.169780
H201	H	0.835210	0.575915	0.503113
Cl202	Cl	0.966055	0.566010	0.000067
Cl203	Cl	1.299389	0.899344	0.333401
Cl204	Cl	1.632722	1.232677	0.666734
H205	H	0.910896	-0.006691	0.566116
H206	H	1.244230	0.326642	0.899449
H207	H	1.577563	0.659976	1.232782
Cl208	Cl	0.628687	-0.097522	-0.203491
Cl209	Cl	0.962020	0.235811	0.129842
Cl210	Cl	1.295354	0.569145	0.463175
Cl211	Cl	0.020277	-0.088542	0.203512
Cl212	Cl	0.353610	0.244791	0.536846
Cl213	Cl	0.686943	0.578125	0.870179
Cl214	Cl	0.678799	0.527559	0.000011
Cl215	Cl	1.012132	0.860892	0.333345
Cl216	Cl	1.345465	1.194226	0.666678
H217	H	0.910882	-0.006685	0.433894
H218	H	1.244215	0.326648	0.767228
H219	H	1.577549	0.659981	1.100561
Cl220	Cl	0.717019	-0.200466	0.778050
Cl221	Cl	1.050353	0.132868	1.111383
Cl222	Cl	1.383686	0.466201	1.444717
Cl223	Cl	0.931958	0.014390	0.221974
Cl224	Cl	1.265292	0.347723	0.555307
Cl225	Cl	1.598625	0.681057	0.888640
H226	H	0.480444	-0.095350	-0.163563
H227	H	0.813778	0.237983	0.169771
H228	H	1.147111	0.571316	0.503104
Cl229	Cl	0.970172	0.286366	0.000065
Cl230	Cl	1.303505	0.619699	0.333399
Cl231	Cl	1.636839	0.953032	0.666732
Cl232	Cl	0.682920	0.247913	0.000023
Cl233	Cl	1.016254	0.581246	0.333356
Cl234	Cl	1.349587	0.914580	0.666690
Cl235	Cl	0.184645	-0.090971	0.203503
Cl236	Cl	0.517979	0.242362	0.536836
Cl237	Cl	0.851312	0.575695	0.870169
Cl238	Cl	0.716988	-0.200471	0.456966
Cl239	Cl	1.050321	0.132862	0.790299
Cl240	Cl	1.383654	0.466196	1.123632
Cl241	Cl	0.685337	0.083543	0.000023
Cl242	Cl	1.018671	0.416876	0.333357
Cl243	Cl	1.352004	0.750209	0.666690
Cl244	Cl	0.716968	-0.200470	0.221999
Cl245	Cl	1.050301	0.132863	0.555332
Cl246	Cl	1.383634	0.466196	0.888665
H247	H	0.935688	0.710476	0.000024
H248	H	1.269022	1.043809	0.333357
H249	H	1.602355	1.377142	0.666691
H250	H	0.704798	0.679574	0.000005
H251	H	1.038131	1.012907	0.333338
H252	H	1.371464	1.346240	0.666672
H253	H	0.910909	-0.006679	0.754971
H254	H	1.244242	0.326654	1.088304
H255	H	1.577575	0.659987	1.421638
Cl256	Cl	0.717000	-0.200469	0.543082
Cl257	Cl	1.050333	0.132864	0.876415
Cl258	Cl	1.383667	0.466197	1.209748
