data_functionalizedCrystal
_audit_creation_method	'MofGen! by Chris Wilmer'
_symmetry_space_group_name_H-M	'P1'
_symmetry_Int_Tables_number	1
_symmetry_cell_setting	triclinic
loop_
_symmetry_equiv_pos_as_xyz
  x,y,z
_cell_length_a	6.394984
_cell_length_b	11.026607
_cell_length_c	9.482900
_cell_angle_alpha	101.363848
_cell_angle_beta	99.608195
_cell_angle_gamma	82.459316
loop_
_atom_site_label
_atom_site_type_symbol
_atom_site_fract_x
_atom_site_fract_y
_atom_site_fract_z
O1	O	0.853986	-1.642127	-0.120890
O2	O	0.753811	-1.287290	-0.120892
O3	O	0.501730	-1.469748	-0.120887
O4	O	1.106068	-1.459669	-0.120895
O5	O	0.553196	-1.432691	0.120905
O6	O	0.805278	-1.250233	0.120899
O7	O	0.905453	-1.605069	0.120902
Cu8	Cu	0.860064	-1.424267	0.142978
Cu9	Cu	0.799200	-1.468092	-0.142968
O10	O	1.157534	-1.422611	0.120896
C11	C	0.761064	-1.223268	0.000003
C12	C	0.705973	-1.087712	0.000002
C13	C	1.448892	-1.449214	0.000013
C14	C	1.210369	-1.443140	0.000011
C15	C	0.898199	-1.669092	0.000003
C16	C	0.953288	-1.804649	-0.000005
N17	N	0.902876	-1.393452	0.344097
N18	N	0.756375	-1.498916	-0.344088
C19	C	0.858087	-1.016232	-0.000001
C20	C	0.801152	-0.876128	-0.000002
C21	C	0.811813	-1.458994	0.416298
C22	C	0.847452	-1.433365	0.583715
H23	H	1.030470	-1.058757	0.000005
O24	O	0.595461	-0.825395	-0.000259
C25	C	0.294852	-0.714032	-0.125480
C26	C	0.527776	-0.771460	-0.125386
H27	H	0.240072	-0.670388	-0.226618
H28	H	0.189053	-0.789606	-0.125573
H29	H	0.283045	-0.639505	-0.024244
H30	H	0.539788	-0.845973	-0.226604
H31	H	0.633467	-0.695814	-0.125217
H32	H	0.533585	-1.045192	-0.000033
O33	O	0.687037	-1.548445	0.342226
C34	C	0.338399	-1.621043	0.295323
C35	C	0.479436	-1.519633	0.379289
H36	H	0.170537	-1.597798	0.325280
H37	H	0.331701	-1.625728	0.173496
H38	H	0.408612	-1.714737	0.325108
H39	H	0.409331	-1.425886	0.349626
H40	H	0.486132	-1.515057	0.501095
O41	O	0.971659	-1.343616	0.657751
C42	C	1.025788	-1.126292	0.704589
C43	C	0.884916	-1.227801	0.620678
H44	H	0.955735	-1.032636	0.674623
H45	H	1.032314	-1.121472	0.826424
H46	H	1.193714	-1.149644	0.674763
H47	H	0.716923	-1.204522	0.650381
H48	H	0.878571	-1.232599	0.498863
H49	H	1.125683	-0.847166	0.000002
O50	O	0.631401	-1.588339	0.582029
C51	C	0.282588	-1.660663	0.535716
C52	C	0.423969	-1.559313	0.619354
H53	H	0.114862	-1.637245	0.565885
H54	H	0.275582	-1.665494	0.413838
H55	H	0.352718	-1.754342	0.565582
H56	H	0.353947	-1.465581	0.589609
H57	H	0.430972	-1.554592	0.741211
O58	O	1.027076	-1.303709	0.418139
C59	C	1.081205	-1.086384	0.464977
C60	C	0.940334	-1.187894	0.381065
H61	H	1.011153	-0.992729	0.435011
H62	H	1.087731	-1.081565	0.586812
H63	H	1.249131	-1.109737	0.435151
H64	H	0.772340	-1.164614	0.410769
H65	H	0.933988	-1.192691	0.259251
