data_functionalizedCrystal
_audit_creation_method	'MofGen! by Chris Wilmer'
_symmetry_space_group_name_H-M	'P1'
_symmetry_Int_Tables_number	1
_symmetry_cell_setting	triclinic
loop_
_symmetry_equiv_pos_as_xyz
  x,y,z
_cell_length_a	12.759401
_cell_length_b	17.640280
_cell_length_c	12.759393
_cell_angle_alpha	78.768143
_cell_angle_beta	89.982620
_cell_angle_gamma	78.801088
loop_
_atom_site_label
_atom_site_type_symbol
_atom_site_fract_x
_atom_site_fract_y
_atom_site_fract_z
Zn1	Zn	1.690805	-0.314619	-0.509515
Zn2	Zn	1.726234	-0.446816	-0.298344
Zn3	Zn	1.515121	-0.314661	-0.333844
Zn4	Zn	1.550610	-0.446755	-0.474002
O5	O	1.620692	-0.380713	-0.403926
O6	O	1.842528	-0.332163	-0.481509
O7	O	1.698204	-0.429329	-0.156021
O8	O	1.508747	-0.204048	-0.386866
O9	O	1.868557	-0.429288	-0.326362
O10	O	1.637821	-0.204017	-0.515931
O11	O	1.543101	-0.332235	-0.182102
O12	O	1.372806	-0.332175	-0.352430
O13	O	1.569232	-0.429184	-0.625746
O14	O	1.398879	-0.429224	-0.455404
O15	O	1.672233	-0.332104	-0.651837
O16	O	1.732616	-0.557415	-0.291927
O17	O	1.603586	-0.557370	-0.420982
C18	C	1.347721	-0.380698	-0.403916
C19	C	1.230948	-0.380711	-0.403931
C20	C	1.189712	-0.431325	-0.457417
C21	C	1.079990	-0.431335	-0.457426
C22	C	1.052751	-0.330114	-0.350455
C23	C	1.162469	-0.330101	-0.350453
C24	C	1.258190	-0.481935	-0.510896
C25	C	1.216955	-0.532554	-0.564385
C26	C	1.107234	-0.532564	-0.564393
C27	C	1.038748	-0.481955	-0.510913
C28	C	1.675825	-0.586072	-0.348772
C29	C	1.699507	-0.673925	-0.325211
C30	C	1.441214	-0.962885	-0.583294
C31	C	1.463469	-1.045436	-0.561122
C32	C	1.597911	-1.045418	-0.426873
C33	C	1.575671	-0.962864	-0.449037
C34	C	1.497320	-0.921604	-0.527248
C35	C	1.631777	-0.921584	-0.392991
C36	C	1.609535	-0.839038	-0.415150
C37	C	1.531186	-0.797772	-0.493355
C38	C	1.475078	-0.839058	-0.549407
C39	C	1.710122	-0.962846	-0.314775
C40	C	1.766229	-0.921565	-0.258729
C41	C	1.743992	-0.839018	-0.280893
C42	C	1.665643	-0.797752	-0.359098
C43	C	1.800100	-0.797732	-0.224841
C44	C	1.777858	-0.715185	-0.247000
C45	C	1.643400	-0.715206	-0.381257
C46	C	1.894730	-0.380728	-0.403937
C47	C	2.011508	-0.380734	-0.403942
C48	C	1.620739	-0.380632	-0.677981
C49	C	1.620759	-0.380598	-0.794767
C50	C	1.565373	-0.174552	-0.459320
C51	C	1.541800	-0.086698	-0.482925
C52	C	1.540023	-0.330032	-0.863218
C53	C	1.540048	-0.330008	-0.972949
C54	C	1.701556	-0.431119	-0.945767
C55	C	1.701525	-0.431146	-0.836038
C56	C	1.459256	-0.279483	-0.821948
C57	C	1.378514	-0.228912	-0.890400
C58	C	1.378540	-0.228889	-1.000131
C59	C	1.459307	-0.279436	-1.041409
C60	C	1.620691	-0.380736	-0.130953
C61	C	1.620815	-0.380548	-0.014227
H62	H	1.579607	-0.681610	-0.444952
H63	H	1.513070	-0.730558	-0.511388
H64	H	1.863885	-0.831338	-0.161155
O65	O	1.067357	-0.581804	-0.616367
C66	C	1.105953	-0.682168	-0.722518
C67	C	1.151253	-0.626453	-0.663682
H68	H	1.173757	-0.718270	-0.760806
H69	H	1.065699	-0.723512	-0.663141
H70	H	1.044841	-0.645923	-0.787230
H71	H	1.212404	-0.662635	-0.598973
H72	H	1.191440	-0.585108	-0.723125
H73	H	1.347533	-0.481934	-0.510892
H74	H	1.411284	-0.805463	-0.613102
H75	H	1.767279	-0.472311	-0.780305
O76	O	1.365034	-0.922715	-0.659154
C77	C	1.198056	-0.829631	-0.698165
C78	C	1.284257	-0.875057	-0.612157
H79	H	1.132716	-0.791101	-0.660196
H80	H	1.235767	-0.790880	-0.763524
H81	H	1.161835	-0.873332	-0.734441
H82	H	1.320510	-0.831413	-0.575798
H83	H	1.246489	-0.913819	-0.546864
O84	O	0.932190	-0.482064	-0.511027
C85	C	0.789660	-0.537528	-0.569875
C86	C	0.910359	-0.537510	-0.569791
H87	H	0.771968	-0.582339	-0.617399
H88	H	0.764132	-0.553896	-0.484129
H89	H	0.743510	-0.476310	-0.608220
H90	H	0.956594	-0.598708	-0.531495
H91	H	0.935804	-0.521096	-0.655557
H92	H	0.996981	-0.288912	-0.306913
O93	O	1.300158	-0.179849	-1.066767
C94	C	1.228643	-0.134974	-1.247861
C95	C	1.317463	-0.190566	-1.172516
H96	H	1.242616	-0.143606	-1.333378
H97	H	1.147624	-0.148857	-1.222629
H98	H	1.229975	-0.071253	-1.243357
H99	H	1.316231	-0.254304	-1.176982
H100	H	1.398441	-0.176614	-1.197771
O101	O	1.842321	-0.961771	-0.182812
C102	C	1.936100	-1.088928	-0.089094
C103	C	1.849922	-1.043497	-0.175122
H104	H	1.942257	-1.155012	-0.082833
H105	H	2.016465	-1.072709	-0.111961
H106	H	1.913322	-1.072688	-0.008739
H107	H	1.872599	-1.059713	-0.255508
H108	H	1.769581	-1.059720	-0.152164
H109	H	1.417786	-1.079044	-0.606780
H110	H	1.728232	-1.030060	-0.296739
O111	O	1.674003	-1.085623	-0.350955
C112	C	1.767782	-1.212781	-0.257238
C113	C	1.681604	-1.167349	-0.343265
H114	H	1.773939	-1.278864	-0.250977
H115	H	1.848147	-1.196562	-0.280104
H116	H	1.745003	-1.196541	-0.176882
H117	H	1.704281	-1.183565	-0.423652
H118	H	1.601263	-1.183572	-0.320307
O119	O	1.832487	-0.675203	-0.192492
C120	C	1.968141	-0.683887	-0.056935
C121	C	1.906377	-0.729265	-0.118612
H122	H	2.027880	-0.727576	0.002826
H123	H	2.012695	-0.645206	-0.115549
H124	H	1.909507	-0.645274	-0.012371
H125	H	1.964938	-0.767921	-0.163180
H126	H	1.861807	-0.767896	-0.059947
H127	H	1.459228	-0.279495	-0.732602
O128	O	1.300164	-0.179841	-0.850138
C129	C	1.228505	-0.135100	-0.693133
C130	C	1.317317	-0.190700	-0.738589
H131	H	1.242330	-0.143872	-0.602938
H132	H	1.229857	-0.071346	-0.731767
H133	H	1.147526	-0.148962	-0.711043
H134	H	1.398340	-0.176910	-0.720692
H135	H	1.315871	-0.254438	-0.699954
H136	H	1.196042	-0.288881	-0.306910
O137	O	1.779961	-0.480137	-0.986046
C138	C	1.851555	-0.524931	-1.143040
C139	C	1.762707	-0.469368	-1.097570
H140	H	1.837624	-0.516255	-1.233209
H141	H	1.932564	-0.511058	-1.125268
H142	H	1.850214	-0.588661	-1.104280
H143	H	1.763949	-0.405619	-1.136303
H144	H	1.681739	-0.483309	-1.115329
H145	H	1.459319	-0.279415	-1.130760
H146	H	1.272722	-0.573753	-0.607934
