data_functionalizedCrystal
_audit_creation_method	'MofGen! by Chris Wilmer'
_symmetry_space_group_name_H-M	'P1'
_symmetry_Int_Tables_number	1
_symmetry_cell_setting	triclinic
loop_
_symmetry_equiv_pos_as_xyz
  x,y,z
_cell_length_a	8.497365
_cell_length_b	19.805407
_cell_length_c	19.805405
_cell_angle_alpha	90.026410
_cell_angle_beta	90.057082
_cell_angle_gamma	90.035337
loop_
_atom_site_label
_atom_site_type_symbol
_atom_site_fract_x
_atom_site_fract_y
_atom_site_fract_z
Zn1	Zn	-0.892013	-1.034841	0.269293
Zn2	Zn	-0.628189	-1.034725	0.382537
Zn3	Zn	-0.628227	-0.921625	0.269367
Zn4	Zn	-0.891908	-0.921619	0.382446
O5	O	-0.760084	-0.978202	0.325911
O6	O	-0.857044	-1.129542	0.284322
O7	O	-0.407431	-1.019675	0.367593
O8	O	-0.663278	-0.936694	0.174640
O9	O	-0.663214	-1.129457	0.367522
O10	O	-0.857081	-1.019874	0.174586
O11	O	-0.407459	-0.936581	0.284448
O12	O	-0.663177	-0.826907	0.284360
O13	O	-1.112685	-0.936685	0.367367
O14	O	-0.856902	-0.826903	0.367438
O15	O	-1.112762	-1.019868	0.284234
O16	O	-0.663112	-1.019670	0.477241
O17	O	-0.856866	-0.936572	0.477174
C18	C	-0.760033	-0.802346	0.325898
C19	C	-0.760049	-0.727114	0.325908
C20	C	-0.760008	-0.978126	0.501767
C21	C	-0.760028	-0.978156	0.576999
C22	C	-0.760136	-1.154745	0.325924
C23	C	-0.760159	-1.229977	0.325930
C24	C	-0.350204	-0.978153	0.325984
C25	C	-0.171561	-0.978250	0.325845
C26	C	-0.760195	-0.978297	0.149368
C27	C	-0.760243	-0.978338	0.074136
C28	C	-0.860758	-0.691786	0.369233
C29	C	-0.860781	-0.621097	0.369234
C30	C	-0.760084	-0.585739	0.325914
C31	C	-0.659370	-0.621072	0.282585
C32	C	-0.659357	-0.691759	0.282581
C33	C	-0.659422	-0.335999	0.282600
C34	C	-0.659440	-0.265307	0.282609
C35	C	-0.860846	-0.265337	0.369253
C36	C	-0.860833	-0.336024	0.369249
C37	C	-0.760125	-0.371351	0.325918
C38	C	-0.760105	-0.448000	0.325916
C39	C	-0.760096	-0.509092	0.325918
C40	C	-0.659246	-1.021467	0.612355
C41	C	-0.659281	-1.021496	0.683043
C42	C	-0.760091	-0.978209	0.718374
C43	C	-0.860884	-0.934896	0.683013
C44	C	-0.860856	-0.934871	0.612326
C45	C	-0.861001	-0.934996	0.968086
C46	C	-0.861018	-0.935023	1.038778
C47	C	-0.659426	-1.021620	1.038804
C48	C	-0.659398	-1.021595	0.968117
C49	C	-0.760196	-0.978285	0.932761
C50	C	-0.760159	-0.978255	0.856113
C51	C	-0.760121	-0.978235	0.795021
H52	H	-0.942787	-0.592336	0.404513
H53	H	-0.577304	-1.056841	0.939353
C54	C	-0.549852	-1.068391	0.573877
C55	C	-0.571361	-1.059088	0.504404
C56	C	-0.470601	-1.102299	0.468940
H57	H	-0.572945	-1.113896	0.585332
H58	H	-0.443803	-1.058497	0.585485
H59	H	-0.677385	-1.068987	0.492801
H60	H	-0.548257	-1.013592	0.492929
H61	H	-0.364552	-1.092406	0.480547
H62	H	-0.493703	-1.147802	0.480400
H63	H	-0.485171	-1.095989	0.421799
C64	C	-0.549953	-1.068680	0.721283
C65	C	-0.584536	-1.135606	0.703929
C66	C	-0.483842	-1.179116	0.739108
H67	H	-0.564224	-1.062644	0.768464
H68	H	-0.443908	-1.058836	0.709727
H69	H	-0.690555	-1.145445	0.715490
H70	H	-0.570256	-1.141662	0.656754
H71	H	-0.377798	-1.169273	0.727551
H72	H	-0.498121	-1.173075	0.786286
H73	H	-0.507283	-1.224529	0.727333
C74	C	-0.549825	-1.068677	1.077069
C75	C	-0.461503	-1.106563	1.030997
C76	C	-0.360507	-1.149909	1.066219
H77	H	-0.610068	-1.098232	1.104591
H78	H	-0.480959	-1.042819	1.104686
H79	H	-0.530360	-1.132419	1.003391
H80	H	-0.401228	-1.077026	1.003473
H81	H	-0.291641	-1.124051	1.093836
H82	H	-0.420763	-1.179460	1.093740
H83	H	-0.300559	-1.175616	1.034965
H84	H	-0.943121	-0.899774	1.067542
H85	H	-0.943071	-0.899730	0.939305
C86	C	-0.970164	-0.887924	0.721492
C87	C	-0.948588	-0.897200	0.790965
C88	C	-1.049212	-0.853931	0.826430
H89	H	-1.076243	-0.897767	0.709929
H90	H	-0.946955	-0.842431	0.709993
H91	H	-0.971808	-0.942682	0.802459
H92	H	-0.842529	-0.887351	0.802547
H93	H	-1.026003	-0.808439	0.814932
H94	H	-1.155285	-0.863779	0.814863
H95	H	-1.034576	-0.860215	0.873571
C96	C	-0.970182	-0.730259	0.416157
C97	C	-1.071424	-0.770899	0.377866
C98	C	-1.172240	-0.806354	0.421069
H99	H	-1.030317	-0.699170	0.441974
H100	H	-0.909750	-0.757843	0.445616
H101	H	-1.131850	-0.743317	0.348419
H102	H	-1.011333	-0.802000	0.352051
H103	H	-1.111808	-0.833938	0.450528
H104	H	-1.232363	-0.775260	0.446884
H105	H	-1.240934	-0.833937	0.395096
C106	C	-0.970336	-0.374291	0.416307
C107	C	-1.058572	-0.328221	0.454237
C108	C	-1.159484	-0.363446	0.497586
H109	H	-0.910036	-0.401840	0.445836
H110	H	-1.039260	-0.401881	0.390451
H111	H	-0.989657	-0.300642	0.480092
H112	H	-1.118904	-0.300671	0.424727
H113	H	-1.228408	-0.391037	0.471730
H114	H	-1.099172	-0.390994	0.527110
H115	H	-1.219374	-0.332194	0.523322
C116	C	-0.970144	-0.226858	0.416220
C117	C	-0.948646	-0.157385	0.406941
C118	C	-1.049312	-0.121920	0.450190
H119	H	-0.946955	-0.238336	0.461716
H120	H	-1.076214	-0.238442	0.406346
H121	H	-0.842600	-0.145806	0.416820
H122	H	-0.971846	-0.145888	0.361455
H123	H	-1.155382	-0.133504	0.440316
H124	H	-1.026114	-0.133403	0.495682
H125	H	-1.034750	-0.074779	0.443895
C126	C	-0.549848	-0.227007	0.235607
C127	C	-0.393697	-0.244167	0.250273
C128	C	-0.292701	-0.208908	0.206988
H129	H	-0.564055	-0.179838	0.241773
H130	H	-0.573042	-0.238630	0.190127
H131	H	-0.370512	-0.232540	0.295743
H132	H	-0.379442	-0.291331	0.244104
H133	H	-0.315895	-0.220531	0.161507
H134	H	-0.306921	-0.161741	0.213156
H135	H	-0.186743	-0.220551	0.216928
H136	H	-0.942924	-0.899604	0.583539
H137	H	-0.577408	-0.364754	0.247322
H138	H	-0.577388	-0.592278	0.247310
C139	C	-0.549831	-0.729997	0.235521
C140	C	-0.461612	-0.683904	0.197598
C141	C	-0.360685	-0.719102	0.154244
H142	H	-0.610118	-0.757605	0.205989
H143	H	-0.480896	-0.757525	0.261374
H144	H	-0.530538	-0.656387	0.171747
H145	H	-0.401293	-0.656294	0.227112
H146	H	-0.291750	-0.746631	0.180097
H147	H	-0.420985	-0.746709	0.124717
H148	H	-0.300807	-0.687833	0.128513
