data_functionalizedCrystal
_audit_creation_method	'MofGen! by Chris Wilmer'
_symmetry_space_group_name_H-M	'P1'
_symmetry_Int_Tables_number	1
_symmetry_cell_setting	triclinic
loop_
_symmetry_equiv_pos_as_xyz
  x,y,z
_cell_length_a	13.339070
_cell_length_b	13.185408
_cell_length_c	9.130313
_cell_angle_alpha	89.998416
_cell_angle_beta	89.998552
_cell_angle_gamma	83.801397
loop_
_atom_site_label
_atom_site_type_symbol
_atom_site_fract_x
_atom_site_fract_y
_atom_site_fract_z
O1	O	1.204765	0.505092	-0.121852
O2	O	0.928287	0.438795	-0.121843
O3	O	1.113895	0.327528	-0.121838
O4	O	1.019157	0.616360	-0.121856
O5	O	1.113892	0.327531	0.121761
O6	O	0.928284	0.438799	0.121756
O7	O	1.204762	0.505096	0.121747
Cu8	Cu	1.066523	0.471948	0.143994
Cu9	Cu	1.066526	0.471944	-0.144090
O10	O	1.019154	0.616364	0.121742
C11	C	0.893645	0.427598	-0.000042
C12	C	0.790432	0.394217	-0.000039
C13	C	0.354975	0.653772	-0.000079
C14	C	0.451948	0.685138	-0.000086
C15	C	0.536573	0.612411	-0.000074
C16	C	0.524217	0.508311	-0.000055
C17	C	0.427234	0.476941	-0.000058
C18	C	0.608832	0.435580	-0.000054
C19	C	0.596476	0.331481	-0.000035
C20	C	0.499502	0.300116	-0.000037
C21	C	0.414877	0.372844	-0.000050
C22	C	0.705815	0.466950	-0.000050
C23	C	0.778074	0.290120	-0.000030
C24	C	0.681101	0.258753	-0.000022
C25	C	1.123497	0.289807	-0.000040
C26	C	1.152104	0.177402	-0.000042
C27	C	1.253958	0.138351	-0.000042
C28	C	1.280839	0.032742	-0.000056
C29	C	1.205868	-0.033826	-0.000058
C30	C	1.104011	0.005225	-0.000047
C31	C	1.077128	0.110844	-0.000045
C32	C	1.029038	-0.061333	-0.000061
C33	C	0.927181	-0.022282	-0.000051
C34	C	0.900303	0.083327	-0.000047
C35	C	0.975274	0.149895	-0.000045
C36	C	1.055921	-0.166953	-0.000064
C37	C	0.879090	-0.194460	-0.000067
C38	C	0.852210	-0.088851	-0.000053
C39	C	1.239404	0.516293	-0.000057
C40	C	1.342617	0.549674	-0.000070
C41	C	1.009551	0.654084	-0.000060
C42	C	0.980945	0.766489	-0.000067
N43	N	1.066527	0.471952	0.346617
N44	N	1.066531	0.471933	-0.346713
C45	C	1.148724	0.422711	0.423271
C46	C	1.148725	0.422698	0.576608
C47	C	0.984327	0.521176	0.576623
C48	C	0.984324	0.521182	0.423289
C49	C	1.243640	0.365859	0.423263
C50	C	1.243641	0.365847	0.576600
H51	H	0.615531	0.637956	-0.000084
H52	H	1.241390	0.286181	0.624152
C53	C	0.465548	0.799638	-0.000079
C54	C	0.522291	0.845524	-0.126562
C55	C	0.535895	0.960030	-0.126542
C56	C	0.492756	1.028649	-0.000038
C57	C	0.436010	0.982764	0.126454
C58	C	0.422406	0.868258	0.126434
H59	H	0.554228	0.794727	-0.220216
H60	H	0.577902	0.993997	-0.220180
H61	H	0.502826	1.113413	-0.000023
H62	H	0.404073	1.033561	0.220108
H63	H	0.380399	0.834291	0.220073
C64	C	0.667500	0.144246	-0.000013
C65	C	0.610756	0.098375	0.126482
C66	C	0.597154	-0.016131	0.126492
C67	C	0.640295	-0.084766	0.000007
C68	C	0.697043	-0.038896	-0.126497
C69	C	0.710645	0.075610	-0.126507
H70	H	0.578817	0.149184	0.220122
H71	H	0.555145	-0.050086	0.220139
H72	H	0.630226	-0.169530	0.000014
H73	H	0.728982	-0.089704	-0.220138
H74	H	0.752654	0.109566	-0.220154
H75	H	0.846979	0.230898	-0.000026
H76	H	0.769277	-0.057040	-0.000045
C77	C	0.893903	0.575338	0.338963
C78	C	0.803517	0.629554	0.423295
C79	C	0.713093	0.683711	0.338967
C80	C	0.713055	0.683651	0.170305
C81	C	0.803444	0.629432	0.085963
C82	C	0.893868	0.575276	0.170292
H83	H	0.803543	0.629600	0.548157
H84	H	0.646181	0.723847	0.401403
H85	H	0.646117	0.723741	0.107880
H86	H	0.803418	0.629386	-0.038899
H87	H	0.960780	0.535140	0.107855
H88	H	1.138853	-0.198737	-0.000075
C89	C	1.251347	0.255175	0.367029
C90	C	1.343254	0.179560	0.407765
C91	C	1.350959	0.068879	0.351531
C92	C	1.266757	0.033813	0.254561
C93	C	1.174843	0.109430	0.213821
C94	C	1.167138	0.220111	0.270055
H95	H	1.405592	0.205516	0.479552
H96	H	1.419000	0.012902	0.381690
H97	H	1.272461	-0.048120	0.212933
H98	H	1.112506	0.083473	0.142033
H99	H	1.099097	0.276087	0.239895
H100	H	0.818043	-0.248660	-0.000072
H101	H	0.817364	0.115119	-0.000056
H102	H	0.917398	0.561256	0.639065
H103	H	0.286067	0.712975	-0.000101
H104	H	1.227760	-0.119817	-0.000070
H105	H	1.310812	0.404127	0.618213
C106	C	1.326255	0.425809	0.359000
C107	C	1.437932	0.393007	0.394380
C108	C	1.520544	0.452963	0.330118
C109	C	1.491479	0.545721	0.230475
C110	C	1.379797	0.578527	0.195090
C111	C	1.297185	0.518572	0.259352
H112	H	1.459452	0.324338	0.468146
H113	H	1.603218	0.428677	0.356313
H114	H	1.552633	0.590103	0.182904
H115	H	1.358276	0.647196	0.121324
H116	H	1.214511	0.542858	0.233157
H117	H	0.335910	0.347310	-0.000043
H118	H	0.715865	0.551708	-0.000060
H119	H	0.489447	0.215352	-0.000038
H120	H	1.314989	0.192559	-0.000021
H121	H	1.363771	0.000954	-0.000063
H122	H	0.953393	0.235892	-0.000029
