data_functionalizedCrystal
_audit_creation_method	'MofGen! by Chris Wilmer'
_symmetry_space_group_name_H-M	'P1'
_symmetry_Int_Tables_number	1
_symmetry_cell_setting	triclinic
loop_
_symmetry_equiv_pos_as_xyz
  x,y,z
_cell_length_a	21.295418
_cell_length_b	29.839131
_cell_length_c	21.295411
_cell_angle_alpha	90.020364
_cell_angle_beta	90.043738
_cell_angle_gamma	90.057233
loop_
_atom_site_label
_atom_site_type_symbol
_atom_site_fract_x
_atom_site_fract_y
_atom_site_fract_z
Zn1	Zn	0.962308	-0.178715	0.356239
Zn2	Zn	0.962190	-0.253830	0.250967
Zn3	Zn	0.857031	-0.178736	0.250949
Zn4	Zn	0.856981	-0.253839	0.356163
O5	O	0.909628	-0.216280	0.303580
O6	O	1.050382	-0.188667	0.342314
O7	O	0.948213	-0.243874	0.162875
O8	O	0.871067	-0.115866	0.264940
O9	O	1.050295	-0.243854	0.264971
O10	O	0.948413	-0.115851	0.342296
O11	O	0.870953	-0.188703	0.162862
O12	O	0.768935	-0.188711	0.264867
O13	O	0.870981	-0.243869	0.444263
O14	O	0.768898	-0.243889	0.342167
O15	O	0.948364	-0.188675	0.444319
O16	O	0.948164	-0.316699	0.264897
O17	O	0.870866	-0.316705	0.342185
C18	C	0.746076	-0.216304	0.303507
C19	C	0.676108	-0.216325	0.303491
C20	C	0.643238	-0.245094	0.343681
C21	C	0.577496	-0.245083	0.343710
C22	C	0.544625	-0.216307	0.303536
C23	C	0.577503	-0.187532	0.263343
C24	C	0.643244	-0.187541	0.263321
N25	N	0.441350	-0.212791	0.248479
N26	N	0.378899	-0.212785	0.248502
C27	C	0.346551	-0.216279	0.303603
N28	N	0.379013	-0.219787	0.358681
N29	N	0.441470	-0.219795	0.358657
C30	C	0.473340	-0.216294	0.303557
C31	C	0.242396	-0.245037	0.343827
C32	C	0.176652	-0.245023	0.343857
C33	C	0.176660	-0.187475	0.263485
C34	C	0.242403	-0.187487	0.263461
C35	C	0.275266	-0.216271	0.303632
C36	C	0.909514	-0.333003	0.303548
C37	C	0.909523	-0.382937	0.303556
C38	C	0.949949	-0.692564	0.263395
C39	C	0.950027	-0.880238	0.263419
O40	O	0.984309	-0.904489	0.229249
N41	N	0.909758	-0.903722	0.303627
C42	C	0.869470	-0.880286	0.343835
O43	O	0.835225	-0.904567	0.378039
C44	C	0.869396	-0.692614	0.343813
C45	C	0.909663	-0.669131	0.303598
C46	C	0.990214	-0.669082	0.223184
C47	C	0.990192	-0.622167	0.223176
C48	C	0.949905	-0.598734	0.263379
C49	C	0.909641	-0.622216	0.303590
C50	C	0.829111	-0.669178	0.384023
C51	C	0.829097	-0.622257	0.384015
C52	C	0.869364	-0.598775	0.343800
C53	C	0.869332	-0.551867	0.343785
N54	N	0.909601	-0.528383	0.303577
C55	C	0.949887	-0.551816	0.263374
C56	C	0.869511	-0.978816	0.343842
C57	C	0.869528	-1.025734	0.343847
C58	C	0.950087	-1.025683	0.263432
C59	C	0.950065	-0.978764	0.263425
C60	C	0.909780	-0.955332	0.303634
C61	C	0.949837	-0.453290	0.263359
C62	C	0.949810	-0.406370	0.263353
C63	C	0.869254	-0.406426	0.343770
C64	C	0.869279	-0.453341	0.343774
C65	C	0.909576	-0.476772	0.303567
O66	O	0.835073	-0.527587	0.377942
O67	O	0.984137	-0.527526	0.229185
C68	C	0.949972	-0.739480	0.263403
C69	C	0.909707	-0.762962	0.303614
C70	C	0.869421	-0.739529	0.343817
C71	C	0.909725	-0.809880	0.303619
C72	C	0.950012	-0.833313	0.263416
C73	C	0.990281	-0.809829	0.223208
C74	C	0.990258	-0.762913	0.223200
C75	C	0.829152	-0.763014	0.384025
C76	C	0.829177	-0.809929	0.384029
C77	C	0.869463	-0.833362	0.343826
C78	C	1.073818	-0.216257	0.303653
C79	C	1.143786	-0.216247	0.303684
C80	C	0.909680	-0.216271	0.467770
C81	C	0.909702	-0.216267	0.537738
C82	C	0.909759	-0.099102	0.303625
C83	C	0.909815	-0.049167	0.303644
C84	C	0.909612	-0.216257	0.140028
C85	C	0.909712	-0.216135	0.070060
C86	C	0.949994	-0.187526	0.570635
C87	C	0.949993	-0.187507	0.636377
C88	C	0.909707	-0.216236	0.669221
C89	C	0.869407	-0.244978	0.636316
C90	C	0.869405	-0.244994	0.570575
N91	N	0.904840	-0.255537	0.772436
N92	N	0.904846	-0.255521	0.834887
C93	C	0.909711	-0.216190	0.867295
N94	N	0.914582	-0.176875	0.834893
N95	N	0.914580	-0.176891	0.772436
C96	C	0.909705	-0.216222	0.740506
C97	C	0.950004	-0.187426	0.971478
C98	C	0.949999	-0.187406	1.037221
C99	C	0.869416	-0.244882	1.037159
C100	C	0.869418	-0.244898	0.971417
C101	C	0.909716	-0.216171	0.938580
H102	H	0.670006	-0.164112	0.230593
H103	H	0.796381	-0.829044	0.416777
H104	H	0.269155	-0.268472	0.376540
O105	O	0.144693	-0.272907	0.382968
C106	C	0.070530	-0.279037	0.467945
C107	C	0.106695	-0.247407	0.423701
H108	H	0.039789	-0.258433	0.500880
H109	H	0.105287	-0.299602	0.496694
H110	H	0.039706	-0.302500	0.438980
H111	H	0.137520	-0.223917	0.452618
H112	H	0.071904	-0.226874	0.394950
O113	O	0.989074	-0.159455	0.939602
C114	C	1.019740	-0.083039	0.919531
C115	C	0.975445	-0.114664	0.955657
H116	H	1.008746	-0.046819	0.932509
H117	H	1.012817	-0.087952	0.866886
H118	H	1.070487	-0.090940	0.932488
H119	H	0.924682	-0.106783	0.942753
H120	H	0.982423	-0.109745	1.008294
H121	H	0.982855	-0.959647	0.230679
H122	H	0.982652	-0.472362	0.230620
O123	O	0.144758	-0.159463	0.224527
C124	C	0.124740	-0.083016	0.194138
C125	C	0.160907	-0.114687	0.238306
H126	H	0.137794	-0.046809	0.205253
H127	H	0.072101	-0.087918	0.201068
H128	H	0.137585	-0.090879	0.143358
H129	H	0.148115	-0.106844	0.289102
H130	H	0.213537	-0.109779	0.231321
O131	O	0.830365	-0.272935	0.668245
C132	C	0.821832	-0.333558	0.742485
C133	C	0.866123	-0.301932	0.706356
H134	H	0.850724	-0.357003	0.773317
H135	H	0.793044	-0.354136	0.707705
H136	H	0.788929	-0.312921	0.773215
H137	H	0.899063	-0.322534	0.675626
H138	H	0.894867	-0.281352	0.741170
O139	O	0.675191	-0.273096	0.382617
C140	C	0.749357	-0.333747	0.390916
C141	C	0.713196	-0.302073	0.346747
H142	H	0.780104	-0.357176	0.361932
H143	H	0.714598	-0.354340	0.419638
H144	H	0.780175	-0.313147	0.423885
H145	H	0.682378	-0.322638	0.313739
H146	H	0.747990	-0.281478	0.318068
O147	O	0.545491	-0.273055	0.382664
C148	C	0.471207	-0.333729	0.390992
C149	C	0.507397	-0.302072	0.346806
H150	H	0.440410	-0.357203	0.362018
H151	H	0.440456	-0.313161	0.423964
H152	H	0.506004	-0.354279	0.419712
H153	H	0.472646	-0.281515	0.318046
H154	H	0.538158	-0.322665	0.313876
O155	O	0.789934	-0.692003	0.423003
C156	C	0.704986	-0.745066	0.431405
C157	C	0.749304	-0.719238	0.387183
H158	H	0.672135	-0.767100	0.402463
H159	H	0.676150	-0.720273	0.460128
H160	H	0.733898	-0.766972	0.464371
H161	H	0.720441	-0.697332	0.354179
H162	H	0.778142	-0.744056	0.358504
H163	H	0.796346	-0.743938	0.416764
H164	H	0.269165	-0.164062	0.230731
H165	H	1.023048	-0.743797	0.190453
H166	H	0.836733	-1.044849	0.376588
H167	H	0.982600	-0.387253	0.230603
O168	O	0.545549	-0.159646	0.224248
C169	C	0.471219	-0.153506	0.139319
C170	C	0.507377	-0.185141	0.183546
H171	H	0.440338	-0.174106	0.106409
H172	H	0.505982	-0.132954	0.110542
H173	H	0.440537	-0.130032	0.168300
H174	H	0.538060	-0.208642	0.154613
H175	H	0.472581	-0.205662	0.212324
H176	H	0.836608	-0.268269	1.063899
H177	H	1.022982	-0.603050	0.190431
H178	H	0.982808	-0.163999	1.064005
H179	H	1.023023	-0.688157	0.190445
O180	O	0.830261	-0.272861	0.939554
C181	C	0.750305	-0.329845	0.946432
C182	C	0.794634	-0.298207	0.982594
H183	H	0.721479	-0.350338	0.981214
H184	H	0.779146	-0.353369	0.915690
H185	H	0.717440	-0.309222	0.915614
H186	H	0.827507	-0.318794	1.013445
H187	H	0.765754	-0.274681	1.013296
O188	O	0.830340	-0.956007	0.382813
C189	C	0.745292	-0.903139	0.391168
C190	C	0.789625	-0.928932	0.346967
H191	H	0.712353	-0.881249	0.362203
H192	H	0.774127	-0.881107	0.424112
H193	H	0.716544	-0.927996	0.419916
H194	H	0.818381	-0.904108	0.318178
H195	H	0.760753	-0.950971	0.314064
H196	H	0.982890	-1.044770	0.230698
O197	O	0.789904	-0.599565	0.423098
C198	C	0.710043	-0.604572	0.502897
C199	C	0.754384	-0.630325	0.458658
H200	H	0.681323	-0.629430	0.531668
H201	H	0.677085	-0.582658	0.473988
H202	H	0.738932	-0.582557	0.535816
H203	H	0.725546	-0.652364	0.425730
H204	H	0.787344	-0.652210	0.487606
O205	O	0.830142	-0.476085	0.382895
C206	C	0.750217	-0.471179	0.462633
C207	C	0.794511	-0.445370	0.418364
H208	H	0.721388	-0.446357	0.491313
H209	H	0.779086	-0.493090	0.495632
H210	H	0.717353	-0.493202	0.433690
H211	H	0.827383	-0.423323	0.447256
H212	H	0.765603	-0.423488	0.385363
O213	O	1.029411	-0.832665	0.184229
C214	C	1.065145	-0.904929	0.148625
C215	C	1.020799	-0.879120	0.192794
H216	H	1.058189	-0.942492	0.155525
H217	H	1.115902	-0.895681	0.159765
H218	H	1.054144	-0.895717	0.097848
H219	H	1.031743	-0.888318	0.243586
H220	H	0.970056	-0.888370	0.181600
O221	O	0.989153	-0.159576	0.538836
C222	C	1.069107	-0.102587	0.545839
C223	C	1.024783	-0.134211	0.581931
H224	H	1.097934	-0.082079	0.580665
H225	H	1.040262	-0.079076	0.515059
H226	H	1.101970	-0.123222	0.515065
H227	H	0.991911	-0.113613	0.612739
H228	H	1.053667	-0.157723	0.612671
H229	H	0.836451	-0.387339	0.376501
H230	H	0.982802	-0.164100	0.663167
H231	H	0.836591	-0.268397	0.543791
