data_functionalizedCrystal
_audit_creation_method	'MofGen! by Chris Wilmer'
_symmetry_space_group_name_H-M	'P1'
_symmetry_Int_Tables_number	1
_symmetry_cell_setting	triclinic
loop_
_symmetry_equiv_pos_as_xyz
  x,y,z
_cell_length_a	20.453700
_cell_length_b	17.982783
_cell_length_c	11.102300
_cell_angle_alpha	85.766160
_cell_angle_beta	108.605850
_cell_angle_gamma	77.551428
loop_
_atom_site_label
_atom_site_type_symbol
_atom_site_fract_x
_atom_site_fract_y
_atom_site_fract_z
V1	V	1.360127	-0.105412	0.396784
O2	O	1.357353	0.005066	0.388688
O3	O	1.342181	-0.209014	0.394592
O4	O	1.352547	-0.103790	0.569597
O5	O	1.346916	-0.100887	0.212472
V6	V	1.520463	-0.092197	0.374675
O7	O	1.449053	-0.134399	0.445281
O8	O	1.581603	-0.063211	0.326178
O9	O	1.464006	0.011405	0.376867
O10	O	1.562369	-0.202675	0.382771
O11	O	1.572807	-0.096723	0.558987
O12	O	1.453641	-0.093819	0.201862
V13	V	1.026794	-0.105412	0.396784
O14	O	1.024020	0.005066	0.388688
O15	O	1.008848	-0.209014	0.394592
O16	O	1.019214	-0.103790	0.569597
O17	O	1.013582	-0.100887	0.212472
V18	V	1.187130	-0.092197	0.374675
O19	O	1.115719	-0.134399	0.445281
O20	O	1.248270	-0.063211	0.326178
O21	O	1.130673	0.011405	0.376867
O22	O	1.229036	-0.202675	0.382771
O23	O	1.239473	-0.096723	0.558987
O24	O	1.120307	-0.093819	0.201862
V25	V	1.693460	-0.105412	0.396784
O26	O	1.690687	0.005066	0.388688
O27	O	1.675515	-0.209014	0.394592
O28	O	1.685880	-0.103790	0.569597
O29	O	1.680249	-0.100887	0.212472
V30	V	1.853796	-0.092197	0.374675
O31	O	1.782386	-0.134399	0.445281
O32	O	1.914937	-0.063211	0.326178
O33	O	1.797340	0.011405	0.376867
O34	O	1.895702	-0.202675	0.382771
O35	O	1.906140	-0.096723	0.558987
O36	O	1.786974	-0.093819	0.201862
C37	C	1.289797	-0.234270	0.388468
C38	C	1.302277	-0.318966	0.387828
C39	C	1.289155	-0.347876	0.271088
C40	C	1.300888	-0.427458	0.270491
C41	C	1.325738	-0.478128	0.386635
C42	C	1.338863	-0.449213	0.503384
C43	C	1.327135	-0.369633	0.503980
C44	C	1.386163	-0.770151	0.500982
C45	C	1.397888	-0.849736	0.500377
C46	C	1.359916	-0.827976	0.267494
C47	C	1.348187	-0.748396	0.268090
C48	C	1.361317	-0.719488	0.384838
C49	C	1.348596	-0.633197	0.385484
C50	C	1.338455	-0.564418	0.385990
C51	C	1.303019	-0.100046	0.611702
C52	C	1.323905	-0.099405	0.752981
C53	C	1.404171	0.036657	0.382988
C54	C	1.384771	0.121352	0.383636
C55	C	1.390949	-0.097566	0.159751
C56	C	1.363143	-0.098202	0.018471
C57	C	0.956464	-0.234270	0.388468
C58	C	0.968944	-0.318966	0.387828
C59	C	1.394679	-0.102910	0.825847
C60	C	1.414298	-0.102305	0.958593
C61	C	1.292363	-0.094696	0.945594
C62	C	1.272743	-0.095294	0.812849
C63	C	0.969686	-0.100046	0.611702
C64	C	0.990571	-0.099405	0.752981
C65	C	1.070838	0.036657	0.382988
C66	C	1.051438	0.121352	0.383636
C67	C	1.057615	-0.097566	0.159751
C68	C	1.029810	-0.098202	0.018471
C69	C	1.623131	-0.234270	0.388468
C70	C	1.635610	-0.318966	0.387828
C71	C	1.636353	-0.100046	0.611702
C72	C	1.657238	-0.099405	0.752981
C73	C	1.737504	0.036657	0.382988
C74	C	1.718104	0.121352	0.383636
C75	C	1.724282	-0.097566	0.159751
C76	C	1.696476	-0.098202	0.018471
C77	C	1.035767	-0.362625	0.393896
C78	C	1.047505	-0.442208	0.393315
C79	C	0.992419	-0.478130	0.386655
C80	C	0.925591	-0.434466	0.380589
C81	C	0.913855	-0.354885	0.381181
C82	C	1.099611	0.165011	0.377571
C83	C	1.081387	0.244594	0.378159
C84	C	1.014992	0.280515	0.384822
C85	C	0.966814	0.236851	0.390884
C86	C	0.985037	0.157271	0.390286
C87	C	1.702433	-0.362625	0.393896
C88	C	1.714172	-0.442208	0.393315
C89	C	1.659085	-0.478130	0.386655
C90	C	1.592258	-0.434466	0.380589
C91	C	1.580521	-0.354885	0.381181
C92	C	1.766277	0.165011	0.377571
C93	C	1.748053	0.244594	0.378159
C94	C	1.681658	0.280515	0.384822
C95	C	1.633481	0.236851	0.390884
C96	C	1.651703	0.157271	0.390286
C97	C	1.061345	-0.102910	0.825847
C98	C	1.080965	-0.102305	0.958593
C99	C	0.959029	-0.094696	0.945594
C100	C	0.939410	-0.095294	0.812849
C101	C	1.728012	-0.102910	0.825847
C102	C	1.747631	-0.102305	0.958593
C103	C	1.625696	-0.094696	0.945594
C104	C	1.606077	-0.095294	0.812849
H105	H	1.268914	-0.306625	0.176509
N106	N	0.895209	0.275605	0.398086
H107	H	0.890663	0.252666	0.479955
H108	H	0.856048	0.267463	0.321525
N109	N	1.532841	-0.473212	0.373372
H110	H	1.550420	-0.530249	0.373901
H111	H	1.491272	-0.450208	0.291494
H112	H	1.584045	-0.091350	0.994356
H113	H	1.103005	-0.106256	0.777106
N114	N	1.508443	-0.307793	0.374610
H115	H	1.513757	-0.281995	0.453754
H116	H	1.475366	-0.342673	0.370252
H117	H	0.881774	-0.092435	0.753518
H118	H	1.153677	0.135774	0.372147
N119	N	1.761853	-0.323888	0.401089
H120	H	1.777641	-0.332038	0.324589
H121	H	1.803406	-0.346850	0.483007
N122	N	1.133358	0.291676	0.371642
H123	H	1.178186	0.256838	0.367351
H124	H	1.145609	0.317461	0.450807
N125	N	1.341277	-0.338450	0.629893
H126	H	1.330077	-0.280348	0.612648
H127	H	1.393072	-0.359747	0.684969
H128	H	1.769672	-0.106256	0.777106
H129	H	1.548441	-0.092435	0.753518
H130	H	0.917379	-0.091350	0.994356
N131	N	1.786251	-0.489294	0.399854
H132	H	1.819360	-0.454455	0.404148
H133	H	1.780864	-0.515086	0.320698
N134	N	1.671749	-0.563965	0.386017
H135	H	1.722442	-0.586166	0.390869
H136	H	1.637695	-0.574155	0.304181
N137	N	1.823964	-0.106076	1.037183
H138	H	1.853394	-0.108768	0.979109
H139	H	1.843729	-0.153439	1.105130
N140	N	0.995342	0.366348	0.385479
H141	H	0.996126	0.394438	0.303944
H142	H	1.030784	0.379561	0.462370
H143	H	1.471927	-0.105158	1.017915
N144	N	1.237184	-0.090263	1.010167
H145	H	1.260352	-0.090418	1.105319
H146	H	1.216097	-0.136156	0.996703
N147	N	1.424711	-0.904389	0.625656
H148	H	1.430147	-0.959189	0.607558
H149	H	1.389507	-0.892598	0.672306
H150	H	1.820343	0.135774	0.372147
H151	H	1.290203	-0.450992	0.175430
N152	N	1.157302	-0.106089	1.037172
H153	H	1.177126	-0.153457	1.105120
H154	H	1.159143	-0.058527	1.079867
H155	H	0.945807	0.121729	0.395237
N156	N	1.800028	0.291673	0.371643
H157	H	1.812336	0.317465	0.450796
H158	H	1.777673	0.332220	0.292373
H159	H	1.327949	-0.707143	0.173513
H160	H	1.359102	-0.490476	0.597950
N161	N	1.345798	-0.859157	0.141571
H162	H	1.357014	-0.917260	0.158811
H163	H	1.376929	-0.843117	0.095206
N164	N	1.449850	-0.107335	0.761260
H165	H	1.488885	-0.156341	0.799781
H166	H	1.470895	-0.061409	0.774635
N167	N	1.400318	-0.738977	0.626897
H168	H	1.417836	-0.783154	0.700379
H169	H	1.354824	-0.703795	0.627889
N170	N	1.561872	0.275600	0.398076
H171	H	1.557648	0.332637	0.397541
H172	H	1.557369	0.252602	0.479944
H173	H	0.880743	-0.463726	0.375167
H174	H	1.215107	-0.092435	0.753518
H175	H	1.101923	-0.477749	0.398251
N176	N	1.095188	-0.323891	0.401081
H177	H	1.139298	-0.363635	0.404844
H178	H	1.105884	-0.298440	0.480796
H179	H	1.001985	-0.542931	0.386175
H180	H	0.859438	-0.319343	0.376232
N181	N	1.599742	0.110185	0.396834
H182	H	1.554920	0.145023	0.401148
H183	H	1.622127	0.069602	0.476055
H184	H	1.666829	0.345316	0.385306
