data_functionalizedCrystal
_audit_creation_method	'MofGen! by Chris Wilmer'
_symmetry_space_group_name_H-M	'P1'
_symmetry_Int_Tables_number	1
_symmetry_cell_setting	triclinic
loop_
_symmetry_equiv_pos_as_xyz
  x,y,z
_cell_length_a	13.897449
_cell_length_b	29.839131
_cell_length_c	13.897441
_cell_angle_alpha	90.042797
_cell_angle_beta	90.020733
_cell_angle_gamma	90.036508
loop_
_atom_site_label
_atom_site_type_symbol
_atom_site_fract_x
_atom_site_fract_y
_atom_site_fract_z
Zn1	Zn	1.474585	-0.178824	0.545299
Zn2	Zn	1.974585	0.321176	1.045299
Zn3	Zn	1.474430	-0.253959	0.383966
Zn4	Zn	1.974430	0.246041	0.883966
Zn5	Zn	1.313274	-0.178845	0.384018
Zn6	Zn	1.813274	0.321155	0.884018
Zn7	Zn	1.313207	-0.253929	0.545219
Zn8	Zn	1.813207	0.246071	1.045219
O9	O	1.393874	-0.216389	0.464626
O10	O	1.893874	0.283611	0.964626
O11	O	1.609546	-0.188794	0.523910
O12	O	2.109546	0.311206	1.023910
O13	O	1.453015	-0.244016	0.248992
O14	O	1.953015	0.255984	0.748992
O15	O	1.334766	-0.115975	0.405467
O16	O	1.834766	0.384025	0.905467
O17	O	1.609432	-0.243995	0.405380
O18	O	2.109432	0.256005	0.905380
O19	O	1.453280	-0.115959	0.523960
O20	O	1.953280	0.384041	1.023960
O21	O	1.334615	-0.188830	0.249029
O22	O	1.834615	0.311170	0.749029
O23	O	1.178284	-0.188802	0.405389
O24	O	1.678284	0.311198	0.905389
O25	O	1.334650	-0.243945	0.680211
O26	O	1.834650	0.256055	1.180211
O27	O	1.178234	-0.243966	0.523823
O28	O	1.678234	0.256034	1.023823
O29	O	1.453215	-0.188765	0.680270
O30	O	1.953215	0.311235	1.180270
O31	O	1.452950	-0.316822	0.405302
O32	O	1.952950	0.183178	0.905302
O33	O	1.334500	-0.316800	0.523773
O34	O	1.834500	0.183200	1.023773
C35	C	1.143260	-0.216383	0.464604
C36	C	1.643260	0.283617	0.964604
C37	C	1.036046	-0.216391	0.464617
C38	C	1.536046	0.283609	0.964617
C39	C	0.839750	-0.216393	0.464642
C40	C	1.339750	0.283607	0.964642
C41	C	0.948983	-0.216391	0.464626
C42	C	1.448983	0.283609	0.964626
C43	C	1.393727	-0.333112	0.464544
C44	C	1.893727	0.166888	0.964544
C45	C	1.393752	-0.383046	0.464542
C46	C	1.893752	0.116954	0.964542
C47	C	1.455571	-0.692646	0.526413
C48	C	1.955571	-0.192646	1.026413
C49	C	1.455676	-0.880319	0.526471
C50	C	1.955676	-0.380319	1.026471
O51	O	1.508092	-0.904548	0.579015
O52	O	2.008092	-0.404548	1.079015
N53	N	1.394038	-0.903831	0.464733
N54	N	1.894038	-0.403831	0.964733
C55	C	1.332365	-0.880422	0.402980
C56	C	1.832365	-0.380422	0.902980
O57	O	1.279933	-0.904726	0.350476
O58	O	1.779933	-0.404726	0.850476
C59	C	1.332256	-0.692750	0.402928
C60	C	1.832256	-0.192750	0.902928
C61	C	1.393905	-0.669240	0.464663
C62	C	1.893905	-0.169240	0.964663
C63	C	1.517214	-0.669137	0.588144
C64	C	2.017214	-0.169137	1.088144
C65	C	1.517191	-0.622222	0.588125
C66	C	2.017191	-0.122222	1.088125
C67	C	1.455525	-0.598816	0.526375
C68	C	1.955525	-0.098816	1.026375
C69	C	1.393882	-0.622325	0.464644
C70	C	1.893882	-0.122325	0.964644
C71	C	1.270579	-0.669341	0.341181
C72	C	1.770579	-0.169341	0.841181
C73	C	1.270555	-0.622420	0.341175
C74	C	1.770555	-0.122420	0.841175
C75	C	1.332204	-0.598911	0.402910
C76	C	1.832204	-0.098911	0.902910
C77	C	1.332192	-0.552003	0.402876
C78	C	1.832192	-0.052003	0.902876
N79	N	1.393830	-0.528492	0.464614
N80	N	1.893830	-0.028492	0.964614
C81	C	1.455496	-0.551898	0.526364
C82	C	1.955496	-0.051898	1.026364
C83	C	1.332428	-0.978952	0.403011
C84	C	1.832428	-0.478952	0.903011
C85	C	1.332456	-1.025870	0.403022
C86	C	1.832456	-0.525870	0.903022
C87	C	1.455766	-1.025765	0.526515
C88	C	1.955766	-0.525765	1.026515
C89	C	1.455742	-0.978846	0.526497
C90	C	1.955742	-0.478846	1.026497
C91	C	1.394065	-0.955441	0.464749
C92	C	1.894065	-0.455441	0.964749
C93	C	1.455444	-0.453372	0.526319
C94	C	1.955444	0.046628	1.026319
C95	C	1.455418	-0.406452	0.526292
C96	C	1.955418	0.093548	1.026292
C97	C	1.332105	-0.406562	0.402804
C98	C	1.832105	0.093438	0.902804
C99	C	1.332134	-0.453477	0.402827
C100	C	1.832134	0.046523	0.902827
C101	C	1.393807	-0.476881	0.464592
C102	C	1.893807	0.023119	0.964592
O103	O	1.279796	-0.527746	0.350366
O104	O	1.779796	-0.027746	0.850366
O105	O	1.507905	-0.527585	0.578874
O106	O	2.007905	-0.027585	1.078874
C107	C	1.455594	-0.739562	0.526432
C108	C	1.955594	-0.239562	1.026432
C109	C	1.393951	-0.763071	0.464701
C110	C	1.893951	-0.263071	0.964701
C111	C	1.332285	-0.739665	0.402951
C112	C	1.832285	-0.239665	0.902951
C113	C	1.393979	-0.809989	0.464712
C114	C	1.893979	-0.309989	0.964712
C115	C	1.455645	-0.833395	0.526462
C116	C	1.955645	-0.333395	1.026462
C117	C	1.517283	-0.809883	0.588200
C118	C	2.017283	-0.309883	1.088200
C119	C	1.517260	-0.762968	0.588181
C120	C	2.017260	-0.262968	1.088181
C121	C	1.270647	-0.763177	0.341213
C122	C	1.770647	-0.263177	0.841213
C123	C	1.270676	-0.810092	0.341236
C124	C	1.770676	-0.310092	0.841236
C125	C	1.332342	-0.833498	0.402986
C126	C	1.832342	-0.333498	0.902986
C127	C	1.645467	-0.216395	0.464648
C128	C	2.145467	0.283605	0.964648
C129	C	1.752681	-0.216398	0.464658
C130	C	2.252681	0.283602	0.964658
C131	C	1.393942	-0.216349	0.716219
C132	C	1.893942	0.283651	1.216219
C133	C	1.393971	-0.216332	0.823433
C134	C	1.893971	0.283668	1.323433
C135	C	1.394048	-0.099211	0.464728
C136	C	1.894048	0.400789	0.964728
C137	C	1.394122	-0.049276	0.464772
C138	C	1.894122	0.450724	0.964772
C139	C	1.393861	-0.216396	0.214011
C140	C	1.893861	0.283604	0.714011
C141	C	1.394019	-0.216287	0.106798
C142	C	1.894019	0.283713	0.606798
C143	C	1.393998	-0.216302	1.019728
C144	C	1.893998	0.283698	1.519728
C145	C	1.393980	-0.216320	0.910495
C146	C	1.893980	0.283680	1.410495
H147	H	1.505623	-0.387312	0.576564
H148	H	2.005623	0.112688	1.076564
C149	C	1.585065	-0.737114	0.656100
C150	C	2.085065	-0.237114	1.156100
H151	H	1.621782	-0.757779	0.692880
H152	H	2.121782	-0.257779	1.192880
H153	H	1.627109	-0.718807	0.619246
H154	H	2.127109	-0.218807	1.119246
H155	H	1.548127	-0.718811	0.698096
H156	H	2.048127	-0.218811	1.198096
C157	C	1.585117	-0.835634	0.656124
C158	C	2.085117	-0.335634	1.156124
H159	H	1.621835	-0.814916	0.692889
H160	H	2.121835	-0.314916	1.192889
H161	H	1.548201	-0.853935	0.698119
H162	H	2.048201	-0.353935	1.198119
H163	H	1.627175	-0.853934	0.619259
H164	H	2.127175	-0.353934	1.119259
C165	C	1.523290	-0.479110	0.594250
C166	C	2.023290	0.020890	1.094250
H167	H	1.560002	-0.458383	0.631000
H168	H	2.060002	0.041617	1.131000
H169	H	1.486392	-0.497411	0.636260
H170	H	1.986392	0.002589	1.136260
H171	H	1.565353	-0.497408	0.557388
H172	H	2.065353	0.002592	1.057388
C173	C	1.264325	-0.479339	0.334918
C174	C	1.764325	0.020661	0.834918
H175	H	1.227593	-0.458677	0.298144
H176	H	1.727593	0.041323	0.798144
H177	H	1.301246	-0.497648	0.292931
H178	H	1.801246	0.002352	0.792931
H179	H	1.222280	-0.497638	0.371798
H180	H	1.722280	0.002362	0.871798
C181	C	1.202855	-0.835947	0.273324
C182	C	1.702855	-0.335947	0.773324
H183	H	1.166122	-0.815284	0.236556
H184	H	1.666122	-0.315284	0.736556
H185	H	1.239772	-0.854256	0.231331
H186	H	1.739772	-0.354256	0.731331
H187	H	1.160811	-0.854248	0.310203
H188	H	1.660811	-0.354248	0.810203
C189	C	1.202818	-0.737436	0.273277
C190	C	1.702818	-0.237436	0.773277
H191	H	1.166122	-0.758162	0.236510
H192	H	1.666122	-0.258162	0.736510
H193	H	1.160753	-0.719133	0.310117
H194	H	1.660753	-0.219133	0.810117
H195	H	1.239739	-0.719140	0.231269
H196	H	1.739739	-0.219140	0.731269
C197	C	1.523593	-1.051517	0.594442
C198	C	2.023593	-0.551517	1.094442
H199	H	1.514769	-1.082826	0.585607
H200	H	2.014769	-0.582826	1.085607
H201	H	1.588410	-1.043809	0.580395
H202	H	2.088410	-0.543809	1.080395
H203	H	1.509422	-1.043809	0.659240
H204	H	2.009422	-0.543809	1.159240
C205	C	1.585002	-0.596367	0.656038
C206	C	2.085002	-0.096367	1.156038
H207	H	1.621721	-0.617032	0.692816
H208	H	2.121721	-0.117032	1.192816
H209	H	1.627044	-0.578062	0.619177
H210	H	2.127044	-0.078062	1.119177
H211	H	1.548069	-0.578064	0.698036
H212	H	2.048069	-0.078064	1.198036
C213	C	1.523537	-0.952990	0.594422
C214	C	2.023537	-0.452990	1.094422
H215	H	1.560258	-0.973653	0.631203
H216	H	2.060258	-0.473653	1.131203
H217	H	1.565580	-0.934680	0.557573
H218	H	2.065580	-0.434680	1.057573
H219	H	1.486590	-0.934691	0.636417
H220	H	1.986590	-0.434691	1.136417
H221	H	1.220328	-0.603366	0.290893
H222	H	1.720328	-0.103366	0.790893
C223	C	1.264648	-1.051725	0.335108
C224	C	1.764648	-0.551725	0.835108
H225	H	1.227915	-1.031062	0.298341
H226	H	1.727915	-0.531062	0.798341
H227	H	1.301572	-1.070031	0.293114
H228	H	1.801572	-0.570031	0.793114
H229	H	1.222605	-1.070029	0.371980
H230	H	1.722605	-0.570029	0.871980
C231	C	1.264274	-0.380809	0.334888
C232	C	1.764274	0.119191	0.834888
H233	H	1.273086	-0.349500	0.343733
H234	H	1.773086	0.150500	0.843733
H235	H	1.278418	-0.388516	0.270089
H236	H	1.778418	0.111484	0.770089
H237	H	1.199458	-0.388518	0.348963
H238	H	1.699458	0.111482	0.848963
H239	H	1.282202	-0.959899	0.352725
H240	H	1.782202	-0.459899	0.852725
H241	H	1.220378	-0.688474	0.290909
H242	H	1.720378	-0.188474	0.790909
H243	H	1.567430	-0.688189	0.638434
H244	H	2.067430	-0.188189	1.138434
