data_functionalizedCrystal
_audit_creation_method	'MofGen! by Chris Wilmer'
_symmetry_space_group_name_H-M	'P1'
_symmetry_Int_Tables_number	1
_symmetry_cell_setting	triclinic
loop_
_symmetry_equiv_pos_as_xyz
  x,y,z
_cell_length_a	6.817900
_cell_length_b	11.102244
_cell_length_c	16.305550
_cell_angle_alpha	93.871173
_cell_angle_beta	103.455250
_cell_angle_gamma	108.604870
loop_
_atom_site_label
_atom_site_type_symbol
_atom_site_fract_x
_atom_site_fract_y
_atom_site_fract_z
V1	V	-4.052579	-0.176911	-0.263029
O2	O	-4.012740	0.007398	-0.258024
O3	O	-4.029754	-0.349723	-0.261228
O4	O	-4.003652	-0.174674	-0.377746
O5	O	-4.039022	-0.168863	-0.140700
V6	V	-4.532962	-0.154808	-0.248398
O7	O	-4.320727	-0.225395	-0.295124
O8	O	-4.715011	-0.106324	-0.216303
O9	O	-4.332581	0.018004	-0.250199
O10	O	-4.690198	-0.339117	-0.253403
O11	O	-4.663916	-0.162856	-0.370727
O12	O	-4.358682	-0.157045	-0.133681
C13	C	-3.880993	-0.391836	-0.257078
C14	C	-3.943614	-0.533115	-0.256370
C15	C	-3.930174	-0.581034	-0.178786
C16	C	-3.989025	-0.713783	-0.178131
C17	C	-4.074747	-0.750686	-0.332650
C18	C	-4.015911	-0.617939	-0.333305
C19	C	-3.857877	-0.496210	-0.101851
C20	C	-3.844431	-0.544127	-0.024261
C21	C	-3.903283	-0.676877	-0.023605
C22	C	-3.975580	-0.761709	-0.100540
C23	C	-3.847697	-0.168542	-0.405708
C24	C	-3.889147	-0.167856	-0.499489
C25	C	-4.039838	-0.165200	-0.840235
C26	C	-3.802616	-0.157314	-0.799306
C27	C	-3.759607	-0.158553	-0.701811
C28	C	-3.965077	-0.166517	-0.671187
C29	C	-4.150793	-0.292032	-0.721812
C30	C	-4.192551	-0.291322	-0.819361
C31	C	-4.077233	-0.048574	-0.794393
C32	C	-4.029156	-0.047580	-0.696550
C33	C	-3.922838	-0.167266	-0.575649
C34	C	-4.082087	-0.164460	-0.935774
C35	C	-4.144684	0.060110	-0.254347
C36	C	-4.061302	0.201388	-0.255060
C37	C	-4.177980	-0.163182	-0.105715
C38	C	-4.115768	-0.163861	-0.011932
H39	H	-4.133609	-0.819766	-0.395287
N40	N	-3.770568	-0.457461	0.054314
N41	N	-3.586601	-0.374256	0.074438
H42	H	-3.534434	-0.313047	0.129933
H43	H	-3.682981	-0.066643	-0.811671
H44	H	-4.305492	-0.302399	-0.702899
N45	N	-4.213722	-0.045691	-0.669812
N46	N	-4.380398	-0.050042	-0.723806
H47	H	-4.510791	-0.048744	-0.704937
H48	H	-4.249992	-0.053235	-0.821209
N49	N	-4.163699	-0.402086	-0.857467
N50	N	-4.112919	-0.479372	-0.811970
H51	H	-4.092537	-0.557602	-0.838877
N52	N	-3.797722	-0.360610	-0.102519
N53	N	-3.610746	-0.288113	-0.065071
H54	H	-3.568254	-0.192345	-0.065543
N55	N	-3.889571	-0.725806	0.055653
N56	N	-3.825029	-0.650053	0.124334
H57	H	-3.815336	-0.684604	0.180314
N58	N	-3.761711	-0.262429	-0.838843
N59	N	-3.906509	-0.343125	-0.897032
H60	H	-3.877628	-0.417366	-0.924957
H61	H	-3.705797	-0.243311	-0.685517
N62	N	-4.097732	-0.402813	-0.700712
N63	N	-3.923326	-0.389643	-0.648435
H64	H	-3.885838	-0.467879	-0.633533
H65	H	-4.368026	-0.302330	-0.847353
H66	H	-3.971676	0.046528	-0.807762
N67	N	-4.035719	-0.897308	-0.099858
N68	N	-4.023728	-0.940080	-0.030580
H69	H	-4.066194	-1.035845	-0.030095
H70	H	-4.026887	-0.578925	-0.396482
H71	H	-3.619677	-0.068308	-0.666789
N72	N	-3.859960	0.068878	-0.653421
N73	N	-3.692753	0.064399	-0.604173
H74	H	-3.573255	0.146646	-0.573704
