data_functionalizedCrystal
_audit_creation_method	'MofGen! by Chris Wilmer'
_symmetry_space_group_name_H-M	'P1'
_symmetry_Int_Tables_number	1
_symmetry_cell_setting	triclinic
loop_
_symmetry_equiv_pos_as_xyz
  x,y,z
_cell_length_a	19.077236
_cell_length_b	12.645329
_cell_length_c	19.076919
_cell_angle_alpha	87.725138
_cell_angle_beta	90.112677
_cell_angle_gamma	92.310890
loop_
_atom_site_label
_atom_site_type_symbol
_atom_site_fract_x
_atom_site_fract_y
_atom_site_fract_z
Zn1	Zn	1.058320	-0.384817	0.440556
Zn2	Zn	1.062972	-0.554705	0.323056
Zn3	Zn	0.945535	-0.384261	0.318336
Zn4	Zn	0.940793	-0.568847	0.435795
O5	O	1.001905	-0.473158	0.379436
O6	O	1.157270	-0.401667	0.428938
O7	O	1.051326	-0.525943	0.224099
O8	O	0.960534	-0.235986	0.334567
O9	O	1.160688	-0.526482	0.342611
O10	O	1.043396	-0.236395	0.424361
O11	O	0.965045	-0.400719	0.220632
O12	O	0.846573	-0.414433	0.329950
O13	O	0.952451	-0.550587	0.534758
O14	O	0.843088	-0.550048	0.416246
O15	O	1.038798	-0.415380	0.538256
O16	O	1.046727	-0.704929	0.337994
O17	O	0.956962	-0.715320	0.420822
C18	C	0.819334	-0.483716	0.372069
C19	C	0.741228	-0.488259	0.368934
C20	C	0.702753	-0.425521	0.412476
C21	C	0.629365	-0.429784	0.409525
C22	C	0.594453	-0.496792	0.363034
C23	C	0.632935	-0.559533	0.319488
C24	C	0.706322	-0.555263	0.322436
C25	C	0.375162	-0.516514	0.349386
C26	C	0.301769	-0.520781	0.346442
C27	C	0.298204	-0.391030	0.436478
C28	C	0.371593	-0.386771	0.439425
C29	C	0.410068	-0.449507	0.395876
N30	N	0.519439	-0.501154	0.360018
N31	N	0.485081	-0.445139	0.398890
C32	C	1.001853	-0.748589	0.379420
C33	C	1.001895	-0.866418	0.379439
C34	C	0.945399	-0.917881	0.431514
C35	C	0.945615	-1.040442	0.431758
C36	C	1.075281	-1.031144	0.402380
C37	C	1.074886	-0.908591	0.402736
C38	C	0.985791	-0.908132	0.304365
C39	C	0.984205	-1.030858	0.304721
C40	C	1.185189	-0.462559	0.386832
C41	C	1.263294	-0.458043	0.389984
C42	C	0.994576	-0.484623	0.562716
C43	C	0.991453	-0.489509	0.640819
C44	C	1.001975	-0.196650	0.379469
C45	C	1.002005	-0.078819	0.379482
C46	C	1.009246	-0.461658	0.196871
C47	C	1.012505	-0.456465	0.118774
C48	C	1.034940	-0.421413	0.679334
C49	C	1.031997	-0.426001	0.752720
C50	C	0.985570	-0.498690	0.787589
C51	C	0.942079	-0.566789	0.749068
C52	C	0.945019	-0.562196	0.675684
C53	C	0.971953	-0.519971	1.006869
C54	C	0.969018	-0.524561	1.080259
C55	C	1.058935	-0.383771	1.083905
C56	C	1.061874	-0.379188	1.010519
C57	C	1.018380	-0.447283	0.972005
N58	N	0.982562	-0.503383	0.862601
N59	N	1.021385	-0.442585	0.896994
H60	H	0.406479	-0.567599	0.313926
H61	H	1.072747	-0.362225	0.650949
C62	C	1.079837	-0.351091	0.795083
N63	N	1.115872	-0.294665	0.826991
C64	C	0.924106	-0.594875	0.964513
N65	N	0.888064	-0.651295	0.932607
C66	C	0.741148	-0.351805	0.463619
N67	N	0.770065	-0.296276	0.502139
H68	H	0.904275	-0.625970	0.777464
C69	C	0.917941	-0.604525	1.118613
N70	N	0.879472	-0.664752	1.147501
H71	H	1.022603	-1.056662	0.263629
H72	H	1.088863	-0.882403	0.457698
C73	C	0.897181	-0.637109	0.633317
N74	N	0.861147	-0.693534	0.601407
H75	H	1.099682	-0.320000	0.982134
C76	C	0.594530	-0.633241	0.268347
N77	N	0.565604	-0.688763	0.229829
H78	H	0.598040	-0.378698	0.444982
C79	C	1.106767	-0.308859	1.126276
N80	N	1.142792	-0.252427	1.158190
C81	C	0.409989	-0.313046	0.490562
N82	N	0.438910	-0.257515	0.529078
C83	C	0.871592	-0.881451	0.411893
N84	N	0.815998	-0.854001	0.397116
H85	H	0.266870	-0.339952	0.471932
C86	C	0.263369	-0.594499	0.295297
N87	N	0.234446	-0.650022	0.256778
H88	H	0.737648	-0.606351	0.286980
H89	H	0.955697	-0.889728	0.486762
C90	C	0.872089	-1.084468	0.411965
N91	N	0.816706	-1.117623	0.397061
C92	C	0.959792	-1.083661	0.506837
N93	N	0.970485	-1.116212	0.563387
C94	C	1.133502	-0.861958	0.353945
N95	N	1.177657	-0.826839	0.317204
C96	C	0.914998	-0.869122	0.276928
N97	N	0.861673	-0.839742	0.256270
H98	H	1.026972	-0.874246	0.265531
H99	H	1.118426	-1.055426	0.365760
H100	H	1.089593	-1.064200	0.456769
C101	C	0.911368	-1.073266	0.281464
N102	N	0.856504	-1.105210	0.263950
