data_functionalizedCrystal
_audit_creation_method	'MofGen! by Chris Wilmer'
_symmetry_space_group_name_H-M	'P1'
_symmetry_Int_Tables_number	1
_symmetry_cell_setting	triclinic
loop_
_symmetry_equiv_pos_as_xyz
  x,y,z
_cell_length_a	16.109301
_cell_length_b	23.532407
_cell_length_c	14.586319
_cell_angle_alpha	89.991566
_cell_angle_beta	89.999213
_cell_angle_gamma	83.155079
loop_
_atom_site_label
_atom_site_type_symbol
_atom_site_fract_x
_atom_site_fract_y
_atom_site_fract_z
O1	O	1.102555	0.073202	-0.076192
O2	O	0.860422	0.082312	-0.076208
O3	O	0.988790	-0.005148	-0.076183
O4	O	0.974187	0.160662	-0.076217
O5	O	0.988781	-0.005149	0.076298
O6	O	0.860413	0.082311	0.076273
O7	O	1.102546	0.073201	0.076289
Cu8	Cu	0.981479	0.077756	0.090204
Cu9	Cu	0.981489	0.077757	-0.090123
O10	O	0.974178	0.160660	0.076264
C11	C	0.829445	0.081942	0.000031
C12	C	0.737159	0.080836	0.000026
C13	C	0.514498	0.130160	0.000026
C14	C	0.427786	0.129116	0.000032
C15	C	0.448476	0.025348	0.000050
C16	C	0.535187	0.026393	0.000050
C17	C	0.568195	0.078801	0.000034
C18	C	0.394773	0.076712	0.000039
C19	C	0.300755	0.075580	0.000046
C20	C	0.662218	0.079933	0.000029
C21	C	0.988414	-0.026366	0.000060
C22	C	0.987296	-0.089587	0.000067
C23	C	1.056249	-0.488436	0.000021
C24	C	1.055210	-0.547840	0.000014
O25	O	1.119130	-0.584349	-0.000015
N26	N	0.978895	-0.570748	0.000010
C27	C	0.903614	-0.534248	0.000003
O28	O	0.838607	-0.559187	-0.000002
C29	C	0.904654	-0.474845	0.000004
C30	C	0.980973	-0.451941	0.000018
C31	C	1.132562	-0.465531	0.000034
C32	C	1.133601	-0.406131	0.000043
C33	C	1.058325	-0.369636	0.000039
C34	C	0.982012	-0.392541	0.000026
C35	C	0.829373	-0.438346	-0.000009
C36	C	0.830419	-0.378940	-0.000009
C37	C	0.906739	-0.356036	0.000004
C38	C	0.907774	-0.296645	0.000031
N39	N	0.984089	-0.273738	0.000035
C40	C	1.059365	-0.310233	0.000039
C41	C	0.901437	-0.658998	0.000001
C42	C	0.900396	-0.718400	0.000007
C43	C	1.051993	-0.731988	0.000016
C44	C	1.053032	-0.672585	0.000017
C45	C	0.977752	-0.636091	0.000005
C46	C	1.061539	-0.185488	0.000058
C47	C	1.062571	-0.126082	0.000071
C48	C	0.910975	-0.112499	0.000057
C49	C	0.909943	-0.171900	0.000049
C50	C	0.985232	-0.208394	0.000047
O51	O	0.843888	-0.260102	0.000057
O52	O	1.124361	-0.285285	0.000032
C53	C	1.133523	0.073570	0.000048
C54	C	1.225809	0.074677	0.000047
C55	C	0.974554	0.181878	0.000019
C56	C	0.975672	0.245100	0.000006
N57	N	0.981477	0.077754	0.217035
N58	N	0.981497	0.077754	-0.216954
C59	C	1.038338	0.039040	0.452053
C60	C	1.038340	0.039039	0.548034
C61	C	0.924631	0.116470	0.548021
C62	C	0.924625	0.116468	0.452042
C63	C	0.981483	0.077754	0.404060
C64	C	0.981491	0.077754	0.596021
C65	C	0.981494	0.077753	0.700088
C66	C	0.981480	0.077754	0.299986
H67	H	0.541371	0.172834	0.000019
C68	C	0.862095	0.159059	0.600802
C69	C	0.862142	0.159097	0.706375
C70	C	0.799606	0.201689	0.759153
C71	C	0.737024	0.244243	0.706356
C72	C	0.736975	0.244206	0.600776
C73	C	0.799510	0.201614	0.547999
H74	H	0.908472	0.127595	0.745464
H75	H	0.799643	0.201716	0.837310
H76	H	0.690731	0.275772	0.745425
H77	H	0.690645	0.275708	0.561688
H78	H	0.799474	0.201587	0.469842
H79	H	0.384069	0.170939	0.000028
H80	H	0.767225	-0.456984	-0.000026
H81	H	0.421590	-0.017320	0.000069
H82	H	0.578910	-0.015433	0.000059
C83	C	0.747607	-0.338796	-0.000019
C84	C	0.684941	-0.341350	-0.079207
C85	C	0.602130	-0.301208	-0.079214
C86	C	0.581986	-0.258510	-0.000034
C87	C	0.644653	-0.255954	0.079159
C88	C	0.727464	-0.296097	0.079167
H89	H	0.699852	-0.372959	-0.137826
H90	H	0.555740	-0.303100	-0.137839
H91	H	0.520684	-0.228794	-0.000040
H92	H	0.629743	-0.224345	0.137779
H93	H	0.773855	-0.294204	0.137792
H94	H	0.878324	0.147994	0.412964
C95	C	1.100883	-0.003546	0.600828
C96	C	1.163429	-0.046123	0.548047
C97	C	1.225974	-0.088710	0.600841
C98	C	1.225972	-0.088719	0.706414
C99	C	1.163424	-0.046140	0.759201
C100	C	1.100879	-0.003553	0.706407
H101	H	1.163432	-0.046118	0.469890
H102	H	1.272276	-0.120230	0.561764
H103	H	1.272271	-0.120244	0.745495
H104	H	1.163421	-0.046145	0.837358
H105	H	1.054577	0.027967	0.745484
H106	H	1.122847	-0.215195	0.000053
C107	C	1.217556	-0.380944	0.000044
C108	C	1.239135	-0.341987	0.079222
C109	C	1.323097	-0.316806	0.079219
C110	C	1.385479	-0.330582	0.000036
C111	C	1.363902	-0.369540	-0.079148
C112	C	1.279940	-0.394721	-0.079144
H113	H	1.192955	-0.331788	0.137843
H114	H	1.339069	-0.287966	0.137837
H115	H	1.447632	-0.311941	0.000034
H116	H	1.410082	-0.379740	-0.137769
H117	H	1.263968	-0.423561	-0.137762
C118	C	1.215375	-0.505669	0.000043
C119	C	1.278035	-0.503102	0.079234
C120	C	1.360854	-0.543236	0.079252
C121	C	1.381014	-0.585936	0.000079
C122	C	1.318353	-0.588505	-0.079118
C123	C	1.235534	-0.548371	-0.079136
H124	H	1.263112	-0.471492	0.137848
H125	H	1.407239	-0.541334	0.137879
H126	H	1.442322	-0.615645	0.000092
H127	H	1.333275	-0.620115	-0.137732
H128	H	1.189148	-0.550273	-0.137763
C129	C	1.134800	-0.772140	0.000012
C130	C	1.154924	-0.814859	0.079186
C131	C	1.237726	-0.855012	0.079183
C132	C	1.300403	-0.852444	0.000007
C133	C	1.280281	-0.809723	-0.079173
C134	C	1.197479	-0.769571	-0.079170
H135	H	1.108525	-0.816761	0.137803
H136	H	1.252622	-0.886637	0.137798
H137	H	1.361698	-0.882167	0.000005
H138	H	1.326680	-0.807821	-0.137789
H139	H	1.182583	-0.737945	-0.137784
C140	C	0.818621	-0.618856	0.000004
C141	C	0.798477	-0.576142	-0.079173
C142	C	0.715662	-0.536004	-0.079170
C143	C	0.652990	-0.538581	0.000009
C144	C	0.673132	-0.581297	0.079192
C145	C	0.755947	-0.621435	0.079190
H146	H	0.844872	-0.574233	-0.137792
H147	H	0.700752	-0.504383	-0.137787
H148	H	0.591686	-0.508868	0.000011
H149	H	0.626737	-0.583205	0.137811
H150	H	0.770857	-0.653056	0.137807
C151	C	0.828176	-0.072346	0.000049
C152	C	0.808067	-0.029632	-0.079135
C153	C	0.725268	0.010524	-0.079151
C154	C	0.662579	0.007964	0.000015
C155	C	0.682686	-0.034752	0.079205
C156	C	0.765485	-0.074907	0.079221
H157	H	0.854475	-0.027736	-0.137744
H158	H	0.710383	0.042145	-0.137773
H159	H	0.601286	0.037690	0.000003
H160	H	0.636278	-0.036648	0.137814
H161	H	0.780370	-0.106529	0.137843
H162	H	1.124722	-0.107437	0.000084
H163	H	1.115179	-0.653941	0.000027
H164	H	0.838249	-0.737043	0.000012
H165	H	0.847797	-0.190549	0.000064
H166	H	1.084634	0.007516	0.412989
