data_functionalizedCrystal
_audit_creation_method	'MofGen! by Chris Wilmer'
_symmetry_space_group_name_H-M	'P1'
_symmetry_Int_Tables_number	1
_symmetry_cell_setting	triclinic
loop_
_symmetry_equiv_pos_as_xyz
  x,y,z
_cell_length_a	19.188930
_cell_length_b	14.971486
_cell_length_c	13.448316
_cell_angle_alpha	90.006811
_cell_angle_beta	90.020644
_cell_angle_gamma	83.379454
loop_
_atom_site_label
_atom_site_type_symbol
_atom_site_fract_x
_atom_site_fract_y
_atom_site_fract_z
O1	O	-0.926506	-0.111671	-0.083012
O2	O	-0.723243	-0.126703	-0.082944
O3	O	-0.830323	0.011042	-0.082973
O4	O	-0.819427	-0.249416	-0.082983
O5	O	-0.830309	0.011050	0.082411
O6	O	-0.723230	-0.126695	0.082440
O7	O	-0.926493	-0.111662	0.082372
Cu8	Cu	-0.824860	-0.119178	0.097507
Cu9	Cu	-0.824876	-0.119188	-0.098079
O10	O	-0.819413	-0.249407	0.082400
C11	C	-0.697224	-0.126212	-0.000243
C12	C	-0.619715	-0.124751	-0.000217
C13	C	-0.952512	-0.112153	-0.000331
C14	C	-1.030021	-0.113615	-0.000364
C15	C	-0.575051	-0.205575	-0.000236
C16	C	-0.502223	-0.204202	-0.000247
C17	C	-0.474062	-0.122000	-0.000259
C18	C	-0.518735	-0.041166	-0.000234
C19	C	-0.591562	-0.042541	-0.000214
N20	N	-0.365884	-0.059170	-0.056584
N21	N	-0.296701	-0.057869	-0.056606
C22	C	-0.254640	-0.117852	-0.000320
N23	N	-0.284373	-0.179199	0.055977
N24	N	-0.353562	-0.180502	0.055994
C25	C	-0.395094	-0.120500	-0.000281
C26	C	-0.131007	-0.197193	-0.000349
C27	C	-0.058178	-0.195817	-0.000354
C28	C	-0.074692	-0.032778	-0.000351
C29	C	-0.147519	-0.034157	-0.000336
C30	C	-0.175672	-0.116367	-0.000340
C31	C	-0.829829	0.044368	-0.000281
C32	C	-0.828369	0.143658	-0.000281
C33	C	-0.819907	-0.282734	-0.000293
C34	C	-0.821368	-0.382023	-0.000300
N35	N	-0.824854	-0.119170	0.235071
C36	C	-0.891275	0.201215	-0.000302
C37	C	-0.889899	0.294507	-0.000311
C38	C	-0.825615	0.330240	-0.000293
C39	C	-0.762704	0.272675	-0.000276
C40	C	-0.764081	0.179385	-0.000274
C41	C	-0.759839	0.467123	-0.000279
C42	C	-0.758461	0.560419	-0.000279
C43	C	-0.885656	0.582245	-0.000316
C44	C	-0.887033	0.488955	-0.000314
C45	C	-0.824122	0.431396	-0.000295
N46	N	-0.824888	-0.119188	-0.235643
C47	C	-0.872284	-0.058202	0.287099
C48	C	-0.872288	-0.058201	0.391202
C49	C	-0.824866	-0.119174	0.443275
C50	C	-0.777431	-0.180145	0.391241
C51	C	-0.777424	-0.180141	0.287139
C52	C	-0.777450	-0.180151	0.608221
C53	C	-0.777458	-0.180157	0.712329
C54	C	-0.872315	-0.058211	0.712283
C55	C	-0.872307	-0.058207	0.608182
C56	C	-0.824873	-0.119180	0.556154
H57	H	-0.597968	-0.272517	-0.000241
H58	H	-0.943622	0.172130	-0.000310
H59	H	-0.910903	-0.008554	0.244707
O60	O	-0.946834	0.638025	-0.000296
C61	C	-1.003867	0.586482	-0.000329
H62	H	-0.986199	0.516786	0.030991
H63	H	-1.047942	0.621077	0.047674
H64	H	-1.023578	0.579905	-0.079676
H65	H	-0.939378	0.459865	-0.000321
O66	O	-0.491349	0.038663	-0.000425
C67	C	-0.449739	0.044322	-0.086081
H68	H	-0.467027	-0.002353	-0.145942
H69	H	-0.456226	0.116434	-0.114830
H70	H	-0.392319	0.023464	-0.066736
H71	H	-0.706116	0.589510	-0.000249
H72	H	-0.738801	-0.229787	0.244779
O73	O	-0.458926	-0.282801	-0.000318
C74	C	-0.499391	-0.355655	-0.000291
H75	H	-0.553740	-0.332739	-0.031576
H76	H	-0.472594	-0.412263	-0.048326
H77	H	-0.504561	-0.380874	0.079050
O78	O	-0.698682	0.411298	-0.000393
C79	C	-0.659669	0.427426	-0.086046
H80	H	-0.676753	0.498262	-0.114611
H81	H	-0.601442	0.420632	-0.066761
H82	H	-0.669266	0.376427	-0.146026
O83	O	-0.634853	0.036058	-0.000246
C84	C	-0.594385	0.108910	-0.000229
H85	H	-0.540061	0.085993	-0.031550
H86	H	-0.621218	0.165521	-0.048239
H87	H	-0.589152	0.134125	0.079113
O88	O	-0.158279	-0.277102	-0.000472
C89	C	-0.135507	-0.326358	-0.086140
H90	H	-0.084987	-0.302188	-0.114709
H91	H	-0.125459	-0.400882	-0.066873
H92	H	-0.177660	-0.315836	-0.146109
H93	H	-0.910908	-0.008555	0.433562
H94	H	-0.021812	-0.261637	-0.000363
H95	H	-0.710364	0.301776	-0.000268
O96	O	-0.731390	-0.239495	0.441710
C97	C	-0.742815	-0.328004	0.416263
H98	H	-0.769723	-0.327806	0.340662
H99	H	-0.690369	-0.372216	0.412724
H100	H	-0.777590	-0.355563	0.474825
O101	O	-0.047229	0.046996	-0.000409
C102	C	0.026628	0.030880	-0.000403
H103	H	0.043658	-0.038991	-0.031715
H104	H	0.049015	0.083459	-0.048427
H105	H	0.046933	0.035141	0.078934
H106	H	-0.183886	0.031659	-0.000326
H107	H	-0.712856	0.132522	-0.000257
H108	H	-0.941123	0.341368	-0.000326
O109	O	-0.918400	0.001106	0.557750
C110	C	-0.960279	0.054908	0.625990
H111	H	-0.931663	0.055830	0.700219
H112	H	-0.970871	0.126374	0.595914
H113	H	-1.012166	0.026027	0.637019
H114	H	-0.910936	-0.008565	0.754650
H115	H	-0.738841	-0.229806	0.754722
H116	H	-0.738822	-0.229799	0.565863
