data_functionalizedCrystal
_audit_creation_method	'MofGen! by Chris Wilmer'
_symmetry_space_group_name_H-M	'P1'
_symmetry_Int_Tables_number	1
_symmetry_cell_setting	triclinic
loop_
_symmetry_equiv_pos_as_xyz
  x,y,z
_cell_length_a	10.654550
_cell_length_b	10.489741
_cell_length_c	9.730223
_cell_angle_alpha	89.999747
_cell_angle_beta	90.006378
_cell_angle_gamma	84.512038
loop_
_atom_site_label
_atom_site_type_symbol
_atom_site_fract_x
_atom_site_fract_y
_atom_site_fract_z
O1	O	1.667923	0.179153	0.114402
O2	O	1.302452	0.196223	0.114380
O3	O	1.493504	0.002086	0.114383
O4	O	1.476872	0.373290	0.114399
O5	O	1.493492	0.002097	-0.114196
O6	O	1.302440	0.196234	-0.114200
O7	O	1.667911	0.179164	-0.114178
Zn8	Zn	1.485173	0.187701	-0.150481
Zn9	Zn	1.485190	0.187686	0.150683
O10	O	1.476859	0.373301	-0.114181
C11	C	1.255648	0.194975	0.000087
C12	C	1.116203	0.191225	0.000079
C13	C	1.036771	0.305530	0.000103
C14	C	0.905748	0.301999	0.000127
C15	C	0.933603	0.069849	0.000107
C16	C	1.064623	0.073381	0.000073
C17	C	1.020688	0.439560	0.000121
C18	C	0.889665	0.436029	0.000145
C19	C	1.492241	-0.045439	0.000094
C20	C	1.488483	-0.187067	0.000096
C21	C	1.366923	-0.255148	0.000099
C22	C	1.424341	-0.347293	-0.112599
C23	C	1.424382	-0.347279	0.112763
C24	C	1.545951	-0.277347	-0.112695
C25	C	1.545975	-0.277322	0.112768
C26	C	1.603481	-0.369440	0.000043
C27	C	1.714715	0.180412	0.000118
C28	C	1.854160	0.184162	0.000136
C29	C	1.478122	0.420826	0.000111
C30	C	1.481880	0.562454	0.000118
N31	N	1.485171	0.187710	-0.356017
C32	C	1.562038	0.265789	-0.427948
C33	C	1.562056	0.265764	-0.571831
C34	C	1.408332	0.109580	-0.571839
C35	C	1.408321	0.109598	-0.427959
C36	C	1.650785	0.355965	-0.427944
C37	C	1.650804	0.355941	-0.571827
N38	N	1.485201	0.187667	0.356220
H39	H	0.891590	-0.026096	0.000124
O40	O	1.325457	0.025315	-0.649425
H41	H	1.225325	0.052102	-0.621832
O42	O	1.325424	0.025366	-0.350386
H43	H	1.385023	-0.042617	-0.284828
O44	O	1.356219	-0.388336	-0.238823
H45	H	1.258045	-0.342142	-0.238603
H46	H	1.749822	0.324624	-0.388874
O47	O	1.356228	-0.388288	0.238964
H48	H	1.354832	-0.493953	0.238310
H49	H	1.745376	0.315845	-0.616426
O50	O	1.598480	0.483184	-0.368834
H51	H	1.656669	0.559169	-0.404098
O52	O	1.609889	0.489167	-0.623603
H53	H	1.589829	0.554407	-0.534843
O54	O	1.234547	-0.189285	-0.000060
H55	H	1.183646	-0.218482	0.092559
O56	O	1.150302	-0.049902	0.000023
H57	H	1.092420	-0.132435	0.000033
O58	O	1.736007	-0.434930	0.000084
H59	H	1.732343	-0.540318	0.001023
O60	O	1.067969	0.496096	0.130831
H61	H	0.987077	0.523219	0.200154
O62	O	1.059540	0.508919	-0.126661
H63	H	1.012847	0.608152	-0.126641
O64	O	0.829167	0.489689	-0.130560
H65	H	0.903049	0.521002	-0.199874
H66	H	0.847961	0.486525	0.095814
H67	H	1.597336	-0.246535	-0.208079
H68	H	1.597372	-0.246307	0.208058
