data_functionalizedCrystal
_audit_creation_method	'MofGen! by Chris Wilmer'
_symmetry_space_group_name_H-M	'P1'
_symmetry_Int_Tables_number	1
_symmetry_cell_setting	triclinic
loop_
_symmetry_equiv_pos_as_xyz
  x,y,z
_cell_length_a	19.077236
_cell_length_b	19.076808
_cell_length_c	19.077569
_cell_angle_alpha	85.471664
_cell_angle_beta	85.479541
_cell_angle_gamma	94.519737
loop_
_atom_site_label
_atom_site_type_symbol
_atom_site_fract_x
_atom_site_fract_y
_atom_site_fract_z
Zn1	Zn	1.084563	-0.219365	-0.432786
Zn2	Zn	1.334563	0.030635	-0.182786
Zn3	Zn	1.584563	0.280635	0.067214
Zn4	Zn	1.834563	0.530635	0.317214
Zn5	Zn	1.074593	-0.342413	-0.309739
Zn6	Zn	1.324593	-0.092413	-0.059739
Zn7	Zn	1.574593	0.157587	0.190261
Zn8	Zn	1.824593	0.407587	0.440261
Zn9	Zn	0.961527	-0.229260	-0.309753
Zn10	Zn	1.211527	0.020740	-0.059753
Zn11	Zn	1.461527	0.270740	0.190247
Zn12	Zn	1.711527	0.520740	0.440247
Zn13	Zn	0.961488	-0.342366	-0.422847
Zn14	Zn	1.211488	-0.092366	-0.172847
Zn15	Zn	1.461488	0.157634	0.077153
Zn16	Zn	1.711488	0.407634	0.327153
O17	O	1.020543	-0.283351	-0.368781
O18	O	1.270543	-0.033351	-0.118781
O19	O	1.520543	0.216649	0.131219
O20	O	1.770543	0.466649	0.381219
O21	O	1.182066	-0.231566	-0.420618
O22	O	1.432066	0.018434	-0.170618
O23	O	1.682066	0.268434	0.079382
O24	O	1.932066	0.518434	0.329382
O25	O	1.055438	-0.331563	-0.210915
O26	O	1.305438	-0.081563	0.039085
O27	O	1.555438	0.168437	0.289085
O28	O	1.805438	0.418437	0.539085
O29	O	0.982037	-0.129115	-0.330239
O30	O	1.232037	0.120885	-0.080239
O31	O	1.482037	0.370885	0.169761
O32	O	1.732037	0.620885	0.419761
O33	O	1.174741	-0.321969	-0.330215
O34	O	1.424741	-0.071969	-0.080215
O35	O	1.674741	0.178031	0.169785
O36	O	1.924741	0.428031	0.419785
O37	O	1.072431	-0.121846	-0.420631
O38	O	1.322431	0.128154	-0.170631
O39	O	1.572431	0.378154	0.079369
O40	O	1.822431	0.628154	0.329369
O41	O	0.972369	-0.248430	-0.210925
O42	O	1.222369	0.001570	0.039075
O43	O	1.472369	0.251570	0.289075
O44	O	1.722369	0.501570	0.539075
O45	O	0.862696	-0.248385	-0.320601
O46	O	1.112696	0.001615	-0.070601
O47	O	1.362696	0.251615	0.179399
O48	O	1.612696	0.501615	0.429399
O49	O	0.981970	-0.321889	-0.522992
O50	O	1.231970	-0.071889	-0.272992
O51	O	1.481970	0.178111	-0.022992
O52	O	1.731970	0.428111	0.227008
O53	O	0.862667	-0.331484	-0.403691
O54	O	1.112667	-0.081484	-0.153691
O55	O	1.362667	0.168516	0.096309
O56	O	1.612667	0.418516	0.346309
O57	O	1.072393	-0.231521	-0.530294
O58	O	1.322393	0.018479	-0.280294
O59	O	1.572393	0.268479	-0.030294
O60	O	1.822393	0.518479	0.219706
O61	O	1.055400	-0.441238	-0.320578
O62	O	1.305400	-0.191238	-0.070578
O63	O	1.555400	0.058762	0.179422
O64	O	1.805400	0.308762	0.429422
O65	O	0.972302	-0.441204	-0.403678
O66	O	1.222302	-0.191204	-0.153678
O67	O	1.472302	0.058796	0.096322
O68	O	1.722302	0.308796	0.346322
C69	C	0.837057	-0.291003	-0.361069
C70	C	1.087057	-0.041003	-0.111069
C71	C	1.337057	0.208997	0.138931
C72	C	1.587057	0.458997	0.388931
C73	C	0.758562	-0.294294	-0.357786
C74	C	1.008562	-0.044294	-0.107786
C75	C	1.258562	0.205706	0.142214
C76	C	1.508562	0.455706	0.392214
C77	C	0.725498	-0.248840	-0.403378
C78	C	0.975498	0.001160	-0.153378
C79	C	1.225498	0.251160	0.096622
C80	C	1.475498	0.501160	0.346622
C81	C	0.651743	-0.251928	-0.400287
C82	C	0.901743	-0.001928	-0.150287
C83	C	1.151743	0.248072	0.099713
C84	C	1.401743	0.498072	0.349713
C85	C	0.611052	-0.300474	-0.351608
C86	C	0.861052	-0.050474	-0.101608
C87	C	1.111052	0.199526	0.148392
C88	C	1.361052	0.449526	0.398392
C89	C	0.644120	-0.345929	-0.306012
C90	C	0.894120	-0.095929	-0.056012
C91	C	1.144120	0.154071	0.193988
C92	C	1.394120	0.404071	0.443988
C93	C	0.717874	-0.342837	-0.309099
C94	C	0.967874	-0.092837	-0.059099
C95	C	1.217874	0.157163	0.190901
C96	C	1.467874	0.407163	0.440901
C97	C	0.390062	-0.314759	-0.337315
C98	C	0.640062	-0.064759	-0.087315
C99	C	0.890062	0.185241	0.162685
C100	C	1.140062	0.435241	0.412685
C101	C	0.316303	-0.317849	-0.334232
C102	C	0.566303	-0.067849	-0.084232
C103	C	0.816303	0.182151	0.165768
C104	C	1.066303	0.432151	0.415768
C105	C	0.323931	-0.223846	-0.428507
C106	C	0.573931	0.026154	-0.178507
C107	C	0.823931	0.276154	0.071493
C108	C	1.073931	0.526154	0.321493
C109	C	0.397686	-0.220761	-0.431593
C110	C	0.647686	0.029239	-0.181593
C111	C	0.897686	0.279239	0.068407
C112	C	1.147686	0.529239	0.318407
C113	C	0.430748	-0.266214	-0.385995
C114	C	0.680748	-0.016214	-0.135995
C115	C	0.930748	0.233786	0.114005
C116	C	1.180748	0.483786	0.364005
N117	N	0.535662	-0.303633	-0.348449
N118	N	0.785662	-0.053633	-0.098449
N119	N	1.035662	0.196367	0.151551
N120	N	1.285662	0.446367	0.401551
N121	N	0.506136	-0.263051	-0.389151
N122	N	0.756136	-0.013051	-0.139151
N123	N	1.006136	0.236949	0.110849
N124	N	1.256136	0.486949	0.360849
C125	C	1.012785	-0.466846	-0.361064
C126	C	1.262785	-0.216846	-0.111064
C127	C	1.512785	0.033154	0.138936
C128	C	1.762785	0.283154	0.388936
C129	C	1.009532	-0.545342	-0.357789
C130	C	1.259532	-0.295342	-0.107789
C131	C	1.509532	-0.045342	0.142211
C132	C	1.759532	0.204658	0.392211
C133	C	1.055034	-0.578374	-0.403348
C134	C	1.305034	-0.328374	-0.153348
C135	C	1.555034	-0.078374	0.096652
C136	C	1.805034	0.171626	0.346652
C137	C	1.051975	-0.652130	-0.400271
C138	C	1.301975	-0.402130	-0.150271
C139	C	1.551975	-0.152130	0.099729
C140	C	1.801975	0.097870	0.349729
C141	C	1.003415	-0.692852	-0.351632
C142	C	1.253415	-0.442852	-0.101632
C143	C	1.503415	-0.192852	0.148368
C144	C	1.753415	0.057148	0.398368
C145	C	0.957908	-0.659815	-0.306071
C146	C	1.207908	-0.409815	-0.056071
C147	C	1.457908	-0.159815	0.193929
C148	C	1.707908	0.090185	0.443929
C149	C	0.960965	-0.586061	-0.309152
C150	C	1.210965	-0.336061	-0.059152
C151	C	1.460965	-0.086061	0.190848
C152	C	1.710965	0.163939	0.440848
C153	C	0.989227	-0.913846	-0.337373
C154	C	1.239227	-0.663846	-0.087373
C155	C	1.489227	-0.413846	0.162627
C156	C	1.739227	-0.163846	0.412627
C157	C	0.986175	-0.987605	-0.334295
C158	C	1.236175	-0.737605	-0.084295
C159	C	1.486175	-0.487605	0.165705
C160	C	1.736175	-0.237605	0.415705
C161	C	1.080242	-0.979915	-0.428496
C162	C	1.330242	-0.729915	-0.178496
C163	C	1.580242	-0.479915	0.071504
C164	C	1.830242	-0.229915	0.321504
C165	C	1.083297	-0.906160	-0.431569
C166	C	1.333297	-0.656160	-0.181569
C167	C	1.583297	-0.406160	0.068431
C168	C	1.833297	-0.156160	0.318431
C169	C	1.037787	-0.873129	-0.386011
C170	C	1.287787	-0.623129	-0.136011
C171	C	1.537787	-0.373129	0.113989
C172	C	1.787787	-0.123129	0.363989
N173	N	1.000288	-0.768242	-0.348485
N174	N	1.250288	-0.518242	-0.098485
N175	N	1.500288	-0.268242	0.151515
N176	N	1.750288	-0.018242	0.401515
N177	N	1.040911	-0.797740	-0.389162
N178	N	1.290911	-0.547740	-0.139162
N179	N	1.540911	-0.297740	0.110838
N180	N	1.790911	-0.047740	0.360838
C181	C	1.204744	-0.275669	-0.376524
C182	C	1.454744	-0.025669	-0.126524
C183	C	1.704744	0.224331	0.123476
C184	C	1.954744	0.474331	0.373476
C185	C	1.283240	-0.272395	-0.379823
C186	C	1.533240	-0.022395	-0.129823
C187	C	1.783240	0.227605	0.120177
C188	C	2.033240	0.477605	0.370177
C189	C	1.028289	-0.275596	-0.552984
C190	C	1.278289	-0.025596	-0.302984
C191	C	1.528289	0.224404	-0.052984
C192	C	1.778289	0.474404	0.197016
C193	C	1.031590	-0.272292	-0.631480
C194	C	1.281590	-0.022292	-0.381480
C195	C	1.531590	0.227708	-0.131480
C196	C	1.781590	0.477708	0.118520
C197	C	1.028351	-0.099138	-0.376545
C198	C	1.278351	0.150862	-0.126545
C199	C	1.528351	0.400862	0.123455
C200	C	1.778351	0.650862	0.373455
C201	C	1.031678	-0.020638	-0.379854
C202	C	1.281678	0.229362	-0.129854
C203	C	1.531678	0.479362	0.120146
C204	C	1.781678	0.729362	0.370146
C205	C	0.986064	-0.317786	-0.664557
C206	C	1.236064	-0.067786	-0.414557
C207	C	1.486064	0.182214	-0.164557
C208	C	1.736064	0.432214	0.085443
C209	C	0.989172	-0.314680	-0.738313
C210	C	1.239172	-0.064680	-0.488313
C211	C	1.489172	0.185320	-0.238313
C212	C	1.739172	0.435320	0.011687
C213	C	1.037803	-0.266077	-0.778991
C214	C	1.287803	-0.016077	-0.528991
C215	C	1.537803	0.233923	-0.278991
C216	C	1.787803	0.483923	-0.028991
C217	C	1.083334	-0.220581	-0.745909
C218	C	1.333334	0.029419	-0.495909
C219	C	1.583334	0.279419	-0.245909
C220	C	1.833334	0.529419	0.004091
C221	C	1.080229	-0.223690	-0.672154
C222	C	1.330229	0.026310	-0.422154
C223	C	1.580229	0.276310	-0.172154
C224	C	1.830229	0.526310	0.077846
C225	C	1.052140	-0.251736	-0.999981
C226	C	1.302140	-0.001736	-0.749981
C227	C	1.552140	0.248264	-0.499981
C228	C	1.802140	0.498264	-0.249981
C229	C	1.055239	-0.248629	-1.073740
C230	C	1.305239	0.001371	-0.823740
C231	C	1.555239	0.251371	-0.573740
C232	C	1.805239	0.501371	-0.323740
C233	C	0.961078	-0.342729	-1.066140
C234	C	1.211078	-0.092729	-0.816140
C235	C	1.461078	0.157271	-0.566140
C236	C	1.711078	0.407271	-0.316140
C237	C	0.957974	-0.345832	-0.992384
C238	C	1.207974	-0.095832	-0.742384
C239	C	1.457974	0.154168	-0.492384
C240	C	1.707974	0.404168	-0.242384
C241	C	1.003508	-0.300338	-0.959309
C242	C	1.253508	-0.050338	-0.709309
C243	C	1.503508	0.199662	-0.459309
C244	C	1.753508	0.449662	-0.209309
N245	N	1.040979	-0.262900	-0.854381
N246	N	1.290979	-0.012900	-0.604381
N247	N	1.540979	0.237100	-0.354381
N248	N	1.790979	0.487100	-0.104381
N249	N	1.000335	-0.303519	-0.883919
N250	N	1.250335	-0.053519	-0.633919
N251	N	1.500335	0.196481	-0.383919
N252	N	1.750335	0.446481	-0.133919
C253	C	1.012869	-0.291023	-0.185299
C254	C	1.262869	-0.041023	0.064701
C255	C	1.512869	0.208977	0.314701
C256	C	1.762869	0.458977	0.564701
C257	C	1.009713	-0.294123	-0.106817
C258	C	1.259713	-0.044123	0.143183
C259	C	1.509713	0.205877	0.393183
C260	C	1.759713	0.455877	0.643183
H261	H	0.610984	-0.385453	-0.266373
H262	H	0.860984	-0.135453	-0.016373
H263	H	1.110984	0.114547	0.233627
H264	H	1.360984	0.364547	0.483627
Br265	Br	1.120945	-0.523115	-0.469356
Br266	Br	1.370945	-0.273115	-0.219356
Br267	Br	1.620945	-0.023115	0.030644
Br268	Br	1.870945	0.226885	0.280644
H269	H	1.117292	-1.006817	-0.465588
H270	H	1.367292	-0.756817	-0.215588
H271	H	1.617292	-0.506817	0.034412
H272	H	1.867292	-0.256817	0.284412
Br273	Br	0.762747	-0.404525	-0.247222
Br274	Br	1.012747	-0.154525	0.002778
Br275	Br	1.262747	0.095475	0.252778
Br276	Br	1.512747	0.345475	0.502778
Br277	Br	1.149202	-0.850899	-0.497581
Br278	Br	1.399202	-0.600899	-0.247581
Br279	Br	1.649202	-0.350899	0.002419
Br280	Br	1.899202	-0.100899	0.252419
Br281	Br	0.927391	-0.376434	-0.783201
Br282	Br	1.177391	-0.126434	-0.533201
Br283	Br	1.427391	0.123566	-0.283201
Br284	Br	1.677391	0.373566	-0.033201
Br285	Br	0.920274	-1.042872	-0.268276
Br286	Br	1.170274	-0.792872	-0.018276
Br287	Br	1.420274	-0.542872	0.231724
Br288	Br	1.670274	-0.292872	0.481724
H289	H	1.089217	-0.214692	-0.973060
H290	H	1.339217	0.035308	-0.723060
H291	H	1.589217	0.285308	-0.473060
H292	H	1.839217	0.535308	-0.223060
H293	H	1.117301	-0.186644	-0.645224
H294	H	1.367301	0.063356	-0.395224
H295	H	1.617301	0.313356	-0.145224
H296	H	1.867301	0.563356	0.104776
H297	H	1.122933	-0.181010	-0.779034
H298	H	1.372933	0.068990	-0.529034
H299	H	1.622933	0.318990	-0.279034
H300	H	1.872933	0.568990	-0.029034
H301	H	0.758624	-0.209311	-0.443019
H302	H	1.008624	0.040689	-0.193019
H303	H	1.258624	0.290689	0.056981
H304	H	1.508624	0.540689	0.306981
Br305	Br	0.606874	-0.190239	-0.462164
Br306	Br	0.856874	0.059761	-0.212164
Br307	Br	1.106874	0.309761	0.037836
Br308	Br	1.356874	0.559761	0.287836
Br309	Br	0.920056	-0.383746	-0.609359
Br310	Br	1.170056	-0.133746	-0.359359
Br311	Br	1.420056	0.116254	-0.109359
Br312	Br	1.670056	0.366254	0.140641
H313	H	0.918385	-0.385420	-0.959269
H314	H	1.168385	-0.135420	-0.709269
H315	H	1.418385	0.114580	-0.459269
H316	H	1.668385	0.364580	-0.209269
H317	H	0.430812	-0.181233	-0.471235
H318	H	0.680812	0.068767	-0.221235
H319	H	0.930812	0.318767	0.028765
H320	H	1.180812	0.568767	0.278765
H321	H	0.924007	-0.379768	-1.093078
H322	H	1.174007	-0.129768	-0.843078
H323	H	1.424007	0.120232	-0.593078
H324	H	1.674007	0.370232	-0.343078
Br325	Br	0.891996	-0.715080	-0.240069
Br326	Br	1.141996	-0.465080	0.009931
Br327	Br	1.391996	-0.215080	0.259931
Br328	Br	1.641996	0.034920	0.509931
Br329	Br	0.279058	-0.162164	-0.490387
Br330	Br	0.529058	0.087836	-0.240387
Br331	Br	0.779058	0.337836	0.009613
Br332	Br	1.029058	0.587836	0.259613
H333	H	0.283174	-0.357384	-0.294591
H334	H	0.533174	-0.107384	-0.044591
H335	H	0.783174	0.142616	0.205409
H336	H	1.033174	0.392616	0.455409
H337	H	1.089033	-0.679021	-0.437365
H338	H	1.339033	-0.429021	-0.187365
H339	H	1.589033	-0.179021	0.062635
H340	H	1.839033	0.070979	0.312635
H341	H	0.416972	-0.351770	-0.300186
H342	H	0.666972	-0.101770	-0.050186
H343	H	0.916972	0.148230	0.199814
H344	H	1.166972	0.398230	0.449814
Br345	Br	0.927455	-0.869028	-0.275552
Br346	Br	1.177455	-0.619028	-0.025552
Br347	Br	1.427455	-0.369028	0.224448
Br348	Br	1.677455	-0.119028	0.474448
H349	H	1.094838	-0.209044	-1.106858
H350	H	1.344838	0.040956	-0.856858
H351	H	1.594838	0.290956	-0.606858
H352	H	1.844838	0.540956	-0.356858
H353	H	0.923911	-0.559167	-0.272054
H354	H	1.173911	-0.309167	-0.022054
H355	H	1.423911	-0.059167	0.227946
H356	H	1.673911	0.190833	0.477946
