data_functionalizedCrystal
_audit_creation_method	'MofGen! by Chris Wilmer'
_symmetry_space_group_name_H-M	'P1'
_symmetry_Int_Tables_number	1
_symmetry_cell_setting	triclinic
loop_
_symmetry_equiv_pos_as_xyz
  x,y,z
_cell_length_a	14.560438
_cell_length_b	14.560438
_cell_length_c	14.560438
_cell_angle_alpha	90.002385
_cell_angle_beta	59.996693
_cell_angle_gamma	60.002811
loop_
_atom_site_label
_atom_site_type_symbol
_atom_site_fract_x
_atom_site_fract_y
_atom_site_fract_z
Zr1	Zr	1.005331	0.884757	-0.120576
O2	O	1.196939	0.738109	-0.267240
O3	O	0.813723	0.929712	-0.075608
O4	O	1.005334	0.929708	-0.267224
O5	O	1.005325	0.738116	0.075518
O6	O	1.005337	1.080846	-0.267222
O7	O	1.005328	0.738112	-0.075623
O8	O	0.662579	1.080853	0.075545
O9	O	1.348083	0.738110	-0.267249
O10	O	0.892536	1.061678	-0.056438
O11	O	0.892532	0.948888	0.056355
O12	O	1.118130	0.948884	-0.169249
O13	O	1.118126	0.836094	-0.056456
Zr14	Zr	1.005331	1.125811	0.120480
Zr15	Zr	1.005335	1.125805	-0.120573
Zr16	Zr	1.005327	0.884763	0.120476
Zr17	Zr	1.246388	0.884759	-0.120592
Zr18	Zr	0.764274	1.125809	0.120495
O19	O	1.196939	1.080857	0.075511
O20	O	1.196945	1.080848	-0.267234
O21	O	1.196933	0.738117	0.075505
O22	O	0.813723	1.272460	0.267143
O23	O	0.813729	1.272451	-0.075602
O24	O	0.813717	0.929720	0.267137
O25	O	1.005337	1.272452	-0.075615
O26	O	1.005328	1.080860	0.267127
O27	O	1.005325	0.929722	0.267125
O28	O	1.005334	1.272456	0.075526
O29	O	1.348086	0.929711	-0.267246
O30	O	0.662576	1.080857	0.267149
O31	O	0.662579	1.272458	0.267153
O32	O	0.662582	1.272454	0.075548
O33	O	1.348080	0.738115	-0.075645
O34	O	1.348083	0.929716	-0.075642
O35	O	0.892532	1.061684	0.169152
O36	O	0.892536	1.174474	0.056359
O37	O	1.118130	1.061680	-0.056452
O38	O	1.118126	0.948890	0.056341
C39	C	0.703805	1.005282	-0.000029
C40	C	0.601470	1.005281	-0.000022
C41	C	0.636684	0.922014	-0.083306
C42	C	0.540545	0.922019	-0.083335
C43	C	0.373978	1.088563	0.083214
C44	C	0.470117	1.088562	0.083237
C45	C	1.005326	0.703770	-0.000053
C46	C	1.005324	0.601439	-0.000055
C47	C	0.887569	0.612237	0.058831
C48	C	0.887575	0.516082	0.058841
C49	C	1.123102	0.398333	-0.058930
C50	C	1.123095	0.494487	-0.058933
C51	C	0.751588	0.680218	0.126821
C52	C	0.751595	0.584063	0.126831
C53	C	1.306856	1.005286	-0.000068
C54	C	1.409191	1.005287	-0.000074
C55	C	1.005336	1.005276	-0.301568
C56	C	1.005338	1.005274	-0.403901
C57	C	1.005336	1.306798	-0.000044
C58	C	1.005338	1.409130	-0.000042
C59	C	1.123093	0.946398	-0.510863
C60	C	1.123087	0.946411	-0.607012
C61	C	0.887560	1.064178	-0.489222
C62	C	0.887567	1.064170	-0.393076
C63	C	1.005326	1.005292	0.301471
C64	C	1.005324	1.005294	0.403804
C65	C	0.703811	1.306796	-0.000024
C66	C	0.601477	1.409127	-0.000016
C67	C	0.703800	1.005290	0.301490
C68	C	0.601464	1.005291	0.403830
C69	C	0.703806	1.306804	0.301495
C70	C	0.601471	1.409137	0.403836
C71	C	1.306856	0.703764	-0.301592
C72	C	1.409191	0.601431	-0.403933
C73	C	1.306851	0.703772	-0.000073
C74	C	1.409185	0.601442	-0.000081
C75	C	1.306862	1.005279	-0.301587
C76	C	1.409198	1.005277	-0.403927
C77	C	0.553398	1.398327	-0.058888
C78	C	0.457253	1.494481	-0.058884
C79	C	0.457271	1.612232	0.058873
C80	C	0.553421	1.516079	0.058862
C81	C	0.553384	1.064169	0.510788
C82	C	0.457237	1.064158	0.606943
C83	C	0.457254	0.946390	0.489168
C84	C	0.553406	0.946395	0.393016
C85	C	0.553393	1.516088	0.393043
C86	C	0.457247	1.612237	0.489207
C87	C	0.457260	1.494470	0.606955
C88	C	0.553411	1.398323	0.510792
H89	H	0.441433	1.156374	0.151059
C90	C	0.504457	1.268364	-0.080738
C91	C	0.606231	1.280765	-0.123615
H92	H	0.537075	1.195790	-0.120706
H93	H	0.466960	1.276792	-0.003286
H94	H	0.440321	1.324093	-0.089162
H95	H	0.670362	1.225042	-0.115183
H96	H	0.643747	1.272326	-0.201086
C97	C	0.700765	1.116477	0.415690
C98	C	0.606219	1.128898	0.522671
H99	H	0.733376	1.156444	0.423032
H100	H	0.769787	1.039027	0.375740
H101	H	0.663241	1.145556	0.375752
H102	H	0.643745	1.099812	0.562606
H103	H	0.537185	1.206365	0.562638
H104	H	0.418096	1.112101	0.694030
H105	H	0.699396	0.584056	0.089008
C106	C	0.858022	0.848057	-0.157224
C107	C	0.781068	0.830481	-0.174830
H108	H	0.947157	0.791544	-0.213728
H109	H	0.839573	0.919927	-0.160672
H110	H	0.839537	0.844601	-0.085336
H111	H	0.799546	0.833945	-0.246715
H112	H	0.799526	0.758593	-0.171392
H113	H	0.592571	1.524881	0.106803
H114	H	0.699463	0.732378	0.216845
H115	H	0.569228	0.854215	-0.151154
H116	H	1.218976	0.898470	-0.694103
C117	C	0.309841	0.894115	0.584269
C118	C	0.404402	0.881676	0.477287
H119	H	0.277205	0.854172	0.576929
H120	H	0.347349	0.865030	0.624208
H121	H	0.240826	0.971580	0.624218
H122	H	0.473422	0.804211	0.437341
H123	H	0.366894	0.910756	0.437332
H124	H	0.418114	1.485677	-0.106826
H125	H	0.418129	1.699322	0.106811
H126	H	0.267021	1.156366	0.151002
H127	H	1.218983	0.485685	-0.106879
C128	C	0.654747	1.180574	-0.286291
C129	C	0.758120	1.128889	-0.275490
H130	H	0.574838	1.220522	-0.213699
H131	H	0.659641	1.231392	-0.326234
H132	H	0.659647	1.124853	-0.326249
H133	H	0.753226	1.184610	-0.235539
H134	H	0.753223	1.078066	-0.235529
C135	C	0.543762	0.829990	0.286246
C136	C	0.606259	0.881675	0.275435
H137	H	0.576390	0.790042	0.213657
H138	H	0.559527	0.779173	0.326190
H139	H	0.452983	0.885711	0.326208
H140	H	0.697037	0.825953	0.235479
H141	H	0.590504	0.932497	0.235474
C142	C	0.543610	1.642157	0.286317
C143	C	0.606150	1.527973	0.275477
H144	H	0.576164	1.649494	0.213737
H145	H	0.452838	1.677200	0.326343
H146	H	0.559436	1.677209	0.326209
H147	H	0.590316	1.492922	0.235593
H148	H	0.696944	1.492915	0.235435
H149	H	0.418107	1.699320	0.480411
H150	H	0.418117	1.485679	0.694048
H151	H	1.218987	0.311243	-0.106866
C152	C	0.657226	0.696026	0.026507
C153	C	0.694627	0.748955	0.066271
H154	H	0.622056	0.738466	-0.010869
H155	H	0.730757	0.622552	-0.024565
H156	H	0.593482	0.691181	0.087994
H157	H	0.758379	0.753792	0.004782
H158	H	0.621087	0.822449	0.117347
C159	C	0.543765	1.291559	0.636838
C160	C	0.606262	1.280749	0.522654
H161	H	0.576392	1.218975	0.644156
H162	H	0.559530	1.331506	0.671891
H163	H	0.452986	1.331514	0.671900
H164	H	0.697040	1.240802	0.487594
H165	H	0.590507	1.240786	0.487587
H166	H	0.709394	0.575348	0.213892
H167	H	1.218990	0.898440	-0.519684
H168	H	0.791675	1.112128	-0.480423
