data_functionalizedCrystal
_audit_creation_method	'MofGen! by Chris Wilmer'
_symmetry_space_group_name_H-M	'P1'
_symmetry_Int_Tables_number	1
_symmetry_cell_setting	triclinic
loop_
_symmetry_equiv_pos_as_xyz
  x,y,z
_cell_length_a	10.654550
_cell_length_b	15.625429
_cell_length_c	9.730223
_cell_angle_alpha	71.921515
_cell_angle_beta	89.996251
_cell_angle_gamma	84.351240
loop_
_atom_site_label
_atom_site_type_symbol
_atom_site_fract_x
_atom_site_fract_y
_atom_site_fract_z
O1	O	1.666513	0.126618	-0.177496
O2	O	1.300909	0.138682	-0.183486
O3	O	1.493482	0.001477	-0.115119
O4	O	1.473939	0.263824	-0.245863
O5	O	1.493480	0.001480	0.113459
O6	O	1.300906	0.138686	0.045093
O7	O	1.666511	0.126622	0.051082
Zn8	Zn	1.483708	0.132654	0.084379
Zn9	Zn	1.483711	0.132650	-0.216783
O10	O	1.473937	0.263828	-0.017285
C11	C	1.254119	0.137798	-0.068752
C12	C	1.114703	0.135148	-0.067423
C13	C	1.492598	-0.032114	0.015908
C14	C	1.489950	-0.132209	0.065784
C15	C	1.034374	0.215933	-0.107703
C16	C	0.903380	0.213437	-0.106483
C17	C	0.933055	0.049365	-0.024706
C18	C	1.064047	0.051862	-0.025916
C19	C	1.085030	0.299219	-0.149210
C20	C	1.004700	0.380010	-0.189495
C21	C	0.873706	0.377514	-0.188275
C22	C	0.823041	0.294228	-0.146770
C23	C	1.481213	-0.461420	-0.393122
C24	C	1.478720	-0.555474	-0.346214
C25	C	1.478718	-0.555457	-0.097034
C26	C	1.481217	-0.461401	-0.143921
C27	C	1.482464	-0.414390	-0.291966
C28	C	1.482468	-0.414371	-0.042765
C29	C	1.484961	-0.320324	-0.089649
C30	C	1.486203	-0.273306	-0.237689
C31	C	1.484956	-0.320342	-0.338850
C32	C	1.481213	-0.461383	0.105279
C33	C	1.482463	-0.414353	0.206435
C34	C	1.484965	-0.320305	0.159552
C35	C	1.486207	-0.273287	0.011512
C36	C	1.486211	-0.273268	0.260713
C37	C	1.488704	-0.179220	0.213829
C38	C	1.488700	-0.179239	-0.035372
C39	C	1.713300	0.127506	-0.063655
C40	C	1.852716	0.130156	-0.064993
C41	C	1.474821	0.297418	-0.148315
C42	C	1.477469	0.397513	-0.198200
N43	N	1.483715	0.132657	0.289914
N44	N	1.483714	0.132640	-0.422314
C45	C	1.569009	0.071923	0.392102
C46	C	1.569005	0.071912	0.535991
C47	C	1.398411	0.193377	0.475486
C48	C	1.398409	0.193383	0.331603
C49	C	1.654314	0.011197	0.350414
C50	C	1.739616	-0.049541	0.452604
C51	C	1.739613	-0.049552	0.596493
C52	C	1.654308	0.011175	0.638191
H53	H	1.191691	0.301260	-0.150214
H54	H	0.716375	0.292202	-0.145759
Cl55	Cl	1.654327	0.011211	0.169526
Cl56	Cl	1.482799	-0.402315	-0.579240
Cl57	Cl	1.291183	0.269717	0.527907
H58	H	1.485982	-0.282064	-0.459403
H59	H	1.809061	-0.098988	0.418648
Cl60	Cl	1.846835	-0.125913	0.724962
Cl61	Cl	1.477141	-0.614594	-0.473399
H62	H	1.489695	-0.140925	0.296199
H63	H	1.477698	-0.593745	0.023505
Cl64	Cl	1.478075	-0.579616	0.164218
H65	H	0.891793	-0.018443	0.009063
H66	H	1.654304	0.011155	0.755360
H67	H	1.481443	-0.452642	0.326974
H68	H	1.485184	-0.311557	0.381252
H69	H	1.328955	0.242837	0.248398
H70	H	0.808304	0.443298	-0.221062
Cl71	Cl	1.068392	0.484707	-0.241653
H72	H	1.489726	-0.140961	-0.155925
Cl73	Cl	1.165038	-0.049698	0.024725
H74	H	1.488219	-0.196725	-0.275860
