data_functionalizedCrystal
_audit_creation_method	'MofGen! by Chris Wilmer'
_symmetry_space_group_name_H-M	'P1'
_symmetry_Int_Tables_number	1
_symmetry_cell_setting	triclinic
loop_
_symmetry_equiv_pos_as_xyz
  x,y,z
_cell_length_a	14.971486
_cell_length_b	23.532407
_cell_length_c	13.448316
_cell_angle_alpha	89.988737
_cell_angle_beta	89.998199
_cell_angle_gamma	83.231404
loop_
_atom_site_label
_atom_site_type_symbol
_atom_site_fract_x
_atom_site_fract_y
_atom_site_fract_z
O1	O	1.186163	0.074216	-0.082588
O2	O	0.925669	0.083104	-0.082616
O3	O	1.063771	-0.004238	-0.082583
O4	O	1.048061	0.161558	-0.082621
O5	O	1.063754	-0.004243	0.082801
O6	O	0.925652	0.083099	0.082767
O7	O	1.186146	0.074211	0.082796
Cu8	Cu	1.055897	0.078654	0.097882
Cu9	Cu	1.055918	0.078661	-0.097703
O10	O	1.048044	0.161553	0.082763
C11	C	0.892340	0.082704	0.000072
C12	C	0.793056	0.081513	0.000062
C13	C	0.735288	0.132824	0.000052
C14	C	0.642001	0.131701	0.000067
C15	C	0.606482	0.079267	0.000085
C16	C	0.664257	0.027952	0.000099
C17	C	0.757543	0.029075	0.000091
C18	C	0.469819	0.025615	0.000113
C19	C	0.376527	0.024491	0.000119
C20	C	0.354277	0.128241	0.000089
C21	C	0.447563	0.129364	0.000081
C22	C	0.505331	0.078049	0.000093
C23	C	1.063363	-0.025458	0.000111
C24	C	1.062160	-0.088680	0.000119
C25	C	1.136342	-0.487466	0.000072
C26	C	1.135224	-0.546871	0.000065
O27	O	1.203992	-0.583321	0.000035
N28	N	1.053123	-0.569849	0.000056
C29	C	0.972133	-0.533418	0.000046
O30	O	0.902196	-0.558417	0.000037
C31	C	0.973251	-0.474014	0.000046
C32	C	1.055358	-0.451040	0.000065
C33	C	1.218442	-0.464491	0.000090
C34	C	1.219559	-0.405090	0.000099
C35	C	1.138576	-0.368664	0.000091
C36	C	1.056475	-0.391639	0.000074
C37	C	0.892263	-0.437584	0.000029
C38	C	0.893388	-0.378177	0.000028
C39	C	0.975495	-0.355203	0.000047
C40	C	0.976609	-0.295812	0.000076
N41	N	1.058711	-0.272834	0.000084
C42	C	1.139694	-0.309260	0.000092
C43	C	0.969791	-0.658170	0.000043
C44	C	0.968671	-0.717573	0.000049
C45	C	1.131763	-0.731022	0.000066
C46	C	1.132882	-0.671618	0.000067
C47	C	1.051892	-0.635193	0.000051
C48	C	1.142034	-0.184513	0.000113
C49	C	1.143143	-0.125106	0.000126
C50	C	0.980052	-0.111663	0.000104
C51	C	0.978942	-0.171064	0.000096
C52	C	1.059940	-0.207489	0.000097
O53	O	0.907878	-0.259327	0.000101
O54	O	1.209619	-0.284253	0.000087
C55	C	1.219475	0.074611	0.000105
C56	C	1.318760	0.075802	0.000109
C57	C	1.048453	0.182773	0.000066
C58	C	1.049655	0.245996	0.000052
N59	N	1.055890	0.078650	0.235447
N60	N	1.055933	0.078661	-0.235267
C61	C	1.117060	0.039991	0.287502
C62	C	1.117066	0.039990	0.391605
C63	C	1.055904	0.078652	0.443651
C64	C	0.994728	0.117313	0.391589
C65	C	0.994718	0.117310	0.287488
C66	C	0.994752	0.117317	0.608569
C67	C	0.994762	0.117320	0.712678
C68	C	1.117100	0.039997	0.712686
C69	C	1.117090	0.039994	0.608585
C70	C	1.055914	0.078656	0.556530
H71	H	0.307237	0.170023	0.000084
H72	H	0.825402	-0.456279	0.000008
H73	H	1.207990	-0.214164	0.000110
O74	O	1.176413	0.002303	0.558185
C75	C	1.162279	-0.054044	0.583829
H76	H	1.090639	-0.054320	0.612388
H77	H	1.172840	-0.082694	0.515477
H78	H	1.211929	-0.070683	0.644355
O79	O	1.210351	-0.766494	0.000018
C80	C	1.191748	-0.823850	0.000032
H81	H	1.121514	-0.826171	-0.031279
H82	H	1.243397	-0.850718	-0.047988
H83	H	1.195293	-0.841040	0.079372
H84	H	0.594969	0.173484	0.000057
H85	H	0.944924	0.148790	0.433971
H86	H	0.944906	0.148789	0.245105
O87	O	1.299397	-0.382872	0.000065
C88	C	1.370625	-0.427770	0.000093
H89	H	1.345913	-0.468136	-0.031221
H90	H	1.427988	-0.415311	-0.047918
H91	H	1.395572	-0.436168	0.079437
O92	O	0.891171	-0.622730	0.000174
C93	C	0.886914	-0.587987	0.085841
H94	H	0.957877	-0.584924	0.114403
H95	H	0.853179	-0.543367	0.066577
H96	H	0.846243	-0.607573	0.145815
O97	O	0.342172	-0.026492	0.000183
C98	C	0.413160	-0.071543	0.000173
H99	H	0.476398	-0.055539	0.031478
H100	H	0.393984	-0.108146	0.048201
H101	H	0.426503	-0.087374	-0.079164
O102	O	0.769638	0.183809	0.000077
C103	C	0.698642	0.228856	0.000047
H104	H	0.635409	0.212845	0.031368
H105	H	0.717813	0.265459	0.048052
H106	H	0.685294	0.244689	-0.079298
H107	H	1.210008	-0.106405	0.000144
H108	H	1.284392	-0.494144	0.000092
H109	H	0.635331	-0.014741	0.000128
H110	H	0.827435	-0.348522	0.000014
O111	O	0.888936	-0.739915	0.000217
C112	C	0.883402	-0.773898	0.085851
H113	H	0.930008	-0.759826	0.145728
H114	H	0.811264	-0.768623	0.114591
H115	H	0.904456	-0.820724	0.066481
O116	O	1.212662	-0.649330	-0.000101
C117	C	1.262010	-0.667946	-0.085736
H118	H	1.213993	-0.680333	-0.145606
H119	H	1.299743	-0.631932	-0.114488
H120	H	1.312199	-0.706626	-0.066363
O121	O	0.481918	0.180347	0.000105
C122	C	0.410929	0.225398	0.000074
H123	H	0.347693	0.209393	0.031394
H124	H	0.430107	0.262000	0.048077
H125	H	0.397586	0.241231	-0.079273
H126	H	1.166911	0.008517	0.755076
O127	O	0.899107	-0.193291	0.000037
C128	C	0.827869	-0.148399	0.000062
H129	H	0.852580	-0.108019	-0.031227
H130	H	0.770523	-0.160846	-0.047973
H131	H	0.802901	-0.140030	0.079402
O132	O	0.935253	0.154889	0.763083
C133	C	0.881260	0.189015	0.694818
H134	H	0.880463	0.165667	0.620617
H135	H	0.809756	0.197613	0.724905
H136	H	0.909898	0.231360	0.683732
O137	O	0.526029	-0.024194	-0.000011
C138	C	0.580633	-0.026649	-0.085683
H139	H	0.584942	0.018560	-0.114247
H140	H	0.650944	-0.047813	-0.066422
H141	H	0.550170	-0.052678	-0.145653
H142	H	0.914118	-0.081994	0.000101
H143	H	0.804577	-0.012707	0.000098
O144	O	1.176508	0.002379	0.237103
C145	C	1.230513	-0.031733	0.305377
H146	H	1.193854	-0.032412	0.379589
H147	H	1.244563	-0.077201	0.275318
H148	H	1.296790	-0.013171	0.316431
O149	O	1.176525	0.002518	0.442286
C150	C	1.231440	0.033083	0.502464
H151	H	1.195412	0.077609	0.518041
H152	H	1.245808	0.009331	0.575679
H153	H	1.297505	0.037025	0.462337
H154	H	0.944933	0.148797	0.566189
