data_functionalizedCrystal
_audit_creation_method	'MofGen! by Chris Wilmer'
_symmetry_space_group_name_H-M	'P1'
_symmetry_Int_Tables_number	1
_symmetry_cell_setting	triclinic
loop_
_symmetry_equiv_pos_as_xyz
  x,y,z
_cell_length_a	27.731994
_cell_length_b	27.732064
_cell_length_c	14.421503
_cell_angle_alpha	90.008357
_cell_angle_beta	89.998531
_cell_angle_gamma	82.634978
loop_
_atom_site_label
_atom_site_type_symbol
_atom_site_fract_x
_atom_site_fract_y
_atom_site_fract_z
O1	O	0.640951	0.057385	-0.076972
O2	O	1.140951	0.557385	0.423028
O3	O	0.500154	0.066158	-0.077002
O4	O	1.000154	0.566158	0.422998
O5	O	0.574921	-0.008626	-0.076989
O6	O	1.074921	0.491374	0.423011
O7	O	0.566184	0.132168	-0.076984
O8	O	1.066184	0.632168	0.423016
O9	O	0.574909	-0.008614	0.077234
O10	O	1.074909	0.491386	0.577234
O11	O	0.500142	0.066169	0.077222
O12	O	1.000142	0.566169	0.577222
O13	O	0.640938	0.057396	0.077252
O14	O	1.140938	0.557396	0.577252
Cu15	Cu	0.570539	0.061784	0.091319
Cu16	Cu	1.070539	0.561784	0.591319
Cu17	Cu	0.570554	0.061770	-0.091069
Cu18	Cu	1.070554	0.561770	0.408931
O19	O	0.566171	0.132180	0.077239
O20	O	1.066171	0.632180	0.577239
C21	C	0.482140	0.065983	0.000106
C22	C	0.982140	0.565983	0.500106
C23	C	0.428484	0.065441	0.000095
C24	C	0.928484	0.565441	0.500095
C25	C	0.095759	0.062031	0.084197
C26	C	0.595759	0.562031	0.584197
C27	C	-0.105900	0.059970	0.084208
C28	C	0.394100	0.559970	0.584208
O29	O	-0.131978	0.059688	0.155704
O30	O	0.368022	0.559688	0.655704
N31	N	-0.131108	0.059708	0.000141
N32	N	0.368892	0.559708	0.500141
C33	C	-0.105898	0.059958	-0.083935
C34	C	0.394102	0.559958	0.416065
O35	O	-0.131965	0.059683	-0.155439
O36	O	0.368035	0.559683	0.344561
C37	C	0.095760	0.062016	-0.083944
C38	C	0.595760	0.562016	0.416056
C39	C	0.120965	0.062283	0.000128
C40	C	0.620965	0.562283	0.500128
C41	C	0.120964	0.062298	0.168263
C42	C	0.620964	0.562298	0.668263
C43	C	0.171375	0.062816	0.168260
C44	C	0.671375	0.562816	0.668260
C45	C	0.196581	0.063067	0.084191
C46	C	0.696581	0.563067	0.584191
C47	C	0.171376	0.062801	0.000125
C48	C	0.671376	0.562801	0.500125
C49	C	0.120970	0.062263	-0.168019
C50	C	0.620970	0.562263	0.331981
C51	C	0.171388	0.062776	-0.168014
C52	C	0.671388	0.562776	0.331986
C53	C	0.196592	0.063043	-0.083941
C54	C	0.696592	0.563043	0.416059
C55	C	0.246994	0.063571	-0.083948
C56	C	0.746994	0.563571	0.416052
N57	N	0.272202	0.063833	0.000119
N58	N	0.772202	0.563833	0.500119
C59	C	0.246995	0.063581	0.084188
C60	C	0.746995	0.563581	0.584188
C61	C	-0.211771	0.058878	-0.083924
C62	C	0.288229	0.558878	0.416076
C63	C	-0.262185	0.058365	-0.083922
C64	C	0.237815	0.558365	0.416078
C65	C	-0.262184	0.058376	0.084221
C66	C	0.237816	0.558376	0.584221
C67	C	-0.211769	0.058893	0.084218
C68	C	0.288231	0.558893	0.584218
C69	C	-0.186563	0.059140	0.000143
C70	C	0.313437	0.559140	0.500143
C71	C	0.352862	0.064669	0.084175
C72	C	0.852862	0.564669	0.584175
C73	C	0.403278	0.065189	0.084164
C74	C	0.903278	0.565189	0.584164
C75	C	0.403272	0.065176	-0.083979
C76	C	0.903272	0.565176	0.416021
C77	C	0.352861	0.064658	-0.083968
C78	C	0.852861	0.564658	0.416032
C79	C	0.327657	0.064403	0.000116
C80	C	0.827657	0.564403	0.500116
O81	O	0.273104	0.063848	-0.155406
O82	O	0.773104	0.563848	0.344594
O83	O	0.273073	0.063846	0.155682
O84	O	0.773073	0.563846	0.655682
C85	C	0.045348	0.061513	0.084201
C86	C	0.545348	0.561513	0.584201
C87	C	0.020143	0.061247	0.000135
C88	C	0.520143	0.561247	0.500135
C89	C	0.045349	0.061498	-0.083934
C90	C	0.545349	0.561498	0.416066
C91	C	-0.030272	0.060733	0.000137
C92	C	0.469728	0.560733	0.500137
C93	C	-0.055478	0.060482	0.084206
C94	C	0.444522	0.560482	0.584206
C95	C	-0.030270	0.060744	0.168274
C96	C	0.469730	0.560744	0.668274
C97	C	0.020141	0.061262	0.168270
C98	C	0.520141	0.561262	0.668270
C99	C	0.020141	0.061236	-0.168001
C100	C	0.520141	0.561236	0.331999
C101	C	-0.030271	0.060719	-0.167991
C102	C	0.469729	0.560719	0.332009
C103	C	-0.055477	0.060467	-0.083922
C104	C	0.444523	0.560467	0.416078
C105	C	0.574730	-0.026627	0.000119
C106	C	1.074730	0.473373	0.500119
C107	C	0.574174	-0.080281	0.000111
C108	C	1.074174	0.419719	0.500111
C109	C	0.526206	-0.457344	0.000097
C110	C	1.026206	0.042656	0.500097
C111	C	0.528252	-0.255685	0.000096
C112	C	1.028252	0.244315	0.500096
O113	O	0.491030	-0.224425	0.000051
O114	O	0.991030	0.275575	0.500051
N115	N	0.572588	-0.236566	0.000105
N116	N	1.072588	0.263434	0.500105
C117	C	0.616415	-0.267865	0.000109
C118	C	1.116415	0.232135	0.500109
O119	O	0.654172	-0.246976	0.000107
O120	O	1.154172	0.253024	0.500107
C121	C	0.614368	-0.469524	0.000103
C122	C	1.114368	0.030476	0.500103
C123	C	0.570029	-0.488640	0.000103
C124	C	1.070029	0.011360	0.500103
C125	C	0.481871	-0.476461	0.000096
C126	C	0.981871	0.023539	0.500096
C127	C	0.481360	-0.526873	0.000101
C128	C	0.981360	-0.026873	0.500101
C129	C	0.525184	-0.558168	0.000107
C130	C	1.025184	-0.058168	0.500107
C131	C	0.569518	-0.539052	0.000108
C132	C	1.069518	-0.039052	0.500108
C133	C	0.658194	-0.500823	0.000100
C134	C	1.158194	-0.000823	0.500100
C135	C	0.657679	-0.551240	0.000096
C136	C	1.157679	-0.051240	0.500096
C137	C	0.613340	-0.570356	0.000096
C138	C	1.113340	-0.070356	0.500096
C139	C	0.612831	-0.620760	0.000120
C140	C	1.112831	-0.120760	0.500120
N141	N	0.568495	-0.639879	0.000110
N142	N	1.068495	-0.139879	0.500110
C143	C	0.524672	-0.608583	0.000104
C144	C	1.024672	-0.108583	0.500104
C145	C	0.617486	-0.161991	0.000114
C146	C	1.117486	0.338009	0.500114
C147	C	0.617998	-0.111577	0.000117
C148	C	1.117998	0.388423	0.500117
C149	C	0.529835	-0.099399	0.000102
C150	C	1.029835	0.400601	0.500102
C151	C	0.529324	-0.149815	0.000106
C152	C	1.029324	0.350185	0.500106
C153	C	0.573151	-0.181110	0.000104
C154	C	1.073151	0.318890	0.500104
C155	C	0.523602	-0.714452	0.000116
C156	C	1.023602	-0.214452	0.500116
C157	C	0.523095	-0.764869	0.000125
C158	C	1.023095	-0.264869	0.500125
C159	C	0.611257	-0.777042	0.000135
C160	C	1.111257	-0.277042	0.500135
C161	C	0.611764	-0.726630	0.000130
C162	C	1.111764	-0.226630	0.500130
C163	C	0.567933	-0.695335	0.000118
C164	C	1.067933	-0.195335	0.500118
O165	O	0.650033	-0.652048	0.000154
O166	O	1.150033	-0.152048	0.500154
O167	O	0.486920	-0.629481	0.000085
O168	O	0.986920	-0.129481	0.500085
C169	C	0.526717	-0.406932	0.000092
C170	C	1.026717	0.093068	0.500092
C171	C	0.571052	-0.387816	0.000093
C172	C	1.071052	0.112184	0.500093
C173	C	0.614875	-0.419112	0.000099
C174	C	1.114875	0.080888	0.500099
C175	C	0.571563	-0.337402	0.000096
C176	C	1.071563	0.162598	0.500096
C177	C	0.527740	-0.306106	0.000090
C178	C	1.027740	0.193894	0.500090
C179	C	0.483404	-0.325225	0.000080
C180	C	0.983404	0.174775	0.500080
C181	C	0.482893	-0.375637	0.000086
C182	C	0.982893	0.124363	0.500086
C183	C	0.659211	-0.399993	0.000108
C184	C	1.159211	0.100007	0.500108
C185	C	0.659718	-0.349580	0.000104
C186	C	1.159718	0.150420	0.500104
C187	C	0.615895	-0.318285	0.000098
C188	C	1.115895	0.181715	0.500098
C189	C	0.658952	0.057571	0.000142
C190	C	1.158952	0.557571	0.500142
C191	C	0.712608	0.058113	0.000147
C192	C	1.212608	0.558113	0.500147
C193	C	0.566362	0.150181	0.000129
C194	C	1.066362	0.650181	0.500129
C195	C	0.566918	0.203835	0.000131
C196	C	1.066918	0.703835	0.500131
N197	N	0.570532	0.061793	0.219600
N198	N	1.070532	0.561793	0.719600
N199	N	0.570564	0.061758	-0.219350
N200	N	1.070564	0.561758	0.280650
C201	C	0.535954	0.096357	0.469248
C202	C	1.035954	0.596357	0.969248
C203	C	0.579565	0.105404	0.531060
C204	C	1.079565	0.605404	1.031060
C205	C	0.570544	0.061781	0.408761
C206	C	1.070544	0.561781	0.908761
C207	C	0.526944	0.052745	0.531043
C208	C	1.026944	0.552745	1.031043
C209	C	0.570551	0.061771	0.591483
C210	C	1.070551	0.561771	1.091483
C211	C	0.614177	0.070850	0.469213
C212	C	1.114177	0.570850	0.969213
C213	C	0.561528	0.018171	0.469190
C214	C	1.061528	0.518171	0.969190
C215	C	0.605170	0.027200	0.530974
C216	C	1.105170	0.527200	1.030974
C217	C	0.570539	0.061788	0.303500
C218	C	1.070539	0.561788	0.803500
C219	C	0.570562	0.061763	0.696742
C220	C	1.070562	0.561763	1.196742
H221	H	0.332347	0.064466	0.152644
H222	H	0.832347	0.564466	0.652644
H223	H	0.040659	0.061440	-0.236462
H224	H	0.540659	0.561440	0.263538
O225	O	0.653781	-0.807516	0.000099
O226	O	1.153781	-0.307516	0.500099
C227	C	0.643817	-0.856111	0.000122
C228	C	1.143817	-0.356111	0.500122
H229	H	0.605863	-0.857759	-0.029074
H230	H	1.105863	-0.357759	0.470926
H231	H	0.671772	-0.879167	-0.044655
H232	H	1.171772	-0.379167	0.455345
H233	H	0.645758	-0.870700	0.074110
H234	H	1.145758	-0.370700	0.574110
H235	H	0.447722	-0.299735	0.000081
H236	H	0.947722	0.200265	0.500081
H237	H	0.694299	-0.485268	0.000099
H238	H	1.194299	0.014732	0.500099
O239	O	0.661081	-0.093034	-0.000038
O240	O	1.161081	0.406966	0.499962
C241	C	0.687779	-0.109077	-0.079898
C242	C	1.187779	0.390923	0.420102
H243	H	0.661847	-0.119374	-0.135727
H244	H	1.161847	0.380626	0.364273
H245	H	0.708116	-0.078691	-0.106707
H246	H	1.208116	0.421309	0.393293
H247	H	0.714963	-0.142140	-0.061838
H248	H	1.214963	0.357860	0.438162
O249	O	0.438276	-0.545414	-0.000073
O250	O	0.938276	-0.045414	0.499927
C251	C	0.411591	-0.529380	-0.079942
C252	C	0.911591	-0.029380	0.420058
H253	H	0.437532	-0.519094	-0.135761
H254	H	0.937532	-0.019094	0.364239
H255	H	0.391255	-0.559768	-0.106761
H256	H	0.891255	-0.059768	0.393239
H257	H	0.384407	-0.496313	-0.061890
H258	H	0.884407	0.003687	0.438110
O259	O	0.482934	0.043600	0.563285
O260	O	0.982934	0.543600	1.063285
C261	C	0.451918	0.037660	0.487814
C262	C	0.951918	0.537660	0.987814
H263	H	0.474674	0.026592	0.423628
H264	H	0.974674	0.526592	0.923628
H265	H	0.428191	0.008191	0.504928
H266	H	0.928191	0.508191	1.004928
H267	H	0.427807	0.073392	0.473859
H268	H	0.927807	0.573392	0.973859
O269	O	0.439780	-0.394122	0.000038
O270	O	0.939780	0.105878	0.500038
C271	C	0.401215	-0.355681	0.000055
C272	C	0.901215	0.144319	0.500055
H273	H	0.414511	-0.321534	-0.029140
H274	H	0.914511	0.178466	0.470860
H275	H	0.370239	-0.365986	-0.044727
H276	H	0.870239	0.134014	0.455273
H277	H	0.387711	-0.348438	0.074041
H278	H	0.887711	0.151562	0.574041
O279	O	-0.286602	0.058150	0.165971
O280	O	0.213398	0.558150	0.665971
C281	C	-0.253546	0.058476	0.240181
C282	C	0.246454	0.558476	0.740181
H283	H	-0.219724	0.074153	0.215549
H284	H	0.280276	0.574153	0.715549
H285	H	-0.271363	0.081803	0.298983
H286	H	0.228637	0.581803	0.798983
H287	H	-0.242824	0.019736	0.266018
H288	H	0.257176	0.519736	0.766018
H289	H	0.191908	0.062978	-0.236480
H290	H	0.691908	0.562978	0.263520
O291	O	0.660030	-0.192438	0.000240
O292	O	1.160030	0.307562	0.500240
C293	C	0.662376	-0.221951	0.080123
C294	C	1.162376	0.278049	0.580123
H295	H	0.624026	-0.224220	0.106745
H296	H	1.124026	0.275780	0.606745
H297	H	0.680679	-0.259979	0.062160
H298	H	1.180679	0.240021	0.562160
H299	H	0.684320	-0.205520	0.136059
H300	H	1.184320	0.294480	0.636059
O301	O	0.501042	0.131201	0.436859
O302	O	1.001042	0.631201	0.936859
C303	C	0.467373	0.109301	0.383062
C304	C	0.967373	0.609301	0.883062
H305	H	0.468444	0.069557	0.404107
H306	H	0.968444	0.569557	0.904107
H307	H	0.429264	0.129113	0.395029
H308	H	0.929264	0.629113	0.895029
H309	H	0.477182	0.111526	0.306548
H310	H	0.977182	0.611526	0.806548
O311	O	0.658212	0.080002	0.437113
O312	O	1.158212	0.580002	0.937113
C313	C	0.689015	0.086407	0.512684
C314	C	1.189015	0.586407	1.012684
H315	H	0.675922	0.067630	0.576536
H316	H	1.175922	0.567630	1.076536
H317	H	0.727727	0.069884	0.495237
H318	H	1.227727	0.569884	0.995237
H319	H	0.688306	0.126885	0.527387
H320	H	1.188306	0.626885	1.027387
H321	H	0.694898	-0.425469	0.000112
H322	H	1.194898	0.074531	0.500112
O323	O	0.328415	0.064472	-0.165691
O324	O	0.828415	0.564472	0.334309
C325	C	0.334930	0.106483	-0.216821
C326	C	0.834930	0.606483	0.283179
H327	H	0.369603	0.120824	-0.192919
H328	H	0.869603	0.620824	0.307081
H329	H	0.337957	0.097079	-0.293732
H330	H	0.837957	0.597079	0.206268
H331	H	0.302500	0.135517	-0.205158
H332	H	0.802500	0.635517	0.294842
H333	H	-0.282704	0.058155	-0.152382
H334	H	0.217296	0.558155	0.347618
O335	O	-0.187368	0.059142	-0.165684
O336	O	0.312632	0.559142	0.334316
C337	C	-0.220432	0.058789	-0.239872
C338	C	0.279568	0.558789	0.260128
H339	H	-0.258483	0.073733	-0.215210
H340	H	0.241517	0.573733	0.284790
H341	H	-0.209115	0.082412	-0.298673
H342	H	0.290885	0.582412	0.201327
H343	H	-0.220434	0.019939	-0.265723
H344	H	0.279566	0.519939	0.234277
H345	H	0.634457	-0.002046	0.557907
H346	H	1.134457	0.497954	1.057907
O347	O	0.427808	0.065485	-0.165579
O348	O	0.927808	0.565485	0.334421
C349	C	0.451172	0.107668	-0.170619
C350	C	0.951172	0.607668	0.329381
H351	H	0.456786	0.121717	-0.097627
H352	H	0.956786	0.621717	0.402373
H353	H	0.487929	0.098606	-0.206187
H354	H	0.987929	0.598606	0.293813
H355	H	0.427694	0.136790	-0.212118
H356	H	0.927694	0.636790	0.287882
O357	O	0.588739	0.149392	0.563384
O358	O	1.088739	0.649392	1.063384
C359	C	0.634378	0.159184	0.530553
C360	C	1.134378	0.659184	1.030553
H361	H	0.644177	0.137122	0.464983
H362	H	1.144177	0.637122	0.964983
H363	H	0.632668	0.199590	0.514245
H364	H	1.132668	0.699590	1.014245
H365	H	0.663193	0.148759	0.585882
H366	H	1.163193	0.648759	1.085882
O367	O	0.487232	-0.069043	-0.000033
O368	O	0.987232	0.430957	0.499967
C369	C	0.460306	-0.077654	-0.079930
C370	C	0.960306	0.422346	0.420070
H371	H	0.472467	-0.115993	-0.106552
H372	H	0.972467	0.384007	0.393448
H373	H	0.419960	-0.073800	-0.061984
H374	H	0.919960	0.426200	0.438016
H375	H	0.466717	-0.050131	-0.135859
H376	H	0.966717	0.449869	0.364141
H377	H	0.695827	-0.334022	0.000111
H378	H	1.195827	0.165978	0.500111
O379	O	0.552434	-0.025783	0.436578
O380	O	1.052434	0.474217	0.936578
C381	C	0.552990	-0.025286	0.338824
C382	C	1.052990	0.474714	0.838824
H383	H	0.575320	0.003909	0.313634
H384	H	1.075320	0.503909	0.813634
H385	H	0.569912	-0.062306	0.312057
H386	H	1.069912	0.437694	0.812057
H387	H	0.514188	-0.017058	0.311733
H388	H	1.014188	0.482942	0.811733
H389	H	0.693369	-0.576719	0.000089
H390	H	1.193369	-0.076719	0.500089
H391	H	0.423797	0.065409	0.152629
H392	H	0.923797	0.565409	0.652629
H393	H	0.100446	0.062092	0.236726
H394	H	0.600446	0.562092	0.736726
O395	O	0.195784	0.063048	0.250012
O396	O	0.695784	0.563048	0.750012
C397	C	0.162716	0.062726	0.324203
C398	C	0.662716	0.562726	0.824203
H399	H	0.128897	0.047050	0.299544
H400	H	0.628897	0.547050	0.799544
H401	H	0.180521	0.039400	0.383002
H402	H	0.680521	0.539400	0.883002
H403	H	0.151990	0.101467	0.350057
H404	H	0.651990	0.601467	0.850057
H405	H	-0.050802	0.060541	0.236726
H406	H	0.449198	0.560541	0.736726
H407	H	0.100457	0.062045	-0.236480
H408	H	0.600457	0.562045	0.263520
H409	H	-0.050789	0.060505	-0.236458
H410	H	0.449211	0.560505	0.263542
H411	H	0.486987	-0.780430	0.000130
H412	H	0.986987	-0.280430	0.500130
H413	H	-0.191251	0.059111	0.152678
H414	H	0.308749	0.559111	0.652678
O415	O	0.480980	-0.684126	0.000148
O416	O	0.980980	-0.184126	0.500148
C417	C	0.441745	-0.711819	0.000125
C418	C	0.941745	-0.211819	0.500125
H419	H	0.454308	-0.749537	0.029326
H420	H	0.954308	-0.249537	0.529326
H421	H	0.411059	-0.692994	0.044899
H422	H	0.911059	-0.192994	0.544899
H423	H	0.428140	-0.715317	-0.073864
H424	H	0.928140	-0.215317	0.426136
H425	H	0.647868	-0.711065	0.000144
H426	H	1.147868	-0.211065	0.500144
H427	H	0.040659	0.061479	0.236731
H428	H	0.540659	0.561479	0.736731
O429	O	0.439329	-0.446015	0.000216
O430	O	0.939329	0.053985	0.500216
C431	C	0.436973	-0.416494	0.080105
C432	C	0.936973	0.083506	0.580105
H433	H	0.475320	-0.414219	0.106735
H434	H	0.975320	0.085781	0.606735
H435	H	0.418670	-0.378468	0.062146
H436	H	0.918670	0.121532	0.562146
H437	H	0.415026	-0.432920	0.136033
H438	H	0.915026	0.067080	0.636033
O439	O	0.486285	-0.168439	-0.000026
O440	O	0.986285	0.331561	0.499974
C441	C	0.483348	-0.197230	-0.079916
C442	C	0.983348	0.302770	0.420084
H443	H	0.521544	-0.210075	-0.106540
H444	H	1.021544	0.289925	0.393460
H445	H	0.464326	-0.230100	-0.061961
H446	H	0.964326	0.269900	0.438039
H447	H	0.461798	-0.174795	-0.135847
H448	H	0.961798	0.325205	0.364153
