data_functionalizedCrystal
_audit_creation_method	'MofGen! by Chris Wilmer'
_symmetry_space_group_name_H-M	'P1'
_symmetry_Int_Tables_number	1
_symmetry_cell_setting	triclinic
loop_
_symmetry_equiv_pos_as_xyz
  x,y,z
_cell_length_a	10.489741
_cell_length_b	13.339070
_cell_length_c	12.377033
_cell_angle_alpha	104.399783
_cell_angle_beta	101.397158
_cell_angle_gamma	79.915766
loop_
_atom_site_label
_atom_site_type_symbol
_atom_site_fract_x
_atom_site_fract_y
_atom_site_fract_z
O1	O	0.658717	-1.327674	0.094037
O2	O	0.574568	-1.032535	0.094031
O3	O	0.433342	-1.186822	0.094027
O4	O	0.799942	-1.173387	0.094040
O5	O	0.398096	-1.225351	-0.093969
O6	O	0.539322	-1.071064	-0.093966
O7	O	0.623470	-1.366203	-0.093960
Zn8	Zn	0.575800	-1.224751	-0.123811
Zn9	Zn	0.622238	-1.173987	0.123882
O10	O	0.764696	-1.211916	-0.093956
C11	C	0.542731	-1.014007	0.000031
C12	C	0.500361	-0.901397	0.000029
C13	C	0.367840	-1.205071	0.000030
C14	C	0.225172	-1.202036	0.000032
C15	C	0.655308	-1.384730	0.000042
C16	C	0.697679	-1.497339	0.000052
C17	C	0.123426	-1.103867	0.000038
C18	C	0.029801	-1.169237	-0.092653
C19	C	0.064585	-1.131274	0.092696
C20	C	0.133412	-1.267462	-0.092736
C21	C	0.168216	-1.229468	0.092697
C22	C	0.074639	-1.294914	-0.000017
C23	C	0.830198	-1.193666	0.000044
C24	C	0.972868	-1.196700	0.000049
N25	N	0.544109	-1.259403	-0.292856
C26	C	0.829805	-0.538998	0.000059
C27	C	0.869617	-0.644800	0.000065
C28	C	0.777307	-0.708954	0.000055
C29	C	0.645177	-0.667297	0.000041
C30	C	0.605362	-0.561483	0.000044
C31	C	0.552864	-0.731439	0.000040
C32	C	0.420734	-0.689782	0.000026
C33	C	0.380925	-0.583978	0.000028
C34	C	0.473236	-0.519824	0.000037
C35	C	0.592679	-0.837253	0.000037
C36	C	0.368236	-0.859738	0.000022
C37	C	0.328423	-0.753936	0.000016
C38	C	0.727512	-1.058875	-0.647921
C39	C	0.749697	-1.034602	-0.529591
C40	C	0.698302	-1.090801	-0.470402
C41	C	0.624718	-1.171275	-0.529554
C42	C	0.602523	-1.195545	-0.647895
C43	C	0.573313	-1.227471	-0.470375
C44	C	0.499729	-1.307945	-0.529527
C45	C	0.477538	-1.332211	-0.647857
C46	C	0.528933	-1.276013	-0.707047
C47	C	0.595508	-1.203201	-0.352034
C48	C	0.470519	-1.339871	-0.352008
C49	C	0.448334	-1.364144	-0.470338
N50	N	0.653922	-1.139343	0.292927
H51	H	0.145428	-1.023174	-0.000058
Br52	Br	0.377652	-1.441411	-0.728138
Br53	Br	0.183958	-1.363437	-0.223491
Br54	Br	0.038339	-1.429575	-0.000091
H55	H	0.904951	-0.486753	0.000076
H56	H	0.388420	-1.429668	-0.518514
H57	H	0.700259	-0.871160	0.000045
H58	H	-0.030123	-1.143761	-0.171019
H59	H	0.273339	-0.550062	0.000029
H60	H	0.428665	-1.385631	-0.303816
Br61	Br	0.149108	-0.697389	-0.000005
Br62	Br	0.268134	-1.271874	0.223319
Br63	Br	0.831340	-0.852545	0.000062
H64	H	0.034090	-1.073663	0.171067
Br65	Br	0.419206	-0.376230	0.000022
Br66	Br	0.695366	-1.093988	-0.271771
Br67	Br	1.048929	-0.701326	0.000093
Br68	Br	0.242950	-0.946793	0.000024
Br69	Br	0.849550	-0.925391	-0.449315
Br70	Br	0.797237	-0.982602	-0.728249
H71	H	0.716368	-1.071034	-0.374052
Br72	Br	0.498834	-1.308965	-0.867645
