data_functionalizedCrystal
_audit_creation_method	'MofGen! by Chris Wilmer'
_symmetry_space_group_name_H-M	'P1'
_symmetry_Int_Tables_number	1
_symmetry_cell_setting	triclinic
loop_
_symmetry_equiv_pos_as_xyz
  x,y,z
_cell_length_a	12.759401
_cell_length_b	16.625545
_cell_length_c	12.759393
_cell_angle_alpha	90.033904
_cell_angle_beta	90.018496
_cell_angle_gamma	90.025719
loop_
_atom_site_label
_atom_site_type_symbol
_atom_site_fract_x
_atom_site_fract_y
_atom_site_fract_z
Zn1	Zn	1.606176	-0.320951	0.593964
Zn2	Zn	1.606037	-0.455807	0.418277
Zn3	Zn	1.430478	-0.320993	0.418304
Zn4	Zn	1.430433	-0.455745	0.593919
O5	O	1.518281	-0.388374	0.506116
O6	O	1.753179	-0.338848	0.570667
O7	O	1.582709	-0.437968	0.271260
O8	O	1.453862	-0.208155	0.441636
O9	O	1.753077	-0.437927	0.441590
O10	O	1.582946	-0.208124	0.570693
O11	O	1.453727	-0.338920	0.271279
O12	O	1.283451	-0.338860	0.441591
O13	O	1.453786	-0.437821	0.740946
O14	O	1.283418	-0.437862	0.570615
O15	O	1.582903	-0.338788	0.740979
O16	O	1.582666	-0.568632	0.441546
O17	O	1.453651	-0.568586	0.570589
C18	C	1.245314	-0.388359	0.506102
C19	C	1.128537	-0.388372	0.506120
C20	C	1.073686	-0.440005	0.573192
C21	C	0.963962	-0.440015	0.573203
C22	C	0.963950	-0.336758	0.439063
C23	C	1.073672	-0.336744	0.439058
C24	C	1.128550	-0.491634	0.640255
C25	C	1.073699	-0.543271	0.707331
C26	C	0.963975	-0.543282	0.707342
C27	C	0.909102	-0.491654	0.640278
C28	C	1.518167	-0.597865	0.506083
C29	C	1.518214	-0.687486	0.506104
C30	C	1.518255	-0.760268	0.506125
C31	C	1.518316	-0.851577	0.506148
C32	C	1.518371	-0.924353	0.506161
C33	C	1.518431	-1.015668	0.506183
C34	C	1.792314	-0.388390	0.506131
C35	C	1.909091	-0.388396	0.506137
C36	C	1.518355	-0.388293	0.780149
C37	C	1.518386	-0.388258	0.896926
C38	C	1.518424	-0.178065	0.506172
C39	C	1.518485	-0.088444	0.506196
C40	C	1.518268	-0.388397	0.233149
C41	C	1.518441	-0.388204	0.116372
C42	C	1.585627	-0.336687	0.951807
C43	C	1.585652	-0.336657	1.061531
C44	C	1.451192	-0.439778	1.061484
C45	C	1.451163	-0.439803	0.951761
C46	C	1.652850	-0.285142	0.896972
C47	C	1.720097	-0.233567	0.951853
C48	C	1.720122	-0.233538	1.061577
C49	C	1.652900	-0.285084	1.116420
H50	H	1.118334	-0.294694	0.384450
H51	H	1.118383	-0.585299	0.761939
H52	H	1.217893	-0.491633	0.640251
O53	O	1.785386	-0.183325	1.114772
C54	C	1.762462	-0.102968	1.088002
H55	H	1.722053	-0.101315	1.008335
H56	H	1.708485	-0.075786	1.149760
C57	C	1.914551	-0.056168	1.180797
C58	C	1.864928	-0.054138	1.082945
H59	H	1.977756	-0.026045	1.177682
H60	H	1.929994	-0.110305	1.198837
H61	H	1.869560	-0.033518	1.232252
H62	H	1.909914	-0.076796	1.031495
H63	H	1.849495	-0.000003	1.064896
H64	H	1.652913	-0.285046	1.205765
H65	H	1.396463	-0.481744	1.106145
H66	H	1.774820	-0.191595	0.907193
O67	O	0.910768	-0.286655	0.373766
C68	C	0.937519	-0.304195	0.269013
H69	H	1.017173	-0.335177	0.266764
H70	H	0.875739	-0.345627	0.233534
C71	C	0.844762	-0.187480	0.208311
C72	C	0.942598	-0.225527	0.205549
H73	H	0.847891	-0.138956	0.169161
H74	H	0.826736	-0.175664	0.278885
H75	H	0.793289	-0.222015	0.178747
H76	H	0.994066	-0.190997	0.235124
H77	H	0.960633	-0.237336	0.134978
H78	H	1.652839	-0.285162	0.807629
O79	O	1.385835	-0.489991	0.898605
C80	C	1.326508	-0.535480	0.970530
H81	H	1.369547	-0.538241	1.048753
H82	H	1.246724	-0.505964	0.982188
C83	C	1.258477	-0.617919	0.831605
C84	C	1.311342	-0.621316	0.927678
H85	H	1.249117	-0.670866	0.805172
H86	H	1.298443	-0.587271	0.783147
H87	H	1.191996	-0.593319	0.841334
H88	H	1.377826	-0.645906	0.917946
H89	H	1.271386	-0.651970	0.976134
H90	H	0.919317	-0.585322	0.761966
H91	H	0.819757	-0.491660	0.640301
