data_functionalizedCrystal
_audit_creation_method	'MofGen! by Chris Wilmer'
_symmetry_space_group_name_H-M	'P1'
_symmetry_Int_Tables_number	1
_symmetry_cell_setting	triclinic
loop_
_symmetry_equiv_pos_as_xyz
  x,y,z
_cell_length_a	14.519709
_cell_length_b	15.995292
_cell_length_c	12.996460
_cell_angle_alpha	89.997047
_cell_angle_beta	90.000034
_cell_angle_gamma	83.574380
loop_
_atom_site_label
_atom_site_type_symbol
_atom_site_fract_x
_atom_site_fract_y
_atom_site_fract_z
O1	O	1.223644	0.109763	-0.085425
O2	O	1.723644	0.609763	0.414575
O3	O	0.955141	0.122689	-0.085456
O4	O	1.455141	0.622689	0.414544
O5	O	1.096760	-0.005654	-0.085441
O6	O	1.596760	0.494346	0.414559
O7	O	1.082025	0.238106	-0.085440
O8	O	1.582025	0.738106	0.414560
O9	O	1.096745	-0.005661	0.085692
O10	O	1.596745	0.494339	0.585692
O11	O	0.955126	0.122682	0.085678
O12	O	1.455126	0.622682	0.585678
O13	O	1.223629	0.109756	0.085708
O14	O	1.723629	0.609756	0.585708
Cu15	Cu	1.089376	0.116218	0.101319
Cu16	Cu	1.589376	0.616218	0.601319
Cu17	Cu	1.089394	0.116227	-0.101067
Cu18	Cu	1.589394	0.616227	0.398933
O19	O	1.082010	0.238099	0.085694
O20	O	1.582010	0.738099	0.585694
C21	C	0.920775	0.122083	0.000107
C22	C	1.420775	0.622083	0.500107
C23	C	0.818397	0.120278	0.000095
C24	C	1.318397	0.620278	0.500095
C25	C	0.443515	0.113632	0.000142
C26	C	0.943515	0.613632	0.500142
C27	C	0.547819	0.115478	0.000128
C28	C	1.047819	0.615478	0.500128
C29	C	0.630953	0.116955	0.000117
C30	C	1.130953	0.616955	0.500117
C31	C	0.735264	0.118801	0.000106
C32	C	1.235264	0.618801	0.500106
C33	C	1.096153	-0.036854	0.000123
C34	C	1.596153	0.463146	0.500123
C35	C	1.094355	-0.129810	0.000115
C36	C	1.594355	0.370190	0.500115
C37	C	1.087745	-0.467558	0.000124
C38	C	1.587745	0.032442	0.500124
C39	C	1.189962	-0.444093	0.000518
C40	C	1.689962	0.055907	0.500518
C41	C	1.191905	-0.347414	0.000128
C42	C	1.691905	0.152586	0.500128
C43	C	1.091025	-0.299997	0.000120
C44	C	1.591025	0.200003	0.500120
C45	C	1.039930	-0.329171	-0.097609
C46	C	1.539930	0.170829	0.402391
C47	C	1.038699	-0.425963	-0.097687
C48	C	1.538699	0.074037	0.402313
C49	C	1.036595	-0.425831	0.096924
C50	C	1.536595	0.074169	0.596924
C51	C	1.040383	-0.329333	0.098212
C52	C	1.540383	0.170667	0.598212
C53	C	1.092873	-0.205298	0.000114
C54	C	1.592873	0.294702	0.500114
C55	C	1.085894	-0.562257	0.000122
C56	C	1.585894	-0.062257	0.500122
C57	C	1.257995	0.110362	0.000143
C58	C	1.757995	0.610362	0.500143
C59	C	1.360373	0.112167	0.000149
C60	C	1.860373	0.612167	0.500149
C61	C	1.082617	0.269299	0.000127
C62	C	1.582617	0.769299	0.500127
C63	C	1.084415	0.362254	0.000129
C64	C	1.584415	0.862254	0.500129
N65	N	1.089371	0.116212	0.243666
N66	N	1.589371	0.616212	0.743666
N67	N	1.089407	0.116226	-0.243414
N68	N	1.589407	0.616226	0.256586
C69	C	1.089393	0.116227	0.663480
C70	C	1.589393	0.616227	1.163480
C71	C	1.089384	0.116226	0.546675
C72	C	1.589384	0.616226	1.046675
C73	C	1.089382	0.116220	0.453577
C74	C	1.589382	0.616220	0.953577
C75	C	1.089373	0.116217	0.336764
C76	C	1.589373	0.616217	0.836764
H77	H	1.231922	-0.328332	0.070183
H78	H	1.731922	0.171668	0.570183
H79	H	0.961356	-0.439934	0.097576
H80	H	1.461356	0.060066	0.597576
H81	H	1.229355	-0.472034	0.070603
H82	H	1.729355	0.027966	0.570603
C83	C	1.090632	-0.304175	0.195885
C84	C	1.590632	0.195825	0.695885
H85	H	1.142257	-0.275907	0.176974
H86	H	1.642257	0.224093	0.676974
H87	H	1.111473	-0.353211	0.234262
H88	H	1.611473	0.146789	0.734262
H89	H	1.049167	-0.267866	0.236668
H90	H	1.549167	0.232134	0.736668
C91	C	1.086523	-0.462123	-0.196359
C92	C	1.586523	0.037877	0.303641
H93	H	1.086191	-0.521479	-0.197279
H94	H	1.586191	-0.021479	0.302721
H95	H	1.148682	-0.448904	-0.197875
H96	H	1.648682	0.051096	0.302125
H97	H	1.054187	-0.438300	-0.254803
H98	H	1.554187	0.061700	0.245197
C99	C	1.242901	-0.483199	-0.093621
C100	C	1.742901	0.016801	0.406379
H101	H	1.202980	-0.513761	-0.133166
H102	H	1.702980	-0.013761	0.366834
H103	H	1.294789	-0.520137	-0.071146
H104	H	1.794789	-0.020137	0.428854
H105	H	1.263579	-0.439816	-0.134643
H106	H	1.763579	0.060184	0.365357
H107	H	1.232170	-0.328946	-0.070041
H108	H	1.732170	0.171054	0.429959
C109	C	0.937462	-0.445781	-0.103699
C110	C	1.437462	0.054219	0.396301
H111	H	0.936024	-0.505015	-0.103781
H112	H	1.436024	-0.005015	0.396219
H113	H	0.909825	-0.422566	-0.165102
H114	H	1.409825	0.077434	0.334898
H115	H	0.904083	-0.421994	-0.045908
H116	H	1.404083	0.078006	0.454092
C117	C	0.939650	-0.286267	-0.102538
C118	C	1.439650	0.213733	0.397462
H119	H	0.928027	-0.250091	-0.044904
H120	H	1.428027	0.249909	0.455096
H121	H	0.897854	-0.327900	-0.101635
H122	H	1.397854	0.172100	0.398365
H123	H	0.931210	-0.254322	-0.164116
H124	H	1.431210	0.245678	0.335884
H125	H	1.075424	-0.309054	-0.170331
H126	H	1.575424	0.190946	0.329669
C127	C	1.079842	-0.463939	0.196992
C128	C	1.579842	0.036061	0.696992
H129	H	1.129504	-0.505658	0.180668
H130	H	1.629504	-0.005658	0.680668
H131	H	1.034169	-0.488772	0.235146
H132	H	1.534169	0.011228	0.735146
H133	H	1.102557	-0.420896	0.236887
H134	H	1.602557	0.079104	0.736887
C135	C	0.940914	-0.284940	0.106188
C136	C	1.440914	0.215060	0.606188
H137	H	0.928912	-0.247774	0.049541
H138	H	1.428912	0.252226	0.549541
H139	H	0.934288	-0.253892	0.168561
H140	H	1.434288	0.246108	0.668561
H141	H	0.898173	-0.325771	0.105360
H142	H	1.398173	0.174229	0.605360
