data_functionalizedCrystal
_audit_creation_method	'MofGen! by Chris Wilmer'
_symmetry_space_group_name_H-M	'P1'
_symmetry_Int_Tables_number	1
_symmetry_cell_setting	triclinic
loop_
_symmetry_equiv_pos_as_xyz
  x,y,z
_cell_length_a	10.654544
_cell_length_b	16.109301
_cell_length_c	14.586319
_cell_angle_alpha	90.005214
_cell_angle_beta	90.004568
_cell_angle_gamma	83.973166
loop_
_atom_site_label
_atom_site_type_symbol
_atom_site_fract_x
_atom_site_fract_y
_atom_site_fract_z
O1	O	-1.666256	-0.116772	-0.076267
O2	O	-1.166256	0.383228	0.423733
O3	O	-1.300627	-0.127898	-0.076264
O4	O	-0.800627	0.372102	0.423736
O5	O	-1.493486	-0.001364	-0.076256
O6	O	-0.993486	0.498636	0.423744
O7	O	-1.473397	-0.243306	-0.076274
O8	O	-0.973397	0.256694	0.423726
O9	O	-1.493472	-0.001362	0.076225
O10	O	-0.993472	0.498638	0.576225
O11	O	-1.300613	-0.127896	0.076217
O12	O	-0.800613	0.372104	0.576217
O13	O	-1.666243	-0.116770	0.076214
O14	O	-1.166243	0.383230	0.576214
Cu15	Cu	-1.483427	-0.122333	0.090138
Cu16	Cu	-0.983427	0.377667	0.590138
Cu17	Cu	-1.483443	-0.122335	-0.090188
Cu18	Cu	-0.983443	0.377665	0.409812
O19	O	-1.473384	-0.243304	0.076206
O20	O	-0.973384	0.256696	0.576206
C21	C	-1.253833	-0.127080	-0.000023
C22	C	-0.753833	0.372920	0.499977
C23	C	-1.114423	-0.124636	-0.000021
C24	C	-0.614423	0.375364	0.499979
C25	C	-1.713037	-0.117588	-0.000029
C26	C	-1.213037	0.382412	0.499971
C27	C	-1.852447	-0.120032	-0.000036
C28	C	-1.352447	0.379968	0.499964
C29	C	-1.114383	-0.124644	0.166218
C30	C	-0.614383	0.375356	0.666218
C31	C	-1.048869	-0.123502	0.249335
C32	C	-0.548869	0.376498	0.749335
C33	C	-0.917882	-0.121204	0.249331
C34	C	-0.417882	0.378796	0.749331
C35	C	-0.852406	-0.120046	0.166201
C36	C	-0.352406	0.379954	0.666201
C37	C	-0.917920	-0.121188	0.083084
C38	C	-0.417920	0.378812	0.583084
C39	C	-1.048910	-0.123488	0.083097
C40	C	-0.548910	0.376512	0.583097
C41	C	-0.917961	-0.121174	-0.083153
C42	C	-0.417961	0.378826	0.416847
C43	C	-1.048947	-0.123478	-0.083151
C44	C	-0.548947	0.376522	0.416849
C45	C	-0.852485	-0.120016	-0.166282
C46	C	-0.352485	0.379984	0.333718
C47	C	-0.917998	-0.121164	-0.249401
C48	C	-0.417998	0.378836	0.250599
C49	C	-1.048993	-0.123463	-0.249394
C50	C	-0.548993	0.376537	0.250606
C51	C	-1.114461	-0.124620	-0.166268
C52	C	-0.614461	0.375380	0.333732
C53	C	-1.492665	0.029617	-0.000015
C54	C	-0.992665	0.529617	0.499985
C55	C	-1.490226	0.121927	-0.000014
C56	C	-0.990226	0.621927	0.499986
C57	C	-1.474204	-0.274285	-0.000036
C58	C	-0.974204	0.225715	0.499964
C59	C	-1.476644	-0.366595	-0.000044
C60	C	-0.976644	0.133405	0.499956
N61	N	-1.483425	-0.122331	0.216970
N62	N	-0.983425	0.377669	0.716970
C63	C	-1.598992	0.343552	-0.000029
C64	C	-1.098992	0.843552	0.499971
C65	C	-1.596690	0.430286	-0.000037
C66	C	-1.096690	0.930286	0.499963
C67	C	-1.367869	0.411773	-0.000031
C68	C	-0.867869	0.911773	0.499969
C69	C	-1.370173	0.325040	-0.000030
C70	C	-0.870173	0.825040	0.499970
C71	C	-1.485738	0.290933	-0.000025
C72	C	-0.985738	0.790933	0.499975
C73	C	-1.481132	0.464399	-0.000033
C74	C	-0.981132	0.964399	0.499967
C75	C	-1.478635	0.558440	-0.000041
C76	C	-0.978635	1.058440	0.499959
C77	C	-1.488235	0.196886	-0.000018
C78	C	-0.988235	0.696886	0.499982
N79	N	-1.483455	-0.122331	-0.217020
N80	N	-0.983455	0.377669	0.282980
C81	C	-1.568851	-0.066321	0.451980
C82	C	-1.068851	0.433679	0.951980
C83	C	-1.568855	-0.066319	0.547961
C84	C	-1.068855	0.433681	1.047961
C85	C	-1.398019	-0.178344	0.547964
C86	C	-0.898019	0.321656	1.047964
C87	C	-1.398011	-0.178341	0.451984
C88	C	-0.898011	0.321659	0.951984
C89	C	-1.483434	-0.122331	0.403995
C90	C	-0.983434	0.377669	0.903995
C91	C	-1.483446	-0.122331	0.595956
C92	C	-0.983446	0.377669	1.095956
C93	C	-1.483449	-0.122329	0.700023
C94	C	-0.983449	0.377671	1.200023
C95	C	-1.483429	-0.122331	0.299921
C96	C	-0.983429	0.377669	0.799921
H97	H	-1.221038	-0.126526	0.166229
H98	H	-0.721038	0.373474	0.666229
H99	H	-1.688913	0.473127	-0.000042
H100	H	-1.188913	0.973127	0.499958
Br101	Br	-0.674714	-0.116903	-0.166290
Br102	Br	-0.174714	0.383097	0.333710
Br103	Br	-1.684779	0.009695	0.386855
Br104	Br	-1.184779	0.509695	0.886855
H105	H	-1.273780	0.439554	-0.000034
H106	H	-0.773780	0.939554	0.499966
Br107	Br	-0.829139	-0.119565	-0.362208
Br108	Br	-0.329139	0.380435	0.137792
H109	H	-1.221117	-0.126497	-0.166254
H110	H	-0.721117	0.373503	0.333746
Br111	Br	-1.216459	0.253621	-0.000036
Br112	Br	-0.716459	0.753621	0.499964
H113	H	-1.638408	-0.020710	0.587028
H114	H	-1.138408	0.479290	1.087028
Br115	Br	-1.755829	0.297266	-0.000021
Br116	Br	-1.255829	0.797266	0.499979
H117	H	-1.328448	-0.223951	0.412912
H118	H	-0.828448	0.276049	0.912912
Br119	Br	-1.282095	-0.254357	0.613095
Br120	Br	-0.782095	0.245643	1.113095
H121	H	-1.102195	-0.124442	0.317017
H122	H	-0.602195	0.375558	0.817017
Br123	Br	-0.674638	-0.116920	0.166197
Br124	Br	-0.174638	0.383080	0.666197
Br125	Br	-0.828967	-0.119640	0.362132
Br126	Br	-0.328967	0.380360	0.862132
H127	H	-1.102327	-0.124391	-0.317078
H128	H	-0.602327	0.375609	0.182922
