data_functionalizedCrystal
_audit_creation_method	'MofGen! by Chris Wilmer'
_symmetry_space_group_name_H-M	'P1'
_symmetry_Int_Tables_number	1
_symmetry_cell_setting	triclinic
loop_
_symmetry_equiv_pos_as_xyz
  x,y,z
_cell_length_a	10.723023
_cell_length_b	19.188928
_cell_length_c	9.798715
_cell_angle_alpha	90.013669
_cell_angle_beta	90.000207
_cell_angle_gamma	96.194320
loop_
_atom_site_label
_atom_site_type_symbol
_atom_site_fract_x
_atom_site_fract_y
_atom_site_fract_z
O1	O	1.655147	-0.097923	-0.113502
O2	O	1.291800	-0.107297	-0.113510
O3	O	1.483960	-0.001022	-0.113471
O4	O	1.462986	-0.204198	-0.113541
O5	O	1.483960	-0.001015	0.113511
O6	O	1.291799	-0.107289	0.113472
O7	O	1.655146	-0.097916	0.113480
Zn8	Zn	1.473473	-0.102601	0.149515
Zn9	Zn	1.473473	-0.102611	-0.149544
O10	O	1.462986	-0.204190	0.113441
C11	C	1.245314	-0.106611	-0.000019
C12	C	1.106802	-0.104570	-0.000021
C13	C	1.045049	-0.103657	0.117562
C14	C	0.901889	-0.101548	0.117563
C15	C	1.483281	0.024997	0.000026
C16	C	1.481244	0.102515	0.000044
C17	C	1.593997	0.146706	0.000056
C18	C	1.592083	0.219543	0.000040
C19	C	1.477409	0.248184	0.000039
C20	C	1.364641	0.203983	0.000019
C21	C	1.366559	0.131148	0.000021
N22	N	1.389756	0.356761	0.077292
N23	N	1.387942	0.425952	0.077292
C24	C	1.471626	0.467631	0.000028
N25	N	1.557210	0.437507	-0.077220
N26	N	1.559027	0.368310	-0.077214
C27	C	1.475318	0.327160	0.000035
C28	C	1.582311	0.590800	0.000021
C29	C	1.580392	0.663637	-0.000004
C30	C	1.352947	0.648076	-0.000011
C31	C	1.354869	0.575240	-0.000001
C32	C	1.469555	0.546607	0.000022
C33	C	1.701632	-0.098601	-0.000013
C34	C	1.840144	-0.100642	-0.000021
N35	N	1.473475	-0.102613	-0.353644
C36	C	1.463669	0.769791	-0.000039
C37	C	1.465717	0.692274	-0.000008
C38	C	1.401942	-0.061905	-0.578564
C39	C	1.401937	-0.061914	-0.421401
N40	N	1.473482	-0.102594	0.353614
H41	H	0.893241	-0.101432	-0.100693
O42	O	1.115397	-0.104692	0.250911
H43	H	1.048386	-0.103698	0.337044
O44	O	1.717687	0.115821	0.000042
H45	H	1.795771	0.158791	0.000028
H46	H	1.534719	-0.137441	-0.588099
H47	H	1.675695	0.567486	0.000033
O48	O	1.036475	-0.103534	-0.133384
H49	H	0.965798	-0.150165	-0.139255
O50	O	0.831321	-0.100720	0.250800
H51	H	0.783207	-0.052417	0.256831
H52	H	1.683903	0.255530	0.000044
H53	H	1.340693	-0.027077	-0.363076
O54	O	1.240953	0.234868	0.000033
H55	H	1.258561	0.292940	0.000052
O56	O	1.244942	0.083477	0.000032
H57	H	1.164877	0.115626	0.000038
H58	H	1.672213	0.699618	-0.000002
O59	O	1.229257	0.678956	-0.000006
H60	H	1.246864	0.737027	0.000003
H61	H	1.263053	0.539259	-0.000003
O62	O	1.554604	-0.148764	-0.430887
H63	H	1.654467	-0.134198	-0.403539
O64	O	1.320886	-0.015705	-0.655751
H65	H	1.333655	-0.022922	-0.767080
