data_functionalizedCrystal
_audit_creation_method	'MofGen! by Chris Wilmer'
_symmetry_space_group_name_H-M	'P1'
_symmetry_Int_Tables_number	1
_symmetry_cell_setting	triclinic
loop_
_symmetry_equiv_pos_as_xyz
  x,y,z
_cell_length_a	10.686220
_cell_length_b	18.050589
_cell_length_c	18.050582
_cell_angle_alpha	90.018912
_cell_angle_beta	85.645377
_cell_angle_gamma	94.409750
loop_
_atom_site_label
_atom_site_type_symbol
_atom_site_fract_x
_atom_site_fract_y
_atom_site_fract_z
Zn1	Zn	1.928978	-0.208484	0.332940
Zn2	Zn	1.928823	-0.332676	0.208767
Zn3	Zn	1.717980	-0.218037	0.218280
Zn4	Zn	1.717895	-0.342180	0.342428
O5	O	1.823419	-0.275344	0.275604
O6	O	2.105535	-0.216982	0.308516
O7	O	1.900825	-0.317489	0.106105
O8	O	1.746070	-0.112841	0.233501
O9	O	2.105421	-0.308225	0.217287
O10	O	1.901089	-0.105822	0.317741
O11	O	1.745919	-0.233264	0.113095
O12	O	1.541391	-0.242481	0.242701
O13	O	1.745925	-0.324425	0.445093
O14	O	1.541329	-0.333688	0.333911
O15	O	1.901007	-0.226199	0.438122
O16	O	1.900742	-0.437866	0.226486
O17	O	1.745774	-0.444849	0.324687
C18	C	1.495575	-0.290153	0.290368
C19	C	1.355323	-0.296506	0.296702
C20	C	1.823267	-0.468303	0.275598
C21	C	1.823317	-0.550847	0.275616
C22	C	1.739128	-0.754118	0.328996
C23	C	1.708376	-0.804943	0.262615
C24	C	1.823441	-0.701971	0.275620
C25	C	1.854255	-0.798225	0.342005
C26	C	1.823558	-0.847951	0.275630
C27	C	1.792629	-0.751712	0.209206
C28	C	1.938560	-0.744987	0.288639
C29	C	1.907852	-0.795788	0.222210
C30	C	1.823370	-0.617876	0.275615
C31	C	1.823629	-0.932044	0.275627
C32	C	2.152543	-0.260478	0.260782
C33	C	2.292795	-0.254143	0.254466
C34	C	1.823473	-0.275306	0.469307
C35	C	1.823497	-0.275290	0.551852
C36	C	1.823606	-0.081630	0.275624
C37	C	1.823686	0.000919	0.275633
C38	C	1.823437	-0.275325	0.082651
C39	C	1.823658	-0.275121	0.000096
C40	C	1.739242	-0.328621	0.804465
C41	C	1.708420	-0.262278	0.756462
C42	C	1.823603	-0.275176	0.848968
C43	C	1.854313	-0.341575	0.749894
C44	C	1.823548	-0.275236	0.702985
C45	C	1.792722	-0.208799	0.802054
C46	C	1.938669	-0.288140	0.795489
C47	C	1.907891	-0.221747	0.747506
C48	C	1.823632	-0.275143	0.933065
C49	C	1.823519	-0.275262	0.618890
H50	H	1.301551	-0.337643	0.337707
C51	C	1.365420	-0.198573	0.199069
C52	C	1.456106	-0.136250	0.227302
C53	C	1.528739	-0.080680	0.171905
C54	C	1.510686	-0.087433	0.088274
C55	C	1.419996	-0.149759	0.060037
C56	C	1.347363	-0.205329	0.115435
H57	H	1.469473	-0.131249	0.289214
H58	H	1.595874	-0.034542	0.192808
H59	H	1.564454	-0.046296	0.047266
H60	H	1.406629	-0.154760	-0.001875
H61	H	1.280228	-0.251467	0.094531
C62	C	1.889447	-0.417397	0.719005
C63	C	1.796874	-0.464303	0.673281
C64	C	1.831997	-0.540126	0.642396
C65	C	1.959692	-0.569043	0.657233
C66	C	2.052273	-0.522136	0.702959
C67	C	2.017151	-0.446313	0.733844
H68	H	1.702339	-0.442897	0.662296
H69	H	1.763461	-0.574849	0.608546
H70	H	1.985692	-0.625171	0.634369
H71	H	2.146809	-0.543542	0.713944
H72	H	2.085686	-0.411590	0.767694
H73	H	2.035973	-0.299106	0.812820
H74	H	1.766614	-0.152660	0.824833
C75	C	1.642674	-0.729226	0.389901
C76	C	1.625703	-0.645966	0.401506
C77	C	1.529248	-0.621072	0.462406
C78	C	1.449764	-0.679438	0.511701
C79	C	1.466733	-0.762703	0.500098
C80	C	1.563188	-0.787597	0.439197
H81	H	1.684543	-0.602755	0.365013
H82	H	1.516686	-0.559433	0.470996
H83	H	1.378362	-0.661010	0.556783
H84	H	1.407892	-0.805914	0.536590
H85	H	1.575749	-0.849236	0.430608
H86	H	1.611088	-0.251333	0.739147
H87	H	1.611079	-0.831123	0.251614
H88	H	2.035836	-0.718811	0.299674
H89	H	1.766500	-0.731328	0.153058
C90	C	2.004231	-0.820508	0.161175
C91	C	1.990081	-0.801517	0.079214
C92	C	2.086447	-0.826245	0.018178
C93	C	2.196963	-0.869963	0.039102
C94	C	2.211117	-0.888956	0.121066
C95	C	2.114751	-0.864229	0.182103
H96	H	1.908267	-0.769153	0.063722
H97	H	2.075968	-0.812185	-0.042498
H98	H	2.268299	-0.888268	-0.006081
H99	H	2.292931	-0.921321	0.136559
H100	H	2.125230	-0.878289	0.242779
H101	H	1.667870	-0.373742	0.829354
H102	H	1.880270	-0.818704	0.398142
C103	C	2.004238	-0.160664	0.714064
C104	C	1.990108	-0.078707	0.734379
C105	C	2.086450	-0.017622	0.700936
C106	C	2.196922	-0.038494	0.647178
C107	C	2.211057	-0.120455	0.626861
C108	C	2.114715	-0.181540	0.660303
H109	H	1.908326	-0.063253	0.774176
H110	H	2.075985	0.043051	0.715977
H111	H	2.268240	0.006724	0.622422
H112	H	2.292840	-0.135909	0.587063
H113	H	2.125180	-0.242213	0.645263
