data_functionalizedCrystal
_audit_creation_method	'MofGen! by Chris Wilmer'
_symmetry_space_group_name_H-M	'P1'
_symmetry_Int_Tables_number	1
_symmetry_cell_setting	triclinic
loop_
_symmetry_equiv_pos_as_xyz
  x,y,z
_cell_length_a	14.519709
_cell_length_b	16.109301
_cell_length_c	15.186229
_cell_angle_alpha	89.994833
_cell_angle_beta	90.002257
_cell_angle_gamma	83.570813
loop_
_atom_site_label
_atom_site_type_symbol
_atom_site_fract_x
_atom_site_fract_y
_atom_site_fract_z
O1	O	1.223634	0.108984	-0.073117
O2	O	1.723634	0.608984	0.426883
O3	O	0.955130	0.121819	-0.073144
O4	O	1.455130	0.621819	0.426856
O5	O	1.096758	-0.005617	-0.073121
O6	O	1.596758	0.494383	0.426879
O7	O	1.082006	0.236420	-0.073140
O8	O	1.582006	0.736420	0.426860
O9	O	1.096748	-0.005618	0.073337
O10	O	1.596748	0.494382	0.573337
O11	O	0.955120	0.121817	0.073313
O12	O	1.455120	0.621817	0.573313
O13	O	1.223625	0.108983	0.073340
O14	O	1.723625	0.608983	0.573340
Zn15	Zn	1.089371	0.115400	0.096580
Zn16	Zn	1.589371	0.615400	0.596580
Zn17	Zn	1.089383	0.115402	-0.096384
Zn18	Zn	1.589383	0.615402	0.403616
O19	O	1.081996	0.236418	0.073317
O20	O	1.581996	0.736418	0.573317
C21	C	1.096156	-0.036593	0.000108
C22	C	1.596156	0.463407	0.500108
C23	C	1.094364	-0.128892	0.000109
C24	C	1.594364	0.371108	0.500109
C25	C	0.920766	0.121220	0.000081
C26	C	1.420766	0.621220	0.500081
C27	C	0.818389	0.119427	0.000071
C28	C	1.318389	0.619427	0.500071
C29	C	1.174238	-0.351026	0.000104
C30	C	1.674238	0.148974	0.500104
C31	C	1.172547	-0.437749	0.000096
C32	C	1.672547	0.062251	0.500096
C33	C	1.004510	-0.418166	0.000082
C34	C	1.504510	0.081834	0.500082
C35	C	1.006202	-0.331444	0.000084
C36	C	1.506202	0.168556	0.500084
C37	C	1.091068	-0.297877	0.000099
C38	C	1.591068	0.202123	0.500099
C39	C	1.087686	-0.471322	0.000090
C40	C	1.587686	0.028678	0.500090
C41	C	1.085852	-0.565351	0.000082
C42	C	1.585852	-0.065351	0.500082
C43	C	1.092902	-0.203842	0.000105
C44	C	1.592902	0.296158	0.500105
C45	C	0.443507	0.112829	0.000112
C46	C	0.943507	0.612829	0.500112
C47	C	0.547811	0.114661	0.000100
C48	C	1.047811	0.614661	0.500100
C49	C	0.630945	0.116128	0.000091
C50	C	1.130945	0.616128	0.500091
C51	C	0.735256	0.117961	0.000081
C52	C	1.235256	0.617961	0.500081
C53	C	1.257988	0.109582	0.000113
C54	C	1.757988	0.609582	0.500113
C55	C	1.360365	0.111374	0.000118
C56	C	1.860365	0.611374	0.500118
C57	C	1.082599	0.267395	0.000086
C58	C	1.582599	0.767395	0.500086
C59	C	1.084390	0.359693	0.000079
C60	C	1.584390	0.859693	0.500079
N61	N	1.089369	0.115397	0.228273
N62	N	1.589369	0.615397	0.728273
N63	N	1.089392	0.115397	-0.228076
N64	N	1.589392	0.615397	0.271924
C65	C	1.152103	0.058988	0.454006
C66	C	1.652103	0.558988	0.954006
C67	C	1.152106	0.058986	0.546196
C68	C	1.652106	0.558986	1.046196
C69	C	1.026651	0.171810	0.546184
C70	C	1.526651	0.671810	1.046184
C71	C	1.026645	0.171807	0.453996
C72	C	1.526645	0.671807	0.953996
C73	C	1.089376	0.115397	0.407909
C74	C	1.589376	0.615397	0.907909
C75	C	1.089386	0.115398	0.592287
C76	C	1.589386	0.615398	1.092287
C77	C	1.089388	0.115396	0.692243
C78	C	1.589388	0.615396	1.192243
C79	C	1.089372	0.115397	0.307947
C80	C	1.589372	0.615397	0.807947
H81	H	1.243341	-0.323699	0.000114
H82	H	1.743341	0.176301	0.500114
C83	C	1.262947	-0.495316	0.000149
C84	C	1.762947	0.004684	0.500149
C85	C	1.337626	-0.447353	0.000184
C86	C	1.837626	0.052647	0.500184
C87	C	1.420919	-0.500354	0.000244
C88	C	1.920919	-0.000354	0.500244
H89	H	1.265916	-0.529565	-0.050911
H90	H	1.765916	-0.029565	0.449089
H91	H	1.265827	-0.529547	0.051241
H92	H	1.765827	-0.029547	0.551241
H93	H	1.334746	-0.413136	-0.050903
H94	H	1.834746	0.086864	0.449097
H95	H	1.334687	-0.413105	0.051241
H96	H	1.834687	0.086895	0.551241
H97	H	1.423800	-0.534586	0.051336
H98	H	1.923800	-0.034586	0.551336
H99	H	1.423879	-0.534601	-0.050818
H100	H	1.923879	-0.034601	0.449182
H101	H	1.471598	-0.467819	0.000275
H102	H	1.971598	0.032181	0.500275
C103	C	0.958496	0.233149	0.404100
C104	C	1.458496	0.733149	0.904100
C105	C	0.903582	0.282570	0.464190
C106	C	1.403582	0.782570	0.964190
C107	C	0.840802	0.339089	0.418259
C108	C	1.340802	0.839089	0.918259
H109	H	0.920029	0.203258	0.368140
H110	H	1.420029	0.703258	0.868140
H111	H	0.991633	0.267868	0.368150
H112	H	1.491633	0.767868	0.868150
H113	H	0.870446	0.247856	0.500125
H114	H	1.370446	0.747856	1.000125
H115	H	0.942023	0.312479	0.500152
H116	H	1.442023	0.812479	1.000152
H117	H	0.873940	0.373808	0.382308
H118	H	1.373940	0.873808	0.882308
H119	H	0.802342	0.309191	0.382300
H120	H	1.302342	0.809191	0.882300
H121	H	0.803541	0.372633	0.459022
H122	H	1.303541	0.872633	0.959022
C123	C	0.915968	-0.273633	0.000214
C124	C	1.415968	0.226367	0.500214
C125	C	0.912040	-0.223263	0.075550
C126	C	1.412040	0.276737	0.575550
C127	C	0.828942	-0.169990	0.075690
C128	C	1.328942	0.330010	0.575690
H129	H	0.865106	-0.305938	0.000256
H130	H	1.365106	0.194062	0.500256
H131	H	0.913135	-0.239345	-0.050834
H132	H	1.413135	0.260655	0.449166
H133	H	0.914864	-0.257548	0.126585
H134	H	1.414864	0.242452	0.626585
H135	H	0.962883	-0.190940	0.075524
H136	H	1.462883	0.309060	0.575524
H137	H	0.826109	-0.135702	0.024641
H138	H	1.326109	0.364298	0.524641
H139	H	0.778086	-0.202302	0.075729
H140	H	1.278086	0.297698	0.575729
H141	H	0.826269	-0.135803	0.126799
H142	H	1.326269	0.364197	0.626799
H143	H	0.935415	-0.445507	0.000072
H144	H	1.435415	0.054493	0.500072
C145	C	1.220244	-0.002354	0.404127
C146	C	1.720244	0.497646	0.904127
C147	C	1.275160	-0.051770	0.464233
C148	C	1.775160	0.448230	0.964233
C149	C	1.337932	-0.108298	0.418321
C150	C	1.837932	0.391702	0.918321
H151	H	1.258710	0.027530	0.368156
H152	H	1.758710	0.527530	0.868156
H153	H	1.187100	-0.037076	0.368190
H154	H	1.687100	0.462924	0.868190
H155	H	1.308301	-0.017053	0.500156
H156	H	1.808301	0.482947	1.000156
H157	H	1.236719	-0.081672	0.500207
H158	H	1.736719	0.418328	1.000207
H159	H	1.304789	-0.143020	0.382383
H160	H	1.804789	0.356980	0.882383
H161	H	1.376392	-0.078408	0.382351
H162	H	1.876392	0.421592	0.882351
H163	H	1.375194	-0.141839	0.459095
H164	H	1.875194	0.358161	0.959095
C165	C	0.958656	0.233021	0.596382
C166	C	1.458656	0.733021	1.096382
C167	C	0.972104	0.220969	0.686984
C168	C	1.472104	0.720969	1.186984
C169	C	0.909494	0.277352	0.733251
C170	C	1.409494	0.777352	1.233251
H171	H	0.897070	0.223926	0.581386
H172	H	1.397070	0.723926	1.081386
H173	H	0.968663	0.288546	0.581315
H174	H	1.468663	0.788546	1.081315
H175	H	0.962091	0.165457	0.702045
H176	H	1.462091	0.665457	1.202045
H177	H	1.033678	0.230070	0.702006
H178	H	1.533678	0.730070	1.202006
H179	H	0.919500	0.332877	0.718184
H180	H	1.419500	0.832877	1.218184
H181	H	0.847911	0.268253	0.718247
H182	H	1.347911	0.768253	1.218247
H183	H	0.918615	0.269187	0.794729
H184	H	1.418615	0.769187	1.294729
C185	C	1.220110	-0.002220	0.596402
C186	C	1.720110	0.497780	1.096402
C187	C	1.206676	0.009835	0.687002
C188	C	1.706676	0.509835	1.187002
C189	C	1.269297	-0.046544	0.733279
C190	C	1.769297	0.453456	1.233279
H191	H	1.281694	0.006878	0.581399
H192	H	1.781694	0.506878	1.081399
H193	H	1.210106	-0.057747	0.581350
H194	H	1.710106	0.442253	1.081350
H195	H	1.216687	0.065348	0.702049
H196	H	1.716687	0.565348	1.202049
H197	H	1.145105	0.000730	0.702031
H198	H	1.645105	0.500730	1.202031
H199	H	1.259293	-0.102070	0.718226
H200	H	1.759293	0.397930	1.218226
H201	H	1.330876	-0.037441	0.718269
H202	H	1.830876	0.462559	1.218269
H203	H	1.260184	-0.038377	0.794755
H204	H	1.760184	0.461623	1.294755
