data_functionalizedCrystal
_audit_creation_method	'MofGen! by Chris Wilmer'
_symmetry_space_group_name_H-M	'P1'
_symmetry_Int_Tables_number	1
_symmetry_cell_setting	triclinic
loop_
_symmetry_equiv_pos_as_xyz
  x,y,z
_cell_length_a	16.625547
_cell_length_b	16.625546
_cell_length_c	16.625539
_cell_angle_alpha	90.030397
_cell_angle_beta	90.024822
_cell_angle_gamma	90.022405
loop_
_atom_site_label
_atom_site_type_symbol
_atom_site_fract_x
_atom_site_fract_y
_atom_site_fract_z
Zn1	Zn	1.232681	-0.321001	0.455989
Zn2	Zn	1.566014	0.012332	0.789322
Zn3	Zn	1.899347	0.345665	1.122656
Zn4	Zn	1.232584	-0.455845	0.321151
Zn5	Zn	1.565917	-0.122511	0.654485
Zn6	Zn	1.899250	0.210822	0.987818
Zn7	Zn	1.097842	-0.321030	0.321160
Zn8	Zn	1.431176	0.012304	0.654493
Zn9	Zn	1.764509	0.345637	0.987826
Zn10	Zn	1.097813	-0.455796	0.455931
Zn11	Zn	1.431146	-0.122462	0.789265
Zn12	Zn	1.764479	0.210871	1.122598
O13	O	1.165230	-0.388418	0.388558
O14	O	1.498563	-0.055084	0.721891
O15	O	1.831896	0.278249	1.055225
O16	O	1.345500	-0.338897	0.438123
O17	O	1.678833	-0.005564	0.771457
O18	O	2.012167	0.327769	1.104790
O19	O	1.214682	-0.437993	0.208320
O20	O	1.548015	-0.104660	0.541653
O21	O	1.881349	0.228673	0.874987
O22	O	1.115782	-0.208193	0.339073
O23	O	1.449115	0.125140	0.672406
O24	O	1.782448	0.458473	1.005739
O25	O	1.345429	-0.437966	0.339059
O26	O	1.678762	-0.104633	0.672392
O27	O	2.012096	0.228701	1.005725
O28	O	1.214847	-0.208173	0.438131
O29	O	1.548180	0.125161	0.771465
O30	O	1.881513	0.458494	1.104798
O31	O	1.115688	-0.338945	0.208326
O32	O	1.449021	-0.005612	0.541659
O33	O	1.782355	0.327721	0.874993
O34	O	0.985006	-0.338898	0.339017
O35	O	1.318339	-0.005564	0.672350
O36	O	1.651673	0.327769	1.005683
O37	O	1.115731	-0.437883	0.568771
O38	O	1.449065	-0.104549	0.902105
O39	O	1.782398	0.228784	1.235438
O40	O	0.984984	-0.437910	0.438033
O41	O	1.318318	-0.104577	0.771366
O42	O	1.651651	0.228757	1.104699
O43	O	1.214818	-0.338850	0.568814
O44	O	1.548151	-0.005517	0.902147
O45	O	1.881485	0.327817	1.235481
O46	O	1.214653	-0.568671	0.339003
O47	O	1.547987	-0.235337	0.672336
O48	O	1.881320	0.097996	1.005669
O49	O	1.115638	-0.568635	0.438025
O50	O	1.448971	-0.235301	0.771358
O51	O	1.782304	0.098032	1.104691
C52	C	0.955739	-0.388402	0.388520
C53	C	1.289072	-0.055069	0.721853
C54	C	1.622406	0.278264	1.055186
C55	C	0.866118	-0.388415	0.388523
C56	C	1.199451	-0.055082	0.721856
C57	C	1.532785	0.278252	1.055189
C58	C	1.165154	-0.597909	0.388524
C59	C	1.498487	-0.264575	0.721857
C60	C	1.831820	0.068758	1.055191
C61	C	1.165195	-0.687530	0.388537
C62	C	1.498528	-0.354196	0.721870
C63	C	1.831861	-0.020863	1.055203
C64	C	0.793335	-0.388416	0.388533
C65	C	1.126669	-0.055083	0.721866
C66	C	1.460002	0.278250	1.055199
C67	C	0.702027	-0.388421	0.388553
C68	C	1.035360	-0.055087	0.721886
C69	C	1.368694	0.278246	1.055219
C70	C	0.629251	-0.388428	0.388573
C71	C	0.962584	-0.055095	0.721907
C72	C	1.295917	0.278239	1.055240
C73	C	0.537936	-0.388434	0.388593
C74	C	0.871270	-0.055100	0.721926
C75	C	1.204603	0.278233	1.055259
C76	C	1.165335	-1.015705	0.388621
C77	C	1.498669	-0.682372	0.721954
C78	C	1.832002	-0.349039	1.055287
C79	C	1.165294	-0.924397	0.388599
C80	C	1.498627	-0.591064	0.721933
C81	C	1.831960	-0.257730	1.055266
C82	C	1.165264	-0.851620	0.388578
C83	C	1.498598	-0.518287	0.721912
C84	C	1.831931	-0.184954	1.055245
C85	C	1.165224	-0.760306	0.388558
C86	C	1.498557	-0.426973	0.721891
C87	C	1.831891	-0.093640	1.055225
C88	C	1.375539	-0.388434	0.388597
C89	C	1.708872	-0.055101	0.721930
C90	C	2.042205	0.278233	1.055263
C91	C	1.465160	-0.388441	0.388613
C92	C	1.798493	-0.055108	0.721946
C93	C	2.131826	0.278226	1.055280
C94	C	1.165282	-0.388358	0.598867
C95	C	1.498616	-0.055024	0.932200
C96	C	1.831949	0.278309	1.265534
C97	C	1.165305	-0.388332	0.688488
C98	C	1.498638	-0.054999	1.021821
C99	C	1.831971	0.278335	1.355155
C100	C	1.165328	-0.178109	0.388609
C101	C	1.498662	0.155224	0.721943
C102	C	1.831995	0.488558	1.055276
C103	C	1.165370	-0.088488	0.388631
C104	C	1.498704	0.244846	0.721965
C105	C	1.832037	0.578179	1.055298
C106	C	1.165224	-0.388419	0.179067
C107	C	1.498557	-0.055086	0.512400
C108	C	1.831891	0.278247	0.845734
C109	C	1.165358	-0.388218	0.089446
C110	C	1.498691	-0.054885	0.422780
C111	C	1.832025	0.278449	0.756113
C112	C	1.165342	-0.388242	1.016664
C113	C	1.498675	-0.054909	1.349997
C114	C	1.832008	0.278425	1.683331
C115	C	1.165329	-0.388270	0.925355
C116	C	1.498663	-0.054936	1.258689
C117	C	1.831996	0.278397	1.592022
C118	C	1.165324	-0.388288	0.852579
C119	C	1.498657	-0.054954	1.185912
C120	C	1.831990	0.278379	1.519246
C121	C	1.165310	-0.388314	0.761265
C122	C	1.498643	-0.054981	1.094598
C123	C	1.831977	0.278353	1.427931
