data_functionalizedCrystal
_audit_creation_method	'MofGen! by Chris Wilmer'
_symmetry_space_group_name_H-M	'P1'
_symmetry_Int_Tables_number	1
_symmetry_cell_setting	triclinic
loop_
_symmetry_equiv_pos_as_xyz
  x,y,z
_cell_length_a	14.971486
_cell_length_b	10.723023
_cell_length_c	9.198806
_cell_angle_alpha	89.997575
_cell_angle_beta	90.001262
_cell_angle_gamma	84.040838
loop_
_atom_site_label
_atom_site_type_symbol
_atom_site_fract_x
_atom_site_fract_y
_atom_site_fract_z
O1	O	1.187817	0.162612	-0.120722
O2	O	1.687817	0.662612	0.379278
O3	O	0.927521	0.182085	-0.120761
O4	O	1.427521	0.682085	0.379239
O5	O	1.063673	-0.009291	-0.120735
O6	O	1.563673	0.490709	0.379265
O7	O	1.051664	0.353987	-0.120748
O8	O	1.551664	0.853987	0.379252
O9	O	1.063663	-0.009292	0.121050
O10	O	1.563663	0.490708	0.621050
O11	O	0.927511	0.182084	0.121024
O12	O	1.427511	0.682084	0.621024
O13	O	1.187806	0.162610	0.121063
O14	O	1.687806	0.662610	0.621063
Cu15	Cu	1.057658	0.172347	0.143120
Cu16	Cu	1.557658	0.672347	0.643120
Cu17	Cu	1.057670	0.172348	-0.142818
Cu18	Cu	1.557670	0.672348	0.357182
O19	O	1.051654	0.353986	0.121037
O20	O	1.551654	0.853986	0.621037
C21	C	0.894187	0.181214	0.000126
C22	C	1.394187	0.681214	0.500126
C23	C	0.794875	0.178604	0.000111
C24	C	1.294875	0.678604	0.500111
C25	C	0.738254	0.291032	0.000109
C26	C	1.238254	0.791032	0.500109
C27	C	0.644941	0.288572	0.000131
C28	C	1.144941	0.788572	0.500131
C29	C	0.608252	0.173683	0.000145
C30	C	1.108252	0.673683	0.500145
C31	C	0.664881	0.061246	0.000151
C32	C	1.164881	0.561246	0.500151
C33	C	0.758192	0.063707	0.000140
C34	C	1.258192	0.563707	0.500140
C35	C	0.470391	0.056125	0.000171
C36	C	0.970391	0.556125	0.500171
C37	C	0.377074	0.053663	0.000180
C38	C	0.877074	0.553663	0.500180
C39	C	0.357140	0.280990	0.000163
C40	C	0.857140	0.780990	0.500163
C41	C	0.450451	0.283451	0.000151
C42	C	0.950451	0.783451	0.500151
C43	C	0.507074	0.171013	0.000155
C44	C	1.007074	0.671013	0.500155
C45	C	1.062794	-0.055782	0.000156
C46	C	1.562794	0.444218	0.500156
C47	C	1.060180	-0.194309	0.000151
C48	C	1.560180	0.305691	0.500151
C49	C	1.059020	-0.256062	-0.125103
C50	C	1.559020	0.243938	0.374897
C51	C	1.056318	-0.399237	-0.125111
C52	C	1.556318	0.100763	0.374889
C53	C	1.221141	0.163482	0.000172
C54	C	1.721141	0.663482	0.500172
C55	C	1.320452	0.166092	0.000178
C56	C	1.820452	0.666092	0.500178
C57	C	1.052533	0.400477	0.000143
C58	C	1.552533	0.900477	0.500143
C59	C	1.055147	0.539004	0.000138
C60	C	1.555147	1.039004	0.500138
N61	N	1.057656	0.172345	0.344234
N62	N	1.557656	0.672345	0.844234
N63	N	1.057679	0.172341	-0.343932
N64	N	1.557679	0.672341	0.156068
C65	C	1.114963	0.091817	0.583846
C66	C	1.614963	0.591817	1.083846
C67	C	1.114952	0.091819	0.416434
C68	C	1.614952	0.591819	0.916434
H69	H	0.768118	0.384588	0.000097
H70	H	1.268118	0.884588	0.500097
Br71	Br	0.568099	0.441160	0.000123
Br72	Br	1.068099	0.941160	0.500123
Br73	Br	1.058491	-0.282843	0.178884
Br74	Br	1.558491	0.217157	0.678884
H75	H	1.163992	0.022874	0.354327
H76	H	1.663992	0.522874	0.854327
H77	H	0.311033	0.372540	0.000166
H78	H	0.811033	0.872540	0.500166
Br79	Br	0.500243	0.439373	0.000111
Br80	Br	1.000243	0.939373	0.500111
H81	H	1.008606	0.241284	0.406332
H82	H	1.508606	0.741284	0.906332
H83	H	0.516492	-0.035434	0.000177
H84	H	1.016492	0.464566	0.500177
Br85	Br	0.327282	-0.102259	0.000247
Br86	Br	0.827282	0.397741	0.500247
H87	H	0.635002	-0.032298	0.000183
H88	H	1.135002	0.467702	0.500183
H89	H	0.804293	-0.027843	0.000141
H90	H	1.304293	0.472157	0.500141
Br91	Br	0.975924	0.287263	0.552564
Br92	Br	1.475924	0.787263	1.052564
H93	H	1.164020	0.022880	0.645952
H94	H	1.664020	0.522880	1.145952
H95	H	1.060023	-0.202933	-0.232331
H96	H	1.560023	0.297067	0.267669
H97	H	1.055325	-0.452343	-0.232346
H98	H	1.555325	0.047657	0.267654
H99	H	1.056150	-0.407899	0.107378
H100	H	1.556150	0.092101	0.607378
