data_functionalizedCrystal
_audit_creation_method	'MofGen! by Chris Wilmer'
_symmetry_space_group_name_H-M	'P1'
_symmetry_Int_Tables_number	1
_symmetry_cell_setting	triclinic
loop_
_symmetry_equiv_pos_as_xyz
  x,y,z
_cell_length_a	19.805407
_cell_length_b	19.121063
_cell_length_c	19.805399
_cell_angle_alpha	87.588895
_cell_angle_beta	90.019573
_cell_angle_gamma	92.469032
loop_
_atom_site_label
_atom_site_type_symbol
_atom_site_fract_x
_atom_site_fract_y
_atom_site_fract_z
Zn1	Zn	1.023234	-0.279631	0.394203
Zn2	Zn	1.523234	0.220369	0.894203
Zn3	Zn	1.018317	-0.397083	0.285838
Zn4	Zn	1.518317	0.102917	0.785838
Zn5	Zn	0.910048	-0.279650	0.281028
Zn6	Zn	1.410048	0.220350	0.781028
Zn7	Zn	0.905182	-0.397046	0.398983
Zn8	Zn	1.405182	0.102954	0.898983
O9	O	0.964195	-0.338352	0.340013
O10	O	1.464195	0.161648	0.840013
O11	O	1.117298	-0.295218	0.379840
O12	O	1.617298	0.204782	0.879840
O13	O	1.003934	-0.381529	0.190484
O14	O	1.503934	0.118471	0.690484
O15	O	0.929156	-0.181363	0.292028
O16	O	1.429156	0.318637	0.792028
O17	O	1.113686	-0.381510	0.300225
O18	O	1.613686	0.118490	0.800225
O19	O	1.012313	-0.181348	0.375177
O20	O	1.512313	0.318652	0.875177
O21	O	0.924388	-0.295251	0.186951
O22	O	1.424388	0.204749	0.686951
O23	O	0.814686	-0.295215	0.296663
O24	O	1.314686	0.204785	0.796663
O25	O	0.920863	-0.381447	0.493065
O26	O	1.420863	0.118553	0.993065
O27	O	0.811111	-0.381465	0.383324
O28	O	1.311111	0.118535	0.883324
O29	O	1.007595	-0.295182	0.489553
O30	O	1.507595	0.204818	0.989553
O31	O	0.999216	-0.495363	0.304860
O32	O	1.499216	0.004637	0.804860
O33	O	0.916096	-0.495335	0.387987
O34	O	1.416096	0.004665	0.887987
C35	C	0.788340	-0.338339	0.339991
C36	C	1.288340	0.161661	0.839991
C37	C	0.713107	-0.338350	0.339998
C38	C	1.213107	0.161650	0.839998
C39	C	0.956613	-0.520833	0.347479
C40	C	1.456613	-0.020833	0.847479
C41	C	0.953431	-0.598899	0.350696
C42	C	1.453431	-0.098899	0.850696
C43	C	0.675917	-0.383328	0.385055
C44	C	1.175917	0.116672	0.885055
C45	C	0.605228	-0.383329	0.385064
C46	C	1.105228	0.116671	0.885064
C47	C	0.571732	-0.338356	0.340013
C48	C	1.071732	0.161644	0.840013
C49	C	0.608927	-0.293373	0.294954
C50	C	1.108927	0.206627	0.794954
C51	C	0.679614	-0.293368	0.294948
C52	C	1.179614	0.206632	0.794948
C53	C	0.323853	-0.293388	0.294977
C54	C	0.823853	0.206612	0.794977
C55	C	0.253161	-0.293397	0.294985
C56	C	0.753161	0.206603	0.794985
C57	C	0.249467	-0.383349	0.385093
C58	C	0.749467	0.116651	0.885093
C59	C	0.320154	-0.383345	0.385087
C60	C	0.820154	0.116655	0.885087
C61	C	0.357344	-0.338360	0.340031
C62	C	0.857344	0.161640	0.840031
C63	C	0.433992	-0.338358	0.340022
C64	C	0.933992	0.161642	0.840022
C65	C	0.495084	-0.338360	0.340018
C66	C	0.995084	0.161640	0.840018
C67	C	0.995246	-0.635566	0.308963
C68	C	1.495246	-0.135566	0.808963
C69	C	0.992258	-0.708917	0.311992
C70	C	1.492258	-0.208917	0.811992
C71	C	0.947451	-0.745601	0.356752
C72	C	1.447451	-0.245601	0.856752
C73	C	0.905634	-0.708929	0.398489
C74	C	1.405634	-0.208929	0.898489
C75	C	0.908626	-0.635579	0.395463
C76	C	1.408626	-0.135579	0.895463
C77	C	0.936252	-0.967071	0.368056
C78	C	1.436252	-0.467071	0.868056
C79	C	0.933262	-1.040426	0.371078
C80	C	1.433262	-0.540426	0.871078
C81	C	1.019887	-1.040409	0.284581
C82	C	1.519887	-0.540409	0.784581
C83	C	1.022872	-0.967058	0.281556
C84	C	1.522872	-0.467058	0.781556
C85	C	0.981058	-0.930393	0.323296
C86	C	1.481058	-0.430393	0.823296
C87	C	0.944394	-0.820578	0.359848
C88	C	1.444394	-0.320578	0.859848
C89	C	0.984119	-0.855417	0.320203
C90	C	1.484119	-0.355417	0.820203
C91	C	1.140737	-0.338366	0.340036
C92	C	1.640737	0.161634	0.840036
C93	C	1.215969	-0.338372	0.340046
C94	C	1.715969	0.161628	0.840046
C95	C	0.964235	-0.338308	0.516554
C96	C	1.464235	0.161692	1.016554
C97	C	0.964252	-0.338289	0.591785
C98	C	1.464252	0.161711	1.091785
C99	C	0.971825	-0.155159	0.332532
C100	C	1.471825	0.344841	0.832532
C101	C	0.975077	-0.077093	0.329345
C102	C	1.475077	0.422907	0.829345
C103	C	0.964197	-0.338346	0.164157
C104	C	1.464197	0.161654	0.664157
C105	C	0.964319	-0.338167	0.088918
C106	C	1.464319	0.161833	0.588918
C107	C	1.009414	-0.293369	0.625302
C108	C	1.509414	0.206631	1.125302
C109	C	1.009422	-0.293349	0.695989
C110	C	1.509422	0.206651	1.195989
C111	C	0.964270	-0.338253	0.733159
C112	C	1.464270	0.161747	1.233159
C113	C	0.919103	-0.383175	0.699638
C114	C	1.419103	0.116825	1.199638
C115	C	0.919093	-0.383191	0.628952
C116	C	1.419093	0.116809	1.128952
C117	C	0.919144	-0.383109	0.984709
C118	C	1.419144	0.116891	1.484709
C119	C	0.919159	-0.383091	1.055400
C120	C	1.419159	0.116909	1.555400
C121	C	1.009474	-0.293267	1.051747
C122	C	1.509474	0.206733	1.551747
C123	C	1.009463	-0.293283	0.981060
C124	C	1.509463	0.206717	1.481060
C125	C	0.964294	-0.338202	0.947545
C126	C	1.464294	0.161798	1.447545
C127	C	0.964285	-0.338223	0.870897
C128	C	1.464285	0.161777	1.370897
C129	C	0.964282	-0.338236	0.809806
C130	C	1.464282	0.161764	1.309806
H131	H	0.703185	-0.419953	0.421739
H132	H	1.203185	0.080047	0.921739
F133	F	0.719195	-0.245495	0.246994
F134	F	1.219195	0.254505	0.746994
F135	F	0.871071	-0.430916	0.949048
F136	F	1.371071	0.069084	1.449048
H137	H	0.907910	-0.850454	0.396289
H138	H	1.407910	-0.350454	0.896289
F139	F	0.217513	-0.245527	0.247033
F140	F	0.717513	0.254473	0.747033
F141	F	1.057475	-0.245579	0.585749
F142	F	1.557475	0.254421	1.085749
H143	H	0.581649	-0.256751	0.258275
H144	H	1.081649	0.243249	0.758275
H145	H	1.046199	-0.256772	0.723275
H146	H	1.546199	0.243228	1.223275
H147	H	0.882337	-0.419734	0.729907
H148	H	1.382337	0.080266	1.229907
H149	H	0.874577	-0.605726	0.429447
H150	H	1.374577	-0.105726	0.929447
H151	H	0.902204	-0.937224	0.402041
H152	H	1.402204	-0.437224	0.902041
H153	H	0.896783	-1.070292	0.407538
H154	H	1.396783	-0.570292	0.907538
H155	H	1.026308	-0.738768	0.278008
H156	H	1.526308	-0.238768	0.778008
F157	F	0.871023	-0.430999	0.593281
F158	F	1.371023	0.069001	1.093281
F159	F	1.057522	-0.245493	0.941505
F160	F	1.557522	0.254507	1.441505
F161	F	0.565651	-0.431201	0.433021
F162	F	1.065651	0.068799	0.933021
F163	F	0.363424	-0.245509	0.247025
F164	F	0.863424	0.254491	0.747025
H165	H	1.046250	-0.256689	1.079043
H166	H	1.546250	0.243311	1.579043
H167	H	1.059358	-0.937192	0.245110
H168	H	1.559358	-0.437192	0.745110
F169	F	1.042933	-0.596531	0.261320
F170	F	1.542933	-0.096531	0.761320
F171	F	1.064388	-1.079436	0.240165
F172	F	1.564388	-0.579436	0.740165
F173	F	0.871100	-0.430886	1.094958
F174	F	1.371100	0.069114	1.594958
H175	H	0.347424	-0.419970	0.421771
H176	H	0.847424	0.080030	0.921771
H177	H	0.219179	-0.419976	0.421783
H178	H	0.719179	0.080024	0.921783
H179	H	0.869154	-0.738803	0.434936
H180	H	1.369154	-0.238803	0.934936
F181	F	1.031808	-0.816374	0.272571
F182	F	1.531808	-0.316374	0.772571
