data_functionalizedCrystal
_audit_creation_method	'MofGen! by Chris Wilmer'
_symmetry_space_group_name_H-M	'P1'
_symmetry_Int_Tables_number	1
_symmetry_cell_setting	triclinic
loop_
_symmetry_equiv_pos_as_xyz
  x,y,z
_cell_length_a	11.169417
_cell_length_b	12.827892
_cell_length_c	12.827885
_cell_angle_alpha	89.970214
_cell_angle_beta	89.982092
_cell_angle_gamma	90.016270
loop_
_atom_site_label
_atom_site_type_symbol
_atom_site_fract_x
_atom_site_fract_y
_atom_site_fract_z
Zn1	Zn	1.834897	-0.415958	-0.590811
Zn2	Zn	2.168231	-0.082625	-0.257477
Zn3	Zn	2.501564	0.250709	0.075856
Zn4	Zn	1.834776	-0.590735	-0.416071
Zn5	Zn	2.168109	-0.257402	-0.082738
Zn6	Zn	2.501443	0.075931	0.250596
Zn7	Zn	1.634190	-0.416012	-0.416088
Zn8	Zn	1.967523	-0.082678	-0.082755
Zn9	Zn	2.300857	0.250655	0.250578
Zn10	Zn	1.634173	-0.590660	-0.590775
Zn11	Zn	1.967507	-0.257327	-0.257442
Zn12	Zn	2.300840	0.076006	0.075892
O13	O	1.734509	-0.503341	-0.503436
O14	O	2.067842	-0.170008	-0.170103
O15	O	2.401176	0.163325	0.163230
O16	O	2.002831	-0.439151	-0.567639
O17	O	2.336164	-0.105818	-0.234305
O18	O	2.669498	0.227515	0.099028
O19	O	1.808124	-0.567612	-0.269837
O20	O	2.141457	-0.234278	0.063496
O21	O	2.474791	0.099055	0.396830
O22	O	1.660872	-0.269768	-0.439288
O23	O	1.994206	0.063565	-0.105955
O24	O	2.327539	0.396898	0.227379
O25	O	2.002742	-0.567560	-0.439258
O26	O	2.336075	-0.234226	-0.105925
O27	O	2.669408	0.099107	0.227409
O28	O	1.808331	-0.269729	-0.567656
O29	O	2.141665	0.063604	-0.234322
O30	O	2.474998	0.396938	0.099011
O31	O	1.660754	-0.439243	-0.269850
O32	O	1.994088	-0.105910	0.063483
O33	O	2.327421	0.227424	0.396817
O34	O	1.466238	-0.439170	-0.439253
O35	O	1.799571	-0.105837	-0.105920
O36	O	2.132905	0.227496	0.227413
O37	O	1.660843	-0.567432	-0.737016
O38	O	1.994177	-0.234099	-0.403683
O39	O	2.327510	0.099235	-0.070349
O40	O	1.466226	-0.567484	-0.567595
O41	O	1.799559	-0.234151	-0.234262
O42	O	2.132892	0.099183	0.099072
O43	O	1.808315	-0.439079	-0.737042
O44	O	2.141648	-0.105745	-0.403709
O45	O	2.474981	0.227588	-0.070375
O46	O	1.808108	-0.736961	-0.439224
O47	O	2.141441	-0.403628	-0.105890
O48	O	2.474774	-0.070295	0.227443
O49	O	1.660726	-0.736906	-0.567578
O50	O	1.994059	-0.403573	-0.234245
O51	O	2.327392	-0.070240	0.099089
C52	C	1.422684	-0.503325	-0.503423
C53	C	1.756018	-0.169992	-0.170090
C54	C	2.089351	0.163341	0.163244
C55	C	1.289284	-0.503344	-0.503442
C56	C	1.622618	-0.170011	-0.170109
C57	C	1.955951	0.163323	0.163225
C58	C	1.734434	-0.774851	-0.503418
C59	C	2.067767	-0.441518	-0.170085
C60	C	2.401101	-0.108185	0.163249
C61	C	1.734512	-0.891004	-0.503445
C62	C	2.067845	-0.557671	-0.170112
C63	C	2.401178	-0.224338	0.163222
C64	C	1.807528	-0.942782	-0.440002
C65	C	2.140861	-0.609448	-0.106668
C66	C	2.474194	-0.276115	0.226665
C67	C	1.807610	-1.062832	-0.440028
C68	C	2.140943	-0.729499	-0.106695
C69	C	2.474276	-0.396165	0.226639
C70	C	2.047551	-0.503358	-0.503450
C71	C	2.380885	-0.170025	-0.170117
C72	C	2.714218	0.163309	0.163216
C73	C	2.180951	-0.503365	-0.503456
C74	C	2.514285	-0.170032	-0.170123
C75	C	2.847618	0.163302	0.163210
C76	C	1.734591	-0.503241	-0.776007
C77	C	2.067924	-0.169908	-0.442673
C78	C	2.401257	0.163426	-0.109340
C79	C	1.734626	-0.503198	-0.892160
C80	C	2.067959	-0.169865	-0.558826
C81	C	2.401292	0.163468	-0.225493
C82	C	1.734617	-0.230771	-0.503478
C83	C	2.067951	0.102562	-0.170144
C84	C	2.401284	0.435896	0.163189
C85	C	1.734663	-0.114618	-0.503495
C86	C	2.067997	0.218715	-0.170162
C87	C	2.401330	0.552049	0.163171
C88	C	1.807607	-0.439673	-0.943957
C89	C	2.140940	-0.106339	-0.610624
C90	C	2.474274	0.226994	-0.277291
C91	C	1.807645	-0.439627	-1.064008
C92	C	2.140978	-0.106294	-0.730675
C93	C	2.474311	0.227040	-0.397341
C94	C	1.734497	-0.503366	-0.231926
C95	C	2.067830	-0.170033	0.101407
C96	C	2.401164	0.163301	0.434740
C97	C	1.734695	-0.503114	-0.115774
C98	C	2.068028	-0.169781	0.217560
C99	C	2.401361	0.163552	0.550893
H100	H	1.869984	-0.898236	-0.385669
H101	H	2.203317	-0.564903	-0.052336
H102	H	2.536651	-0.231569	0.280998
Cl103	Cl	1.638225	-0.587096	-1.047013
Cl104	Cl	1.971558	-0.253763	-0.713680
Cl105	Cl	2.304892	0.079570	-0.380346
H106	H	1.870057	-0.385316	-0.899427
H107	H	2.203390	-0.051983	-0.566093
H108	H	2.536723	0.281351	-0.232760
Cl109	Cl	1.638094	-0.959774	-0.587345
Cl110	Cl	1.971427	-0.626441	-0.254012
Cl111	Cl	2.304761	-0.293108	0.079321
Cl112	Cl	1.904124	-0.355659	-1.132776
Cl113	Cl	2.237457	-0.022326	-0.799442
Cl114	Cl	2.570791	0.311008	-0.466109
H115	H	1.870118	-1.107359	-0.385709
H116	H	2.203451	-0.774026	-0.052376
H117	H	2.536784	-0.440693	0.280958
Cl118	Cl	1.638135	-1.045884	-0.587357
Cl119	Cl	1.971468	-0.712551	-0.254023
Cl120	Cl	2.304801	-0.379217	0.079310
H121	H	1.672164	-0.557544	-0.936691
H122	H	2.005497	-0.224211	-0.603357
H123	H	2.338830	0.109123	-0.270024
