data_functionalizedCrystal
_audit_creation_method	'MofGen! by Chris Wilmer'
_symmetry_space_group_name_H-M	'P1'
_symmetry_Int_Tables_number	1
_symmetry_cell_setting	triclinic
loop_
_symmetry_equiv_pos_as_xyz
  x,y,z
_cell_length_a	11.792254
_cell_length_b	17.699083
_cell_length_c	16.176319
_cell_angle_alpha	89.992304
_cell_angle_beta	89.992652
_cell_angle_gamma	83.740806
loop_
_atom_site_label
_atom_site_type_symbol
_atom_site_fract_x
_atom_site_fract_y
_atom_site_fract_z
O1	O	1.505661	0.103784	-0.068748
O2	O	1.175194	0.114465	-0.068750
O3	O	1.349764	-0.001015	-0.068741
O4	O	1.331091	0.219263	-0.068756
O5	O	1.349740	-0.001022	0.068752
O6	O	1.175170	0.114457	0.068744
O7	O	1.505637	0.103776	0.068746
Cu8	Cu	1.340401	0.109116	0.081299
Cu9	Cu	1.340429	0.109125	-0.081303
O10	O	1.331067	0.219256	0.068737
C11	C	1.349083	-0.029219	0.000005
C12	C	1.347075	-0.113248	0.000006
C13	C	1.132899	0.113788	-0.000003
C14	C	1.006910	0.111774	-0.000004
C15	C	1.449544	-0.161320	0.000008
C16	C	1.447651	-0.240273	0.000000
C17	C	1.343288	-0.271153	-0.000003
C18	C	1.240812	-0.223076	-0.000007
C19	C	1.242706	-0.144124	-0.000006
C20	C	1.233171	-0.541480	-0.000014
C21	C	1.231285	-0.620438	-0.000013
C22	C	1.438117	-0.637629	-0.000008
C23	C	1.440011	-0.558677	-0.000007
C24	C	1.337535	-0.510606	-0.000015
C25	C	1.339588	-0.424996	-0.000009
C26	C	1.341234	-0.356762	-0.000003
C27	C	0.904593	0.110138	-0.000007
C28	C	0.776231	0.108092	-0.000008
C29	C	1.547931	0.104453	-0.000003
C30	C	1.673920	0.106467	-0.000008
C31	C	1.331748	0.247460	-0.000011
C32	C	1.333755	0.331489	-0.000017
N33	N	1.340389	0.109109	0.195664
N34	N	1.340450	0.109126	-0.195668
C35	C	1.417712	0.057996	0.238932
C36	C	1.417718	0.057995	0.325479
C37	C	1.340405	0.109112	0.368757
C38	C	1.263074	0.160228	0.325483
C39	C	1.263064	0.160224	0.238937
C40	C	1.263113	0.160242	0.674511
C41	C	1.263132	0.160243	0.761062
C42	C	1.417767	0.058013	0.761053
C43	C	1.417757	0.058010	0.674507
C44	C	1.340422	0.109122	0.631241
C45	C	1.340416	0.109122	0.537397
C46	C	1.340417	0.109117	0.462599
H47	H	1.534529	-0.136184	0.000015
H48	H	1.146295	-0.645577	-0.000014
C49	C	1.120444	-0.488612	-0.000028
N50	N	1.035532	-0.448788	-0.000041
C51	C	1.178190	0.216566	0.626929
N52	N	1.114274	0.259028	0.591088
H53	H	1.200119	0.201845	0.360724
C54	C	1.502763	0.001762	0.191334
N55	N	1.566823	-0.040597	0.155486
C56	C	1.554818	-0.524714	-0.000003
N57	N	1.641293	-0.499134	-0.000004
C58	C	1.126011	-0.257047	-0.000004
N59	N	1.039541	-0.282633	0.000005
H60	H	1.480715	0.016388	0.639273
C61	C	1.502828	0.001781	0.808653
N62	N	1.566894	-0.040571	0.844505
C63	C	1.129982	-0.091245	-0.000006
N64	N	1.045074	-0.051417	-0.000008
H65	H	1.480679	0.016375	0.360707
H66	H	1.200170	0.201870	0.796298
C67	C	1.560376	-0.293149	0.000016
N68	N	1.645285	-0.332975	0.000031
C69	C	1.550844	-0.690514	-0.000007
N70	N	1.635748	-0.730346	-0.000006
C71	C	1.178012	0.216459	0.191343
N72	N	1.113948	0.258817	0.155496
