data_functionalizedCrystal
_audit_creation_method	'MofGen! by Chris Wilmer'
_symmetry_space_group_name_H-M	'P1'
_symmetry_Int_Tables_number	1
_symmetry_cell_setting	triclinic
loop_
_symmetry_equiv_pos_as_xyz
  x,y,z
_cell_length_a	14.908780
_cell_length_b	14.908520
_cell_length_c	14.908308
_cell_angle_alpha	96.360765
_cell_angle_beta	89.787311
_cell_angle_gamma	96.789949
loop_
_atom_site_label
_atom_site_type_symbol
_atom_site_fract_x
_atom_site_fract_y
_atom_site_fract_z
Zn1	Zn	-1.325975	0.317687	0.605068
Zn2	Zn	-1.325873	0.460338	0.462433
Zn3	Zn	-1.184349	0.316700	0.445982
Zn4	Zn	-1.165840	0.477723	0.604991
O5	O	-1.250509	0.393112	0.529618
O6	O	-1.452207	0.329747	0.593064
O7	O	-1.314802	0.433595	0.334011
O8	O	-1.210925	0.189742	0.460232
O9	O	-1.452132	0.434552	0.488270
O10	O	-1.314977	0.190467	0.577112
O11	O	-1.210825	0.328065	0.321925
O12	O	-1.055648	0.344922	0.460158
O13	O	-1.179380	0.464183	0.731241
O14	O	-1.042050	0.463226	0.576982
O15	O	-1.297030	0.346605	0.731297
O16	O	-1.296855	0.589733	0.488196
O17	O	-1.179280	0.602506	0.592933
C18	C	-1.016115	0.405854	0.516777
C19	C	-0.915838	0.411328	0.511306
C20	C	-0.727462	0.312652	0.610332
C21	C	-0.633242	0.317792	0.605195
C22	C	-0.633178	0.426745	0.495889
C23	C	-0.727397	0.421604	0.501027
C24	C	-0.774536	0.364557	0.558251
C25	C	-0.868757	0.359422	0.563393
C26	C	-0.868691	0.468369	0.454083
C27	C	-0.774472	0.473509	0.448946
C28	C	-1.236072	0.629072	0.542363
C29	C	-1.229976	0.730014	0.547849
C30	C	-0.485819	0.380313	0.542503
C31	C	-0.586097	0.374838	0.547976
C32	C	-1.236152	0.407443	0.764917
C33	C	-1.230033	0.413551	0.865187
C34	C	-1.265027	0.156231	0.516846
C35	C	-1.271213	0.055286	0.511403
C36	C	-1.341065	0.906332	0.449196
C37	C	-1.335341	1.001176	0.454348
C38	C	-1.212808	1.014546	0.563311
C39	C	-1.218532	0.919703	0.558158
C40	C	-1.282662	0.865599	0.501098
C41	C	-1.288381	0.770753	0.495941
C42	C	-1.165853	0.784126	0.604908
C43	C	-1.160129	0.878969	0.610060
C44	C	-1.264867	0.378768	0.295235
C45	C	-1.271176	0.372395	0.194961
C46	C	-1.341044	0.302572	1.053664
C47	C	-1.335299	0.308307	1.147877
C48	C	-1.212793	0.430751	1.147826
C49	C	-1.218538	0.425016	1.053613
C50	C	-1.282667	0.360925	1.006536
C51	C	-1.288417	0.355195	0.912322
C52	C	-1.165907	0.477634	0.912273
C53	C	-1.160161	0.483369	1.006485
H54	H	-1.340597	0.726702	0.449477
H55	H	-0.765842	0.266205	0.656931
O56	O	-1.403428	0.853905	0.393747
C57	C	-1.453729	0.910196	0.349016
H58	H	-1.450496	0.979869	0.389811
H59	H	-1.527057	0.878276	0.341845
H60	H	-1.424312	0.917960	0.279222
H61	H	-0.594918	0.275523	0.647602
O62	O	-1.403430	0.240445	1.007901
C63	C	-1.461837	0.285669	0.959368
H64	H	-1.461291	0.358623	0.991925
H65	H	-1.533345	0.248986	0.960328
H66	H	-1.438106	0.285967	0.886607
H67	H	-0.907028	0.510641	0.411682
H68	H	-1.107948	0.535548	1.044829
O69	O	-1.109320	0.534355	0.866405
C70	C	-1.160413	0.586921	0.817908
H71	H	-1.231603	0.550311	0.805805
H72	H	-1.126959	0.597065	0.750304
H73	H	-1.163991	0.655891	0.858397
H74	H	-1.382833	0.260788	1.186244
H75	H	-0.594783	0.473179	0.449289
H76	H	-1.118295	0.750950	0.647168
H77	H	-0.907136	0.312971	0.609989
O78	O	-1.150568	0.492965	1.193706
C79	C	-1.157995	0.485484	1.286963
H80	H	-1.228659	0.452749	1.302039
H81	H	-1.145506	0.556016	1.326117
H82	H	-1.105825	0.441639	1.308144
O83	O	-1.350794	0.293059	0.866558
C84	C	-1.409212	0.338267	0.818021
H85	H	-1.408683	0.411220	0.850576
H86	H	-1.480713	0.301569	0.818979
H87	H	-1.385479	0.338569	0.745261
O88	O	-0.728622	0.529030	0.393495
C89	C	-0.667400	0.593842	0.444965
H90	H	-0.691127	0.602331	0.517865
H91	H	-0.664050	0.661751	0.415947
H92	H	-0.597517	0.569852	0.442704
H93	H	-1.382900	1.034337	0.412086
O94	O	-1.150544	1.067244	0.618660
C95	C	-1.158038	1.159689	0.612095
H96	H	-1.191113	1.166786	0.544827
H97	H	-1.087912	1.199847	0.616412
H98	H	-1.201148	1.187187	0.669734
O99	O	-1.097952	0.931626	0.665540
C100	C	-1.142397	0.987162	0.729656
H101	H	-1.211880	0.995662	0.702420
H102	H	-1.100878	1.056621	0.743322
H103	H	-1.150374	0.954113	0.795070
