data_functionalizedCrystal
_audit_creation_method	'MofGen! by Chris Wilmer'
_symmetry_space_group_name_H-M	'P1'
_symmetry_Int_Tables_number	1
_symmetry_cell_setting	triclinic
loop_
_symmetry_equiv_pos_as_xyz
  x,y,z
_cell_length_a	16.109318
_cell_length_b	12.811415
_cell_length_c	11.892295
_cell_angle_alpha	80.670424
_cell_angle_beta	93.891992
_cell_angle_gamma	83.757608
loop_
_atom_site_label
_atom_site_type_symbol
_atom_site_fract_x
_atom_site_fract_y
_atom_site_fract_z
O1	O	1.097510	0.142744	-0.108538
O2	O	0.855413	0.159640	-0.110293
O3	O	0.983437	-0.002728	-0.093631
O4	O	0.969485	0.305112	-0.125199
O5	O	0.994087	-0.016246	0.095758
O6	O	0.866062	0.146123	0.079096
O7	O	1.108159	0.129227	0.080851
Zn8	Zn	0.988802	0.135529	0.110043
Zn9	Zn	0.974770	0.153338	-0.139485
O10	O	0.980134	0.291595	0.064190
C11	C	0.829764	0.152194	-0.015531
C12	C	0.737473	0.150133	-0.015328
C13	C	0.432610	0.150843	-0.117861
C14	C	0.519327	0.152773	-0.118066
C15	C	0.530956	0.138021	0.088418
C16	C	0.444242	0.136083	0.088622
C17	C	0.395070	0.142500	-0.014521
C18	C	0.568501	0.146368	-0.014931
C19	C	0.662524	0.148461	-0.015152
C20	C	0.301042	0.140405	-0.014300
C21	C	0.988307	-0.048879	0.005100
C22	C	0.986941	-0.166255	0.017129
C23	C	0.972746	-0.372067	-0.166764
C24	C	0.971462	-0.482352	-0.155467
C25	C	0.983082	-0.497110	0.051017
C26	C	0.984366	-0.386826	0.039721
C27	C	0.979199	-0.324308	-0.069173
C28	C	0.980490	-0.214022	-0.080469
C29	C	0.992103	-0.228781	0.126015
C30	C	0.990819	-0.339066	0.137311
C31	C	1.133808	0.136673	-0.013914
C32	C	1.226098	0.138734	-0.014124
C33	C	0.975265	0.337746	-0.034544
C34	C	0.976631	0.455123	-0.046580
N35	N	0.998383	0.123374	0.280340
N36	N	0.965195	0.165485	-0.309781
C37	C	0.898421	0.250120	0.504033
C38	C	0.905139	0.241614	0.623244
C39	C	1.018539	0.097860	0.637975
C40	C	1.011822	0.106366	0.518764
C41	C	0.951760	0.182498	0.451797
C42	C	0.945039	0.190999	0.332584
C43	C	1.058443	0.047251	0.347317
C44	C	1.065160	0.038744	0.466528
H45	H	0.976285	-0.163122	-0.169136
H46	H	1.067445	0.035882	0.692515
O47	O	0.555872	0.161021	-0.218394
C48	C	0.596039	0.254111	-0.234080
H49	H	0.610872	0.278505	-0.147599
H50	H	0.553008	0.321091	-0.291511
C51	C	0.659790	0.202408	-0.396673
C52	C	0.678014	0.232363	-0.290454
H53	H	0.710354	0.188995	-0.431452
H54	H	0.632726	0.139693	-0.386108
H55	H	0.623929	0.258230	-0.444518
H56	H	0.713865	0.176536	-0.242606
H57	H	0.705086	0.295069	-0.301012
H58	H	0.861706	0.296680	0.665771
O59	O	0.967889	-0.311318	-0.272511
C60	C	1.040267	-0.259063	-0.283967
H61	H	1.093483	-0.304869	-0.221102
H62	H	1.026525	-0.174748	-0.265078
C63	C	1.000644	-0.197742	-0.484128
C64	C	1.066007	-0.254007	-0.406923
H65	H	1.016521	-0.194618	-0.559974
H66	H	0.951880	-0.232943	-0.476410
H67	H	0.989199	-0.127485	-0.468373
H68	H	1.077444	-0.324266	-0.422669
H69	H	1.114774	-0.218818	-0.414646
H70	H	0.392577	0.156066	-0.201847
O71	O	1.123563	-0.035243	0.531413
C72	C	1.169180	-0.093131	0.459743
H73	H	1.165241	-0.043713	0.370320
H74	H	1.141640	-0.170773	0.455118
C75	C	1.266373	-0.178930	0.618326
C76	C	1.261540	-0.118231	0.508498
H77	H	1.323344	-0.194419	0.648402
H78	H	1.235639	-0.139934	0.666613
H79	H	1.243418	-0.243625	0.614458
H80	H	1.284485	-0.053532	0.512370
H81	H	1.292281	-0.157218	0.460212
H82	H	0.987281	-0.548030	0.139673
H83	H	0.966204	-0.521232	-0.234936
H84	H	0.896132	0.252986	0.278060
H85	H	0.995022	-0.389982	0.225969
O86	O	0.840057	0.324156	0.439141
C87	C	0.794400	0.381996	0.510813
H88	H	0.833268	0.377146	0.595663
H89	H	0.733439	0.346727	0.527023
C90	C	0.726632	0.505330	0.348372
C91	C	0.774374	0.499380	0.452584
H92	H	0.714275	0.577736	0.312453
H93	H	0.757390	0.466360	0.300085
H94	H	0.675837	0.475933	0.361895
H95	H	0.825172	0.528764	0.439058
H96	H	0.743624	0.538357	0.500868
H97	H	0.571002	0.132799	0.172393
H98	H	0.997361	-0.189885	0.205480
H99	H	0.413677	0.129288	0.172779
O100	O	1.110035	-0.018562	0.296412
C101	C	1.091113	0.005119	0.176848
H102	H	1.059184	0.090446	0.151841
H103	H	1.047385	-0.052134	0.149383
C104	C	1.211858	-0.111739	0.147838
C105	C	1.172649	-0.006935	0.117123
H106	H	1.262153	-0.119179	0.110995
H107	H	1.224606	-0.127697	0.228391
H108	H	1.175410	-0.159438	0.124949
H109	H	1.209093	0.040760	0.140025
H110	H	1.159910	0.009030	0.036572
