data_functionalizedCrystal
_audit_creation_method	'MofGen! by Chris Wilmer'
_symmetry_space_group_name_H-M	'P1'
_symmetry_Int_Tables_number	1
_symmetry_cell_setting	triclinic
loop_
_symmetry_equiv_pos_as_xyz
  x,y,z
_cell_length_a	6.817900
_cell_length_b	10.992421
_cell_length_c	16.306216
_cell_angle_alpha	93.809562
_cell_angle_beta	103.467292
_cell_angle_gamma	108.764763
loop_
_atom_site_label
_atom_site_type_symbol
_atom_site_fract_x
_atom_site_fract_y
_atom_site_fract_z
V1	V	-4.053512	-0.178766	-0.263014
O2	O	-4.012793	0.007556	-0.258019
O3	O	-4.031509	-0.353468	-0.261204
O4	O	-4.004614	-0.176470	-0.377729
O5	O	-4.039875	-0.170667	-0.140688
V6	V	-4.533784	-0.156426	-0.248384
O7	O	-4.321902	-0.227770	-0.295106
O8	O	-4.715592	-0.107421	-0.216293
O9	O	-4.332581	0.018276	-0.250195
O10	O	-4.691900	-0.342748	-0.253379
O11	O	-4.664819	-0.164524	-0.370711
O12	O	-4.359476	-0.158722	-0.133669
C13	C	-3.882948	-0.396042	-0.257051
C14	C	-3.946241	-0.538866	-0.256336
C15	C	-3.815237	-0.734131	-0.250567
C16	C	-3.749061	-0.585488	-0.250977
C17	C	-4.035017	-0.577201	-0.177666
C18	C	-4.099445	-0.725741	-0.176833
C19	C	-4.193710	-0.764939	-0.338102
C20	C	-4.124262	-0.616432	-0.339809
C21	C	-3.848639	-0.170262	-0.405690
C22	C	-3.890118	-0.169541	-0.499470
C23	C	-4.040683	-0.166952	-0.840222
C24	C	-4.246393	-0.175475	-0.809773
C25	C	-4.203162	-0.175732	-0.712182
C26	C	-3.965987	-0.168237	-0.671171
C27	C	-3.810978	-0.040806	-0.691386
C28	C	-3.855486	-0.040014	-0.788984
C29	C	-3.972038	-0.285407	-0.814097
C30	C	-3.933853	-0.287922	-0.716780
C31	C	-3.923759	-0.168959	-0.575630
C32	C	-4.082901	-0.166222	-0.935762
C33	C	-4.144485	0.060844	-0.254345
C34	C	-4.060430	0.203667	-0.255066
C35	C	-4.178794	-0.164934	-0.105704
C36	C	-4.116553	-0.165648	-0.011923
H37	H	-3.614220	-0.532817	-0.191044
O38	O	-4.432935	-0.296405	-0.855534
H39	H	-4.381040	-0.351726	-0.900475
H40	H	-4.099800	-0.381164	-0.849934
H41	H	-4.180439	-0.546969	-0.178573
O42	O	-4.317807	-0.062771	-0.833016
H43	H	-4.207422	-0.000708	-0.866158
O44	O	-4.430675	-0.819402	-0.343558
H45	H	-4.523674	-0.796828	-0.402336
H46	H	-3.700832	-0.028531	-0.808211
O47	O	-3.578816	-0.027388	-0.654983
H48	H	-3.571432	-0.111599	-0.622013
H49	H	-3.908698	-0.522727	-0.115869
H50	H	-3.831245	0.048092	-0.659355
O51	O	-3.656179	-0.551629	-0.325431
H52	H	-3.512843	-0.581085	-0.319226
H53	H	-4.235945	-0.090413	-0.681822
H54	H	-4.003068	-0.743017	-0.114370
O55	O	-3.710540	-0.290541	-0.680485
H56	H	-3.627386	-0.285192	-0.731829
O57	O	-4.167144	-0.830838	-0.416959
H58	H	-4.058632	-0.886706	-0.397844
O59	O	-4.361055	-0.297104	-0.695174
H60	H	-4.458112	-0.269540	-0.656235
O61	O	-4.332882	-0.779909	-0.176657
H62	H	-4.399292	-0.699990	-0.177160
H63	H	-4.061821	-0.592758	-0.398012
O64	O	-4.085949	-0.412721	-0.700970
H65	H	-4.184025	-0.389619	-0.660794
O66	O	-4.320001	-0.576484	-0.351453
H67	H	-4.293346	-0.500389	-0.297683
H68	H	-3.819378	-0.280175	-0.833258
O69	O	-3.912040	0.078681	-0.809084
H70	H	-3.907420	0.134970	-0.749141
H71	H	-3.776514	-0.780765	-0.306431
H72	H	-3.713273	-0.754462	-0.190684
