data_functionalizedCrystal
_audit_creation_method	'MofGen! by Chris Wilmer'
_symmetry_space_group_name_H-M	'P1'
_symmetry_Int_Tables_number	1
_symmetry_cell_setting	triclinic
loop_
_symmetry_equiv_pos_as_xyz
  x,y,z
_cell_length_a	19.805407
_cell_length_b	10.686285
_cell_length_c	10.685986
_cell_angle_alpha	81.587410
_cell_angle_beta	94.346971
_cell_angle_gamma	85.631507
loop_
_atom_site_label
_atom_site_type_symbol
_atom_site_fract_x
_atom_site_fract_y
_atom_site_fract_z
Zn1	Zn	1.025459	-0.450151	-0.679078
Zn2	Zn	1.525459	0.049849	-0.179078
Zn3	Zn	1.044203	-0.678734	-0.450578
Zn4	Zn	1.544203	-0.178734	0.049422
Zn5	Zn	0.921664	-0.466508	-0.466833
Zn6	Zn	1.421664	0.033492	0.033167
Zn7	Zn	0.921677	-0.662349	-0.662771
Zn8	Zn	1.421677	-0.162349	-0.162771
O9	O	0.978251	-0.564436	-0.564815
O10	O	1.478251	-0.064436	-0.064815
O11	O	1.122661	-0.480485	-0.648788
O12	O	1.622661	0.019515	-0.148788
O13	O	1.035788	-0.664285	-0.275106
O14	O	1.535788	-0.164285	0.224894
O15	O	0.927582	-0.286716	-0.508615
O16	O	1.427582	0.213284	-0.008615
O17	O	1.136433	-0.648424	-0.480911
O18	O	1.636433	-0.148424	0.019089
O19	O	1.003840	-0.274698	-0.664550
O20	O	1.503840	0.225302	-0.164550
O21	O	0.945759	-0.508363	-0.287049
O22	O	1.445759	-0.008363	0.212951
O23	O	0.826950	-0.492475	-0.492804
O24	O	1.326950	0.007525	0.007196
O25	O	0.927604	-0.620498	-0.842563
O26	O	1.427604	-0.120498	-0.342563
O27	O	0.826959	-0.636358	-0.636758
O28	O	1.326959	-0.136358	-0.136758
O29	O	1.003852	-0.464597	-0.854543
O30	O	1.503852	0.035403	-0.354543
O31	O	1.035800	-0.854183	-0.465099
O32	O	1.535800	-0.354183	0.034901
O33	O	0.945780	-0.842145	-0.620997
O34	O	1.445780	-0.342145	-0.120997
C35	C	0.802395	-0.564414	-0.564776
C36	C	1.302395	-0.064414	-0.064776
C37	C	0.727164	-0.564434	-0.564787
C38	C	1.227164	-0.064434	-0.064787
C39	C	0.691853	-0.639486	-0.639604
C40	C	1.191853	-0.139486	-0.139604
C41	C	0.621164	-0.639487	-0.639621
C42	C	1.121164	-0.139487	-0.139621
C43	C	0.585787	-0.564441	-0.564815
C44	C	1.085787	-0.064441	-0.064815
C45	C	0.621102	-0.489380	-0.489995
C46	C	1.121102	0.010620	0.010005
C47	C	0.691790	-0.489374	-0.489985
C48	C	1.191790	0.010626	0.010015
C49	C	0.336028	-0.489405	-0.490035
C50	C	0.836028	0.010595	0.009965
C51	C	0.265336	-0.489421	-0.490048
C52	C	0.765336	0.010579	0.009952
C53	C	0.265403	-0.639519	-0.639671
C54	C	0.765403	-0.139519	-0.139671
C55	C	0.336090	-0.639512	-0.639661
C56	C	0.836090	-0.139512	-0.139661
C57	C	0.371399	-0.564446	-0.564847
C58	C	0.871399	-0.064446	-0.064847
C59	C	0.448048	-0.564444	-0.564831
C60	C	0.948048	-0.064444	-0.064831
C61	C	0.509140	-0.564449	-0.564824
C62	C	1.009140	-0.064449	-0.064824
C63	C	0.992843	-0.894218	-0.539542
C64	C	1.492843	-0.394218	-0.039542
C65	C	0.999146	-1.035297	-0.528773
C66	C	1.499146	-0.535297	-0.028773
C67	C	1.154793	-0.564458	-0.564855
C68	C	1.654793	-0.064458	-0.064855
C69	C	1.230024	-0.564467	-0.564872
C70	C	1.730024	-0.064467	-0.064872
C71	C	0.963639	-0.538895	-0.895898
C72	C	1.463639	-0.038895	-0.395898
C73	C	0.957412	-0.528011	-1.036986
C74	C	1.457412	-0.028011	-0.536986
C75	C	0.963619	-0.233364	-0.590215
C76	C	1.463619	0.266636	-0.090215
C77	C	0.957383	-0.092280	-0.601039
C78	C	1.457383	0.407720	-0.101039
C79	C	0.992841	-0.589785	-0.235028
C80	C	1.492841	-0.089785	0.264972
C81	C	0.999183	-0.600312	-0.093968
C82	C	1.499183	-0.100312	0.406032
H83	H	0.592418	-0.700603	-0.700543
H84	H	1.092418	-0.200603	-0.200543
H85	H	1.039709	-0.670527	-1.034818
H86	H	1.539709	-0.170527	-0.534818
H87	H	1.039719	-1.094448	-0.458649
H88	H	1.539719	-0.594448	0.041351
H89	H	0.916888	-0.457781	-1.096144
H90	H	1.416888	0.042219	-0.596144
H91	H	0.364891	-0.700626	-0.700572
H92	H	0.864891	-0.200626	-0.200572
H93	H	0.720538	-0.428251	-0.429069
H94	H	1.220538	0.071749	0.070931
H95	H	0.916808	-1.033138	-0.671150
H96	H	1.416808	-0.533138	-0.171150
H97	H	0.364769	-0.428293	-0.429107
H98	H	0.864769	0.071707	0.070893
H99	H	0.720653	-0.700601	-0.700515
H100	H	1.220653	-0.200601	-0.200515
H101	H	0.236646	-0.700635	-0.700593
H102	H	0.736646	-0.200635	-0.200593
O103	O	0.231071	-0.416394	-0.417352
O104	O	0.731071	0.083606	0.082648
C105	C	0.277393	-0.350158	-0.351295
C106	C	0.777393	0.149842	0.148705
H107	H	0.325302	-0.341825	-0.403615
H108	H	0.825302	0.158175	0.096385
H109	H	0.253125	-0.251165	-0.345598
H110	H	0.753125	0.248835	0.154402
H111	H	0.291209	-0.403921	-0.251258
H112	H	0.791209	0.096079	0.248742
H113	H	0.592292	-0.428271	-0.429093
H114	H	1.092292	0.071729	0.070907
