data_functionalizedCrystal
_audit_creation_method	'MofGen! by Chris Wilmer'
_symmetry_space_group_name_H-M	'P1'
_symmetry_Int_Tables_number	1
_symmetry_cell_setting	triclinic
loop_
_symmetry_equiv_pos_as_xyz
  x,y,z
_cell_length_a	14.971482
_cell_length_b	8.597304
_cell_length_c	13.448316
_cell_angle_alpha	82.293562
_cell_angle_beta	89.993798
_cell_angle_gamma	84.477641
loop_
_atom_site_label
_atom_site_type_symbol
_atom_site_fract_x
_atom_site_fract_y
_atom_site_fract_z
O1	O	1.188614	0.204505	-0.100196
O2	O	1.688614	0.704505	0.399804
O3	O	0.928413	0.229004	-0.102299
O4	O	1.428413	0.729004	0.397701
O5	O	1.063633	-0.011704	-0.081672
O6	O	1.563633	0.488296	0.418328
O7	O	1.053394	0.445214	-0.120823
O8	O	1.553394	0.945214	0.379177
O9	O	1.063616	-0.011719	0.083713
O10	O	1.563616	0.488281	0.583713
O11	O	0.928396	0.228990	0.063086
O12	O	1.428396	0.728990	0.563086
O13	O	1.188597	0.204490	0.065189
O14	O	1.688597	0.704490	0.565189
Cu15	Cu	1.058495	0.216739	0.079239
Cu16	Cu	1.558495	0.716739	0.579239
Cu17	Cu	1.058515	0.216756	-0.116348
Cu18	Cu	1.558515	0.716756	0.383652
O19	O	1.053377	0.445199	0.044562
O20	O	1.553377	0.945199	0.544562
C21	C	0.895071	0.227903	-0.019513
C22	C	1.395071	0.727903	0.480487
C23	C	0.795747	0.224622	-0.019234
C24	C	1.295747	0.724622	0.480766
C25	C	0.749080	0.223069	0.071051
C26	C	1.249080	0.723069	0.571051
C27	C	0.655756	0.219962	0.071318
C28	C	1.155756	0.719962	0.571318
C29	C	0.609100	0.218419	-0.018701
C30	C	1.109100	0.718419	0.481299
C31	C	0.655774	0.219968	-0.108993
C32	C	1.155774	0.719968	0.391007
C33	C	0.749097	0.223064	-0.109258
C34	C	1.249097	0.723064	0.390742
C35	C	0.461259	0.213519	-0.108434
C36	C	0.961259	0.713519	0.391566
C37	C	0.367930	0.210426	-0.108169
C38	C	0.867930	0.710426	0.391831
C39	C	0.367919	0.210417	0.072142
C40	C	0.867919	0.710417	0.572142
C41	C	0.461242	0.213513	0.071877
C42	C	0.961242	0.713513	0.571877
C43	C	0.507909	0.215064	-0.018415
C44	C	1.007909	0.715064	0.481585
C45	C	1.062524	-0.070185	0.006028
C46	C	1.562524	0.429815	0.506028
C47	C	1.059235	-0.244419	0.020951
C48	C	1.559235	0.255581	0.520951
C49	C	1.221939	0.205592	-0.017599
C50	C	1.721939	0.705592	0.482401
C51	C	1.321263	0.208873	-0.017884
C52	C	1.821263	0.708873	0.482116
C53	C	1.054486	0.503680	-0.043140
C54	C	1.554486	1.003680	0.456860
C55	C	1.057775	0.677914	-0.058069
C56	C	1.557775	1.177914	0.441931
N57	N	1.058487	0.216725	0.216804
N58	N	1.558487	0.716725	0.716804
N59	N	1.058530	0.216757	-0.253913
N60	N	1.558530	0.716757	0.246087
C61	C	1.118382	0.110184	0.277974
C62	C	1.618382	0.610184	0.777974
C63	C	1.118387	0.110182	0.382078
C64	C	1.618387	0.610182	0.882078
C65	C	1.058502	0.216732	0.425008
C66	C	1.558502	0.716732	0.925008
C67	C	0.998601	0.323278	0.363830
C68	C	1.498601	0.823278	0.863830
C69	C	0.998591	0.323271	0.259730
C70	C	1.498591	0.823271	0.759730
C71	C	0.998625	0.323289	0.580809
C72	C	1.498625	0.823289	1.080809
C73	C	0.998636	0.323299	0.684917
C74	C	1.498636	0.823299	1.184917
C75	C	1.118421	0.110200	0.703157
C76	C	1.618421	0.610200	1.203157
C77	C	1.118412	0.110193	0.599057
C78	C	1.618412	0.610193	1.099057
C79	C	1.058512	0.216742	0.537886
C80	C	1.558512	0.716742	1.037886
H81	H	0.329945	0.209171	-0.181471
H82	H	0.829945	0.709171	0.318529
H83	H	0.499253	0.214782	-0.181959
H84	H	0.999253	0.714782	0.318041
Cl85	Cl	1.193724	-0.023742	0.780061
Cl86	Cl	1.693724	0.476258	1.280061
H87	H	1.059039	-0.255285	-0.137145
H88	H	1.559039	0.244715	0.362855
H89	H	1.057958	-0.311225	0.100031
H90	H	1.557958	0.188775	0.600031
H91	H	0.617766	0.218671	0.144839
H92	H	1.117766	0.718671	0.644839
H93	H	0.949870	0.410061	0.719865
H94	H	1.449870	0.910061	1.219865
Cl95	Cl	1.193675	-0.023766	0.224016
Cl96	Cl	1.693675	0.476234	0.724016
Cl97	Cl	1.193684	-0.023760	0.458979
Cl98	Cl	1.693684	0.476240	0.958979
H99	H	0.787091	0.224331	-0.182778
H100	H	1.287091	0.724331	0.317222
H101	H	0.617780	0.218700	-0.182287
H102	H	1.117780	0.718700	0.317713
H103	H	1.167179	0.023440	0.564103
H104	H	1.667179	0.523440	1.064103
Cl105	Cl	0.923318	0.457237	0.503913
Cl106	Cl	1.423318	0.957237	1.003913
H107	H	0.949836	0.410028	0.398791
H108	H	1.449836	0.910028	0.898791
H109	H	0.329919	0.209154	0.145661
H110	H	0.829919	0.709154	0.645661
Cl111	Cl	0.807724	0.225019	0.184224
Cl112	Cl	1.307724	0.725019	0.684224
Cl113	Cl	0.519893	0.215470	0.185045
Cl114	Cl	1.019893	0.715470	0.685045
Cl115	Cl	0.923288	0.457210	0.182831
Cl116	Cl	1.423288	0.957210	0.682831
