data_functionalizedCrystal
_audit_creation_method	'MofGen! by Chris Wilmer'
_symmetry_space_group_name_H-M	'P1'
_symmetry_Int_Tables_number	1
_symmetry_cell_setting	triclinic
loop_
_symmetry_equiv_pos_as_xyz
  x,y,z
_cell_length_a	10.686285
_cell_length_b	12.759401
_cell_length_c	10.686409
_cell_angle_alpha	85.570169
_cell_angle_beta	89.594968
_cell_angle_gamma	85.636231
loop_
_atom_site_label
_atom_site_type_symbol
_atom_site_fract_x
_atom_site_fract_y
_atom_site_fract_z
Zn1	Zn	-0.553059	1.684869	-0.670939
Zn2	Zn	-0.053059	2.184869	-0.170939
Zn3	Zn	-0.746960	1.682620	-0.445110
Zn4	Zn	-0.246960	2.182620	0.054890
Zn5	Zn	-0.537220	1.494644	-0.461198
Zn6	Zn	-0.037220	1.994644	0.038802
Zn7	Zn	-0.762798	1.521542	-0.654842
Zn8	Zn	-0.262798	2.021542	-0.154842
O9	O	-0.650009	1.595919	-0.558022
O10	O	-0.150009	2.095919	-0.058022
O11	O	-0.578781	1.831592	-0.640986
O12	O	-0.078781	2.331592	-0.140986
O13	O	-0.705880	1.645487	-0.271693
O14	O	-0.205880	2.145487	0.228307
O15	O	-0.363767	1.509562	-0.502489
O16	O	0.136233	2.009562	-0.002489
O17	O	-0.721239	1.829940	-0.475070
O18	O	-0.221239	2.329940	0.024930
O19	O	-0.375405	1.649320	-0.656585
O20	O	0.124595	2.149320	-0.156585
O21	O	-0.551785	1.507382	-0.283513
O22	O	-0.051785	2.007382	0.216487
O23	O	-0.567142	1.351191	-0.486882
O24	O	-0.067142	1.851191	0.013118
O25	O	-0.748233	1.555406	-0.832528
O26	O	-0.248233	2.055406	-0.332528
O27	O	-0.732874	1.370953	-0.629151
O28	O	-0.232874	1.870953	-0.129151
O29	O	-0.594139	1.675402	-0.844354
O30	O	-0.094139	2.175402	-0.344354
O31	O	-0.924614	1.671569	-0.459463
O32	O	-0.424614	2.171569	0.040537
O33	O	-0.936250	1.553225	-0.613552
O34	O	-0.436250	2.053225	-0.113552
C35	C	-0.650009	1.322951	-0.558016
C36	C	-0.150009	1.822951	-0.058016
C37	C	-0.650041	1.206178	-0.558041
C38	C	-0.150041	1.706178	-0.058041
C39	C	-0.975953	1.615102	-0.533042
C40	C	-0.475953	2.115102	-0.033042
C41	C	-1.115397	1.623408	-0.522398
C42	C	-0.615397	2.123408	-0.022398
C43	C	-0.674720	1.618655	-0.885232
C44	C	-0.174720	2.118655	-0.385232
C45	C	-0.685250	1.628344	-1.024670
C46	C	-0.185250	2.128344	-0.524670
C47	C	-0.322794	1.576692	-0.583127
C48	C	0.177206	2.076692	-0.083127
C49	C	-0.183355	1.568498	-0.593825
C50	C	0.316645	2.068498	-0.093825
C51	C	-0.650010	1.869953	-0.558029
C52	C	-0.150010	2.369953	-0.058029
C53	C	-0.650011	1.986730	-0.558032
C54	C	-0.150011	2.486730	-0.058032
C55	C	-0.575846	2.042454	-0.644413
C56	C	-0.075846	2.542454	-0.144413
C57	C	-0.575864	2.152179	-0.644421
C58	C	-0.075864	2.652179	-0.144421
C59	C	-0.724215	2.150447	-0.471655
C60	C	-0.224215	2.650447	0.028345
C61	C	-0.724203	2.040724	-0.471654
C62	C	-0.224203	2.540724	0.028346
C63	C	-0.625304	1.573326	-0.232092
C64	C	-0.125304	2.073326	0.267908
C65	C	-0.614421	1.563820	-0.092682
C66	C	-0.114421	2.063820	0.407318
H67	H	-1.134860	1.515134	-0.663123
H68	H	-0.634860	2.015134	-0.163123
O69	O	-0.532105	1.489150	-0.035114
O70	O	-0.032105	1.989150	0.464886
C71	C	-0.468416	1.431086	-0.126339
C72	C	0.031584	1.931086	0.373661
H73	H	-0.527035	1.437067	-0.215675
H74	H	-0.027035	1.937067	0.284325
H75	H	-0.452811	1.344919	-0.089219
H76	H	0.047189	1.844919	0.410781
H77	H	-0.373905	1.464319	-0.147890
H78	H	0.126095	1.964319	0.352110
H79	H	-1.163899	1.676767	-0.453087
H80	H	-0.663899	2.176767	0.046913
H81	H	-0.754224	1.690852	-0.073094
H82	H	-0.254224	2.190852	0.426906
O83	O	-0.503642	1.989937	-0.728157
O84	O	-0.003642	2.489937	-0.228157
C85	C	-0.417232	1.916732	-0.662956
C86	C	0.082768	2.416732	-0.162956
H87	H	-0.402021	1.942475	-0.564746
H88	H	0.097979	2.442475	-0.064746
H89	H	-0.324115	1.912977	-0.715739
H90	H	0.175885	2.412977	-0.215739
H91	H	-0.455682	1.835551	-0.655659
H92	H	0.044318	2.335551	-0.155659
H93	H	-0.515473	2.197545	-0.714763
H94	H	-0.015473	2.697545	-0.214763
O95	O	-0.796157	2.203056	-0.387794
O96	O	-0.296157	2.703056	0.112206
C97	C	-0.780287	2.311853	-0.406333
C98	C	-0.280287	2.811853	0.093667
H99	H	-0.686576	2.324011	-0.454847
H100	H	-0.186576	2.824011	0.045153
H101	H	-0.781703	2.347521	-0.311713
H102	H	-0.281703	2.847521	0.188287
H103	H	-0.859747	2.352002	-0.467429
H104	H	-0.359747	2.852002	0.032571
H105	H	-0.784604	1.995352	-0.401311
H106	H	-0.284604	2.495352	0.098689
