data_functionalizedCrystal
_audit_creation_method	'MofGen! by Chris Wilmer'
_symmetry_space_group_name_H-M	'P1'
_symmetry_Int_Tables_number	1
_symmetry_cell_setting	triclinic
loop_
_symmetry_equiv_pos_as_xyz
  x,y,z
_cell_length_a	23.532407
_cell_length_b	27.731996
_cell_length_c	22.010155
_cell_angle_alpha	89.998256
_cell_angle_beta	89.994271
_cell_angle_gamma	82.735067
loop_
_atom_site_label
_atom_site_type_symbol
_atom_site_fract_x
_atom_site_fract_y
_atom_site_fract_z
O1	O	0.755125	0.058674	-0.050495
O2	O	1.005125	0.308674	0.199505
O3	O	1.255125	0.558674	0.449505
O4	O	1.505125	0.808674	0.699505
O5	O	0.589242	0.067164	-0.050505
O6	O	0.839242	0.317164	0.199495
O7	O	1.089242	0.567164	0.449495
O8	O	1.339242	0.817164	0.699495
O9	O	0.677351	-0.007472	-0.050486
O10	O	0.927351	0.242528	0.199514
O11	O	1.177351	0.492528	0.449514
O12	O	1.427351	0.742528	0.699514
O13	O	0.667016	0.133310	-0.050513
O14	O	0.917016	0.383310	0.199487
O15	O	1.167016	0.633310	0.449487
O16	O	1.417016	0.883310	0.699487
O17	O	0.677335	-0.007460	0.050564
O18	O	0.927335	0.242540	0.300564
O19	O	1.177335	0.492540	0.550564
O20	O	1.427335	0.742540	0.800564
O21	O	0.589226	0.067175	0.050545
O22	O	0.839226	0.317175	0.300545
O23	O	1.089226	0.567175	0.550545
O24	O	1.339226	0.817175	0.800545
O25	O	0.755109	0.058685	0.050556
O26	O	1.005109	0.308685	0.300556
O27	O	1.255109	0.558685	0.550556
O28	O	1.505109	0.808685	0.800556
Cu29	Cu	0.672166	0.062931	0.059777
Cu30	Cu	0.922166	0.312931	0.309777
Cu31	Cu	1.172166	0.562931	0.559777
Cu32	Cu	1.422166	0.812931	0.809777
Cu33	Cu	0.672185	0.062918	-0.059727
Cu34	Cu	0.922185	0.312918	0.190273
Cu35	Cu	1.172185	0.562918	0.440273
Cu36	Cu	1.422185	0.812918	0.690273
O37	O	0.667000	0.133321	0.050537
O38	O	0.917000	0.383321	0.300537
O39	O	1.167000	0.633321	0.550537
O40	O	1.417000	0.883321	0.800537
C41	C	0.568019	0.066954	0.000019
C42	C	0.818019	0.316954	0.250019
C43	C	1.068019	0.566954	0.500019
C44	C	1.318019	0.816954	0.750019
C45	C	0.504803	0.066303	0.000015
C46	C	0.754803	0.316303	0.250015
C47	C	1.004803	0.566303	0.500015
C48	C	1.254803	0.816303	0.750015
C49	C	0.238746	0.019455	0.000041
C50	C	0.488746	0.269455	0.250041
C51	C	0.738746	0.519455	0.500041
C52	C	0.988746	0.769455	0.750041
C53	C	0.298145	0.020059	0.000040
C54	C	0.548145	0.270059	0.250040
C55	C	0.798145	0.520059	0.500040
C56	C	1.048145	0.770059	0.750040
O57	O	0.334977	-0.017106	0.000069
O58	O	0.584977	0.232894	0.250069
O59	O	0.834977	0.482894	0.500069
O60	O	1.084977	0.732894	0.750069
N61	N	0.320666	0.064430	0.000028
N62	N	0.570666	0.314430	0.250028
N63	N	0.820666	0.564430	0.500028
N64	N	1.070666	0.814430	0.750028
C65	C	0.283786	0.108200	0.000022
C66	C	0.533786	0.358200	0.250022
C67	C	0.783786	0.608200	0.500022
C68	C	1.033786	0.858200	0.750022
O69	O	0.308396	0.145996	0.000011
O70	O	0.558396	0.395996	0.250011
O71	O	0.808396	0.645996	0.500011
O72	O	1.058396	0.895996	0.750011
C73	C	0.224388	0.107595	0.000026
C74	C	0.474388	0.357595	0.250026
C75	C	0.724388	0.607595	0.500026
C76	C	0.974388	0.857595	0.750026
C77	C	0.201870	0.063221	0.000033
C78	C	0.451870	0.313221	0.250033
C79	C	0.701870	0.563221	0.500033
C80	C	0.951870	0.813221	0.750033
C81	C	0.216227	-0.024915	0.000048
C82	C	0.466227	0.225085	0.250048
C83	C	0.716227	0.475085	0.500048
C84	C	0.966227	0.725085	0.750048
C85	C	0.156832	-0.025519	0.000047
C86	C	0.406832	0.224481	0.250047
C87	C	0.656832	0.474481	0.500047
C88	C	0.906832	0.724481	0.750047
C89	C	0.119956	0.018248	0.000039
C90	C	0.369956	0.268248	0.250039
C91	C	0.619956	0.518248	0.500039
C92	C	0.869956	0.768248	0.750039
C93	C	0.142475	0.062618	0.000032
C94	C	0.392475	0.312618	0.250032
C95	C	0.642475	0.562618	0.500032
C96	C	0.892475	0.812618	0.750032
C97	C	0.187509	0.151365	0.000024
C98	C	0.437509	0.401365	0.250024
C99	C	0.687509	0.651365	0.500024
C100	C	0.937509	0.901365	0.750024
C101	C	0.128108	0.150757	0.000030
C102	C	0.378108	0.400757	0.250030
C103	C	0.628108	0.650757	0.500030
C104	C	0.878108	0.900757	0.750030
C105	C	0.105589	0.106383	0.000036
C106	C	0.355589	0.356383	0.250036
C107	C	0.605589	0.606383	0.500036
C108	C	0.855589	0.856383	0.750036
C109	C	0.046205	0.105781	0.000023
C110	C	0.296205	0.355781	0.250023
C111	C	0.546205	0.605781	0.500023
C112	C	0.796205	0.855781	0.750023
N113	N	0.023683	0.061410	0.000036
N114	N	0.273683	0.311410	0.250036
N115	N	0.523683	0.561410	0.500036
N116	N	0.773683	0.811410	0.750036
C117	C	0.060559	0.017643	0.000044
C118	C	0.310559	0.267643	0.250044
C119	C	0.560559	0.517643	0.500044
C120	C	0.810559	0.767643	0.750044
C121	C	0.408525	0.109465	0.000013
C122	C	0.658525	0.359465	0.250013
C123	C	0.908525	0.609465	0.500013
C124	C	1.158525	0.859465	0.750013
C125	C	0.467922	0.110070	0.000004
C126	C	0.717922	0.360070	0.250004
C127	C	0.967922	0.610070	0.500004
C128	C	1.217922	0.860070	0.750004
C129	C	0.482277	0.021929	0.000024
C130	C	0.732277	0.271929	0.250024
C131	C	0.982277	0.521929	0.500024
C132	C	1.232277	0.771929	0.750024
C133	C	0.422879	0.021325	0.000029
C134	C	0.672879	0.271325	0.250029
C135	C	0.922879	0.521325	0.500029
C136	C	1.172879	0.771325	0.750029
C137	C	0.386004	0.065095	0.000026
C138	C	0.636004	0.315095	0.250026
C139	C	0.886004	0.565095	0.500026
C140	C	1.136004	0.815095	0.750026
C141	C	-0.064175	0.016379	0.000041
C142	C	0.185825	0.266379	0.250041
C143	C	0.435825	0.516379	0.500041
C144	C	0.685825	0.766379	0.750041
C145	C	-0.123576	0.015779	0.000038
C146	C	0.126424	0.265779	0.250038
C147	C	0.376424	0.515779	0.500038
C148	C	0.626424	0.765779	0.750038
C149	C	-0.137925	0.103920	0.000021
C150	C	0.112075	0.353920	0.250021
C151	C	0.362075	0.603920	0.500021
C152	C	0.612075	0.853920	0.750021
C153	C	-0.078530	0.104520	0.000021
C154	C	0.171470	0.354520	0.250021
C155	C	0.421470	0.604520	0.500021
C156	C	0.671470	0.854520	0.750021
C157	C	-0.041656	0.060745	0.000033
C158	C	0.208344	0.310745	0.250033
C159	C	0.458344	0.560745	0.500033
C160	C	0.708344	0.810745	0.750033
O161	O	0.009338	0.142926	-0.000003
O162	O	0.259338	0.392926	0.249997
O163	O	0.509338	0.642926	0.499997
O164	O	0.759338	0.892926	0.749997
O165	O	0.035940	-0.020147	0.000062
O166	O	0.285940	0.229853	0.250062
O167	O	0.535940	0.479853	0.500062
O168	O	0.785940	0.729853	0.750062
C169	C	0.677131	-0.025474	0.000041
C170	C	0.927131	0.224526	0.250041
C171	C	1.177131	0.474526	0.500041
C172	C	1.427131	0.724526	0.750041
C173	C	0.676491	-0.079131	0.000047
C174	C	0.926491	0.170869	0.250047
C175	C	1.176491	0.420869	0.500047
C176	C	1.426491	0.670869	0.750047
C177	C	0.672477	-0.411860	-0.055066
C178	C	0.922477	-0.161860	0.194934
C179	C	1.172477	0.088140	0.444934
C180	C	1.422477	0.338140	0.694934
C181	C	0.670049	-0.613522	-0.055076
C182	C	0.920049	-0.363522	0.194924
C183	C	1.170049	-0.113522	0.444924
C184	C	1.420049	0.136478	0.694924
O185	O	0.669718	-0.639598	-0.101922
O186	O	0.919718	-0.389598	0.148078
O187	O	1.169718	-0.139598	0.398078
O188	O	1.419718	0.110402	0.648078
N189	N	0.669738	-0.638733	0.000006
N190	N	0.919738	-0.388733	0.250006
N191	N	1.169738	-0.138733	0.500006
N192	N	1.419738	0.111267	0.750006
C193	C	0.670031	-0.613526	0.055094
C194	C	0.920031	-0.363526	0.305094
C195	C	1.170031	-0.113526	0.555094
C196	C	1.420031	0.136474	0.805094
O197	O	0.669706	-0.639596	0.101945
O198	O	0.919706	-0.389596	0.351945
O199	O	1.169706	-0.139596	0.601945
O200	O	1.419706	0.110404	0.851945
C201	C	0.672456	-0.411864	0.055104
C202	C	0.922456	-0.161864	0.305104
C203	C	1.172456	0.088136	0.555104
C204	C	1.422456	0.338136	0.805104
C205	C	0.672772	-0.386656	0.000019
C206	C	0.922772	-0.136656	0.250019
C207	C	1.172772	0.113344	0.500019
C208	C	1.422772	0.363344	0.750019
C209	C	0.672792	-0.386651	-0.110147
C210	C	0.922792	-0.136651	0.139853
C211	C	1.172792	0.113349	0.389853
C212	C	1.422792	0.363349	0.639853
C213	C	0.673403	-0.336239	-0.110143
C214	C	0.923403	-0.086239	0.139857
C215	C	1.173403	0.163761	0.389857
C216	C	1.423403	0.413761	0.639857
C217	C	0.673697	-0.311035	-0.055059
C218	C	0.923697	-0.061035	0.194941
C219	C	1.173697	0.188965	0.444941
C220	C	1.423697	0.438965	0.694941
C221	C	0.673382	-0.336244	0.000022
C222	C	0.923382	-0.086244	0.250022
C223	C	1.173382	0.163756	0.500022
C224	C	1.423382	0.413756	0.750022
C225	C	0.672744	-0.386657	0.110192
C226	C	0.922744	-0.136657	0.360192
C227	C	1.172744	0.113343	0.610192
C228	C	1.422744	0.363343	0.860192
C229	C	0.673349	-0.336238	0.110190
C230	C	0.923349	-0.086238	0.360190
C231	C	1.173349	0.163762	0.610190
C232	C	1.423349	0.413762	0.860190
C233	C	0.673665	-0.311030	0.055104
C234	C	0.923665	-0.061030	0.305104
C235	C	1.173665	0.188970	0.555104
C236	C	1.423665	0.438970	0.805104
C237	C	0.674287	-0.260628	0.055110
C238	C	0.924287	-0.010628	0.305110
C239	C	1.174287	0.239372	0.555110
C240	C	1.424287	0.489372	0.805110
N241	N	0.674597	-0.235416	0.000028
N242	N	0.924597	0.014584	0.250028
N243	N	1.174597	0.264584	0.500028
N244	N	1.424597	0.514584	0.750028
C245	C	0.674302	-0.260620	-0.055057
C246	C	0.924302	-0.010620	0.194943
C247	C	1.174302	0.239380	0.444943
C248	C	1.424302	0.489380	0.694943
C249	C	0.668760	-0.719401	0.055085
C250	C	0.918760	-0.469401	0.305085
C251	C	1.168760	-0.219401	0.555085
C252	C	1.418760	0.030599	0.805085
C253	C	0.668155	-0.769816	0.055083
C254	C	0.918155	-0.519816	0.305083
C255	C	1.168155	-0.269816	0.555083
C256	C	1.418155	-0.019816	0.805083
C257	C	0.668171	-0.769809	-0.055088
C258	C	0.918171	-0.519809	0.194912
C259	C	1.168171	-0.269809	0.444912
C260	C	1.418171	-0.019809	0.694912
C261	C	0.668780	-0.719393	-0.055085
C262	C	0.918780	-0.469393	0.194915
C263	C	1.168780	-0.219393	0.444915
C264	C	1.418780	0.030607	0.694915
C265	C	0.669070	-0.694189	0.000003
C266	C	0.919070	-0.444189	0.250003
C267	C	1.169070	-0.194189	0.500003
C268	C	1.419070	0.055811	0.750003
C269	C	0.675584	-0.154751	-0.055046
C270	C	0.925584	0.095249	0.194954
C271	C	1.175584	0.345249	0.444954
C272	C	1.425584	0.595249	0.694954
C273	C	0.676197	-0.104335	-0.055037
C274	C	0.926197	0.145665	0.194963
C275	C	1.176197	0.395665	0.444963
C276	C	1.426197	0.645665	0.694963
C277	C	0.676177	-0.104346	0.055133
C278	C	0.926177	0.145654	0.305133
C279	C	1.176177	0.395654	0.555133
C280	C	1.426177	0.645654	0.805133
C281	C	0.675568	-0.154759	0.055125
C282	C	0.925568	0.095241	0.305125
C283	C	1.175568	0.345241	0.555125
C284	C	1.425568	0.595241	0.805125
C285	C	0.675269	-0.179959	0.000031
C286	C	0.925269	0.070041	0.250031
C287	C	1.175269	0.320041	0.500031
C288	C	1.425269	0.570041	0.750031
O289	O	0.674612	-0.234520	0.101931
O290	O	0.924612	0.015480	0.351931
O291	O	1.174612	0.265480	0.601931
O292	O	1.424612	0.515480	0.851931
O293	O	0.674615	-0.234539	-0.101900
O294	O	0.924615	0.015461	0.148100
O295	O	1.174615	0.265461	0.398100
O296	O	1.424615	0.515461	0.648100
C297	C	0.671867	-0.462272	-0.055069
C298	C	0.921867	-0.212272	0.194931
C299	C	1.171867	0.037728	0.444931
C300	C	1.421867	0.287728	0.694931
C301	C	0.671551	-0.487480	0.000012
C302	C	0.921551	-0.237480	0.250012
C303	C	1.171551	0.012520	0.500012
C304	C	1.421551	0.262520	0.750012
C305	C	0.671846	-0.462276	0.055097
C306	C	0.921846	-0.212276	0.305097
C307	C	1.171846	0.037724	0.555097
C308	C	1.421846	0.287724	0.805097
C309	C	0.670946	-0.537895	0.000010
C310	C	0.920946	-0.287895	0.250010
C311	C	1.170946	-0.037895	0.500010
C312	C	1.420946	0.212105	0.750010
C313	C	0.670652	-0.563099	-0.055075
C314	C	0.920652	-0.313099	0.194925
C315	C	1.170652	-0.063099	0.444925
C316	C	1.420652	0.186901	0.694925
C317	C	0.670962	-0.537888	-0.110157
C318	C	0.920962	-0.287888	0.139843
C319	C	1.170962	-0.037888	0.389843
C320	C	1.420962	0.212112	0.639843
C321	C	0.671572	-0.487475	-0.110153
C322	C	0.921572	-0.237475	0.139847
C323	C	1.171572	0.012525	0.389847
C324	C	1.421572	0.262525	0.639847
C325	C	0.671536	-0.487488	0.110179
C326	C	0.921536	-0.237488	0.360179
C327	C	1.171536	0.012512	0.610179
C328	C	1.421536	0.262512	0.860179
C329	C	0.670926	-0.537900	0.110171
C330	C	0.920926	-0.287900	0.360171
C331	C	1.170926	-0.037900	0.610171
C332	C	1.420926	0.212100	0.860171
C333	C	0.670632	-0.563104	0.055087
C334	C	0.920632	-0.313104	0.305087
C335	C	1.170632	-0.063104	0.555087
C336	C	1.420632	0.186896	0.805087
C337	C	0.776333	0.058896	0.000030
C338	C	1.026333	0.308896	0.250030
C339	C	1.276333	0.558896	0.500030
C340	C	1.526333	0.808896	0.750030
C341	C	0.839548	0.059546	0.000030
C342	C	1.089548	0.309546	0.250030
C343	C	1.339548	0.559546	0.500030
C344	C	1.589548	0.809546	0.750030
C345	C	0.667221	0.151323	0.000008
C346	C	0.917221	0.401323	0.250008
C347	C	1.167221	0.651323	0.500008
C348	C	1.417221	0.901323	0.750008
C349	C	0.667860	0.204980	-0.000002
C350	C	0.917860	0.454980	0.249998
C351	C	1.167860	0.704980	0.499998
C352	C	1.417860	0.954980	0.749998
N353	N	0.672157	0.062940	0.143830
N354	N	0.922157	0.312940	0.393830
N355	N	1.172157	0.562940	0.643830
N356	N	1.422157	0.812940	0.893830
N357	N	0.672199	0.062905	-0.143779
N358	N	0.922199	0.312905	0.106221
N359	N	1.172199	0.562905	0.356221
N360	N	1.422199	0.812905	0.606221
C361	C	0.711202	0.029874	0.563617
C362	C	0.961202	0.279874	0.813617
C363	C	1.211202	0.529874	1.063617
C364	C	1.461202	0.779874	1.313617
C365	C	0.711205	0.029871	0.627225
C366	C	0.961205	0.279871	0.877225
C367	C	1.211205	0.529871	1.127225
C368	C	1.461205	0.779871	1.377225
O369	O	0.744379	0.001763	0.660123
O370	O	0.994379	0.251763	0.910123
O371	O	1.244379	0.501763	1.160123
O372	O	1.494379	0.751763	1.410123
N373	N	0.672185	0.062908	0.659037
N374	N	0.922185	0.312908	0.909037
N375	N	1.172185	0.562908	1.159037
N376	N	1.422185	0.812908	1.409037
C377	C	0.633156	0.095947	0.627238
C378	C	0.883156	0.345947	0.877238
C379	C	1.133156	0.595947	1.127238
C380	C	1.383156	0.845947	1.377238
O381	O	0.599966	0.124048	0.660137
O382	O	0.849966	0.374048	0.910137
O383	O	1.099966	0.624048	1.160137
O384	O	1.349966	0.874048	1.410137
C385	C	0.633151	0.095948	0.563631
C386	C	0.883151	0.345948	0.813631
C387	C	1.133151	0.595948	1.063631
C388	C	1.383151	0.845948	1.313631
C389	C	0.672177	0.062912	0.531823
C390	C	0.922177	0.312912	0.781823
C391	C	1.172177	0.562912	1.031823
C392	C	1.422177	0.812912	1.281823
C393	C	0.750225	-0.003160	0.531809
C394	C	1.000225	0.246840	0.781809
C395	C	1.250225	0.496840	1.031809
C396	C	1.500225	0.746840	1.281809
C397	C	0.750223	-0.003156	0.468206
C398	C	1.000223	0.246844	0.718206
C399	C	1.250223	0.496844	0.968206
C400	C	1.500223	0.746844	1.218206
C401	C	0.711198	0.029882	0.436411
C402	C	0.961198	0.279882	0.686411
C403	C	1.211198	0.529882	0.936411
C404	C	1.461198	0.779882	1.186411
C405	C	0.672175	0.062916	0.468219
C406	C	0.922175	0.312916	0.718219
C407	C	1.172175	0.562916	0.968219
C408	C	1.422175	0.812916	1.218219
C409	C	0.594120	0.128985	0.531833
C410	C	0.844120	0.378985	0.781833
C411	C	1.094120	0.628985	1.031833
C412	C	1.344120	0.878985	1.281833
C413	C	0.594118	0.128982	0.468222
C414	C	0.844118	0.378982	0.718222
C415	C	1.094118	0.628982	0.968222
C416	C	1.344118	0.878982	1.218222
C417	C	0.633144	0.095946	0.436414
C418	C	0.883144	0.345946	0.686414
C419	C	1.133144	0.595946	0.936414
C420	C	1.383144	0.845946	1.186414
C421	C	0.633148	0.095958	0.372822
C422	C	0.883148	0.345958	0.622822
C423	C	1.133148	0.595958	0.872822
C424	C	1.383148	0.845958	1.122822
N425	N	0.672168	0.062921	0.341010
N426	N	0.922168	0.312921	0.591010
N427	N	1.172168	0.562921	0.841010
N428	N	1.422168	0.812921	1.091010
C429	C	0.711193	0.029883	0.372804
C430	C	0.961193	0.279883	0.622804
C431	C	1.211193	0.529883	0.872804
C432	C	1.461193	0.779883	1.122804
C433	C	0.633169	0.095943	0.760815
C434	C	0.883169	0.345943	1.010815
C435	C	1.133169	0.595943	1.260815
C436	C	1.383169	0.845943	1.510815
C437	C	0.633176	0.095945	0.824421
C438	C	0.883176	0.345945	1.074421
C439	C	1.133176	0.595945	1.324421
C440	C	1.383176	0.845945	1.574421
C441	C	0.711224	0.029867	0.824404
C442	C	0.961224	0.279867	1.074404
C443	C	1.211224	0.529867	1.324404
C444	C	1.461224	0.779867	1.574404
C445	C	0.711219	0.029868	0.760797
C446	C	0.961219	0.279868	1.010797
C447	C	1.211219	0.529868	1.260797
C448	C	1.461219	0.779868	1.510797
C449	C	0.672189	0.062906	0.729004
C450	C	0.922189	0.312906	0.979004
C451	C	1.172189	0.562906	1.229004
C452	C	1.422189	0.812906	1.479004
C453	C	0.711186	0.029894	0.239233
C454	C	0.961186	0.279894	0.489233
C455	C	1.211186	0.529894	0.739233
C456	C	1.461186	0.779894	0.989233
C457	C	0.711182	0.029902	0.175624
C458	C	0.961182	0.279902	0.425624
C459	C	1.211182	0.529902	0.675624
C460	C	1.461182	0.779902	0.925624
C461	C	0.633132	0.095978	0.175647
C462	C	0.883132	0.345978	0.425647
C463	C	1.133132	0.595978	0.675647
C464	C	1.383132	0.845978	0.925647
C465	C	0.633138	0.095971	0.239250
C466	C	0.883138	0.345971	0.489250
C467	C	1.133138	0.595971	0.739250
C468	C	1.383138	0.845971	0.989250
C469	C	0.672167	0.062925	0.271042
C470	C	0.922167	0.312925	0.521042
C471	C	1.172167	0.562925	0.771042
C472	C	1.422167	0.812925	1.021042
O473	O	0.599989	0.124050	0.339883
O474	O	0.849989	0.374050	0.589883
O475	O	1.099989	0.624050	0.839883
O476	O	1.349989	0.874050	1.089883
O477	O	0.744372	0.001783	0.339898
O478	O	0.994372	0.251783	0.589898
O479	O	1.244372	0.501783	0.839898
O480	O	1.494372	0.751783	1.089898
H481	H	0.138504	-0.061653	0.000055
H482	H	0.388504	0.188347	0.250055
H483	H	0.638504	0.438347	0.500055
H484	H	0.888504	0.688347	0.750055
H485	H	0.098086	0.186400	0.000030
H486	H	0.348086	0.436400	0.250030
H487	H	0.598086	0.686400	0.500030
H488	H	0.848086	0.936400	0.750030
F489	F	0.673735	-0.309416	-0.168774
F490	F	0.923735	-0.059416	0.081226
F491	F	1.173735	0.190584	0.331226
F492	F	1.423735	0.440584	0.581226
H493	H	0.671777	-0.466972	0.155036
H494	H	0.921777	-0.216972	0.405036
H495	H	1.171777	0.033028	0.655036
H496	H	1.421777	0.283028	0.905036
H497	H	0.671829	-0.466955	-0.155010
H498	H	0.921829	-0.216955	0.094990
H499	H	1.171829	0.033045	0.344990
H500	H	1.421829	0.283045	0.594990
H501	H	0.601403	0.122851	0.850315
H502	H	0.851403	0.372851	1.100315
H503	H	1.101403	0.622851	1.350315
H504	H	1.351403	0.872851	1.600315
F505	F	0.752725	-0.005277	0.273059
F506	F	1.002725	0.244723	0.523059
F507	F	1.252725	0.494723	0.773059
F508	F	1.502725	0.744723	1.023059
H509	H	0.670725	-0.558418	-0.155008
H510	H	0.920725	-0.308418	0.094992
H511	H	1.170725	-0.058418	0.344992
H512	H	1.420725	0.191582	0.594992
H513	H	0.742964	0.003000	0.149728
H514	H	0.992964	0.253000	0.399728
H515	H	1.242964	0.503000	0.649728
H516	H	1.492964	0.753000	0.899728
F517	F	0.791757	-0.038319	0.434358
F518	F	1.041757	0.211681	0.684358
F519	F	1.291757	0.461681	0.934358
F520	F	1.541757	0.711681	1.184358
H521	H	0.670673	-0.558421	0.155032
H522	H	0.920673	-0.308421	0.405032
H523	H	1.170673	-0.058421	0.655032
H524	H	1.420673	0.191579	0.905032
F525	F	0.552574	0.164146	0.434390
F526	F	0.802574	0.414146	0.684390
F527	F	1.052574	0.664146	0.934390
F528	F	1.302574	0.914146	1.184390
F529	F	-0.147537	-0.031452	0.000041
F530	F	0.102463	0.218548	0.250041
F531	F	0.352463	0.468548	0.500041
F532	F	0.602463	0.718548	0.750041
F533	F	-0.024939	-0.030211	0.000054
F534	F	0.225061	0.219789	0.250054
F535	F	0.475061	0.469789	0.500054
F536	F	0.725061	0.719789	0.750054
F537	F	0.791763	-0.038327	0.565638
F538	F	1.041763	0.211673	0.815638
F539	F	1.291763	0.461673	1.065638
F540	F	1.541763	0.711673	1.315638
F541	F	0.667829	-0.796640	0.113712
F542	F	0.917829	-0.546640	0.363712
F543	F	1.167829	-0.296640	0.613712
F544	F	1.417829	-0.046640	0.863712
F545	F	0.673657	-0.309418	0.168824
F546	F	0.923657	-0.059418	0.418824
F547	F	1.173657	0.190582	0.668824
F548	F	1.423657	0.440582	0.918824
H549	H	0.601365	0.122877	0.265149
H550	H	0.851365	0.372877	0.515149
H551	H	1.101365	0.622877	0.765149
H552	H	1.351365	0.872877	1.015149
H553	H	0.742997	0.002967	0.734902
H554	H	0.992997	0.252967	0.984902
H555	H	1.242997	0.502967	1.234902
H556	H	1.492997	0.752967	1.484902
F557	F	0.675242	-0.181589	0.113753
F558	F	0.925242	0.068411	0.363753
F559	F	1.175242	0.318411	0.613753
F560	F	1.425242	0.568411	0.863753
H561	H	0.669037	-0.698871	-0.099941
H562	H	0.919037	-0.448871	0.150059
H563	H	1.169037	-0.198871	0.400059
H564	H	1.419037	0.051129	0.650059
F565	F	0.752757	-0.005295	0.858254
F566	F	1.002757	0.244705	1.108254
F567	F	1.252757	0.494705	1.358254
F568	F	1.502757	0.744705	1.608254
F569	F	0.591602	0.131139	0.141799
F570	F	0.841602	0.381139	0.391799
F571	F	1.091602	0.631139	0.641799
F572	F	1.341602	0.881139	0.891799
F573	F	0.398919	-0.025903	0.000037
F574	F	0.648919	0.224097	0.250037
F575	F	0.898919	0.474097	0.500037
F576	F	1.148919	0.724097	0.750037
F577	F	0.255466	-0.071502	0.000058
F578	F	0.505466	0.178498	0.250058
F579	F	0.755466	0.428498	0.500058
F580	F	1.005466	0.678498	0.750058
F581	F	0.521534	-0.024651	0.000032
F582	F	0.771534	0.225349	0.250032
F583	F	1.021534	0.475349	0.500032
F584	F	1.271534	0.725349	0.750032
F585	F	0.369284	0.156054	0.000003
F586	F	0.619284	0.406054	0.250003
F587	F	0.869284	0.656054	0.500003
F588	F	1.119284	0.906054	0.750003
F589	F	0.211461	0.198594	0.000017
F590	F	0.461461	0.448594	0.250017
F591	F	0.711461	0.698594	0.500017
F592	F	0.961461	0.948594	0.750017
F593	F	0.491880	0.157299	-0.000014
F594	F	0.741880	0.407299	0.249986
F595	F	0.991880	0.657299	0.499986
F596	F	1.241880	0.907299	0.749986
F597	F	-0.054564	0.151747	0.000006
F598	F	0.195436	0.401747	0.250006
F599	F	0.445436	0.651747	0.500006
F600	F	0.695436	0.901747	0.750006
H601	H	-0.167960	0.139553	0.000012
H602	H	0.082040	0.389553	0.250012
H603	H	0.332040	0.639553	0.500012
H604	H	0.582040	0.889553	0.750012
H605	H	0.668999	-0.698885	0.099947
H606	H	0.918999	-0.448885	0.349947
H607	H	1.168999	-0.198885	0.599947
H608	H	1.418999	0.051115	0.849947
F609	F	0.552582	0.164146	0.565675
F610	F	0.802582	0.414146	0.815675
F611	F	1.052582	0.664146	1.065675
F612	F	1.302582	0.914146	1.315675
H613	H	0.676455	-0.083813	-0.099897
H614	H	0.926455	0.166187	0.150103
H615	H	1.176455	0.416187	0.400103
H616	H	1.426455	0.666187	0.650103
H617	H	0.672488	-0.407173	0.155049
H618	H	0.922488	-0.157173	0.405049
H619	H	1.172488	0.092827	0.655049
H620	H	1.422488	0.342827	0.905049
H621	H	0.676420	-0.083817	0.099981
H622	H	0.926420	0.166183	0.349981
H623	H	1.176420	0.416183	0.599981
H624	H	1.426420	0.666183	0.849981
H625	H	0.672550	-0.407167	-0.155006
H626	H	0.922550	-0.157167	0.094994
H627	H	1.172550	0.092833	0.344994
H628	H	1.422550	0.342833	0.594994
F629	F	0.675266	-0.181565	-0.113683
F630	F	0.925266	0.068435	0.136317
F631	F	1.175266	0.318435	0.386317
F632	F	1.425266	0.568435	0.636317
F633	F	0.667856	-0.796641	-0.113714
F634	F	0.917856	-0.546641	0.136286
F635	F	1.167856	-0.296641	0.386286
F636	F	1.417856	-0.046641	0.636286
F637	F	0.591628	0.131111	0.726983
F638	F	0.841628	0.381111	0.976983
F639	F	1.091628	0.631111	1.226983
F640	F	1.341628	0.881111	1.476983
