data_functionalizedCrystal
_audit_creation_method	'MofGen! by Chris Wilmer'
_symmetry_space_group_name_H-M	'P1'
_symmetry_Int_Tables_number	1
_symmetry_cell_setting	triclinic
loop_
_symmetry_equiv_pos_as_xyz
  x,y,z
_cell_length_a	19.077105
_cell_length_b	21.295417
_cell_length_c	19.076919
_cell_angle_alpha	92.266620
_cell_angle_beta	90.076224
_cell_angle_gamma	87.726672
loop_
_atom_site_label
_atom_site_type_symbol
_atom_site_fract_x
_atom_site_fract_y
_atom_site_fract_z
Zn1	Zn	1.058236	-0.304534	-0.440387
Zn2	Zn	1.558236	0.195466	0.059613
Zn3	Zn	1.062864	-0.405747	-0.322870
Zn4	Zn	1.562864	0.094253	0.177130
Zn5	Zn	0.945454	-0.296102	-0.318181
Zn6	Zn	1.445454	0.203898	0.181819
Zn7	Zn	0.940686	-0.405368	-0.435623
Zn8	Zn	1.440686	0.094632	0.064377
O9	O	1.001810	-0.352938	-0.379265
O10	O	1.501810	0.147062	0.120735
O11	O	1.157181	-0.321649	-0.428754
O12	O	1.657181	0.178351	0.071246
O13	O	1.051222	-0.387832	-0.223917
O14	O	1.551222	0.112168	0.276083
O15	O	0.960474	-0.209134	-0.334424
O16	O	1.460474	0.290866	0.165576
O17	O	1.160581	-0.396009	-0.342415
O18	O	1.660581	0.103991	0.157585
O19	O	1.043334	-0.215330	-0.424208
O20	O	1.543334	0.284670	0.075792
O21	O	0.964962	-0.307276	-0.220472
O22	O	1.464962	0.192724	0.279528
O23	O	0.846490	-0.306908	-0.329804
O24	O	1.346490	0.193092	0.170196
O25	O	0.952346	-0.395362	-0.534586
O26	O	1.452346	0.104638	-0.034586
O27	O	0.842987	-0.387185	-0.416088
O28	O	1.342987	0.112815	0.083912
O29	O	1.038710	-0.321280	-0.538086
O30	O	1.538710	0.178720	-0.038086
O31	O	1.046598	-0.493783	-0.337795
O32	O	1.546598	0.006217	0.162205
O33	O	0.956834	-0.493504	-0.420634
O34	O	1.456834	0.006496	0.079366
C35	C	0.819242	-0.346091	-0.371921
C36	C	1.319242	0.153909	0.128079
C37	C	0.741139	-0.343178	-0.368795
C38	C	1.241139	0.156822	0.131205
C39	C	0.702642	-0.383663	-0.412179
C40	C	1.202642	0.116337	0.087821
C41	C	0.629255	-0.380918	-0.409246
C42	C	1.129255	0.119082	0.090754
C43	C	0.594366	-0.337689	-0.362924
C44	C	1.094366	0.162311	0.137076
C45	C	0.632868	-0.297199	-0.319538
C46	C	1.132868	0.202801	0.180462
C47	C	0.706253	-0.299942	-0.322476
C48	C	1.206253	0.200058	0.177524
C49	C	0.375080	-0.324994	-0.349333
C50	C	0.875080	0.175006	0.150667
C51	C	0.301690	-0.322256	-0.346397
C52	C	0.801690	0.177744	0.153603
C53	C	0.298082	-0.405974	-0.436106
C54	C	0.798082	0.094026	0.063894
C55	C	0.371470	-0.408715	-0.439037
C56	C	0.871470	0.091285	0.060963
C57	C	0.409965	-0.368223	-0.395653
C58	C	0.909965	0.131777	0.104347
N59	N	0.519353	-0.334883	-0.359923
N60	N	1.019353	0.165117	0.140077
N61	N	0.484976	-0.371027	-0.398658
N62	N	0.984976	0.128973	0.101342
C63	C	1.001719	-0.516485	-0.379223
C64	C	1.501719	-0.016485	0.120777
C65	C	1.001744	-0.586454	-0.379231
C66	C	1.501744	-0.086454	0.120769
C67	C	1.048522	-0.619448	-0.336144
C68	C	1.548522	-0.119448	0.163856
C69	C	1.048554	-0.685192	-0.336161
C70	C	1.548554	-0.185192	0.163839
C71	C	1.001796	-0.717939	-0.379257
C72	C	1.501796	-0.217939	0.120743
C73	C	0.955015	-0.684937	-0.422352
C74	C	1.455015	-0.184937	0.077648
C75	C	0.954989	-0.619195	-0.422339
C76	C	1.454989	-0.119195	0.077661
N77	N	0.940111	-0.819089	-0.382141
N78	N	1.440111	-0.319089	0.117859
N79	N	0.940138	-0.881541	-0.382149
N80	N	1.440138	-0.381541	0.117851
C81	C	1.001873	-0.916018	-0.379300
C82	C	1.501873	-0.416018	0.120700
N83	N	1.063583	-0.885683	-0.376429
N84	N	1.563583	-0.385683	0.123571
N85	N	1.063555	-0.823224	-0.376417
N86	N	1.563555	-0.323224	0.123583
C87	C	1.001820	-0.789226	-0.379276
C88	C	1.501820	-0.289226	0.120724
C89	C	1.048690	-1.020300	-0.336230
C90	C	1.548690	-0.520300	0.163770
C91	C	1.048724	-1.086046	-0.336252
C92	C	1.548724	-0.586046	0.163748
C93	C	0.955178	-1.085789	-0.422439
C94	C	1.455178	-0.585789	0.077561
C95	C	0.955151	-1.020045	-0.422421
C96	C	1.455151	-0.520045	0.077579
C97	C	1.001906	-0.987304	-0.379313
C98	C	1.501906	-0.487304	0.120687
C99	C	1.185090	-0.359812	-0.386639
C100	C	1.685090	0.140188	0.113361
C101	C	1.263193	-0.362741	-0.389782
C102	C	1.763193	0.137259	0.110218
C103	C	0.994480	-0.359220	-0.562545
C104	C	1.494480	0.140780	-0.062545
C105	C	0.991356	-0.361897	-0.640648
C106	C	1.491356	0.138103	-0.140648
C107	C	1.001919	-0.188754	-0.379324
C108	C	1.501919	0.311246	0.120676
C109	C	1.001966	-0.118788	-0.379349
C110	C	1.501966	0.381212	0.120651
C111	C	1.034851	-0.324586	-0.679164
C112	C	1.534851	0.175414	-0.179164
C113	C	1.031907	-0.327098	-0.752550
C114	C	1.531907	0.172902	-0.252550
C115	C	0.985472	-0.366925	-0.787418
C116	C	1.485472	0.133075	-0.287418
C117	C	0.941972	-0.404238	-0.748896
C118	C	1.441972	0.095762	-0.248896
C119	C	0.944913	-0.401722	-0.675512
C120	C	1.444913	0.098278	-0.175512
C121	C	0.971853	-0.378584	-1.006698
C122	C	1.471853	0.121416	-0.506698
C123	C	0.968917	-0.381099	-1.080087
C124	C	1.468917	0.118901	-0.580087
C125	C	1.058852	-0.303958	-1.083736
C126	C	1.558852	0.196042	-0.583736
C127	C	1.061791	-0.301448	-1.010350
C128	C	1.561791	0.198552	-0.510350
C129	C	1.018289	-0.338758	-0.971835
C130	C	1.518289	0.161242	-0.471835
N131	N	0.982464	-0.369496	-0.862429
N132	N	1.482464	0.130504	-0.362429
N133	N	1.021294	-0.336183	-0.896824
N134	N	1.521294	0.163817	-0.396824
C135	C	1.009152	-0.346637	-0.196700
C136	C	1.509152	0.153363	0.303300
C137	C	1.012412	-0.343787	-0.118604
C138	C	1.512412	0.156213	0.381396
H139	H	0.597915	-0.413886	-0.444573
H140	H	1.097915	0.086114	0.055427
C141	C	0.822059	-0.431209	-0.766687
C142	C	1.322059	0.068791	-0.266687
C143	C	0.890928	-0.448017	-0.787221
C144	C	1.390928	0.051983	-0.287221
H145	H	0.790548	-0.458236	-0.790350
H146	H	1.290548	0.041764	-0.290350
H147	H	0.817589	-0.435051	-0.717475
H148	H	1.317589	0.064949	-0.217475
H149	H	0.811331	-0.388941	-0.778321
H150	H	1.311331	0.111059	-0.278321
H151	H	0.901658	-0.490283	-0.775582
H152	H	1.401658	0.009717	-0.275582
H153	H	0.895400	-0.444180	-0.836443
H154	H	1.395400	0.055820	-0.336443
C155	C	1.143406	-0.548651	-0.330244
C156	C	1.643406	-0.048651	0.169756
C157	C	1.099918	-0.583457	-0.288767
C158	C	1.599918	-0.083457	0.211233
H159	H	1.175133	-0.526427	-0.300995
H160	H	1.675133	-0.026427	0.199005
H161	H	1.169044	-0.576320	-0.361958
H162	H	1.669044	-0.076320	0.138042
H163	H	1.115533	-0.519592	-0.355901
H164	H	1.615533	-0.019592	0.144099
H165	H	1.127791	-0.612519	-0.263114
H166	H	1.627791	-0.112519	0.236886
H167	H	1.074278	-0.555785	-0.257041
H168	H	1.574278	-0.055785	0.242959
H169	H	1.086764	-0.993641	-0.301131
H170	H	1.586764	-0.493641	0.198869
C171	C	1.121108	-0.250606	-0.748785
C172	C	1.621108	0.249394	-0.248785
C173	C	1.079724	-0.286089	-0.794887
C174	C	1.579724	0.213911	-0.294887
H175	H	1.150632	-0.225291	-0.774924
H176	H	1.650632	0.274709	-0.274924
H177	H	1.091659	-0.224397	-0.718940
H178	H	1.591659	0.275603	-0.218940
H179	H	1.149110	-0.278069	-0.721235
H180	H	1.649110	0.221931	-0.221235
H181	H	1.051718	-0.258626	-0.822434
H182	H	1.551718	0.241374	-0.322434
H183	H	1.109176	-0.312300	-0.824745
H184	H	1.609176	0.187700	-0.324745
C185	C	0.913415	-0.518304	-0.460586
C186	C	1.413415	-0.018304	0.039414
C187	C	0.903565	-0.582923	-0.469701
C188	C	1.403565	-0.082923	0.030299
H189	H	0.881669	-0.495912	-0.489829
H190	H	1.381669	0.004088	0.010171
H191	H	0.905050	-0.505562	-0.412956
H192	H	1.405050	-0.005562	0.087044
H193	H	0.960205	-0.509614	-0.472805
H194	H	1.460205	-0.009614	0.027195
H195	H	0.856776	-0.591613	-0.457477
H196	H	1.356776	-0.091613	0.042523
H197	H	0.911924	-0.595669	-0.517341
H198	H	1.411924	-0.095669	-0.017341
C199	C	0.882648	-0.455072	-1.010472
C200	C	1.382648	0.044928	-0.510472
C201	C	0.924027	-0.419586	-0.964367
C202	C	1.424027	0.080414	-0.464367
H203	H	0.853120	-0.480385	-0.984335
H204	H	1.353120	0.019615	-0.484335
H205	H	0.854657	-0.427615	-1.038029
H206	H	1.354657	0.072385	-0.538029
H207	H	0.912106	-0.481288	-1.040312
H208	H	1.412106	0.018712	-0.540312
H209	H	0.894568	-0.393366	-0.934530
H210	H	1.394568	0.106634	-0.434530
H211	H	0.952020	-0.447046	-0.936799
H212	H	1.452020	0.052954	-0.436799
H213	H	0.731044	-0.418867	-0.449897
H214	H	1.231044	0.081133	0.050103
C215	C	0.916106	-1.108795	-0.540019
C216	C	1.416106	-0.608795	-0.040019
C217	C	0.903782	-1.121777	-0.469815
C218	C	1.403782	-0.621777	0.030185
H219	H	0.884379	-1.131018	-0.569268
H220	H	1.384379	-0.631018	-0.069268
H221	H	0.909392	-1.064923	-0.546170
H222	H	1.409392	-0.564923	-0.046170
H223	H	0.962904	-1.121650	-0.552233
H224	H	1.462904	-0.621650	-0.052233
H225	H	0.856985	-1.108917	-0.457599
H226	H	1.356985	-0.608917	0.042401
H227	H	0.910490	-1.165658	-0.463660
H228	H	1.410490	-0.665658	0.036340
H229	H	1.086820	-1.112908	-0.301168
H230	H	1.586820	-0.612908	0.198832
H231	H	0.909487	-0.432098	-0.644152
H232	H	1.409487	0.067902	-0.144152
C233	C	0.733603	-0.265889	-0.204456
C234	C	1.233603	0.234111	0.295544
C235	C	0.748575	-0.255445	-0.274783
C236	C	1.248575	0.244555	0.225217
H237	H	0.759735	-0.238419	-0.175014
H238	H	1.259735	0.261581	0.324986
H239	H	0.684911	-0.258065	-0.196080
H240	H	1.184911	0.241935	0.303920
H241	H	0.746022	-0.308266	-0.194576
H242	H	1.246022	0.191734	0.305424
H243	H	0.736151	-0.213069	-0.284663
H244	H	1.236151	0.286931	0.215337
H245	H	0.797277	-0.263264	-0.283162
H246	H	1.297277	0.236736	0.216838
H247	H	0.399871	-0.443918	-0.476755
H248	H	0.899871	0.056082	0.023245
H249	H	0.917057	-0.993179	-0.457503
H250	H	1.417057	-0.493179	0.042497
C251	C	1.074874	-0.214288	-0.928279
C252	C	1.574874	0.285712	-0.428279
C253	C	1.112814	-0.257639	-0.972039
C254	C	1.612814	0.242361	-0.472039
H255	H	1.106371	-0.187238	-0.904630
H256	H	1.606371	0.312762	-0.404630
H257	H	1.043120	-0.190070	-0.955694
H258	H	1.543120	0.309930	-0.455694
H259	H	1.049409	-0.236157	-0.894828
H260	H	1.549409	0.263843	-0.394828
H261	H	1.138275	-0.235770	-1.005494
H262	H	1.638275	0.264230	-0.505494
H263	H	1.144580	-0.281859	-0.944623
H264	H	1.644580	0.218141	-0.444623
H265	H	1.094268	-0.273581	-1.115103
H266	H	1.594268	0.226419	-0.615103
C267	C	0.402410	-0.290929	-0.231316
C268	C	0.902410	0.209071	0.268684
C269	C	0.417385	-0.280487	-0.301643
C270	C	0.917385	0.219513	0.198357
H271	H	0.428533	-0.263452	-0.201874
H272	H	0.928533	0.236548	0.298126
H273	H	0.353716	-0.283114	-0.222945
H274	H	0.853716	0.216886	0.277055
H275	H	0.414838	-0.333303	-0.221432
H276	H	0.914838	0.166697	0.278568
H277	H	0.404953	-0.238114	-0.311528
H278	H	0.904953	0.261886	0.188472
H279	H	0.466090	-0.288298	-0.310017
H280	H	0.966090	0.211702	0.189983
C281	C	1.079292	-0.286473	-0.568293
C282	C	1.579292	0.213527	-0.068293
C283	C	1.085893	-0.280804	-0.640840
C284	C	1.585893	0.219196	-0.140840
H285	H	1.110806	-0.259444	-0.544637
H286	H	1.610806	0.240556	-0.044637
H287	H	1.032572	-0.275080	-0.554372
H288	H	1.532572	0.224920	-0.054372
H289	H	1.090034	-0.328742	-0.556671
H290	H	1.590034	0.171258	-0.056671
H291	H	1.075146	-0.238537	-0.652463
H292	H	1.575146	0.261463	-0.152463
H293	H	1.132623	-0.292194	-0.654766
H294	H	1.632623	0.207806	-0.154766
C295	C	0.955778	-0.468230	-1.162195
C296	C	1.455778	0.031770	-0.662195
C297	C	0.917866	-0.424873	-1.118419
C298	C	1.417866	0.075127	-0.618419
H299	H	0.924262	-0.495254	-1.185857
H300	H	1.424262	0.004746	-0.685857
H301	H	0.981263	-0.446369	-1.195628
H302	H	1.481263	0.053631	-0.695628
H303	H	0.987514	-0.492480	-1.134783
H304	H	1.487514	0.007520	-0.634783
H305	H	0.886133	-0.400619	-1.145832
H306	H	1.386133	0.099381	-0.645832
H307	H	0.892369	-0.446736	-1.084981
H308	H	1.392369	0.053264	-0.584981
C309	C	0.521976	-0.255821	-0.275203
C310	C	1.021976	0.244179	0.224797
C311	C	0.594519	-0.249679	-0.268623
C312	C	1.094519	0.250321	0.231377
H313	H	0.498304	-0.226485	-0.243766
H314	H	0.998304	0.273515	0.256234
H315	H	0.508079	-0.247845	-0.321949
H316	H	1.008079	0.252155	0.178051
H317	H	0.510347	-0.297297	-0.264345
H318	H	1.010347	0.202703	0.235655
H319	H	0.606149	-0.208203	-0.279486
H320	H	1.106149	0.291797	0.220514
H321	H	0.608420	-0.257650	-0.221866
H322	H	1.108420	0.242350	0.278134
H323	H	0.266732	-0.438939	-0.471428
H324	H	0.766732	0.061061	0.028572
H325	H	0.273285	-0.287047	-0.308681
H326	H	0.773285	0.212953	0.191319
H327	H	1.086649	-0.712061	-0.301075
H328	H	1.586649	-0.212061	0.198925
C329	C	0.941424	-0.761716	-0.516473
C330	C	1.441424	-0.261716	-0.016473
C331	C	0.903617	-0.720932	-0.469723
C332	C	1.403617	-0.220932	0.030277
H333	H	0.909692	-0.783939	-0.545717
H334	H	1.409692	-0.283939	-0.045717
H335	H	0.970925	-0.738101	-0.544601
H336	H	1.470925	-0.238101	-0.044601
H337	H	0.969287	-0.790773	-0.490805
H338	H	1.469287	-0.290773	0.009195
H339	H	0.875758	-0.691871	-0.495391
H340	H	1.375758	-0.191871	0.004609
H341	H	0.874104	-0.744548	-0.441592
H342	H	1.374104	-0.244548	0.058408
