data_functionalizedCrystal
_audit_creation_method	'MofGen! by Chris Wilmer'
_symmetry_space_group_name_H-M	'P1'
_symmetry_Int_Tables_number	1
_symmetry_cell_setting	triclinic
loop_
_symmetry_equiv_pos_as_xyz
  x,y,z
_cell_length_a	15.944551
_cell_length_b	14.044220
_cell_length_c	12.503572
_cell_angle_alpha	86.164750
_cell_angle_beta	86.471578
_cell_angle_gamma	91.656193
loop_
_atom_site_label
_atom_site_type_symbol
_atom_site_fract_x
_atom_site_fract_y
_atom_site_fract_z
O1	O	-0.198063	1.263177	-0.089184
O2	O	0.135270	1.596510	0.244149
O3	O	0.468604	1.929844	0.577482
O4	O	-0.190754	0.987209	-0.089212
O5	O	0.142579	1.320542	0.244121
O6	O	0.475913	1.653876	0.577454
O7	O	-0.072698	1.132729	-0.089204
O8	O	0.260636	1.466063	0.244129
O9	O	0.593969	1.799396	0.577463
O10	O	-0.316119	1.117656	-0.089193
O11	O	0.017214	1.450990	0.244140
O12	O	0.350547	1.784323	0.577474
O13	O	-0.081592	1.121785	0.089437
O14	O	0.251741	1.455119	0.422771
O15	O	0.585074	1.788452	0.756104
O16	O	-0.199649	0.976265	0.089429
O17	O	0.133685	1.309598	0.422762
O18	O	0.467018	1.642932	0.756096
O19	O	-0.206958	1.252233	0.089457
O20	O	0.126376	1.585566	0.422790
O21	O	0.459709	1.918900	0.756123
Cu22	Cu	-0.204115	1.113250	0.105754
Cu23	Cu	0.129218	1.446583	0.439088
Cu24	Cu	0.462551	1.779916	0.772421
Cu25	Cu	-0.193596	1.126192	-0.105510
Cu26	Cu	0.139737	1.459526	0.227823
Cu27	Cu	0.473070	1.792859	0.561157
O28	O	-0.325014	1.106712	0.089448
O29	O	0.008319	1.440046	0.422782
O30	O	0.341653	1.773379	0.756115
C31	C	-0.192002	0.946423	0.000104
C32	C	0.141331	1.279756	0.333438
C33	C	0.474664	1.613089	0.666771
C34	C	-0.182461	0.841197	0.000093
C35	C	0.150873	1.174530	0.333426
C36	C	0.484206	1.507863	0.666760
C37	C	-0.165018	0.648533	0.000114
C38	C	0.168315	0.981866	0.333447
C39	C	0.501649	1.315200	0.666780
C40	C	-0.232689	0.590904	0.000121
C41	C	0.100644	0.924237	0.333455
C42	C	0.433977	1.257570	0.666788
C43	C	-0.222984	0.483699	0.000133
C44	C	0.110349	0.817032	0.333466
C45	C	0.443683	1.150366	0.666799
C46	C	-0.174722	0.755748	0.000102
C47	C	0.158611	1.089081	0.333436
C48	C	0.491945	1.422415	0.666769
C49	C	-0.351908	1.112810	0.000129
C50	C	-0.018574	1.446143	0.333463
C51	C	0.314759	1.779477	0.666796
C52	C	-0.445294	1.114686	0.000134
C53	C	-0.111961	1.448019	0.333467
C54	C	0.221372	1.781352	0.666801
C55	C	-0.667240	1.209371	0.000127
C56	C	-0.333907	1.542704	0.333461
C57	C	-0.000574	1.876037	0.666794
C58	C	-0.729350	1.160006	0.088203
C59	C	-0.396016	1.493340	0.421537
C60	C	-0.062683	1.826673	0.754870
C61	C	-0.616274	1.118080	0.000125
C62	C	-0.282940	1.451413	0.333458
C63	C	0.050393	1.784746	0.666791
C64	C	-0.720564	1.170775	-0.087923
C65	C	-0.387231	1.504108	0.245410
C66	C	-0.053898	1.837442	0.578744
C67	C	-0.781432	1.121365	0.000111
C68	C	-0.448098	1.454699	0.333445
C69	C	-0.114765	1.788032	0.666778
C70	C	-0.677157	1.068686	0.088274
C71	C	-0.343823	1.402020	0.421607
C72	C	-0.010490	1.735353	0.754940
C73	C	-0.668362	1.079472	-0.087932
C74	C	-0.335029	1.412806	0.245401
C75	C	-0.001695	1.746139	0.578735
C76	C	-0.730450	1.030040	0.000166
C77	C	-0.397116	1.363374	0.333499
C78	C	-0.063783	1.696707	0.666832
C79	C	-0.521130	1.116190	0.000134
C80	C	-0.187797	1.449523	0.333467
C81	C	0.145536	1.782856	0.666800
C82	C	-0.876574	1.123248	0.000110
C83	C	-0.543240	1.456581	0.333444
C84	C	-0.209907	1.789915	0.666777
C85	C	-0.045804	1.126632	0.000113
C86	C	0.287529	1.459965	0.333446
C87	C	0.620863	1.793299	0.666779
C88	C	0.047583	1.124757	0.000101
C89	C	0.380916	1.458090	0.333434
C90	C	0.714250	1.791423	0.666768
C91	C	-0.205709	1.293019	0.000138
C92	C	0.127624	1.626353	0.333471
C93	C	0.460958	1.959686	0.666804
C94	C	-0.215251	1.398246	0.000142
C95	C	0.118083	1.731579	0.333475
C96	C	0.451416	2.064912	0.666808
N97	N	-0.211514	1.104153	0.254346
N98	N	0.121820	1.437487	0.587679
N99	N	0.455153	1.770820	0.921013
N100	N	-0.186192	1.135296	-0.254102
N101	N	0.147141	1.468629	0.079232
N102	N	0.480475	1.801963	0.412565
C103	C	-0.222404	1.090773	0.473460
C104	C	0.110929	1.424106	0.806794
C105	C	0.444262	1.757439	1.140127
C106	C	-0.175304	1.148674	0.526791
C107	C	0.158029	1.482007	0.860124
C108	C	0.491363	1.815340	1.193458
C109	C	-0.181364	1.141228	0.648714
C110	C	0.151970	1.474562	0.982047
C111	C	0.485303	1.807895	1.315380
C112	C	-0.216346	1.098217	0.351527
C113	C	0.116988	1.431550	0.684860
C114	C	0.450321	1.764883	1.018193
H115	H	-0.297913	0.622079	0.000119
H116	H	0.035420	0.955412	0.333452
H117	H	0.368753	1.288746	0.666786
O118	O	-0.281858	1.017719	0.534258
O119	O	0.051475	1.351052	0.867591
O120	O	0.384808	1.684386	1.200924
H121	H	-0.245615	0.968492	0.585508
H122	H	0.087718	1.301825	0.918841
H123	H	0.421052	1.635158	1.252175
O124	O	-0.632928	1.034450	-0.186590
O125	O	-0.299595	1.367784	0.146744
O126	O	0.033739	1.701117	0.480077
H127	H	-0.685086	1.014023	-0.236187
H128	H	-0.351752	1.347356	0.097147
H129	H	-0.018419	1.680690	0.430480
O130	O	-0.746094	1.227982	-0.186553
O131	O	-0.412760	1.561315	0.146780
O132	O	-0.079427	1.894648	0.480114
H133	H	-0.783996	1.181558	-0.234977
H134	H	-0.450662	1.514891	0.098356
H135	H	-0.117329	1.848225	0.431689
H136	H	-0.099799	0.617360	0.000117
H137	H	0.233534	0.950693	0.333450
H138	H	0.566867	1.284026	0.666783
H139	H	-0.756056	1.194056	0.162673
H140	H	-0.422722	1.527390	0.496006
H141	H	-0.089389	1.860723	0.829340
O142	O	-0.630629	1.309730	0.000246
O143	O	-0.297296	1.643063	0.333579
O144	O	0.036037	1.976397	0.666912
H145	H	-0.655144	1.342913	0.073479
H146	H	-0.321811	1.676246	0.406812
H147	H	0.011523	2.009579	0.740145
H148	H	-0.657988	1.025537	0.162815
H149	H	-0.324655	1.358871	0.496149
H150	H	0.008679	1.692204	0.829482
O151	O	-0.766868	0.929584	0.000215
O152	O	-0.433535	1.262917	0.333548
O153	O	-0.100202	1.596250	0.666881
H154	H	-0.749538	0.887445	0.073395
H155	H	-0.416205	1.220779	0.406729
H156	H	-0.082872	1.554112	0.740062
H157	H	-0.130430	1.203837	0.480881
H158	H	0.202903	1.537170	0.814215
H159	H	0.536237	1.870503	1.147548
