data_functionalizedCrystal
_audit_creation_method	'MofGen! by Chris Wilmer'
_symmetry_space_group_name_H-M	'P1'
_symmetry_Int_Tables_number	1
_symmetry_cell_setting	triclinic
loop_
_symmetry_equiv_pos_as_xyz
  x,y,z
_cell_length_a	14.908979
_cell_length_b	14.908520
_cell_length_c	14.908308
_cell_angle_alpha	96.360765
_cell_angle_beta	96.371071
_cell_angle_gamma	96.420994
loop_
_atom_site_label
_atom_site_type_symbol
_atom_site_fract_x
_atom_site_fract_y
_atom_site_fract_z
Zn1	Zn	1.335367	-0.308036	-0.450888
Zn2	Zn	1.335264	-0.450687	-0.308264
Zn3	Zn	1.192737	-0.308079	-0.308270
Zn4	Zn	1.174098	-0.469237	-0.469431
O5	O	1.259366	-0.384010	-0.384213
O6	O	1.462493	-0.319177	-0.424206
O7	O	1.324115	-0.424025	-0.181130
O8	O	1.219501	-0.180928	-0.319430
O9	O	1.462417	-0.423983	-0.319421
O10	O	1.324291	-0.180896	-0.424211
O11	O	1.219401	-0.319251	-0.181134
O12	O	1.063125	-0.337239	-0.337411
O13	O	1.187733	-0.455599	-0.594106
O14	O	1.049431	-0.455641	-0.455816
O15	O	1.306217	-0.337164	-0.580483
O16	O	1.306041	-0.580293	-0.337402
O17	O	1.187633	-0.593922	-0.455810
C18	C	1.023312	-0.398458	-0.398627
C19	C	0.922324	-0.404662	-0.404816
C20	C	0.772882	-0.475134	-0.475086
C21	C	0.867768	-0.469306	-0.469279
C22	C	0.881988	-0.345845	-0.346153
C23	C	0.787102	-0.351673	-0.351960
C24	C	0.732552	-0.416319	-0.416430
C25	C	0.637664	-0.422143	-0.422241
C26	C	0.651885	-0.298687	-0.299111
C27	C	0.746772	-0.292858	-0.293304
C28	C	1.244826	-0.620075	-0.398636
C29	C	1.238687	-0.721061	-0.404832
C30	C	1.350563	-0.896571	-0.293261
C31	C	1.344799	-0.991456	-0.299079
C32	C	1.221398	-1.005719	-0.422289
C33	C	1.227163	-0.910833	-0.416471
C34	C	1.291747	-0.856263	-0.351954
C35	C	1.297507	-0.761376	-0.346132
C36	C	1.174111	-0.775640	-0.469346
C37	C	1.168346	-0.870525	-0.475164
C38	C	1.496342	-0.369506	-0.369744
C39	C	1.597327	-0.363325	-0.363578
C40	C	1.244907	-0.398446	-0.621181
C41	C	1.238745	-0.404598	-0.722162
C42	C	1.273987	-0.147023	-0.369752
C43	C	1.280217	-0.046033	-0.363590
C44	C	1.350543	-0.292811	-0.897732
C45	C	1.344756	-0.298588	-0.992612
C46	C	1.221382	-0.421923	-1.006806
C47	C	1.227169	-0.416146	-0.911926
C48	C	1.291752	-0.351589	-0.857391
C49	C	1.297542	-0.345817	-0.762509
C50	C	1.174165	-0.469148	-0.776705
C51	C	1.168378	-0.474924	-0.871585
C52	C	1.273826	-0.369561	-0.148160
C53	C	1.280179	-0.363143	-0.047153
H54	H	0.791199	-0.240227	-0.240812
H55	H	1.403133	-0.240250	-0.853329
H56	H	1.350092	-0.716945	-0.293597
C57	C	1.157717	-0.485512	-1.158558
C58	C	1.150384	-0.492866	-1.066761
H59	H	1.113885	-0.529311	-1.195570
H60	H	1.147247	-0.426226	-1.171174
H61	H	1.216992	-0.496029	-1.171189
H62	H	1.091111	-0.482343	-1.054129
H63	H	1.160848	-0.552167	-1.054141
C64	C	0.512747	-0.252844	-0.253290
C65	C	0.607553	-0.234065	-0.234595
H66	H	0.485380	-0.212961	-0.213449
H67	H	0.494284	-0.244280	-0.314478
H68	H	0.494283	-0.314024	-0.244604
H69	H	0.626018	-0.172887	-0.243287
H70	H	0.626024	-0.242621	-0.173392
H71	H	1.115766	-0.914969	-0.527695
C72	C	1.051624	-0.591637	-0.800270
C73	C	1.109530	-0.533758	-0.732362
H74	H	1.011728	-0.631526	-0.772892
H75	H	1.017059	-0.556430	-0.836980
H76	H	1.086818	-0.626220	-0.836982
H77	H	1.074337	-0.499170	-0.695654
H78	H	1.144098	-0.568969	-0.695637
H79	H	1.403144	-0.852138	-0.240722
H80	H	0.593250	-0.474778	-0.474739
H81	H	1.392695	-1.024271	-0.251287
H82	H	0.728466	-0.527764	-0.527588
C83	C	1.157777	-1.157508	-0.485909
C84	C	1.150411	-1.065713	-0.493201
H85	H	1.113947	-1.194544	-0.529684
H86	H	1.217048	-1.170062	-0.496486
H87	H	1.147315	-1.170173	-0.426615
H88	H	1.160879	-1.053046	-0.552494
H89	H	1.091125	-1.053154	-0.482631
H90	H	1.126215	-0.742810	-0.517136
C91	C	1.006906	-0.515191	-0.515048
C92	C	0.912101	-0.533954	-0.533758
H93	H	1.034273	-0.555109	-0.554853
H94	H	1.025387	-0.454033	-0.523767
H95	H	1.025354	-0.523721	-0.453838
H96	H	0.893652	-0.525417	-0.594967
H97	H	0.893613	-0.595127	-0.525047
C98	C	1.418901	-0.224478	-0.758012
C99	C	1.368526	-0.274854	-0.702562
H100	H	1.462719	-0.180663	-0.721004
H101	H	1.448959	-0.264187	-0.795310
H102	H	1.379187	-0.194409	-0.795319
H103	H	1.408239	-0.304928	-0.665260
H104	H	1.338467	-0.235139	-0.665249
H105	H	1.392627	-0.250722	-1.025453
H106	H	0.926419	-0.293220	-0.293658
H107	H	1.115795	-0.527483	-0.916000
