data_functionalizedCrystal
_audit_creation_method	'MofGen! by Chris Wilmer'
_symmetry_space_group_name_H-M	'P1'
_symmetry_Int_Tables_number	1
_symmetry_cell_setting	triclinic
loop_
_symmetry_equiv_pos_as_xyz
  x,y,z
_cell_length_a	14.909028
_cell_length_b	16.120566
_cell_length_c	14.908308
_cell_angle_alpha	90.545249
_cell_angle_beta	89.838219
_cell_angle_gamma	96.342900
loop_
_atom_site_label
_atom_site_type_symbol
_atom_site_fract_x
_atom_site_fract_y
_atom_site_fract_z
Zn1	Zn	-0.460802	-1.269648	0.553185
Zn2	Zn	0.039198	-0.769648	1.053185
Zn3	Zn	-0.603423	-1.285608	0.394985
Zn4	Zn	-0.103423	-0.785608	0.894985
Zn5	Zn	-0.444524	-1.137746	0.396046
Zn6	Zn	0.055476	-0.637746	0.896046
Zn7	Zn	-0.603528	-1.138645	0.537724
Zn8	Zn	-0.103528	-0.638645	1.037724
O9	O	-0.528069	-1.207912	0.470485
O10	O	-0.028069	-0.707912	0.970485
O11	O	-0.486489	-1.388471	0.538226
O12	O	0.013511	-0.888471	1.038226
O13	O	-0.575488	-1.272296	0.269625
O14	O	-0.075488	-0.772296	0.769625
O15	O	-0.320452	-1.148187	0.423806
O16	O	0.179548	-0.648187	0.923806
O17	O	-0.591272	-1.400196	0.421997
O18	O	-0.091272	-0.900196	0.921997
O19	O	-0.332411	-1.245095	0.539255
O20	O	0.167589	-0.745095	1.039255
O21	O	-0.458746	-1.163663	0.270405
O22	O	0.041254	-0.663663	0.770405
O23	O	-0.458848	-1.021159	0.408813
O24	O	0.041152	-0.521159	0.908813
O25	O	-0.591451	-1.149721	0.665275
O26	O	-0.091451	-0.649721	1.165275
O27	O	-0.575668	-1.021820	0.512904
O28	O	-0.075668	-0.521820	1.012904
O29	O	-0.486591	-1.245967	0.676635
O30	O	0.013409	-0.745967	1.176635
O31	O	-0.729668	-1.273169	0.407005
O32	O	-0.229668	-0.773169	0.907005
O33	O	-0.729745	-1.165196	0.511875
O34	O	-0.229745	-0.665196	1.011875
C35	C	-0.515504	-0.991229	0.459296
C36	C	-0.015504	-0.491229	0.959296
C37	C	-0.510151	-0.898532	0.454530
C38	C	-0.010151	-0.398532	0.954530
C39	C	-0.500358	-0.728811	0.445837
C40	C	-0.000358	-0.228811	0.945837
C41	C	-0.555858	-0.687857	0.495137
C42	C	-0.055858	-0.187857	0.995137
C43	C	-0.550409	-0.593419	0.490299
C44	C	-0.050409	-0.093419	0.990299
C45	C	-0.505806	-0.823258	0.450673
C46	C	-0.005806	-0.323258	0.950673
C47	C	-0.762439	-1.221034	0.457668
C48	C	-0.262439	-0.721034	0.957668
C49	C	-0.862710	-1.226722	0.452218
C50	C	-0.362710	-0.726722	0.952218
C51	C	-1.003971	-1.290986	0.389992
C52	C	-0.503971	-0.790986	0.889992
C53	C	-0.909758	-1.285646	0.395109
C54	C	-0.409758	-0.785646	0.895109
C55	C	-0.909881	-1.173132	0.504212
C56	C	-0.409881	-0.673132	1.004212
C57	C	-1.004094	-1.178472	0.499095
C58	C	-0.504094	-0.678472	0.999095
C59	C	-1.051136	-1.237402	0.441984
C60	C	-0.551136	-0.737402	0.941984
C61	C	-1.145351	-1.242746	0.436872
C62	C	-0.645351	-0.742746	0.936872
C63	C	-1.145472	-1.130228	0.545969
C64	C	-0.645472	-0.630228	1.045969
C65	C	-1.051259	-1.124888	0.551086
C66	C	-0.551259	-0.624888	1.051086
C67	C	-0.292786	-1.194760	0.483373
C68	C	0.207214	-0.694760	0.983373
C69	C	-0.192523	-1.189156	0.488866
C70	C	0.307477	-0.689156	0.988866
C71	C	-0.540849	-1.196164	0.704406
C72	C	-0.040849	-0.696164	1.204406
C73	C	-0.546295	-1.191158	0.804089
C74	C	-0.046295	-0.691158	1.304089
C75	C	-0.540686	-0.425441	0.481703
C76	C	-0.040686	0.074559	0.981703
C77	C	-0.546068	-0.518141	0.486446
C78	C	-0.046068	-0.018141	0.986446
C79	C	-0.515277	-1.219658	0.237480
C80	C	-0.015277	-0.719658	0.737480
C81	C	-0.509586	-1.224811	0.137820
C82	C	-0.009586	-0.724811	0.637820
C83	C	-0.447316	-1.281969	1.003235
C84	C	0.052684	-0.781969	1.503235
C85	C	-0.452429	-1.277268	1.096897
C86	C	0.047571	-0.777268	1.596897
C87	C	-0.561631	-1.177050	1.085075
C88	C	-0.061631	-0.677050	1.585075
C89	C	-0.556517	-1.181752	0.991414
C90	C	-0.056517	-0.681752	1.491414
C91	C	-0.499358	-1.234214	0.950497
C92	C	0.000642	-0.734214	1.450497
C93	C	-0.494250	-1.238919	0.856834
C94	C	0.005750	-0.738919	1.356834
C95	C	-0.603446	-1.138697	0.845014
C96	C	-0.103446	-0.638697	1.345014
C97	C	-0.608560	-1.133996	0.938676
C98	C	-0.108560	-0.633996	1.438676
H99	H	-1.183652	-1.290732	0.390373
H100	H	-0.683652	-0.790732	0.890373
H101	H	-0.400779	-1.324691	0.969921
H102	H	0.099221	-0.824691	1.469921
O103	O	-0.617550	-0.730556	0.549763
O104	O	-0.117550	-0.230556	1.049763
C105	C	-0.705144	-0.715381	0.524014
C106	C	-0.205144	-0.215381	1.024014
H107	H	-0.701494	-0.653931	0.486262
H108	H	-0.201494	-0.153931	0.986262
H109	H	-0.749072	-0.711555	0.586308
H110	H	-0.249072	-0.211555	1.086308
H111	H	-0.735699	-0.768386	0.478652
H112	H	-0.235699	-0.268386	0.978652
H113	H	-0.448755	-0.692949	0.400000
H114	H	0.051245	-0.192949	0.900000
H115	H	-0.871567	-1.125148	0.550703
H116	H	-0.371567	-0.625148	1.050703
H117	H	-1.042274	-1.338976	0.343499
H118	H	-0.542274	-0.838976	0.843499
H119	H	-0.655095	-1.091281	0.972003
H120	H	-0.155095	-0.591281	1.472003
O121	O	-0.864084	-1.337786	0.344574
O122	O	-0.364084	-0.837786	0.844574
C123	C	-0.925809	-1.390925	0.293054
C124	C	-0.425809	-0.890925	0.793054
H125	H	-0.995122	-1.395747	0.326292
H126	H	-0.495122	-0.895747	0.826292
H127	H	-0.901822	-1.455573	0.288418
H128	H	-0.401822	-0.955573	0.788418
H129	H	-0.930397	-1.364428	0.222794
H130	H	-0.430397	-0.864428	0.722794
H131	H	-1.012947	-1.076906	0.597582
H132	H	-0.512947	-0.576906	1.097582
H133	H	-1.183884	-1.086599	0.588308
H134	H	-0.683884	-0.586599	1.088308
H135	H	-0.447710	-1.281638	0.823521
H136	H	0.052290	-0.781638	1.323521
O137	O	-0.401845	-1.323743	1.147994
O138	O	0.098155	-0.823743	1.647994
C139	C	-0.350284	-1.371036	1.091791
C140	C	0.149716	-0.871036	1.591791
H141	H	-0.383754	-1.379342	1.023152
H142	H	0.116246	-0.879342	1.523152
H143	H	-0.345944	-1.434848	1.122770
H144	H	0.154056	-0.934848	1.622770
H145	H	-0.279462	-1.337161	1.084004
H146	H	0.220538	-0.837161	1.584004
O147	O	-0.617119	-1.126149	1.124974
O148	O	-0.117119	-0.626149	1.624974
C149	C	-0.610441	-1.132218	1.218951
C150	C	-0.110441	-0.632218	1.718951
H151	H	-0.585339	-1.194291	1.236681
H152	H	-0.085339	-0.694291	1.736681
H153	H	-0.679615	-1.128535	1.250570
H154	H	-0.179615	-0.628535	1.750570
H155	H	-0.560970	-1.078737	1.245593
H156	H	-0.060970	-0.578737	1.745593
O157	O	-0.654050	-1.092424	0.793692
O158	O	-0.154050	-0.592424	1.293692
C159	C	-0.712125	-1.145885	0.738795
C160	C	-0.212125	-0.645885	1.238795
H161	H	-0.683206	-1.208011	0.729762
H162	H	-0.183206	-0.708011	1.229762
H163	H	-0.718657	-1.115896	0.670519
H164	H	-0.218657	-0.615896	1.170519
H165	H	-0.781473	-1.156977	0.771711
H166	H	-0.281473	-0.656977	1.271711
