data_functionalizedCrystal
_audit_creation_method	'MofGen! by Chris Wilmer'
_symmetry_space_group_name_H-M	'P1'
_symmetry_Int_Tables_number	1
_symmetry_cell_setting	triclinic
loop_
_symmetry_equiv_pos_as_xyz
  x,y,z
_cell_length_a	19.077068
_cell_length_b	11.169417
_cell_length_c	11.169409
_cell_angle_alpha	89.980487
_cell_angle_beta	92.259065
_cell_angle_gamma	92.328150
loop_
_atom_site_label
_atom_site_type_symbol
_atom_site_fract_x
_atom_site_fract_y
_atom_site_fract_z
Zn1	Zn	-0.280119	1.815630	-0.697655
Zn2	Zn	-0.397840	1.807395	-0.505008
Zn3	Zn	-0.280163	1.614913	-0.496993
Zn4	Zn	-0.397783	1.606803	-0.705650
O5	O	-0.338976	1.711185	-0.601326
O6	O	-0.295741	1.982487	-0.672108
O7	O	-0.382271	1.781810	-0.335998
O8	O	-0.181667	1.648379	-0.516911
O9	O	-0.382229	1.976437	-0.530571
O10	O	-0.181635	1.795845	-0.664337
O11	O	-0.295815	1.640394	-0.330109
O12	O	-0.295760	1.445888	-0.524664
O13	O	-0.382133	1.634557	-0.872536
O14	O	-0.382175	1.439929	-0.677963
O15	O	-0.295686	1.787981	-0.866662
O16	O	-0.496323	1.773946	-0.538323
O17	O	-0.496281	1.626572	-0.685734
C18	C	-0.338967	1.399361	-0.601312
C19	C	-0.338980	1.265960	-0.601335
C20	C	-0.521839	1.698518	-0.613792
C21	C	-0.600069	1.693208	-0.619165
C22	C	-0.636820	1.767503	-0.545004
C23	C	-0.710325	1.762516	-0.550065
C24	C	-0.747077	1.683228	-0.629281
C25	C	-0.710322	1.608930	-0.703451
C26	C	-0.636818	1.613923	-0.698395
C27	C	-0.966910	1.660064	-0.652630
C28	C	-1.040419	1.655073	-0.657677
C29	C	-1.040417	1.808662	-0.504293
C30	C	-0.966912	1.813644	-0.499239
C31	C	-0.930162	1.739350	-0.573413
N32	N	-0.822211	1.678126	-0.634453
N33	N	-0.855030	1.744459	-0.568246
C34	C	-0.155399	1.723935	-0.588838
C35	C	-0.077170	1.729368	-0.583516
C36	C	-0.338898	1.711283	-0.914364
C37	C	-0.338865	1.711324	-1.047761
C38	C	-0.338986	2.024227	-0.601342
C39	C	-0.338991	2.157627	-0.601348
C40	C	-0.339003	1.711161	-0.289503
C41	C	-0.338838	1.711365	-0.156093
H42	H	-0.606900	1.832063	-0.480493
N43	N	-1.080048	1.888805	-0.424304
H44	H	-1.067307	1.871075	-0.337661
H45	H	-1.132177	1.873584	-0.439621
N46	N	-1.080062	1.569550	-0.743121
H47	H	-1.045629	1.523245	-0.789345
H48	H	-1.110510	1.616313	-0.800789
H49	H	-0.936989	1.878207	-0.434735
N50	N	-0.749964	1.842648	-0.470077
H51	H	-0.715527	1.893628	-0.419122
H52	H	-0.780514	1.791744	-0.416600
H53	H	-0.606896	1.553426	-0.758786
N54	N	-0.927278	1.579927	-0.732617
H55	H	-0.961717	1.528936	-0.783558
H56	H	-0.896835	1.526481	-0.681617
H57	H	-0.740252	1.544376	-0.767955
