data_functionalizedCrystal
_audit_creation_method	'MofGen! by Chris Wilmer'
_symmetry_space_group_name_H-M	'P1'
_symmetry_Int_Tables_number	1
_symmetry_cell_setting	triclinic
loop_
_symmetry_equiv_pos_as_xyz
  x,y,z
_cell_length_a	19.077236
_cell_length_b	12.759394
_cell_length_c	19.076929
_cell_angle_alpha	92.272992
_cell_angle_beta	89.889628
_cell_angle_gamma	92.306804
loop_
_atom_site_label
_atom_site_type_symbol
_atom_site_fract_x
_atom_site_fract_y
_atom_site_fract_z
Zn1	Zn	1.058321	-0.381344	-0.440560
Zn2	Zn	1.062986	-0.549721	-0.323062
Zn3	Zn	0.945541	-0.380802	-0.318340
Zn4	Zn	0.940803	-0.563729	-0.435800
O5	O	1.001913	-0.468899	-0.379440
O6	O	1.157273	-0.398044	-0.428941
O7	O	1.051342	-0.521224	-0.224105
O8	O	0.960532	-0.233852	-0.334569
O9	O	1.160700	-0.521750	-0.342616
O10	O	1.043391	-0.234250	-0.424363
O11	O	0.965056	-0.397120	-0.220636
O12	O	0.846580	-0.410703	-0.329954
O13	O	0.952456	-0.545625	-0.534763
O14	O	0.843098	-0.545099	-0.416251
O15	O	1.038797	-0.411627	-0.538259
O16	O	1.046747	-0.698601	-0.338001
O17	O	0.956980	-0.708893	-0.420830
C18	C	0.819342	-0.479363	-0.372074
C19	C	0.741237	-0.483866	-0.368939
C20	C	0.702757	-0.421686	-0.412480
C21	C	0.629369	-0.425911	-0.409528
C22	C	0.594463	-0.492324	-0.363039
C23	C	0.632949	-0.554507	-0.319494
C24	C	0.706335	-0.550275	-0.322442
C25	C	0.375173	-0.511870	-0.349391
C26	C	0.301781	-0.516099	-0.346447
C27	C	0.298206	-0.387502	-0.436481
C28	C	0.371594	-0.383281	-0.439429
C29	C	0.410074	-0.445459	-0.395881
N30	N	0.519449	-0.496647	-0.360023
N31	N	0.485086	-0.441130	-0.398894
C32	C	1.001874	-0.741868	-0.379427
C33	C	1.001921	-0.858643	-0.379448
C34	C	1.088132	-0.858908	-0.473015
C35	C	1.131259	-0.913900	-0.519805
C36	C	1.131300	-1.023620	-0.519822
C37	C	1.088208	-1.078351	-0.473045
C38	C	1.045081	-1.023359	-0.426255
C39	C	1.045046	-0.913636	-0.426242
C40	C	0.958867	-1.023095	-0.332692
C41	C	0.958829	-0.913374	-0.332671
C42	C	0.915775	-1.077825	-0.285916
C43	C	0.872650	-1.022833	-0.239121
C44	C	0.872611	-0.913106	-0.239106
C45	C	0.915701	-0.858382	-0.285881
C46	C	1.185196	-0.458395	-0.386836
C47	C	1.263300	-0.453919	-0.389988
C48	C	0.994578	-0.480249	-0.562720
C49	C	0.991452	-0.485086	-0.640823
C50	C	1.001970	-0.194864	-0.379470
C51	C	1.001994	-0.078087	-0.379482
C52	C	0.969037	-0.519859	-1.080263
C53	C	0.971971	-0.515299	-1.006877
C54	C	1.018395	-0.443260	-0.972008
C55	C	1.061881	-0.375768	-1.010529
C56	C	1.058943	-0.380324	-1.083914
C57	C	1.032000	-0.422150	-0.752728
C58	C	1.034937	-0.417602	-0.679338
C59	C	0.945025	-0.557132	-0.675691
C60	C	0.942094	-0.561685	-0.749077
C61	C	0.985578	-0.494190	-0.787592
N62	N	1.021397	-0.438599	-0.896996
N63	N	0.982572	-0.498846	-0.862602
C64	C	1.009260	-0.457515	-0.196876
C65	C	1.012522	-0.452375	-0.118779
H66	H	0.604523	-0.608576	-0.281638
H67	H	0.731172	-0.367608	-0.450338
H68	H	1.088110	-0.769567	-0.473000
N69	N	1.177741	-0.854867	-0.570249
H70	H	1.205067	-0.906354	-0.599892
H71	H	1.147800	-0.813014	-0.601586
N72	N	0.915664	-0.740042	-0.285872
H73	H	0.866927	-0.717227	-0.296807
H74	H	0.930565	-0.709968	-0.238189
H75	H	0.400009	-0.329205	-0.477288
N76	N	0.747839	-0.617339	-0.275476
H77	H	0.734634	-0.693839	-0.285788
H78	H	0.799612	-0.604492	-0.284416
H79	H	0.266868	-0.336878	-0.471935
N80	N	1.085026	-0.339933	-0.641718
H81	H	1.057715	-0.290995	-0.610109
H82	H	1.118773	-0.379003	-0.612632
H83	H	0.598041	-0.375280	-0.444985
H84	H	1.166411	-1.068395	-0.557930
N85	N	0.264129	-0.587738	-0.296306
H86	H	0.299641	-0.626486	-0.269165
H87	H	0.234973	-0.544641	-0.262617
N88	N	0.918952	-0.597543	-1.117866
H89	H	0.923686	-0.590189	-1.170200
H90	H	0.930374	-0.671162	-1.105471
N91	N	0.915823	-1.196165	-0.285929
H92	H	0.881982	-1.222489	-0.249197
H93	H	0.900976	-1.226236	-0.333628
N94	N	0.416670	-0.578928	-0.302421
H95	H	0.383419	-0.621642	-0.272526
H96	H	0.445982	-0.627628	-0.332187
H97	H	1.088239	-1.167691	-0.473069
N98	N	1.078887	-0.349339	-0.794263
H99	H	1.108738	-0.303010	-0.761036
H100	H	1.110181	-0.392112	-0.826025
N101	N	0.826176	-1.081860	-0.188675
H102	H	0.832744	-1.159711	-0.195788
H103	H	0.839156	-1.058961	-0.138938
N104	N	0.925060	-0.588096	-0.965353
H105	H	0.954814	-0.633268	-0.936046
H106	H	0.893724	-0.545308	-0.933645
H107	H	1.099677	-0.317108	-0.982133
H108	H	0.904292	-0.620348	-0.777462
N109	N	1.105839	-0.307531	-1.125459
H110	H	1.135694	-0.261202	-1.092236
H111	H	1.137129	-0.350320	-1.157215
N112	N	0.826091	-0.853796	-0.188642
H113	H	0.798801	-0.905120	-0.159016
H114	H	0.856001	-0.804601	-0.157290
H115	H	0.909622	-0.612081	-0.644325
