data_functionalizedCrystal
_audit_creation_method	'MofGen! by Chris Wilmer'
_symmetry_space_group_name_H-M	'P1'
_symmetry_Int_Tables_number	1
_symmetry_cell_setting	triclinic
loop_
_symmetry_equiv_pos_as_xyz
  x,y,z
_cell_length_a	10.489741
_cell_length_b	10.268362
_cell_length_c	11.792241
_cell_angle_alpha	89.999703
_cell_angle_beta	84.366295
_cell_angle_gamma	89.998119
loop_
_atom_site_label
_atom_site_type_symbol
_atom_site_fract_x
_atom_site_fract_y
_atom_site_fract_z
O1	O	1.693508	-0.108204	0.160138
O2	O	2.193508	0.391796	0.660138
O3	O	1.322261	-0.108223	0.175169
O4	O	1.822261	0.391777	0.675169
O5	O	1.516894	-0.108221	0.002507
O6	O	2.016894	0.391779	0.502507
O7	O	1.498876	-0.108206	0.332799
O8	O	1.998876	0.391794	0.832799
O9	O	1.516877	0.108380	0.002500
O10	O	2.016877	0.608380	0.502500
O11	O	1.322244	0.108378	0.175162
O12	O	1.822244	0.608378	0.675162
O13	O	1.693491	0.108397	0.160130
O14	O	2.193491	0.608397	0.660130
Cu15	Cu	1.507866	0.128165	0.167645
Cu16	Cu	2.007866	0.628165	0.667645
Cu17	Cu	1.507886	-0.127991	0.167654
Cu18	Cu	2.007886	0.372009	0.667654
O19	O	1.498858	0.108395	0.332792
O20	O	1.998858	0.608395	0.832792
C21	C	1.274725	0.000075	0.174030
C22	C	1.774725	0.500075	0.674030
C23	C	1.133107	0.000067	0.170633
C24	C	1.633107	0.500067	0.670633
N25	N	1.507861	0.308331	0.167639
N26	N	2.007861	0.808331	0.667639
C27	C	1.515753	0.000075	-0.039791
C28	C	2.015753	0.500075	0.460209
C29	C	1.512366	0.000060	-0.165813
C30	C	2.012366	0.500060	0.334187
C31	C	1.065341	0.000075	0.060774
C32	C	1.565341	0.500075	0.560774
C33	C	0.973046	-0.106716	0.112674
C34	C	1.473046	0.393284	0.612674
C35	C	0.973063	0.106835	0.112693
C36	C	1.473063	0.606835	0.612693
C37	C	1.042677	-0.106811	0.222579
C38	C	1.542677	0.393189	0.722579
C39	C	1.042704	0.106836	0.222583
C40	C	1.542704	0.606836	0.722583
C41	C	0.950436	0.000019	0.274563
C42	C	1.450436	0.500019	0.774563
C43	C	1.741027	0.000096	0.161269
C44	C	2.241027	0.500096	0.661269
C45	C	1.882645	0.000096	0.164666
C46	C	2.382645	0.500096	0.664666
N47	N	1.507901	-0.308156	0.167652
N48	N	2.007901	0.191844	0.667652
C49	C	1.507880	0.574001	0.167652
C50	C	2.007880	1.074001	0.667652
C51	C	1.507865	0.426163	0.167648
C52	C	2.007865	0.926163	0.667648
C53	C	1.499999	0.000096	0.375090
C54	C	1.999999	0.500096	0.875090
C55	C	1.503387	0.000102	0.501113
C56	C	2.003387	0.500102	1.001113
C57	C	1.509616	0.000070	0.731842
C58	C	2.009616	0.500070	1.231842
C59	C	1.506155	0.000088	0.603447
C60	C	2.006155	0.500088	1.103447
H61	H	1.115339	-0.000063	-0.029538
H62	H	1.615339	0.499937	0.470462
H63	H	1.073354	-0.197196	0.269030
H64	H	1.573354	0.302804	0.769030
H65	H	1.073584	0.197129	0.269026
H66	H	1.573584	0.697129	0.769026
Br67	Br	0.921633	-0.257209	0.035210
Br68	Br	1.421633	0.242791	0.535210
Br69	Br	0.867539	-0.000063	0.425245
Br70	Br	1.367539	0.499937	0.925245
Br71	Br	0.921682	0.257314	0.035183
Br72	Br	1.421682	0.757314	0.535183
