data_functionalizedCrystal
_audit_creation_method	'MofGen! by Chris Wilmer'
_symmetry_space_group_name_H-M	'P1'
_symmetry_Int_Tables_number	1
_symmetry_cell_setting	triclinic
loop_
_symmetry_equiv_pos_as_xyz
  x,y,z
_cell_length_a	11.792241
_cell_length_b	26.210047
_cell_length_c	11.792241
_cell_angle_alpha	89.995333
_cell_angle_beta	95.806584
_cell_angle_gamma	90.012238
loop_
_atom_site_label
_atom_site_type_symbol
_atom_site_fract_x
_atom_site_fract_y
_atom_site_fract_z
O1	O	1.506929	0.042380	-0.155565
O2	O	1.756929	0.292380	0.094435
O3	O	2.006929	0.542380	0.344435
O4	O	2.256929	0.792380	0.594435
O5	O	1.176588	0.042392	-0.171598
O6	O	1.426588	0.292392	0.078402
O7	O	1.676588	0.542392	0.328402
O8	O	1.926588	0.792392	0.578402
O9	O	1.349775	0.042382	0.001589
O10	O	1.599775	0.292382	0.251589
O11	O	1.849775	0.542382	0.501589
O12	O	2.099775	0.792382	0.751589
O13	O	1.333742	0.042389	-0.328752
O14	O	1.583742	0.292389	-0.078752
O15	O	1.833742	0.542389	0.171248
O16	O	2.083742	0.792389	0.421248
O17	O	1.349720	-0.042476	0.001589
O18	O	1.599720	0.207524	0.251589
O19	O	1.849720	0.457524	0.501589
O20	O	2.099720	0.707524	0.751589
O21	O	1.176533	-0.042466	-0.171598
O22	O	1.426533	0.207534	0.078402
O23	O	1.676533	0.457534	0.328402
O24	O	1.926533	0.707534	0.578402
O25	O	1.506874	-0.042478	-0.155565
O26	O	1.756874	0.207522	0.094435
O27	O	2.006874	0.457522	0.344435
O28	O	2.256874	0.707522	0.594435
Cu29	Cu	1.341698	-0.050221	-0.163581
Cu30	Cu	1.591698	0.199779	0.086419
Cu31	Cu	1.841698	0.449779	0.336419
Cu32	Cu	2.091698	0.699779	0.586419
Cu33	Cu	1.341763	0.050134	-0.163582
Cu34	Cu	1.591763	0.300134	0.086418
Cu35	Cu	1.841763	0.550134	0.336418
Cu36	Cu	2.091763	0.800134	0.586418
O37	O	1.333687	-0.042469	-0.328752
O38	O	1.583687	0.207531	-0.078752
O39	O	1.833687	0.457531	0.171248
O40	O	2.083687	0.707531	0.421248
C41	C	1.134269	-0.000036	-0.170591
C42	C	1.384269	0.249964	0.079409
C43	C	1.634269	0.499964	0.329409
C44	C	1.884269	0.749964	0.579409
C45	C	1.008255	-0.000032	-0.167576
C46	C	1.258255	0.249968	0.082424
C47	C	1.508255	0.499968	0.332424
C48	C	1.758255	0.749968	0.582424
N49	N	1.341661	-0.120805	-0.163580
N50	N	1.591661	0.129195	0.086420
N51	N	1.841661	0.379195	0.336420
N52	N	2.091661	0.629195	0.586420
C53	C	0.777543	-0.000046	-0.162034
C54	C	1.027543	0.249954	0.087966
C55	C	1.277543	0.499954	0.337966
C56	C	1.527543	0.749954	0.587966
C57	C	0.905928	-0.000038	-0.165113
C58	C	1.155928	0.249962	0.084887
C59	C	1.405928	0.499962	0.334887
C60	C	1.655928	0.749962	0.584887
C61	C	1.411010	-0.473320	-0.232872
C62	C	1.661010	-0.223320	0.017128
C63	C	1.911010	0.026680	0.267128
C64	C	2.161010	0.276680	0.517128
C65	C	1.411044	-0.686978	-0.232872
C66	C	1.661044	-0.436978	0.017128
C67	C	1.911044	-0.186978	0.267128
C68	C	2.161044	0.063022	0.517128
O69	O	1.469981	-0.714601	-0.291774
O70	O	1.719981	-0.464601	-0.041774
O71	O	1.969981	-0.214601	0.208226
O72	O	2.219981	0.035399	0.458226
N73	N	1.341790	-0.713698	-0.163571
N74	N	1.591790	-0.463698	0.086429
N75	N	1.841790	-0.213698	0.336429
N76	N	2.091790	0.036302	0.586429
C77	C	1.272529	-0.687001	-0.094259
C78	C	1.522529	-0.437001	0.155741
C79	C	1.772529	-0.187001	0.405741
C80	C	2.022529	0.062999	0.655741
O81	O	1.213634	-0.714631	-0.035305
O82	O	1.463634	-0.464631	0.214695
O83	O	1.713634	-0.214631	0.464695
O84	O	1.963634	0.035369	0.714695
C85	C	1.272502	-0.473343	-0.094254
C86	C	1.522502	-0.223343	0.155746
C87	C	1.772502	0.026657	0.405746
C88	C	2.022502	0.276657	0.655746
C89	C	1.341751	-0.446626	-0.163569
C90	C	1.591751	-0.196626	0.086431
C91	C	1.841751	0.053374	0.336431
C92	C	2.091751	0.303374	0.586431
C93	C	1.480255	-0.446602	-0.302180
C94	C	1.730255	-0.196602	-0.052180
C95	C	1.980255	0.053398	0.197820
C96	C	2.230255	0.303398	0.447820
C97	C	1.480241	-0.393191	-0.302184
C98	C	1.730241	-0.143191	-0.052184
C99	C	1.980241	0.106809	0.197816
C100	C	2.230241	0.356809	0.447816
C101	C	1.410983	-0.366497	-0.232881
C102	C	1.660983	-0.116497	0.017119
C103	C	1.910983	0.133503	0.267119
C104	C	2.160983	0.383503	0.517119
C105	C	1.341738	-0.393214	-0.163573
C106	C	1.591738	-0.143214	0.086427
C107	C	1.841738	0.106786	0.336427
C108	C	2.091738	0.356786	0.586427
C109	C	1.203247	-0.446647	-0.024938
C110	C	1.453247	-0.196647	0.225062
C111	C	1.703247	0.053353	0.475062
C112	C	1.953247	0.303353	0.725062
C113	C	1.203249	-0.393229	-0.024940
C114	C	1.453249	-0.143229	0.225060
C115	C	1.703249	0.106771	0.475060
C116	C	1.953249	0.356771	0.725060
C117	C	1.272498	-0.366511	-0.094255
C118	C	1.522498	-0.116511	0.155745
C119	C	1.772498	0.133489	0.405745
C120	C	2.022498	0.383489	0.655745
C121	C	1.272465	-0.313109	-0.094273
C122	C	1.522465	-0.063109	0.155727
C123	C	1.772465	0.186891	0.405727
C124	C	2.022465	0.436891	0.655727
N125	N	1.341719	-0.286389	-0.163574
N126	N	1.591719	-0.036389	0.086426
N127	N	1.841719	0.213611	0.336426
N128	N	2.091719	0.463611	0.586426
C129	C	1.410978	-0.313083	-0.232878
C130	C	1.660978	-0.063083	0.017122
C131	C	1.910978	0.186917	0.267122
C132	C	2.160978	0.436917	0.517122
C133	C	1.272546	-0.799174	-0.094268
C134	C	1.522546	-0.549174	0.155732
C135	C	1.772546	-0.299174	0.405732
C136	C	2.022546	-0.049174	0.655732
C137	C	1.272551	-0.852588	-0.094271
C138	C	1.522551	-0.602588	0.155729
C139	C	1.772551	-0.352588	0.405729
C140	C	2.022551	-0.102588	0.655729
C141	C	1.411068	-0.852562	-0.232882
C142	C	1.661068	-0.602562	0.017118
C143	C	1.911068	-0.352562	0.267118
C144	C	2.161068	-0.102562	0.517118
C145	C	1.411056	-0.799147	-0.232885
C146	C	1.661056	-0.549147	0.017115
C147	C	1.911056	-0.299147	0.267115
C148	C	2.161056	-0.049147	0.517115
C149	C	1.341799	-0.772454	-0.163569
C150	C	1.591799	-0.522454	0.086431
C151	C	1.841799	-0.272454	0.336431
C152	C	2.091799	-0.022454	0.586431
C153	C	1.410943	-0.200915	-0.232882
C154	C	1.660943	0.049085	0.017118
C155	C	1.910943	0.299085	0.267118
C156	C	2.160943	0.549085	0.517118
C157	C	1.410919	-0.147498	-0.232884
C158	C	1.660919	0.102502	0.017116
C159	C	1.910919	0.352502	0.267116
C160	C	2.160919	0.602502	0.517116
C161	C	1.272407	-0.147529	-0.094268
C162	C	1.522407	0.102471	0.155732
C163	C	1.772407	0.352471	0.405732
C164	C	2.022407	0.602471	0.655732
C165	C	1.272426	-0.200941	-0.094271
C166	C	1.522426	0.049059	0.155729
C167	C	1.772426	0.299059	0.405729
C168	C	2.022426	0.549059	0.655729
C169	C	1.341703	-0.227632	-0.163581
C170	C	1.591703	0.022368	0.086419
C171	C	1.841703	0.272368	0.336419
C172	C	2.091703	0.522368	0.586419
O173	O	1.213569	-0.285453	-0.035392
O174	O	1.463569	-0.035453	0.214608
O175	O	1.713569	0.214547	0.464608
O176	O	1.963569	0.464547	0.714608
O177	O	1.469883	-0.285444	-0.291804
O178	O	1.719883	-0.035444	-0.041804
O179	O	1.969883	0.214556	0.208196
O180	O	2.219883	0.464556	0.458196
C181	C	1.411024	-0.526731	-0.232868
C182	C	1.661024	-0.276731	0.017132
C183	C	1.911024	-0.026731	0.267132
C184	C	2.161024	0.223269	0.517132
C185	C	1.341779	-0.553449	-0.163561
C186	C	1.591779	-0.303449	0.086439
C187	C	1.841779	-0.053449	0.336439
C188	C	2.091779	0.196551	0.586439
C189	C	1.272520	-0.526755	-0.094257
C190	C	1.522520	-0.276755	0.155743
C191	C	1.772520	-0.026755	0.405743
C192	C	2.022520	0.223245	0.655743
C193	C	1.341784	-0.606863	-0.163563
C194	C	1.591784	-0.356863	0.086437
C195	C	1.841784	-0.106863	0.336437
C196	C	2.091784	0.143137	0.586437
C197	C	1.411042	-0.633557	-0.232867
C198	C	1.661042	-0.383557	0.017133
C199	C	1.911042	-0.133557	0.267133
C200	C	2.161042	0.116443	0.517133
C201	C	1.480296	-0.606836	-0.302168
C202	C	1.730296	-0.356836	-0.052168
C203	C	1.980296	-0.106836	0.197832
C204	C	2.230296	0.143164	0.447832
C205	C	1.480282	-0.553425	-0.302172
C206	C	1.730282	-0.303425	-0.052172
C207	C	1.980282	-0.053425	0.197828
C208	C	2.230282	0.196575	0.447828
C209	C	1.203266	-0.553475	-0.024956
C210	C	1.453266	-0.303475	0.225044
C211	C	1.703266	-0.053475	0.475044
C212	C	1.953266	0.196525	0.725044
C213	C	1.203285	-0.606887	-0.024958
C214	C	1.453285	-0.356887	0.225042
C215	C	1.703285	-0.106887	0.475042
C216	C	1.953285	0.143113	0.725042
C217	C	1.272544	-0.633580	-0.094262
C218	C	1.522544	-0.383580	0.155738
C219	C	1.772544	-0.133580	0.405738
C220	C	2.022544	0.116420	0.655738
C221	C	1.549192	-0.000050	-0.156572
C222	C	1.799192	0.249950	0.093428
C223	C	2.049192	0.499950	0.343428
C224	C	2.299192	0.749950	0.593428
C225	C	1.675206	-0.000051	-0.159587
C226	C	1.925206	0.249949	0.090413
C227	C	2.175206	0.499949	0.340413
C228	C	2.425206	0.749949	0.590413
C229	C	1.348740	-0.000047	0.043880
C230	C	1.598740	0.249953	0.293880
C231	C	1.848740	0.499953	0.543880
C232	C	2.098740	0.749953	0.793880
C233	C	1.345726	-0.000046	0.169894
C234	C	1.595726	0.249954	0.419894
C235	C	1.845726	0.499954	0.669894
C236	C	2.095726	0.749954	0.919894
N237	N	1.341809	0.120718	-0.163574
N238	N	1.591809	0.370718	0.086426
N239	N	1.841809	0.620718	0.336426
N240	N	2.091809	0.870718	0.586426
C241	C	1.334721	-0.000039	-0.371043
C242	C	1.584721	0.249961	-0.121043
C243	C	1.834721	0.499961	0.128957
C244	C	2.084721	0.749961	0.378957
C245	C	1.337736	-0.000036	-0.497057
C246	C	1.587736	0.249964	-0.247057
C247	C	1.837736	0.499964	0.002943
C248	C	2.087736	0.749964	0.252943
C249	C	1.340183	-0.000038	0.400606
C250	C	1.590183	0.249962	0.650606
C251	C	1.840183	0.499962	0.900606
C252	C	2.090183	0.749962	1.150606
C253	C	1.343262	-0.000042	0.272221
C254	C	1.593262	0.249958	0.522221
C255	C	1.843262	0.499958	0.772221
C256	C	2.093262	0.749958	1.022221
H257	H	1.467311	-0.125747	-0.289333
H258	H	1.717311	0.124253	-0.039333
H259	H	1.967311	0.374253	0.210667
H260	H	2.217311	0.624253	0.460667
H261	H	1.146869	-0.531746	0.031483
H262	H	1.396869	-0.281746	0.281483
H263	H	1.646869	-0.031746	0.531483
H264	H	1.896869	0.218254	0.781483
H265	H	1.536673	-0.531676	-0.358615
H266	H	1.786673	-0.281676	-0.108615
H267	H	2.036673	-0.031676	0.141385
H268	H	2.286673	0.218324	0.391385
H269	H	1.536683	-0.628580	-0.358603
H270	H	1.786683	-0.378580	-0.108603
H271	H	2.036683	-0.128580	0.141397
H272	H	2.286683	0.121420	0.391397
H273	H	1.146858	-0.468391	0.031507
H274	H	1.396858	-0.218391	0.281507
H275	H	1.646858	0.031609	0.531507
H276	H	1.896858	0.281609	0.781507
H277	H	1.467355	-0.222640	-0.289321
H278	H	1.717355	0.027360	-0.039321
H279	H	1.967355	0.277360	0.210679
H280	H	2.217355	0.527360	0.460679
H281	H	1.146882	-0.628635	0.031483
H282	H	1.396882	-0.378635	0.281483
H283	H	1.646882	-0.128635	0.531483
H284	H	1.896882	0.121365	0.781483
H285	H	1.216147	-0.874337	-0.037841
H286	H	1.466147	-0.624337	0.212159
H287	H	1.716147	-0.374337	0.462159
H288	H	1.966147	-0.124337	0.712159
H289	H	1.216146	-0.777446	-0.037820
H290	H	1.466146	-0.527446	0.212180
H291	H	1.716146	-0.277446	0.462180
H292	H	1.966146	-0.027446	0.712180
H293	H	1.536636	-0.371442	-0.358622
H294	H	1.786636	-0.121442	-0.108622
H295	H	2.036636	0.128558	0.141378
H296	H	2.286636	0.378558	0.391378
H297	H	1.216023	-0.222696	-0.037844
H298	H	1.466023	0.027304	0.212156
H299	H	1.716023	0.277304	0.462156
H300	H	1.966023	0.527304	0.712156
H301	H	1.467444	-0.777397	-0.289327
H302	H	1.717444	-0.527397	-0.039327
H303	H	1.967444	-0.277397	0.210673
H304	H	2.217444	-0.027397	0.460673
H305	H	1.467456	-0.874305	-0.289316
H306	H	1.717456	-0.624305	-0.039316
H307	H	1.967456	-0.374305	0.210684
H308	H	2.217456	-0.124305	0.460684
H309	H	1.536660	-0.468331	-0.358616
H310	H	1.786660	-0.218331	-0.108616
H311	H	2.036660	0.031669	0.141384
H312	H	2.286660	0.281669	0.391384
H313	H	1.146851	-0.371498	0.031507
H314	H	1.396851	-0.121498	0.281507
H315	H	1.646851	0.128502	0.531507
H316	H	1.896851	0.378502	0.781507
H317	H	1.216016	-0.125786	-0.037846
H318	H	1.466016	0.124214	0.212154
H319	H	1.716016	0.374214	0.462154
H320	H	1.966016	0.624214	0.712154
