data_functionalizedCrystal
_audit_creation_method	'MofGen! by Chris Wilmer'
_symmetry_space_group_name_H-M	'P1'
_symmetry_Int_Tables_number	1
_symmetry_cell_setting	triclinic
loop_
_symmetry_equiv_pos_as_xyz
  x,y,z
_cell_length_a	12.784905
_cell_length_b	11.792241
_cell_length_c	11.295483
_cell_angle_alpha	94.123059
_cell_angle_beta	86.327249
_cell_angle_gamma	78.650367
loop_
_atom_site_label
_atom_site_type_symbol
_atom_site_fract_x
_atom_site_fract_y
_atom_site_fract_z
O1	O	1.417468	-0.001239	-0.099032
O2	O	1.108293	0.047339	-0.099033
O3	O	1.270382	-0.142909	-0.099024
O4	O	1.255378	0.189010	-0.099041
O5	O	1.256146	-0.126223	0.099026
O6	O	1.094056	0.064026	0.099017
O7	O	1.403231	0.015447	0.099018
Cu8	Cu	1.247343	0.041260	0.117101
Cu9	Cu	1.264180	0.021527	-0.117116
O10	O	1.241141	0.205696	0.099009
C11	C	1.061593	0.058842	-0.000008
C12	C	0.943654	0.068242	-0.000008
C13	C	0.746167	-0.123282	-0.000020
C14	C	0.635353	-0.114455	-0.000020
C15	C	0.611210	0.094722	-0.000017
C16	C	0.722024	0.085895	-0.000017
C17	C	0.789499	-0.023111	-0.000017
C18	C	0.900314	-0.031936	-0.000008
C19	C	0.876171	0.177239	-0.000014
C20	C	0.765356	0.186066	-0.000014
C21	C	1.262322	-0.176758	0.000001
C22	C	1.259500	-0.302475	-0.000001
C23	C	1.254314	-0.532643	-0.000020
C24	C	1.257196	-0.404560	-0.000010
C25	C	1.449931	0.003945	-0.000009
C26	C	1.567871	-0.005456	-0.000017
C27	C	1.249202	0.239544	-0.000018
C28	C	1.252024	0.365261	-0.000025
N29	N	1.235509	0.055138	0.281837
N30	N	1.276023	0.007639	-0.281852
C31	C	1.361212	-0.092327	0.531133
C32	C	1.352276	-0.081832	0.655796
C33	C	1.208698	0.086618	0.655829
C34	C	1.217633	0.076123	0.531165
C35	C	1.293894	-0.013352	0.468822
C36	C	1.302834	-0.023841	0.344157
C37	C	1.159251	0.144603	0.344191
C38	C	1.150315	0.155098	0.468854
H39	H	0.801105	-0.212038	-0.000011
Cl40	Cl	1.054447	0.267572	0.547237
H41	H	1.104439	0.208913	0.293443
Cl42	Cl	1.457091	-0.204795	0.452757
H43	H	0.600077	-0.196025	-0.000025
H44	H	0.710404	0.274814	-0.000019
H45	H	0.556255	0.183467	-0.000034
Cl46	Cl	1.436907	-0.181122	0.734127
Cl47	Cl	0.985138	-0.168969	-0.000004
Cl48	Cl	0.930649	0.303177	0.000010
H49	H	1.364932	-0.096692	0.293398
Cl50	Cl	1.112822	0.199082	0.734215
