data_functionalizedCrystal
_audit_creation_method	'MofGen! by Chris Wilmer'
_symmetry_space_group_name_H-M	'P1'
_symmetry_Int_Tables_number	1
_symmetry_cell_setting	triclinic
loop_
_symmetry_equiv_pos_as_xyz
  x,y,z
_cell_length_a	6.817900
_cell_length_b	9.582889
_cell_length_c	9.514088
_cell_angle_alpha	87.272002
_cell_angle_beta	118.843545
_cell_angle_gamma	111.207298
loop_
_atom_site_label
_atom_site_type_symbol
_atom_site_fract_x
_atom_site_fract_y
_atom_site_fract_z
V1	V	-4.257820	-0.209707	-0.500445
V2	V	-3.924487	0.123626	-0.167112
V3	V	-3.591154	0.456959	0.166221
O4	O	-4.199949	0.007347	-0.491221
O5	O	-3.866615	0.340681	-0.157888
O6	O	-3.533282	0.674014	0.175445
O7	O	-4.247177	-0.413189	-0.496731
O8	O	-3.913843	-0.079855	-0.163398
O9	O	-3.580510	0.253478	0.169935
O10	O	-4.292208	-0.207679	-0.718839
O11	O	-3.958875	0.125654	-0.385506
O12	O	-3.625542	0.458987	-0.052173
O13	O	-4.154605	-0.199585	-0.267576
O14	O	-3.821272	0.133749	0.065757
O15	O	-3.487939	0.467082	0.399091
V16	V	-4.725829	-0.183603	-0.472627
V17	V	-4.392495	0.149730	-0.139294
V18	V	-4.059162	0.483063	0.194039
O19	O	-4.553112	-0.266968	-0.561466
O20	O	-4.219779	0.066365	-0.228132
O21	O	-3.886445	0.399699	0.105201
O22	O	-4.880735	-0.126343	-0.411607
O23	O	-4.547401	0.206991	-0.078274
O24	O	-4.214068	0.540324	0.255060
O25	O	-4.513266	0.019878	-0.476341
O26	O	-4.179932	0.353211	-0.143008
O27	O	-3.846599	0.686544	0.190325
O28	O	-4.901097	-0.400658	-0.481851
O29	O	-4.567764	-0.067325	-0.148518
O30	O	-4.234431	0.266009	0.184815
O31	O	-4.946441	-0.193726	-0.705497
O32	O	-4.613107	0.139607	-0.372163
O33	O	-4.279774	0.472941	-0.038830
O34	O	-4.468234	-0.185631	-0.254233
O35	O	-4.134901	0.147702	0.079100
O36	O	-3.801568	0.481035	0.412433
C37	C	-4.098684	-0.462756	-0.488762
C38	C	-3.765351	-0.129422	-0.155428
C39	C	-3.432017	0.203911	0.177905
C40	C	-4.171820	-0.629112	-0.487181
C41	C	-3.838487	-0.295779	-0.153848
C42	C	-3.505153	0.037555	0.179486
C43	C	-4.156124	-0.200606	-0.772080
C44	C	-3.822790	0.132727	-0.438747
C45	C	-3.489457	0.466060	-0.105414
C46	C	-4.265773	-0.200295	-0.950617
C47	C	-3.932440	0.133039	-0.617283
C48	C	-3.599106	0.466372	-0.283950
C49	C	-4.325100	0.069437	-0.484307
C50	C	-3.991767	0.402770	-0.150973
C51	C	-3.658434	0.736104	0.182360
C52	C	-4.231207	0.235792	-0.485898
C53	C	-3.897873	0.569125	-0.152564
C54	C	-3.564540	0.902458	0.180769
C55	C	-4.267658	-0.192709	-0.200984
C56	C	-3.934325	0.140624	0.132349
C57	C	-3.600992	0.473957	0.465683
C58	C	-4.137246	-0.193013	-0.022446
C59	C	-3.803913	0.140320	0.310887
C60	C	-3.470579	0.473653	0.644221
H61	H	-3.943331	-0.187032	-0.947358
H62	H	-3.609998	0.146302	-0.614025
H63	H	-3.276665	0.479635	-0.280692
H64	H	-4.459711	-0.206294	-1.025716
H65	H	-4.126378	0.127040	-0.692382
H66	H	-3.793045	0.460373	-0.359049
