data_functionalizedCrystal
_audit_creation_method	'MofGen! by Chris Wilmer'
_symmetry_space_group_name_H-M	'P1'
_symmetry_Int_Tables_number	1
_symmetry_cell_setting	triclinic
loop_
_symmetry_equiv_pos_as_xyz
  x,y,z
_cell_length_a	18.215407
_cell_length_b	12.759399
_cell_length_c	18.215399
_cell_angle_alpha	90.024962
_cell_angle_beta	90.019833
_cell_angle_gamma	90.015564
loop_
_atom_site_label
_atom_site_type_symbol
_atom_site_fract_x
_atom_site_fract_y
_atom_site_fract_z
Zn1	Zn	1.125122	-0.418265	0.416131
Zn2	Zn	1.125051	-0.593962	0.293071
Zn3	Zn	1.002054	-0.418299	0.293079
Zn4	Zn	1.002041	-0.593903	0.416096
O5	O	1.063567	-0.506107	0.354594
O6	O	1.228097	-0.441581	0.399819
O7	O	1.108711	-0.570699	0.190088
O8	O	1.018415	-0.271273	0.309419
O9	O	1.228045	-0.570665	0.309407
O10	O	1.108832	-0.271248	0.399826
O11	O	1.018346	-0.441640	0.190093
O12	O	0.899068	-0.441583	0.309385
O13	O	1.018392	-0.570566	0.519085
O14	O	0.899059	-0.570599	0.399766
O15	O	1.108819	-0.441525	0.519111
O16	O	1.108699	-0.740975	0.309373
O17	O	1.018324	-0.740932	0.399759
C18	C	0.872361	-0.506089	0.354573
C19	C	0.790562	-0.506107	0.354582
C20	C	0.602382	-0.573391	0.401584
C21	C	0.525524	-0.573394	0.401593
C22	C	0.525504	-0.438842	0.307621
C23	C	0.602361	-0.438835	0.307616
C24	C	0.640799	-0.506115	0.354596
C25	C	0.487083	-0.506126	0.354610
C26	C	0.403749	-0.506129	0.354620
C27	C	0.724138	-0.506111	0.354588
C28	C	1.063522	-0.779075	0.354578
C29	C	1.063570	-0.895851	0.354595
C30	C	1.110682	-0.950701	0.307585
C31	C	1.110729	-1.060425	0.307609
C32	C	1.016546	-1.060440	0.401657
C33	C	1.016503	-0.950718	0.401635
C34	C	1.197595	-1.210299	0.281423
C35	C	1.244701	-1.265152	0.234401
C36	C	1.256026	-1.229601	0.162596
C37	C	1.220235	-1.139198	0.137798
C38	C	1.173125	-1.084351	0.184816
C39	C	1.161813	-1.119900	0.256632
C40	C	0.929636	-0.800842	0.427814
C41	C	0.882521	-0.745993	0.474829
C42	C	0.871188	-0.781542	0.546635
C43	C	0.906966	-0.871947	0.571430
C44	C	0.954081	-0.926797	0.524415
C45	C	0.965415	-0.891240	0.452610
C46	C	1.255520	-0.506126	0.354616
C47	C	1.337319	-0.506134	0.354625
C48	C	1.063612	-0.506035	0.546547
C49	C	1.063631	-0.506004	0.628346
C50	C	1.063633	-0.232074	0.354627
C51	C	1.063660	-0.115297	0.354641
C52	C	1.063565	-0.506103	0.163388
C53	C	1.063688	-0.505838	0.081590
C54	C	1.110733	-0.438749	0.816555
C55	C	1.110742	-0.438719	0.893414
C56	C	1.016581	-0.573096	0.893376
C57	C	1.016569	-0.573120	0.816518
C58	C	1.063649	-0.505949	0.778110
C59	C	1.063670	-0.505894	0.931826
C60	C	1.063679	-0.505861	1.015160
C61	C	1.063639	-0.505980	0.694771
H62	H	0.494199	-0.384067	0.269370
O63	O	0.639570	-0.373446	0.261899
C64	C	0.589166	-0.314052	0.220443
H65	H	0.534371	-0.357084	0.217844
H66	H	0.581014	-0.234309	0.247488
C67	C	0.686436	-0.245915	0.145328
C68	C	0.619138	-0.298771	0.142130
H69	H	0.704925	-0.236484	0.097022
H70	H	0.720395	-0.285926	0.173259
H71	H	0.679634	-0.179467	0.167868
H72	H	0.625942	-0.365222	0.119599
H73	H	0.585180	-0.258771	0.114193
H74	H	1.149008	-0.906030	0.269283
O75	O	0.970847	-1.113902	0.447275
C76	C	0.980997	-1.222508	0.437226
H77	H	1.005138	-1.237523	0.380457
H78	H	1.020173	-1.253557	0.480920
C79	C	0.876901	-1.260479	0.513635
C80	C	0.906546	-1.278920	0.443908
H81	H	0.830978	-1.295278	0.517760
H82	H	0.870064	-1.187309	0.520408
H83	H	0.909555	-1.286353	0.550039
H84	H	0.873897	-1.253034	0.407506
H85	H	0.913376	-1.352087	0.437129
H86	H	1.294382	-1.274269	0.124311
O87	O	0.639754	-0.638848	0.447119
C88	C	0.684199	-0.706614	0.405142
H89	H	0.661014	-0.713008	0.347174
H90	H	0.742451	-0.674121	0.402642
C91	C	0.713852	-0.808040	0.512170
C92	C	0.685373	-0.815900	0.440974
H93	H	0.714580	-0.875452	0.534273
H94	H	0.683911	-0.762383	0.540451
H95	H	0.762394	-0.780958	0.510077
H96	H	0.636830	-0.842968	0.443069
H97	H	0.715306	-0.861564	0.412693
H98	H	0.983217	-1.000407	0.544611
O99	O	1.156381	-0.373342	0.779279
C100	C	1.140330	-0.268628	0.798089
H101	H	1.081541	-0.263320	0.819204
H102	H	1.179796	-0.241152	0.842715
C103	C	1.221103	-0.205046	0.703894
C104	C	1.148896	-0.198526	0.729823
H105	H	1.226390	-0.161802	0.661786
H106	H	1.231920	-0.275594	0.691223
H107	H	1.253983	-0.182151	0.741089
H108	H	1.116018	-0.221432	0.692631
H109	H	1.138074	-0.127980	0.742486
H110	H	1.229455	-1.110266	0.079324
O111	O	0.970752	-0.638254	0.779135
C112	C	0.923239	-0.578449	0.734665
H113	H	0.918713	-0.495696	0.757840
H114	H	0.945986	-0.574846	0.676421
C115	C	0.852281	-0.731412	0.704993
C116	C	0.846718	-0.629776	0.733461
H117	H	0.805080	-0.763074	0.704247
H118	H	0.884293	-0.771705	0.734951
H119	H	0.871240	-0.728395	0.656460
H120	H	0.827768	-0.632795	0.781997
H121	H	0.814701	-0.589484	0.703511
O122	O	1.138442	-0.996533	0.160630
C123	C	1.158519	-0.976931	0.087159
H124	H	1.213447	-1.016095	0.075076
H125	H	1.114748	-1.010025	0.048866
C126	C	1.097913	-0.809812	0.089794
C127	C	1.165380	-0.857906	0.074955
H128	H	1.102142	-0.736391	0.082264
H129	H	1.084384	-0.823018	0.139292
H130	H	1.061444	-0.837400	0.057881
H131	H	1.201845	-0.830326	0.106874
H132	H	1.178915	-0.844691	0.025462
H133	H	1.149081	-0.383996	0.924712
O134	O	0.940631	-0.766490	0.358011
C135	C	0.918545	-0.844778	0.308011
H136	H	0.920017	-0.924451	0.336268
H137	H	0.860328	-0.827811	0.288342
C138	C	0.969266	-0.747732	0.207084
C139	C	0.971080	-0.845589	0.241789
H140	H	1.001669	-0.748230	0.166233
H141	H	0.984144	-0.694985	0.240770
H142	H	0.920749	-0.733604	0.190700
H143	H	1.019594	-0.859709	0.258180
H144	H	0.956212	-0.898338	0.208104
H145	H	0.897739	-0.900892	0.629901
H146	H	1.273842	-1.338757	0.254599
O147	O	0.970959	-0.638460	0.930721
C148	C	1.012851	-0.706288	0.975189
H149	H	1.070807	-0.712788	0.952036
H150	H	1.015404	-0.673786	1.033443
C151	C	0.905691	-0.807522	1.004784
C152	C	0.976873	-0.815512	0.976344
H153	H	0.883497	-0.874895	1.005500
H154	H	0.877467	-0.761823	0.974828
H155	H	0.907828	-0.780432	1.053327
H156	H	0.974734	-0.842588	0.927799
H157	H	1.005096	-0.861218	1.006292
O158	O	0.488287	-0.638698	0.447337
C159	C	0.507092	-0.615853	0.520711
H160	H	0.562902	-0.575463	0.522279
H161	H	0.463855	-0.561887	0.545569
C162	C	0.442101	-0.767964	0.563240
C163	C	0.510651	-0.718365	0.565166
H164	H	0.444294	-0.831197	0.590663
H165	H	0.429430	-0.783354	0.513806
H166	H	0.406077	-0.722982	0.583953
H167	H	0.546671	-0.763342	0.544444
H168	H	0.523329	-0.702986	0.614597
O169	O	1.186678	-1.244685	0.351227
C170	C	1.208744	-1.166383	0.401226
H171	H	1.249964	-1.111995	0.373562
H172	H	1.158770	-1.119274	0.419386
C173	C	1.194043	-1.284759	0.502656
C174	C	1.244676	-1.217963	0.468681
H175	H	1.216205	-1.316574	0.544268
H176	H	1.179174	-1.337511	0.468971
H177	H	1.152402	-1.245491	0.517783
H178	H	1.286312	-1.257234	0.453547
H179	H	1.259553	-1.165218	0.502365
O180	O	0.825418	-0.728113	0.592220
C181	C	0.796244	-0.640716	0.554934
H182	H	0.834232	-0.618257	0.507769
H183	H	0.739692	-0.661238	0.532265
C184	C	0.742798	-0.575452	0.666468
C185	C	0.789458	-0.547862	0.608543
H186	H	0.738608	-0.518175	0.699537
H187	H	0.762450	-0.634334	0.691589
H188	H	0.695675	-0.592554	0.647568
H189	H	0.836582	-0.530773	0.627442
H190	H	0.769814	-0.488974	0.583427
H191	H	0.853393	-0.672375	0.454636
