data_functionalizedCrystal
_audit_creation_method	'MofGen! by Chris Wilmer'
_symmetry_space_group_name_H-M	'P1'
_symmetry_Int_Tables_number	1
_symmetry_cell_setting	triclinic
loop_
_symmetry_equiv_pos_as_xyz
  x,y,z
_cell_length_a	16.992694
_cell_length_b	11.295483
_cell_length_c	16.992695
_cell_angle_alpha	85.625069
_cell_angle_beta	90.668223
_cell_angle_gamma	94.379711
loop_
_atom_site_label
_atom_site_type_symbol
_atom_site_fract_x
_atom_site_fract_y
_atom_site_fract_z
O1	O	1.055813	0.098876	0.161955
O2	O	1.555813	0.598876	0.661955
O3	O	0.827415	0.098911	0.160122
O4	O	1.327415	0.598911	0.660122
O5	O	0.940698	0.098884	0.046839
O6	O	1.440698	0.598884	0.546839
O7	O	0.942530	0.098903	0.275238
O8	O	1.442530	0.598903	0.775238
O9	O	0.930747	-0.099164	0.056773
O10	O	1.430747	0.400836	0.556773
O11	O	0.817464	-0.099137	0.170056
O12	O	1.317464	0.400863	0.670056
O13	O	1.045862	-0.099172	0.171889
O14	O	1.545862	0.400828	0.671889
Cu15	Cu	0.930755	-0.117238	0.171879
Cu16	Cu	1.430755	0.382762	0.671879
Cu17	Cu	0.942523	0.116977	0.160132
Cu18	Cu	1.442523	0.616977	0.660132
O19	O	0.932579	-0.099146	0.285172
O20	O	1.432579	0.400854	0.785172
C21	C	0.793080	-0.000109	0.162733
C22	C	1.293080	0.499891	0.662733
C23	C	0.705596	-0.000096	0.155703
C24	C	1.205596	0.499904	0.655703
N25	N	0.922483	-0.281973	0.180142
N26	N	1.422483	0.218027	0.680142
C27	C	0.659605	-0.000091	0.223521
C28	C	1.159605	0.499909	0.723521
C29	C	0.577403	-0.000108	0.216913
C30	C	1.077403	0.499892	0.716913
C31	C	0.541194	-0.000121	0.142486
C32	C	1.041194	0.499879	0.642486
C33	C	0.587191	-0.000129	0.074664
C34	C	1.087191	0.499871	0.574664
C35	C	0.669391	-0.000121	0.081273
C36	C	1.169391	0.499879	0.581273
C37	C	0.295878	-0.000155	0.115093
C38	C	0.795878	0.499845	0.615093
C39	C	0.213673	-0.000160	0.108489
C40	C	0.713673	0.499840	0.608489
C41	C	0.203891	-0.000141	0.250739
C42	C	0.703891	0.499859	0.750739
C43	C	0.286093	-0.000125	0.257342
C44	C	0.786093	0.499875	0.757342
C45	C	0.332082	-0.000140	0.189519
C46	C	0.832082	0.499860	0.689519
N47	N	0.457172	-0.000135	0.135730
N48	N	0.957172	0.499865	0.635730
N49	N	0.416103	-0.000135	0.196277
N50	N	0.916103	0.499865	0.696277
C51	C	1.010339	-0.531283	0.092341
C52	C	1.510339	-0.031283	0.592341
C53	C	1.004094	-0.655945	0.098591
C54	C	1.504094	-0.155945	0.598591
C55	C	0.903745	-0.655961	0.198887
C56	C	1.403745	-0.155961	0.698887
C57	C	0.909990	-0.531299	0.192637
C58	C	1.409990	-0.031299	0.692637
C59	C	0.963290	-0.468964	0.139363
C60	C	1.463290	0.031036	0.639363
C61	C	0.969538	-0.344300	0.133118
C62	C	1.469538	0.155700	0.633118
C63	C	0.869186	-0.344319	0.233409
C64	C	1.369186	0.155681	0.733409
C65	C	0.862941	-0.468981	0.239659
C66	C	1.362941	0.031019	0.739659
C67	C	1.080198	-0.000150	0.169278
C68	C	1.580198	0.499850	0.669278
C69	C	1.167682	-0.000155	0.176307
C70	C	1.667682	0.499845	0.676307
C71	C	0.933367	-0.000139	0.022446
C72	C	1.433367	0.499861	0.522446
C73	C	0.926338	-0.000138	-0.065039
C74	C	1.426338	0.499862	0.434961
N75	N	0.950800	0.281711	0.151863
N76	N	1.450800	0.781711	0.651863
C77	C	0.994156	-0.000150	-0.111029
C78	C	1.494156	0.499850	0.388971
C79	C	0.987547	-0.000137	-0.193231
C80	C	1.487547	0.499863	0.306769
C81	C	0.913120	-0.000122	-0.229440
C82	C	1.413120	0.499878	0.270560
C83	C	0.845298	-0.000107	-0.183444
C84	C	1.345298	0.499893	0.316556
C85	C	0.851908	-0.000111	-0.101244
C86	C	1.351908	0.499889	0.398756
C87	C	0.885727	-0.000101	-0.474755
C88	C	1.385727	0.499899	0.025245
C89	C	0.879122	-0.000101	-0.556960
C90	C	1.379122	0.499899	-0.056960
C91	C	1.021372	-0.000130	-0.566742
C92	C	1.521372	0.499870	-0.066742
C93	C	1.027975	-0.000141	-0.484540
C94	C	1.527975	0.499859	0.015460
C95	C	0.960153	-0.000119	-0.438552
C96	C	1.460153	0.499881	0.061448
N97	N	0.906364	-0.000113	-0.313462
N98	N	1.406364	0.499887	0.186538
N99	N	0.966911	-0.000119	-0.354531
N100	N	1.466911	0.499881	0.145469
C101	C	0.939911	-0.000119	0.309565
C102	C	1.439911	0.499881	0.809565
C103	C	0.946940	-0.000113	0.397049
C104	C	1.446940	0.499887	0.897049
H105	H	0.539961	-0.000103	0.272138
H106	H	1.039961	0.499897	0.772138
N107	N	0.812579	-0.000083	-0.425159
N108	N	1.312579	0.499917	0.074841
H109	H	0.764429	-0.000079	-0.460572
H110	H	1.264429	0.499921	0.039428
H111	H	0.808533	-0.073502	-0.387161
H112	H	1.308533	0.426498	0.112839
N113	N	0.846270	-0.723223	0.256342
N114	N	1.346270	-0.223223	0.756342
H115	H	0.859926	-0.701534	0.311698
H116	H	1.359926	-0.201534	0.811698
H117	H	0.790938	-0.701523	0.242597
H118	H	1.290938	-0.201523	0.742597
H119	H	0.689080	-0.000079	0.284128
H120	H	1.189080	0.499921	0.784128
H121	H	0.784698	-0.000087	-0.212932
H122	H	1.284698	0.499913	0.287068
H123	H	0.830877	-0.293565	0.271700
H124	H	1.330877	0.206435	0.771700
H125	H	0.796683	-0.000101	-0.063799
H126	H	1.296683	0.499899	0.436201
N127	N	1.094519	-0.000155	-0.616343
N128	N	1.594519	0.499845	-0.116343
H129	H	1.079042	-0.000151	-0.673910
H130	H	1.579042	0.499849	-0.173910
H131	H	1.130423	0.073258	-0.607790
H132	H	1.630423	0.573258	-0.107790
N133	N	0.325147	-0.000089	0.337615
N134	N	0.825147	0.499911	0.837615
H135	H	0.283538	-0.000083	0.379576
H136	H	0.783538	0.499917	0.879576
H137	H	0.355364	-0.073497	0.347148
H138	H	0.855364	0.426503	0.847148
H139	H	1.012939	-0.293548	0.089742
H140	H	1.512939	0.206452	0.589742
H141	H	1.054762	-0.000170	-0.081554
H142	H	1.554762	0.499830	0.418446
H143	H	1.088581	-0.000153	-0.455065
H144	H	1.588581	0.499847	0.044935
N145	N	0.805452	-0.536216	0.297112
N146	N	1.305452	-0.036216	0.797112
H147	H	0.808633	-0.624646	0.293936
H148	H	1.308633	-0.124646	0.793936
H149	H	0.819139	-0.514424	0.352438
H150	H	1.319139	-0.014424	0.852438
N151	N	0.548148	-0.000137	-0.005616
N152	N	1.048148	0.499863	0.494384
H153	H	0.560911	-0.073557	-0.031875
H154	H	1.060911	0.426443	0.468125
H155	H	0.489107	-0.000092	0.000545
H156	H	0.989107	0.499908	0.500545
H157	H	1.042771	-0.000150	-0.230673
H158	H	1.542771	0.499850	0.269327
H159	H	0.818511	-0.000108	-0.586438
H160	H	1.318511	0.499892	-0.086438
H161	H	0.184195	-0.000169	0.047879
H162	H	0.684195	0.499831	0.547879
N163	N	0.154298	-0.000140	0.323894
N164	N	0.654298	0.499860	0.823894
H165	H	0.123653	0.073271	0.320648
H166	H	0.623653	0.573271	0.820648
H167	H	0.116342	-0.073611	0.327968
H168	H	0.616342	0.426389	0.827968
N169	N	1.054846	-0.723163	0.047882
N170	N	1.554846	-0.223163	0.547882
H171	H	1.089559	-0.664753	0.013190
H172	H	1.589559	-0.164753	0.513190
H173	H	1.088942	-0.774870	0.082819
H174	H	1.588942	-0.274870	0.582819
H175	H	0.333313	-0.000168	0.059867
H176	H	0.833313	0.499832	0.559867
N177	N	0.718999	-0.000135	0.008128
N178	N	1.218999	0.499865	0.508128
H179	H	0.683589	-0.000143	-0.040025
H180	H	1.183589	0.499857	0.459975
H181	H	0.757001	0.073284	0.004085
H182	H	1.257001	0.573284	0.504085
H183	H	1.053743	-0.480529	0.048969
H184	H	1.553743	0.019471	0.548969
