data_functionalizedCrystal
_audit_creation_method	'MofGen! by Chris Wilmer'
_symmetry_space_group_name_H-M	'P1'
_symmetry_Int_Tables_number	1
_symmetry_cell_setting	triclinic
loop_
_symmetry_equiv_pos_as_xyz
  x,y,z
_cell_length_a	16.959454
_cell_length_b	19.805407
_cell_length_c	19.805399
_cell_angle_alpha	89.980427
_cell_angle_beta	89.977613
_cell_angle_gamma	90.020075
loop_
_atom_site_label
_atom_site_type_symbol
_atom_site_fract_x
_atom_site_fract_y
_atom_site_fract_z
Zn1	Zn	-0.314700	1.034765	-0.382744
Zn2	Zn	-0.446882	1.034693	-0.269566
Zn3	Zn	-0.314722	0.921580	-0.269569
Zn4	Zn	-0.446840	0.921556	-0.382713
O5	O	-0.380786	0.978149	-0.326148
O6	O	-0.332243	1.129472	-0.367743
O7	O	-0.429378	1.019668	-0.174850
O8	O	-0.204108	0.936635	-0.284596
O9	O	-0.429356	1.129419	-0.284591
O10	O	-0.204092	1.019792	-0.367745
O11	O	-0.332280	0.936564	-0.174852
O12	O	-0.332239	0.826860	-0.284565
O13	O	-0.429285	0.936594	-0.477434
O14	O	-0.429306	0.826843	-0.367692
O15	O	-0.332202	1.019768	-0.477457
O16	O	-0.557488	1.019645	-0.284561
O17	O	-0.557457	0.936524	-0.367690
C18	C	-0.380771	0.802293	-0.326126
C19	C	-0.380783	0.727061	-0.326133
C20	C	-0.431402	0.691725	-0.369347
C21	C	-0.431404	0.621037	-0.369356
C22	C	-0.380790	0.585685	-0.326148
C23	C	-0.330165	0.621026	-0.282932
C24	C	-0.330160	0.691713	-0.282926
C25	C	-0.330183	0.335952	-0.282954
C26	C	-0.330193	0.265260	-0.282962
C27	C	-0.431426	0.265276	-0.369384
C28	C	-0.431421	0.335963	-0.369379
C29	C	-0.380794	0.371298	-0.326166
C30	C	-0.380792	0.447946	-0.326157
C31	C	-0.380795	0.509038	-0.326153
C32	C	-0.586152	0.978092	-0.326136
C33	C	-0.674009	0.978130	-0.326154
C34	C	-1.045498	0.934930	-0.369428
C35	C	-1.045470	1.021555	-0.282937
C36	C	-0.962925	1.021532	-0.282930
C37	C	-0.921662	0.978206	-0.326173
C38	C	-0.962945	0.934904	-0.369422
C39	C	-0.921635	1.064828	-0.239677
C40	C	-0.839085	1.064806	-0.239669
C41	C	-0.797820	1.021483	-0.282915
C42	C	-0.839108	0.978180	-0.326167
C43	C	-0.797845	0.934854	-0.369409
C44	C	-0.839132	0.891553	-0.412665
C45	C	-0.921680	0.891581	-0.412669
C46	C	-0.715272	1.021455	-0.282911
C47	C	-0.715292	0.934827	-0.369403
C48	C	-0.174618	0.978224	-0.326174
C49	C	-0.086761	0.978256	-0.326186
C50	C	-0.380736	0.978187	-0.502691
C51	C	-0.380715	0.978203	-0.577923
C52	C	-0.380802	1.154691	-0.326170
C53	C	-0.380808	1.229923	-0.326180
C54	C	-0.330161	1.021513	-0.613280
C55	C	-0.330138	1.021520	-0.683968
C56	C	-0.380674	0.978220	-0.719298
C57	C	-0.431230	0.934905	-0.683936
C58	C	-0.431248	0.934895	-0.613249
C59	C	-0.431156	0.934943	-0.969010
C60	C	-0.431135	0.934958	-1.039702
C61	C	-0.330046	1.021568	-1.039729
C62	C	-0.330065	1.021558	-0.969042
C63	C	-0.380617	0.978241	-0.933686
C64	C	-0.380641	0.978233	-0.857037
C65	C	-0.380655	0.978230	-0.795946
C66	C	-0.380779	0.978150	-0.150292
C67	C	-0.380577	0.978265	-0.075060
H68	H	-0.472639	0.364743	-0.404561
C69	C	-0.487083	0.730605	-0.416880
N70	N	-0.529021	0.759888	-0.452685
C71	C	-0.967102	0.843947	-0.460237
N72	N	-1.001316	0.808066	-0.496062
H73	H	-0.681701	0.899549	-0.404619
H74	H	-0.288951	0.592237	-0.247754
C75	C	-0.486763	0.887291	-0.930127
N76	N	-0.528647	0.851396	-0.900839
H77	H	-0.472623	0.592269	-0.404545
H78	H	-0.288974	1.056788	-0.712753
H79	H	-0.288916	1.056819	-0.940280
H80	H	-0.472646	0.236498	-0.404573
C81	C	-0.274477	0.730582	-0.235386
N82	N	-0.232534	0.759857	-0.199579
C83	C	-0.274427	1.069209	-1.078627
N84	N	-0.232536	1.105092	-1.107924
H85	H	-0.472289	0.899695	-1.068466
H86	H	-0.955238	1.100097	-0.204466
H87	H	-0.472406	0.899621	-0.584462
H88	H	-0.472373	0.899647	-0.712708
H89	H	-0.288972	0.236479	-0.247776
H90	H	-0.805526	0.856274	-0.447870
H91	H	-0.288965	0.364713	-0.247763
H92	H	-1.079117	0.899678	-0.404647
C93	C	-0.793677	1.112433	-0.192084
N94	N	-0.759475	1.148305	-0.156241
H95	H	-0.681660	1.056707	-0.247691
C96	C	-1.090862	1.069204	-0.235366
N97	N	-1.125055	1.105095	-0.199533
H98	H	-0.289012	1.056775	-0.584519
