data_functionalizedCrystal
_audit_creation_method	'MofGen! by Chris Wilmer'
_symmetry_space_group_name_H-M	'P1'
_symmetry_Int_Tables_number	1
_symmetry_cell_setting	triclinic
loop_
_symmetry_equiv_pos_as_xyz
  x,y,z
_cell_length_a	11.169417
_cell_length_b	16.625545
_cell_length_c	11.169409
_cell_angle_alpha	90.036076
_cell_angle_beta	90.020564
_cell_angle_gamma	90.026437
loop_
_atom_site_label
_atom_site_type_symbol
_atom_site_fract_x
_atom_site_fract_y
_atom_site_fract_z
Zn1	Zn	1.834844	-0.320918	0.678511
Zn2	Zn	2.334844	0.179082	1.178511
Zn3	Zn	1.834678	-0.455780	0.477815
Zn4	Zn	2.334678	0.044220	0.977815
Zn5	Zn	1.634127	-0.320967	0.477845
Zn6	Zn	2.134127	0.179033	0.977845
Zn7	Zn	1.634084	-0.455714	0.678460
Zn8	Zn	2.134084	0.044286	1.178460
O9	O	1.734433	-0.388345	0.578158
O10	O	2.234433	0.111655	1.078158
O11	O	2.002772	-0.338815	0.651897
O12	O	2.502772	0.161185	1.151897
O13	O	1.808023	-0.437944	0.309869
O14	O	2.308023	0.062056	0.809869
O15	O	1.660841	-0.208128	0.504499
O16	O	2.160841	0.291872	1.004499
O17	O	2.002649	-0.437897	0.504446
O18	O	2.502649	0.062103	1.004446
O19	O	1.808306	-0.208092	0.651927
O20	O	2.308306	0.291908	1.151927
O21	O	1.660679	-0.338898	0.309892
O22	O	2.160679	0.161102	0.809892
O23	O	1.466172	-0.338835	0.504449
O24	O	1.966172	0.161165	1.004449
O25	O	1.660767	-0.437785	0.846416
O26	O	2.160767	0.062215	1.346416
O27	O	1.466140	-0.437833	0.651839
O28	O	1.966140	0.062167	1.151839
O29	O	1.808265	-0.338751	0.846454
O30	O	2.308265	0.161249	1.346454
O31	O	1.807981	-0.568604	0.504396
O32	O	2.307981	-0.068604	1.004396
O33	O	1.660606	-0.568555	0.651809
O34	O	2.160606	-0.068555	1.151809
C35	C	1.422609	-0.388333	0.578142
C36	C	1.922609	0.111667	1.078142
C37	C	1.289209	-0.388347	0.578164
C38	C	1.789209	0.111653	1.078164
C39	C	1.734303	-0.597836	0.578120
C40	C	2.234303	-0.097836	1.078120
C41	C	1.734357	-0.687457	0.578144
C42	C	2.234357	-0.187457	1.078144
C43	C	1.734404	-0.760239	0.578168
C44	C	2.234404	-0.260239	1.078168
C45	C	1.734473	-0.851548	0.578194
C46	C	2.234473	-0.351548	1.078194
C47	C	1.734536	-0.924324	0.578209
C48	C	2.234536	-0.424324	1.078209
C49	C	1.734604	-1.015638	0.578234
C50	C	2.234604	-0.515638	1.078234
C51	C	2.047476	-0.388358	0.578174
C52	C	2.547476	0.111642	1.078174
C53	C	2.180876	-0.388363	0.578181
C54	C	2.680876	0.111637	1.078181
C55	C	1.734530	-0.388255	0.891200
C56	C	2.234530	0.111745	1.391200
C57	C	1.734571	-0.388217	1.024600
C58	C	2.234571	0.111783	1.524600
C59	C	1.734597	-0.178036	0.578222
C60	C	2.234597	0.321964	1.078222
C61	C	1.734667	-0.088415	0.578249
C62	C	2.234667	0.411585	1.078249
C63	C	1.734407	-0.388376	0.266333
C64	C	2.234407	0.111624	0.766333
C65	C	1.734598	-0.388186	0.132934
C66	C	2.234598	0.111814	0.632934
