data_functionalizedCrystal
_audit_creation_method	'MofGen! by Chris Wilmer'
_symmetry_space_group_name_H-M	'P1'
_symmetry_Int_Tables_number	1
_symmetry_cell_setting	triclinic
loop_
_symmetry_equiv_pos_as_xyz
  x,y,z
_cell_length_a	29.917948
_cell_length_b	29.917021
_cell_length_c	29.913391
_cell_angle_alpha	60.005297
_cell_angle_beta	60.010472
_cell_angle_gamma	59.993667
loop_
_atom_site_label
_atom_site_type_symbol
_atom_site_fract_x
_atom_site_fract_y
_atom_site_fract_z
O1	O	0.061938	-0.653075	0.546110
O2	O	0.561938	-0.153075	1.046110
O3	O	0.023328	-0.508466	0.440017
O4	O	0.523328	-0.008466	0.940017
O5	O	0.114898	-0.599963	0.439941
O6	O	0.614898	-0.099963	0.939941
O7	O	-0.029633	-0.561578	0.546186
O8	O	0.470367	-0.061578	1.046186
O9	O	0.145278	-0.569587	0.470242
O10	O	0.645278	-0.069587	0.970242
O11	O	0.053708	-0.478090	0.470318
O12	O	0.553708	0.021910	0.970318
O13	O	0.092318	-0.622699	0.576411
O14	O	0.592318	-0.122699	1.076411
Zn15	Zn	0.077836	-0.545572	0.528175
Zn16	Zn	0.577836	-0.045572	1.028175
Zn17	Zn	0.037809	-0.585593	0.488253
Zn18	Zn	0.537809	-0.085593	0.988253
O19	O	0.000747	-0.531202	0.576487
O20	O	0.500747	-0.031202	1.076487
N21	N	0.105154	-0.518262	0.555424
N22	N	0.605154	-0.018262	1.055424
N23	N	0.010496	-0.612908	0.461004
N24	N	0.510496	-0.112908	0.961004
C25	C	0.164136	-0.309209	0.614352
C26	C	0.664136	0.190791	1.114352
C27	C	0.164251	-0.459335	0.764424
C28	C	0.664251	0.040665	1.264424
C29	C	0.164150	-0.459313	0.614341
C30	C	0.664150	0.040687	1.114341
C31	C	0.314282	-0.459305	0.614278
C32	C	0.814282	0.040695	1.114278
C33	C	0.180666	-0.358742	0.630849
C34	C	0.680666	0.141258	1.130849
C35	C	0.180732	-0.442815	0.714891
C36	C	0.680732	0.057185	1.214891
C37	C	0.264747	-0.442797	0.630809
C38	C	0.764747	0.057203	1.130809
C39	C	0.180676	-0.442802	0.630843
C40	C	0.680676	0.057198	1.130843
C41	C	0.143097	-0.246161	0.593354
C42	C	0.643097	0.253839	1.093354
C43	C	0.143120	-0.480326	0.593337
C44	C	0.643120	0.019674	1.093337
C45	C	0.201706	-0.421790	0.651848
C46	C	0.701706	0.078210	1.151848
C47	C	0.405963	-0.443499	0.565998
C48	C	0.905963	0.056501	1.065998
C49	C	0.463273	-0.462598	0.546874
C50	C	0.963273	0.037402	1.046874
C51	C	0.463297	-0.555329	0.582235
C52	C	0.963297	-0.055329	1.082235
C53	C	0.405988	-0.536228	0.601360
C54	C	0.905988	-0.036228	1.101360
C55	C	0.156905	-0.217495	0.537012
C56	C	0.656905	0.282505	1.037012
C57	C	0.137776	-0.160180	0.517926
C58	C	0.637776	0.339820	1.017926
C59	C	0.091035	-0.160201	0.611524
C60	C	0.591035	0.339799	1.111524
C61	C	0.110164	-0.217516	0.630611
C62	C	0.610164	0.282484	1.130611
C63	C	0.086772	-0.466488	0.607209
C64	C	0.586772	0.033512	1.107209
C65	C	0.067659	-0.485590	0.588108
C66	C	0.567659	0.014410	1.088108
C67	C	0.161236	-0.532368	0.541277
C68	C	0.661236	-0.032368	1.041277
C69	C	0.180352	-0.513266	0.560371
C70	C	0.680352	-0.013266	1.060371
C71	C	0.086942	-0.466529	0.856152
C72	C	0.586942	0.033471	1.356152
C73	C	0.067877	-0.485647	0.913465
C74	C	0.567877	0.014353	1.413465
C75	C	0.161489	-0.532436	0.913415
C76	C	0.661489	-0.032436	1.413415
C77	C	0.180552	-0.513318	0.856101
C78	C	0.680552	-0.013318	1.356101
C79	C	0.143277	-0.480363	0.827471
C80	C	0.643277	0.019637	1.327471
C81	C	0.377323	-0.480313	0.593239
C82	C	0.877323	0.019687	1.093239
C83	C	-0.111377	-0.650681	0.422736
C84	C	0.388623	-0.150681	0.922736
C85	C	-0.027364	-0.650787	0.422929
C86	C	0.472636	-0.150787	0.922929
C87	C	-0.048335	-0.671770	0.401835
C88	C	0.451665	-0.171770	0.901835
C89	C	-0.064214	-0.763416	0.450041
C90	C	0.435786	-0.263416	0.950041
C91	C	-0.045160	-0.820731	0.469172
C92	C	0.454840	-0.320731	0.969172
C93	C	0.047573	-0.820841	0.433980
C94	C	0.547573	-0.320841	0.933980
C95	C	0.028517	-0.763527	0.414847
C96	C	0.528517	-0.263527	0.914847
C97	C	-0.140115	-0.664483	0.479060
C98	C	0.359885	-0.164483	0.979060
C99	C	-0.197425	-0.645309	0.498058
C100	C	0.302575	-0.145309	0.998058
C101	C	-0.197256	-0.598535	0.404405
C102	C	0.302744	-0.098535	0.904405
C103	C	-0.139946	-0.617709	0.385407
C104	C	0.360054	-0.117709	0.885407
C105	C	-0.041168	-0.594444	0.409067
C106	C	0.458832	-0.094444	0.909067
C107	C	-0.022104	-0.575374	0.428250
C108	C	0.477896	-0.075374	0.928250
C109	C	0.024568	-0.668986	0.475143
C110	C	0.524568	-0.168986	0.975143
C111	C	0.005504	-0.688059	0.455967
C112	C	0.505504	-0.188059	0.955967
C113	C	-0.041000	-0.594453	0.310105
C114	C	0.459000	-0.094453	0.810105
C115	C	-0.021803	-0.575386	0.252792
C116	C	0.478197	-0.075386	0.752792
C117	C	0.024951	-0.669004	0.252854
C118	C	0.524951	-0.169004	0.752854
C119	C	0.005755	-0.688070	0.310168
C120	C	0.505755	-0.188070	0.810168
C121	C	-0.027222	-0.650793	0.338792
C122	C	0.472778	-0.150793	0.838792
C123	C	-0.027377	-0.734817	0.422881
C124	C	0.472623	-0.234817	0.922881
N125	N	0.491125	-0.518235	0.555255
N126	N	0.991125	-0.018235	1.055255
O127	O	0.678406	-0.527360	0.420422
O128	O	1.178406	-0.027360	0.920422
O129	O	0.678588	-0.633782	0.564887
O130	O	1.178588	-0.133782	1.064887
O131	O	0.678516	-0.633539	0.473265
O132	O	1.178516	-0.133539	0.973265
O133	O	0.678478	-0.527602	0.512044
O134	O	1.178478	-0.027602	1.012044
O135	O	0.587469	-0.603251	0.503685
O136	O	1.087469	-0.103251	1.003685
O137	O	0.587541	-0.603493	0.595307
O138	O	1.087541	-0.103493	1.095307
O139	O	0.587359	-0.497071	0.450842
O140	O	1.087359	0.002929	0.950842
Zn141	Zn	0.572994	-0.545473	0.527905
Zn142	Zn	1.072994	-0.045473	1.027905
Zn143	Zn	0.692953	-0.585380	0.487825
Zn144	Zn	1.192953	-0.085380	0.987825
O145	O	0.587431	-0.497313	0.542465
O146	O	1.087431	0.002687	1.042465
N147	N	0.774821	-0.612618	0.460470
N148	N	1.274821	-0.112618	0.960470
N149	N	0.105125	-0.132348	0.555445
N150	N	0.605125	0.367652	1.055445
O151	O	-0.029633	0.055031	0.546198
O152	O	0.470367	0.555031	1.046198
O153	O	0.114837	0.055047	0.439777
O154	O	0.614837	0.555047	0.939777
O155	O	0.023189	0.055024	0.440050
O156	O	0.523189	0.555024	0.940050
O157	O	0.062016	0.055054	0.545925
O158	O	0.562016	0.555054	1.045925
O159	O	0.053572	-0.036031	0.470398
O160	O	0.553572	0.463969	0.970398
O161	O	0.145220	-0.036008	0.470125
O162	O	0.645220	0.463992	0.970125
O163	O	0.000750	-0.036024	0.576546
O164	O	0.500750	0.463976	1.076546
Zn165	Zn	0.077809	-0.050473	0.528154
Zn166	Zn	0.577809	0.449527	1.028154
Zn167	Zn	0.037778	0.069496	0.488169
Zn168	Zn	0.537778	0.569496	0.988169
O169	O	0.092399	-0.036001	0.576273
O170	O	0.592399	0.463999	1.076273
N171	N	0.010456	0.151371	0.460879
N172	N	0.510456	0.651371	0.960879
N173	N	0.105414	-0.518315	0.941279
N174	N	0.605414	-0.018315	1.441279
O175	O	0.096182	-0.653057	1.128644
O176	O	0.596182	-0.153057	1.628644
O177	O	-0.010215	-0.508539	1.128670
O178	O	0.489785	-0.008539	1.628670
O179	O	-0.009968	-0.600172	1.128636
O180	O	0.490032	-0.100172	1.628636
O181	O	0.095935	-0.561424	1.128678
O182	O	0.595935	-0.061424	1.628678
O183	O	0.020367	-0.569808	1.037586
O184	O	0.520367	-0.069808	1.537586
O185	O	0.020121	-0.478175	1.037620
O186	O	0.520121	0.021825	1.537620
O187	O	0.126517	-0.622693	1.037594
O188	O	0.626517	-0.122693	1.537594
Zn189	Zn	0.078135	-0.545613	1.023151
Zn190	Zn	0.578135	-0.045613	1.523151
Zn191	Zn	0.038167	-0.585619	1.143113
Zn192	Zn	0.538167	-0.085619	1.643113
O193	O	0.126270	-0.531061	1.037628
O194	O	0.626270	-0.031061	1.537628
N195	N	0.010887	-0.612923	1.224985
N196	N	0.510887	-0.112923	1.724985
C197	C	0.034899	-0.475056	0.440551
C198	C	0.534899	0.024944	0.940551
C199	C	0.148298	-0.588365	0.440456
C200	C	0.648298	-0.088365	0.940456
C201	C	0.080746	-0.656109	0.575876
C202	C	0.580746	-0.156109	1.075876
C203	C	-0.032653	-0.542801	0.575971
C204	C	0.467347	-0.042801	1.075971
C205	C	0.633086	-0.633292	0.598298
C206	C	1.133086	-0.133292	1.098298
C207	C	0.632998	-0.632993	0.484834
C208	C	1.132998	-0.132993	0.984834
C209	C	0.632857	-0.497559	0.417433
C210	C	1.132857	0.002441	0.917433
C211	C	0.632949	-0.497860	0.530895
C212	C	1.132949	0.002140	1.030895
C213	C	0.148191	0.009634	0.440259
C214	C	0.648191	0.509634	0.940259
C215	C	0.034733	0.009493	0.440634
C216	C	0.534733	0.509493	0.940634
C217	C	-0.032641	0.009502	0.576027
C218	C	0.467359	0.509502	1.076027
C219	C	0.080854	0.009529	0.575690
C220	C	0.580854	0.509529	1.075690
C221	C	-0.009699	-0.475150	1.083148
C222	C	0.490301	0.024850	1.583148
C223	C	-0.009388	-0.588620	1.083088
C224	C	0.490612	-0.088620	1.583088
C225	C	0.126001	-0.656082	1.083116
C226	C	0.626001	-0.156082	1.583116
C227	C	0.125697	-0.542605	1.083155
C228	C	0.625697	-0.042605	1.583155
H229	H	0.022003	-0.474373	0.936811
H230	H	0.522003	0.025627	1.436811
O231	O	0.090869	0.009504	0.615324
O232	O	0.590869	0.509504	1.115324
C233	C	0.155929	0.009537	0.640332
C234	C	0.655929	0.509537	1.140332
C235	C	0.144662	0.009557	0.595401
C236	C	0.644662	0.509557	1.095401
H237	H	0.199415	0.009592	0.624237
H238	H	0.699415	0.509592	1.124237
H239	H	0.151091	-0.028583	0.677696
H240	H	0.651091	0.471417	1.177696
H241	H	0.125599	0.047630	0.652317
H242	H	0.625599	0.547630	1.152317
H243	H	0.174982	-0.028510	0.583369
H244	H	0.674982	0.471490	1.083369
H245	H	0.149481	0.047702	0.558066
H246	H	0.649481	0.547702	1.058066
O247	O	0.633008	-0.458224	0.540832
O248	O	1.133008	0.041776	1.040832
C249	C	0.680204	-0.432059	0.564866
C250	C	1.180204	0.067941	1.064866
C251	C	0.680199	-0.476997	0.553639
C252	C	1.180199	0.023003	1.053639
H253	H	0.718360	-0.447216	0.575212
H254	H	1.218360	0.052784	1.075212
H255	H	0.642148	-0.421864	0.600747
H256	H	1.142148	0.078136	1.100747
H257	H	0.680123	-0.393808	0.526908
H258	H	1.180123	0.106192	1.026908
H259	H	0.680299	-0.515276	0.591565
H260	H	1.180299	-0.015276	1.091565
H261	H	0.718251	-0.487145	0.517737
H262	H	1.218251	0.012855	1.017737
O263	O	-0.035104	-0.520659	0.224905
O264	O	0.464896	-0.020659	0.724905
C265	C	-0.002088	-0.444841	0.160222
C266	C	0.497912	0.055159	0.660222
C267	C	0.013051	-0.506822	0.191782
C268	C	0.513051	-0.006822	0.691782
H269	H	0.036836	-0.433637	0.133426
H270	H	0.536836	0.066363	0.633426
H271	H	-0.028930	-0.421447	0.190502
H272	H	0.471070	0.078553	0.690502
H273	H	-0.025384	-0.433559	0.133345
H274	H	0.474616	0.066441	0.633345
H275	H	0.036367	-0.518155	0.218660
H276	H	0.536367	-0.018155	0.718660
H277	H	0.039868	-0.530183	0.161472
H278	H	0.539868	-0.030183	0.661472
H279	H	-0.043102	-0.433644	1.083156
H280	H	0.456898	0.066356	1.583156
H281	H	-0.067926	-0.564092	0.382165
H282	H	0.432074	-0.064092	0.882165
H283	H	0.159407	-0.697586	1.083101
H284	H	0.659407	-0.197586	1.583101
O285	O	0.633111	-0.672747	0.474932
O286	O	1.133111	-0.172747	0.974932
C287	C	0.680316	-0.763914	0.469795
C288	C	1.180316	-0.263914	0.969795
C289	C	0.680263	-0.718935	0.481010
C290	C	1.180263	-0.218935	0.981010
H291	H	0.718428	-0.801272	0.474716
H292	H	1.218428	-0.301272	0.974716
H293	H	0.680306	-0.747899	0.426294
H294	H	1.180306	-0.247899	0.926294
H295	H	0.642224	-0.775880	0.500113
H296	H	1.142224	-0.275880	1.000113
H297	H	0.718349	-0.706949	0.450727
H298	H	1.218349	-0.206949	0.950727
H299	H	0.680244	-0.734975	0.524525
H300	H	1.180244	-0.234975	1.024525
O301	O	-0.082196	-0.532946	0.615724
O302	O	0.417804	-0.032946	1.115724
C303	C	-0.172359	-0.468088	0.641028
C304	C	0.327641	0.031912	1.141028
C305	C	-0.116273	-0.479172	0.595964
C306	C	0.383727	0.020828	1.095964
H307	H	-0.199929	-0.424618	0.625064
H308	H	0.300071	0.075382	1.125064
H309	H	-0.166653	-0.472987	0.678362
H310	H	0.333347	0.027013	1.178362
H311	H	-0.192029	-0.498476	0.653011
H312	H	0.307971	0.001524	1.153011
H313	H	-0.096572	-0.448795	0.583934
H314	H	0.403428	0.051205	1.083934
H315	H	-0.122014	-0.474293	0.558660
H316	H	0.377986	0.025707	1.058660
H317	H	0.088995	-0.697649	0.609197
H318	H	0.588995	-0.197649	1.109197
H319	H	0.632798	-0.464146	0.375944
H320	H	1.132798	0.035854	0.875944
O321	O	0.633244	-0.673167	0.647771
O322	O	1.133244	-0.173167	1.147771
C323	C	0.680480	-0.731004	0.713676
C324	C	1.180480	-0.231004	1.213676
C325	C	0.680377	-0.685855	0.657632
C326	C	1.180377	-0.185855	1.157632
H327	H	0.718577	-0.741268	0.721672
H328	H	1.218577	-0.241268	1.221672
H329	H	0.680540	-0.769181	0.713757
H330	H	1.180540	-0.269181	1.213757
H331	H	0.642373	-0.715959	0.747111
H332	H	1.142373	-0.215959	1.247111
H333	H	0.718477	-0.700848	0.624166
H334	H	1.218477	-0.200848	1.124166
H335	H	0.680289	-0.647688	0.657599
H336	H	1.180289	-0.147688	1.157599
O337	O	0.165444	-0.532818	1.083185
O338	O	0.665444	-0.032818	1.583185
C339	C	0.257701	-0.568634	1.083148
C340	C	0.757701	-0.068634	1.583148
C341	C	0.212732	-0.579796	1.083128
C342	C	0.712732	-0.079796	1.583128
H343	H	0.295948	-0.606604	1.083090
H344	H	0.795948	-0.106604	1.583090
H345	H	0.242573	-0.558237	1.121267
H346	H	0.742573	-0.058237	1.621267
H347	H	0.267885	-0.532776	1.045058
H348	H	0.767885	-0.032776	1.545058
H349	H	0.202528	-0.615661	1.121192
H350	H	0.702528	-0.115661	1.621192
H351	H	0.227884	-0.590160	1.044983
H352	H	0.727884	-0.090160	1.544983
H353	H	0.189596	0.009891	0.406765
H354	H	0.689596	0.509891	0.906765
H355	H	0.026418	0.009490	0.407371
H356	H	0.526418	0.509490	0.907371
H357	H	-0.074131	0.009496	0.609437
H358	H	0.425869	0.509496	1.109437
O359	O	-0.048996	-0.598571	1.083003
O360	O	0.451004	-0.098571	1.583003
C361	C	-0.074019	-0.663594	1.082937
C362	C	0.425981	-0.163594	1.582937
C363	C	-0.029110	-0.652394	1.083021
C364	C	0.470890	-0.152394	1.583021
H365	H	-0.057962	-0.707112	1.082963
H366	H	0.442038	-0.207112	1.582963
H367	H	-0.085958	-0.633304	1.044810
H368	H	0.414042	-0.133304	1.544810
H369	H	-0.111402	-0.658665	1.121019
H370	H	0.388598	-0.158665	1.621019
H371	H	0.008302	-0.657330	1.044965
H372	H	0.508302	-0.157330	1.544965
H373	H	-0.017217	-0.682681	1.121173
H374	H	0.482783	-0.182681	1.621173
O375	O	0.025104	-0.425547	0.400729
O376	O	0.525104	0.074453	0.900729
C377	C	0.020018	-0.376534	0.309541
C378	C	0.520018	0.123466	0.809541
C379	C	0.031137	-0.432638	0.354587
C380	C	0.531137	0.067362	0.854587
H381	H	0.024881	-0.382246	0.272228
H382	H	0.524881	0.117754	0.772228
H383	H	0.050363	-0.356795	0.297514
H384	H	0.550363	0.143205	0.797514
H385	H	-0.023466	-0.349018	0.325551
H386	H	0.476534	0.150982	0.825551
H387	H	0.074605	-0.460196	0.338615
H388	H	0.574605	0.039804	0.838615
H389	H	0.000758	-0.452333	0.366608
H390	H	0.500758	0.047667	0.866608
O391	O	0.197857	-0.598204	0.400719
O392	O	0.697857	-0.098204	0.900719
C393	C	0.287997	-0.663084	0.375392
C394	C	0.787997	-0.163084	0.875392
C395	C	0.231901	-0.652010	0.420447
C396	C	0.731901	-0.152010	0.920447
H397	H	0.315533	-0.706589	0.391322
H398	H	0.815533	-0.206589	0.891322
H399	H	0.307731	-0.632755	0.363422
H400	H	0.807731	-0.132755	0.863422
H401	H	0.282240	-0.658114	0.338059
H402	H	0.782240	-0.158114	0.838059
H403	H	0.237610	-0.656987	0.457811
H404	H	0.737610	-0.156987	0.957811
H405	H	0.212186	-0.682336	0.432371
H406	H	0.712186	-0.182336	0.932371
H407	H	0.056584	-0.439691	0.832846
H408	H	0.556584	0.060309	1.332846
H409	H	0.191844	-0.559260	0.936723
H410	H	0.691844	-0.059260	1.436723
H411	H	0.226428	-0.524588	0.832752
H412	H	0.726428	-0.024588	1.332752
H413	H	0.056452	-0.439666	0.634048
H414	H	0.556452	0.060334	1.134048
H415	H	0.191560	-0.559196	0.514439
H416	H	0.691560	-0.059196	1.014439
O417	O	0.012918	-0.472220	0.601675
O418	O	0.512918	0.027780	1.101675
C419	C	-0.072884	-0.476598	0.674369
C420	C	0.427116	0.023402	1.174369
C421	C	-0.010898	-0.491783	0.659080
C422	C	0.489102	0.008217	1.159080
H423	H	-0.092159	-0.492397	0.720782
H424	H	0.407841	0.007603	1.220782
H425	H	-0.080178	-0.495925	0.655094
H426	H	0.419822	0.004075	1.155094
H427	H	-0.092212	-0.430189	0.658545
H428	H	0.407788	0.069811	1.158545
H429	H	0.008471	-0.538184	0.674901
H430	H	0.508471	-0.038184	1.174901
H431	H	-0.003643	-0.472417	0.678347
H432	H	0.496357	0.027583	1.178347
O433	O	0.235106	-0.526769	0.546859
O434	O	0.735106	-0.026769	1.046859
C435	C	0.325908	-0.575136	0.498344
C436	C	0.825908	-0.075136	0.998344
C437	C	0.263914	-0.559899	0.513620
C438	C	0.763914	-0.059899	1.013620
H439	H	0.349217	-0.601914	0.471459
H440	H	0.849217	-0.101914	0.971459
H441	H	0.337262	-0.598510	0.537198
H442	H	0.837262	-0.098510	1.037198
H443	H	0.337138	-0.536225	0.475035
H444	H	0.837138	-0.036225	0.975035
H445	H	0.252639	-0.598782	0.536916
H446	H	0.752639	-0.098782	1.036916
H447	H	0.252593	-0.536504	0.474746
H448	H	0.752593	-0.036504	0.974746
O449	O	-0.080935	-0.848512	0.495489
O450	O	0.419065	-0.348512	0.995489
C451	C	-0.107212	-0.913155	0.496387
C452	C	0.392788	-0.413155	0.996387
C453	C	-0.066649	-0.881734	0.466511
C454	C	0.433351	-0.381734	0.966511
H455	H	-0.095670	-0.940031	0.472977
H456	H	0.404330	-0.440031	0.972977
H457	H	-0.150429	-0.882783	0.498816
H458	H	0.349571	-0.382783	0.998816
H459	H	-0.105546	-0.939943	0.539513
H460	H	0.394454	-0.439943	1.039513
H461	H	-0.068267	-0.854946	0.423371
H462	H	0.431733	-0.354946	0.923371
H463	H	-0.023450	-0.912136	0.464126
H464	H	0.476550	-0.412136	0.964126
H465	H	0.382671	-0.566208	0.623544
H466	H	0.882671	-0.066208	1.123544
H467	H	-0.033345	-0.529494	0.416965
H468	H	0.466655	-0.029494	0.916965
H469	H	0.486634	-0.600858	0.588843
H470	H	0.986634	-0.100858	1.088843
H471	H	0.486593	-0.432619	0.524694
H472	H	0.986593	0.067381	1.024694
H473	H	0.183721	-0.240813	0.506671
H474	H	0.683721	0.259187	1.006671
O475	O	0.378176	-0.389159	0.558016
O476	O	0.878176	0.110841	1.058016
C477	C	0.360573	-0.298024	0.492472
C478	C	0.860573	0.201976	0.992472
C479	C	0.392082	-0.359545	0.501436
C480	C	0.892082	0.140455	1.001436
H481	H	0.371795	-0.274064	0.446729
H482	H	0.871795	0.225936	0.946729
H483	H	0.371866	-0.283758	0.513211
H484	H	0.871866	0.216242	1.013211
H485	H	0.314694	-0.290710	0.510844
H486	H	0.814694	0.209290	1.010844
H487	H	0.437967	-0.366905	0.483062
H488	H	0.937967	0.133095	0.983062
H489	H	0.380743	-0.373780	0.480709
H490	H	0.880743	0.126220	0.980709
O491	O	0.151162	-0.132388	0.463181
O492	O	0.651162	0.367612	0.963181
C493	C	0.146703	-0.114810	0.377365
C494	C	0.646703	0.385190	0.877365
C495	C	0.131523	-0.146325	0.439353
C496	C	0.631523	0.353675	0.939353
H497	H	0.130822	-0.126058	0.358083
H498	H	0.630822	0.373942	0.858083
H499	H	0.193105	-0.126077	0.357990
H500	H	0.693105	0.373923	0.857990
H501	H	0.127389	-0.068928	0.370137
H502	H	0.627389	0.431072	0.870137
H503	H	0.150800	-0.192214	0.446629
H504	H	0.650800	0.307786	0.946629
H505	H	0.085117	-0.135013	0.458696
H506	H	0.585117	0.364987	0.958696
O507	O	0.059114	-0.132435	0.647769
O508	O	0.559114	0.367565	1.147769
C509	C	0.051860	-0.114890	0.721885
C510	C	0.551860	0.385110	1.221885
C511	C	0.088064	-0.146375	0.680875
C512	C	0.588064	0.353625	1.180875
H513	H	0.075256	-0.126140	0.748654
H514	H	0.575256	0.373860	1.248654
H515	H	0.012989	-0.126182	0.748776
H516	H	0.512989	0.373818	1.248776
H517	H	0.040542	-0.069003	0.698556
H518	H	0.540542	0.430997	1.198556
H519	H	0.099424	-0.192268	0.704159
H520	H	0.599424	0.307732	1.204159
H521	H	0.126910	-0.135038	0.653985
H522	H	0.626910	0.364962	1.153985
O523	O	0.096816	-0.245445	0.685323
O524	O	0.596816	0.254555	1.185323
C525	C	0.105667	-0.333750	0.756214
C526	C	0.605667	0.166250	1.256214
C527	C	0.120796	-0.302187	0.694236
C528	C	0.620796	0.197813	1.194236
H529	H	0.125057	-0.379631	0.763439
H530	H	0.625057	0.120369	1.263439
H531	H	0.059272	-0.322552	0.775614
H532	H	0.559272	0.177448	1.275614
H533	H	0.121503	-0.322427	0.775474
H534	H	0.621503	0.177573	1.275474
H535	H	0.104996	-0.313493	0.674929
H536	H	0.604996	0.186507	1.174929
H537	H	0.167193	-0.313388	0.674876
H538	H	0.667193	0.186612	1.174876
O539	O	-0.073000	-0.558165	0.337825
O540	O	0.427000	-0.058165	0.837825
C541	C	-0.117356	-0.463295	0.331714
C542	C	0.382644	0.036705	0.831714
C543	C	-0.081110	-0.504327	0.300253
C544	C	0.418890	-0.004327	0.800253
H545	H	-0.123934	-0.419759	0.301351
H546	H	0.376066	0.080241	0.801351
H547	H	-0.096410	-0.469885	0.358594
H548	H	0.403590	0.030115	0.858594
H549	H	-0.158592	-0.469871	0.358496
H550	H	0.341408	0.030129	0.858496
H551	H	-0.039868	-0.497777	0.273442
H552	H	0.460132	0.002223	0.773442
H553	H	-0.102098	-0.497728	0.273408
H554	H	0.397902	0.002272	0.773408
H555	H	0.051792	-0.699362	0.229554
H556	H	0.551792	-0.199362	0.729554
H557	H	0.051334	-0.699339	0.502037
H558	H	0.551334	-0.199339	1.002037
O559	O	0.019170	-0.742821	0.337949
O560	O	0.519170	-0.242821	0.837949
C561	C	0.067591	-0.833664	0.331958
C562	C	0.567591	-0.333664	0.831958
C563	C	0.052431	-0.771676	0.300430
C564	C	0.552431	-0.271676	0.800430
H565	H	0.094494	-0.857012	0.301638
H566	H	0.594494	-0.357012	0.801638
H567	H	0.028693	-0.844921	0.358704
H568	H	0.528693	-0.344921	0.858704
H569	H	0.090842	-0.844949	0.358879
H570	H	0.590842	-0.344949	0.858879
H571	H	0.029193	-0.760346	0.273480
H572	H	0.529193	-0.260346	0.773480
H573	H	0.091349	-0.760452	0.273719
H574	H	0.591349	-0.260452	0.773719
H575	H	0.058518	-0.740243	0.392731
H576	H	0.558518	-0.240243	0.892731
O577	O	0.018983	-0.742809	0.469458
O578	O	0.518983	-0.242809	0.969458
C579	C	0.067262	-0.833652	0.518018
C580	C	0.567262	-0.333652	1.018018
C581	C	0.052046	-0.771664	0.502773
C582	C	0.552046	-0.271664	1.002773
H583	H	0.093986	-0.856999	0.544965
H584	H	0.593986	-0.356999	1.044965
H585	H	0.090682	-0.844989	0.479155
H586	H	0.590682	-0.344989	0.979155
H587	H	0.028343	-0.844858	0.541252
H588	H	0.528343	-0.344858	1.041252
H589	H	0.090936	-0.760414	0.479552
H590	H	0.590936	-0.260414	0.979552
H591	H	0.028605	-0.760360	0.541656
H592	H	0.528605	-0.260360	1.041656
H593	H	-0.109727	-0.740044	0.456586
H594	H	0.390273	-0.240044	0.956586
O595	O	0.101890	-0.848650	0.426113
O596	O	0.601890	-0.348650	0.926113
C597	C	0.191855	-0.842715	0.389215
C598	C	0.691855	-0.342715	0.889215
C599	C	0.130359	-0.811155	0.398078
C600	C	0.630359	-0.311155	0.898078
H601	H	0.214889	-0.812414	0.366559
H602	H	0.714889	-0.312414	0.866559
H603	H	0.208049	-0.869542	0.363984
H604	H	0.708049	-0.369542	0.863984
H605	H	0.198147	-0.869561	0.430581
H606	H	0.698147	-0.369561	0.930581
H607	H	0.124019	-0.784280	0.356738
H608	H	0.624019	-0.284280	0.856738
H609	H	0.114194	-0.784363	0.423335
H610	H	0.614194	-0.284363	0.923335
H611	H	-0.116855	-0.691337	0.509456
H612	H	0.383145	-0.191337	1.009456
O613	O	-0.225260	-0.658790	0.552793
O614	O	0.274740	-0.158790	1.052793
C615	C	-0.219382	-0.707190	0.643681
C616	C	0.280618	-0.207190	1.143681
C617	C	-0.187793	-0.691970	0.581711
C618	C	0.312207	-0.191970	1.081711
H619	H	-0.189104	-0.734009	0.667080
H620	H	0.310896	-0.234009	1.167080
H621	H	-0.246205	-0.730515	0.654923
H622	H	0.253795	-0.230515	1.154923
H623	H	-0.246230	-0.668274	0.654918
H624	H	0.253770	-0.168274	1.154918
H625	H	-0.160915	-0.730858	0.570431
H626	H	0.339085	-0.230858	1.070431
H627	H	-0.161005	-0.668624	0.570503
H628	H	0.338995	-0.168624	1.070503
O629	O	-0.224926	-0.566498	0.368072
O630	O	0.275074	-0.066498	0.868072
C631	C	-0.218713	-0.522172	0.273175
C632	C	0.281287	-0.022172	0.773175
C633	C	-0.187310	-0.558448	0.314262
C634	C	0.312690	-0.058448	0.814262
H635	H	-0.188314	-0.515662	0.229661
H636	H	0.311686	-0.015662	0.729661
H637	H	-0.245516	-0.480903	0.279698
H638	H	0.254484	0.019097	0.779698
H639	H	-0.245565	-0.543132	0.279755
H640	H	0.254435	-0.043132	0.779755
H641	H	-0.160429	-0.537537	0.307707
H642	H	0.339571	-0.037537	0.807707
H643	H	-0.160542	-0.599716	0.307729
H644	H	0.339458	-0.099716	0.807729
H645	H	-0.116547	-0.606465	0.339541
H646	H	0.383453	-0.106465	0.839541
