data_functionalizedCrystal
_audit_creation_method	'MofGen! by Chris Wilmer'
_symmetry_space_group_name_H-M	'P1'
_symmetry_Int_Tables_number	1
_symmetry_cell_setting	triclinic
loop_
_symmetry_equiv_pos_as_xyz
  x,y,z
_cell_length_a	14.908742
_cell_length_b	14.908178
_cell_length_c	14.908308
_cell_angle_alpha	90.221621
_cell_angle_beta	83.239341
_cell_angle_gamma	90.210560
loop_
_atom_site_label
_atom_site_type_symbol
_atom_site_fract_x
_atom_site_fract_y
_atom_site_fract_z
Zn1	Zn	1.329192	-0.459304	0.406693
Zn2	Zn	1.829192	0.040696	0.906693
Zn3	Zn	1.330103	-0.601063	0.247598
Zn4	Zn	1.830103	-0.101063	0.747598
Zn5	Zn	1.187456	-0.442987	0.264991
Zn6	Zn	1.687456	0.057013	0.764991
Zn7	Zn	1.170078	-0.601012	0.407664
Zn8	Zn	1.670078	-0.101012	0.907664
O9	O	1.254207	-0.526091	0.331736
O10	O	1.754207	-0.026091	0.831736
O11	O	1.455601	-0.484958	0.377903
O12	O	1.955601	0.015042	0.877903
O13	O	1.318834	-0.573286	0.123614
O14	O	1.818834	-0.073286	0.623614
O15	O	1.213149	-0.319691	0.290660
O16	O	1.713149	0.180309	0.790660
O17	O	1.456270	-0.589108	0.261017
O18	O	1.956270	-0.089108	0.761017
O19	O	1.317282	-0.331678	0.394768
O20	O	1.817282	0.168322	0.894768
O21	O	1.214032	-0.457149	0.136393
O22	O	1.714032	0.042851	0.636393
O23	O	1.058863	-0.457100	0.291602
O24	O	1.558863	0.042900	0.791602
O25	O	1.183531	-0.589022	0.533826
O26	O	1.683531	-0.089022	1.033826
O27	O	1.046095	-0.573200	0.396424
O28	O	1.546095	-0.073200	0.896424
O29	O	1.300431	-0.484909	0.533112
O30	O	1.800431	0.015091	1.033112
O31	O	1.301983	-0.726517	0.261958
O32	O	1.801983	-0.226517	0.761958
O33	O	1.184414	-0.726480	0.379558
O34	O	1.684414	-0.226480	0.879558
C35	C	1.019734	-0.513374	0.346006
C36	C	1.519734	-0.013374	0.846006
C37	C	0.919423	-0.507957	0.352131
C38	C	1.419423	-0.007957	0.852131
C39	C	1.241435	-0.759031	0.318995
C40	C	1.741435	-0.259031	0.818995
C41	C	1.236052	-0.858690	0.313569
C42	C	1.736052	-0.358690	0.813569
C43	C	0.777676	-0.446202	0.421698
C44	C	1.277676	0.053798	0.921698
C45	C	0.871927	-0.451285	0.415948
C46	C	1.371927	0.048715	0.915948
C47	C	0.872660	-0.559552	0.294062
C48	C	1.372660	-0.059552	0.794062
C49	C	0.778409	-0.554469	0.299812
C50	C	1.278409	-0.054469	0.799812
C51	C	0.730920	-0.497791	0.363631
C52	C	1.230920	0.002209	0.863631
C53	C	0.636667	-0.492704	0.369376
C54	C	1.136667	0.007296	0.869376
C55	C	0.637401	-0.600976	0.247495
C56	C	1.137401	-0.100976	0.747495
C57	C	0.731653	-0.606058	0.241745
C58	C	1.231653	-0.106058	0.741745
C59	C	1.334275	-1.058294	0.411909
C60	C	1.834275	-0.558294	0.911909
C61	C	1.329220	-1.151933	0.406814
C62	C	1.829220	-0.651933	0.906814
C63	C	1.220882	-1.139607	0.298289
C64	C	1.720882	-0.639607	0.798289
C65	C	1.225937	-1.045969	0.303384
C66	C	1.725937	-0.545969	0.803384
C67	C	1.282636	-1.005316	0.360195
C68	C	1.782636	-0.505316	0.860195
C69	C	1.287696	-0.911675	0.365285
C70	C	1.787696	-0.411675	0.865285
C71	C	1.179354	-0.899352	0.256765
C72	C	1.679354	-0.399352	0.756765
C73	C	1.174299	-0.992990	0.251669
C74	C	1.674299	-0.492990	0.751669
C75	C	1.489596	-0.538859	0.317411
C76	C	1.989596	-0.038859	0.817411
C77	C	1.589904	-0.544299	0.311307
C78	C	2.089904	-0.044299	0.811307
C79	C	1.239941	-0.538780	0.567130
C80	C	1.739941	-0.038780	1.067130
C81	C	1.233861	-0.544187	0.667441
C82	C	1.733861	-0.044187	1.167441
C83	C	1.267052	-0.292244	0.344546
C84	C	1.767052	0.207756	0.844546
C85	C	1.272526	-0.192593	0.350005
C86	C	1.772526	0.307407	0.850005
C87	C	1.268473	-0.513390	0.097258
C88	C	1.768473	-0.013390	0.597258
C89	C	1.274741	-0.507740	-0.003049
C90	C	1.774741	-0.007740	0.496951
C91	C	1.344164	-0.445914	0.855196
C92	C	1.844164	0.054086	1.355196
C93	C	1.338455	-0.450991	0.949447
C94	C	1.838455	0.049009	1.449447
C95	C	1.216730	-0.559414	0.950197
C96	C	1.716730	-0.059414	1.450197
C97	C	1.222439	-0.554336	0.855946
C98	C	1.722439	-0.054336	1.355946
C99	C	1.286160	-0.497585	0.808449
C100	C	1.786160	0.002415	1.308449
C101	C	1.291872	-0.492513	0.714195
C102	C	1.791872	0.007487	1.214195
C103	C	1.170144	-0.600931	0.714947
C104	C	1.670144	-0.100931	1.214947
C105	C	1.164435	-0.606008	0.809198
C106	C	1.664435	-0.106008	1.309198
H107	H	0.598004	-0.446550	0.421337
H108	H	1.098004	0.053450	0.921337
H109	H	1.371264	-1.195065	0.448930
H110	H	1.871264	-0.695065	0.948930
O111	O	1.148004	-0.620611	1.001440
O112	O	1.648004	-0.120611	1.501440
H113	H	1.108620	-0.655686	0.953102
H114	H	1.608620	-0.155686	1.453102
H115	H	1.137310	-0.856206	0.214652
H116	H	1.637310	-0.356206	0.714652
O117	O	1.348855	-0.867825	0.426549
O118	O	1.848855	-0.367825	0.926549
H119	H	1.328053	-0.888749	0.497337
H120	H	1.828053	-0.388749	0.997337
H121	H	1.396052	-0.399710	0.816523
H122	H	1.896052	0.100290	1.316523
H123	H	1.343758	-0.446305	0.675524
H124	H	1.843758	0.053695	1.175524
O125	O	1.401021	-0.395266	0.999872
O126	O	1.901021	0.104734	1.499872
H127	H	1.446291	-0.354959	0.951006
H128	H	1.946291	0.145041	1.451006
O129	O	1.159745	-1.183461	0.237003
O130	O	1.659745	-0.683461	0.737003
H131	H	1.164917	-1.257474	0.242144
H132	H	1.664917	-0.757474	0.742144
O133	O	1.107552	-0.656661	0.664547
O134	O	1.607552	-0.156661	1.164547
H135	H	1.148022	-0.702159	0.616643
H136	H	1.648022	-0.202159	1.116643
H137	H	1.112554	-0.652211	0.847883
H138	H	1.612554	-0.152211	1.347883
O139	O	0.726444	-0.385069	0.490518
O140	O	1.226444	0.114931	0.990518
H141	H	0.739398	-0.405343	0.559376
H142	H	1.239398	0.094657	1.059376
O143	O	0.922362	-0.395634	0.478567
O144	O	1.422362	0.104366	0.978567
H145	H	0.873503	-0.355364	0.523902
H146	H	1.373503	0.144636	1.023902
H147	H	1.128134	-1.026103	0.205418
H148	H	1.628134	-0.526103	0.705418
H149	H	0.911341	-0.605699	0.242106
H150	H	1.411341	-0.105699	0.742106
H151	H	0.599322	-0.642985	0.200214
H152	H	1.099322	-0.142985	0.700214
O153	O	0.782879	-0.667177	0.172907
O154	O	1.282879	-0.167177	0.672907
H155	H	0.820895	-0.717343	0.208099
H156	H	1.320895	-0.217343	0.708099
O157	O	1.395432	-1.014436	0.473171
O158	O	1.895432	-0.514436	0.973171
H159	H	1.430492	-1.067008	0.508276
H160	H	1.930492	-0.567008	1.008276
