data_functionalizedCrystal
_audit_creation_method	'MofGen! by Chris Wilmer'
_symmetry_space_group_name_H-M	'P1'
_symmetry_Int_Tables_number	1
_symmetry_cell_setting	triclinic
loop_
_symmetry_equiv_pos_as_xyz
  x,y,z
_cell_length_a	19.077212
_cell_length_b	19.077068
_cell_length_c	21.395355
_cell_angle_alpha	92.279051
_cell_angle_beta	87.671116
_cell_angle_gamma	94.708021
loop_
_atom_site_label
_atom_site_type_symbol
_atom_site_fract_x
_atom_site_fract_y
_atom_site_fract_z
Zn1	Zn	1.066497	-0.237549	-0.400997
Zn2	Zn	1.061658	-0.355424	-0.300257
Zn3	Zn	0.948595	-0.242274	-0.292174
Zn4	Zn	0.943833	-0.360127	-0.400940
O5	O	1.005146	-0.298843	-0.348592
O6	O	1.164507	-0.249240	-0.391040
O7	O	1.046629	-0.340423	-0.211506
O8	O	0.968253	-0.142994	-0.303250
O9	O	1.160953	-0.335842	-0.317027
O10	O	1.054875	-0.139523	-0.383202
O11	O	0.963562	-0.257292	-0.205567
O12	O	0.849311	-0.261853	-0.303195
O13	O	0.960136	-0.343858	-0.488626
O14	O	0.845812	-0.348439	-0.383105
O15	O	1.050257	-0.253800	-0.488668
O16	O	1.042010	-0.454700	-0.316972
O17	O	0.955444	-0.458156	-0.390943
C18	C	0.821982	-0.306169	-0.342267
C19	C	0.743623	-0.309321	-0.339577
C20	C	0.302345	-0.331891	-0.320310
C21	C	0.375972	-0.328927	-0.322833
C22	C	0.414635	-0.282429	-0.362697
C23	C	0.379668	-0.238888	-0.400035
C24	C	0.306043	-0.241850	-0.397509
C25	C	0.635030	-0.268741	-0.374389
C26	C	0.708661	-0.265785	-0.376914
C27	C	0.704959	-0.355822	-0.299711
C28	C	0.631333	-0.358783	-0.297190
C29	C	0.596372	-0.315239	-0.334527
N30	N	0.489894	-0.279399	-0.365278
N31	N	0.521115	-0.318266	-0.331942
C32	C	0.997705	-0.482007	-0.354843
C33	C	0.994586	-0.560362	-0.357541
C34	C	1.038226	-0.595350	-0.320330
C35	C	1.035297	-0.668974	-0.322870
C36	C	0.988724	-0.707608	-0.362620
C37	C	0.945082	-0.672615	-0.399835
C38	C	0.948015	-0.598993	-0.397297
C39	C	0.975118	-0.927990	-0.374340
C40	C	0.972186	-1.001617	-0.376874
C41	C	1.062403	-0.997971	-0.299910
C42	C	1.065329	-0.924348	-0.297372
C43	C	1.021690	-0.889361	-0.334590
N44	N	0.985727	-0.782863	-0.365216
N45	N	1.024690	-0.814107	-0.331996
C46	C	1.189025	-0.291489	-0.354942
C47	C	1.267383	-0.288355	-0.357647
C48	C	1.005205	-0.298827	-0.512017
C49	C	1.005230	-0.298820	-0.581659
C50	C	1.012635	-0.114964	-0.342331
C51	C	1.015826	-0.036605	-0.339662
C52	C	1.052154	-0.251925	-0.614394
C53	C	1.052154	-0.251895	-0.679829
C54	C	1.005237	-0.298771	-0.712526
C55	C	0.958304	-0.345670	-0.679782
C56	C	0.958301	-0.345694	-0.614348
C57	C	0.997092	-0.362471	-0.818175
C58	C	0.997101	-0.362448	-0.883608
C59	C	1.005245	-0.298697	-0.914344
C60	C	1.013395	-0.234966	-0.879641
C61	C	1.013391	-0.234990	-0.814207
C62	C	1.005236	-0.298750	-0.783477
C63	C	1.052172	-0.251765	-1.018031
C64	C	1.052167	-0.251734	-1.083466
C65	C	0.958321	-0.345515	-1.083419
C66	C	0.958322	-0.345540	-1.017984
C67	C	1.005251	-0.298666	-0.985295
C68	C	1.005129	-0.298807	-0.185802
C69	C	1.005249	-0.298610	-0.116159
H70	H	0.270871	-0.369758	-0.287852
H71	H	1.020028	-0.183054	-0.904665
H72	H	0.934269	-1.033071	-0.409253
C73	C	1.110407	-1.036454	-0.258977
H74	H	1.138560	-1.002900	-0.234938
H75	H	1.139967	-1.063906	-0.285014
H76	H	1.082305	-1.066290	-0.231714
H77	H	0.939583	-0.899510	-0.404642
H78	H	0.277578	-0.206396	-0.427911
C79	C	0.596583	-0.220850	-0.415461
H80	H	0.630155	-0.192740	-0.439568
H81	H	0.569093	-0.191246	-0.389506
H82	H	0.566784	-0.249021	-0.442661
C83	C	1.103772	-0.200311	-0.715849
H84	H	1.097049	-0.207008	-0.759500
H85	H	1.150718	-0.208740	-0.707127
H86	H	1.095383	-0.153356	-0.703145
H87	H	0.404435	-0.364377	-0.292428
H88	H	0.907164	-0.704077	-0.432202
C89	C	1.103765	-0.200360	-0.578436
H90	H	1.097047	-0.207092	-0.534777
H91	H	1.095378	-0.153403	-0.587180
H92	H	1.150715	-0.208784	-0.591160
H93	H	1.090377	-0.213543	-1.110119
H94	H	0.599858	-0.396645	-0.264728
C95	C	1.103779	-0.200196	-0.982069
H96	H	1.131717	-0.172253	-1.010939
H97	H	1.133400	-0.225939	-0.958535
H98	H	1.078051	-0.170568	-0.954554
C99	C	0.900012	-0.560506	-0.438230
H100	H	0.871851	-0.594059	-0.462264
H101	H	0.928113	-0.530670	-0.465487
H102	H	0.870447	-0.533055	-0.412190
C103	C	0.743418	-0.403709	-0.258639
H104	H	0.792804	-0.395283	-0.265847
H105	H	0.729438	-0.451577	-0.268937
H106	H	0.731744	-0.393797	-0.215786
C107	C	1.022347	-0.164895	-0.776032
H108	H	1.021182	-0.174043	-0.732662
H109	H	0.985206	-0.136770	-0.784405
H110	H	1.066188	-0.140631	-0.787473
C111	C	1.116531	-0.881853	-0.253624
H112	H	1.112014	-0.832995	-0.257430
H113	H	1.163425	-0.891959	-0.264850
H114	H	1.105720	-0.894380	-0.211587
H115	H	0.920113	-0.383676	-1.110039
H116	H	0.920115	-0.383731	-0.991331
H117	H	0.990469	-0.414341	-0.911858
H118	H	0.990272	-0.414380	-0.793148
C119	C	0.906697	-0.397234	-0.715743
H120	H	0.878745	-0.425165	-0.686872
H121	H	0.932413	-0.426864	-0.743259
H122	H	0.877078	-0.371481	-0.739275
C123	C	0.751189	-0.214635	-0.420766
H124	H	0.719824	-0.189122	-0.442637
H125	H	0.778831	-0.240495	-0.449933
H126	H	0.781143	-0.182723	-0.396775
C127	C	0.422196	-0.187743	-0.443886
H128	H	0.471052	-0.192219	-0.440048
H129	H	0.412045	-0.140845	-0.432758
H130	H	0.409733	-0.198623	-0.485911
H131	H	0.920086	-0.383880	-0.587695
H132	H	1.076148	-0.563899	-0.287959
H133	H	1.070833	-0.697457	-0.292569
