data_functionalizedCrystal
_audit_creation_method	'MofGen! by Chris Wilmer'
_symmetry_space_group_name_H-M	'P1'
_symmetry_Int_Tables_number	1
_symmetry_cell_setting	triclinic
loop_
_symmetry_equiv_pos_as_xyz
  x,y,z
_cell_length_a	12.759401
_cell_length_b	12.645330
_cell_length_c	12.645323
_cell_angle_alpha	89.972994
_cell_angle_beta	89.979825
_cell_angle_gamma	90.014353
loop_
_atom_site_label
_atom_site_type_symbol
_atom_site_fract_x
_atom_site_fract_y
_atom_site_fract_z
Zn1	Zn	1.606279	-0.421983	-0.599360
Zn2	Zn	1.606177	-0.599271	-0.422093
Zn3	Zn	1.430578	-0.422027	-0.422112
Zn4	Zn	1.430576	-0.599210	-0.599316
O5	O	1.518402	-0.510623	-0.510720
O6	O	1.753286	-0.445507	-0.575855
O7	O	1.582842	-0.575803	-0.273748
O8	O	1.453929	-0.273674	-0.445650
O9	O	1.753211	-0.575760	-0.445618
O10	O	1.583015	-0.273641	-0.575874
O11	O	1.453830	-0.445583	-0.273762
O12	O	1.283557	-0.445524	-0.445608
O13	O	1.453924	-0.575656	-0.747670
O14	O	1.283555	-0.575699	-0.575800
O15	O	1.583013	-0.445448	-0.747701
O16	O	1.582839	-0.747610	-0.445576
O17	O	1.453826	-0.747565	-0.575781
C18	C	1.245435	-0.510610	-0.510702
C19	C	1.128658	-0.510631	-0.510719
C20	C	0.964116	-0.442926	-0.578650
C21	C	1.073840	-0.442924	-0.578639
C22	C	1.073747	-0.578353	-0.442814
C23	C	0.964025	-0.578360	-0.442831
C24	C	0.964171	-0.364734	-0.657064
C25	C	1.073895	-0.364731	-0.657053
C26	C	1.518350	-0.786052	-0.510695
C27	C	1.518423	-0.903882	-0.510720
C28	C	1.599455	-1.071430	-0.428642
C29	C	1.599719	-0.948870	-0.428843
C30	C	1.548452	-0.948264	-0.622464
C31	C	1.549095	-1.070862	-0.622028
C32	C	1.407330	-1.071213	-0.482156
C33	C	1.407863	-0.948609	-0.479650
C34	C	1.792436	-0.510635	-0.510740
C35	C	1.909212	-0.510641	-0.510748
C36	C	1.518480	-0.510541	-0.787226
C37	C	1.518513	-0.510506	-0.905056
C38	C	1.518484	-0.234117	-0.510769
C39	C	1.518518	-0.116287	-0.510789
C40	C	1.437053	-0.592033	-1.072600
C41	C	1.437266	-0.592437	-0.950040
C42	C	1.629216	-0.540821	-0.949570
C43	C	1.628769	-0.541332	-1.072168
C44	C	1.490316	-0.398207	-1.072259
C45	C	1.487846	-0.398880	-0.949653
C46	C	1.518386	-0.510628	-0.235291
C47	C	1.518556	-0.510364	-0.117461
H48	H	0.934433	-0.386824	-0.739136
C49	C	1.662106	-0.650423	-0.908121
H50	H	1.608530	-0.677854	-0.863701
H51	H	1.725325	-0.644127	-0.868970
H52	H	1.672732	-0.696916	-0.966131
C53	C	1.134039	-0.652841	-0.368111
H54	H	1.085622	-0.693176	-0.327680
H55	H	1.176833	-0.612237	-0.321984
H56	H	1.176845	-0.699082	-0.408592
H57	H	1.549679	-0.337360	-1.101273
H58	H	1.410996	-0.370573	-1.103168
H59	H	0.930138	-0.286709	-0.627796
H60	H	1.344305	-0.917996	-0.535095
C61	C	1.574352	-0.908333	-0.316911
H62	H	1.563795	-0.966794	-0.270906
H63	H	1.512562	-0.866499	-0.319067
H64	H	1.631069	-0.866714	-0.291694
H65	H	1.691571	-0.483218	-0.920434
C66	C	1.461983	-0.703660	-1.114220
H67	H	1.412370	-0.752514	-1.086741
H68	H	1.530404	-0.723578	-1.092339
H69	H	1.458537	-0.703753	-1.189265
H70	H	1.107959	-0.394235	-0.734992
H71	H	1.380023	-1.102223	-0.402092
H72	H	1.103679	-0.282600	-0.635190
H73	H	1.580902	-1.100984	-0.345543
H74	H	1.347025	-1.100223	-0.541987
C75	C	1.326376	-0.566798	-0.909375
H76	H	1.280789	-0.556047	-0.967783
H77	H	1.328608	-0.504496	-0.867492
H78	H	1.301307	-0.624048	-0.867777
H79	H	1.385220	-0.919613	-0.397416
H80	H	1.681367	-1.102158	-0.447368
H81	H	1.455910	-0.675584	-0.920722
H82	H	1.682073	-0.919459	-0.447781
C83	C	1.658889	-1.109382	-0.654779
H84	H	1.702681	-1.050105	-0.668219
H85	H	1.653558	-1.151179	-0.716946
H86	H	1.688174	-1.150612	-0.599359
H87	H	1.492727	-1.100531	-0.685343
C88	C	1.471251	-0.908889	-0.707369
H89	H	1.419899	-0.864924	-0.675347
H90	H	1.437909	-0.967753	-0.739694
H91	H	1.508320	-0.869677	-0.759441
C92	C	1.325823	-0.566653	-1.112409
H93	H	1.328089	-0.506027	-1.156753
H94	H	1.281288	-0.553130	-1.053742
H95	H	1.299474	-0.625143	-1.151319
H96	H	1.628808	-0.917473	-0.647122
H97	H	1.652706	-0.623321	-1.100775
C98	C	1.713600	-0.464485	-1.112267
H99	H	1.748188	-0.433098	-1.053627
H100	H	1.681872	-0.410848	-1.154000
H101	H	1.763094	-0.502115	-1.153896
H102	H	1.406378	-0.376018	-0.920558
H103	H	1.542872	-0.334815	-0.919032
H104	H	0.919326	-0.633509	-0.387548
