data_functionalizedCrystal
_audit_creation_method	'MofGen! by Chris Wilmer'
_symmetry_space_group_name_H-M	'P1'
_symmetry_Int_Tables_number	1
_symmetry_cell_setting	triclinic
loop_
_symmetry_equiv_pos_as_xyz
  x,y,z
_cell_length_a	14.044220
_cell_length_b	14.519709
_cell_length_c	13.101018
_cell_angle_alpha	93.379581
_cell_angle_beta	93.666689
_cell_angle_gamma	91.565489
loop_
_atom_site_label
_atom_site_type_symbol
_atom_site_fract_x
_atom_site_fract_y
_atom_site_fract_z
O1	O	1.252875	-0.227025	-0.085111
O2	O	0.976891	-0.219003	-0.085137
O3	O	1.122201	-0.089365	-0.085114
O4	O	1.107565	-0.356663	-0.085134
O5	O	1.132618	-0.080034	0.085318
O6	O	0.987308	-0.209671	0.085295
O7	O	1.263292	-0.217694	0.085321
Zn8	Zn	1.126954	-0.212201	0.112368
Zn9	Zn	1.113229	-0.224496	-0.112184
O10	O	1.117982	-0.347332	0.085298
C11	C	0.946779	-0.210825	0.000076
C12	C	0.841535	-0.200348	0.000066
C13	C	0.648842	-0.181193	0.000088
C14	C	0.591335	-0.255501	0.000087
C15	C	0.484114	-0.244842	0.000099
C16	C	0.756073	-0.191850	0.000076
C17	C	1.126727	-0.050285	0.000102
C18	C	1.124684	0.052261	0.000102
C19	C	1.293404	-0.225872	0.000106
C20	C	1.398648	-0.236349	0.000108
C21	C	1.113456	-0.386412	0.000080
C22	C	1.115499	-0.488959	0.000072
N23	N	1.103863	-0.232879	-0.265434
C24	C	1.117158	0.427762	0.000075
C25	C	1.119248	0.323286	0.000083
C26	C	1.120921	0.240015	0.000090
C27	C	1.123011	0.135532	0.000096
C28	C	1.149075	-0.192409	-0.525337
C29	C	1.091119	-0.244278	-0.474473
C30	C	1.098212	-0.237934	-0.358153
C31	C	1.141983	-0.198752	-0.641667
N32	N	1.136328	-0.203811	0.265618
H33	H	0.622627	-0.327123	0.000076
C34	C	0.606575	-0.084445	0.000089
H35	H	0.539009	-0.089885	0.000085
H36	H	0.630951	-0.048621	0.059517
H37	H	0.623669	-0.055148	-0.059357
H38	H	1.036175	-0.293448	-0.518287
C39	C	1.223286	-0.125980	-0.466156
H40	H	1.218367	-0.130372	-0.394608
H41	H	1.285557	-0.142048	-0.483665
H42	H	1.211700	-0.064529	-0.483666
