data_functionalizedCrystal
_audit_creation_method	'MofGen! by Chris Wilmer'
_symmetry_space_group_name_H-M	'P1'
_symmetry_Int_Tables_number	1
_symmetry_cell_setting	triclinic
loop_
_symmetry_equiv_pos_as_xyz
  x,y,z
_cell_length_a	16.109301
_cell_length_b	8.559649
_cell_length_c	15.186229
_cell_angle_alpha	89.998040
_cell_angle_beta	89.999362
_cell_angle_gamma	76.620073
loop_
_atom_site_label
_atom_site_type_symbol
_atom_site_fract_x
_atom_site_fract_y
_atom_site_fract_z
O1	O	1.090045	0.205389	-0.073169
O2	O	0.846355	0.230949	-0.073183
O3	O	0.989670	-0.014444	-0.073174
O4	O	0.946731	0.450782	-0.073178
O5	O	0.989661	-0.014447	0.073283
O6	O	0.846347	0.230946	0.073274
O7	O	1.090037	0.205386	0.073288
Zn8	Zn	0.968191	0.218165	0.096534
Zn9	Zn	0.968202	0.218170	-0.096429
O10	O	0.946723	0.450779	0.073279
C11	C	0.815442	0.229912	0.000044
C12	C	0.723344	0.226808	0.000039
C13	C	0.492255	0.365202	0.000048
C14	C	0.405721	0.362273	0.000053
C15	C	0.444145	0.071122	0.000052
C16	C	0.530677	0.074053	0.000053
C17	C	0.554729	0.221098	0.000046
C18	C	0.381663	0.215238	0.000051
C19	C	0.287840	0.212061	0.000057
C20	C	0.648558	0.224275	0.000042
C21	C	0.992919	-0.073977	0.000053
C22	C	1.002605	-0.251362	0.000049
C23	C	1.120950	0.206423	0.000059
C24	C	1.213048	0.209527	0.000059
C25	C	0.943473	0.510312	0.000050
C26	C	0.933787	0.687697	0.000049
N27	N	0.968189	0.218161	0.228227
N28	N	0.968210	0.218161	-0.228122
C29	C	1.031666	0.109538	0.453954
C30	C	1.031669	0.109534	0.546144
C31	C	0.904727	0.326790	0.546145
C32	C	0.904722	0.326785	0.453957
C33	C	0.968196	0.218161	0.407864
C34	C	0.968204	0.218162	0.592241
C35	C	0.968207	0.218159	0.692198
C36	C	0.968192	0.218161	0.307901
H37	H	0.511835	0.484935	0.000049
H38	H	1.083349	0.021087	0.416427
H39	H	0.867458	-0.228771	0.000048
C40	C	1.101485	-0.009973	0.596839
N41	N	1.154072	-0.099997	0.635021
C42	C	0.834909	0.446267	0.596856
N43	N	0.782319	0.536260	0.635050
C44	C	0.417678	-0.090619	0.000052
N45	N	0.397744	-0.212445	0.000048
C46	C	0.337002	0.520800	0.000059
N47	N	0.285243	0.640210	0.000066
C48	C	0.599403	-0.084482	0.000052
N49	N	0.651168	-0.203885	0.000053
C50	C	1.092220	-0.364216	0.000059
N51	N	1.159716	-0.449218	0.000065
H52	H	0.853032	0.415239	0.416428
