data_functionalizedCrystal
_audit_creation_method	'MofGen! by Chris Wilmer'
_symmetry_space_group_name_H-M	'P1'
_symmetry_Int_Tables_number	1
_symmetry_cell_setting	triclinic
loop_
_symmetry_equiv_pos_as_xyz
  x,y,z
_cell_length_a	19.288867
_cell_length_b	15.995350
_cell_length_c	17.766277
_cell_angle_alpha	89.995869
_cell_angle_beta	89.992126
_cell_angle_gamma	83.314722
loop_
_atom_site_label
_atom_site_type_symbol
_atom_site_fract_x
_atom_site_fract_y
_atom_site_fract_z
O1	O	0.921623	0.104460	-0.062564
O2	O	1.421623	0.604460	0.437436
O3	O	0.719399	0.118548	-0.062571
O4	O	1.219399	0.618548	0.437429
O5	O	0.826039	-0.010405	-0.062567
O6	O	1.326039	0.489595	0.437433
O7	O	0.814983	0.233412	-0.062568
O8	O	1.314983	0.733412	0.437432
O9	O	0.826020	-0.010411	0.062622
O10	O	1.326020	0.489589	0.562622
O11	O	0.719381	0.118542	0.062618
O12	O	1.219381	0.618542	0.562618
O13	O	0.921605	0.104453	0.062624
O14	O	1.421605	0.604453	0.562624
Cu15	Cu	0.820491	0.111497	0.074052
Cu16	Cu	1.320491	0.611497	0.574052
Cu17	Cu	0.820513	0.111504	-0.073998
Cu18	Cu	1.320513	0.611504	0.426002
O19	O	0.814965	0.233406	0.062620
O20	O	1.314965	0.733406	0.562620
C21	C	0.693512	0.118091	0.000022
C22	C	1.193512	0.618091	0.500022
C23	C	0.616405	0.116730	0.000020
C24	C	1.116405	0.616730	0.500020
C25	C	0.060825	0.106925	-0.068212
C26	C	0.560825	0.606925	0.431788
C27	C	0.133276	0.108200	-0.068215
C28	C	0.633276	0.608200	0.431785
C29	C	0.169496	0.108837	0.000025
C30	C	0.669496	0.608837	0.500025
C31	C	0.133261	0.108179	0.068273
C32	C	0.633261	0.608179	0.568273
C33	C	0.060813	0.106896	0.068274
C34	C	0.560813	0.606896	0.568274
C35	C	0.278948	0.159907	0.052306
C36	C	0.778948	0.659907	0.552306
C37	C	0.351394	0.161195	0.052302
C38	C	0.851394	0.661195	0.552302
C39	C	0.392952	0.112790	0.000026
C40	C	0.892952	0.612790	0.500026
C41	C	0.362052	0.063108	-0.052260
C42	C	0.862052	0.563108	0.447740
C43	C	0.289603	0.061825	-0.052259
C44	C	0.789603	0.561825	0.447741
C45	C	0.248054	0.110228	0.000032
C46	C	0.748054	0.610228	0.500032
C47	C	0.507737	0.114824	-0.068221
C48	C	1.007737	0.614824	0.431779
C49	C	0.580190	0.116093	-0.068221
C50	C	1.080190	0.616093	0.431779
C51	C	0.580173	0.116081	0.068269
C52	C	1.080173	0.616081	0.568269
C53	C	0.507723	0.114803	0.068267
C54	C	1.007723	0.614803	0.568267
C55	C	0.471509	0.114179	0.000020
C56	C	0.971509	0.614179	0.500020
C57	C	0.825573	-0.041601	0.000026
C58	C	1.325573	0.458399	0.500026
C59	C	0.824203	-0.134546	0.000022
C60	C	1.324203	0.365454	0.500022
C61	C	0.819281	-0.472275	0.000024
C62	C	1.319281	0.027725	0.500024
C63	C	0.743335	-0.424555	-0.000259
C64	C	1.243335	0.075445	0.499741
C65	C	0.744705	-0.327870	0.000023
C66	C	1.244705	0.172130	0.500023
C67	C	0.821722	-0.304724	0.000023
C68	C	1.321722	0.195276	0.500023
C69	C	0.859171	-0.345946	0.071511
C70	C	1.359171	0.154054	0.571511
C71	C	0.857264	-0.442575	0.071571
C72	C	1.357264	0.057425	0.571571
C73	C	0.858854	-0.442931	-0.070792
C74	C	1.358854	0.057069	0.429208
C75	C	0.858836	-0.345986	-0.071736
C76	C	1.358836	0.154014	0.428264
C77	C	0.823106	-0.210032	0.000024
C78	C	1.323106	0.289968	0.500024
C79	C	0.817900	-0.566968	0.000028
C80	C	1.317900	-0.066968	0.500028
C81	C	0.947491	0.104910	0.000029
C82	C	1.447491	0.604910	0.500029
C83	C	1.024599	0.106272	0.000027
C84	C	1.524599	0.606272	0.500027
C85	C	0.815431	0.264602	0.000026
C86	C	1.315431	0.764602	0.500026
C87	C	0.816801	0.357547	0.000025
C88	C	1.316801	0.857547	0.500025
N89	N	0.820480	0.111491	0.178182
N90	N	1.320480	0.611491	0.678182
N91	N	0.820529	0.111504	-0.178129
N92	N	1.320529	0.611504	0.321871
C93	C	0.867716	0.054418	0.217571
C94	C	1.367716	0.554418	0.717571
C95	C	0.867720	0.054414	0.296373
C96	C	1.367720	0.554414	0.796373
C97	C	0.820495	0.111497	0.335783
C98	C	1.320495	0.611497	0.835783
C99	C	0.773251	0.168574	0.296384
C100	C	1.273251	0.668574	0.796384
C101	C	0.773243	0.168571	0.217584
C102	C	1.273243	0.668571	0.717584
C103	C	0.811394	0.187788	0.460620
C104	C	1.311394	0.687788	0.960620
C105	C	0.811406	0.187792	0.539419
C106	C	1.311406	0.687792	1.039419
C107	C	0.820514	0.111507	0.578829
C108	C	1.320514	0.611507	1.078829
C109	C	0.829623	0.035215	0.539431
C110	C	1.329623	0.535215	1.039431
C111	C	0.829616	0.035211	0.460630
C112	C	1.329616	0.535211	0.960630
C113	C	0.820497	0.111507	0.421228
C114	C	1.320497	0.611507	0.921228
C115	C	0.867756	0.054426	0.703664
C116	C	1.367756	0.554426	1.203664
C117	C	0.867755	0.054421	0.782467
C118	C	1.367755	0.554421	1.282467
C119	C	0.773289	0.168588	0.782477
C120	C	1.273289	0.668588	1.282477
C121	C	0.773287	0.168586	0.703675
C122	C	1.273287	0.668586	1.203675
C123	C	0.820524	0.111506	0.664273
C124	C	1.320524	0.611506	1.164273
H125	H	0.609663	0.116597	0.123831
H126	H	1.109663	0.616597	0.623831
Cl127	Cl	0.462177	0.113995	0.154058
Cl128	Cl	0.962177	0.613995	0.654058
Cl129	Cl	0.841078	-0.060693	0.588966
Cl130	Cl	1.341078	0.439307	1.088966
Cl131	Cl	0.015303	0.106133	-0.154008
Cl132	Cl	0.515303	0.606133	0.345992
H133	H	0.609685	0.116619	-0.123792
H134	H	1.109685	0.616619	0.376208
H135	H	0.376545	0.201669	0.094860
H136	H	0.876545	0.701669	0.594860
H137	H	0.829940	-0.460776	0.125010
H138	H	1.329940	0.039224	0.625010
H139	H	0.833146	-0.317469	0.124711
H140	H	1.333146	0.182531	0.624711
Cl141	Cl	0.927135	-0.017335	0.654128
Cl142	Cl	1.427135	0.482665	1.154128
Cl143	Cl	0.462209	0.114033	-0.154015
Cl144	Cl	0.962209	0.614033	0.345985
H145	H	0.913022	-0.475033	0.074814
H146	H	1.413022	0.024967	0.574814
H147	H	0.734835	0.215063	0.814564
H148	H	1.234835	0.715063	1.314564
Cl149	Cl	0.226712	0.220755	0.118039
Cl150	Cl	0.726712	0.720755	0.618039
H151	H	0.906218	0.007942	0.814538
H152	H	1.406218	0.507942	1.314538
Cl153	Cl	0.178794	0.108977	0.154061
Cl154	Cl	0.678794	0.608977	0.654061
H155	H	0.803993	0.249914	0.571491
H156	H	1.303993	0.749914	1.071491
Cl157	Cl	0.699254	-0.283810	-0.079096
Cl158	Cl	1.199254	0.216190	0.420904
H159	H	0.734826	0.215063	0.671603
H160	H	1.234826	0.715063	1.171603
H161	H	0.713106	-0.444038	0.050719
H162	H	1.213106	0.055962	0.550719
Cl163	Cl	0.800009	0.283701	0.411084
Cl164	Cl	1.300009	0.783701	0.911084
H165	H	0.715054	-0.299897	0.051354
H166	H	1.215054	0.200103	0.551354
Cl167	Cl	0.820523	-0.474481	-0.154449
Cl168	Cl	1.320523	0.025519	0.345551
H169	H	0.734798	0.215051	0.328476
H170	H	1.234798	0.715051	0.828476
H171	H	0.831456	-0.318631	-0.124622
H172	H	1.331456	0.181369	0.375378
Cl173	Cl	0.178827	0.109024	-0.154007
Cl174	Cl	0.678827	0.609024	0.345993
Cl175	Cl	0.015268	0.106078	0.154068
Cl176	Cl	0.515268	0.606078	0.654068
Cl177	Cl	0.696476	-0.452984	-0.079411
Cl178	Cl	1.196476	0.047016	0.420589
Cl179	Cl	0.713858	0.240326	0.168063
Cl180	Cl	1.213858	0.740326	0.668063
Cl181	Cl	0.945551	-0.322591	-0.078407
Cl182	Cl	1.445551	0.177409	0.421593
Cl183	Cl	0.945305	-0.492294	-0.071537
Cl184	Cl	1.445305	0.007706	0.428463
Cl185	Cl	0.250761	-0.000633	-0.117983
Cl186	Cl	0.750761	0.499367	0.382017
Cl187	Cl	0.927094	-0.017342	0.168037
Cl188	Cl	1.427094	0.482658	0.668037
H189	H	0.395886	0.023695	-0.094831
H190	H	0.895886	0.523695	0.405169
H191	H	0.837032	-0.026909	0.428555
H192	H	1.337032	0.473091	0.928555
Cl193	Cl	0.946531	-0.324468	0.075620
Cl194	Cl	1.446531	0.175532	0.575620
Cl195	Cl	0.927108	-0.017339	0.345898
Cl196	Cl	1.427108	0.482661	0.845898
