data_functionalizedCrystal
_audit_creation_method	'MofGen! by Chris Wilmer'
_symmetry_space_group_name_H-M	'P1'
_symmetry_Int_Tables_number	1
_symmetry_cell_setting	triclinic
loop_
_symmetry_equiv_pos_as_xyz
  x,y,z
_cell_length_a	16.959454
_cell_length_b	12.759401
_cell_length_c	12.759393
_cell_angle_alpha	90.022497
_cell_angle_beta	89.970360
_cell_angle_gamma	89.979103
loop_
_atom_site_label
_atom_site_type_symbol
_atom_site_fract_x
_atom_site_fract_y
_atom_site_fract_z
Zn1	Zn	-0.314626	-1.606227	-0.594070
Zn2	Zn	-0.446825	-1.606102	-0.418393
Zn3	Zn	-0.314666	-1.430526	-0.418400
Zn4	Zn	-0.446768	-1.430501	-0.594025
O5	O	-0.380721	-1.518339	-0.506222
O6	O	-0.332169	-1.753232	-0.570782
O7	O	-0.429335	-1.582769	-0.271373
O8	O	-0.204050	-1.453896	-0.441725
O9	O	-0.429295	-1.753139	-0.441712
O10	O	-0.204020	-1.582983	-0.570789
O11	O	-0.332238	-1.453774	-0.271378
O12	O	-0.332183	-1.283502	-0.441682
O13	O	-0.429199	-1.453854	-0.741052
O14	O	-0.429238	-1.283484	-0.570713
O15	O	-0.332114	-1.582959	-0.741085
O16	O	-0.557428	-1.582745	-0.441669
O17	O	-0.557387	-1.453732	-0.570705
C18	C	-0.380709	-1.245372	-0.506194
C19	C	-0.380723	-1.128595	-0.506207
C20	C	-0.586088	-1.518251	-0.506204
C21	C	-0.673944	-1.518309	-0.506232
C22	C	-0.431336	-1.073751	-0.573286
C23	C	-0.431338	-0.964027	-0.573304
C24	C	-0.330112	-0.964000	-0.439154
C25	C	-0.330107	-1.073722	-0.439142
C26	C	-1.045428	-1.451259	-0.573404
C27	C	-1.045412	-1.585711	-0.439147
C28	C	-0.962866	-1.585675	-0.439137
C29	C	-0.921597	-1.518428	-0.506261
C30	C	-0.962874	-1.451218	-0.573394
C31	C	-0.921582	-1.652875	-0.371998
C32	C	-0.839031	-1.652841	-0.371985
C33	C	-0.797761	-1.585599	-0.439114
C34	C	-0.839044	-1.518387	-0.506251
C35	C	-0.797775	-1.451141	-0.573375
C36	C	-0.839056	-1.383934	-0.640518
C37	C	-0.921604	-1.383977	-0.640524
C38	C	-0.715213	-1.585556	-0.439108
C39	C	-0.715222	-1.451100	-0.573365
C40	C	-0.174553	-1.518456	-0.506263
C41	C	-0.086697	-1.518506	-0.506281
C42	C	-0.380646	-1.518418	-0.780256
C43	C	-0.380613	-1.518451	-0.897032
C44	C	-0.380732	-0.792372	-0.506244
C45	C	-0.380730	-0.909149	-0.506236
C46	C	-0.330053	-1.585681	-0.951913
C47	C	-0.330019	-1.585699	-1.061637
C48	C	-0.431112	-1.451254	-1.061590
C49	C	-0.431141	-1.451232	-0.951868
C50	C	-0.380740	-1.518321	-0.233255
C51	C	-0.380550	-1.518491	-0.116479
H52	H	-0.472549	-1.118425	-0.627896
F53	F	-0.276247	-0.905592	-0.367782
H54	H	-1.079043	-1.396544	-0.628073
F55	F	-0.276212	-1.657261	-1.120041
H56	H	-0.955223	-1.329259	-0.695187
H57	H	-0.805425	-1.707565	-0.317315
H58	H	-0.472313	-1.396477	-0.907183
H59	H	-0.681606	-1.640270	-0.384436
H60	H	-0.955189	-1.707616	-0.317342
H61	H	-0.805446	-1.329176	-0.695166
H62	H	-0.472252	-1.396528	-1.106251
F63	F	-0.276231	-1.132095	-0.367749
H64	H	-0.288908	-1.640413	-0.907269
F65	F	-1.089334	-1.657275	-0.367713
F66	F	-0.485205	-0.905663	-0.644700
F67	F	-0.671307	-1.379530	-0.644814
