data_functionalizedCrystal
_audit_creation_method	'MofGen! by Chris Wilmer'
_symmetry_space_group_name_H-M	'P1'
_symmetry_Int_Tables_number	1
_symmetry_cell_setting	triclinic
loop_
_symmetry_equiv_pos_as_xyz
  x,y,z
_cell_length_a	18.760487
_cell_length_b	23.196402
_cell_length_c	18.760492
_cell_angle_alpha	59.998825
_cell_angle_beta	90.032780
_cell_angle_gamma	60.024681
loop_
_atom_site_label
_atom_site_type_symbol
_atom_site_fract_x
_atom_site_fract_y
_atom_site_fract_z
Zr1	Zr	0.686766	0.630976	-0.093090
O2	O	0.572969	0.751237	-0.206971
O3	O	0.721640	0.510714	-0.058184
O4	O	0.721662	0.630975	-0.206885
O5	O	0.572943	0.630976	0.059033
O6	O	0.838964	0.630975	-0.206813
O7	O	0.572948	0.630976	-0.058270
O8	O	0.838926	0.415850	0.059187
O9	O	0.572981	0.846101	-0.206967
O10	O	0.824068	0.560179	-0.043238
O11	O	0.736522	0.560180	0.044250
O12	O	0.736548	0.701771	-0.130827
O13	O	0.649002	0.701772	-0.043339
Zr14	Zr	0.873842	0.630976	0.094109
Zr15	Zr	0.873850	0.630975	-0.092975
Zr16	Zr	0.686758	0.630976	0.093994
Zr17	Zr	0.686785	0.782273	-0.093083
Zr18	Zr	0.873823	0.479678	0.094102
O19	O	0.838968	0.751237	0.059202
O20	O	0.838979	0.751236	-0.206807
O21	O	0.572958	0.751237	0.059039
O22	O	0.987639	0.510714	0.207990
O23	O	0.987650	0.510714	-0.058020
O24	O	0.721629	0.510715	0.207826
O25	O	0.987665	0.630975	-0.058014
O26	O	0.838947	0.630976	0.207904
O27	O	0.721644	0.630976	0.207832
O28	O	0.987660	0.630975	0.059288
O29	O	0.721688	0.846101	-0.206875
O30	O	0.838920	0.415850	0.207894
O31	O	0.987627	0.415850	0.207985
O32	O	0.987633	0.415850	0.059278
O33	O	0.572975	0.846101	-0.058260
O34	O	0.721682	0.846101	-0.058168
O35	O	0.824060	0.560180	0.131845
O36	O	0.911606	0.560179	0.044358
O37	O	0.824086	0.701771	-0.043231
O38	O	0.736540	0.701772	0.044256
C39	C	0.780280	0.441726	0.000501
C40	C	0.780272	0.377496	0.000498
C41	C	0.844893	0.295068	0.065154
C42	C	0.844899	0.234707	0.065162
C43	C	0.780291	0.256780	0.000500
C44	C	0.715658	0.339223	-0.064162
C45	C	0.715649	0.399581	-0.064164
C46	C	0.760173	0.201193	-0.078387
C47	C	0.760188	0.140834	-0.078386
C48	C	0.780314	0.070618	0.000504
C49	C	0.800444	0.060760	0.079398
C50	C	0.800435	0.121118	0.079397
C51	C	0.780293	0.191338	0.000495
C52	C	0.844946	-0.077263	0.065175
C53	C	0.844946	-0.137623	0.065183
C54	C	0.715708	-0.033104	-0.064149
C55	C	0.715705	0.027252	-0.064150
C56	C	0.780328	0.005168	0.000511
C57	C	0.546290	0.630976	0.000365
C58	C	0.466867	0.630976	0.000316
C59	C	0.085366	0.704888	-0.045059
C60	C	0.176743	0.557063	0.046385
C61	C	0.251365	0.557062	0.046310
C62	C	0.242990	0.630975	0.000549
C63	C	0.159993	0.704889	-0.045138
C64	C	0.334367	0.483149	0.091988
C65	C	0.408995	0.483145	0.091914
C66	C	0.400621	0.557059	0.046157
C67	C	0.317618	0.630976	0.000470
C68	C	0.309243	0.704889	-0.045291
C69	C	0.226240	0.778807	-0.090974
C70	C	0.151619	0.778803	-0.090895
C71	C	0.475242	0.557063	0.046078
C72	C	0.383870	0.704890	-0.045370
C73	C	1.014318	0.630975	0.000653
C74	C	1.093741	0.630975	0.000702
C75	C	0.780314	0.630975	-0.233505
C76	C	0.780318	0.630975	-0.312927
C77	C	0.780328	0.820225	0.000518
C78	C	0.780336	0.884455	0.000521
C79	C	0.825980	0.557063	-0.603020
C80	C	0.734607	0.704888	-0.694460
C81	C	0.734612	0.704889	-0.619840
C82	C	0.780301	0.630976	-0.536805
C83	C	0.825985	0.557062	-0.528391
C84	C	0.688923	0.778802	-0.628247
C85	C	0.688926	0.778806	-0.553624
C86	C	0.734621	0.704892	-0.470587
C87	C	0.780307	0.630975	-0.462176
C88	C	0.825996	0.557062	-0.379142
C89	C	0.871687	0.483144	-0.370729
C90	C	0.871679	0.483148	-0.445355
C91	C	0.734628	0.704888	-0.395961
C92	C	0.826001	0.557061	-0.304513
C93	C	0.780294	0.630976	0.234523
C94	C	0.780290	0.630976	0.313945
C95	C	1.014295	0.441725	0.000644
C96	C	1.093709	0.377496	0.000690
C97	C	0.780270	0.441726	0.234514
C98	C	0.780259	0.377496	0.313934
C99	C	1.014285	0.441726	0.234658
C100	C	1.093695	0.377496	0.314126
C101	C	0.546323	0.820225	-0.233640
C102	C	0.466913	0.884455	-0.313108
C103	C	0.546313	0.820226	0.000374
C104	C	0.466899	0.884455	0.000328
C105	C	0.780338	0.820225	-0.233496
C106	C	0.780349	0.884455	-0.312915
C107	C	1.085309	0.347333	-0.045020
C108	C	1.159920	0.286990	-0.044994
C109	C	1.242930	0.256808	0.000747
C110	C	1.251329	0.286977	0.046459
C111	C	1.176718	0.347322	0.046428
C112	C	0.825947	0.347334	0.396962
C113	C	0.825933	0.286991	0.471591
C114	C	0.780235	0.256809	0.463192
C115	C	0.734541	0.286978	0.380155
C116	C	0.734551	0.347323	0.305527
C117	C	1.176693	0.347333	0.305778
C118	C	1.251316	0.286991	0.380439
C119	C	1.242938	0.256809	0.463449
C120	C	1.159931	0.286978	0.471796
C121	C	1.085311	0.347323	0.397135
C122	C	0.383915	0.914625	-0.304759
C123	C	0.309293	0.974986	-0.379421
C124	C	0.317670	1.005172	-0.462430
C125	C	0.400677	0.974999	-0.470777
C126	C	0.475297	0.914643	-0.396116
C127	C	0.475299	0.914625	0.046031
C128	C	0.400688	0.974984	0.045984
C129	C	0.317678	1.005168	0.000240
C130	C	0.309279	0.974996	-0.045468
C131	C	0.383890	0.914643	-0.045426
C132	C	0.826056	0.914618	-0.304487
C133	C	0.826084	0.974960	-0.379103
C134	C	0.780399	1.005143	-0.462145
C135	C	0.734691	0.974974	-0.470572
C136	C	0.734669	0.914628	-0.395957
H137	H	0.897523	0.167581	0.117816
H138	H	0.377038	0.890080	-0.082640
H139	H	1.017724	0.371907	-0.082279
H140	H	0.863258	0.890053	-0.236876
H141	H	0.377077	0.890052	-0.237175
H142	H	0.863304	0.999517	-0.372225
F143	F	0.920305	0.404484	-0.282351
H144	H	1.303675	0.207670	0.000766
F145	F	0.563628	0.882535	-0.405015
H146	H	0.697495	0.999558	-0.538195
F147	F	0.821884	-0.013975	0.163367
F148	F	0.238244	1.069408	-0.541884
F149	F	0.780429	1.069370	-0.541550
H150	H	0.697405	0.765064	-0.762069
F151	F	0.874592	0.379442	0.405921
F152	F	1.339682	0.254844	0.095140
H153	H	0.697348	0.371874	0.237925
F154	F	0.063282	0.857464	-0.139510
H155	H	0.651722	0.838994	-0.560483
F156	F	0.220959	1.007085	-0.370519
H157	H	1.183570	0.371873	0.083656
H158	H	0.183555	0.496887	0.083639
H159	H	0.697420	0.765071	-0.402814
H160	H	0.542819	0.496880	0.083280
H161	H	0.863146	0.262435	0.539196
H162	H	0.407488	0.999584	-0.538372
F163	F	0.409645	1.007081	0.094638
F164	F	0.913667	0.271559	0.133978
F165	F	0.821857	0.110625	0.163359
H166	H	1.153065	0.262434	-0.082218
F167	F	1.151028	0.254847	0.560148
H168	H	0.863183	0.496881	-0.596175
F169	F	0.563638	0.882513	0.094719
H170	H	1.318896	0.262433	0.373627
F171	F	0.238278	1.069402	0.000205
F172	F	0.920297	0.404487	-0.436410
F173	F	1.185629	0.379448	0.217440
H174	H	0.863210	0.496871	-0.236905
H175	H	0.241682	0.999582	-0.082711
F176	F	0.996980	0.379414	0.406034
H177	H	0.651723	0.838977	-0.695857
F178	F	0.686011	0.882539	-0.404940
H179	H	0.897562	-0.095247	0.117829
H180	H	0.897567	-0.204743	0.117840
F181	F	0.685910	0.254847	0.371229
F182	F	0.780234	0.192583	0.542626
H183	H	0.663102	-0.015131	-0.116797
H184	H	0.663087	0.094372	-0.116805
F185	F	0.738765	0.151332	-0.162352
H186	H	0.663053	0.357191	-0.116810
F187	F	0.738749	0.275921	-0.162359
F188	F	0.374947	0.783560	-0.094072
F189	F	0.217337	0.857468	-0.139677
F190	F	0.646867	0.487314	-0.132983
F191	F	-0.002968	0.783553	-0.093671
H192	H	0.341178	0.422974	0.129245
H193	H	1.303705	0.207672	0.524235
H194	H	0.476572	0.422957	0.129111
