data_functionalizedCrystal
_audit_creation_method	'MofGen! by Chris Wilmer'
_symmetry_space_group_name_H-M	'P1'
_symmetry_Int_Tables_number	1
_symmetry_cell_setting	triclinic
loop_
_symmetry_equiv_pos_as_xyz
  x,y,z
_cell_length_a	16.109301
_cell_length_b	16.109301
_cell_length_c	15.186229
_cell_angle_alpha	89.994833
_cell_angle_beta	89.999362
_cell_angle_gamma	83.461481
loop_
_atom_site_label
_atom_site_type_symbol
_atom_site_fract_x
_atom_site_fract_y
_atom_site_fract_z
O1	O	1.103131	0.106866	-0.073176
O2	O	0.861069	0.120165	-0.073190
O3	O	0.988749	-0.007515	-0.073174
O4	O	0.975450	0.234547	-0.073192
O5	O	0.988741	-0.007517	0.073284
O6	O	0.861060	0.120164	0.073267
O7	O	1.103122	0.106864	0.073282
Zn8	Zn	0.982090	0.113514	0.096528
Zn9	Zn	0.982101	0.113516	-0.096436
O10	O	0.975441	0.234545	0.073265
C11	C	0.830090	0.119626	0.000037
C12	C	0.737794	0.118011	0.000032
C13	C	0.515522	0.190018	0.000036
C14	C	0.428801	0.188494	0.000042
C15	C	0.448676	0.037006	0.000050
C16	C	0.535394	0.038530	0.000051
C17	C	0.568815	0.115039	0.000039
C18	C	0.395376	0.111990	0.000045
C19	C	0.301350	0.110337	0.000051
C20	C	0.662847	0.116693	0.000035
C21	C	0.988206	-0.038491	0.000056
C22	C	0.986591	-0.130786	0.000057
C23	C	1.058599	-0.353059	0.000047
C24	C	1.057075	-0.439779	0.000040
C25	C	0.905586	-0.419905	0.000034
C26	C	0.907111	-0.333186	0.000035
C27	C	0.983620	-0.299766	0.000046
C28	C	0.980571	-0.473205	0.000038
C29	C	0.978918	-0.567231	0.000030
C30	C	0.985273	-0.205734	0.000052
C31	C	1.134101	0.107404	0.000053
C32	C	1.226397	0.109019	0.000052
C33	C	0.975984	0.265521	0.000034
C34	C	0.977600	0.357816	0.000027
N35	N	0.982088	0.113511	0.228220
N36	N	0.982109	0.113512	-0.228129
C37	C	1.038644	0.056994	0.453950
C38	C	1.038647	0.056992	0.546140
C39	C	0.925547	0.170032	0.546135
C40	C	0.925541	0.170030	0.453947
C41	C	0.982094	0.113511	0.407857
C42	C	0.982103	0.113512	0.592235
C43	C	0.982105	0.113510	0.692191
C44	C	0.982091	0.113512	0.307894
H45	H	0.578788	-0.022530	0.000056
O46	O	0.834349	-0.281292	-0.000005
C47	C	0.852103	-0.197587	0.000016
H48	H	0.917409	-0.194286	-0.027707
H49	H	0.848943	-0.172511	0.070278
C50	C	0.707340	-0.148540	-0.023375
C51	C	0.787547	-0.144484	-0.057432
H52	H	0.667517	-0.115782	-0.058808
H53	H	0.695377	-0.204934	-0.023386
H54	H	0.704718	-0.127644	0.035176
H55	H	0.790170	-0.165389	-0.115978
H56	H	0.799509	-0.088093	-0.057432
H57	H	1.084692	0.010972	0.416426
H58	H	1.120897	-0.325851	0.000054
H59	H	0.879487	0.216053	0.416415
O60	O	1.129854	-0.491633	0.000159
C61	C	1.133512	-0.542387	0.076017
H62	H	1.067521	-0.546755	0.101303
H63	H	1.171477	-0.513877	0.129135
C64	C	1.256422	-0.625073	0.021915
C65	C	1.175369	-0.630444	0.052967
H66	H	1.282244	-0.679390	0.007699
H67	H	1.253959	-0.590878	-0.029191
H68	H	1.288048	-0.601312	0.066185
H69	H	1.143741	-0.654195	0.008693
H70	H	1.177826	-0.664645	0.104065
H71	H	0.542730	0.252317	0.000034
O72	O	0.831342	-0.452510	0.000071
C73	C	0.846072	-0.540478	0.000051
H74	H	0.910958	-0.560864	0.027779
H75	H	0.842048	-0.564612	-0.070211
C76	C	0.700251	-0.551393	0.023432
C77	C	0.779943	-0.576431	0.057495
H78	H	0.659458	-0.573572	0.058862
H79	H	0.690326	-0.492127	0.023442
H80	H	0.696910	-0.571506	-0.035119
H81	H	0.783286	-0.556309	0.116041
H82	H	0.789867	-0.635695	0.057496
H83	H	0.385413	0.249550	0.000041
H84	H	0.879503	0.216049	0.583670
H85	H	0.421454	-0.025285	0.000065
H86	H	1.084694	0.010969	0.583667
