data_functionalizedCrystal
_audit_creation_method	'MofGen! by Chris Wilmer'
_symmetry_space_group_name_H-M	'P1'
_symmetry_Int_Tables_number	1
_symmetry_cell_setting	triclinic
loop_
_symmetry_equiv_pos_as_xyz
  x,y,z
_cell_length_a	12.594516
_cell_length_b	12.759401
_cell_length_c	12.759393
_cell_angle_alpha	90.020459
_cell_angle_beta	89.971717
_cell_angle_gamma	89.980303
loop_
_atom_site_label
_atom_site_type_symbol
_atom_site_fract_x
_atom_site_fract_y
_atom_site_fract_z
Zn1	Zn	-0.423654	-1.606236	-0.594032
Zn2	Zn	-0.601668	-1.606118	-0.418357
Zn3	Zn	-0.423709	-1.430536	-0.418367
Zn4	Zn	-0.601596	-1.430516	-0.593994
O5	O	-0.512657	-1.518352	-0.506187
O6	O	-0.447275	-1.753241	-0.570740
O7	O	-0.578114	-1.582786	-0.271337
O8	O	-0.274756	-1.453901	-0.441689
O9	O	-0.578061	-1.753155	-0.441672
O10	O	-0.274715	-1.582987	-0.570749
O11	O	-0.447369	-1.453787	-0.271344
O12	O	-0.447298	-1.283513	-0.441653
O13	O	-0.577938	-1.453867	-0.741020
O14	O	-0.577991	-1.283498	-0.570685
O15	O	-0.447205	-1.582967	-0.741048
O16	O	-0.750604	-1.582766	-0.441635
O17	O	-0.750551	-1.453752	-0.570675
C18	C	-0.789198	-1.518273	-0.506173
C19	C	-0.907503	-1.518335	-0.506202
C20	C	-0.512644	-1.245384	-0.506166
C21	C	-0.512664	-1.128608	-0.506182
C22	C	-0.512557	-1.518428	-0.780221
C23	C	-0.512515	-1.518460	-0.896997
C24	C	-1.047529	-1.448221	-0.576351
C25	C	-0.976615	-1.544003	-0.602124
C26	C	-0.976846	-1.422563	-0.480475
C27	C	-1.047374	-1.614339	-0.532064
C28	C	-1.047611	-1.492834	-0.410370
C29	C	-0.976729	-1.588682	-0.436107
C30	C	-0.235036	-1.518459	-0.506225
C31	C	-0.116730	-1.518505	-0.506241
C32	C	-0.512670	-1.792385	-0.506209
C33	C	-0.512676	-1.909161	-0.506218
C34	C	-0.580819	-1.073765	-0.573264
C35	C	-0.580823	-0.964041	-0.573285
C36	C	-0.444513	-0.964011	-0.439134
C37	C	-0.444505	-1.073733	-0.439119
C38	C	-0.580516	-1.585658	-1.061591
C39	C	-0.580566	-1.585632	-0.951867
C40	C	-0.444417	-1.451302	-0.951858
C41	C	-0.444373	-1.451323	-1.061580
C42	C	-0.512678	-1.518336	-0.233220
C43	C	-0.512421	-1.518507	-0.116444
H44	H	-1.078613	-1.388930	-0.635703
Cl45	Cl	-0.929006	-1.297405	-0.446852
Cl46	Cl	-0.358836	-0.895019	-0.354827
H47	H	-0.388921	-1.396635	-1.106242
Cl48	Cl	-0.666499	-1.142746	-0.657576
Cl49	Cl	-0.928471	-1.577427	-0.727272
H50	H	-0.388998	-1.118387	-0.384493
Cl51	Cl	-0.358853	-1.366871	-0.882879
Cl52	Cl	-0.666506	-0.895101	-0.657622
H53	H	-0.635926	-1.640362	-1.106258
H54	H	-0.945839	-1.648114	-0.376800
Cl55	Cl	-1.095003	-1.739536	-0.565830
Cl56	Cl	-1.095795	-1.459369	-0.285256
H57	H	-0.636015	-1.640314	-0.907211
