data_functionalizedCrystal
_audit_creation_method	'MofGen! by Chris Wilmer'
_symmetry_space_group_name_H-M	'P1'
_symmetry_Int_Tables_number	1
_symmetry_cell_setting	triclinic
loop_
_symmetry_equiv_pos_as_xyz
  x,y,z
_cell_length_a	12.759401
_cell_length_b	18.050589
_cell_length_c	12.759393
_cell_angle_alpha	90.029546
_cell_angle_beta	90.019676
_cell_angle_gamma	90.028647
loop_
_atom_site_label
_atom_site_type_symbol
_atom_site_fract_x
_atom_site_fract_y
_atom_site_fract_z
Zn1	Zn	1.606168	-0.295615	0.593992
Zn2	Zn	1.606017	-0.419823	0.418315
Zn3	Zn	1.430466	-0.295652	0.418331
Zn4	Zn	1.430417	-0.419769	0.593956
O5	O	1.518267	-0.357715	0.506148
O6	O	1.753169	-0.312099	0.570696
O7	O	1.582688	-0.403390	0.271296
O8	O	1.453857	-0.191723	0.441654
O9	O	1.753058	-0.403354	0.441627
O10	O	1.582944	-0.191695	0.570712
O11	O	1.453711	-0.312162	0.271307
O12	O	1.283439	-0.312109	0.441619
O13	O	1.453773	-0.403261	0.740982
O14	O	1.283402	-0.403297	0.570650
O15	O	1.582896	-0.312046	0.741008
O16	O	1.582640	-0.523740	0.441592
O17	O	1.453627	-0.523700	0.570635
C18	C	1.245300	-0.357702	0.506133
C19	C	1.128523	-0.357714	0.506152
C20	C	1.073719	-0.310284	0.573462
C21	C	0.963995	-0.310291	0.573469
C22	C	0.963888	-0.405167	0.438853
C23	C	1.073610	-0.405155	0.438841
C24	C	0.814105	-0.222755	0.611235
C25	C	0.759297	-0.175330	0.678561
C26	C	0.794960	-0.164012	0.781100
C27	C	0.885428	-0.200128	0.816332
C28	C	0.940230	-0.247557	0.749012
C29	C	0.904569	-0.258862	0.646459
C30	C	1.223503	-0.492692	0.401086
C31	C	1.278307	-0.540126	0.333770
C32	C	1.242646	-0.551453	0.231230
C33	C	1.152175	-0.515350	0.196001
C34	C	1.097371	-0.467916	0.263317
C35	C	1.133039	-0.456588	0.365856
C36	C	1.518140	-0.550667	0.506131
C37	C	1.518182	-0.633213	0.506158
C38	C	1.448094	-0.832669	0.576307
C39	C	1.422478	-0.882116	0.480439
C40	C	1.518285	-0.784343	0.506172
C41	C	1.543953	-0.881977	0.602051
C42	C	1.518383	-0.930328	0.506194
C43	C	1.492619	-0.832703	0.410253
C44	C	1.614138	-0.832560	0.531930
C45	C	1.588559	-0.881985	0.435996
C46	C	1.518226	-0.700245	0.506161
C47	C	1.518442	-1.014425	0.506194
C48	C	1.792300	-0.357728	0.506164
C49	C	1.909077	-0.357734	0.506170
C50	C	1.518346	-0.357643	0.780182
C51	C	1.518379	-0.357613	0.896958
C52	C	1.518423	-0.164009	0.506189
C53	C	1.518489	-0.081463	0.506206
C54	C	1.518249	-0.357732	0.233181
C55	C	1.518419	-0.357553	0.116405
C56	C	1.585619	-0.310110	0.951836
C57	C	1.585637	-0.310078	1.061560
C58	C	1.451172	-0.405059	1.061520
C59	C	1.451150	-0.405086	0.951797
C60	C	1.623278	-0.222457	1.211535
C61	C	1.690534	-0.174960	1.266416
C62	C	1.793050	-0.163574	1.230822
C63	C	1.828332	-0.199695	1.140349
C64	C	1.761082	-0.247197	1.085474
C65	C	1.658550	-0.258570	1.121066
C66	C	1.413519	-0.492708	0.801820
C67	C	1.346274	-0.540215	0.746943
C68	C	1.243755	-0.551609	0.782535
C69	C	1.208478	-0.515501	0.873011
C70	C	1.275723	-0.467994	0.927889
C71	C	1.378241	-0.456599	0.892289
H72	H	1.252552	-0.483468	0.484580
C73	C	1.313026	-0.911523	0.451010
N74	N	1.230584	-0.933670	0.428852
H75	H	1.647959	-0.903503	0.376625
C76	C	1.302933	-0.603637	0.157185
N77	N	1.348339	-0.642939	0.101413
H78	H	1.911815	-0.190425	1.111381
H79	H	1.013890	-0.276959	0.777696
C80	C	1.095701	-0.528034	0.912165
N81	N	1.010756	-0.537476	0.941653
C82	C	1.463211	-0.803586	0.300694
N83	N	1.441055	-0.781653	0.218177
H84	H	1.565624	-0.903622	0.683127
H85	H	1.388648	-0.811014	0.635534
C86	C	1.510499	-0.234971	1.250689
N87	N	1.425553	-0.244396	1.280186
C88	C	1.723552	-0.803118	0.561408
N89	N	1.805959	-0.780937	0.583625
H90	H	0.750328	-0.125397	0.835917
H91	H	1.396439	-0.443711	1.106183
C92	C	1.377818	-0.579852	0.372533
N93	N	1.452766	-0.609774	0.401730
H94	H	1.118426	-0.271652	0.628267
C95	C	1.659563	-0.257881	0.891517
N96	N	1.715257	-0.218538	0.846087
C97	C	1.799883	-0.286925	0.985954
N98	N	1.829109	-0.316843	0.910990
H99	H	0.785067	-0.231958	0.527737
H100	H	1.847810	-0.124900	1.275514
H101	H	1.246992	-0.438594	1.001560
C102	C	1.651716	-0.135222	1.365928
N103	N	1.622483	-0.105292	1.440879
C104	C	1.169787	-0.603872	0.722166
N105	N	1.114073	-0.643234	0.676698
C106	C	1.526298	-0.480178	0.762662
N107	N	1.611244	-0.470746	0.733169
C108	C	0.924661	-0.187663	0.929128
N109	N	0.954221	-0.178266	1.014084
C110	C	0.659794	-0.135595	0.639796
N111	N	0.584849	-0.105666	0.610602
H112	H	1.375010	-0.569622	0.673279
H113	H	0.919165	-0.443791	0.384052
H114	H	1.023704	-0.438519	0.234625
H115	H	1.123135	-0.524576	0.112506
