data_functionalizedCrystal
_audit_creation_method	'MofGen! by Chris Wilmer'
_symmetry_space_group_name_H-M	'P1'
_symmetry_Int_Tables_number	1
_symmetry_cell_setting	triclinic
loop_
_symmetry_equiv_pos_as_xyz
  x,y,z
_cell_length_a	19.121324
_cell_length_b	19.077105
_cell_length_c	19.077068
_cell_angle_alpha	89.884684
_cell_angle_beta	89.730754
_cell_angle_gamma	89.971547
loop_
_atom_site_label
_atom_site_type_symbol
_atom_site_fract_x
_atom_site_fract_y
_atom_site_fract_z
Zn1	Zn	-0.451074	-1.044503	-0.302975
Zn2	Zn	-0.201074	-0.794503	-0.052975
Zn3	Zn	0.048926	-0.544503	0.197025
Zn4	Zn	0.298926	-0.294503	0.447025
Zn5	Zn	-0.338520	-1.044303	-0.425476
Zn6	Zn	-0.088520	-0.794303	-0.175476
Zn7	Zn	0.161480	-0.544303	0.074524
Zn8	Zn	0.411480	-0.294303	0.324524
Zn9	Zn	-0.329161	-0.931991	-0.303676
Zn10	Zn	-0.079161	-0.681991	-0.053676
Zn11	Zn	0.170839	-0.431991	0.196324
Zn12	Zn	0.420839	-0.181991	0.446324
Zn13	Zn	-0.450654	-0.922255	-0.415735
Zn14	Zn	-0.200654	-0.672255	-0.165735
Zn15	Zn	0.049346	-0.422255	0.084265
Zn16	Zn	0.299346	-0.172255	0.334265
O17	O	-0.392352	-0.985763	-0.361965
O18	O	-0.142352	-0.735763	-0.111965
O19	O	0.107648	-0.485763	0.138035
O20	O	0.357648	-0.235763	0.388035
O21	O	-0.440237	-1.142640	-0.323008
O22	O	-0.190237	-0.892640	-0.073008
O23	O	0.059763	-0.642640	0.176992
O24	O	0.309763	-0.392640	0.426992
O25	O	-0.239329	-1.033395	-0.413689
O26	O	0.010671	-0.783395	-0.163689
O27	O	0.260671	-0.533395	0.086311
O28	O	0.510671	-0.283395	0.336311
O29	O	-0.341592	-0.951075	-0.205419
O30	O	-0.091592	-0.701075	0.044581
O31	O	0.158408	-0.451075	0.294581
O32	O	0.408408	-0.201075	0.544581
O33	O	-0.357544	-1.142493	-0.413009
O34	O	-0.107544	-0.892493	-0.163009
O35	O	0.142456	-0.642493	0.086991
O36	O	0.392456	-0.392493	0.336991
O37	O	-0.431161	-1.033736	-0.204904
O38	O	-0.181161	-0.783736	0.045096
O39	O	0.068839	-0.533736	0.295096
O40	O	0.318839	-0.283736	0.545096
O41	O	-0.232453	-0.950881	-0.324203
O42	O	0.017547	-0.700881	-0.074203
O43	O	0.267547	-0.450881	0.175797
O44	O	0.517547	-0.200881	0.425797
O45	O	-0.341184	-0.832536	-0.314758
O46	O	-0.091184	-0.582536	-0.064758
O47	O	0.158816	-0.332536	0.185242
O48	O	0.408816	-0.082536	0.435242
O49	O	-0.548659	-0.934480	-0.396407
O50	O	-0.298659	-0.684480	-0.146407
O51	O	-0.048659	-0.434480	0.103593
O52	O	0.201341	-0.184480	0.353593
O53	O	-0.430444	-0.825383	-0.397087
O54	O	-0.180444	-0.575383	-0.147087
O55	O	0.069556	-0.325383	0.102913
O56	O	0.319556	-0.075383	0.352913
O57	O	-0.548968	-1.024295	-0.313563
O58	O	-0.298968	-0.774295	-0.063563
O59	O	-0.048968	-0.524295	0.186437
O60	O	0.201032	-0.274295	0.436437
O61	O	-0.357136	-1.023954	-0.522348
O62	O	-0.107136	-0.773954	-0.272348
O63	O	0.142864	-0.523954	-0.022348
O64	O	0.392864	-0.273954	0.227652
O65	O	-0.439520	-0.934286	-0.515191
O66	O	-0.189520	-0.684286	-0.265191
O67	O	0.060480	-0.434286	-0.015191
O68	O	0.310480	-0.184286	0.234809
C69	C	-0.384753	-0.803507	-0.354942
C70	C	-0.134753	-0.553507	-0.104942
C71	C	0.115247	-0.303507	0.145058
C72	C	0.365247	-0.053507	0.395058
C73	C	-0.381520	-0.725535	-0.351954
C74	C	-0.131520	-0.475535	-0.101954
C75	C	0.118480	-0.225535	0.148046
C76	C	0.368480	0.024465	0.398046
C77	C	-0.399314	-0.978060	-0.544222
C78	C	-0.149314	-0.728060	-0.294222
C79	C	0.100686	-0.478060	-0.044222
C80	C	0.350686	-0.228060	0.205778
C81	C	-0.402318	-0.974828	-0.622194
C82	C	-0.152318	-0.724828	-0.372194
C83	C	0.097682	-0.474828	-0.122194
C84	C	0.347682	-0.224828	0.127806
C85	C	-0.574921	-0.978324	-0.353820
C86	C	-0.324921	-0.728324	-0.103820
C87	C	-0.074921	-0.478324	0.146180
C88	C	0.175079	-0.228324	0.396180
C89	C	-0.652720	-0.975154	-0.350349
C90	C	-0.402720	-0.725154	-0.100349
C91	C	-0.152720	-0.475154	0.149651
C92	C	0.097280	-0.225154	0.399651
C93	C	-0.692854	-1.016622	-0.395306
C94	C	-0.442854	-0.766622	-0.145306
C95	C	-0.192854	-0.516622	0.104694
C96	C	0.057146	-0.266622	0.354694
C97	C	-0.765955	-1.013644	-0.392036
C98	C	-0.515955	-0.763644	-0.142036
C99	C	-0.265955	-0.513644	0.107964
C100	C	-0.015955	-0.263644	0.357964
C101	C	-0.798921	-0.969193	-0.343812
C102	C	-0.548921	-0.719193	-0.093812
C103	C	-0.298921	-0.469193	0.156188
C104	C	-0.048921	-0.219193	0.406188
C105	C	-0.758782	-0.927723	-0.298850
C106	C	-0.508782	-0.677723	-0.048850
C107	C	-0.258782	-0.427723	0.201150
C108	C	-0.008782	-0.177723	0.451150
C109	C	-0.685683	-0.930706	-0.302117
C110	C	-0.435683	-0.680706	-0.052117
C111	C	-0.185683	-0.430706	0.197883
C112	C	0.064317	-0.180706	0.447883
C113	C	-1.019455	-0.958042	-0.331614
C114	C	-0.769455	-0.708042	-0.081614
C115	C	-0.519455	-0.458042	0.168386
C116	C	-0.269455	-0.208042	0.418386
C117	C	-1.092559	-0.955061	-0.328352
C118	C	-0.842559	-0.705061	-0.078352
C119	C	-0.592559	-0.455061	0.171648
C120	C	-0.342559	-0.205061	0.421648
C121	C	-1.099727	-1.040983	-0.421537
C122	C	-0.849727	-0.790983	-0.171537
C123	C	-0.599727	-0.540983	0.078463
C124	C	-0.349727	-0.290983	0.328463
C125	C	-1.026626	-1.043958	-0.424803
C126	C	-0.776626	-0.793958	-0.174803
C127	C	-0.526626	-0.543958	0.075197
C128	C	-0.276626	-0.293958	0.325197
C129	C	-0.986493	-1.002492	-0.379838
C130	C	-0.736493	-0.752492	-0.129838
C131	C	-0.486493	-0.502492	0.120162
C132	C	-0.236493	-0.252492	0.370162
C133	C	-0.873641	-0.966146	-0.340470
C134	C	-0.623641	-0.716146	-0.090470
C135	C	-0.373641	-0.466146	0.159530
C136	C	-0.123641	-0.216146	0.409530
C137	C	-0.911774	-1.005543	-0.383178
C138	C	-0.661774	-0.755543	-0.133178
C139	C	-0.411774	-0.505543	0.116822
C140	C	-0.161774	-0.255543	0.366822
C141	C	-0.210494	-0.993215	-0.370030
C142	C	0.039506	-0.743215	-0.120030
C143	C	0.289506	-0.493215	0.129970
C144	C	0.539506	-0.243215	0.379970
C145	C	-0.132693	-0.996530	-0.373309
C146	C	0.117307	-0.746530	-0.123309
C147	C	0.367307	-0.496530	0.126691
C148	C	0.617307	-0.246530	0.376691
C149	C	-0.399981	-1.168731	-0.369016
C150	C	-0.149981	-0.918731	-0.119016
C151	C	0.100019	-0.668731	0.130984
C152	C	0.350019	-0.418731	0.380984
C153	C	-0.403232	-1.246701	-0.372021
C154	C	-0.153232	-0.996701	-0.122021
C155	C	0.096768	-0.746701	0.127979
C156	C	0.346768	-0.496701	0.377979
C157	C	-0.426406	-0.685198	-0.393485
C158	C	-0.176406	-0.435198	-0.143485
C159	C	0.073594	-0.185198	0.106515
C160	C	0.323594	0.064802	0.356515
C161	C	-0.423371	-0.611936	-0.390668
C162	C	-0.173371	-0.361936	-0.140668
C163	C	0.076629	-0.111936	0.109332
C164	C	0.326629	0.138064	0.359332
C165	C	-0.375446	-0.579012	-0.346323
C166	C	-0.125446	-0.329012	-0.096323
C167	C	0.124554	-0.079012	0.153677
C168	C	0.374554	0.170988	0.403677
C169	C	-0.330557	-0.619355	-0.304787
C170	C	-0.080557	-0.369355	-0.054787
C171	C	0.169443	-0.119355	0.195213
C172	C	0.419443	0.130645	0.445213
C173	C	-0.333597	-0.692616	-0.307601
C174	C	-0.083597	-0.442616	-0.057601
C175	C	0.166403	-0.192616	0.192399
C176	C	0.416403	0.057384	0.442399
C177	C	-0.361383	-0.360304	-0.333299
C178	C	-0.111383	-0.110304	-0.083299
C179	C	0.138617	0.139696	0.166701
C180	C	0.388617	0.389696	0.416701
C181	C	-0.358346	-0.287038	-0.330490
C182	C	-0.108346	-0.037038	-0.080490
C183	C	0.141654	0.212962	0.169510
C184	C	0.391654	0.462962	0.419510
C185	C	-0.451161	-0.279624	-0.416370
C186	C	-0.201161	-0.029624	-0.166370
C187	C	0.048839	0.220376	0.083630
C188	C	0.298839	0.470376	0.333630
C189	C	-0.454193	-0.352886	-0.419184
C190	C	-0.204193	-0.102886	-0.169184
C191	C	0.045807	0.147114	0.080816
C192	C	0.295807	0.397114	0.330816
C193	C	-0.409307	-0.393223	-0.377645
C194	C	-0.159307	-0.143223	-0.127645
C195	C	0.090693	0.106777	0.122355
C196	C	0.340693	0.356777	0.372355
N197	N	-0.372340	-0.504127	-0.343444
N198	N	-0.122340	-0.254127	-0.093444
N199	N	0.127660	-0.004127	0.156556
N200	N	0.377660	0.245873	0.406556
N201	N	-0.412416	-0.468107	-0.380521
N202	N	-0.162416	-0.218107	-0.130521
N203	N	0.087584	0.031893	0.119479
N204	N	0.337584	0.281893	0.369479
C205	C	-0.360876	-1.020028	-0.662527
C206	C	-0.110876	-0.770028	-0.412527
C207	C	0.139124	-0.520028	-0.162527
C208	C	0.389124	-0.270028	0.087473
C209	C	-0.363706	-1.016993	-0.735790
C210	C	-0.113706	-0.766993	-0.485790
C211	C	0.136294	-0.516993	-0.235790
C212	C	0.386294	-0.266993	0.014210
C213	C	-0.407975	-0.968753	-0.768717
C214	C	-0.157975	-0.718753	-0.518717
C215	C	0.092025	-0.468753	-0.268717
C216	C	0.342025	-0.218753	-0.018717
C217	C	-0.449423	-0.923551	-0.728378
C218	C	-0.199423	-0.673551	-0.478378
C219	C	0.050577	-0.423551	-0.228378
C220	C	0.300577	-0.173551	0.021622
C221	C	-0.446596	-0.926590	-0.655117
C222	C	-0.196596	-0.676590	-0.405117
C223	C	0.053404	-0.426590	-0.155117
C224	C	0.303404	-0.176590	0.094883
C225	C	-0.421029	-0.954655	-0.987427
C226	C	-0.171029	-0.704655	-0.737427
C227	C	0.078971	-0.454655	-0.487427
C228	C	0.328971	-0.204655	-0.237427
C229	C	-0.423851	-0.951617	-1.060693
C230	C	-0.173851	-0.701617	-0.810693
C231	C	0.076149	-0.451617	-0.560693
C232	C	0.326149	-0.201617	-0.310693
C233	C	-0.338134	-1.045060	-1.068100
C234	C	-0.088134	-0.795060	-0.818100
C235	C	0.161866	-0.545060	-0.568100
C236	C	0.411866	-0.295060	-0.318100
C237	C	-0.335308	-1.048093	-0.994837
C238	C	-0.085308	-0.798093	-0.744837
C239	C	0.164692	-0.548093	-0.494837
C240	C	0.414692	-0.298093	-0.244837
C241	C	-0.376758	-1.002893	-0.954504
C242	C	-0.126758	-0.752893	-0.704504
C243	C	0.123242	-0.502893	-0.454504
C244	C	0.373242	-0.252893	-0.204504
N245	N	-0.410868	-0.965647	-0.843603
N246	N	-0.160868	-0.715647	-0.593603
N247	N	0.089132	-0.465647	-0.343603
N248	N	0.339132	-0.215647	-0.093603
N249	N	-0.373869	-1.006003	-0.879620
N250	N	-0.123869	-0.756003	-0.629620
N251	N	0.126131	-0.506003	-0.379620
N252	N	0.376131	-0.256003	-0.129620
C253	C	-0.385379	-0.993514	-0.178997
C254	C	-0.135379	-0.743514	0.071003
C255	C	0.114621	-0.493514	0.321003
C256	C	0.364621	-0.243514	0.571003
C257	C	-0.382408	-0.996817	-0.101027
C258	C	-0.132408	-0.746817	0.148973
C259	C	0.117592	-0.496817	0.398973
C260	C	0.367592	-0.246817	0.648973
H261	H	-0.666018	-1.052821	-0.434573
H262	H	-0.416018	-0.802821	-0.184573
H263	H	-0.166018	-0.552821	0.065427
H264	H	0.083982	-0.302821	0.315427
H265	H	-0.465430	-0.711999	-0.429598
H266	H	-0.215430	-0.461999	-0.179598
H267	H	0.034570	-0.211999	0.070402
H268	H	0.284570	0.038001	0.320402
H269	H	-0.324823	-1.059308	-0.635723
H270	H	-0.074823	-0.809308	-0.385723
H271	H	0.175177	-0.559308	-0.135723
H272	H	0.425177	-0.309308	0.114277
H273	H	-0.324829	-0.393137	-0.299481
H274	H	-0.074829	-0.143137	-0.049481
H275	H	0.175171	0.106863	0.200519
H276	H	0.425171	0.356863	0.450519
F277	F	-0.279556	-0.584313	-0.257587
F278	F	-0.029556	-0.334313	-0.007587
F279	F	0.220444	-0.084313	0.242413
F280	F	0.470444	0.165687	0.492413
F281	F	-0.285824	-0.735545	-0.263396
F282	F	-0.035824	-0.485545	-0.013396
F283	F	0.214176	-0.235545	0.236604
F284	F	0.464176	0.014455	0.486604
H285	H	-0.900491	-0.929953	-0.301207
H286	H	-0.650491	-0.679953	-0.051207
H287	H	-0.400491	-0.429953	0.198793
H288	H	-0.150491	-0.179953	0.448793
H289	H	-0.480344	-0.889784	-0.622278
H290	H	-0.230344	-0.639784	-0.372278
H291	H	0.019656	-0.389784	-0.122278
H292	H	0.269656	-0.139784	0.127722
F293	F	-1.127643	-0.907772	-0.277001
F294	F	-0.877643	-0.657772	-0.027001
F295	F	-0.627643	-0.407772	0.222999
F296	F	-0.377643	-0.157772	0.472999
F297	F	-0.876688	-1.052852	-0.434496
F298	F	-0.626688	-0.802852	-0.184496
F299	F	-0.376688	-0.552852	0.065504
F300	F	-0.126688	-0.302852	0.315504
F301	F	-0.319598	-1.065103	-0.778713
F302	F	-0.069598	-0.815103	-0.528713
F303	F	0.180402	-0.565103	-0.278713
F304	F	0.430402	-0.315103	-0.028713
F305	F	-0.471145	-0.569009	-0.434871
F306	F	-0.221145	-0.319009	-0.184871
F307	F	0.028855	-0.069009	0.065129
F308	F	0.278855	0.180991	0.315129
F309	F	-0.288198	-1.099444	-0.959799
F310	F	-0.038198	-0.849444	-0.709799
F311	F	0.211802	-0.599444	-0.459799
F312	F	0.461802	-0.349444	-0.209799
F313	F	-1.142443	-1.085113	-0.469387
F314	F	-0.892443	-0.835113	-0.219387
F315	F	-0.642443	-0.585113	0.030613
F316	F	-0.392443	-0.335113	0.280613
F317	F	-0.496542	-0.872213	-0.763424
F318	F	-0.246542	-0.622213	-0.513424
F319	F	0.003458	-0.372213	-0.263424
F320	F	0.253458	-0.122213	-0.013424
F321	F	-0.307331	-0.252000	-0.283294
F322	F	-0.057331	-0.002000	-0.033294
F323	F	0.192669	0.248000	0.216706
F324	F	0.442669	0.498000	0.466706
F325	F	-0.498927	-0.236691	-0.460577
F326	F	-0.248927	0.013309	-0.210577
F327	F	0.001073	0.263309	0.039423
F328	F	0.251073	0.513309	0.289423
F329	F	-0.294026	-1.093164	-1.111029
F330	F	-0.044026	-0.843164	-0.861029
F331	F	0.205974	-0.593164	-0.611029
F332	F	0.455974	-0.343164	-0.361029
H333	H	-0.493217	-0.379688	-0.455296
H334	H	-0.243217	-0.129688	-0.205296
H335	H	0.006783	0.120312	0.044704
H336	H	0.256783	0.370312	0.294704
H337	H	-0.986787	-0.924274	-0.295003
H338	H	-0.736787	-0.674274	-0.045003
H339	H	-0.486787	-0.424274	0.204997
H340	H	-0.236787	-0.174274	0.454997
H341	H	-0.459913	-0.912342	-1.087500
H342	H	-0.209913	-0.662342	-0.837500
H343	H	0.040087	-0.412342	-0.587500
H344	H	0.290087	-0.162342	-0.337500
H345	H	-0.653007	-0.896940	-0.265507
H346	H	-0.403007	-0.646940	-0.015507
H347	H	-0.153007	-0.396940	0.234493
H348	H	0.096993	-0.146940	0.484493
F349	F	-0.465143	-0.906548	-0.944511
F350	F	-0.215143	-0.656548	-0.694511
F351	F	0.034857	-0.406548	-0.444511
F352	F	0.284857	-0.156548	-0.194511
H353	H	-0.785629	-0.891534	-0.259582
H354	H	-0.535629	-0.641534	-0.009582
H355	H	-0.285629	-0.391534	0.240418
H356	H	-0.035629	-0.141534	0.490418
F357	F	-0.808664	-1.057777	-0.439889
F358	F	-0.558664	-0.807777	-0.189889
F359	F	-0.308664	-0.557777	0.060111
F360	F	-0.058664	-0.307777	0.310111
H361	H	-0.999790	-1.080143	-0.464083
H362	H	-0.749790	-0.830143	-0.214083
H363	H	-0.499790	-0.580143	0.035917
H364	H	-0.249790	-0.330143	0.285917
