data_functionalizedCrystal
_audit_creation_method	'MofGen! by Chris Wilmer'
_symmetry_space_group_name_H-M	'P1'
_symmetry_Int_Tables_number	1
_symmetry_cell_setting	triclinic
loop_
_symmetry_equiv_pos_as_xyz
  x,y,z
_cell_length_a	19.077105
_cell_length_b	17.637651
_cell_length_c	19.077271
_cell_angle_alpha	103.948043
_cell_angle_beta	90.107074
_cell_angle_gamma	98.499620
loop_
_atom_site_label
_atom_site_type_symbol
_atom_site_fract_x
_atom_site_fract_y
_atom_site_fract_z
Zn1	Zn	0.999175	-0.342956	0.376255
Zn2	Zn	1.499175	0.157044	0.876255
Zn3	Zn	0.980064	-0.480778	0.232957
Zn4	Zn	1.480064	0.019222	0.732957
Zn5	Zn	0.886316	-0.343398	0.253963
Zn6	Zn	1.386316	0.156602	0.753963
Zn7	Zn	0.859724	-0.470115	0.347707
Zn8	Zn	1.359724	0.029885	0.847707
O9	O	0.931320	-0.409312	0.302721
O10	O	1.431320	0.090688	0.802721
O11	O	1.094235	-0.365516	0.360402
O12	O	1.594235	0.134484	0.860402
O13	O	0.970759	-0.467202	0.136541
O14	O	1.470759	0.032798	0.636541
O15	O	0.920413	-0.232629	0.290923
O16	O	1.420413	0.267371	0.790923
O17	O	1.080194	-0.466774	0.255122
O18	O	1.580194	0.033226	0.755122
O19	O	1.003330	-0.232305	0.380771
O20	O	1.503330	0.267695	0.880771
O21	O	0.901882	-0.366270	0.151974
O22	O	1.401882	0.133730	0.651974
O23	O	0.785194	-0.355930	0.263242
O24	O	1.285194	0.144070	0.763242
O25	O	0.875092	-0.448600	0.450697
O26	O	1.375092	0.051400	0.950697
O27	O	0.765657	-0.449028	0.332116
O28	O	1.265657	0.050972	0.832116
O29	O	0.977546	-0.355177	0.471671
O30	O	1.477546	0.144823	0.971671
O31	O	0.944974	-0.590074	0.227441
O32	O	1.444974	-0.090074	0.727441
O33	O	0.856561	-0.582240	0.311747
O34	O	1.356561	-0.082240	0.811747
C35	C	0.750120	-0.401370	0.296861
C36	C	1.250120	0.098630	0.796861
C37	C	0.672598	-0.397991	0.294367
C38	C	1.172598	0.102009	0.794367
C39	C	0.895827	-0.614863	0.264233
C40	C	1.395827	-0.114863	0.764233
C41	C	0.880706	-0.702800	0.247794
C42	C	1.380706	-0.202800	0.747794
C43	C	0.626014	-0.444955	0.328969
C44	C	1.126014	0.055045	0.828969
C45	C	0.553176	-0.441769	0.326631
C46	C	1.053176	0.058231	0.826631
C47	C	0.526922	-0.391624	0.289687
C48	C	1.026922	0.108376	0.789687
C49	C	0.573512	-0.344655	0.255085
C50	C	1.073512	0.155345	0.755085
C51	C	0.646350	-0.347837	0.257427
C52	C	1.146350	0.152163	0.757427
C53	C	0.310173	-0.376896	0.278850
C54	C	0.810173	0.123104	0.778850
C55	C	0.237329	-0.373720	0.276509
C56	C	0.737329	0.126280	0.776509
C57	C	0.216997	-0.470833	0.348057
C58	C	0.716997	0.029167	0.848057
C59	C	0.289837	-0.474014	0.350392
C60	C	0.789837	0.025986	0.850392
C61	C	0.336421	-0.427042	0.315793
C62	C	0.836421	0.072958	0.815793
N63	N	0.452470	-0.388368	0.287295
N64	N	0.952470	0.111632	0.787295
N65	N	0.410873	-0.430294	0.318190
N66	N	0.910873	0.069706	0.818190
C67	C	1.046638	-0.990857	0.427847
C68	C	1.546638	-0.490857	0.927847
C69	C	1.032408	-1.073487	0.412386
C70	C	1.532408	-0.573487	0.912386
C71	C	0.946128	-1.073939	0.318743
C72	C	1.446128	-0.573939	0.818743
C73	C	0.960354	-0.991307	0.334193
C74	C	1.460354	-0.491307	0.834193
C75	C	1.010609	-0.949773	0.388746
C76	C	1.510609	-0.449773	0.888746
C77	C	0.924324	-0.950223	0.295092
C78	C	1.424324	-0.450223	0.795092
C79	C	0.938546	-0.867599	0.310544
C80	C	1.438546	-0.367599	0.810544
C81	C	0.988798	-0.826058	0.365096
C82	C	1.488798	-0.326058	0.865096
C83	C	1.024831	-0.867148	0.404198
C84	C	1.524831	-0.367148	0.904198
C85	C	0.874066	-0.991759	0.240543
C86	C	1.374066	-0.491759	0.740543
C87	C	0.838037	-0.950675	0.201442
C88	C	1.338037	-0.450675	0.701442
C89	C	0.852262	-0.868050	0.216890
C90	C	1.352262	-0.368050	0.716890
C91	C	0.902513	-0.826509	0.271442
C92	C	1.402513	-0.326509	0.771442
C93	C	0.816229	-0.826960	0.177789
C94	C	1.316229	-0.326960	0.677789
C95	C	0.830451	-0.744335	0.193240
C96	C	1.330451	-0.244335	0.693240
C97	C	0.916735	-0.743884	0.286894
C98	C	1.416735	-0.243884	0.786894
C99	C	1.113227	-0.417285	0.308603
C100	C	1.613227	0.082715	0.808603
C101	C	1.190745	-0.420683	0.311110
C102	C	1.690745	0.079317	0.811110
C103	C	0.925485	-0.400649	0.487625
C104	C	1.425485	0.099351	0.987625
C105	C	0.922998	-0.396958	0.566421
C106	C	1.422998	0.103042	1.066421
C107	C	0.966970	-0.202958	0.341375
C108	C	1.466970	0.297042	0.841375
C109	C	0.982162	-0.115023	0.357847
C110	C	1.482162	0.384977	0.857847
C111	C	0.937182	-0.417886	0.118547
C112	C	1.437182	0.082114	0.618547
C113	C	0.939842	-0.421360	0.039798
C114	C	1.439842	0.078640	0.539798
C115	C	0.905153	-0.370544	1.010817
C116	C	1.405153	0.129456	1.510817
C117	C	0.907493	-0.374009	0.936781
C118	C	1.407493	0.125991	1.436781
C119	C	0.944519	-0.428296	0.891727
C120	C	1.444519	0.071704	1.391727
C121	C	0.979213	-0.479115	0.920712
C122	C	1.479213	0.020885	1.420712
C123	C	0.976876	-0.475645	0.994748
C124	C	1.476876	0.024355	1.494748
C125	C	0.955355	-0.444307	0.669442
C126	C	1.455355	0.055693	1.169442
C127	C	0.957688	-0.447775	0.595402
C128	C	1.457688	0.052225	1.095402
C129	C	0.885968	-0.342667	0.611476
C130	C	1.385968	0.157333	1.111476
C131	C	0.883632	-0.339205	0.685512
C132	C	1.383632	0.160795	1.185512
C133	C	0.918329	-0.390021	0.714492
C134	C	1.418329	0.109979	1.214492
N135	N	0.946910	-0.431842	0.816049
N136	N	1.446910	0.068158	1.316049
N137	N	0.915941	-0.386471	0.790168
N138	N	1.415941	0.113529	1.290168
H139	H	0.647383	-0.485791	0.359050
H140	H	1.147383	0.014209	0.859050
H141	H	1.087566	-0.957038	0.472265
H142	H	1.587566	-0.457038	0.972265
H143	H	0.515249	-0.480012	0.354807
H144	H	1.015249	0.019988	0.854807
H145	H	0.775307	-0.860789	0.133376
H146	H	1.275307	-0.360789	0.633376
C147	C	1.019347	-0.538029	0.871673
C148	C	1.519347	-0.038029	1.371673
C149	C	1.013952	-0.530209	0.800629
C150	C	1.513952	-0.030209	1.300629
C151	C	1.050905	-0.584477	0.755434
C152	C	1.550905	-0.084477	1.255434
H153	H	1.067846	-0.527995	0.887395
H154	H	1.567846	-0.027995	1.387395
H155	H	0.999562	-0.590187	0.873478
H156	H	1.499562	-0.090187	1.373478
H157	H	1.033739	-0.478063	0.798827
H158	H	1.533739	0.021937	1.298827
H159	H	0.965462	-0.540251	0.784885
H160	H	1.465462	-0.040251	1.284885
H161	H	1.031120	-0.636635	0.757238
H162	H	1.531120	-0.136635	1.257238
H163	H	1.099402	-0.574438	0.771162
H164	H	1.599402	-0.074438	1.271162
H165	H	1.047244	-0.579184	0.707225
H166	H	1.547244	-0.079184	1.207225
H167	H	0.179061	-0.509073	0.376227
H168	H	0.679061	-0.009073	0.876227
H169	H	0.552132	-0.303822	0.225008
H170	H	1.052132	0.196178	0.725008
C171	C	1.014554	-0.530913	1.026072
C172	C	1.514554	-0.030913	1.526072
C173	C	1.047465	-0.579213	0.970768
C174	C	1.547465	-0.079213	1.470768
C175	C	1.082176	-0.630141	0.999594
C176	C	1.582176	-0.130141	1.499594
H177	H	1.049306	-0.500719	1.061592
H178	H	1.549306	-0.000719	1.561592
H179	H	0.981017	-0.562904	1.047613
H180	H	1.481017	-0.062904	1.547613
H181	H	1.080999	-0.547227	0.949238
H182	H	1.580999	-0.047227	1.449238
H183	H	1.012729	-0.609425	0.935244
H184	H	1.512729	-0.109425	1.435244
H185	H	1.048639	-0.662132	1.021135
H186	H	1.548639	-0.162132	1.521135
H187	H	1.116925	-0.599940	1.035114
H188	H	1.616925	-0.099940	1.535114
H189	H	1.104505	-0.662924	0.962074
H190	H	1.604505	-0.162924	1.462074
C191	C	0.791466	-0.699632	0.150769
C192	C	1.291466	-0.199632	0.650769
C193	C	0.840593	-0.656023	0.115533
C194	C	1.340593	-0.156023	0.615533
C195	C	0.804702	-0.614826	0.076411
C196	C	1.304702	-0.114826	0.576411
H197	H	0.759503	-0.736116	0.116015
H198	H	1.259503	-0.236116	0.616015
H199	H	0.765765	-0.664771	0.182893
H200	H	1.265765	-0.164771	0.682893
H201	H	0.866281	-0.690881	0.083412
H202	H	1.366281	-0.190881	0.583412
H203	H	0.872557	-0.619525	0.150270
H204	H	1.372557	-0.119525	0.650270
H205	H	0.779002	-0.579964	0.108535
H206	H	1.279002	-0.079964	0.608535
H207	H	0.772741	-0.651315	0.041661
H208	H	1.272741	-0.151315	0.541661
H209	H	0.838030	-0.585226	0.052504
H210	H	1.338030	-0.085226	0.552504
H211	H	0.684279	-0.309590	0.229255
H212	H	1.184279	0.190410	0.729255
H213	H	0.215958	-0.332876	0.246430
H214	H	0.715958	0.167124	0.746430
H215	H	0.957663	-0.710066	0.331312
H216	H	1.457663	-0.210066	0.831312
H217	H	1.000376	-0.758780	0.377676
H218	H	1.500376	-0.258780	0.877676
C219	C	0.891630	-1.118942	0.259419
C220	C	1.391630	-0.618942	0.759419
C221	C	0.912540	-1.102795	0.193546
C222	C	1.412540	-0.602795	0.693546
C223	C	0.862350	-1.144227	0.138881
C224	C	1.362350	-0.644227	0.638881
H225	H	0.888274	-1.174050	0.255716
H226	H	1.388274	-0.674050	0.755716
H227	H	0.846754	-1.102881	0.270723
H228	H	1.346754	-0.602881	0.770723
H229	H	0.957403	-1.118861	0.182244
H230	H	1.457403	-0.618861	0.682244
H231	H	0.915891	-1.047695	0.197226
H232	H	1.415891	-0.547695	0.697226
H233	H	0.817473	-1.128165	0.150184
H234	H	1.317473	-0.628165	0.650184
H235	H	0.858998	-1.199333	0.135184
H236	H	1.358998	-0.699333	0.635184
H237	H	0.876526	-1.133271	0.094180
H238	H	1.376526	-0.633271	0.594180
C239	C	0.318205	-0.528479	0.390572
C240	C	0.818205	-0.028479	0.890572
C241	C	0.261819	-0.568913	0.420390
C242	C	0.761819	-0.068913	0.920390
C243	C	0.287926	-0.619088	0.457413
C244	C	0.787926	-0.119088	0.957413
H245	H	0.341515	-0.565482	0.357935
H246	H	0.841515	-0.065482	0.857935
H247	H	0.350846	-0.498078	0.428109
H248	H	0.850846	0.001922	0.928109
H249	H	0.229190	-0.599312	0.382858
H250	H	0.729190	-0.099312	0.882858
H251	H	0.238504	-0.531930	0.453038
H252	H	0.738504	-0.031930	0.953038
H253	H	0.320567	-0.588687	0.494951
H254	H	0.820567	-0.088687	0.994951
H255	H	0.311235	-0.656087	0.424771
H256	H	0.811235	-0.156087	0.924771
H257	H	0.249673	-0.646523	0.477655
H258	H	0.749673	-0.146523	0.977655
C259	C	0.869764	-0.318969	0.905203
C260	C	1.369764	0.181031	1.405203
C261	C	0.818678	-0.363796	0.852849
C262	C	1.318678	0.136204	1.352849
C263	C	0.783914	-0.313117	0.823739
C264	C	1.283914	0.186883	1.323739
H265	H	0.847315	-0.286129	0.942560
H266	H	1.347315	0.213871	1.442560
H267	H	0.903288	-0.287031	0.883599
H268	H	1.403288	0.212969	1.383599
H269	H	0.785160	-0.395721	0.874453
H270	H	1.285160	0.104279	1.374453
H271	H	0.841109	-0.396634	0.815478
H272	H	1.341109	0.103366	1.315478
H273	H	0.817437	-0.281179	0.802135
H274	H	1.317437	0.218821	1.302135
H275	H	0.761469	-0.280279	0.861101
H276	H	1.261469	0.219721	1.361101
H277	H	0.749253	-0.343525	0.788209
H278	H	1.249253	0.156475	1.288209
C279	C	0.997827	-0.506687	0.546359
C280	C	1.497827	-0.006687	1.046359
C281	C	0.992426	-0.498863	0.475316
C282	C	1.492426	0.001137	0.975316
C283	C	1.029382	-0.553125	0.430117
C284	C	1.529382	-0.053125	0.930117
H285	H	1.046327	-0.496649	0.562078
H286	H	1.546327	0.003351	1.062078
H287	H	0.978047	-0.558847	0.548161
H288	H	1.478047	-0.058847	1.048161
H289	H	1.012209	-0.446715	0.473517
H290	H	1.512209	0.053285	0.973517
H291	H	0.943935	-0.508909	0.459575
H292	H	1.443935	-0.008909	0.959575
H293	H	1.009602	-0.605285	0.431919
H294	H	1.509602	-0.105285	0.931919
H295	H	1.077880	-0.543082	0.445842
H296	H	1.577880	-0.043082	0.945842
H297	H	1.025717	-0.547829	0.381908
H298	H	1.525717	-0.047829	0.881908
H299	H	0.348092	-0.338655	0.250670
H300	H	0.848092	0.161345	0.750670
H301	H	1.061741	-1.106933	0.444241
H302	H	1.561741	-0.606933	0.944241
C303	C	1.079391	-0.822185	0.463482
C304	C	1.579391	-0.322185	0.963482
C305	C	1.107892	-0.875845	0.494433
C306	C	1.607892	-0.375845	0.994433
C307	C	1.158142	-0.834453	0.549053
C308	C	1.658142	-0.334453	1.049053
H309	H	1.116265	-0.792531	0.443489
H310	H	1.616265	-0.292531	0.943489
H311	H	1.057264	-0.787367	0.499543
H312	H	1.557264	-0.287367	0.999543
H313	H	1.130019	-0.910649	0.458378
H314	H	1.630019	-0.410649	0.958378
H315	H	1.071036	-0.905501	0.514441
H316	H	1.571036	-0.405501	1.014441
H317	H	1.136015	-0.799636	0.585114
H318	H	1.636015	-0.299636	1.085114
H319	H	1.195011	-0.804801	0.529054
H320	H	1.695011	-0.304801	1.029054
H321	H	1.177482	-0.870855	0.570064
H322	H	1.677482	-0.370855	1.070064
H323	H	0.857721	-0.301294	0.587872
H324	H	1.357721	0.198706	1.087872
C325	C	0.783417	-0.995869	0.142308
C326	C	1.283417	-0.495869	0.642308
C327	C	0.729255	-1.039502	0.172081
C328	C	1.229255	-0.539502	0.672081
C329	C	0.678934	-1.081151	0.117624
C330	C	1.178934	-0.581151	0.617624
H331	H	0.763916	-0.959655	0.121196
H332	H	1.263916	-0.459655	0.621196
H333	H	0.805525	-1.030751	0.106285
H334	H	1.305525	-0.530751	0.606285
H335	H	0.707150	-1.004623	0.208090
H336	H	1.207150	-0.504623	0.708090
H337	H	0.748735	-1.075730	0.193187
H338	H	1.248735	-0.575730	0.693187
H339	H	0.701041	-1.116033	0.081601
H340	H	1.201041	-0.616033	0.581601
H341	H	0.659438	-1.044931	0.096516
H342	H	1.159438	-0.544931	0.596516
H343	H	0.642183	-1.110766	0.137815
H344	H	1.142183	-0.610766	0.637815
H345	H	0.862482	-1.059037	0.227970
H346	H	1.362482	-0.559037	0.727970
H347	H	0.875000	-0.326339	1.047496
H348	H	1.375000	0.173661	1.547496
H349	H	0.853478	-0.295002	0.722190
H350	H	1.353478	0.204998	1.222190
H351	H	0.983606	-0.485687	0.693028
H352	H	1.483606	0.014313	1.193028
