data_functionalizedCrystal
_audit_creation_method	'MofGen! by Chris Wilmer'
_symmetry_space_group_name_H-M	'P1'
_symmetry_Int_Tables_number	1
_symmetry_cell_setting	triclinic
loop_
_symmetry_equiv_pos_as_xyz
  x,y,z
_cell_length_a	13.339070
_cell_length_b	10.489716
_cell_length_c	12.376457
_cell_angle_alpha	101.395919
_cell_angle_beta	75.589755
_cell_angle_gamma	100.079215
loop_
_atom_site_label
_atom_site_type_symbol
_atom_site_fract_x
_atom_site_fract_y
_atom_site_fract_z
O1	O	1.366182	0.623455	-0.094008
O2	O	1.071048	0.539310	-0.094007
O3	O	1.225344	0.398085	-0.094011
O4	O	1.211885	0.764680	-0.094003
O5	O	1.186784	0.433329	0.094002
O6	O	1.032487	0.574554	0.094007
O7	O	1.327621	0.658699	0.094005
Zn8	Zn	1.173932	0.622222	0.123857
Zn9	Zn	1.224737	0.575787	-0.123858
O10	O	1.173325	0.799924	0.094010
C11	C	1.013975	0.542718	0.000000
C12	C	0.901368	0.500349	0.000000
C13	C	0.538954	0.829781	-0.000010
C14	C	0.644755	0.869591	-0.000014
C15	C	0.708913	0.777284	-0.000010
C16	C	0.667261	0.645160	-0.000003
C17	C	0.561451	0.605344	-0.000008
C18	C	0.731410	0.552847	-0.000008
C19	C	0.689758	0.420723	-0.000001
C20	C	0.583959	0.380914	-0.000006
C21	C	0.519800	0.473221	-0.000010
C22	C	0.837220	0.592663	-0.000003
C23	C	0.859717	0.368226	-0.000001
C24	C	0.753916	0.328416	0.000003
C25	C	1.205053	0.367828	-0.000008
C26	C	1.202031	0.225160	-0.000018
C27	C	1.296647	0.159881	-0.000009
C28	C	1.265661	0.048026	-0.092706
C29	C	1.227621	0.082803	0.092661
C30	C	1.171099	0.115170	-0.092792
C31	C	1.133056	0.149972	0.092657
C32	C	1.102004	0.038139	-0.000062
C33	C	1.384694	0.655291	-0.000004
C34	C	1.497303	0.697658	-0.000011
C35	C	1.193616	0.830180	0.000004
C36	C	1.196640	0.972847	0.000007
N37	N	1.139266	0.653915	0.292917
N38	N	1.259411	0.544087	-0.292918
C39	C	1.339882	0.470492	0.647895
C40	C	1.364139	0.448308	0.529555
C41	C	1.307923	0.499707	0.470389
C42	C	1.227445	0.573296	0.529576
C43	C	1.203191	0.595491	0.647928
C44	C	1.171232	0.624706	0.470422
C45	C	1.090754	0.698294	0.529609
C46	C	1.066504	0.720485	0.647950
C47	C	1.122720	0.669085	0.707115
C48	C	1.195486	0.602511	0.352070
C49	C	1.058795	0.727510	0.352103
C50	C	1.034538	0.749694	0.470444
H51	H	0.871121	0.700240	-0.000004
H52	H	1.102968	0.687142	0.803478
C53	C	1.363988	0.595659	0.300857
C54	C	1.334586	0.475319	0.340307
H55	H	1.380456	0.580593	0.220547
H56	H	1.308016	0.646826	0.327632
H57	H	1.423446	0.641161	0.327626
H58	H	1.275123	0.429820	0.313545
H59	H	1.390564	0.424132	0.313521
C60	C	0.981829	0.261848	0.165633
C61	C	1.057481	0.210117	0.198456
H62	H	0.935173	0.298974	0.230957
H63	H	1.014963	0.327792	0.120951
H64	H	0.944032	0.193853	0.122744
H65	H	1.095283	0.278115	0.241338
H66	H	1.024343	0.144167	0.243157
H67	H	0.719989	0.220836	-0.000001
H68	H	1.321676	0.003515	-0.171077
H69	H	0.486710	0.904921	-0.000023
H70	H	1.000982	0.780417	0.696140
H71	H	1.019650	-0.014498	-0.000112
C72	C	0.936676	0.839215	0.651878
C73	C	0.946085	0.830593	0.535511
H74	H	0.882074	0.889166	0.692045
H75	H	0.921076	0.753608	0.671265
H76	H	1.000496	0.880742	0.671243
H77	H	0.882268	0.789057	0.516144
H78	H	0.961679	0.916216	0.516116
C79	C	0.846768	0.791330	0.096647
C80	C	0.825211	0.821036	-0.000007
H81	H	0.918570	0.818339	0.096646
H82	H	0.805234	0.836069	0.162195
H83	H	0.831137	0.699430	0.096639
H84	H	0.840835	0.912938	0.000005
H85	H	0.866759	0.776301	-0.065572
C86	C	1.065302	0.868777	0.219020
C87	C	0.996995	0.784017	0.287081
H88	H	1.027153	0.903654	0.178870
H89	H	1.098377	0.938397	0.265180
H90	H	1.116690	0.821753	0.166839
H91	H	0.945610	0.831043	0.339268
H92	H	0.963903	0.714386	0.240917
C93	C	0.394183	0.336977	-0.096662
C94	C	0.403499	0.429460	-0.000011
H95	H	0.322382	0.309961	-0.096657
H96	H	0.427407	0.375145	-0.162211
H97	H	0.426430	0.263095	-0.096652
H98	H	0.371259	0.503347	-0.000024
H99	H	0.370262	0.391294	0.065556
H100	H	0.911956	0.293061	-0.000003
H101	H	1.429664	0.388395	0.481369
H102	H	0.550052	0.273328	-0.000013
C103	C	1.220985	0.210669	-0.262583
C104	C	1.138953	0.135304	-0.198724
H105	H	1.201145	0.223090	-0.327985
H106	H	1.236376	0.293507	-0.218375
H107	H	1.281064	0.166507	-0.284712
H108	H	1.078876	0.179470	-0.176587
H109	H	1.123548	0.052452	-0.242940
C110	C	0.611880	1.087431	-0.000008
C111	C	0.690534	1.014816	-0.000011
H112	H	0.640144	1.177093	0.000003
H113	H	0.584532	1.054948	-0.065570
H114	H	0.557630	1.079515	0.065559
H115	H	0.744782	1.022724	-0.065583
H116	H	0.717898	1.047309	0.065558
H117	H	1.251511	0.067702	0.171027
H118	H	1.378969	0.212716	-0.000103
C119	C	1.477414	0.344699	0.635993
C120	C	1.401662	0.413988	0.712929
H121	H	1.515559	0.309817	0.676145
H122	H	1.444327	0.275081	0.589843
H123	H	1.523743	0.402218	0.589826
H124	H	1.355329	0.356466	0.759091
H125	H	1.434751	0.483615	0.759099
H126	H	1.261011	0.542596	0.303891
