data_functionalizedCrystal
_audit_creation_method	'MofGen! by Chris Wilmer'
_symmetry_space_group_name_H-M	'P1'
_symmetry_Int_Tables_number	1
_symmetry_cell_setting	triclinic
loop_
_symmetry_equiv_pos_as_xyz
  x,y,z
_cell_length_a	6.817900
_cell_length_b	11.168130
_cell_length_c	11.168136
_cell_angle_alpha	92.019983
_cell_angle_beta	108.508683
_cell_angle_gamma	108.508653
loop_
_atom_site_label
_atom_site_type_symbol
_atom_site_fract_x
_atom_site_fract_y
_atom_site_fract_z
V1	V	-4.109882	-0.174724	-0.393709
O2	O	-4.069466	0.008377	-0.386204
O3	O	-4.086170	-0.346429	-0.391026
O4	O	-4.086173	-0.172044	-0.565415
O5	O	-4.069464	-0.167215	-0.210609
V6	V	-4.587112	-0.152822	-0.371808
O7	O	-4.384946	-0.222767	-0.441752
O8	O	-4.762246	-0.104778	-0.323765
O9	O	-4.387617	0.018883	-0.374490
O10	O	-4.744925	-0.335922	-0.379313
O11	O	-4.744927	-0.160330	-0.554908
O12	O	-4.387615	-0.155501	-0.200102
C13	C	-3.936378	-0.388286	-0.384818
C14	C	-3.998442	-0.528658	-0.383769
C15	C	-4.082926	-0.608381	-0.493195
C16	C	-4.147074	-0.753462	-0.492113
C17	C	-3.936380	-0.165840	-0.607266
C18	C	-3.998442	-0.164786	-0.747637
C19	C	-4.200950	-0.170305	-0.816329
C20	C	-4.265098	-0.169216	-0.961409
C21	C	-4.200752	0.060735	-0.380695
C22	C	-4.117927	0.201105	-0.381753
C23	C	-4.200750	-0.161709	-0.158244
C24	C	-4.117925	-0.162757	-0.017872
H25	H	-4.107753	-0.569227	-0.587678
O26	O	-3.968969	-0.575209	-0.270971
C27	C	-4.059722	-0.591161	-0.079072
C28	C	-4.093257	-0.538348	-0.206770
H29	H	-4.160224	-0.561403	-0.027141
H30	H	-3.877584	-0.551427	-0.017281
H31	H	-4.116651	-0.699844	-0.098307
H32	H	-4.036453	-0.429669	-0.187654
H33	H	-4.275410	-0.578181	-0.268521
O34	O	-4.351181	-0.177128	-0.758341
C35	C	-4.555220	-0.295410	-0.633788
C36	C	-4.385090	-0.287856	-0.699424
H37	H	-4.582653	-0.384912	-0.586115
H38	H	-4.717770	-0.299482	-0.708029
H39	H	-4.491061	-0.207362	-0.558549
H40	H	-4.449043	-0.375882	-0.774656
H41	H	-4.222571	-0.283721	-0.625108
H42	H	-4.045502	-0.730409	-0.288067
O43	O	-3.848053	-0.157958	-0.805507
C44	C	-3.494711	-0.037016	-0.817923
C45	C	-3.664867	-0.044575	-0.752306
H46	H	-3.346545	0.054633	-0.774918
H47	H	-3.573050	-0.037225	-0.924601
H48	H	-3.438508	-0.122923	-0.802770
H49	H	-3.721132	0.041312	-0.767360
H50	H	-3.586427	-0.044428	-0.645652
O51	O	-4.233552	-0.834991	-0.604000
C52	C	-4.346009	-0.857137	-0.833516
C53	C	-4.248093	-0.764662	-0.706896
H54	H	-4.357753	-0.800312	-0.916739
H55	H	-4.517574	-0.924697	-0.843685
H56	H	-4.235032	-0.914873	-0.833851
H57	H	-4.358900	-0.706841	-0.706473
H58	H	-4.076498	-0.697188	-0.696777
H59	H	-4.438583	-0.173946	-1.020460
H60	H	-3.944444	-0.158040	-0.958831
