data_functionalizedCrystal
_audit_creation_method	'MofGen! by Chris Wilmer'
_symmetry_space_group_name_H-M	'P1'
_symmetry_Int_Tables_number	1
_symmetry_cell_setting	triclinic
loop_
_symmetry_equiv_pos_as_xyz
  x,y,z
_cell_length_a	10.654543
_cell_length_b	11.804365
_cell_length_c	10.654550
_cell_angle_alpha	78.052832
_cell_angle_beta	95.516448
_cell_angle_gamma	78.040437
loop_
_atom_site_label
_atom_site_type_symbol
_atom_site_fract_x
_atom_site_fract_y
_atom_site_fract_z
O1	O	-1.692965	0.098896	0.151254
O2	O	-1.327493	0.098927	0.168061
O3	O	-1.518630	0.098903	-0.023080
O4	O	-1.501828	0.098920	0.342395
O5	O	-1.468310	-0.099146	0.027189
O6	O	-1.277174	-0.099123	0.218330
O7	O	-1.642645	-0.099153	0.201523
Cu8	Cu	-1.455315	-0.117222	0.214516
Cu9	Cu	-1.514824	0.116995	0.155067
O10	O	-1.451509	-0.099130	0.392664
C11	C	-1.255536	-0.000094	0.191962
C12	C	-1.116095	-0.000083	0.188270
N13	N	-1.413469	-0.281957	0.256329
C14	C	-1.036610	-0.000079	0.300813
C15	C	-0.905585	-0.000097	0.297344
C16	C	-0.933543	-0.000117	0.068779
C17	C	-1.064564	-0.000107	0.072251
C18	C	-1.657167	-0.655936	0.012814
C19	C	-1.688822	-0.531278	-0.018822
C20	C	-1.619986	-0.468942	0.049962
C21	C	-1.519490	-0.531275	0.150390
C22	C	-1.487839	-0.655945	0.182036
C23	C	-1.450658	-0.468951	0.219184
C24	C	-1.350163	-0.531285	0.319611
C25	C	-1.318516	-0.655943	0.351252
C26	C	-1.387352	-0.718279	0.282467
C27	C	-1.482309	-0.344281	0.187538
C28	C	-1.312982	-0.344291	0.356760
C29	C	-1.281327	-0.468949	0.388396
C30	C	-0.714604	-0.000124	0.177626
C31	C	-0.854049	-0.000110	0.181329
C32	C	-1.492236	-0.000121	-0.044744
C33	C	-1.488545	-0.000119	-0.184187
N34	N	-1.556679	0.281731	0.113245
C35	C	-1.601085	-0.000127	-0.263673
C36	C	-1.597612	-0.000113	-0.394698
C37	C	-1.369049	-0.000085	-0.366736
C38	C	-1.372525	-0.000091	-0.235716
C39	C	-1.477903	-0.000103	0.414327
C40	C	-1.481596	-0.000097	0.553768
H41	H	-1.078560	-0.000068	0.395285
H42	H	-1.770645	-0.480530	-0.100588
F43	F	-1.211573	-0.722283	0.458147
F44	F	-1.149162	-0.000119	-0.047537
F45	F	-1.717393	-0.000120	-0.479289
F46	F	-0.820995	-0.000095	0.417128
F47	F	-1.245579	-0.000055	-0.421589
H48	H	-1.564133	-0.293540	0.105771
F49	F	-1.174374	-0.535302	0.495277
F50	F	-1.724563	-0.000155	-0.208837
H51	H	-1.280877	-0.000080	-0.170996
H52	H	-1.645764	-0.367439	0.024199
F53	F	-1.730426	-0.722282	-0.060373
F54	F	-1.353657	-0.850956	0.316133
F55	F	-0.878689	-0.000138	-0.054692
H56	H	-1.256931	-0.293537	0.412773
