data_functionalizedCrystal
_audit_creation_method	'MofGen! by Chris Wilmer'
_symmetry_space_group_name_H-M	'P1'
_symmetry_Int_Tables_number	1
_symmetry_cell_setting	triclinic
loop_
_symmetry_equiv_pos_as_xyz
  x,y,z
_cell_length_a	16.992694
_cell_length_b	23.532407
_cell_length_c	15.455313
_cell_angle_alpha	92.643560
_cell_angle_beta	87.142206
_cell_angle_gamma	86.758451
loop_
_atom_site_label
_atom_site_type_symbol
_atom_site_fract_x
_atom_site_fract_y
_atom_site_fract_z
O1	O	1.042902	0.118384	-0.072037
O2	O	0.814628	0.117059	-0.072062
O3	O	0.935648	0.035132	-0.072033
O4	O	0.921882	0.200311	-0.072066
O5	O	0.928727	0.039796	0.072228
O6	O	0.807707	0.121723	0.072198
O7	O	1.035981	0.123049	0.072224
Cu8	Cu	0.921212	0.122812	0.085383
Cu9	Cu	0.929397	0.117296	-0.085222
O10	O	0.914962	0.204976	0.072194
C11	C	0.781968	0.117688	0.000065
C12	C	0.694964	0.112604	0.000056
C13	C	0.931837	0.016231	0.000100
C14	C	0.930782	-0.047038	0.000106
C15	C	0.644342	0.161650	0.000047
C16	C	0.562592	0.156871	0.000060
C17	C	0.531466	0.103045	0.000076
C18	C	0.582095	0.053995	0.000088
C19	C	0.663843	0.058775	0.000081
C20	C	0.288022	0.083234	0.000103
C21	C	0.206267	0.078457	0.000107
C22	C	0.186770	0.181334	0.000081
C23	C	0.268521	0.186109	0.000069
C24	C	0.319142	0.137059	0.000085
N25	N	0.447905	0.098158	0.000086
N26	N	0.402701	0.141946	0.000081
C27	C	0.995791	-0.442917	0.000066
C28	C	0.994812	-0.502366	0.000059
O29	O	1.055075	-0.536121	0.000034
N30	N	0.922865	-0.528562	0.000052
C31	C	0.851893	-0.495307	0.000042
O32	O	0.790607	-0.523048	0.000035
C33	C	0.852873	-0.435859	0.000043
C34	C	0.924824	-0.409666	0.000059
C35	C	1.067736	-0.416723	0.000081
C36	C	1.068714	-0.357278	0.000089
C37	C	0.997748	-0.324027	0.000083
C38	C	0.925803	-0.350221	0.000067
C39	C	0.781902	-0.402605	0.000027
C40	C	0.782889	-0.343154	0.000027
C41	C	0.854839	-0.316960	0.000043
C42	C	0.855814	-0.257525	0.000069
N43	N	0.927761	-0.231328	0.000076
C44	C	0.998728	-0.264579	0.000083
C45	C	0.849841	-0.620151	0.000040
C46	C	0.848860	-0.679598	0.000046
C47	C	0.991779	-0.686653	0.000061
C48	C	0.992759	-0.627205	0.000061
C49	C	0.921788	-0.593955	0.000047
C50	C	1.000777	-0.139740	0.000101
C51	C	1.001749	-0.080289	0.000113
C52	C	0.858831	-0.073240	0.000093
C53	C	0.857858	-0.132685	0.000086
C54	C	0.928838	-0.165934	0.000087
O55	O	0.795583	-0.223733	0.000090
O56	O	1.060004	-0.236831	0.000079
C57	C	1.068641	0.122420	0.000095
C58	C	1.155645	0.127504	0.000098
C59	C	0.918772	0.223877	0.000060
C60	C	0.919827	0.287146	0.000048
N61	N	0.915462	0.126692	0.205377
N62	N	0.935153	0.113412	-0.205216
C63	C	0.966893	0.091901	0.250784
C64	C	0.962551	0.094840	0.341591
C65	C	0.906782	0.132574	0.386989
C66	C	0.855345	0.167366	0.341576
C67	C	0.859684	0.164424	0.250771
C68	C	0.888055	0.145261	0.658566
C69	C	0.883722	0.148203	0.749378
C70	C	0.990928	0.075676	0.749386
C71	C	0.995265	0.072738	0.658579
C72	C	0.943825	0.107529	0.613174
N73	N	0.902344	0.135581	0.479808
N74	N	0.948260	0.104518	0.520356
H75	H	0.521379	0.196809	0.000051
H76	H	0.817802	0.192753	0.213802
H77	H	0.669678	0.205481	0.000033
O78	O	0.713044	0.011153	0.000240
C79	C	0.757354	0.013263	0.074940
H80	H	0.724687	0.042701	0.127156
H81	H	0.765705	-0.031365	0.100029
H82	H	0.817498	0.030158	0.058041
H83	H	1.012310	0.061176	0.213826
O84	O	1.040856	0.041795	0.793400
C85	C	1.029595	-0.015864	0.771247
H86	H	1.002536	-0.019315	0.705319
H87	H	1.088875	-0.041300	0.768145
H88	H	0.988272	-0.033603	0.822363
H89	H	0.329228	0.043294	0.000117
O90	O	0.137710	0.229034	0.000033
C91	C	0.182712	0.277567	0.000042
H92	H	0.245149	0.265010	-0.027271
H93	H	0.154277	0.310807	-0.041845
H94	H	0.185099	0.296128	0.069248
O95	O	0.838057	0.179116	0.614602
C96	C	0.787895	0.213042	0.674147
H97	H	0.816936	0.217258	0.738869
H98	H	0.776832	0.257108	0.647898
H99	H	0.729355	0.192195	0.683825
O100	O	0.789926	-0.040914	-0.000070
C101	C	0.789825	-0.008714	-0.074772
H102	H	0.832587	-0.030320	-0.126983
H103	H	0.727842	-0.005719	-0.099867
H104	H	0.808964	0.035934	-0.057874
O105	O	0.713990	-0.310792	0.000131
C106	C	0.706678	-0.273797	0.074858
H107	H	0.767669	-0.267149	0.099780
H108	H	0.677925	-0.231043	0.058054
H109	H	0.668527	-0.293284	0.127167
H110	H	0.293858	0.229939	0.000046
O111	O	0.551830	0.001716	-0.000050
C112	C	0.508686	-0.006537	-0.074750
H113	H	0.530287	0.022403	-0.126979
H114	H	0.517581	-0.052896	-0.099818
H115	H	0.443303	0.004207	-0.057858
H116	H	1.004430	0.066510	0.378560
H117	H	1.040677	0.042013	0.621617
O118	O	1.060706	-0.718988	-0.000096
C119	C	1.067979	-0.756001	-0.074804
H120	H	1.030226	-0.737760	-0.127022
H121	H	1.132369	-0.760609	-0.099882
H122	H	1.047223	-0.799561	-0.057919
O123	O	1.136666	-0.449046	-0.000064
C124	C	1.143968	-0.486066	-0.074765
H125	H	1.106215	-0.467840	-0.126995
H126	H	1.208363	-0.490659	-0.099830
H127	H	1.123232	-0.529631	-0.057874
H128	H	0.180928	0.034624	0.000119
O129	O	0.780939	-0.587790	0.000154
C130	C	0.773632	-0.550794	0.074880
H131	H	0.834626	-0.544143	0.099794
H132	H	0.744874	-0.508040	0.058076
H133	H	0.735488	-0.570280	0.127193
H134	H	0.809932	0.198088	0.378545
H135	H	1.051348	-0.605882	0.000074
O136	O	0.711941	-0.427950	-0.000031
C137	C	0.649525	-0.385842	-0.000021
H138	H	0.672497	-0.345383	-0.027322
H139	H	0.601273	-0.401891	-0.041919
H140	H	0.624331	-0.376203	0.069183
O141	O	0.778899	-0.704948	0.000001
C142	C	0.716477	-0.662844	0.000020
H143	H	0.739441	-0.622383	-0.027283
H144	H	0.668223	-0.678896	-0.041870
H145	H	0.691290	-0.653207	0.069228
O146	O	1.071717	-0.054939	0.000087
C147	C	1.134140	-0.097039	0.000109
H148	H	1.113799	-0.139259	-0.027209
H149	H	1.186410	-0.083682	-0.041766
H150	H	1.152689	-0.102219	0.069320
H151	H	1.127304	-0.335957	0.000099
O152	O	1.069669	-0.172089	0.000222
C153	C	1.069807	-0.204269	0.074944
H154	H	1.006424	-0.209317	0.099840
H155	H	1.100180	-0.248104	0.058143
H156	H	1.102929	-0.181409	0.127271
H157	H	0.838305	0.178933	0.786337
H158	H	0.799269	-0.154012	0.000097
