data_functionalizedCrystal
_audit_creation_method	'MofGen! by Chris Wilmer'
_symmetry_space_group_name_H-M	'P1'
_symmetry_Int_Tables_number	1
_symmetry_cell_setting	triclinic
loop_
_symmetry_equiv_pos_as_xyz
  x,y,z
_cell_length_a	14.560438
_cell_length_b	14.560438
_cell_length_c	14.560438
_cell_angle_alpha	90.000443
_cell_angle_beta	120.005767
_cell_angle_gamma	119.996635
loop_
_atom_site_label
_atom_site_type_symbol
_atom_site_fract_x
_atom_site_fract_y
_atom_site_fract_z
Zr1	Zr	-1.005342	0.884773	-0.120634
O2	O	-1.196952	0.738129	-0.267301
O3	O	-0.813732	0.929724	-0.075660
O4	O	-1.005345	0.929726	-0.267283
O5	O	-1.005336	0.738130	0.075463
O6	O	-1.005348	1.080864	-0.267285
O7	O	-1.005339	0.738128	-0.075678
O8	O	-0.662586	1.080862	0.075495
O9	O	-1.348098	0.738132	-0.267317
O10	O	-0.892546	1.061692	-0.056495
O11	O	-0.892542	0.948901	0.056300
O12	O	-1.118142	0.948902	-0.169312
O13	O	-1.118138	0.836111	-0.056517
Zr14	Zr	-1.005342	1.125825	0.120416
Zr15	Zr	-1.005346	1.125821	-0.120636
Zr16	Zr	-1.005338	0.884777	0.120418
Zr17	Zr	-1.246402	0.884778	-0.120659
Zr18	Zr	-0.764282	1.125820	0.120441
O19	O	-1.196952	1.080874	0.075441
O20	O	-1.196958	1.080868	-0.267304
O21	O	-1.196946	0.738134	0.075444
O22	O	-0.813731	1.272469	0.267083
O23	O	-0.813737	1.272464	-0.075662
O24	O	-0.813725	0.929730	0.267086
O25	O	-1.005348	1.272468	-0.075681
O26	O	-1.005338	1.080872	0.267065
O27	O	-1.005336	0.929734	0.267066
O28	O	-1.005345	1.272470	0.075459
O29	O	-1.348101	0.929733	-0.267318
O30	O	-0.662582	1.080865	0.267100
O31	O	-0.662586	1.272466	0.267099
O32	O	-0.662589	1.272463	0.075494
O33	O	-1.348094	0.738135	-0.075712
O34	O	-1.348098	0.929736	-0.075714
O35	O	-0.892542	1.061696	0.169094
O36	O	-0.892545	1.174487	0.056298
O37	O	-1.118142	1.061697	-0.056518
O38	O	-1.118138	0.948906	0.056277
C39	C	-0.703813	1.005292	-0.000079
C40	C	-0.601477	1.005290	-0.000068
C41	C	-0.636691	0.922024	-0.083351
C42	C	-0.540550	0.922027	-0.083377
C43	C	-0.373982	1.088568	0.083175
C44	C	-0.470122	1.088568	0.083194
C45	C	-1.005337	0.703785	-0.000107
C46	C	-1.005335	0.601453	-0.000106
C47	C	-0.306868	1.005302	-0.000130
C48	C	-0.409196	1.005293	-0.000113
C49	C	-0.887578	0.612250	0.058779
C50	C	-0.887584	0.516095	0.058780
C51	C	-1.123115	0.398350	-0.058999
C52	C	-1.123107	0.494504	-0.058992
C53	C	-1.005347	1.005294	-0.301629
C54	C	-1.005349	1.005293	-0.403962
C55	C	-1.005347	1.306813	-0.000111
C56	C	-1.005349	1.409145	-0.000112
C57	C	-1.123098	0.946427	-0.607081
C58	C	-1.123107	0.946417	-0.510934
C59	C	-0.887576	1.064173	-0.393139
C60	C	-0.887569	1.064175	-0.489286
C61	C	-1.005336	1.005304	0.301411
C62	C	-1.005334	1.005305	0.403744
C63	C	-0.703818	1.306807	-0.000081
C64	C	-0.601484	1.409136	-0.000071
C65	C	-0.703807	1.005297	0.301441
C66	C	-0.601470	1.005296	0.403784
C67	C	-0.703813	1.306811	0.301439
C68	C	-0.601476	1.409142	0.403781
C69	C	-1.306871	0.703787	-0.301657
C70	C	-1.409207	0.601456	-0.404000
C71	C	-1.306866	0.703791	-0.000137
C72	C	-1.409200	0.601462	-0.000147
C73	C	-1.306876	1.005301	-0.301659
C74	C	-1.409214	1.005302	-0.404003
C75	C	-0.553404	1.398335	-0.058941
C76	C	-0.457258	1.494488	-0.058936
C77	C	-0.457275	1.612238	0.058818
C78	C	-0.553426	1.516087	0.058806
C79	C	-0.553389	1.064173	0.510743
C80	C	-0.457240	1.064159	0.606901
C81	C	-0.457258	0.946392	0.489130
C82	C	-0.553411	0.946399	0.392973
C83	C	-0.553398	1.516093	0.392987
C84	C	-0.457251	1.612240	0.489153
C85	C	-0.457264	1.494471	0.606904
C86	C	-0.553416	1.398327	0.510739
H87	H	-0.267023	1.156369	0.150965
O88	O	-0.599942	1.294509	0.521423
C89	C	-0.536922	1.305577	0.636445
H90	H	-0.439456	1.391371	0.687744
H91	H	-0.599985	1.297700	0.664764
C92	C	-0.634266	1.107041	0.591534
C93	C	-0.514551	1.212411	0.654538
H94	H	-0.620471	1.049570	0.602696
H95	H	-0.676728	1.099583	0.514041
H96	H	-0.686807	1.100493	0.615140
H97	H	-0.462020	1.218964	0.630922
H98	H	-0.472080	1.219869	0.732028
H99	H	-0.592520	1.112126	0.519552
H100	H	-0.791695	0.524896	0.106731
H101	H	-0.569235	0.854225	-0.151195
H102	H	-0.418134	1.699327	0.106756
H103	H	-0.592562	0.898450	0.305877
H104	H	-0.592528	1.524905	0.305901
H105	H	-0.418099	1.112100	0.693989
H106	H	-0.592577	1.524889	0.106745
H107	H	-0.418110	1.699322	0.480356
O108	O	-0.764227	0.841084	-0.164346
C109	C	-0.774686	0.767579	-0.237843
H110	H	-0.681744	0.812439	-0.233890
H111	H	-0.790051	0.690157	-0.211633
C112	C	-1.005057	0.676170	-0.363729
C113	C	-0.890908	0.731272	-0.358881
H114	H	-1.076752	0.653770	-0.438390
H115	H	-0.998013	0.725689	-0.314211
H116	H	-1.017844	0.611659	-0.341881
H117	H	-0.878115	0.795789	-0.380714
H118	H	-0.897953	0.681763	-0.408406
O119	O	-0.410373	0.889298	0.478833
C120	C	-0.315210	0.901899	0.586637
H121	H	-0.273162	0.981413	0.650380
H122	H	-0.361200	0.825822	0.611126
C123	C	-0.257580	0.813358	0.506921
C124	C	-0.205927	0.911025	0.585209
H125	H	-0.190171	0.818983	0.506040
H126	H	-0.321696	0.804864	0.434290
H127	H	-0.295904	0.749971	0.527337
H128	H	-0.167620	0.974408	0.564784
H129	H	-0.141802	0.919530	0.657837
O130	O	-1.237549	0.294487	-0.116070
C131	C	-1.309212	0.282169	-0.072811
H132	H	-1.240311	0.343034	0.016949
H133	H	-1.382628	0.301285	-0.127409
C134	C	-1.466021	0.085914	-0.183299
C135	C	-1.381394	0.160663	-0.073050
H136	H	-1.510551	0.010964	-0.183451
H137	H	-1.417744	0.094214	-0.212448
H138	H	-1.527189	0.101858	-0.228786
H139	H	-1.320219	0.144728	-0.027570
H140	H	-1.429663	0.152358	-0.043894
O141	O	-0.435691	1.169511	0.164212
C142	C	-0.299140	1.243024	0.237687
H143	H	-0.255009	1.198169	0.233717
H144	H	-0.263329	1.320442	0.211467
C145	C	-0.312170	1.334432	0.363606
C146	C	-0.257968	1.279336	0.358736
H147	H	-0.286771	1.356835	0.438274
H148	H	-0.404167	1.284907	0.314103
H149	H	-0.282322	1.398940	0.341750
H150	H	-0.287828	1.214822	0.380578
H151	H	-0.165975	1.328851	0.408246
O152	O	-0.773063	0.716055	0.116087
C153	C	-0.669131	0.704959	0.168040
H154	H	-0.703664	0.619156	0.179686
H155	H	-0.632919	0.712838	0.112867
C156	C	-0.515455	0.903486	0.269286
C157	C	-0.557866	0.798105	0.283598
H158	H	-0.446819	0.960945	0.340565
H159	H	-0.585475	0.910963	0.234281
H160	H	-0.485288	0.910036	0.223304
H161	H	-0.588048	0.791551	0.329567
H162	H	-0.487848	0.790629	0.318613
H163	H	-1.219005	0.485705	-0.106941
H164	H	-0.418120	1.485678	0.693999
H165	H	-1.218990	0.898489	-0.694178
O166	O	-0.773302	1.121350	-0.289145
C167	C	-0.798556	1.108706	-0.206602
H168	H	-0.899768	1.087018	-0.244089
H169	H	-0.792967	1.038219	-0.176517
C170	C	-0.572663	1.246043	-0.060393
C171	C	-0.696969	1.219415	-0.106434
H172	H	-0.509997	1.314331	0.001398
H173	H	-0.555646	1.254559	-0.116003
H174	H	-0.568024	1.187295	-0.035331
H175	H	-0.701612	1.278155	-0.131507
H176	H	-0.713984	1.210911	-0.050826
H177	H	-1.219002	0.898471	-0.519758
H178	H	-0.791666	1.112121	-0.480463
H179	H	-0.592541	1.311255	-0.106895
H180	H	-0.418118	1.485684	-0.106876
