data_functionalizedCrystal
_audit_creation_method	'MofGen! by Chris Wilmer'
_symmetry_space_group_name_H-M	'P1'
_symmetry_Int_Tables_number	1
_symmetry_cell_setting	triclinic
loop_
_symmetry_equiv_pos_as_xyz
  x,y,z
_cell_length_a	17.052862
_cell_length_b	17.052862
_cell_length_c	17.052862
_cell_angle_alpha	87.392617
_cell_angle_beta	61.493325
_cell_angle_gamma	79.481156
loop_
_atom_site_label
_atom_site_type_symbol
_atom_site_fract_x
_atom_site_fract_y
_atom_site_fract_z
Zr1	Zr	1.036139	0.854401	-0.344061
O2	O	1.143122	0.772988	-0.458506
O3	O	0.887224	0.861434	-0.291052
O4	O	1.015173	0.900937	-0.458504
O5	O	1.046333	0.722713	-0.179356
O6	O	1.046334	1.022256	-0.478894
O7	O	1.015173	0.733485	-0.291054
O8	O	0.817456	0.951591	-0.179353
O9	O	1.275211	0.793378	-0.478897
O10	O	0.987260	0.976628	-0.305318
O11	O	0.987260	0.878051	-0.206743
O12	O	1.137904	0.924561	-0.403896
O13	O	1.137903	0.825984	-0.305320
Zr14	Zr	1.135534	1.030712	-0.198435
Zr15	Zr	1.085837	1.047890	-0.376581
Zr16	Zr	1.085836	0.837222	-0.165916
Zr17	Zr	1.246806	0.886921	-0.376583
Zr18	Zr	0.924867	0.998192	-0.165914
O19	O	1.284449	1.023679	-0.251444
O20	O	1.213786	1.048105	-0.504744
O21	O	1.213785	0.748562	-0.205206
O22	O	1.028551	1.112125	-0.083990
O23	O	0.957888	1.136550	-0.337290
O24	O	0.957887	0.837008	-0.037752
O25	O	1.125340	1.162399	-0.363141
O26	O	1.156500	0.984175	-0.083992
O27	O	1.125339	0.862857	-0.063602
O28	O	1.156500	1.151628	-0.251443
O29	O	1.314715	0.947176	-0.504746
O30	O	0.856958	0.937937	-0.037751
O31	O	0.896462	1.091735	-0.063599
O32	O	0.856959	1.105389	-0.205201
O33	O	1.314714	0.779723	-0.337295
O34	O	1.354217	0.933521	-0.363144
O35	O	1.033769	0.960551	-0.138600
O36	O	1.033770	1.059128	-0.237176
O37	O	1.184413	1.007062	-0.335754
O38	O	1.184413	0.908485	-0.237178
C39	C	0.822324	0.901879	-0.230569
C40	C	0.732891	0.888074	-0.216763
C41	C	1.023672	0.700531	-0.230572
C42	C	1.002574	0.618390	-0.216766
C43	C	0.480797	1.054982	-0.383680
C44	C	0.564827	1.067952	-0.396657
C45	C	0.606847	1.022984	-0.351684
C46	C	0.564829	0.965043	-0.293732
C47	C	0.480794	0.952068	-0.280759
C48	C	0.606844	0.920069	-0.248764
C49	C	0.564826	0.862129	-0.190812
C50	C	0.480799	0.849157	-0.177841
C51	C	0.438779	0.894125	-0.222813
C52	C	0.690879	0.933045	-0.261737
C53	C	0.690876	0.830130	-0.158817
C54	C	0.606846	0.817161	-0.145840
C55	C	1.257650	0.278131	-0.383674
C56	C	1.277476	0.355305	-0.396643
C57	C	1.208753	0.421080	-0.351675
C58	C	1.120199	0.409673	-0.293735
C59	C	1.100372	0.332490	-0.280760
C60	C	1.051474	0.475440	-0.248761
C61	C	0.962920	0.464033	-0.190821
C62	C	0.943097	0.386857	-0.177849
C63	C	1.011821	0.321083	-0.222816
C64	C	1.071301	0.552622	-0.261737
C65	C	0.914023	0.606982	-0.158823
C66	C	0.894197	0.529808	-0.145854
C67	C	1.349349	0.983233	-0.311928
C68	C	1.438782	0.997039	-0.325734
C69	C	1.023673	0.964044	-0.494081
C70	C	1.002575	0.971337	-0.569709
C71	C	1.148001	1.184582	-0.311925
C72	C	1.169099	1.266723	-0.325730
C73	C	1.257647	0.883168	-0.988719
C74	C	1.277472	0.876312	-0.917665
C75	C	1.208750	0.900068	-0.830673
C76	C	1.120199	0.930681	-0.814741
C77	C	1.100372	0.937532	-0.885802
C78	C	1.051474	0.954432	-0.727755
C79	C	0.962923	0.985045	-0.711824
C80	C	0.943100	0.991896	-0.782878
C81	C	1.011822	0.968140	-0.869870
C82	C	1.071301	0.947580	-0.656695
C83	C	0.914026	1.001944	-0.553777
C84	C	0.894201	1.008801	-0.624832
C85	C	1.148000	0.921069	-0.048415
C86	C	1.169098	0.913776	0.027212
C87	C	0.884489	1.143904	-0.271246
C88	C	0.816153	1.212240	-0.271245
C89	C	0.884488	0.880391	-0.007736
C90	C	0.816152	0.859293	0.081698
C91	C	0.946652	1.122417	-0.048413
C92	C	0.899414	1.183460	0.027216
C93	C	1.225021	0.762696	-0.494084
C94	C	1.272259	0.701653	-0.569712
C95	C	1.287184	0.741208	-0.271251
C96	C	1.355520	0.672872	-0.271252
C97	C	1.287185	1.004721	-0.534760
C98	C	1.355521	1.025819	-0.624194
C99	C	0.759783	1.201268	-0.306821
C100	C	0.695579	1.265472	-0.306838
C101	C	0.687743	1.340647	-0.271271
C102	C	0.744122	1.351619	-0.235694
C103	C	0.808329	1.287417	-0.235684
C104	C	0.808340	0.892449	0.159274
C105	C	0.744144	0.872622	0.243312
C106	C	0.687756	0.819645	0.249771
C107	C	0.695572	0.786485	0.172187
C108	C	0.759772	0.806307	0.088151
C109	C	0.877233	1.263590	0.011275
C110	C	0.832860	1.320957	0.082326
C111	C	0.810663	1.298190	0.169318
C112	C	0.832850	1.218051	0.185257
C113	C	0.877228	1.160688	0.114206
C114	C	1.294450	0.621524	-0.553773
C115	C	1.338849	0.564162	-0.624828
C116	C	1.361051	0.586929	-0.711821
C117	C	1.338859	0.667067	-0.727759
C118	C	1.294466	0.724428	-0.656706
C119	C	1.411897	0.683847	-0.235684
C120	C	1.476118	0.619648	-0.235691
C121	C	1.483956	0.544473	-0.271260
C122	C	1.427574	0.533501	-0.306833
C123	C	1.363359	0.597700	-0.306832
C124	C	1.411892	1.078800	-0.630625
C125	C	1.476096	1.098639	-0.714652
C126	C	1.483932	1.065493	-0.792247
C127	C	1.427553	1.012510	-0.785813
C128	C	1.363346	0.992676	-0.701787
H129	H	0.725082	0.980220	-0.308923
C130	C	0.990021	0.236182	-0.208536
N131	N	0.973606	0.172232	-0.197775
C132	C	0.870325	1.299497	-0.196533
N133	N	0.917017	1.308602	-0.167042
H134	H	0.737733	1.412835	-0.206738
H135	H	0.858066	1.021285	-0.482944
H136	H	0.995686	0.973722	-0.927733
C137	C	0.611038	1.131687	-0.460399
N138	N	0.645844	1.179698	-0.508410
H139	H	0.635458	1.392918	-0.271284
C140	C	1.168707	0.565161	-0.325476
N141	N	1.242079	0.574603	-0.373492
C142	C	0.633533	0.728214	0.179308
N143	N	0.586799	0.684328	0.184675
H144	H	0.822103	1.033726	-0.611872
C145	C	1.333230	0.857038	-1.084408
N146	N	1.390164	0.837354	-1.156485
H147	H	0.725090	0.793512	-0.122199
C148	C	1.403284	1.115276	-0.545280
N149	N	1.396801	1.142758	-0.481002
H150	H	0.854248	0.935586	0.154030
H151	H	0.774527	1.344907	0.227164
C152	C	1.363250	0.476015	-0.607275
N153	N	1.381628	0.409624	-0.594052
H154	H	0.649680	1.256523	-0.335808
H155	H	1.317455	0.588753	-0.335792
C156	C	1.270047	0.812570	-0.674253
N157	N	1.251655	0.878958	-0.687475
C158	C	0.845689	1.025559	-0.765347
N159	N	0.772317	1.050913	-0.752141
H160	H	0.737791	0.899632	0.306474
H161	H	1.536248	0.492204	-0.271256
C162	C	0.346347	0.879853	-0.208551
N163	N	0.276729	0.869102	-0.197815
C164	C	0.768390	1.118582	-0.345956
N165	N	0.774873	1.056305	-0.375441
C166	C	0.617131	0.797856	0.342221
N167	N	0.563933	0.781451	0.411856
H168	H	0.766120	0.779308	0.024990
H169	H	0.895299	1.282142	-0.059553
C170	C	1.374880	0.367848	-0.460384
N171	N	1.448249	0.377295	-0.508403
H172	H	0.675268	1.033547	-0.362254
H173	H	1.433966	0.472285	-0.335793
C174	C	0.845684	0.374313	-0.114115
N175	N	0.772311	0.364867	-0.066115
H176	H	0.814799	1.386205	0.069332
C177	C	0.808417	1.193018	0.280958
N178	N	0.790007	1.174165	0.353042
C179	C	0.796791	0.517248	-0.082117
N180	N	0.723425	0.507787	-0.034109
H181	H	0.895280	1.095441	0.127199
H182	H	0.446582	1.091586	-0.420296
C183	C	0.838421	0.679332	-0.109357
N184	N	0.781483	0.733830	-0.072103
C185	C	1.409875	0.523819	-0.789971
N186	N	1.446645	0.476279	-0.848830
H187	H	1.313597	0.224572	-0.420273
H188	H	1.276373	0.602970	-0.482943
C189	C	1.538123	0.631733	-0.196547
N190	N	1.584821	0.640837	-0.167062
C191	C	1.363276	0.692097	-0.823457
N192	N	1.381662	0.710947	-0.895538
C193	C	1.538109	1.156918	-0.721709
N194	N	1.584815	1.200812	-0.727021
C195	C	1.554568	1.087318	-0.884671
N196	N	1.607775	1.103758	-0.954284
H197	H	1.224901	0.483917	-0.362238
C198	C	1.436153	0.976086	-0.871178
N199	N	1.442624	0.948661	-0.935477
H200	H	1.317452	0.949532	-0.696563
C201	C	0.434554	0.785456	-0.114047
N202	N	0.399711	0.737493	-0.065978
C203	C	1.374876	0.842645	-0.935195
N204	N	1.448247	0.817288	-0.948402
H205	H	0.572624	0.769985	-0.098655
H206	H	1.143400	0.922653	-0.669675
H207	H	1.224896	0.894483	-0.772820
H208	H	1.405524	0.745051	-0.206713
