data_functionalizedCrystal
_audit_creation_method	'MofGen! by Chris Wilmer'
_symmetry_space_group_name_H-M	'P1'
_symmetry_Int_Tables_number	1
_symmetry_cell_setting	triclinic
loop_
_symmetry_equiv_pos_as_xyz
  x,y,z
_cell_length_a	10.654545
_cell_length_b	19.188925
_cell_length_c	9.130313
_cell_angle_alpha	89.995839
_cell_angle_beta	89.996934
_cell_angle_gamma	83.812814
loop_
_atom_site_label
_atom_site_type_symbol
_atom_site_fract_x
_atom_site_fract_y
_atom_site_fract_z
O1	O	1.665765	0.098047	-0.121784
O2	O	1.300087	0.107393	-0.121790
O3	O	1.493482	0.001133	-0.121778
O4	O	1.472370	0.204307	-0.121795
O5	O	1.493469	0.001130	0.121821
O6	O	1.300074	0.107390	0.121809
O7	O	1.665751	0.098044	0.121815
Cu8	Cu	1.482912	0.102717	0.144055
Cu9	Cu	1.482927	0.102720	-0.144029
O10	O	1.472357	0.204304	0.121804
C11	C	1.253297	0.106706	0.000009
C12	C	1.113897	0.104655	0.000007
C13	C	1.048406	0.103688	0.132794
C14	C	0.917428	0.101749	0.132794
C15	C	0.917443	0.101748	-0.132791
C16	C	1.048420	0.103681	-0.132790
C17	C	1.492793	-0.024884	0.000020
C18	C	1.490744	-0.102402	0.000017
C19	C	1.590502	-0.663521	-0.000018
C20	C	1.592438	-0.590685	-0.000005
C21	C	1.478960	-0.546492	-0.000007
C22	C	1.363538	-0.575139	0.000015
C23	C	1.361605	-0.647974	0.000016
N24	N	1.396811	-0.426347	-0.082923
N25	N	1.398655	-0.357157	-0.082927
C26	C	1.484777	-0.327044	-0.000008
N27	N	1.569004	-0.368736	0.082898
N28	N	1.567164	-0.437932	0.082896
C29	C	1.481043	-0.467514	-0.000008
C30	C	1.602292	-0.219428	-0.000005
C31	C	1.604223	-0.146590	0.000017
C32	C	1.375319	-0.131046	0.000022
C33	C	1.373391	-0.203883	0.000014
C34	C	1.486881	-0.248069	-0.000006
C35	C	1.712542	0.098731	0.000013
C36	C	1.851942	0.100782	0.000006
C37	C	1.473046	0.230321	0.000002
C38	C	1.475095	0.307839	-0.000004
N39	N	1.482910	0.102714	0.346677
N40	N	1.482939	0.102718	-0.346652
C41	C	1.568574	0.055682	0.423334
C42	C	1.568586	0.055682	0.576671
C43	C	1.397266	0.149752	0.576681
C44	C	1.397249	0.149748	0.423347
H45	H	1.101745	0.104467	-0.240927
H46	H	1.327525	0.188047	0.639120
H47	H	1.327485	0.188047	0.360928
H48	H	0.864110	0.100961	0.240922
O49	O	1.111988	0.104501	0.261824
C50	C	1.166555	0.044727	0.488858
C51	C	1.094520	0.043713	0.342767
H52	H	1.152436	-0.004407	0.554355
H53	H	1.271444	0.046231	0.466141
H54	H	1.129039	0.093141	0.554278
H55	H	1.131930	-0.004694	0.277273
H56	H	0.989640	0.042246	0.365587
O57	O	0.853744	0.100932	-0.261743
C58	C	0.691252	0.159112	-0.415837
C59	C	0.763309	0.160126	-0.269760
H60	H	0.618101	0.206957	-0.422353
H61	H	0.760493	0.160179	-0.510805
H62	H	0.641758	0.109413	-0.422451
H63	H	0.812807	0.209817	-0.263003
H64	H	0.694010	0.159022	-0.174861
O65	O	1.651751	0.009901	0.650974
C66	C	1.725984	-0.111120	0.697965
C67	C	1.631747	-0.059347	0.613702
H68	H	1.709827	-0.167119	0.667886
H69	H	1.826532	-0.101558	0.667766
H70	H	1.711301	-0.103007	0.820720
H71	H	1.646315	-0.067430	0.490928
H72	H	1.531234	-0.068923	0.644023
O73	O	1.700858	-0.706342	0.000045
C74	C	1.928098	-0.714069	-0.000046
C75	C	1.803216	-0.665492	-0.000090
H76	H	2.010887	-0.681062	-0.000186
H77	H	1.933002	-0.748544	0.101928
H78	H	1.932851	-0.748571	-0.101964
H79	H	1.798379	-0.630947	0.101759
H80	H	1.798364	-0.631065	-0.102131
H81	H	1.694702	-0.255407	-0.000021
H82	H	1.267623	-0.671291	0.000031
O83	O	1.704470	-0.562770	-0.000224
C84	C	1.839497	-0.489584	-0.126510
C85	C	1.712569	-0.521136	-0.126422
H86	H	1.846098	-0.455927	-0.228545
H87	H	1.846150	-0.455828	-0.024639
H88	H	1.920259	-0.533686	-0.126451
H89	H	1.631734	-0.477078	-0.126531
H90	H	1.706026	-0.554910	-0.228283
H91	H	1.698205	-0.123274	0.000015
O92	O	1.253339	-0.532184	-0.000251
C93	C	1.122715	-0.440898	-0.126412
C94	C	1.247552	-0.489515	-0.126318
H95	H	1.118008	-0.406377	-0.228310
H96	H	1.039844	-0.473847	-0.126497
H97	H	1.117914	-0.406443	-0.024423
H98	H	1.252476	-0.523979	-0.228289
H99	H	1.330364	-0.456524	-0.126156
H100	H	1.282923	-0.095065	0.000033
H101	H	1.279414	-0.227201	0.000015
H102	H	1.638322	0.017383	0.360914
