data_functionalizedCrystal
_audit_creation_method	'MofGen! by Chris Wilmer'
_symmetry_space_group_name_H-M	'P1'
_symmetry_Int_Tables_number	1
_symmetry_cell_setting	triclinic
loop_
_symmetry_equiv_pos_as_xyz
  x,y,z
_cell_length_a	12.594517
_cell_length_b	29.839131
_cell_length_c	12.594509
_cell_angle_alpha	90.030796
_cell_angle_beta	90.011478
_cell_angle_gamma	90.037589
loop_
_atom_site_label
_atom_site_type_symbol
_atom_site_fract_x
_atom_site_fract_y
_atom_site_fract_z
Zn1	Zn	1.627077	-0.178889	0.601561
Zn2	Zn	1.626888	-0.254024	0.423575
Zn3	Zn	1.449081	-0.178903	0.423621
Zn4	Zn	1.448984	-0.253987	0.601535
O5	O	1.538008	-0.216451	0.512573
O6	O	1.775998	-0.188865	0.577943
O7	O	1.603264	-0.244080	0.274635
O8	O	1.472812	-0.116034	0.447255
O9	O	1.775859	-0.244066	0.447177
O10	O	1.603585	-0.116024	0.577987
O11	O	1.472629	-0.188889	0.274669
O12	O	1.300122	-0.188854	0.447230
O13	O	1.472646	-0.244004	0.750485
O14	O	1.300051	-0.244018	0.577943
O15	O	1.603491	-0.188830	0.750504
O16	O	1.603169	-0.316886	0.447152
O17	O	1.472463	-0.316859	0.577898
C18	C	1.261467	-0.216434	0.512589
C19	C	1.143161	-0.216437	0.512621
C20	C	1.073900	-0.246500	0.583579
C21	C	1.003135	-0.205539	0.609761
C22	C	1.003127	-0.257433	0.486415
C23	C	1.073954	-0.175454	0.538855
C24	C	1.073953	-0.227376	0.415463
C25	C	1.003220	-0.186386	0.441609
C26	C	1.537814	-0.333174	0.512540
C27	C	1.537829	-0.383108	0.512562
C28	C	1.469993	-0.739697	0.580648
C29	C	1.469852	-0.552024	0.580615
O30	O	1.411944	-0.527761	0.638484
N31	N	1.537941	-0.528553	0.512594
C32	C	1.606075	-0.552003	0.444581
O33	O	1.663993	-0.527734	0.386732
C34	C	1.606220	-0.739676	0.444620
C35	C	1.538119	-0.763144	0.512638
C36	C	1.401898	-0.763165	0.648662
C37	C	1.401930	-0.810081	0.648665
C38	C	1.470056	-0.833528	0.580655
C39	C	1.538151	-0.810059	0.512642
C40	C	1.674359	-0.763125	0.376614
C41	C	1.674391	-0.810046	0.376631
C42	C	1.606290	-0.833515	0.444650
C43	C	1.606309	-0.880422	0.444636
N44	N	1.538220	-0.903893	0.512657
C45	C	1.470094	-0.880446	0.580667
C46	C	1.605992	-0.453473	0.444564
C47	C	1.605955	-0.406555	0.444552
C48	C	1.469733	-0.406579	0.580588
C49	C	1.469766	-0.453497	0.580593
C50	C	1.537903	-0.476944	0.512585
C51	C	1.470165	-0.978971	0.580668
C52	C	1.470200	-1.025891	0.580663
C53	C	1.606425	-1.025863	0.444631
C54	C	1.606387	-0.978948	0.444633
C55	C	1.538253	-0.955503	0.512660
O56	O	1.664195	-0.904714	0.386805
O57	O	1.412201	-0.904723	0.638524
C58	C	1.469961	-0.692781	0.580645
C59	C	1.538056	-0.669313	0.512631
C60	C	1.606182	-0.692760	0.444622
C61	C	1.538018	-0.622395	0.512620
C62	C	1.469892	-0.598948	0.580630
C63	C	1.401803	-0.622419	0.648651
C64	C	1.401835	-0.669334	0.648655
C65	C	1.674271	-0.669289	0.376600
C66	C	1.674233	-0.622374	0.376601
C67	C	1.606106	-0.598927	0.444611
C68	C	1.815628	-0.216468	0.512557
C69	C	1.933934	-0.216476	0.512551
C70	C	1.538079	-0.216412	0.790194
C71	C	1.538109	-0.216395	0.908500
C72	C	1.538231	-0.099273	0.512629
C73	C	1.538326	-0.049338	0.512653
C74	C	1.537998	-0.216458	0.236032
C75	C	1.538174	-0.216348	0.117727
C76	C	1.466965	-0.246387	0.977742
C77	C	1.564074	-0.257367	1.048515
C78	C	1.441076	-0.205388	1.048526
C79	C	1.635269	-0.227396	0.977714
C80	C	1.512205	-0.175398	0.977719
C81	C	1.609381	-0.186362	1.048459
H82	H	0.972028	-0.196300	0.691896
C83	C	1.386651	-0.280223	0.936476
C84	C	1.285399	-0.269048	0.973916
C85	C	1.211396	-0.300211	0.935934
H86	H	1.386595	-0.279841	0.861061
H87	H	1.405184	-0.309326	0.960750
H88	H	1.266871	-0.239953	0.949636
H89	H	1.285421	-0.269433	1.049326
H90	H	1.229929	-0.329314	0.960207
H91	H	1.211349	-0.299827	0.860519
H92	H	1.142690	-0.292636	0.961338
C93	C	1.593159	-0.303563	1.090139
C94	C	1.510066	-0.320022	1.152853
C95	C	1.536817	-0.362574	1.191222
H96	H	1.604877	-0.323288	1.032098
H97	H	1.655950	-0.301535	1.131687
H98	H	1.447294	-0.322052	1.111307
H99	H	1.498336	-0.300308	1.210910
H100	H	1.599608	-0.360546	1.232770
H101	H	1.548535	-0.382296	1.133175
H102	H	1.480448	-0.373745	1.233786
C103	C	0.962146	-0.152402	0.361697
C104	C	0.998208	-0.109589	0.389589
C105	C	0.960378	-0.078270	0.316013
H106	H	0.987443	-0.159850	0.292872
H107	H	0.886716	-0.152745	0.361708
H108	H	1.073622	-0.109248	0.389567
H109	H	0.972913	-0.102127	0.458403
H110	H	0.884948	-0.078613	0.316024
H111	H	0.985678	-0.085723	0.247192
H112	H	0.984832	-0.049218	0.334933
C113	C	1.680259	-1.051295	0.370606
C114	C	1.657119	-1.039924	0.265276
C115	C	1.725109	-1.063346	0.197055
H116	H	1.751796	-1.043592	0.386100
H117	H	1.670523	-1.082604	0.380273
H118	H	1.666864	-1.008623	0.255614
H119	H	1.585594	-1.047629	0.249749
H120	H	1.715373	-1.094655	0.206722
H121	H	1.796642	-1.055641	0.212558
H122	H	1.709412	-1.055637	0.125580
H123	H	1.104938	-0.271874	0.643662
H124	H	1.104935	-0.140791	0.561083
H125	H	1.490232	-0.140758	0.946598
H126	H	1.669642	-0.160979	1.079314
C127	C	1.744667	-0.239855	0.936216
C128	C	1.743336	-0.239764	0.825055
C129	C	1.844086	-0.251246	0.786788
H130	H	1.795358	-0.218685	0.960881
H131	H	1.763213	-0.268882	0.960987
H132	H	1.724803	-0.210741	0.800294
H133	H	1.692666	-0.260934	0.800361
H134	H	1.862632	-0.280273	0.811559
H135	H	1.894769	-0.230076	0.811460
H136	H	1.843194	-0.251191	0.711362
C137	C	1.327772	-0.694834	0.722335
C138	C	1.259578	-0.721805	0.662031
C139	C	1.191327	-0.745295	0.729873
H140	H	1.368348	-0.713144	0.768771
H141	H	1.287138	-0.674160	0.762816
H142	H	1.300208	-0.742478	0.621567
H143	H	1.218979	-0.703507	0.615597
H144	H	1.150693	-0.724620	0.770355
H145	H	1.231912	-0.763602	0.776307
H146	H	1.145044	-0.763594	0.688967
C147	C	1.331687	-0.193026	1.090210
C148	C	1.333412	-0.192781	1.201365
C149	C	1.232658	-0.181405	1.239798
H150	H	1.312674	-0.164120	1.065043
H151	H	1.281183	-0.214388	1.066058
H152	H	1.383899	-0.171420	1.225507
H153	H	1.352406	-0.221683	1.226560
H154	H	1.182154	-0.202767	1.215646
H155	H	1.213653	-0.152500	1.214624
H156	H	1.233812	-0.181241	1.315220
C157	C	0.961499	-0.303597	0.456743
C158	C	0.900383	-0.300444	0.364176
C159	C	0.862010	-0.342961	0.336828
H160	H	1.019538	-0.323278	0.444809
H161	H	0.918867	-0.314894	0.512916
H162	H	0.943013	-0.289154	0.308015
H163	H	0.842328	-0.280772	0.376085
H164	H	0.819378	-0.354258	0.393001
H165	H	0.920055	-0.362639	0.324899
H166	H	0.820531	-0.340827	0.274025
C167	C	1.115330	-0.239647	0.305886
C168	C	1.079563	-0.208102	0.231824
C169	C	1.117649	-0.219400	0.130869
H170	H	1.190744	-0.239815	0.306758
H171	H	1.089993	-0.268542	0.286764
H172	H	1.104905	-0.179214	0.250941
H173	H	1.004153	-0.207929	0.230918
H174	H	1.092312	-0.248295	0.111746
H175	H	1.193063	-0.219568	0.131752
H176	H	1.093379	-0.198001	0.080604
H177	H	1.661397	-0.387450	0.389154
H178	H	1.414741	-1.044997	0.636054
C179	C	1.396076	-0.953603	0.654566
C180	C	1.336437	-0.984205	0.714103
C181	C	1.268163	-0.960852	0.782174
H182	H	1.436626	-0.935271	0.701073
H183	H	1.349649	-0.935338	0.613839
H184	H	1.382858	-1.002462	0.754827
H185	H	1.295865	-1.002537	0.667624
H186	H	1.221736	-0.942588	0.741447
H187	H	1.308723	-0.942521	0.828674
H188	H	1.227684	-0.981612	0.822571
C189	C	1.328131	-0.835531	0.722705
C190	C	1.351268	-0.824083	0.828026
C191	C	1.283315	-0.847520	0.896269
H192	H	1.256582	-0.827892	0.707214
H193	H	1.337906	-0.866838	0.713055
H194	H	1.341484	-0.792784	0.837671
H195	H	1.422804	-0.831724	0.843550
H196	H	1.293090	-0.878827	0.886619
H197	H	1.211770	-0.839879	0.880769
H198	H	1.299011	-0.839759	0.967737
H199	H	1.346422	-0.744079	0.704048
H200	H	1.414260	-0.387480	0.635963
C201	C	1.395795	-0.478894	0.654566
C202	C	1.336147	-0.448312	0.714135
C203	C	1.268004	-0.471688	0.782305
H204	H	1.349361	-0.497230	0.613943
H205	H	1.436474	-0.497155	0.701041
H206	H	1.295471	-0.430058	0.667666
H207	H	1.382554	-0.429975	0.754780
H208	H	1.308683	-0.489950	0.828780
H209	H	1.221577	-0.490023	0.741674
H210	H	1.227532	-0.450942	0.822738
C211	C	1.680009	-0.478844	0.370596
C212	C	1.739600	-0.448242	0.311010
C213	C	1.807780	-0.471595	0.242846
H214	H	1.726478	-0.497119	0.411224
H215	H	1.639360	-0.497166	0.324131
H216	H	1.780246	-0.429928	0.357469
H217	H	1.693159	-0.429967	0.270360
H218	H	1.767131	-0.489917	0.196381
H219	H	1.854242	-0.489869	0.283483
H220	H	1.848213	-0.450835	0.202402
C221	C	1.748294	-0.596978	0.302706
C222	C	1.807979	-0.627560	0.243174
C223	C	1.876229	-0.604184	0.175111
H224	H	1.707723	-0.578700	0.256195
H225	H	1.794692	-0.578659	0.343438
H226	H	1.761586	-0.645872	0.202445
H227	H	1.848570	-0.645840	0.289657
H228	H	1.922627	-0.585865	0.215843
H229	H	1.835650	-0.585906	0.128607
H230	H	1.916740	-0.624930	0.134717
H231	H	1.346328	-0.603320	0.704024
C232	C	1.680137	-0.953440	0.370649
C233	C	1.619896	-0.926550	0.302363
C234	C	1.687805	-0.903053	0.234193
H235	H	1.726500	-0.935074	0.411279
H236	H	1.720695	-0.974110	0.330078
H237	H	1.579356	-0.905882	0.342930
H238	H	1.573536	-0.944905	0.261709
H239	H	1.728363	-0.923723	0.193622
H240	H	1.734164	-0.884690	0.274832
H241	H	1.646941	-0.884809	0.187847
C242	C	1.748426	-0.737734	0.302733
C243	C	1.808113	-0.768320	0.243212
C244	C	1.876373	-0.744947	0.175152
H245	H	1.707862	-0.719457	0.256214
H246	H	1.794822	-0.719415	0.343465
H247	H	1.761723	-0.786632	0.202482
H248	H	1.848698	-0.786599	0.289702
H249	H	1.922769	-0.726628	0.215884
H250	H	1.835801	-0.726670	0.128640
H251	H	1.916886	-0.765696	0.134766
C252	C	1.748513	-0.835522	0.302972
C253	C	1.816735	-0.862403	0.363306
C254	C	1.885043	-0.885870	0.295491
H255	H	1.707979	-0.853891	0.256534
H256	H	1.789123	-0.814834	0.262492
H257	H	1.776130	-0.883088	0.403768
H258	H	1.857293	-0.844045	0.409742
H259	H	1.925653	-0.865183	0.255011
H260	H	1.844500	-0.904237	0.249056
H261	H	1.931346	-0.904109	0.336418
H262	H	1.729750	-0.688375	0.321218
