data_functionalizedCrystal
_audit_creation_method	'MofGen! by Chris Wilmer'
_symmetry_space_group_name_H-M	'P1'
_symmetry_Int_Tables_number	1
_symmetry_cell_setting	triclinic
loop_
_symmetry_equiv_pos_as_xyz
  x,y,z
_cell_length_a	23.532407
_cell_length_b	13.339070
_cell_length_c	11.804365
_cell_angle_alpha	105.112168
_cell_angle_beta	78.232653
_cell_angle_gamma	99.238986
loop_
_atom_site_label
_atom_site_type_symbol
_atom_site_fract_x
_atom_site_fract_y
_atom_site_fract_z
O1	O	0.783276	0.102131	-0.098870
O2	O	0.620275	0.119864	-0.098904
O3	O	0.683068	-0.036078	-0.098887
O4	O	0.720483	0.258073	-0.098886
O5	O	0.666531	0.004935	0.099165
O6	O	0.603738	0.160877	0.099148
O7	O	0.766738	0.143144	0.099182
Cu8	Cu	0.683728	0.155755	0.117249
Cu9	Cu	0.703285	0.107253	-0.116970
O10	O	0.703946	0.299086	0.099165
C11	C	0.668479	-0.053198	0.000136
C12	C	0.649641	-0.165312	0.000127
C13	C	0.590718	0.139918	0.000118
C14	C	0.527283	0.138557	0.000105
C15	C	0.796119	-0.531571	0.000158
C16	C	0.813820	-0.426233	0.000173
C17	C	0.772777	-0.360998	0.000161
C18	C	0.714030	-0.401110	0.000135
C19	C	0.696327	-0.506457	0.000130
C20	C	0.672984	-0.335884	0.000133
C21	C	0.614238	-0.375996	0.000107
C22	C	0.596537	-0.481333	0.000100
C23	C	0.637581	-0.546568	0.000112
C24	C	0.690687	-0.230537	0.000138
C25	C	0.590895	-0.205424	0.000110
C26	C	0.573194	-0.310761	0.000095
C27	C	0.141679	0.222335	0.000159
C28	C	0.082075	0.221074	0.000166
O29	O	0.057844	0.298736	0.000209
N30	N	0.044503	0.128364	0.000164
C31	C	0.066538	0.036911	0.000166
O32	O	0.029108	-0.042062	0.000166
C33	C	0.126141	0.038174	0.000168
C34	C	0.163710	0.130888	0.000158
C35	C	0.179248	0.315041	0.000150
C36	C	0.238848	0.316300	0.000141
C37	C	0.260879	0.224853	0.000140
C38	C	0.223311	0.132147	0.000148
C39	C	0.148174	-0.053277	0.000179
C40	C	0.207781	-0.052005	0.000181
C41	C	0.245350	0.040708	0.000171
C42	C	0.304942	0.041959	0.000138
N43	N	0.342513	0.134669	0.000140
C44	C	0.320482	0.226116	0.000141
C45	C	-0.058631	0.034266	0.000166
C46	C	-0.118232	0.033000	0.000156
C47	C	-0.102691	0.217164	0.000158
C48	C	-0.043089	0.218427	0.000159
C49	C	-0.021060	0.126976	0.000168
C50	C	0.445646	0.228754	0.000120
C51	C	0.505252	0.230004	0.000105
C52	C	0.489706	0.045841	0.000110
C53	C	0.430106	0.044589	0.000118
C54	C	0.408078	0.136055	0.000127
O55	O	0.329213	-0.035660	0.000099
O56	O	0.357917	0.305079	0.000157
C57	C	0.796296	0.123089	0.000158
C58	C	0.859731	0.124449	0.000163
C59	C	0.718534	0.316205	0.000140
C60	C	0.737373	0.428318	0.000141
N61	N	0.669976	0.189868	0.281986
N62	N	0.717040	0.073132	-0.281707
C63	C	0.750060	-0.008806	0.655955
C64	C	0.760462	-0.034616	0.531297
C65	C	0.737841	0.021502	0.468963
C66	C	0.704817	0.103437	0.531300
C67	C	0.694418	0.129255	0.655971
C68	C	0.682199	0.159563	0.468978
C69	C	0.649176	0.241497	0.531316
C70	C	0.638778	0.267311	0.655975
C71	C	0.661399	0.211193	0.718308
C72	C	0.692598	0.133745	0.344307
C73	C	0.636957	0.271805	0.344323
C74	C	0.626555	0.297616	0.468982
H75	H	0.738519	-0.197888	0.000160
Cl76	Cl	0.734112	0.030745	0.265956
Cl77	Cl	0.795031	-0.228573	0.000173
H78	H	0.427719	0.303234	0.000131
Cl79	Cl	0.597271	0.370325	0.734343
Cl80	Cl	0.522683	-0.531754	0.000085
H81	H	0.746312	0.000483	0.367460
H82	H	0.269433	0.391797	0.000132
Cl83	Cl	0.887672	-0.375818	0.000179
Cl84	Cl	0.100959	-0.169843	0.000171
H85	H	0.787350	-0.101325	0.480546
H86	H	0.768478	-0.054485	0.706716
H87	H	0.599667	0.364329	0.519752
H88	H	0.652928	0.232205	0.819816
Cl89	Cl	0.608521	0.342363	0.265968
Cl90	Cl	0.151564	0.430019	0.000148
Cl91	Cl	0.615342	-0.679029	-0.000048
Cl92	Cl	0.235470	-0.166980	0.000194
H93	H	0.829529	-0.584691	0.000178
H94	H	0.525362	-0.343436	0.000074
H95	H	-0.040699	-0.040212	0.000163
Cl96	Cl	0.539294	-0.123419	0.000103
H97	H	0.535839	0.305506	0.000097
Cl98	Cl	0.004135	0.334986	0.000151
H99	H	0.507655	-0.028613	0.000105
Cl100	Cl	0.382874	-0.071965	0.000136
H101	H	-0.120640	0.291627	0.000164
Cl102	Cl	-0.165452	-0.083565	0.000139
