data_functionalizedCrystal
_audit_creation_method	'MofGen! by Chris Wilmer'
_symmetry_space_group_name_H-M	'P1'
_symmetry_Int_Tables_number	1
_symmetry_cell_setting	triclinic
loop_
_symmetry_equiv_pos_as_xyz
  x,y,z
_cell_length_a	13.635800
_cell_length_b	23.752963
_cell_length_c	9.514088
_cell_angle_alpha	86.881632
_cell_angle_beta	118.843545
_cell_angle_gamma	79.933268
loop_
_atom_site_label
_atom_site_type_symbol
_atom_site_fract_x
_atom_site_fract_y
_atom_site_fract_z
V1	V	2.100432	-0.080179	0.501698
O2	O	2.100972	0.002809	0.491177
O3	O	2.067478	-0.157977	0.499199
O4	O	2.117902	-0.079403	0.720080
O5	O	2.050199	-0.076308	0.268768
V6	V	2.337981	-0.070198	0.473724
O7	O	2.240302	-0.102071	0.563060
O8	O	2.423210	-0.048305	0.412362
O9	O	2.259332	0.007600	0.476222
O10	O	2.396140	-0.153186	0.484244
O11	O	2.446913	-0.074068	0.706654
O12	O	2.208909	-0.070973	0.255342
V13	V	2.600432	-0.080179	0.501698
O14	O	2.600972	0.002809	0.491177
O15	O	2.567478	-0.157977	0.499199
O16	O	2.617902	-0.079403	0.720080
O17	O	2.550199	-0.076308	0.268768
V18	V	2.837981	-0.070198	0.473724
O19	O	2.740302	-0.102071	0.563060
O20	O	2.923210	-0.048305	0.412362
O21	O	2.759332	0.007600	0.476222
O22	O	2.896140	-0.153186	0.484244
O23	O	2.946913	-0.074068	0.706654
O24	O	2.708909	-0.070973	0.255342
C25	C	1.986501	-0.176928	0.491525
C26	C	2.000478	-0.240532	0.490938
C27	C	2.039944	-0.626467	0.339948
C28	C	2.053084	-0.686229	0.339374
O29	O	2.019729	-0.709937	0.213917
N30	N	2.106905	-0.724587	0.486265
C31	C	2.147599	-0.703180	0.633740
O32	O	2.194586	-0.741294	0.758630
C33	C	2.134465	-0.643420	0.634313
C34	C	2.080631	-0.605065	0.487412
C35	C	1.986115	-0.588113	0.193059
C36	C	1.972974	-0.528355	0.193633
C37	C	2.013661	-0.506952	0.341097
C38	C	2.067490	-0.545307	0.487986
C39	C	2.175166	-0.622015	0.781787
C40	C	2.162028	-0.562250	0.782348
C41	C	2.108194	-0.523894	0.635446
C42	C	2.095036	-0.464146	0.636024
N43	N	2.041215	-0.425789	0.489133
C44	C	2.000528	-0.447192	0.341670
C45	C	2.175178	-0.828681	0.632526
C46	C	2.188305	-0.888440	0.631954
C47	C	2.093791	-0.871485	0.337587
C48	C	2.080658	-0.811724	0.338160
C49	C	2.121357	-0.790323	0.485635
C50	C	1.972933	-0.321697	0.342887
C51	C	1.959790	-0.261935	0.343474
C52	C	2.054310	-0.278895	0.637840
C53	C	2.067446	-0.338652	0.637254
C54	C	2.026757	-0.360051	0.489764
O55	O	2.128367	-0.440397	0.761417
O56	O	1.953559	-0.409072	0.216802
C57	C	2.050820	-0.076699	0.773278
C58	C	2.105687	-0.076580	0.951813
C59	C	2.171980	0.026548	0.483892
C60	C	2.147624	0.090151	0.484490
C61	C	2.107660	-0.073680	0.202135
C62	C	2.042412	-0.073796	0.023599
C63	C	2.486501	-0.176928	0.491525
C64	C	2.500478	-0.240532	0.490938
C65	C	2.550820	-0.076699	0.773278
C66	C	2.605687	-0.076580	0.951813
C67	C	2.671980	0.026548	0.483892
C68	C	2.647624	0.090151	0.484490
C69	C	2.607660	-0.073680	0.202135
C70	C	2.542412	-0.073796	0.023599
C71	C	2.599332	-0.273334	0.498721
C72	C	2.612487	-0.333099	0.498194
C73	C	2.526783	-0.360059	0.489872
C74	C	2.427922	-0.327252	0.482093
C75	C	2.414772	-0.267489	0.482632
C76	C	2.721264	0.122954	0.476711
C77	C	2.698382	0.182718	0.477245
C78	C	2.601864	0.209678	0.485571
C79	C	2.528217	0.176871	0.493346
C80	C	2.551095	0.117109	0.492799
H81	H	1.915948	-0.230707	0.223844
H82	H	2.111265	-0.369883	0.756871
H83	H	2.799860	0.101011	0.469933
H84	H	2.537505	-0.408722	0.489435
H85	H	2.583248	0.258340	0.486014
H86	H	2.087430	-0.261458	0.757901
H87	H	2.446267	-0.071509	0.948475
C88	C	2.796945	-0.130904	1.040000
C89	C	2.735492	-0.079676	1.053234
H90	H	2.877080	-0.132817	1.102624
H91	H	2.775866	-0.131388	0.929313
H92	H	2.779578	-0.163250	1.079116
H93	H	2.752852	-0.047330	1.014107
H94	H	2.756579	-0.079187	1.163943
H95	H	2.449630	0.198831	0.500123
H96	H	1.946267	-0.071509	0.948475
C97	C	2.366144	-0.416272	0.474083
C98	C	2.333715	-0.356891	0.472927
H99	H	2.307978	-0.434569	0.468407
H100	H	2.436431	-0.432678	0.571457
H101	H	2.375997	-0.421839	0.383150
H102	H	2.323871	-0.351323	0.563868
H103	H	2.263408	-0.340480	0.375543
C104	C	2.128219	-0.768554	0.796372
C105	C	2.219906	-0.805157	0.794640
H106	H	2.155838	-0.754031	0.896450
H107	H	2.072356	-0.789644	0.784880
H108	H	2.094297	-0.737157	0.708973
H109	H	2.253823	-0.836556	0.882033
H110	H	2.275789	-0.784067	0.806150
H111	H	1.929145	-0.497131	0.074011
C112	C	1.878169	-0.298917	0.051973
C113	C	1.928195	-0.345212	0.180765
H114	H	1.850540	-0.313436	-0.048112
H115	H	1.934043	-0.277834	0.063470
H116	H	1.815985	-0.274091	0.053203
H117	H	1.990385	-0.370036	0.179542
H118	H	1.872316	-0.366305	0.169264
C119	C	2.250415	-0.987574	0.761810
C120	C	2.247467	-0.930597	0.793430
H121	H	2.286939	-1.013597	0.861505
H122	H	2.292187	-0.995754	0.706407
H123	H	2.174114	-0.992013	0.696094
H124	H	2.323769	-0.926157	0.859137
H125	H	2.205697	-0.922414	0.848859
C126	C	1.891355	-0.565335	-0.097841
C127	C	1.941374	-0.611631	0.030946
H128	H	1.863720	-0.579851	-0.197928
H129	H	1.947234	-0.544255	-0.086343
H130	H	1.829175	-0.540506	-0.096605
H131	H	2.003560	-0.636457	0.029718
H132	H	1.885491	-0.632720	0.019444
C133	C	1.999051	-0.848736	0.046660
C134	C	2.049073	-0.895018	0.175487
H135	H	1.971440	-0.863267	-0.053405
H136	H	2.054920	-0.827651	0.058151
H137	H	1.936853	-0.823908	0.047854
H138	H	2.111277	-0.919844	0.174300
H139	H	1.993199	-0.916113	0.163993
C140	C	2.098082	-0.737447	0.175621
C141	C	2.021495	-0.769564	0.176689
H142	H	2.061554	-0.711418	0.075935
H143	H	2.164191	-0.762986	0.186662
H144	H	2.120427	-0.716146	0.263529
H145	H	1.999157	-0.790868	0.088787
H146	H	1.955366	-0.744022	0.165631
C147	C	2.283148	-0.082279	0.951556
C148	C	2.235493	-0.079678	1.053226
H149	H	2.363285	-0.084197	1.014170
H150	H	2.247081	-0.048656	0.870718
H151	H	2.271412	-0.115757	0.900849
H152	H	2.247222	-0.046198	1.103924
H153	H	2.271571	-0.113305	1.134093
C154	C	2.868906	0.182479	0.461325
C155	C	2.779353	0.218769	0.468718
H156	H	2.918897	0.204735	0.456072
H157	H	2.837843	0.164466	0.367298
H158	H	2.910726	0.153630	0.555610
H159	H	2.737528	0.247616	0.374427
H160	H	2.810418	0.236792	0.562755
H161	H	2.219002	-0.653235	0.901411
C162	C	2.783090	-0.285132	0.514600
C163	C	2.693551	-0.243709	0.507872
H164	H	2.841264	-0.266845	0.520262
H165	H	2.754149	-0.302903	0.419906
H166	H	2.814594	-0.313736	0.608214
H167	H	2.662042	-0.215108	0.414250
H168	H	2.722495	-0.225929	0.602575
H169	H	2.692990	-0.359802	0.504525
H170	H	2.491128	0.090405	0.499148
C171	C	2.256781	-0.585017	1.073264
C172	C	2.206763	-0.538727	0.944461
H173	H	2.284389	-0.570494	1.173341
H174	H	2.318968	-0.609840	1.072059
H175	H	2.200899	-0.606104	1.061754
H176	H	2.262647	-0.517642	0.955965
H177	H	2.144569	-0.513894	0.945668
C178	C	2.233653	-0.267724	0.466617
C179	C	2.306094	-0.231434	0.474047
H180	H	2.166554	-0.245465	0.461306
H181	H	2.272846	-0.296566	0.560896
H182	H	2.212414	-0.285744	0.372589
H183	H	2.327339	-0.213417	0.568082
H184	H	2.266893	-0.202582	0.379758
