data_functionalizedCrystal
_audit_creation_method	'MofGen! by Chris Wilmer'
_symmetry_space_group_name_H-M	'P1'
_symmetry_Int_Tables_number	1
_symmetry_cell_setting	triclinic
loop_
_symmetry_equiv_pos_as_xyz
  x,y,z
_cell_length_a	21.295417
_cell_length_b	21.295420
_cell_length_c	21.295412
_cell_angle_alpha	89.983421
_cell_angle_beta	89.968813
_cell_angle_gamma	90.028757
loop_
_atom_site_label
_atom_site_type_symbol
_atom_site_fract_x
_atom_site_fract_y
_atom_site_fract_z
Zn1	Zn	-0.250651	0.962305	-0.355914
Zn2	Zn	-0.000651	1.212305	-0.105914
Zn3	Zn	0.249349	1.462305	0.144086
Zn4	Zn	0.499349	1.712305	0.394086
Zn5	Zn	-0.355920	0.962222	-0.250639
Zn6	Zn	-0.105920	1.212222	-0.000639
Zn7	Zn	0.144080	1.462222	0.249361
Zn8	Zn	0.394080	1.712222	0.499361
Zn9	Zn	-0.250666	0.857043	-0.250658
Zn10	Zn	-0.000666	1.107043	-0.000658
Zn11	Zn	0.249334	1.357043	0.249342
Zn12	Zn	0.499334	1.607043	0.499342
Zn13	Zn	-0.355883	0.856998	-0.355870
Zn14	Zn	-0.105883	1.106998	-0.105870
Zn15	Zn	0.144117	1.356998	0.144130
Zn16	Zn	0.394117	1.606998	0.394130
O17	O	-0.303280	0.909642	-0.303270
O18	O	-0.053280	1.159642	-0.053270
O19	O	0.196720	1.409642	0.196730
O20	O	0.446720	1.659642	0.446730
O21	O	-0.264625	1.050383	-0.341959
O22	O	-0.014625	1.300383	-0.091959
O23	O	0.235375	1.550383	0.158041
O24	O	0.485375	1.800383	0.408041
O25	O	-0.341980	0.948254	-0.162552
O26	O	-0.091980	1.198254	0.087448
O27	O	0.158020	1.448254	0.337448
O28	O	0.408020	1.698254	0.587448
O29	O	-0.162574	0.871060	-0.264647
O30	O	0.087426	1.121060	-0.014647
O31	O	0.337426	1.371060	0.235353
O32	O	0.587426	1.621060	0.485353
O33	O	-0.341966	1.050323	-0.264614
O34	O	-0.091966	1.300323	-0.014614
O35	O	0.158034	1.550323	0.235386
O36	O	0.408034	1.800323	0.485386
O37	O	-0.162564	0.948395	-0.341977
O38	O	0.087436	1.198395	-0.091977
O39	O	0.337436	1.448395	0.158023
O40	O	0.587436	1.698395	0.408023
O41	O	-0.264650	0.870980	-0.162566
O42	O	-0.014650	1.120980	0.087434
O43	O	0.235350	1.370980	0.337434
O44	O	0.485350	1.620980	0.587434
O45	O	-0.264614	0.768948	-0.264605
O46	O	-0.014614	1.018948	-0.014605
O47	O	0.235386	1.268948	0.235395
O48	O	0.485386	1.518948	0.485395
O49	O	-0.341902	0.870982	-0.443966
O50	O	-0.091902	1.120982	-0.193966
O51	O	0.158098	1.370982	0.056034
O52	O	0.408098	1.620982	0.306034
O53	O	-0.341916	0.768914	-0.341904
O54	O	-0.091916	1.018914	-0.091904
O55	O	0.158084	1.268914	0.158096
O56	O	0.408084	1.518914	0.408096
O57	O	-0.264589	0.948351	-0.443997
O58	O	-0.014589	1.198351	-0.193997
O59	O	0.235411	1.448351	0.056003
O60	O	0.485411	1.698351	0.306003
O61	O	-0.444005	0.948210	-0.264572
O62	O	-0.194005	1.198210	-0.014572
O63	O	0.055995	1.448210	0.235428
O64	O	0.305995	1.698210	0.485428
O65	O	-0.443977	0.870902	-0.341885
O66	O	-0.193977	1.120902	-0.091885
O67	O	0.056023	1.370902	0.158115
O68	O	0.306023	1.620902	0.408115
C69	C	-0.303263	0.746090	-0.303252
C70	C	-0.053263	0.996090	-0.053252
C71	C	0.196737	1.246090	0.196748
C72	C	0.446737	1.496090	0.446748
C73	C	-0.303271	0.676122	-0.303260
C74	C	-0.053271	0.926122	-0.053260
C75	C	0.196729	1.176122	0.196740
C76	C	0.446729	1.426122	0.446740
C77	C	-0.343606	0.176663	-0.343481
C78	C	-0.093606	0.426663	-0.093481
C79	C	0.156394	0.676663	0.156519
C80	C	0.406394	0.926663	0.406519
C81	C	-0.343606	0.242406	-0.343474
C82	C	-0.093606	0.492406	-0.093474
C83	C	0.156394	0.742406	0.156526
C84	C	0.406394	0.992406	0.406526
C85	C	-0.303294	0.275283	-0.303290
C86	C	-0.053294	0.525283	-0.053290
C87	C	0.196706	0.775283	0.196710
C88	C	0.446706	1.025283	0.446710
C89	C	-0.262991	0.242412	-0.263098
C90	C	-0.012991	0.492412	-0.013098
C91	C	0.237009	0.742412	0.236902
C92	C	0.487009	0.992412	0.486902
C93	C	-0.262996	0.176671	-0.263102
C94	C	-0.012996	0.426671	-0.013102
C95	C	0.237004	0.676671	0.236898
C96	C	0.487004	0.926671	0.486898
N97	N	-0.248178	0.378524	-0.298558
N98	N	0.001822	0.628524	-0.048558
N99	N	0.251822	0.878524	0.201442
N100	N	0.501822	1.128524	0.451442
N101	N	-0.248174	0.440976	-0.298558
N102	N	0.001826	0.690976	-0.048558
N103	N	0.251826	0.940976	0.201442
N104	N	0.501826	1.190976	0.451442
C105	C	-0.303277	0.473358	-0.303277
C106	C	-0.053277	0.723358	-0.053277
C107	C	0.196723	0.973358	0.196723
C108	C	0.446723	1.223358	0.446723
N109	N	-0.358384	0.440929	-0.308007
N110	N	-0.108384	0.690929	-0.058007
N111	N	0.141616	0.940929	0.191993
N112	N	0.391616	1.190929	0.441993
N113	N	-0.358386	0.378471	-0.308010
N114	N	-0.108386	0.628471	-0.058010
N115	N	0.141614	0.878471	0.191990
N116	N	0.391614	1.128471	0.441990
C117	C	-0.303284	0.346568	-0.303282
C118	C	-0.053284	0.596568	-0.053282
C119	C	0.196716	0.846568	0.196718
C120	C	0.446716	1.096568	0.446718
C121	C	-0.343581	0.577506	-0.343456
C122	C	-0.093581	0.827506	-0.093456
C123	C	0.156419	1.077506	0.156544
C124	C	0.406419	1.327506	0.406544
C125	C	-0.343582	0.643250	-0.343445
C126	C	-0.093582	0.893250	-0.093445
C127	C	0.156418	1.143250	0.156555
C128	C	0.406418	1.393250	0.406555
C129	C	-0.262962	0.643255	-0.263072
C130	C	-0.012962	0.893255	-0.013072
C131	C	0.237038	1.143255	0.236928
C132	C	0.487038	1.393255	0.486928
C133	C	-0.262966	0.577512	-0.263080
C134	C	-0.012966	0.827512	-0.013080
C135	C	0.237034	1.077512	0.236920
C136	C	0.487034	1.327512	0.486920
C137	C	-0.303275	0.544642	-0.303275
C138	C	-0.053275	0.794642	-0.053275
C139	C	0.196725	1.044642	0.196725
C140	C	0.446725	1.294642	0.446725
C141	C	-0.466832	0.909559	-0.303236
C142	C	-0.216832	1.159559	-0.053236
C143	C	0.033168	1.409559	0.196764
C144	C	0.283168	1.659559	0.446764
C145	C	-0.536800	0.909582	-0.303242
C146	C	-0.286800	1.159582	-0.053242
C147	C	-0.036800	1.409582	0.196758
C148	C	0.213200	1.659582	0.446758
C149	C	-0.569660	0.949872	-0.263026
C150	C	-0.319660	1.199872	-0.013026
C151	C	-0.069660	1.449872	0.236974
C152	C	0.180340	1.699872	0.486974
C153	C	-0.635402	0.949901	-0.263040
C154	C	-0.385402	1.199901	-0.013040
C155	C	-0.135402	1.449901	0.236960
C156	C	0.114598	1.699901	0.486960
C157	C	-0.668282	0.909629	-0.303263
C158	C	-0.418282	1.159629	-0.053263
C159	C	-0.168282	1.409629	0.196737
C160	C	0.081718	1.659629	0.446737
C161	C	-0.635414	0.869337	-0.343487
C162	C	-0.385414	1.119337	-0.093487
C163	C	-0.135414	1.369337	0.156513
C164	C	0.114586	1.619337	0.406513
C165	C	-0.569673	0.869313	-0.343476
C166	C	-0.319673	1.119313	-0.093476
C167	C	-0.069673	1.369313	0.156524
C168	C	0.180327	1.619313	0.406524
N169	N	-0.771546	0.854562	-0.308056
N170	N	-0.521546	1.104562	-0.058056
N171	N	-0.271546	1.354562	0.191944
N172	N	-0.021546	1.604562	0.441944
N173	N	-0.833998	0.854586	-0.308063
N174	N	-0.583998	1.104586	-0.058063
N175	N	-0.333998	1.354586	0.191937
N176	N	-0.083998	1.604586	0.441937
C177	C	-0.866357	0.909700	-0.303299
C178	C	-0.616357	1.159700	-0.053299
C179	C	-0.366357	1.409700	0.196701
C180	C	-0.116357	1.659700	0.446701
N181	N	-0.833905	0.964790	-0.298517
N182	N	-0.583905	1.214790	-0.048517
N183	N	-0.333905	1.464790	0.201483
N184	N	-0.083905	1.714790	0.451483
N185	N	-0.771448	0.964764	-0.298507
N186	N	-0.521448	1.214764	-0.048507
N187	N	-0.271448	1.464764	0.201493
N188	N	-0.021448	1.714764	0.451493
C189	C	-0.739568	0.909651	-0.303280
C190	C	-0.489568	1.159651	-0.053280
C191	C	-0.239568	1.409651	0.196720
C192	C	0.010432	1.659651	0.446720
C193	C	-0.970503	0.950025	-0.263097
C194	C	-0.720503	1.200025	-0.013097
C195	C	-0.470503	1.450025	0.236903
C196	C	-0.220503	1.700025	0.486903
C197	C	-1.036246	0.950056	-0.263116
C198	C	-0.786246	1.200056	-0.013116
C199	C	-0.536246	1.450056	0.236884
C200	C	-0.286246	1.700056	0.486884
C201	C	-1.036257	0.869486	-0.343559
C202	C	-0.786257	1.119486	-0.093559
C203	C	-0.536257	1.369486	0.156441
C204	C	-0.286257	1.619486	0.406441
C205	C	-0.970515	0.869461	-0.343544
C206	C	-0.720515	1.119461	-0.093544
C207	C	-0.470515	1.369461	0.156456
C208	C	-0.220515	1.619461	0.406456
C209	C	-0.937641	0.909730	-0.303309
C210	C	-0.687641	1.159730	-0.053309
C211	C	-0.437641	1.409730	0.196691
C212	C	-0.187641	1.659730	0.446691
C213	C	-0.139090	0.909742	-0.303319
C214	C	0.110910	1.159742	-0.053319
C215	C	0.360910	1.409742	0.196681
C216	C	0.610910	1.659742	0.446681
C217	C	-0.069122	0.909785	-0.303340
C218	C	0.180878	1.159785	-0.053340
C219	C	0.430878	1.409785	0.196660
C220	C	0.680878	1.659785	0.446660
C221	C	-0.303239	0.909671	-0.467461
C222	C	-0.053239	1.159671	-0.217461
C223	C	0.196761	1.409671	0.032539
C224	C	0.446761	1.659671	0.282539
C225	C	-0.303222	0.909683	-0.537429
C226	C	-0.053222	1.159683	-0.287429
C227	C	0.196778	1.409683	-0.037429
C228	C	0.446778	1.659683	0.212571
C229	C	-0.303298	1.073832	-0.303289
C230	C	-0.053298	1.323832	-0.053289
C231	C	0.196702	1.573832	0.196711
C232	C	0.446702	1.823832	0.446711
C233	C	-0.303305	1.143800	-0.303297
C234	C	-0.053305	1.393800	-0.053297
C235	C	0.196695	1.643800	0.196703
C236	C	0.446695	1.893800	0.446703
C237	C	-0.262865	0.950029	-1.036905
C238	C	-0.012865	1.200029	-0.786905
C239	C	0.237135	1.450029	-0.536905
C240	C	0.487135	1.700029	-0.286905
C241	C	-0.262881	0.950024	-0.971162
C242	C	-0.012881	1.200024	-0.721162
C243	C	0.237119	1.450024	-0.471162
C244	C	0.487119	1.700024	-0.221162
C245	C	-0.303139	0.909738	-0.938269
C246	C	-0.053139	1.159738	-0.688269
C247	C	0.196861	1.409738	-0.438269
C248	C	0.446861	1.659738	-0.188269
C249	C	-0.343397	0.869465	-0.971123
C250	C	-0.093397	1.119465	-0.721123
C251	C	0.156603	1.369465	-0.471123
C252	C	0.406603	1.619465	-0.221123
C253	C	-0.343385	0.869476	-1.036864
C254	C	-0.093385	1.119476	-0.786864
C255	C	0.156615	1.369476	-0.536864
C256	C	0.406615	1.619476	-0.286864
N257	N	-0.307981	0.854617	-0.835040
N258	N	-0.057981	1.104617	-0.585040
N259	N	0.192019	1.354617	-0.335040
N260	N	0.442019	1.604617	-0.085040
N261	N	-0.307989	0.854608	-0.772588
N262	N	-0.057989	1.104608	-0.522588
N263	N	0.192011	1.354608	-0.272588
N264	N	0.442011	1.604608	-0.022588
C265	C	-0.303178	0.909705	-0.740194
C266	C	-0.053178	1.159705	-0.490194
C267	C	0.196822	1.409705	-0.240194
C268	C	0.446822	1.659705	0.009806
N269	N	-0.298348	0.964811	-0.772610
N270	N	-0.048348	1.214811	-0.522610
N271	N	0.201652	1.464811	-0.272610
N272	N	0.451652	1.714811	-0.022610
N273	N	-0.298337	0.964818	-0.835067
N274	N	-0.048337	1.214818	-0.585067
N275	N	0.201663	1.464818	-0.335067
N276	N	0.451663	1.714818	-0.085067
C277	C	-0.303157	0.909722	-0.866983
C278	C	-0.053157	1.159722	-0.616983
C279	C	0.196843	1.409722	-0.366983
C280	C	0.446843	1.659722	-0.116983
C281	C	-0.262943	0.949973	-0.636062
C282	C	-0.012943	1.199973	-0.386062
C283	C	0.237057	1.449973	-0.136062
C284	C	0.487057	1.699973	0.113938
C285	C	-0.262963	0.949969	-0.570318
C286	C	-0.012963	1.199969	-0.320318
C287	C	0.237037	1.449969	-0.070318
C288	C	0.487037	1.699969	0.179682
C289	C	-0.343475	0.869404	-0.570280
C290	C	-0.093475	1.119404	-0.320280
C291	C	0.156525	1.369404	-0.070280
C292	C	0.406525	1.619404	0.179720
C293	C	-0.343459	0.869414	-0.636023
C294	C	-0.093459	1.119414	-0.386023
C295	C	0.156541	1.369414	-0.136023
C296	C	0.406541	1.619414	0.113977
C297	C	-0.303189	0.909697	-0.668909
C298	C	-0.053189	1.159697	-0.418909
C299	C	0.196811	1.409697	-0.168909
C300	C	0.446811	1.659697	0.081091
C301	C	-0.303275	0.909649	-0.139719
C302	C	-0.053275	1.159649	0.110281
C303	C	0.196725	1.409649	0.360281
C304	C	0.446725	1.659649	0.610281
C305	C	-0.303115	0.909759	-0.069751
C306	C	-0.053115	1.159759	0.180249
C307	C	0.196885	1.409759	0.430249
C308	C	0.446885	1.659759	0.680249
H309	H	-0.376404	0.670006	-0.376166
H310	H	-0.126404	0.920006	-0.126166
H311	H	0.123596	1.170006	0.123834
H312	H	0.373596	1.420006	0.373834
H313	H	-1.063027	0.836698	-0.376312
H314	H	-0.813027	1.086698	-0.126312
H315	H	-0.563027	1.336698	0.123688
H316	H	-0.313027	1.586698	0.373688
H317	H	-0.376431	0.149904	-0.376209
H318	H	-0.126431	0.399904	-0.126209
H319	H	0.123569	0.649904	0.123791
H320	H	0.373569	0.899904	0.373791
H321	H	-0.230147	0.550755	-0.230360
H322	H	0.019853	0.800755	0.019640
H323	H	0.269853	1.050755	0.269640
H324	H	0.519853	1.300755	0.519640
H325	H	-0.230077	0.982834	-1.063677
H326	H	0.019923	1.232834	-0.813677
H327	H	0.269923	1.482834	-0.563677
H328	H	0.519923	1.732834	-0.313677
H329	H	-0.230153	0.982774	-0.662839
H330	H	0.019847	1.232774	-0.412839
H331	H	0.269847	1.482774	-0.162839
H332	H	0.519847	1.732774	0.087161
H333	H	-0.230170	0.269184	-0.230379
H334	H	0.019830	0.519184	0.019621
H335	H	0.269830	0.769184	0.269621
H336	H	0.519830	1.019184	0.519621
H337	H	-0.943736	0.982817	-0.230338
H338	H	-0.693736	1.232817	0.019662
H339	H	-0.443736	1.482817	0.269662
H340	H	-0.193736	1.732817	0.519662
H341	H	-0.230188	0.982766	-0.543575
H342	H	0.019812	1.232766	-0.293575
H343	H	0.269812	1.482766	-0.043575
H344	H	0.519812	1.732766	0.206425
H345	H	-0.376176	0.836665	-0.944337
H346	H	-0.126176	1.086665	-0.694337
H347	H	0.123824	1.336665	-0.444337
H348	H	0.373824	1.586665	-0.194337
H349	H	-0.230141	0.670022	-0.230351
H350	H	0.019859	0.920022	0.019649
H351	H	0.269859	1.170022	0.269649
H352	H	0.519859	1.420022	0.519649
H353	H	-0.230177	0.149914	-0.230379
H354	H	0.019823	0.399914	0.019621
H355	H	0.269823	0.649914	0.269621
H356	H	0.519823	0.899914	0.519621
H357	H	-0.662162	0.982713	-0.230292
H358	H	-0.412162	1.232713	0.019708
H359	H	-0.162162	1.482713	0.269708
H360	H	0.087838	1.732713	0.519708
H361	H	-0.230102	0.982817	-0.944413
H362	H	0.019898	1.232817	-0.694413
H363	H	0.269898	1.482817	-0.444413
H364	H	0.519898	1.732817	-0.194413
H365	H	-0.376162	0.836682	-1.063608
H366	H	-0.126162	1.086682	-0.813608
H367	H	0.123838	1.336682	-0.563608
H368	H	0.373838	1.586682	-0.313608
H369	H	-0.376257	0.836605	-0.543499
H370	H	-0.126257	1.086605	-0.293499
H371	H	0.123743	1.336605	-0.043499
H372	H	0.373743	1.586605	0.206501
H373	H	-0.662189	0.836548	-0.376238
H374	H	-0.412189	1.086548	-0.126238
H375	H	-0.162189	1.336548	0.123762
H376	H	0.087811	1.586548	0.373762
H377	H	-0.376232	0.836619	-0.662766
H378	H	-0.126232	1.086619	-0.412766
H379	H	0.123768	1.336619	-0.162766
H380	H	0.373768	1.586619	0.087234
H381	H	-0.376403	0.550742	-0.376184
H382	H	-0.126403	0.800742	-0.126184
H383	H	0.123597	1.050742	0.123816
H384	H	0.373597	1.300742	0.373816
H385	H	-0.943758	0.836650	-0.376288
H386	H	-0.693758	1.086650	-0.126288
H387	H	-0.443758	1.336650	0.123712
H388	H	-0.193758	1.586650	0.373712
H389	H	-0.376423	0.269168	-0.376199
H390	H	-0.126423	0.519168	-0.126199
H391	H	0.123577	0.769168	0.123801
H392	H	0.373577	1.019168	0.373801
H393	H	-0.542896	0.982663	-0.230266
H394	H	-0.292896	1.232663	0.019734
H395	H	-0.042896	1.482663	0.269734
H396	H	0.207104	1.732663	0.519734
H397	H	-0.542918	0.836503	-0.376225
H398	H	-0.292918	1.086503	-0.126225
H399	H	-0.042918	1.336503	0.123775
H400	H	0.207082	1.586503	0.373775
H401	H	-1.063000	0.982869	-0.230368
H402	H	-0.813000	1.232869	0.019632
H403	H	-0.563000	1.482869	0.269632
H404	H	-0.313000	1.732869	0.519632
