data_functionalizedCrystal
_audit_creation_method	'MofGen! by Chris Wilmer'
_symmetry_space_group_name_H-M	'P1'
_symmetry_Int_Tables_number	1
_symmetry_cell_setting	triclinic
loop_
_symmetry_equiv_pos_as_xyz
  x,y,z
_cell_length_a	17.640280
_cell_length_b	15.298001
_cell_length_c	15.296720
_cell_angle_alpha	91.647471
_cell_angle_beta	90.295581
_cell_angle_gamma	93.441332
loop_
_atom_site_label
_atom_site_type_symbol
_atom_site_fract_x
_atom_site_fract_y
_atom_site_fract_z
Zn1	Zn	-0.220214	-1.311295	-0.686710
Zn2	Zn	-0.319622	-1.362701	-0.521865
Zn3	Zn	-0.213020	-1.188283	-0.516201
Zn4	Zn	-0.361113	-1.201841	-0.635211
O5	O	-0.278492	-1.266030	-0.589997
O6	O	-0.219048	-1.436915	-0.688766
O7	O	-0.285106	-1.355403	-0.402320
O8	O	-0.110394	-1.177413	-0.558002
O9	O	-0.292082	-1.474683	-0.567655
O10	O	-0.115680	-1.267789	-0.683274
O11	O	-0.206786	-1.227259	-0.398158
O12	O	-0.247018	-1.071280	-0.508065
O13	O	-0.362798	-1.200522	-0.760836
O14	O	-0.355822	-1.081242	-0.595501
O15	O	-0.259280	-1.280937	-0.798672
O16	O	-0.428706	-1.368550	-0.517719
O17	O	-0.459190	-1.250367	-0.600993
C18	C	-0.305142	-1.045457	-0.545581
C19	C	-0.316564	-0.951097	-0.526596
C20	C	-0.359866	-0.926421	-0.454548
C21	C	-0.370600	-0.837765	-0.436715
C22	C	-0.338028	-0.773776	-0.490924
C23	C	-0.294721	-0.798451	-0.562970
C24	C	-0.283991	-0.887116	-0.580809
C25	C	-0.262154	-0.734471	-0.617185
C26	C	-0.218847	-0.759146	-0.689231
C27	C	-0.208118	-0.847803	-0.707066
C28	C	-0.240690	-0.911792	-0.652857
C29	C	-0.272884	-0.645806	-0.599346
C30	C	-0.197010	-0.606501	-0.725607
C31	C	-0.186276	-0.695157	-0.743440
C32	C	-0.470805	-1.316529	-0.554405
C33	C	-0.553073	-1.338206	-0.539223
C34	C	-0.903108	-1.101655	-0.705712
C35	C	-0.980407	-1.122030	-0.691420
C36	C	-0.948610	-1.245146	-0.604829
C37	C	-0.871307	-1.224784	-0.619118
C38	C	-0.848563	-1.153037	-0.669560
C39	C	-0.816762	-1.276167	-0.582965
C40	C	-0.739466	-1.255803	-0.597249
C41	C	-0.716716	-1.184058	-0.647686
C42	C	-0.771267	-1.132674	-0.683844
C43	C	-0.839507	-1.347910	-0.532519
C44	C	-0.784962	-1.399292	-0.496366
C45	C	-0.707665	-1.378933	-0.510655
C46	C	-0.684914	-1.307187	-0.561092
C47	C	-0.653113	-1.430316	-0.474498
C48	C	-0.575817	-1.409953	-0.488782
C49	C	-0.607618	-1.286824	-0.575376
C50	C	-0.085429	-1.215355	-0.625750
C51	C	-0.003156	-1.193760	-0.640986
C52	C	-0.316470	-1.236507	-0.811418
C53	C	-0.332653	-1.223927	-0.905774
C54	C	-0.251732	-0.487464	-0.634579
C55	C	-0.240311	-0.581825	-0.653559
C56	C	-0.162692	-1.355944	-1.250546
C57	C	-0.147487	-1.367770	-1.161895
C58	C	-0.193777	-1.331810	-1.097860
C59	C	-0.255275	-1.284022	-1.122486
C60	C	-0.270485	-1.272201	-1.211147
C61	C	-0.301570	-1.248067	-1.058461
C62	C	-0.363068	-1.200280	-1.083086
C63	C	-0.378274	-1.188460	-1.171739
C64	C	-0.331984	-1.224420	-1.235773
C65	C	-0.286360	-1.259888	-0.969800
C66	C	-0.394153	-1.176146	-0.930400
C67	C	-0.409358	-1.164320	-1.019052
C68	C	-0.240603	-1.295472	-0.369457
C69	C	-0.224192	-1.308163	-0.275173
H70	H	-0.346770	-0.701589	-0.476400
H71	H	-0.405860	-0.817681	-0.378056
C72	C	-0.348715	-1.211429	-1.333298
N73	N	-0.361319	-1.201651	-1.406756
H74	H	-0.097417	-1.406681	-1.141851
H75	H	-0.125013	-1.385223	-1.302689
H76	H	-0.231950	-0.983985	-0.667371
C77	C	-0.320515	-0.618673	-0.520092
N78	N	-0.356390	-0.598238	-0.460391
H79	H	-0.386384	-0.978527	-0.410422
H80	H	-0.172863	-0.867891	-0.765737
H81	H	-0.151015	-0.715261	-0.802100
H82	H	-0.428355	-1.149557	-1.191785
H83	H	-0.170488	-0.554400	-0.769749
C84	C	-0.477003	-1.111753	-1.046153
N85	N	-0.527952	-1.072158	-1.066566
C86	C	-0.582596	-1.207889	-0.630851
N87	N	-0.563748	-1.148431	-0.672625
C88	C	-0.746245	-1.053739	-0.739319
N89	N	-0.727397	-0.994281	-0.781092
H90	H	-0.653775	-1.167475	-0.659308
C91	C	-0.445074	-1.136585	-0.859965
N92	N	-0.483425	-1.106791	-0.806909
H93	H	-0.884591	-1.043237	-0.746795
C94	C	-1.040406	-1.065503	-0.731200
N95	N	-1.085598	-1.022928	-0.761163
H96	H	-0.967139	-1.303560	-0.563757
C97	C	-0.177044	-1.344812	-1.000341
N98	N	-0.164435	-1.354602	-0.926887
C99	C	-0.924536	-1.370310	-0.516811
N100	N	-0.988581	-1.387183	-0.504983
C101	C	-0.809990	-1.478208	-0.440878
N102	N	-0.828840	-1.537650	-0.399084
H103	H	-0.671643	-1.488727	-0.433421
C104	C	-0.515815	-1.466482	-0.449020
N105	N	-0.470620	-1.509062	-0.419071
H106	H	-0.236287	-1.298797	-0.949759
