data_functionalizedCrystal
_audit_creation_method	'MofGen! by Chris Wilmer'
_symmetry_space_group_name_H-M	'P1'
_symmetry_Int_Tables_number	1
_symmetry_cell_setting	triclinic
loop_
_symmetry_equiv_pos_as_xyz
  x,y,z
_cell_length_a	14.519709
_cell_length_b	11.026607
_cell_length_c	9.482900
_cell_angle_alpha	101.363848
_cell_angle_beta	99.350820
_cell_angle_gamma	83.866919
loop_
_atom_site_label
_atom_site_type_symbol
_atom_site_fract_x
_atom_site_fract_y
_atom_site_fract_z
O1	O	0.375017	-1.629894	-0.120915
O2	O	0.331026	-1.276492	-0.120914
O3	O	0.220328	-1.462561	-0.120901
O4	O	0.485715	-1.443825	-0.120927
O5	O	0.242929	-1.424766	0.120889
O6	O	0.353627	-1.238698	0.120876
O7	O	0.397617	-1.592099	0.120875
Cu8	Cu	0.377686	-1.411948	0.142953
Cu9	Cu	0.350958	-1.456644	-0.142992
O10	O	0.508316	-1.406031	0.120862
C11	C	0.334211	-1.212367	-0.000019
C12	C	0.310019	-1.077600	-0.000019
C13	C	0.197125	-1.442790	-0.000006
C14	C	0.094312	-1.440173	-0.000005
C15	C	0.394432	-1.656226	-0.000023
C16	C	0.418624	-1.790994	-0.000033
C17	C	-0.282175	-1.430544	-0.000043
C18	C	-0.177425	-1.433218	-0.000032
C19	C	-0.093934	-1.435358	-0.000023
C20	C	0.010822	-1.438033	-0.000015
C21	C	0.531518	-1.425802	-0.000036
C22	C	0.634330	-1.428421	-0.000046
N23	N	0.396486	-1.380519	0.344071
C24	C	0.376817	-1.003940	-0.000026
C25	C	0.351815	-0.864652	-0.000026
N26	N	0.332152	-1.488082	-0.344110
C27	C	0.356497	-1.447366	0.416275
C28	C	0.372147	-1.421226	0.583690
H29	H	0.452517	-1.043996	-0.000025
N30	N	0.209744	-1.024554	-0.000021
H31	H	0.168600	-1.092847	-0.000017
H32	H	0.205183	-0.958614	0.089615
N33	N	0.271453	-1.589531	0.573612
H34	H	0.298698	-1.671673	0.600002
H35	H	0.206131	-1.570954	0.600066
N36	N	0.295780	-1.548782	0.333974
H37	H	0.333993	-1.612565	0.270789
H38	H	0.271242	-1.589710	0.405234
H39	H	0.276108	-0.824606	-0.000055
N40	N	0.518901	-0.844037	-0.000067
H41	H	0.560042	-0.775743	-0.000077
H42	H	0.540226	-0.881959	0.089563
H43	H	0.417969	-1.344635	0.645809
N44	N	0.457177	-1.279067	0.426345
H45	H	0.459752	-1.274772	0.534279
H46	H	0.522482	-1.297593	0.399810
