data_functionalizedCrystal
_audit_creation_method	'MofGen! by Chris Wilmer'
_symmetry_space_group_name_H-M	'P1'
_symmetry_Int_Tables_number	1
_symmetry_cell_setting	triclinic
loop_
_symmetry_equiv_pos_as_xyz
  x,y,z
_cell_length_a	17.699083
_cell_length_b	10.654550
_cell_length_c	16.176319
_cell_angle_alpha	89.994395
_cell_angle_beta	89.998611
_cell_angle_gamma	83.883959
loop_
_atom_site_label
_atom_site_type_symbol
_atom_site_fract_x
_atom_site_fract_y
_atom_site_fract_z
O1	O	1.005088	0.158809	-0.068628
O2	O	0.784841	0.179470	-0.068655
O3	O	0.900029	-0.013688	-0.068638
O4	O	0.889901	0.351967	-0.068646
O5	O	0.900013	-0.013701	0.068855
O6	O	0.784825	0.179458	0.068838
O7	O	1.005072	0.158797	0.068865
Cu8	Cu	0.894947	0.169126	0.081406
Cu9	Cu	0.894966	0.169141	-0.081196
O10	O	0.889885	0.351955	0.068848
C11	C	0.756632	0.178724	0.000088
C12	C	0.672599	0.176503	0.000078
C13	C	0.624699	0.289883	0.000076
C14	C	0.545743	0.287788	0.000086
C15	C	0.514688	0.172313	0.000093
C16	C	0.562594	0.058924	0.000098
C17	C	0.641549	0.061020	0.000093
C18	C	0.244177	0.050470	0.000118
C19	C	0.165216	0.048383	0.000121
C20	C	0.148371	0.277239	0.000112
C21	C	0.227326	0.279334	0.000107
C22	C	0.275225	0.165946	0.000116
C23	C	0.360839	0.168219	0.000106
C24	C	0.429076	0.170039	0.000097
C25	C	0.899277	-0.060479	0.000107
C26	C	0.897052	-0.199884	0.000104
C27	C	0.964873	-0.280557	0.000115
C28	C	0.962778	-0.411541	0.000109
C29	C	0.825036	-0.381166	0.000085
C30	C	0.827132	-0.250185	0.000085
C31	C	1.034794	-0.230256	0.000134
C32	C	1.102620	-0.310930	0.000146
C33	C	1.100525	-0.441914	0.000140
C34	C	1.030603	-0.492224	0.000122
C35	C	1.033282	0.159543	0.000120
C36	C	1.117314	0.161764	0.000125
C37	C	0.890637	0.398746	0.000100
C38	C	0.892861	0.538151	0.000098
N39	N	0.894940	0.169115	0.195771
N40	N	0.894980	0.169142	-0.195561
C41	C	0.945960	0.083619	0.239042
C42	C	0.945964	0.083618	0.325590
C43	C	0.894950	0.169120	0.368863
C44	C	0.843924	0.254619	0.325586
C45	C	0.843917	0.254614	0.239040
C46	C	0.843950	0.254643	0.674614
C47	C	0.843962	0.254644	0.761165
C48	C	0.945997	0.083647	0.761163
C49	C	0.945990	0.083642	0.674618
C50	C	0.894962	0.169136	0.631348
C51	C	0.894957	0.169135	0.537503
C52	C	0.894958	0.169128	0.462706
H53	H	0.109361	0.369564	0.000109
C54	C	0.788521	0.347611	0.627791
C55	C	0.743865	0.422513	0.684216
C56	C	0.692801	0.508185	0.641110
H57	H	0.756704	0.302649	0.594037
H58	H	0.815995	0.399901	0.594038
H59	H	0.716393	0.370230	0.717955
H60	H	0.775661	0.467503	0.717972
H61	H	0.720274	0.560474	0.607356
H62	H	0.660989	0.463212	0.607357
H63	H	0.662500	0.559023	0.679387
C64	C	0.788621	0.347396	0.372715
C65	C	0.799561	0.329129	0.457770
C66	C	0.748637	0.414588	0.501209
H67	H	0.738005	0.333945	0.358641
H68	H	0.797283	0.431218	0.358568
H69	H	0.790893	0.245328	0.471912
H70	H	0.850166	0.342591	0.471869
H71	H	0.757299	0.498410	0.487062
H72	H	0.698025	0.401130	0.487129
H73	H	0.756058	0.402214	0.558924
C74	C	1.001354	-0.009394	0.808041
C75	C	0.988447	-0.132772	0.786980
C76	C	1.039432	-0.218510	0.830137
H77	H	0.994104	0.002672	0.865794
H78	H	1.051949	0.004063	0.793835
H79	H	0.937864	-0.146224	0.801192
H80	H	0.995703	-0.144878	0.729235
H81	H	1.090027	-0.205053	0.815931
H82	H	1.032178	-0.206433	0.887889
H83	H	1.030687	-0.302231	0.815848
C84	C	0.693522	-0.062119	-0.000080
C85	C	0.679413	-0.131646	-0.070825
C86	C	0.727282	-0.245082	-0.071014
H87	H	0.684090	-0.109635	0.047813
H88	H	0.745003	-0.044385	-0.000127
H89	H	0.627944	-0.149383	-0.070770
H90	H	0.688850	-0.084168	-0.118729
H91	H	0.778763	-0.227348	-0.071061
H92	H	0.717846	-0.292586	-0.023119
H93	H	0.717721	-0.292264	-0.119017
C94	C	0.296049	-0.072769	0.000082
C95	C	0.251950	-0.174341	0.000065
C96	C	0.299711	-0.287893	0.000021
H97	H	0.327215	-0.076894	0.048016
H98	H	0.327189	-0.076780	-0.047884
H99	H	0.220822	-0.170332	0.048026
H100	H	0.220785	-0.170257	-0.047866
H101	H	0.330851	-0.291903	-0.047945
H102	H	0.330874	-0.292005	0.047956
H103	H	0.269797	-0.356822	0.000002
C104	C	1.174243	-0.529296	0.000191
C105	C	1.235921	-0.457203	0.000227
C106	C	1.303844	-0.537653	0.000289
H107	H	1.176407	-0.581044	-0.047744
H108	H	1.176322	-0.581013	0.048156
H109	H	1.233843	-0.405507	-0.047733
H110	H	1.233782	-0.405458	0.048159
H111	H	1.305923	-0.589370	0.048255
H112	H	1.306000	-0.589397	-0.047646
H113	H	1.345700	-0.488750	0.000322
C114	C	0.749072	-0.435612	0.000201
C115	C	0.708014	-0.394570	0.070921
C116	C	0.638027	-0.444684	0.071053
H117	H	0.757429	-0.525169	0.000246
H118	H	0.721083	-0.407865	-0.047726
H119	H	0.735996	-0.422324	0.118835
H120	H	0.699637	-0.305020	0.070891
H121	H	0.610039	-0.416937	0.023126
H122	H	0.646392	-0.534239	0.071096
H123	H	0.610158	-0.416835	0.119031
H124	H	0.649978	0.383916	0.000069
H125	H	1.159547	-0.269958	0.000140
H126	H	0.139935	-0.045657	0.000127
H127	H	0.802370	0.324231	0.203809
H128	H	1.028903	-0.598881	0.000108
H129	H	0.537303	-0.035099	0.000115
H130	H	0.771906	-0.184498	0.000077
C131	C	1.001381	-0.009354	0.192213
C132	C	1.046049	-0.084251	0.248637
C133	C	1.097104	-0.169928	0.205531
H134	H	1.033191	0.035604	0.158440
H135	H	0.973900	-0.061647	0.158478
H136	H	1.073529	-0.031965	0.282358
H137	H	1.014260	-0.129237	0.282412
H138	H	1.069622	-0.222220	0.171796
H139	H	1.128908	-0.124959	0.171759
H140	H	1.127412	-0.220763	0.243808
H141	H	0.506745	0.380114	0.000084
H142	H	1.036507	-0.123604	0.000142
H143	H	0.987508	0.014000	0.360821
C144	C	1.001187	-0.009469	0.627611
C145	C	0.960362	-0.086218	0.578020
C146	C	1.011151	-0.172098	0.534735
H147	H	1.031525	-0.060500	0.665749
H148	H	1.032988	0.035375	0.593736
H149	H	0.928574	-0.131059	0.611892
H150	H	0.930027	-0.035223	0.539867
H151	H	1.042952	-0.127253	0.500860
H152	H	1.041487	-0.223119	0.572879
H153	H	0.983460	-0.224174	0.501077
H154	H	0.252606	0.373366	0.000098
H155	H	0.802418	0.324272	0.796397
