data_functionalizedCrystal
_audit_creation_method	'MofGen! by Chris Wilmer'
_symmetry_space_group_name_H-M	'P1'
_symmetry_Int_Tables_number	1
_symmetry_cell_setting	triclinic
loop_
_symmetry_equiv_pos_as_xyz
  x,y,z
_cell_length_a	16.992694
_cell_length_b	13.339070
_cell_length_c	16.053802
_cell_angle_alpha	93.267614
_cell_angle_beta	87.249047
_cell_angle_gamma	103.148759
loop_
_atom_site_label
_atom_site_type_symbol
_atom_site_fract_x
_atom_site_fract_y
_atom_site_fract_z
O1	O	1.090314	0.214289	-0.069315
O2	O	0.861508	0.211892	-0.069340
O3	O	0.949651	0.063704	-0.069328
O4	O	1.002170	0.362477	-0.069327
O5	O	0.944792	0.071825	0.069530
O6	O	0.856649	0.220013	0.069518
O7	O	1.085454	0.222410	0.069543
Zn8	Zn	0.970280	0.222501	0.091577
Zn9	Zn	0.976682	0.211801	-0.091374
O10	O	0.997311	0.370598	0.069531
C11	C	0.829196	0.212871	0.000086
C12	C	0.740151	0.203676	0.000076
C13	C	0.938350	0.029358	0.000099
C14	C	0.911906	-0.085082	0.000093
C15	C	0.709211	0.292389	0.000077
C16	C	0.625543	0.283745	0.000089
C17	C	0.572817	0.186385	0.000093
C18	C	0.603763	0.097665	0.000095
C19	C	0.687429	0.106311	0.000090
C20	C	0.321423	0.150552	0.000116
C21	C	0.237752	0.141912	0.000119
C22	C	0.259538	0.327993	0.000114
C23	C	0.343205	0.336630	0.000103
C24	C	0.374143	0.247910	0.000109
N25	N	0.487295	0.177547	0.000103
N26	N	0.459663	0.256750	0.000106
C27	C	1.117519	-0.433251	0.000116
C28	C	1.142367	-0.325729	0.000126
C29	C	1.084754	-0.265562	0.000118
C30	C	1.002289	-0.312928	0.000099
C31	C	0.977439	-0.420460	0.000095
C32	C	0.944673	-0.252771	0.000097
C33	C	0.862209	-0.300136	0.000078
C34	C	0.837363	-0.407658	0.000074
C35	C	0.894976	-0.467825	0.000082
C36	C	0.969524	-0.145239	0.000101
C37	C	0.829443	-0.132447	0.000080
C38	C	0.804596	-0.239970	0.000070
C39	C	1.117767	0.221431	0.000115
C40	C	1.206811	0.230626	0.000120
C41	C	1.008612	0.404944	0.000102
C42	C	1.035056	0.519384	0.000103
N43	N	0.965916	0.229803	0.216437
N44	N	0.981051	0.204492	-0.216234
C45	C	1.003445	0.166774	0.260136
C46	C	1.000402	0.171892	0.347543
C47	C	0.959834	0.240045	0.391248
C48	C	0.922300	0.303076	0.347543
C49	C	0.925339	0.297952	0.260138
C50	C	0.946555	0.262399	0.652656
C51	C	0.943522	0.267520	0.740067
C52	C	1.021623	0.136334	0.740060
C53	C	1.024662	0.131221	0.652654
C54	C	0.987124	0.194248	0.608956
N55	N	0.956725	0.245281	0.480592
N56	N	0.990229	0.189006	0.519615
H57	H	0.752136	0.371670	0.000073
Br58	Br	0.414757	0.468765	0.000088
H59	H	1.036484	0.111281	0.224557
Br60	Br	0.166193	0.009774	0.000143
H61	H	1.104990	-0.178013	0.000126
H62	H	1.164418	-0.482247	0.000129
H63	H	0.770215	-0.446220	0.000065
H64	H	1.036667	-0.106684	0.000116
H65	H	0.889264	0.358564	0.383133
H66	H	0.234339	0.400223	0.000111
Br67	Br	0.583556	0.404148	0.000087
Br68	Br	0.532206	-0.034467	0.000110
Br69	Br	1.079722	0.038731	0.593338
Br70	Br	0.363399	0.030145	0.000126
Br71	Br	0.729420	-0.014090	0.000096
Br72	Br	0.861260	-0.613762	-0.000045
H73	H	0.737452	-0.278550	0.000055
Br74	Br	1.254278	-0.261454	0.000134
H75	H	0.782530	-0.083459	0.000077
H76	H	1.030961	0.120569	0.383122
Br77	Br	1.072562	0.050799	0.799367
H78	H	0.910485	0.323023	0.775648
H79	H	0.915992	0.313720	0.617084
Br80	Br	0.874397	0.383488	0.200832
