data_functionalizedCrystal
_audit_creation_method	'MofGen! by Chris Wilmer'
_symmetry_space_group_name_H-M	'P1'
_symmetry_Int_Tables_number	1
_symmetry_cell_setting	triclinic
loop_
_symmetry_equiv_pos_as_xyz
  x,y,z
_cell_length_a	21.295417
_cell_length_b	16.959455
_cell_length_c	16.959447
_cell_angle_alpha	89.977004
_cell_angle_beta	89.964725
_cell_angle_gamma	90.027526
loop_
_atom_site_label
_atom_site_type_symbol
_atom_site_fract_x
_atom_site_fract_y
_atom_site_fract_z
Zn1	Zn	-0.250646	1.208347	-0.447010
Zn2	Zn	-0.355923	1.208239	-0.314820
Zn3	Zn	-0.250666	1.076169	-0.314833
Zn4	Zn	-0.355876	1.076116	-0.446944
O5	O	-0.303278	1.142218	-0.380902
O6	O	-0.264623	1.318944	-0.429496
O7	O	-0.341989	1.190697	-0.204211
O8	O	-0.162574	1.093770	-0.332399
O9	O	-0.341969	1.318864	-0.332377
O10	O	-0.162560	1.190881	-0.429509
O11	O	-0.264657	1.093666	-0.204220
O12	O	-0.264611	0.965551	-0.332336
O13	O	-0.341889	1.093679	-0.557564
O14	O	-0.341908	0.965512	-0.429398
O15	O	-0.264577	1.190829	-0.557612
O16	O	-0.444006	1.190646	-0.332313
O17	O	-0.443972	1.093575	-0.429385
C18	C	-0.303257	0.936852	-0.380862
C19	C	-0.303264	0.848995	-0.380864
C20	C	-0.343512	0.477468	-0.330306
C21	C	-0.263096	0.477571	-0.431594
C22	C	-0.263085	0.560117	-0.431574
C23	C	-0.303290	0.601342	-0.380921
C24	C	-0.343505	0.560021	-0.330287
C25	C	-0.222876	0.601444	-0.482213
C26	C	-0.222864	0.683995	-0.482197
C27	C	-0.263066	0.725222	-0.431539
C28	C	-0.303282	0.683896	-0.380902
C29	C	-0.343486	0.725121	-0.330248
C30	C	-0.383700	0.683796	-0.279607
C31	C	-0.383706	0.601248	-0.279629
C32	C	-0.263059	0.807770	-0.431517
C33	C	-0.343479	0.807674	-0.330229
C34	C	-0.466830	1.142114	-0.380858
C35	C	-0.536798	1.142142	-0.380866
C36	C	-0.569661	1.192732	-0.330372
C37	C	-0.635404	1.192769	-0.330390
C38	C	-0.668280	1.142202	-0.380893
C39	C	-0.635409	1.091609	-0.431396
C40	C	-0.569667	1.091579	-0.431382
N41	N	-0.771543	1.073056	-0.386905
N42	N	-0.833994	1.073087	-0.386914
C43	C	-0.866355	1.142291	-0.380938
N44	N	-0.833905	1.211465	-0.374939
N45	N	-0.771448	1.211433	-0.374926
C46	C	-0.739566	1.142230	-0.380914
C47	C	-0.970504	1.192925	-0.330462
C48	C	-1.036248	1.192963	-0.330485
C49	C	-1.036251	1.091796	-0.431487
C50	C	-0.970509	1.091765	-0.431467
C51	C	-0.937639	1.142328	-0.380951
C52	C	-0.139088	1.142343	-0.380963
C53	C	-0.069120	1.142397	-0.380989
C54	C	-0.303226	1.142260	-0.587070
C55	C	-0.303203	1.142278	-0.674927
C56	C	-0.303299	1.348386	-0.380942
C57	C	-0.303308	1.436243	-0.380959
C58	C	-0.262874	1.091828	-1.046414
C59	C	-0.343400	1.192868	-1.046391
C60	C	-0.343415	1.192854	-0.963845
C61	C	-0.303159	1.142326	-0.922580
C62	C	-0.262889	1.091811	-0.963860
C63	C	-0.383689	1.243362	-0.922559
C64	C	-0.383706	1.243349	-0.840008
C65	C	-0.343446	1.192825	-0.798741
C66	C	-0.303174	1.142309	-0.840026
C67	C	-0.262918	1.091781	-0.798761
C68	C	-0.222642	1.041268	-0.840045
C69	C	-0.222629	1.041287	-0.922593
C70	C	-0.343459	1.192806	-0.716192
C71	C	-0.262933	1.091764	-0.716207
C72	C	-0.303285	1.142221	-0.175535
C73	C	-0.303130	1.142356	-0.087679
H74	H	-0.230320	0.841413	-0.472750
F75	F	-1.071236	1.037984	-0.485240
H76	H	-0.230367	0.444001	-0.472838
F77	F	-0.426490	0.727680	-0.225704
H78	H	-0.542901	1.233905	-0.289241
F79	F	-0.220083	1.037988	-0.672296
F80	F	-0.220009	1.038075	-1.090351
F81	F	-0.180098	0.557566	-0.536128
H82	H	-0.662167	1.233968	-0.289273
F83	F	-0.386246	1.246634	-1.090311
H84	H	-0.662181	1.050439	-0.472517
F85	F	-0.426569	1.297111	-0.796077
F86	F	-0.426535	1.297126	-0.966480
H87	H	-0.189868	1.000125	-0.806436
H88	H	-0.190120	0.717635	-0.523432
H89	H	-0.376251	0.443818	-0.289073
F90	F	-0.935520	1.246737	-0.276698
F91	F	-0.935531	1.037917	-0.485207
H92	H	-0.542909	1.050382	-0.472501
F93	F	-1.071224	1.246816	-0.276745
H94	H	-0.189839	1.000161	-0.956214
F95	F	-0.386325	1.246556	-0.672258
H96	H	-0.416445	0.567594	-0.238399
F97	F	-0.386267	0.851542	-0.276311
