data_functionalizedCrystal
_audit_creation_method	'MofGen! by Chris Wilmer'
_symmetry_space_group_name_H-M	'P1'
_symmetry_Int_Tables_number	1
_symmetry_cell_setting	triclinic
loop_
_symmetry_equiv_pos_as_xyz
  x,y,z
_cell_length_a	19.077105
_cell_length_b	13.032721
_cell_length_c	19.076919
_cell_angle_alpha	99.138159
_cell_angle_beta	90.076224
_cell_angle_gamma	95.201395
loop_
_atom_site_label
_atom_site_type_symbol
_atom_site_fract_x
_atom_site_fract_y
_atom_site_fract_z
Zn1	Zn	1.013397	-0.505360	-0.481832
Zn2	Zn	1.513397	-0.005360	0.018168
Zn3	Zn	1.003124	-0.673317	-0.378090
Zn4	Zn	1.503124	-0.173317	0.121910
Zn5	Zn	0.901858	-0.491366	-0.358479
Zn6	Zn	1.401858	0.008634	0.141521
Zn7	Zn	0.881001	-0.672687	-0.490791
Zn8	Zn	1.381001	-0.172687	0.009209
O9	O	0.949845	-0.585683	-0.427298
O10	O	1.449845	-0.085683	0.072702
O11	O	1.109823	-0.533760	-0.472529
O12	O	1.609823	-0.033760	0.027471
O13	O	0.994119	-0.643588	-0.276699
O14	O	1.494119	-0.143588	0.223301
O15	O	0.929682	-0.347048	-0.362886
O16	O	1.429682	0.152952	0.137114
O17	O	1.102275	-0.657157	-0.396309
O18	O	1.602275	-0.157157	0.103691
O19	O	1.011630	-0.357329	-0.453513
O20	O	1.511630	0.142671	0.046487
O21	O	0.919720	-0.509909	-0.262291
O22	O	1.419720	-0.009909	0.237709
O23	O	0.801303	-0.509299	-0.371572
O24	O	1.301303	-0.009299	0.128428
O25	O	0.894135	-0.656084	-0.588392
O26	O	1.394135	-0.156084	-0.088392
O27	O	0.785980	-0.642515	-0.468781
O28	O	1.285980	-0.142515	0.031219
O29	O	0.991406	-0.533149	-0.581810
O30	O	1.491406	-0.033149	-0.081810
O31	O	0.973896	-0.819408	-0.404996
O32	O	1.473896	-0.319408	0.095004
O33	O	0.884173	-0.818945	-0.487797
O34	O	1.384173	-0.318945	0.012203
C35	C	0.768286	-0.574321	-0.419021
C36	C	1.268286	-0.074321	0.080979
C37	C	0.690611	-0.569486	-0.415499
C38	C	1.190611	-0.069486	0.084501
C39	C	0.925675	-0.857080	-0.449513
C40	C	1.425675	-0.357080	0.050487
C41	C	0.915397	-0.973191	-0.459043
C42	C	1.415397	-0.473191	0.040957
C43	C	0.646154	-0.636670	-0.464393
C44	C	1.146154	-0.136670	0.035607
C45	C	0.573171	-0.632114	-0.461086
C46	C	1.073171	-0.132114	0.038914
C47	C	0.544646	-0.560378	-0.408881
C48	C	1.044646	-0.060378	0.091119
C49	C	0.589109	-0.493187	-0.359985
C50	C	1.089109	0.006813	0.140015
C51	C	0.662091	-0.497739	-0.363296
C52	C	1.162091	0.002261	0.136704
C53	C	0.327230	-0.539312	-0.393562
C54	C	0.827230	-0.039312	0.106438
C55	C	0.254242	-0.534767	-0.390254
C56	C	0.754242	-0.034767	0.109746
C57	C	0.238309	-0.673693	-0.491357
C58	C	0.738309	-0.173693	0.008643
C59	C	0.311292	-0.678243	-0.494660
C60	C	0.811292	-0.178243	0.005340
C61	C	0.355749	-0.611048	-0.445766
C62	C	0.855749	-0.111048	0.054234
N63	N	0.470046	-0.555721	-0.405499
N64	N	0.970046	-0.055721	0.094501
N65	N	0.430348	-0.615700	-0.449153
N66	N	0.930348	-0.115700	0.050847
C67	C	0.955245	-1.025155	-0.422357
C68	C	1.455245	-0.525155	0.077643
C69	C	0.944623	-1.145161	-0.432206
C70	C	1.444623	-0.645161	0.067794
C71	C	1.132113	-0.597090	-0.435607
C72	C	1.632113	-0.097090	0.064393
C73	C	1.209785	-0.601951	-0.439148
C74	C	1.709785	-0.101951	0.060852
C75	C	0.941590	-0.596107	-0.611432
C76	C	1.441590	-0.096107	-0.111432
C77	C	0.938072	-0.600549	-0.689899
C78	C	1.438072	-0.100549	-0.189899
C79	C	0.974128	-0.313227	-0.405012
C80	C	1.474128	0.186773	0.094988
C81	C	0.984476	-0.197123	-0.395516
C82	C	1.484476	0.302877	0.104484
C83	C	0.987061	-0.538633	-0.723338
C84	C	1.487061	-0.038633	-0.223338
C85	C	0.983747	-0.542803	-0.797065
C86	C	1.483747	-0.042803	-0.297065
C87	C	0.931448	-0.608894	-0.837354
C88	C	1.431448	-0.108894	-0.337354
C89	C	0.882454	-0.670812	-0.803910
C90	C	1.382454	-0.170812	-0.303910
C91	C	0.885765	-0.666637	-0.730183
C92	C	1.385765	-0.166637	-0.230183
C93	C	0.916112	-0.628240	-1.058220
C94	C	1.416112	-0.128240	-0.558220
C95	C	0.912806	-0.632414	-1.131952
C96	C	1.412806	-0.132414	-0.631952
C97	C	1.014098	-0.504402	-1.125102
C98	C	1.514098	-0.004402	-0.625102
C99	C	1.017407	-0.500237	-1.051375
C100	C	1.517407	-0.000237	-0.551375
C101	C	0.968412	-0.562151	-1.017937
C102	C	1.468412	-0.062151	-0.517937
N103	N	0.928061	-0.613160	-0.912715
N104	N	1.428061	-0.113160	-0.412715
N105	N	0.971796	-0.557879	-0.942576
N106	N	1.471796	-0.057879	-0.442576
C107	C	0.958115	-0.575226	-0.243875
C108	C	1.458115	-0.075226	0.256125
C109	C	0.961794	-0.570498	-0.165391
C110	C	1.461794	-0.070498	0.334609
H111	H	0.669372	-0.695088	-0.506902
H112	H	1.169372	-0.195088	-0.006902
Cl113	Cl	0.218384	-0.444585	-0.324616
Cl114	Cl	0.718384	0.055415	0.175384
H115	H	0.202105	-0.728397	-0.531164
H116	H	0.702105	-0.228397	-0.031164
Cl117	Cl	0.347146	-0.768431	-0.560290
Cl118	Cl	0.847146	-0.268431	-0.060290
Cl119	Cl	0.383109	-0.454835	-0.332097
Cl120	Cl	0.883109	0.045165	0.167903
Cl121	Cl	0.553250	-0.402998	-0.294360
Cl122	Cl	1.053250	0.097002	0.205640
Cl123	Cl	1.075686	-0.426568	-1.167142
Cl124	Cl	1.575686	0.073432	-0.667142
Cl125	Cl	0.717981	-0.413273	-0.301828
Cl126	Cl	1.217981	0.086727	0.198172
H127	H	0.997225	-0.980802	-0.383660
H128	H	1.497225	-0.480802	0.116340
Cl129	Cl	0.879811	-1.213630	-0.491964
Cl130	Cl	1.379811	-0.713630	0.008036
Cl131	Cl	0.850588	-1.041664	-0.518798
Cl132	Cl	1.350588	-0.541664	-0.018798
Cl133	Cl	0.517285	-0.716578	-0.522556
Cl134	Cl	1.017285	-0.216578	-0.022556
H135	H	0.845867	-0.717044	-0.702958
H136	H	1.345867	-0.217044	-0.202958
H137	H	1.029650	-0.484818	-0.690541
H138	H	1.529650	0.015182	-0.190541
H139	H	1.026460	-1.152773	-0.356816
H140	H	1.526460	-0.652773	0.143184
Cl141	Cl	1.045363	-0.465010	-0.839104
Cl142	Cl	1.545363	0.034990	-0.339104
H143	H	1.059997	-0.446421	-1.018577
H144	H	1.559997	0.053579	-0.518577
Cl145	Cl	0.847050	-0.715500	-1.182599
Cl146	Cl	1.347050	-0.215500	-0.682599
H147	H	0.876225	-0.678671	-1.031006
H148	H	1.376225	-0.178671	-0.531006
H149	H	0.839869	-0.724621	-0.836718
H150	H	1.339869	-0.224621	-0.336718
