data_functionalizedCrystal
_audit_creation_method	'MofGen! by Chris Wilmer'
_symmetry_space_group_name_H-M	'P1'
_symmetry_Int_Tables_number	1
_symmetry_cell_setting	triclinic
loop_
_symmetry_equiv_pos_as_xyz
  x,y,z
_cell_length_a	12.970454
_cell_length_b	23.196401
_cell_length_c	23.196402
_cell_angle_alpha	60.008734
_cell_angle_beta	90.004259
_cell_angle_gamma	60.003367
loop_
_atom_site_label
_atom_site_type_symbol
_atom_site_fract_x
_atom_site_fract_y
_atom_site_fract_z
Zr1	Zr	0.993360	0.630927	-0.075568
O2	O	0.828750	0.751179	-0.167599
O3	O	1.043802	0.510675	-0.047368
O4	O	1.043812	0.630926	-0.167619
O5	O	0.828754	0.630930	0.047521
O6	O	1.213479	0.630925	-0.167620
O7	O	0.828739	0.630928	-0.047348
O8	O	1.213461	0.415819	0.047486
O9	O	0.828772	0.846036	-0.167585
O10	O	1.191959	0.560136	-0.035327
O11	O	1.065349	0.560138	0.035474
O12	O	1.065361	0.701717	-0.106106
O13	O	0.938751	0.701719	-0.035304
Zr14	Zr	1.263983	0.630929	0.075736
Zr15	Zr	1.263960	0.630926	-0.075571
Zr16	Zr	0.993383	0.630929	0.075738
Zr17	Zr	0.993396	0.782214	-0.075546
Zr18	Zr	1.263947	0.479642	0.075714
O19	O	1.213541	0.751181	0.047536
O20	O	1.213508	0.751178	-0.167603
O21	O	0.828782	0.751182	0.047539
O22	O	1.428593	0.510677	0.167767
O23	O	1.428560	0.510674	-0.047372
O24	O	1.043834	0.510678	0.167770
O25	O	1.428589	0.630926	-0.047354
O26	O	1.213530	0.630930	0.167787
O27	O	1.043863	0.630931	0.167788
O28	O	1.428603	0.630928	0.047516
O29	O	1.043863	0.846035	-0.167587
O30	O	1.213479	0.415820	0.167755
O31	O	1.428570	0.415820	0.167753
O32	O	1.428552	0.415818	0.047484
O33	O	0.828790	0.846038	-0.047317
O34	O	1.043881	0.846037	-0.047318
O35	O	1.191981	0.560138	0.106273
O36	O	1.318591	0.560137	0.035472
O37	O	1.191993	0.701718	-0.035306
O38	O	1.065383	0.701720	0.035495
C39	C	0.790192	0.630929	0.000087
C40	C	0.675315	0.630929	0.000088
C41	C	1.128700	0.630931	0.189345
C42	C	1.128710	0.630932	0.253579
C43	C	1.128716	0.820164	0.000112
C44	C	1.128731	0.884389	0.000121
C45	C	1.467150	0.630927	0.000081
C46	C	1.582027	0.630927	0.000080
C47	C	1.128626	0.441692	0.000056
C48	C	1.128611	0.377467	0.000046
C49	C	1.062628	0.914573	0.037069
C50	C	1.062618	0.974933	0.037065
C51	C	1.128696	1.005118	0.000100
C52	C	1.194814	0.974923	-0.036849
C53	C	1.194832	0.914559	-0.036838
C54	C	1.119228	1.134327	-0.061818
C55	C	1.119201	1.194693	-0.061831
C56	C	1.128648	1.191298	0.000067
C57	C	1.138097	1.127536	0.061977
C58	C	1.138115	1.067172	0.061987
C59	C	1.128684	1.070572	0.000084
C60	C	1.062531	1.286930	0.037013
C61	C	1.062531	1.347287	0.037011
C62	C	1.194718	1.347282	-0.036910
C63	C	1.194727	1.286920	-0.036901
C64	C	1.128627	1.256751	0.000059
C65	C	1.128642	0.630925	-0.189178
C66	C	1.128633	0.630924	-0.253411
C67	C	1.062632	0.704833	0.246809
C68	C	1.062614	0.704835	0.307163
C69	C	1.128697	0.630930	0.374287
C70	C	1.194777	0.557018	0.381055
C71	C	1.194784	0.557019	0.320701
C72	C	1.239390	0.574308	0.498215
C73	C	1.239387	0.574310	0.558567
C74	C	1.128676	0.630924	0.560441
C75	C	1.017968	0.687548	0.501950
C76	C	1.017974	0.687549	0.441596
C77	C	1.128697	0.630920	0.439735
C78	C	1.062573	0.704832	0.619111
C79	C	1.062550	0.704830	0.679468
C80	C	1.194726	0.557011	0.753360
C81	C	1.194736	0.557015	0.693004
C82	C	1.128662	0.630928	0.625882
C83	C	1.467105	0.441691	0.000053
C84	C	1.581967	0.377465	0.000042
C85	C	1.128655	0.441695	0.189317
C86	C	1.128649	0.377470	0.253541
C87	C	1.467134	0.441694	0.189314
C88	C	1.582005	0.377469	0.253537
C89	C	0.790208	0.820162	-0.189147
C90	C	0.675337	0.884387	-0.253370
C91	C	0.790237	0.820165	0.000115
C92	C	0.675375	0.884391	0.000125
C93	C	1.128687	0.820161	-0.189149
C94	C	1.128693	0.884385	-0.253374
C95	C	1.569807	0.347304	-0.036925
C96	C	1.677721	0.286966	-0.036949
C97	C	1.797794	0.256786	-0.000001
C98	C	1.809952	0.286953	0.036968
C99	C	1.702039	0.347294	0.036987
C100	C	1.194747	0.347311	0.320664
C101	C	1.194737	0.286974	0.381016
C102	C	1.128636	0.256794	0.374242
C103	C	1.062530	0.286960	0.307112
C104	C	1.062533	0.347299	0.246762
C105	C	1.702051	0.347308	0.246740
C106	C	1.809995	0.286971	0.307078
C107	C	1.797891	0.256792	0.374214
C108	C	1.677833	0.286959	0.381010
C109	C	1.569891	0.347299	0.320672
C110	C	0.555292	0.914555	-0.246572
C111	C	0.447348	0.974911	-0.306910
C112	C	0.459452	1.005093	-0.374046
C113	C	0.579509	0.974922	-0.380843
C114	C	0.687451	0.914572	-0.320505
C115	C	0.687536	0.914558	0.037087
C116	C	0.579621	0.974913	0.037094
C117	C	0.459548	1.005095	0.000144
C118	C	0.447390	0.974925	-0.036822
C119	C	0.555303	0.914575	-0.036833
C120	C	1.194807	0.914546	-0.246577
C121	C	1.194837	0.974884	-0.306917
C122	C	1.128745	1.005063	-0.374052
C123	C	1.062629	0.974896	-0.380847
C124	C	1.062607	0.914556	-0.320508
H125	H	1.008808	0.890011	0.067167
H126	H	0.349602	0.999466	-0.301363
H127	H	0.349612	0.999509	-0.066906
C128	C	1.916490	0.190403	-0.000024
N129	N	2.005888	0.140400	-0.000041
H130	H	1.008712	0.262378	0.301607
H131	H	1.329548	0.528199	0.496701
H132	H	1.128643	0.207661	0.423388
H133	H	1.248674	0.999439	-0.301371
C134	C	0.896193	0.749825	0.377264
N135	N	0.804462	0.796728	0.328810
H136	H	0.785296	0.889989	0.067181
C137	C	0.989841	1.380471	0.077677
N138	N	0.935099	1.405460	0.108312
C139	C	0.989886	0.786136	0.545275
N140	N	0.935138	0.847375	0.489662
C141	C	0.989984	1.008074	-0.454702
N142	N	0.935282	1.033057	-0.510332
C143	C	1.108807	1.264826	-0.129932
N144	N	1.100981	1.317648	-0.181228
C145	C	1.267527	0.881356	-0.172734
N146	N	1.322311	0.856356	-0.117117
C147	C	0.340700	1.071475	-0.440413
N148	N	0.251251	1.121470	-0.490399
H149	H	1.472149	0.371849	0.326217
H150	H	0.589545	0.999468	0.067199
C151	C	0.541946	0.881371	-0.172728
N152	N	0.531884	0.856385	-0.117110
C153	C	1.715396	0.380498	0.172896
N154	N	1.725458	0.405497	0.117278
H155	H	1.008763	0.890006	-0.326051
H156	H	1.128772	1.054196	-0.423178
C157	C	1.916643	0.190409	0.440581
N158	N	2.006091	0.140407	0.490566
H159	H	1.008779	0.999518	0.067148
C160	C	1.267476	0.253795	0.454852
N161	N	1.322267	0.228804	0.510464
H162	H	1.145811	1.015258	0.112397
H163	H	1.711958	0.371844	0.067095
C164	C	1.148491	1.123793	0.130070
N165	N	1.156318	1.120978	0.181355
H166	H	1.907730	0.262372	0.067050
C167	C	1.267461	0.380502	0.328133
N168	N	1.322225	0.405502	0.333764
C169	C	1.267411	1.380478	-0.077569
N170	N	1.322170	1.405481	-0.108191
H171	H	1.008712	1.262363	0.067110
C172	C	0.592803	1.008124	-0.454699
N173	N	0.602811	1.033129	-0.510329
H174	H	1.008713	0.371848	0.192110
C175	C	1.664539	0.253746	0.454867
N176	N	1.654531	0.228724	0.510497
H177	H	1.907741	0.262415	0.301532
H178	H	0.785194	0.890009	-0.326048
C179	C	0.340852	1.071478	0.000167
N180	N	0.251454	1.121476	0.000189
H181	H	1.248549	1.262346	-0.066991
C182	C	1.108846	1.138068	-0.129912
N183	N	1.101031	1.140885	-0.181199
C184	C	0.896172	0.749823	0.504007
N185	N	0.804438	0.796726	0.505561
H186	H	1.248663	0.889982	-0.066926
H187	H	0.545385	0.890015	-0.066930
H188	H	1.008827	0.765019	0.192159
C189	C	0.989929	0.786135	0.299718
N190	N	0.935185	0.847371	0.294108
H191	H	1.008734	0.765012	0.673949
C192	C	1.361167	0.512022	0.622902
N193	N	1.452895	0.465104	0.671359
C194	C	1.267588	0.475723	0.454893
N195	N	1.322472	0.414489	0.510509
C196	C	1.267435	0.475716	0.700453
N197	N	1.322193	0.414478	0.706066
H198	H	1.248618	0.999501	-0.066946
H199	H	1.248593	0.496838	0.326219
C200	C	1.664319	0.253786	-0.077612
N201	N	1.654221	0.228794	-0.108238
H202	H	1.248524	0.496836	0.808013
H203	H	1.472047	0.371876	-0.067022
