data_functionalizedCrystal
_audit_creation_method	'MofGen! by Chris Wilmer'
_symmetry_space_group_name_H-M	'P1'
_symmetry_Int_Tables_number	1
_symmetry_cell_setting	triclinic
loop_
_symmetry_equiv_pos_as_xyz
  x,y,z
_cell_length_a	16.625547
_cell_length_b	16.625546
_cell_length_c	18.215385
_cell_angle_alpha	89.905583
_cell_angle_beta	89.930962
_cell_angle_gamma	90.022405
loop_
_atom_site_label
_atom_site_type_symbol
_atom_site_fract_x
_atom_site_fract_y
_atom_site_fract_z
Zn1	Zn	1.233033	-0.320492	-0.416191
Zn2	Zn	1.733033	0.179508	0.083809
Zn3	Zn	1.232832	-0.455486	-0.293122
Zn4	Zn	1.732832	0.044514	0.206878
Zn5	Zn	1.098090	-0.320671	-0.293129
Zn6	Zn	1.598090	0.179329	0.206871
Zn7	Zn	1.098165	-0.455286	-0.416138
Zn8	Zn	1.598165	0.044714	0.083862
O9	O	1.165530	-0.387984	-0.354645
O10	O	1.665530	0.112016	0.145355
O11	O	1.345838	-0.338408	-0.399885
O12	O	1.845838	0.161592	0.100115
O13	O	1.214843	-0.437760	-0.190138
O14	O	1.714843	0.062240	0.309862
O15	O	1.116044	-0.207814	-0.309479
O16	O	1.616044	0.292186	0.190521
O17	O	1.345691	-0.437587	-0.309466
O18	O	1.845691	0.062413	0.190534
O19	O	1.215185	-0.207683	-0.399892
O20	O	1.715185	0.292317	0.100108
O21	O	1.115849	-0.338712	-0.190144
O22	O	1.615849	0.161288	0.309856
O23	O	0.985268	-0.338519	-0.309428
O24	O	1.485268	0.161481	0.190572
O25	O	1.116171	-0.437247	-0.519130
O26	O	1.616171	0.062753	-0.019130
O27	O	0.985322	-0.437420	-0.399802
O28	O	1.485322	0.062580	0.100198
O29	O	1.215257	-0.338214	-0.519169
O30	O	1.715257	0.161786	-0.019169
O31	O	1.214915	-0.568292	-0.309415
O32	O	1.714915	-0.068292	0.190585
O33	O	1.115976	-0.568145	-0.399795
O34	O	1.615976	-0.068145	0.100205
C35	C	0.956039	-0.387968	-0.354610
C36	C	1.456039	0.112032	0.145390
C37	C	0.866418	-0.387981	-0.354613
C38	C	1.366418	0.112019	0.145387
C39	C	0.793635	-0.387982	-0.354622
C40	C	1.293635	0.112018	0.145378
C41	C	0.702327	-0.387986	-0.354640
C42	C	1.202327	0.112014	0.145360
C43	C	0.629551	-0.387994	-0.354659
C44	C	1.129551	0.112006	0.145341
C45	C	0.538236	-0.387999	-0.354677
C46	C	1.038236	0.112001	0.145323
C47	C	1.165454	-0.597474	-0.354614
C48	C	1.665454	-0.097474	0.145386
C49	C	1.165495	-0.687096	-0.354626
C50	C	1.665495	-0.187096	0.145374
C51	C	1.165635	-1.015271	-0.354702
C52	C	1.665635	-0.515271	0.145298
C53	C	1.165594	-0.923963	-0.354683
C54	C	1.665594	-0.423963	0.145317
C55	C	1.165564	-0.851186	-0.354664
C56	C	1.665564	-0.351186	0.145336
C57	C	1.165524	-0.759872	-0.354645
C58	C	1.665524	-0.259872	0.145355
C59	C	1.375839	-0.388000	-0.354680
C60	C	1.875839	0.112000	0.145320
C61	C	1.465460	-0.388007	-0.354695
C62	C	1.965460	0.111993	0.145305
C63	C	1.165745	-0.387688	-0.546599
C64	C	1.665745	0.112312	-0.046599
C65	C	1.165836	-0.387563	-0.628398
C66	C	1.665836	0.112437	-0.128398
C67	C	1.165628	-0.177675	-0.354692
C68	C	1.665628	0.322325	0.145308
C69	C	1.165670	-0.088053	-0.354712
C70	C	1.665670	0.411947	0.145288
C71	C	1.165362	-0.388219	-0.163438
C72	C	1.665362	0.111781	0.336562
C73	C	1.165427	-0.388118	-0.081640
C74	C	1.665427	0.111882	0.418360
C75	C	1.113685	-0.336693	0.106516
C76	C	1.613685	0.163307	0.606516
C77	C	1.113755	-0.336597	0.183375
C78	C	1.613755	0.163403	0.683375
C79	C	1.217584	-0.438990	0.183441
C80	C	1.717584	0.061010	0.683441
C81	C	1.217517	-0.439081	0.106584
C82	C	1.717517	0.060919	0.606584
C83	C	1.165563	-0.387934	0.068123
C84	C	1.665563	0.112066	0.568123
C85	C	1.165700	-0.387747	0.221839
C86	C	1.665700	0.112253	0.721839
C87	C	1.165777	-0.387643	0.305173
C88	C	1.665777	0.112357	0.805173
C89	C	1.165487	-0.388037	-0.015215
C90	C	1.665487	0.111963	0.484785
H91	H	1.071384	-0.295043	0.075204
H92	H	1.571384	0.204957	0.575204
N93	N	1.270633	-0.491251	0.222728
N94	N	1.770633	0.008749	0.722728
N95	N	1.265775	-0.565698	0.214336
N96	N	1.765775	-0.065698	0.714336
H97	H	1.303240	-0.602612	0.242082
H98	H	1.803240	-0.102612	0.742082
H99	H	1.071512	-0.294870	0.214631
H100	H	1.571512	0.205130	0.714631
H101	H	1.259767	-0.480808	0.075323
H102	H	1.759767	0.019192	0.575323
