data_functionalizedCrystal
_audit_creation_method	'MofGen! by Chris Wilmer'
_symmetry_space_group_name_H-M	'P1'
_symmetry_Int_Tables_number	1
_symmetry_cell_setting	triclinic
loop_
_symmetry_equiv_pos_as_xyz
  x,y,z
_cell_length_a	14.044220
_cell_length_b	15.995350
_cell_length_c	12.503572
_cell_angle_alpha	93.525550
_cell_angle_beta	86.164750
_cell_angle_gamma	88.340626
loop_
_atom_site_label
_atom_site_type_symbol
_atom_site_fract_x
_atom_site_fract_y
_atom_site_fract_z
O1	O	1.263165	0.197434	-0.089196
O2	O	0.987198	0.190148	-0.089224
O3	O	1.132725	0.072467	-0.089208
O4	O	1.117638	0.315115	-0.089212
O5	O	1.121781	0.081333	0.089432
O6	O	0.976253	0.199014	0.089417
O7	O	1.252221	0.206300	0.089445
Cu8	Cu	1.113237	0.203467	0.105742
Cu9	Cu	1.126181	0.192981	-0.105521
O10	O	1.106693	0.323981	0.089429
C11	C	0.946411	0.191392	0.000093
C12	C	0.841186	0.181881	0.000082
C13	C	1.126629	0.045658	0.000110
C14	C	1.124760	-0.047432	0.000104
C15	C	0.648523	0.164494	0.000104
C16	C	0.590890	0.231950	0.000107
C17	C	0.483686	0.222276	0.000119
C18	C	0.755737	0.174167	0.000092
C19	C	1.118044	-0.385681	0.000107
C20	C	1.014426	-0.346008	-0.000304
C21	C	1.016272	-0.249158	0.000099
C22	C	1.121375	-0.217872	0.000105
C23	C	1.166245	-0.250068	0.102120
C24	C	1.163636	-0.346894	0.102206
C25	C	1.178223	-0.357175	-0.100942
C26	C	1.178281	-0.260298	-0.102290
C27	C	1.123263	-0.123033	0.000107
C28	C	1.116158	-0.480519	0.000111
C29	C	1.293007	0.205055	0.000125
C30	C	1.398233	0.214567	0.000129
C31	C	1.112789	0.350789	0.000108
C32	C	1.114659	0.443879	0.000108
N33	N	1.104141	0.210842	0.254333
N34	N	1.135285	0.185600	-0.254113
C35	C	1.090759	0.221698	0.473447
C36	C	1.148663	0.174747	0.526780
C37	C	1.141218	0.180787	0.648703
C38	C	1.098204	0.215658	0.351514
H39	H	0.622061	0.296967	0.000101
H40	H	0.617354	0.099482	0.000111
H41	H	1.255304	-0.239517	-0.108445
H42	H	1.145529	-0.239586	-0.177759
H43	H	0.980568	-0.227367	-0.073031
C44	C	0.964515	-0.380115	-0.099142
C45	C	1.017228	-0.444411	-0.180691
C46	C	0.967320	-0.478518	-0.279539
C47	C	0.864698	-0.448329	-0.296838
C48	C	0.811979	-0.384029	-0.215286
C49	C	0.861887	-0.349922	-0.116439
H50	H	1.093201	-0.466762	-0.167888
H51	H	1.006347	-0.526116	-0.339908
H52	H	0.827753	-0.473577	-0.370010
H53	H	0.736007	-0.361679	-0.228090
H54	H	0.822860	-0.302324	-0.056069
H55	H	0.968729	-0.365072	0.072438
C56	C	1.270244	-0.222938	0.107265
C57	C	1.315745	-0.171111	0.018679
C58	C	1.419744	-0.143980	0.023822
C59	C	1.478241	-0.168676	0.117551
C60	C	1.432741	-0.220507	0.206143
C61	C	1.328742	-0.247638	0.201001
H62	H	1.272441	-0.152826	-0.050710
H63	H	1.453426	-0.105611	-0.041760
H64	H	1.555227	-0.148592	0.121358
H65	H	1.476045	-0.238791	0.275533
H66	H	1.295060	-0.286006	0.266583
C67	C	0.955569	-0.210677	0.099054
C68	C	0.905266	-0.268082	0.177961
C69	C	0.844563	-0.229601	0.276924
C70	C	0.834164	-0.133714	0.296979
C71	C	0.884469	-0.076303	0.218070
C72	C	0.945172	-0.114784	0.119107
H73	H	0.912962	-0.339068	0.163117
H74	H	0.807324	-0.272100	0.335337
H75	H	0.789228	-0.105228	0.370237
H76	H	0.876773	-0.005317	0.232914
H77	H	0.982411	-0.072285	0.060694
H78	H	1.121688	-0.364195	0.178460
C79	C	1.223196	0.114322	0.464770
C80	C	1.230590	0.108244	0.341084
C81	C	1.305122	0.047825	0.279068
C82	C	1.372260	-0.006516	0.340738
C83	C	1.364868	-0.000440	0.464431
C84	C	1.290336	0.059979	0.526447
H85	H	1.180888	0.148472	0.295426
H86	H	1.310593	0.043327	0.187502
H87	H	1.427433	-0.051242	0.294830
H88	H	1.414569	-0.040668	0.510089
H89	H	1.284864	0.064477	0.618013
C90	C	1.266042	-0.382476	0.108492
C91	C	1.349930	-0.322775	0.113423
C92	C	1.452332	-0.358353	0.119722
C93	C	1.470845	-0.453632	0.121089
C94	C	1.386954	-0.513339	0.116158
C95	C	1.284553	-0.477761	0.109859
H96	H	1.336228	-0.252238	0.112411
H97	H	1.514433	-0.314153	0.123372
H98	H	1.546649	-0.479968	0.125752
H99	H	1.400657	-0.583875	0.117170
H100	H	1.222451	-0.521961	0.106209
C101	C	1.016244	0.282132	0.535453
C102	C	1.008186	0.287574	0.659134
C103	C	0.933674	0.348010	0.721154
C104	C	0.867221	0.403006	0.659492
C105	C	0.875277	0.397566	0.535804
C106	C	0.949789	0.337129	0.473784
H107	H	1.057380	0.246861	0.704786
H108	H	0.927711	0.352037	0.812717
H109	H	0.812063	0.447745	0.705403
H110	H	0.826083	0.438279	0.490152
H111	H	0.955752	0.333103	0.382221
H112	H	1.126089	-0.220570	0.178033
H113	H	1.254680	-0.383262	-0.101623
C114	C	1.138848	-0.393518	-0.205404
C115	C	1.202952	-0.451242	-0.284949
C116	C	1.163565	-0.487584	-0.389404
C117	C	1.060073	-0.466203	-0.414313
C118	C	0.995963	-0.408476	-0.334766
C119	C	1.035350	-0.372134	-0.230312
H120	H	1.279568	-0.467072	-0.266511
H121	H	1.211024	-0.530318	-0.448289
H122	H	1.030916	-0.493106	-0.491637
H123	H	0.919346	-0.392646	-0.353204
H124	H	0.987891	-0.329400	-0.171426
