data_functionalizedCrystal
_audit_creation_method	'MofGen! by Chris Wilmer'
_symmetry_space_group_name_H-M	'P1'
_symmetry_Int_Tables_number	1
_symmetry_cell_setting	triclinic
loop_
_symmetry_equiv_pos_as_xyz
  x,y,z
_cell_length_a	11.792241
_cell_length_b	13.339070
_cell_length_c	12.377033
_cell_angle_alpha	104.397079
_cell_angle_beta	78.633117
_cell_angle_gamma	99.911355
loop_
_atom_site_label
_atom_site_type_symbol
_atom_site_fract_x
_atom_site_fract_y
_atom_site_fract_z
O1	O	-1.534022	-0.158167	-0.093882
O2	O	-1.208086	-0.172487	-0.093908
O3	O	-1.333647	-0.017859	-0.093895
O4	O	-1.408460	-0.312796	-0.093896
O5	O	-1.365008	0.020739	0.094104
O6	O	-1.239446	-0.133890	0.094091
O7	O	-1.565382	-0.119570	0.094117
Zn8	Zn	-1.407394	-0.120602	0.123953
Zn9	Zn	-1.366075	-0.171456	-0.123744
O10	O	-1.439821	-0.274199	0.094103
C11	C	-1.336690	0.039198	0.000102
C12	C	-1.299020	0.151705	0.000095
C13	C	-1.181197	-0.152290	0.000088
C14	C	-1.054353	-0.149601	0.000078
C15	C	-1.592270	-0.139768	0.000118
C16	C	-1.719113	-0.142458	0.000121
C17	C	-0.822122	-0.144645	0.000111
C18	C	-0.951351	-0.147399	0.000093
C19	C	-1.436778	-0.331256	0.000104
C20	C	-1.474447	-0.443764	0.000104
N21	N	-1.435601	-0.085895	0.292999
C22	C	-1.591918	0.514896	0.000118
C23	C	-1.627315	0.409192	0.000132
C24	C	-1.545244	0.344815	0.000122
C25	C	-1.427770	0.386153	0.000100
C26	C	-1.392370	0.491869	0.000095
C27	C	-1.345697	0.321788	0.000099
C28	C	-1.228222	0.363125	0.000077
C29	C	-1.192828	0.468831	0.000071
C30	C	-1.274899	0.533208	0.000081
C31	C	-1.381096	0.216072	0.000103
C32	C	-1.181549	0.193044	0.000080
C33	C	-1.146151	0.298748	0.000067
N34	N	-1.337874	-0.206155	-0.292791
C35	C	-1.272371	-0.286749	0.648052
C36	C	-1.252609	-0.311048	0.529721
C37	C	-1.298356	-0.254762	0.470534
C38	C	-1.363867	-0.174172	0.529692
C39	C	-1.383623	-0.149864	0.648035
C40	C	-1.409608	-0.117878	0.470517
C41	C	-1.475119	-0.037287	0.529674
C42	C	-1.494872	-0.012984	0.648006
C43	C	-1.449126	-0.069270	0.707192
C44	C	-1.389852	-0.142185	0.352174
C45	C	-1.501103	-0.005301	0.352156
C46	C	-1.520865	0.018999	0.470488
H47	H	-1.476745	0.182426	0.000122
O48	O	-1.319200	-0.229101	0.288364
H49	H	-1.362352	-0.303526	0.311070
O50	O	-1.583413	0.230802	0.000126
H51	H	-1.678885	0.212870	0.000132
O52	O	-1.181958	-0.397968	0.465924
H53	H	-1.175895	-0.405406	0.373695
O54	O	-1.680426	0.584335	0.000145
H55	H	-1.722298	0.553842	-0.076466
O56	O	-1.277055	-0.280972	0.342905
H57	H	-1.223826	-0.346473	0.311712
H58	H	-1.722963	0.375543	0.000151
O59	O	-1.591523	0.105918	0.534305
H60	H	-1.620029	0.140972	0.473278
O61	O	-1.236716	0.647225	0.000081
H62	H	-1.313524	0.685041	0.000097
O63	O	-1.066129	0.513426	0.000062
H64	H	-1.015003	0.450904	0.000048
H65	H	-1.235123	-0.332565	0.696249
H66	H	-1.465219	-0.049489	0.803547
H67	H	-1.538352	0.040535	0.303968
H68	H	-1.548204	0.052645	0.696172
H69	H	-1.050501	0.332421	0.000049
O70	O	-1.093014	0.123623	0.000066
H71	H	-1.137362	0.043169	0.000060
