data_functionalizedCrystal
_audit_creation_method	'MofGen! by Chris Wilmer'
_symmetry_space_group_name_H-M	'P1'
_symmetry_Int_Tables_number	1
_symmetry_cell_setting	triclinic
loop_
_symmetry_equiv_pos_as_xyz
  x,y,z
_cell_length_a	12.827893
_cell_length_b	25.639240
_cell_length_c	12.827885
_cell_angle_alpha	90.043165
_cell_angle_beta	90.019272
_cell_angle_gamma	90.032919
loop_
_atom_site_label
_atom_site_type_symbol
_atom_site_fract_x
_atom_site_fract_y
_atom_site_fract_z
Zn1	Zn	1.597543	-0.208123	0.590751
Zn2	Zn	1.597385	-0.295568	0.415971
Zn3	Zn	1.422785	-0.208149	0.416025
Zn4	Zn	1.422717	-0.295530	0.590671
O5	O	1.510108	-0.251843	0.503355
O6	O	1.743758	-0.219728	0.567578
O7	O	1.574185	-0.283999	0.269742
O8	O	1.446062	-0.134980	0.439259
O9	O	1.743642	-0.283974	0.439167
O10	O	1.574456	-0.134961	0.567630
O11	O	1.445908	-0.219772	0.269782
O12	O	1.276540	-0.219735	0.439181
O13	O	1.445946	-0.283908	0.736918
O14	O	1.276490	-0.283933	0.567493
O15	O	1.574391	-0.219691	0.736977
O16	O	1.574120	-0.368728	0.439089
O17	O	1.445792	-0.368700	0.567440
C18	C	1.238598	-0.251833	0.503335
C19	C	1.122445	-0.251841	0.503351
C20	C	1.070717	-0.220107	0.566992
C21	C	0.950667	-0.220115	0.567010
C22	C	1.509960	-0.387685	0.503273
C23	C	1.509992	-0.445799	0.503273
C24	C	1.576996	-0.806114	0.570318
C25	C	1.577027	-0.860718	0.570339
O26	O	1.633820	-0.888914	0.627259
N27	N	1.510253	-0.888082	0.503456
C28	C	1.443436	-0.860838	0.436554
O29	O	1.386642	-0.889127	0.379667
C30	C	1.443401	-0.806235	0.436539
C31	C	1.510186	-0.778874	0.503419
C32	C	1.643775	-0.778753	0.637194
C33	C	1.643746	-0.724153	0.637171
C34	C	1.576936	-0.696913	0.570272
C35	C	1.510157	-0.724273	0.503396
C36	C	1.376579	-0.778992	0.369643
C37	C	1.376549	-0.724385	0.369634
C38	C	1.443335	-0.697024	0.436515
C39	C	1.443318	-0.642433	0.436475
N40	N	1.510092	-0.615070	0.503358
C41	C	1.576901	-0.642310	0.570257
C42	C	1.443514	-0.975508	0.436592
C43	C	1.443554	-1.030111	0.436601
C44	C	1.577143	-1.029987	0.570388
C45	C	1.577108	-0.975384	0.570373
C46	C	1.510288	-0.948145	0.503476
C47	C	1.576834	-0.527644	0.570203
C48	C	1.576802	-0.473039	0.570171
C49	C	1.443209	-0.473167	0.436389
C50	C	1.443245	-0.527768	0.436417
C51	C	1.510061	-0.555005	0.503332
O52	O	1.386551	-0.614203	0.379587
O53	O	1.633676	-0.614014	0.627144
C54	C	1.782678	-0.251853	0.503375
C55	C	1.898831	-0.251857	0.503384
C56	C	1.510179	-0.251792	0.775925
C57	C	1.510209	-0.251771	0.892078
C58	C	1.510284	-0.115470	0.503460
C59	C	1.510360	-0.057355	0.503504
C60	C	1.510097	-0.251855	0.231845
C61	C	1.510269	-0.251729	0.115692
C62	C	1.573774	-0.219988	0.943892
C63	C	1.573807	-0.219965	1.063943
H64	H	1.077853	-0.279015	0.448877
H65	H	1.628166	-0.192793	0.899375
O66	O	1.378345	-0.446620	0.371507
C67	C	1.392663	-0.392560	0.385822
H68	H	1.426849	-0.385056	0.466495
H69	H	1.448333	-0.377068	0.323878
C70	C	1.244932	-0.373788	0.277077
C71	C	1.286912	-0.364571	0.376164
H72	H	1.179702	-0.356523	0.271115
H73	H	1.235287	-0.410210	0.267428
H74	H	1.291334	-0.360878	0.225468
H75	H	1.240516	-0.377487	0.427770
H76	H	1.296546	-0.328152	0.385821
O77	O	1.641711	-0.446542	0.635244
C78	C	1.700697	-0.482299	0.694277
H79	H	1.657910	-0.521237	0.697868
H80	H	1.780089	-0.488091	0.656084
C81	C	1.768237	-0.413107	0.801096
C82	C	1.715680	-0.460931	0.805513
H83	H	1.777484	-0.399926	0.869710
H84	H	1.728500	-0.389017	0.761322
H85	H	1.834391	-0.417940	0.769263
H86	H	1.649523	-0.456096	0.837333
H87	H	1.755407	-0.485020	0.845295
O88	O	1.445487	-0.284220	1.062432
C89	C	1.504986	-0.317983	0.999297
H90	H	1.584215	-0.299541	0.983077
H91	H	1.516389	-0.356741	1.041269
C92	C	1.350239	-0.350071	0.915466
C93	C	1.447546	-0.327418	0.895537
H94	H	1.314806	-0.355893	0.851464
H95	H	1.310152	-0.327326	0.958004
H96	H	1.359755	-0.382367	0.950446
H97	H	1.438028	-0.295120	0.860571
H98	H	1.487630	-0.350158	0.852991
H99	H	1.628231	-0.192756	1.108501
H100	H	1.389181	-1.052383	0.382130
H101	H	1.455806	-0.278961	0.936595
H102	H	1.115308	-0.192930	0.621459
O103	O	1.378466	-0.949108	0.371644
C104	C	1.274308	-0.962480	0.394408
H105	H	1.272150	-1.002107	0.434599
H106	H	1.239053	-0.931739	0.448085
C107	C	1.213723	-0.916417	0.243110
C108	C	1.211072	-0.965088	0.292466
H109	H	1.174714	-0.918023	0.180229
H110	H	1.283895	-0.907406	0.227775
H111	H	1.184346	-0.890804	0.287852
H112	H	1.240461	-0.990699	0.247730
H113	H	1.140903	-0.974104	0.307791
O114	O	1.311543	-0.805535	0.304791
C115	C	1.207383	-0.792206	0.327539
H116	H	1.202075	-0.777165	0.411019
H117	H	1.180085	-0.760540	0.271493
C118	C	1.144166	-0.859210	0.212799
C119	C	1.137646	-0.840741	0.315333
H120	H	1.101147	-0.889148	0.205265
H121	H	1.214341	-0.868190	0.197469
H122	H	1.121420	-0.832818	0.166105
H123	H	1.160404	-0.867131	0.362024
H124	H	1.067473	-0.831767	0.330670
O125	O	0.897492	-0.187774	0.632066
C126	C	0.834385	-0.217615	0.699417
H127	H	0.818088	-0.257225	0.662395
H128	H	0.876420	-0.223383	0.776868
C129	C	0.750697	-0.140265	0.763844
C130	C	0.730674	-0.188913	0.718369
H131	H	0.686725	-0.122560	0.775539
H132	H	0.793216	-0.120160	0.718472
H133	H	0.785729	-0.145079	0.828381
H134	H	0.695654	-0.184098	0.653827
H135	H	0.688146	-0.209016	0.763731
O136	O	1.641794	-0.554153	0.635058
C137	C	1.709366	-0.585726	0.575641
H138	H	1.672557	-0.593970	0.496422
H139	H	1.786794	-0.564649	0.564210
C140	C	1.773514	-0.627427	0.730492
C141	C	1.728301	-0.637556	0.633196
H142	H	1.785200	-0.659397	0.765995
H143	H	1.727993	-0.606154	0.770523
H144	H	1.838034	-0.609861	0.720951
H145	H	1.663778	-0.655115	0.642738
H146	H	1.773813	-0.658833	0.593167
H147	H	0.943308	-0.279030	0.448902
H148	H	1.631490	-0.953110	0.624833
O149	O	1.311529	-0.697902	0.304797
C150	C	1.244002	-0.666308	0.364221
H151	H	1.237516	-0.682725	0.446528
H152	H	1.276285	-0.624909	0.367828
C153	C	1.143357	-0.645378	0.211985
C154	C	1.135384	-0.665545	0.313073
H155	H	1.076357	-0.644905	0.180433
H156	H	1.188853	-0.666661	0.171948
H157	H	1.170263	-0.610880	0.215005
H158	H	1.108490	-0.700044	0.310051
H159	H	1.089880	-0.644267	0.353108
O160	O	1.708631	-0.805151	0.702327
C161	C	1.685715	-0.791778	0.806456
H162	H	1.645500	-0.752154	0.808570
H163	H	1.632005	-0.822521	0.841627
C164	C	1.836952	-0.837834	0.867239
C165	C	1.787568	-0.789165	0.869835
H166	H	1.899778	-0.836225	0.906336
H167	H	1.852390	-0.846846	0.797085
H168	H	1.792183	-0.863449	0.896546
H169	H	1.832331	-0.763553	0.840516
H170	H	1.772140	-0.780149	0.939986
H171	H	1.698125	-0.701879	0.691633
H172	H	1.631541	-1.052176	0.624863
H173	H	1.388870	-0.550046	0.381949
