data_functionalizedCrystal
_audit_creation_method	'MofGen! by Chris Wilmer'
_symmetry_space_group_name_H-M	'P1'
_symmetry_Int_Tables_number	1
_symmetry_cell_setting	triclinic
loop_
_symmetry_equiv_pos_as_xyz
  x,y,z
_cell_length_a	10.654550
_cell_length_b	17.699083
_cell_length_c	9.130313
_cell_angle_alpha	89.994594
_cell_angle_beta	89.999724
_cell_angle_gamma	83.883973
loop_
_atom_site_label
_atom_site_type_symbol
_atom_site_fract_x
_atom_site_fract_y
_atom_site_fract_z
O1	O	1.665979	0.106303	-0.121693
O2	O	2.165979	0.606303	0.378307
O3	O	1.300323	0.116430	-0.121721
O4	O	1.800323	0.616430	0.378279
O5	O	1.493481	0.001243	-0.121693
O6	O	1.993481	0.501243	0.378307
O7	O	1.472820	0.221490	-0.121721
O8	O	1.972820	0.721490	0.378279
O9	O	1.493468	0.001240	0.121906
O10	O	1.993468	0.501240	0.621906
O11	O	1.300310	0.116427	0.121878
O12	O	1.800310	0.616427	0.621878
O13	O	1.665966	0.106299	0.121906
O14	O	2.165966	0.606299	0.621906
Cu15	Cu	1.483136	0.111363	0.144134
Cu16	Cu	1.983136	0.611363	0.644134
Cu17	Cu	1.483152	0.111367	-0.143949
Cu18	Cu	1.983152	0.611367	0.356051
O19	O	1.472807	0.221487	0.121878
O20	O	1.972807	0.721487	0.621878
C21	C	1.253531	0.115685	0.000076
C22	C	1.753531	0.615685	0.500076
C23	C	1.114127	0.113460	0.000066
C24	C	1.614127	0.613460	0.500066
C25	C	1.033454	0.181281	0.000061
C26	C	1.533454	0.681281	0.500061
C27	C	0.902470	0.179186	0.000087
C28	C	1.402470	0.679186	0.500087
C29	C	0.932844	0.041444	0.000115
C30	C	1.432844	0.541444	0.500115
C31	C	1.063826	0.043539	0.000100
C32	C	1.563826	0.543539	0.500100
C33	C	1.492735	-0.026960	0.000106
C34	C	1.992735	0.473040	0.500106
C35	C	1.490514	-0.110993	0.000107
C36	C	1.990514	0.389007	0.500107
C37	C	1.603894	-0.158893	0.000117
C38	C	2.103894	0.341107	0.500117
C39	C	1.601799	-0.237849	0.000104
C40	C	2.101799	0.262151	0.500104
C41	C	1.486323	-0.268904	0.000091
C42	C	1.986323	0.231096	0.500091
C43	C	1.372935	-0.220998	0.000076
C44	C	1.872935	0.279002	0.500076
C45	C	1.375030	-0.142043	0.000079
C46	C	1.875030	0.357957	0.500079
C47	C	1.364481	-0.539415	0.000064
C48	C	1.864481	-0.039415	0.500064
C49	C	1.362394	-0.618376	0.000065
C50	C	1.862394	-0.118376	0.500065
C51	C	1.591249	-0.635221	0.000089
C52	C	2.091249	-0.135221	0.500089
C53	C	1.593345	-0.556266	0.000092
C54	C	2.093345	-0.056266	0.500092
C55	C	1.479957	-0.508367	0.000069
C56	C	1.979957	-0.008367	0.500069
C57	C	1.482229	-0.422753	0.000080
C58	C	1.982229	0.077247	0.500080
C59	C	1.484050	-0.354516	0.000090
C60	C	1.984050	0.145484	0.500090
C61	C	1.712757	0.107045	0.000106
C62	C	2.212757	0.607045	0.500106
C63	C	1.852161	0.109269	0.000107
C64	C	2.352161	0.609269	0.500107
C65	C	1.473554	0.249690	0.000075
C66	C	1.973554	0.749690	0.500075
C67	C	1.475775	0.333722	0.000065
C68	C	1.975775	0.833722	0.500065
N69	N	1.483135	0.111360	0.346757
N70	N	1.983135	0.611360	0.846757
N71	N	1.483164	0.111364	-0.346572
N72	N	1.983164	0.611364	0.153428
C73	C	1.568694	0.060376	0.423421
C74	C	2.068694	0.560376	0.923421
C75	C	1.568706	0.060376	0.576758
C76	C	2.068706	0.560376	1.076758
C77	C	1.397596	0.162350	0.576753
C78	C	1.897596	0.662350	1.076753
C79	C	1.397579	0.162345	0.423419
C80	C	1.897579	0.662345	0.923419
H81	H	1.074405	0.238215	0.000044
H82	H	1.574405	0.738215	0.500044
H83	H	1.268354	-0.643657	0.000058
H84	H	1.768354	-0.143657	0.500058
Br85	Br	1.281445	0.231536	0.319363
Br86	Br	1.781445	0.731536	0.819363
Br87	Br	1.281490	0.231544	0.680800
Br88	Br	1.781490	0.731544	1.180800
Br89	Br	1.760619	-0.116755	0.000156
Br90	Br	2.260619	0.383245	0.500156
H91	H	0.836791	0.234412	0.000087
H92	H	1.336791	0.734412	0.500087
H93	H	1.638374	0.018860	0.639173
H94	H	2.138374	0.518860	1.139173
H95	H	1.278912	-0.246289	0.000056
H96	H	1.778912	0.253711	0.500056
Br97	Br	0.864570	-0.053444	0.000156
Br98	Br	1.364570	0.446556	0.500156
Br99	Br	1.173321	-0.048510	0.000124
Br100	Br	1.673321	0.451490	0.500124
H101	H	1.694125	-0.276847	0.000116
H102	H	2.194125	0.223153	0.500116
Br103	Br	1.750067	-0.514124	0.000108
Br104	Br	2.250067	-0.014124	0.500108
H105	H	1.638357	0.018859	0.361006
H106	H	2.138357	0.518859	0.861006
H107	H	1.282705	-0.103043	0.000070
H108	H	1.782705	0.396957	0.500070
Br109	Br	1.745137	-0.700232	0.000119
Br110	Br	2.245137	-0.200232	0.500119
H111	H	1.272153	-0.500424	0.000046
H112	H	1.772153	-0.000424	0.500046
