data_functionalizedCrystal
_audit_creation_method	'MofGen! by Chris Wilmer'
_symmetry_space_group_name_H-M	'P1'
_symmetry_Int_Tables_number	1
_symmetry_cell_setting	triclinic
loop_
_symmetry_equiv_pos_as_xyz
  x,y,z
_cell_length_a	21.395362
_cell_length_b	18.215405
_cell_length_c	21.395355
_cell_angle_alpha	90.019851
_cell_angle_beta	90.043940
_cell_angle_gamma	90.040762
loop_
_atom_site_label
_atom_site_type_symbol
_atom_site_fract_x
_atom_site_fract_y
_atom_site_fract_z
Zn1	Zn	0.957885	-0.292758	0.354580
Zn2	Zn	1.291218	0.040576	0.687913
Zn3	Zn	1.624551	0.373909	1.021246
Zn4	Zn	0.957798	-0.415806	0.249800
Zn5	Zn	1.291131	-0.082473	0.583133
Zn6	Zn	1.624465	0.250861	0.916467
Zn7	Zn	0.853100	-0.292792	0.249781
Zn8	Zn	1.186433	0.040541	0.583114
Zn9	Zn	1.519766	0.373875	0.916448
Zn10	Zn	0.853080	-0.415821	0.354505
Zn11	Zn	1.186413	-0.082488	0.687838
Zn12	Zn	1.519746	0.250846	1.021171
O13	O	0.905466	-0.354294	0.302166
O14	O	1.238799	-0.020961	0.635500
O15	O	1.572132	0.312373	0.968833
O16	O	1.045551	-0.309060	0.340720
O17	O	1.378885	0.024274	0.674053
O18	O	1.712218	0.357607	1.007387
O19	O	0.943882	-0.399496	0.162119
O20	O	1.277215	-0.066163	0.495453
O21	O	1.610548	0.267171	0.828786
O22	O	0.867045	-0.189803	0.263706
O23	O	1.200378	0.143530	0.597040
O24	O	1.533711	0.476864	0.930373
O25	O	1.045487	-0.399463	0.263739
O26	O	1.378821	-0.066129	0.597072
O27	O	1.712154	0.267204	0.930405
O28	O	0.944030	-0.189778	0.340702
O29	O	1.277363	0.143555	0.674035
O30	O	1.610696	0.476889	1.007368
O31	O	0.866960	-0.309118	0.162106
O32	O	1.200294	0.024215	0.495439
O33	O	1.533627	0.357549	0.828772
O34	O	0.765419	-0.309133	0.263634
O35	O	1.098753	0.024201	0.596967
O36	O	1.432086	0.357534	0.930300
O37	O	0.867010	-0.399488	0.442193
O38	O	1.200343	-0.066155	0.775526
O39	O	1.533677	0.267178	1.108859
O40	O	0.765404	-0.399522	0.340573
O41	O	1.098738	-0.066188	0.673907
O42	O	1.432071	0.267145	1.007240
O43	O	0.944010	-0.309074	0.442248
O44	O	1.277343	0.024259	0.775581
O45	O	1.610677	0.357592	1.108914
O46	O	0.943862	-0.518792	0.263666
O47	O	1.277195	-0.185459	0.596999
O48	O	1.610529	0.147874	0.930332
O49	O	0.866926	-0.518803	0.340592
O50	O	1.200259	-0.185470	0.673925
O51	O	1.533593	0.147863	1.007258
C52	C	0.742678	-0.354333	0.302094
C53	C	1.076011	-0.021000	0.635427
C54	C	1.409345	0.312334	0.968760
C55	C	0.673037	-0.354367	0.302077
C56	C	1.006370	-0.021034	0.635411
C57	C	1.339703	0.312299	0.968744
C58	C	0.640332	-0.401495	0.342080
C59	C	0.973665	-0.068162	0.675413
C60	C	1.306999	0.265171	1.008747
C61	C	0.574897	-0.401477	0.342108
C62	C	0.908230	-0.068144	0.675441
C63	C	1.241563	0.265189	1.008775
C64	C	0.542168	-0.354339	0.302122
C65	C	0.875502	-0.021006	0.635455
C66	C	1.208835	0.312328	0.968789
C67	C	0.574881	-0.307202	0.262117
C68	C	0.908214	0.026131	0.595450
C69	C	1.241547	0.359465	0.928783
C70	C	0.640315	-0.307216	0.262094
C71	C	0.973648	0.026117	0.595428
C72	C	1.306981	0.359450	0.928761
C73	C	0.438443	-0.348410	0.245717
C74	C	0.771776	-0.015077	0.579050
C75	C	1.105110	0.318256	0.912384
C76	C	0.373010	-0.348401	0.245738
C77	C	0.706343	-0.015068	0.579072
C78	C	1.039677	0.318265	0.912405
C79	C	0.340348	-0.354291	0.302191
C80	C	0.673681	-0.020958	0.635525
C81	C	1.007014	0.312376	0.968858
C82	C	0.373126	-0.360205	0.358625
C83	C	0.706459	-0.026872	0.691958
C84	C	1.039793	0.306462	1.025291
C85	C	0.438560	-0.360219	0.358602
C86	C	0.771894	-0.026886	0.691936
C87	C	1.105227	0.306447	1.025269
C88	C	0.471216	-0.354318	0.302142
C89	C	0.804549	-0.020985	0.635475
C90	C	1.137883	0.312349	0.968809
C91	C	0.236691	-0.401402	0.342228
C92	C	0.570024	-0.068069	0.675561
C93	C	0.903357	0.265265	1.008894
C94	C	0.171254	-0.401379	0.342256
C95	C	0.504587	-0.068045	0.675590
C96	C	0.837921	0.265288	1.008923
C97	C	0.171239	-0.307107	0.262260
C98	C	0.504573	0.026226	0.595593
C99	C	0.837906	0.359559	0.928926
C100	C	0.236675	-0.307127	0.262236
C101	C	0.570008	0.026207	0.595570
C102	C	0.903341	0.359540	0.928903
C103	C	0.269396	-0.354278	0.302219
C104	C	0.602730	-0.020945	0.635553
C105	C	0.936063	0.312389	0.968886
C106	C	0.905399	-0.545500	0.302136
C107	C	1.238733	-0.212167	0.635470
C108	C	1.572066	0.121166	0.968803
C109	C	0.905428	-0.627299	0.302144
C110	C	1.238762	-0.293966	0.635478
C111	C	1.572095	0.039367	0.968811
C112	C	0.945583	-0.815463	0.262163
C113	C	1.278916	-0.482130	0.595496
C114	C	1.612250	-0.148796	0.928829
C115	C	0.945611	-0.892322	0.262178
C116	C	1.278944	-0.558988	0.595511
C117	C	1.612278	-0.225655	0.928844
C118	C	0.865428	-0.892373	0.342215
C119	C	1.198761	-0.559040	0.675548
C120	C	1.532095	-0.225707	1.008882
C121	C	0.865404	-0.815516	0.342203
C122	C	1.198737	-0.482183	0.675536
C123	C	1.532070	-0.148849	1.008869
C124	C	0.905480	-0.777063	0.302173
C125	C	1.238814	-0.443729	0.635506
C126	C	1.572147	-0.110396	0.968840
C127	C	0.905533	-0.930779	0.302200
C128	C	1.238866	-0.597445	0.635534
C129	C	1.572199	-0.264112	0.968867
C130	C	0.905563	-1.014112	0.302217
C131	C	1.238896	-0.680779	0.635551
C132	C	1.572229	-0.347446	0.968884
C133	C	0.905451	-0.693724	0.302157
C134	C	1.238785	-0.360390	0.635490
C135	C	1.572118	-0.027057	0.968823
C136	C	1.068889	-0.354256	0.302240
C137	C	1.402222	-0.020922	0.635573
C138	C	1.735556	0.312411	0.968906
C139	C	1.138530	-0.354239	0.302271
C140	C	1.471863	-0.020906	0.635604
C141	C	1.805197	0.312428	0.968938
C142	C	0.905518	-0.354279	0.465590
C143	C	1.238851	-0.020946	0.798923
C144	C	1.572184	0.312387	1.132256
C145	C	0.905540	-0.354273	0.535231
C146	C	1.238873	-0.020940	0.868564
C147	C	1.572206	0.312394	1.201898
C148	C	0.905549	-0.162341	0.302210
C149	C	1.238882	0.170992	0.635544
C150	C	1.572216	0.504326	0.968877
C151	C	0.905585	-0.080542	0.302229
C152	C	1.238918	0.252791	0.635562
C153	C	1.572251	0.586124	0.968896
C154	C	0.905450	-0.354256	0.139379
C155	C	1.238783	-0.020923	0.472712
C156	C	1.572116	0.312411	0.806045
C157	C	0.905549	-0.354055	0.069738
C158	C	1.238882	-0.020722	0.403071
C159	C	1.572216	0.312612	0.736405
C160	C	0.945632	-0.307192	0.567974
C161	C	1.278965	0.026141	0.901307
C162	C	1.612299	0.359474	1.234641
C163	C	0.945631	-0.307161	0.633409
C164	C	1.278964	0.026173	0.966743
C165	C	1.612298	0.359506	1.300076
C166	C	0.905545	-0.354223	0.666099
C167	C	1.238878	-0.020889	0.999433
C168	C	1.572211	0.312444	1.332766
C169	C	0.865445	-0.401307	0.633349
C170	C	1.198778	-0.067973	0.966682
C171	C	1.532111	0.265360	1.300015
C172	C	0.865442	-0.401332	0.567914
C173	C	1.198776	-0.067998	0.901248
C174	C	1.532109	0.265335	1.234581
C175	C	0.900574	-0.420488	0.769762
C176	C	1.233908	-0.087155	1.103095
C177	C	1.567241	0.246178	1.436429
C178	C	0.900581	-0.420465	0.835195
C179	C	1.233915	-0.087131	1.168528
C180	C	1.567248	0.246202	1.501862
C181	C	0.905548	-0.354145	0.867920
C182	C	1.238882	-0.020812	1.201254
C183	C	1.572215	0.312522	1.534587
C184	C	0.910522	-0.287847	0.835205
C185	C	1.243855	0.045486	1.168538
C186	C	1.577189	0.378820	1.501871
C187	C	0.910520	-0.287872	0.769770
C188	C	1.243853	0.045461	1.103104
C189	C	1.577186	0.378794	1.436437
C190	C	0.905542	-0.354200	0.737052
C191	C	1.238876	-0.020867	1.070385
C192	C	1.572209	0.312466	1.403718
C193	C	0.945642	-0.307026	0.971616
C194	C	1.278975	0.026307	1.304949
C195	C	1.612309	0.359641	1.638282
C196	C	0.945637	-0.306993	1.037052
C197	C	1.278970	0.026340	1.370386
C198	C	1.612303	0.359674	1.703719
C199	C	0.865454	-0.401146	1.036990
C200	C	1.198787	-0.067812	1.370324
C201	C	1.532120	0.265521	1.703657
C202	C	0.865455	-0.401172	0.971555
C203	C	1.198789	-0.067839	1.304888
C204	C	1.532122	0.265495	1.638222
C205	C	0.905553	-0.354113	0.938872
C206	C	1.238886	-0.020780	1.272205
C207	C	1.572220	0.312553	1.605538
H208	H	0.666970	-0.439889	0.374638
H209	H	1.000304	-0.106555	0.707972
H210	H	1.333637	0.226778	1.041305
Cl211	Cl	0.996046	-0.247864	0.930525
Cl212	Cl	1.329379	0.085470	1.263858
Cl213	Cl	1.662712	0.418803	1.597192
H214	H	0.978268	-0.923584	0.229598
H215	H	1.311601	-0.590250	0.562932
H216	H	1.644934	-0.256917	0.896265
H217	H	0.832798	-0.923691	0.374805
H218	H	1.166132	-0.590358	0.708138
H219	H	1.499465	-0.257024	1.041472
H220	H	0.978283	-0.268650	1.063711
H221	H	1.311617	0.064683	1.397044
H222	H	1.644950	0.398017	1.730377
H223	H	0.978282	-0.268872	0.541367
H224	H	1.311615	0.064461	0.874700
H225	H	1.644948	0.397794	1.208034
H226	H	0.144592	-0.268723	0.229705
H227	H	0.477926	0.064610	0.563039
H228	H	0.811259	0.397944	0.896372
Cl229	Cl	0.277791	-0.247879	0.211942
Cl230	Cl	0.611124	0.085455	0.545276
Cl231	Cl	0.944458	0.418788	0.878609
Cl232	Cl	0.996024	-0.247954	0.674581
Cl233	Cl	1.329357	0.085379	1.007914
Cl234	Cl	1.662691	0.418713	1.341247
Cl235	Cl	0.332072	-0.367605	0.429600
Cl236	Cl	0.665406	-0.034272	0.762933
Cl237	Cl	0.998739	0.299061	1.096267
H238	H	0.832747	-0.784248	0.374787
H239	H	1.166080	-0.450915	0.708120
H240	H	1.499414	-0.117582	1.041453
H241	H	0.914568	-0.233843	0.861848
H242	H	1.247901	0.099490	1.195181
H243	H	1.581235	0.432823	1.528515
Cl244	Cl	0.995967	-0.767124	0.211841
Cl245	Cl	1.329300	-0.433791	0.545175
Cl246	Cl	1.662633	-0.100458	0.878508
H247	H	0.465246	-0.365033	0.404553
H248	H	0.798579	-0.031699	0.737886
H249	H	1.131912	0.301634	1.071219
H250	H	0.914568	-0.233890	0.743136
H251	H	1.247901	0.099443	1.076469
H252	H	1.581234	0.432776	1.409803
H253	H	0.832808	-0.439457	1.063606
H254	H	1.166141	-0.106124	1.396939
H255	H	1.499475	0.227209	1.730273
Cl256	Cl	0.533774	-0.460729	0.392401
Cl257	Cl	0.867107	-0.127395	0.725734
Cl258	Cl	1.200441	0.205938	1.059067
H259	H	0.548229	-0.268820	0.229561
H260	H	0.881562	0.064513	0.562894
H261	H	1.214896	0.397846	0.896228
Cl262	Cl	0.815053	-0.460366	0.930390
Cl263	Cl	1.148387	-0.127033	1.263723
Cl264	Cl	1.481720	0.206301	1.597057
H265	H	0.896535	-0.474448	0.861827
H266	H	1.229869	-0.141115	1.195160
H267	H	1.563202	0.192218	1.528494
H268	H	0.832804	-0.439623	0.659969
H269	H	1.166137	-0.106289	0.993302
H270	H	1.499471	0.227044	1.326636
H271	H	0.896362	-0.474480	0.743122
H272	H	1.229695	-0.141147	1.076456
H273	H	1.563028	0.192187	1.409789
Cl274	Cl	0.331810	-0.340966	0.174795
Cl275	Cl	0.665143	-0.007633	0.508128
Cl276	Cl	0.998476	0.325701	0.841461
Cl277	Cl	0.815037	-0.460524	0.526750
Cl278	Cl	1.148370	-0.127191	0.860083
Cl279	Cl	1.481703	0.206142	1.193416
H280	H	0.465031	-0.343611	0.199743
H281	H	0.798365	-0.010278	0.533076
H282	H	1.131698	0.323055	0.866410
H283	H	0.263334	-0.439792	0.374787
H284	H	0.596668	-0.106458	0.708121
H285	H	0.930001	0.226875	1.041454
H286	H	0.144627	-0.439755	0.374835
H287	H	0.477961	-0.106421	0.708169
H288	H	0.811294	0.226912	1.041502
H289	H	0.666942	-0.268837	0.229519
H290	H	1.000276	0.064497	0.562853
H291	H	1.333609	0.397830	0.896186
