data_functionalizedCrystal
_audit_creation_method	'MofGen! by Chris Wilmer'
_symmetry_space_group_name_H-M	'P1'
_symmetry_Int_Tables_number	1
_symmetry_cell_setting	triclinic
loop_
_symmetry_equiv_pos_as_xyz
  x,y,z
_cell_length_a	17.077404
_cell_length_b	16.120484
_cell_length_c	17.077396
_cell_angle_alpha	92.867798
_cell_angle_beta	89.982756
_cell_angle_gamma	92.925780
loop_
_atom_site_label
_atom_site_type_symbol
_atom_site_fract_x
_atom_site_fract_y
_atom_site_fract_z
Zn1	Zn	1.184177	-0.331895	-0.459673
Zn2	Zn	1.684177	0.168105	0.040327
Zn3	Zn	1.177426	-0.471321	-0.335057
Zn4	Zn	1.677426	0.028679	0.164943
Zn5	Zn	1.052912	-0.331927	-0.328422
Zn6	Zn	1.552912	0.168073	0.171578
Zn7	Zn	1.046216	-0.471270	-0.466278
Zn8	Zn	1.546216	0.028730	0.033722
O9	O	1.115183	-0.401603	-0.397357
O10	O	1.615183	0.098397	0.102643
O11	O	1.293128	-0.350399	-0.443154
O12	O	1.793128	0.149601	0.056846
O13	O	1.160886	-0.452865	-0.224331
O14	O	1.660886	0.047135	0.275669
O15	O	1.075952	-0.215257	-0.340292
O16	O	1.575952	0.284743	0.159708
O17	O	1.288168	-0.452835	-0.351600
O18	O	1.788168	0.047165	0.148400
O19	O	1.172392	-0.215234	-0.436721
O20	O	1.672392	0.284766	0.063279
O21	O	1.069406	-0.350452	-0.219457
O22	O	1.569406	0.149548	0.280543
O23	O	0.942177	-0.350402	-0.346697
O24	O	1.442177	0.149598	0.153303
O25	O	1.064539	-0.452747	-0.575247
O26	O	1.564539	0.047253	-0.075247
O27	O	0.937258	-0.452777	-0.447979
O28	O	1.437258	0.047223	0.052021
O29	O	1.165899	-0.350349	-0.570394
O30	O	1.665899	0.149651	-0.070394
O31	O	1.154393	-0.587980	-0.358004
O32	O	1.654393	-0.087980	0.141996
O33	O	1.057994	-0.587942	-0.454412
O34	O	1.557994	-0.087942	0.045588
C35	C	0.911235	-0.401588	-0.397335
C36	C	1.411235	0.098412	0.102665
C37	C	0.823985	-0.401602	-0.397345
C38	C	1.323985	0.098398	0.102655
C39	C	0.780450	-0.454989	-0.450006
C40	C	1.280450	0.045011	0.049994
C41	C	0.698469	-0.454991	-0.450018
C42	C	1.198469	0.045009	0.049982
C43	C	0.660025	-0.401609	-0.397366
C44	C	1.160025	0.098391	0.102634
C45	C	0.703566	-0.348216	-0.344702
C46	C	1.203566	0.151784	0.155298
C47	C	0.785546	-0.348211	-0.344694
C48	C	1.285546	0.151789	0.155306
C49	C	0.532696	-0.348233	-0.344722
C50	C	1.032696	0.151767	0.155278
C51	C	0.450711	-0.348239	-0.344729
C52	C	0.950711	0.151761	0.155271
C53	C	0.445619	-0.455012	-0.450046
C54	C	0.945619	0.044988	0.049954
C55	C	0.527599	-0.455007	-0.450038
C56	C	1.027599	0.044993	0.049962
C57	C	0.571134	-0.401615	-0.397373
C58	C	1.071134	0.098385	0.102627
C59	C	1.104756	-0.618211	-0.407662
C60	C	1.604756	-0.118211	0.092338
C61	C	1.100367	-0.710877	-0.412096
C62	C	1.600367	-0.210877	0.087904
C63	C	1.092358	-0.880539	-0.420209
C64	C	1.592358	-0.380539	0.079791
C65	C	1.138148	-0.921827	-0.374519
C66	C	1.638148	-0.421827	0.125481
C67	C	1.133692	-1.016233	-0.379032
C68	C	1.633692	-0.516233	0.120968
C69	C	1.096813	-0.786125	-0.415696
C70	C	1.596813	-0.286125	0.084304
C71	C	1.319926	-0.401619	-0.397380
C72	C	1.819926	0.098381	0.102620
C73	C	1.407176	-0.401626	-0.397390
C74	C	1.907176	0.098374	0.102610
C75	C	1.115225	-0.401539	-0.602099
C76	C	1.615225	0.098461	-0.102099
C77	C	1.115243	-0.401511	-0.689347
C78	C	1.615243	0.098489	-0.189347
C79	C	1.125672	-0.184149	-0.387030
C80	C	1.625672	0.315851	0.112970
C81	C	1.130142	-0.091483	-0.382629
C82	C	1.630142	0.408517	0.117371
C83	C	1.067625	-0.348179	-0.727798
C84	C	1.567625	0.151821	-0.227798
C85	C	1.067639	-0.348160	-0.809778
C86	C	1.567639	0.151840	-0.309778
C87	C	1.115275	-0.401470	-0.853305
C88	C	1.615275	0.098530	-0.353305
C89	C	1.162895	-0.454808	-0.814848
C90	C	1.662895	0.045192	-0.314848
C91	C	1.162877	-0.454831	-0.732870
C92	C	1.662877	0.045169	-0.232870
C93	C	1.162932	-0.454756	-0.985716
C94	C	1.662932	0.045244	-0.485716
C95	C	1.162951	-0.454733	-1.067699
C96	C	1.662951	0.045267	-0.567699
C97	C	1.067694	-0.348085	-1.062623
C98	C	1.567694	0.151915	-0.562623
C99	C	1.067675	-0.348108	-0.980646
C100	C	1.567675	0.151892	-0.480646
C101	C	1.115297	-0.401445	-0.942195
C102	C	1.615297	0.098555	-0.442195
C103	C	1.115188	-0.401607	-0.193410
C104	C	1.615188	0.098393	0.306590
C105	C	1.115333	-0.401400	-0.106150
C106	C	1.615333	0.098600	0.393850
H107	H	0.663026	-0.498464	-0.492899
H108	H	1.163026	0.001536	0.007101
H109	H	1.201741	-0.498142	-1.103137
H110	H	1.701741	0.001858	-0.603137
C111	C	1.195624	-0.873808	-0.317090
C112	C	1.695624	-0.373808	0.182910
H113	H	1.223770	-0.912130	-0.289018
H114	H	1.723770	-0.412130	0.210982
H115	H	1.167183	-0.839895	-0.281273
H116	H	1.667183	-0.339895	0.218727
H117	H	1.231387	-0.839782	-0.345555
H118	H	1.731387	-0.339782	0.154445
H119	H	1.049813	-0.916089	-0.462712
H120	H	1.549813	-0.416089	0.037288
H121	H	1.028839	-0.304762	-0.692364
H122	H	1.528839	0.195238	-0.192364
C123	C	1.015308	-0.289415	-1.104912
C124	C	1.515308	0.210585	-0.604912
H125	H	0.986944	-0.257661	-1.067248
H126	H	1.486944	0.242339	-0.567248
H127	H	0.979572	-0.321291	-1.138401
H128	H	1.479572	0.178709	-0.638401
H129	H	1.047103	-0.253083	-1.135170
H130	H	1.547103	0.246917	-0.635170
H131	H	1.028861	-0.304734	-0.841081
H132	H	1.528861	0.195266	-0.341081
H133	H	1.028889	-0.304694	-0.945208
H134	H	1.528889	0.195306	-0.445208
H135	H	1.201677	-0.498218	-0.850294
H136	H	1.701677	0.001782	-0.350294
C137	C	1.215312	-0.513428	-0.943421
C138	C	1.715312	-0.013428	-0.443421
H139	H	1.243691	-0.545169	-0.981083
H140	H	1.743691	-0.045169	-0.481083
H141	H	1.183526	-0.549759	-0.913162
H142	H	1.683526	-0.049759	-0.413162
H143	H	1.251049	-0.481543	-0.909932
H144	H	1.751049	0.018457	-0.409932
C145	C	1.215256	-0.513497	-0.690574
C146	C	1.715256	-0.013497	-0.190574
H147	H	1.243634	-0.545239	-0.728236
H148	H	1.743634	-0.045239	-0.228236
H149	H	1.183467	-0.549827	-0.660316
H150	H	1.683467	-0.049827	-0.160316
H151	H	1.250994	-0.481614	-0.657083
H152	H	1.750994	0.018386	-0.157083
H153	H	0.811745	-0.498461	-0.492879
H154	H	1.311745	0.001539	0.007121
C155	C	0.397734	-0.513738	-0.507980
C156	C	0.897734	-0.013738	-0.007980
H157	H	0.343405	-0.506090	-0.500453
H158	H	0.843405	-0.006090	-0.000453
H159	H	0.408469	-0.569737	-0.499068
H160	H	0.908469	-0.069737	0.000932
H161	H	0.411778	-0.501602	-0.560165
H162	H	0.911778	-0.001602	-0.060165
C163	C	0.408423	-0.289513	-0.286820
C164	C	0.908423	0.210487	0.213180
H165	H	0.446092	-0.257704	-0.255463
H166	H	0.946092	0.242296	0.244537
H167	H	0.374896	-0.321355	-0.254084
H168	H	0.874896	0.178645	0.245916
H169	H	0.378203	-0.253234	-0.315195
H170	H	0.878203	0.246766	0.184805
C171	C	0.569886	-0.513724	-0.507955
C172	C	1.069886	-0.013724	-0.007955
H173	H	0.532219	-0.545518	-0.539326
H174	H	1.032219	-0.045518	-0.039326
H175	H	0.600111	-0.550005	-0.479594
H176	H	1.100111	-0.050005	0.020406
H177	H	0.603410	-0.481867	-0.540689
H178	H	1.103410	0.018133	-0.040689
H179	H	0.672259	-0.304748	-0.301835
H180	H	1.172259	0.195252	0.198165
C181	C	0.580583	-0.289499	-0.286795
C182	C	1.080583	0.210501	0.213205
H183	H	0.545947	-0.257713	-0.255433
H184	H	1.045947	0.242287	0.244567
H185	H	0.614320	-0.253213	-0.315151
H186	H	1.114320	0.246787	0.184849
H187	H	0.611017	-0.321347	-0.254052
H188	H	1.111017	0.178653	0.245948
C189	C	0.833438	-0.289487	-0.286769
C190	C	1.333438	0.210513	0.213231
H191	H	0.887767	-0.297122	-0.294310
H192	H	1.387767	0.202878	0.205690
H193	H	0.819400	-0.301614	-0.234585
H194	H	1.319400	0.198386	0.265415
H195	H	0.822700	-0.233486	-0.295689
H196	H	1.322700	0.266514	0.204311
