data_functionalizedCrystal
_audit_creation_method	'MofGen! by Chris Wilmer'
_symmetry_space_group_name_H-M	'P1'
_symmetry_Int_Tables_number	1
_symmetry_cell_setting	triclinic
loop_
_symmetry_equiv_pos_as_xyz
  x,y,z
_cell_length_a	14.628931
_cell_length_b	14.628931
_cell_length_c	14.628931
_cell_angle_alpha	60.000000
_cell_angle_beta	60.000000
_cell_angle_gamma	60.000193
loop_
_atom_site_label
_atom_site_type_symbol
_atom_site_fract_x
_atom_site_fract_y
_atom_site_fract_z
Zr1	Zr	0.119961	0.880615	0.880620
O2	O	0.265921	0.925361	0.734660
O3	O	0.075216	0.734655	0.925365
O4	O	0.265921	0.734655	0.925365
O5	O	-0.075215	1.075792	0.734659
O6	O	0.265921	0.734655	1.075797
O7	O	0.075216	0.925360	0.734659
O8	O	-0.075216	0.734654	1.075797
O9	O	0.265922	1.075792	0.734660
O10	O	0.056132	0.832177	1.056714
O11	O	-0.056133	0.944443	0.944448
O12	O	0.168398	0.944443	0.944449
O13	O	0.056133	1.056709	0.832183
Zr14	Zr	-0.119961	1.120536	1.120542
Zr15	Zr	0.119960	0.880615	1.120542
Zr16	Zr	-0.119960	1.120536	0.880620
Zr17	Zr	0.119961	1.120536	0.880621
Zr18	Zr	-0.119961	0.880615	1.120542
O19	O	-0.075216	1.266497	1.075798
O20	O	0.265921	0.925360	1.075798
O21	O	-0.075215	1.266497	0.734660
O22	O	-0.265921	1.075791	1.266503
O23	O	0.075215	0.734654	1.266503
O24	O	-0.265921	1.075791	0.925365
O25	O	0.075215	0.925359	1.266503
O26	O	-0.265921	1.266496	1.075797
O27	O	-0.265921	1.266496	0.925365
O28	O	-0.075216	1.075791	1.266503
O29	O	0.265921	1.075792	0.925366
O30	O	-0.265921	0.925359	1.075797
O31	O	-0.265922	0.925359	1.266503
O32	O	-0.075217	0.734654	1.266503
O33	O	0.075217	1.266497	0.734660
O34	O	0.075216	1.266497	0.925366
O35	O	-0.168398	1.056708	1.056714
O36	O	-0.056133	0.944443	1.168980
O37	O	0.056133	1.056708	1.056714
O38	O	-0.056132	1.168974	0.944449
C39	C	-0.000000	0.700471	1.000581
C40	C	-0.000001	0.598618	1.000581
C41	C	-0.300105	1.000575	1.000581
C42	C	-0.401958	1.000575	1.000581
C43	C	0.055690	0.497517	1.056272
C44	C	0.055692	0.392246	1.056273
C45	C	-0.503058	1.056266	1.056272
C46	C	-0.608330	1.056267	1.056273
C47	C	0.300105	1.000576	1.000582
C48	C	0.401958	1.000576	1.000582
C49	C	0.000000	1.000576	0.700476
C50	C	0.000001	1.000576	0.598623
C51	C	0.000000	1.300680	1.000582
C52	C	0.000001	1.402533	1.000582
C53	C	0.055691	1.056266	0.392258
C54	C	0.055692	1.056267	0.497527
C55	C	-0.000000	1.000575	1.300687
C56	C	-0.000001	1.000575	1.402540
C57	C	0.300104	0.700471	1.000581
C58	C	0.401957	0.598619	1.000581
C59	C	-0.000001	0.700470	1.300687
C60	C	-0.000001	0.598617	1.402540
C61	C	-0.300105	1.000575	1.300687
C62	C	-0.401958	1.000574	1.402540
C63	C	0.300105	1.000576	0.700476
C64	C	0.401958	1.000577	0.598623
C65	C	0.000001	1.300681	0.700476
C66	C	0.000001	1.402534	0.598623
C67	C	-0.300104	1.300680	1.000581
C68	C	-0.401957	1.402533	1.000581
C69	C	0.503058	0.608901	0.944890
C70	C	0.608329	0.503632	0.944889
C71	C	0.055690	0.497517	1.392257
C72	C	0.055691	0.392245	1.497526
C73	C	-0.391676	0.944883	1.503640
C74	C	-0.496945	0.944881	1.608912
H75	H	0.103365	0.488894	1.103957
F76	F	0.514332	0.722269	0.882575
F77	F	-0.609332	1.062891	1.485266
F78	F	0.118021	0.278884	1.118590
F79	F	-0.062318	0.515891	0.938250
H80	H	-0.047682	0.607238	0.952905
H81	H	0.103366	0.305515	1.488898
H82	H	-0.304941	0.897209	1.512264
H83	H	0.393337	0.511882	1.048263
F84	F	-0.062332	0.515890	1.609914
F85	F	-0.514333	1.118595	1.118586
H86	H	0.103376	1.103942	0.488899
H87	H	-0.047684	0.952902	0.489277
H88	H	0.511315	0.393900	1.048256
F89	F	-0.721691	1.118583	1.118603
H90	H	-0.511316	0.952889	0.952906
H91	H	0.695059	0.512261	0.897203
F92	F	-0.390683	0.938260	0.938253
F93	F	0.118005	1.118596	0.278890
F94	F	-0.062318	0.938244	0.609915
F95	F	-0.062316	0.609892	1.515908
F96	F	-0.515327	1.062902	1.391265
F97	F	0.118017	0.486243	1.278889
F98	F	-0.485662	0.882552	1.722274
