data_functionalizedCrystal
_audit_creation_method	'MofGen! by Chris Wilmer'
_symmetry_space_group_name_H-M	'P1'
_symmetry_Int_Tables_number	1
_symmetry_cell_setting	triclinic
loop_
_symmetry_equiv_pos_as_xyz
  x,y,z
_cell_length_a	16.625547
_cell_length_b	18.050589
_cell_length_c	16.625539
_cell_angle_alpha	89.975176
_cell_angle_beta	89.975178
_cell_angle_gamma	90.028158
loop_
_atom_site_label
_atom_site_type_symbol
_atom_site_fract_x
_atom_site_fract_y
_atom_site_fract_z
Zn1	Zn	1.232648	-0.295659	-0.456020
Zn2	Zn	1.565982	0.037674	-0.122687
Zn3	Zn	1.899315	0.371007	0.210646
Zn4	Zn	1.232538	-0.419857	-0.321196
Zn5	Zn	1.565871	-0.086524	0.012138
Zn6	Zn	1.899205	0.246810	0.345471
Zn7	Zn	1.097810	-0.295685	-0.321191
Zn8	Zn	1.431143	0.037648	0.012142
Zn9	Zn	1.764477	0.370982	0.345476
Zn10	Zn	1.097767	-0.419812	-0.455976
Zn11	Zn	1.431100	-0.086479	-0.122642
Zn12	Zn	1.764434	0.246855	0.210691
O13	O	1.165191	-0.357753	-0.388596
O14	O	1.498524	-0.024420	-0.055262
O15	O	1.831857	0.308913	0.278071
O16	O	1.345466	-0.312142	-0.438156
O17	O	1.678799	0.021191	-0.104823
O18	O	2.012133	0.354524	0.228510
O19	O	1.214638	-0.403415	-0.208363
O20	O	1.547971	-0.070082	0.124971
O21	O	1.881305	0.263252	0.458304
O22	O	1.115761	-0.191757	-0.339093
O23	O	1.449094	0.141576	-0.005760
O24	O	1.782428	0.474910	0.327574
O25	O	1.345385	-0.403390	-0.339101
O26	O	1.678718	-0.070057	-0.005768
O27	O	2.012052	0.263277	0.327565
O28	O	1.214826	-0.191738	-0.438152
O29	O	1.548159	0.141595	-0.104818
O30	O	1.881493	0.474929	0.228515
O31	O	1.115654	-0.312187	-0.208359
O32	O	1.448987	0.021147	0.124974
O33	O	1.782321	0.354480	0.458308
O34	O	0.984972	-0.312143	-0.339050
O35	O	1.318305	0.021191	-0.005716
O36	O	1.651639	0.354524	0.327617
O37	O	1.115687	-0.403313	-0.568814
O38	O	1.449021	-0.069980	-0.235481
O39	O	1.782354	0.263354	0.097853
O40	O	0.984940	-0.403338	-0.438075
O41	O	1.318274	-0.070005	-0.104742
O42	O	1.651607	0.263329	0.228591
O43	O	1.214784	-0.312099	-0.568847
O44	O	1.548117	0.021235	-0.235514
O45	O	1.881451	0.354568	0.097820
O46	O	1.214596	-0.523776	-0.339058
O47	O	1.547929	-0.190442	-0.005725
O48	O	1.881263	0.142891	0.327609
O49	O	1.115580	-0.523742	-0.438080
O50	O	1.448914	-0.190409	-0.104747
O51	O	1.782247	0.142924	0.228587
C52	C	0.955700	-0.357739	-0.388558
C53	C	1.289033	-0.024406	-0.055224
C54	C	1.622367	0.308928	0.278109
C55	C	0.866079	-0.357751	-0.388560
C56	C	1.199412	-0.024417	-0.055227
C57	C	1.532746	0.308916	0.278106
C58	C	0.793296	-0.357752	-0.388570
C59	C	1.126630	-0.024419	-0.055237
C60	C	1.459963	0.308915	0.278096
C61	C	0.701988	-0.357756	-0.388591
C62	C	1.035321	-0.024423	-0.055257
C63	C	1.368655	0.308911	0.278076
C64	C	0.629212	-0.357763	-0.388611
C65	C	0.962545	-0.024429	-0.055278
C66	C	1.295878	0.308904	0.278056
C67	C	0.537897	-0.357768	-0.388630
C68	C	0.871231	-0.024435	-0.055297
C69	C	1.204564	0.308899	0.278036
C70	C	1.165093	-0.550706	-0.388582
C71	C	1.498427	-0.217372	-0.055249
C72	C	1.831760	0.115961	0.278084
C73	C	1.165126	-0.633251	-0.388603
C74	C	1.498459	-0.299918	-0.055270
C75	C	1.831792	0.033415	0.278063
C76	C	1.111334	-0.832711	-0.442433
C77	C	1.444667	-0.499378	-0.109100
C78	C	1.778000	-0.166044	0.224234
C79	C	1.091677	-0.882153	-0.368856
C80	C	1.425011	-0.548819	-0.035522
C81	C	1.758344	-0.215486	0.297811
C82	C	1.165205	-0.784382	-0.388614
C83	C	1.498538	-0.451048	-0.055281
C84	C	1.831871	-0.117715	0.278053
C85	C	1.184901	-0.882021	-0.462200
C86	C	1.518234	-0.548688	-0.128867
C87	C	1.851567	-0.215355	0.204467
C88	C	1.165280	-0.930367	-0.388631
C89	C	1.498613	-0.597033	-0.055297
C90	C	1.831946	-0.263700	0.278036
C91	C	1.145510	-0.832736	-0.314998
C92	C	1.478843	-0.499403	0.018336
C93	C	1.812176	-0.166069	0.351669
C94	C	1.238767	-0.832601	-0.408392
C95	C	1.572101	-0.499267	-0.075058
C96	C	1.905434	-0.165934	0.258275
C97	C	1.219139	-0.882020	-0.334763
C98	C	1.552472	-0.548687	-0.001430
C99	C	1.885806	-0.215353	0.331903
C100	C	1.165160	-0.700283	-0.388605
C101	C	1.498493	-0.366950	-0.055272
C102	C	1.831826	-0.033617	0.278061
C103	C	1.165325	-1.014463	-0.388631
C104	C	1.498659	-0.681130	-0.055298
C105	C	1.831992	-0.347796	0.278036
C106	C	1.375500	-0.357768	-0.388634
C107	C	1.708833	-0.024435	-0.055301
C108	C	2.042166	0.308898	0.278032
C109	C	1.465121	-0.357775	-0.388651
C110	C	1.798454	-0.024441	-0.055318
C111	C	2.131787	0.308892	0.278016
C112	C	1.165243	-0.357698	-0.598905
C113	C	1.498577	-0.024365	-0.265571
C114	C	1.831910	0.308969	0.067762
C115	C	1.165266	-0.357674	-0.688526
C116	C	1.498599	-0.024341	-0.355192
C117	C	1.831932	0.308992	-0.021859
C118	C	1.165311	-0.164048	-0.388627
C119	C	1.498644	0.169286	-0.055293
C120	C	1.831977	0.502619	0.278040
C121	C	1.165362	-0.081502	-0.388640
C122	C	1.498695	0.251831	-0.055307
C123	C	1.832028	0.585165	0.278027
C124	C	1.165303	-0.357591	-1.016702
C125	C	1.498636	-0.024258	-0.683368
C126	C	1.831969	0.309075	-0.350035
C127	C	1.165290	-0.357617	-0.925393
C128	C	1.498624	-0.024283	-0.592060
C129	C	1.831957	0.309050	-0.258726
C130	C	1.165285	-0.357633	-0.852617
C131	C	1.498618	-0.024300	-0.519283
C132	C	1.831951	0.309033	-0.185950
C133	C	1.165271	-0.357658	-0.761302
C134	C	1.498605	-0.024324	-0.427969
C135	C	1.831938	0.309009	-0.094636
C136	C	1.165185	-0.357755	-0.179105
C137	C	1.498518	-0.024422	0.154229
C138	C	1.831852	0.308912	0.487562
C139	C	1.165319	-0.357569	-0.089484
C140	C	1.498652	-0.024236	0.243849
C141	C	1.831986	0.309097	0.577183
H142	H	1.029503	-0.903934	-0.352143
H143	H	1.362836	-0.570601	-0.018809
H144	H	1.696170	-0.237268	0.314524
C145	C	1.049709	-0.803455	-0.503832
C146	C	1.383042	-0.470122	-0.170499
C147	C	1.716376	-0.136789	0.162834
H148	H	1.076582	-0.774455	-0.543260
H149	H	1.409916	-0.441121	-0.209927
H150	H	1.743249	-0.107788	0.123406
H151	H	1.010904	-0.773820	-0.476953
H152	H	1.344237	-0.440487	-0.143620
H153	H	1.677571	-0.107153	0.189713
H154	H	1.023630	-0.844049	-0.529172
H155	H	1.356963	-0.510716	-0.195839
H156	H	1.690297	-0.177383	0.137494
C157	C	1.122946	-0.803621	-0.230914
C158	C	1.456279	-0.470287	0.102419
C159	C	1.789612	-0.136954	0.435752
H160	H	1.113582	-0.844276	-0.195824
H161	H	1.446916	-0.510943	0.137510
H162	H	1.780249	-0.177609	0.470843
H163	H	1.075609	-0.774365	-0.234581
H164	H	1.408943	-0.441032	0.098752
H165	H	1.742276	-0.107698	0.432086
H166	H	1.165736	-0.774266	-0.210459
H167	H	1.499069	-0.440933	0.122874
H168	H	1.832402	-0.107600	0.456207
H169	H	1.264728	-0.903535	-0.289205
H170	H	1.598061	-0.570201	0.044128
H171	H	1.931395	-0.236868	0.377462
H172	H	1.300928	-0.810821	-0.425140
H173	H	1.634261	-0.477488	-0.091806
H174	H	1.967594	-0.144154	0.241527
C175	C	1.207370	-0.911267	-0.546256
C176	C	1.540703	-0.577933	-0.212923
C177	C	1.874037	-0.244600	0.120411
H178	H	1.169014	-0.894374	-0.584419
H179	H	1.502348	-0.561041	-0.251086
H180	H	1.835681	-0.227707	0.082247
H181	H	1.207719	-0.963888	-0.545544
H182	H	1.541053	-0.630554	-0.212211
H183	H	1.874386	-0.297221	0.121122
H184	H	1.259234	-0.893564	-0.560668
H185	H	1.592567	-0.560230	-0.227335
H186	H	1.925900	-0.226897	0.105999
