data_functionalizedCrystal
_audit_creation_method	'MofGen! by Chris Wilmer'
_symmetry_space_group_name_H-M	'P1'
_symmetry_Int_Tables_number	1
_symmetry_cell_setting	triclinic
loop_
_symmetry_equiv_pos_as_xyz
  x,y,z
_cell_length_a	16.992697
_cell_length_b	11.892095
_cell_length_c	16.974813
_cell_angle_alpha	89.759425
_cell_angle_beta	92.975198
_cell_angle_gamma	85.841538
loop_
_atom_site_label
_atom_site_type_symbol
_atom_site_fract_x
_atom_site_fract_y
_atom_site_fract_z
O1	O	-1.046012	0.108672	0.162174
O2	O	-0.817722	0.108542	0.160341
O3	O	-0.937673	0.098156	0.047083
O4	O	-0.926061	0.119058	0.275432
O5	O	-0.927672	-0.088987	0.056511
O6	O	-0.807721	-0.078601	0.169769
O7	O	-1.036011	-0.078471	0.171602
Zn8	Zn	-0.920278	-0.108249	0.172182
Zn9	Zn	-0.933455	0.138320	0.159761
O10	O	-0.916060	-0.068085	0.284860
C11	C	-0.783500	0.014760	0.162699
C12	C	-0.696430	0.014132	0.155671
C13	C	-0.646447	0.020338	0.223474
C14	C	-0.564635	0.019719	0.216867
C15	C	-0.532807	0.012902	0.142456
C16	C	-0.582796	0.006692	0.074649
C17	C	-0.664606	0.007303	0.081257
C18	C	-0.289104	0.010370	0.115069
C19	C	-0.207287	0.009764	0.108465
C20	C	-0.189132	0.022789	0.250685
C21	C	-0.270945	0.023406	0.257286
C22	C	-0.320926	0.017190	0.189479
N23	N	-0.449182	0.012273	0.135701
N24	N	-0.404549	0.017811	0.196235
N25	N	-0.911290	-0.276526	0.180659
C26	C	-1.004987	-0.521281	0.092245
C27	C	-0.998710	-0.639079	0.098176
C28	C	-0.892458	-0.629922	0.198450
C29	C	-0.898734	-0.512124	0.192518
C30	C	-0.955001	-0.457808	0.139415
C31	C	-0.961281	-0.340007	0.133488
C32	C	-0.855025	-0.330853	0.233757
C33	C	-0.848749	-0.448651	0.239688
C34	C	-0.070233	0.015319	0.169243
C35	C	-0.157305	0.015970	0.176268
C36	C	-0.932045	0.001900	0.022443
C37	C	-0.930166	-0.006097	-0.065022
N38	N	-0.942449	0.306596	0.151278
C39	C	-0.934736	0.092156	-0.111248
C40	C	-0.932965	0.084638	-0.193431
C41	C	-0.926629	-0.021135	-0.229386
C42	C	-0.922056	-0.119396	-0.183154
C43	C	-0.923821	-0.111877	-0.100973
C44	C	-0.920760	-0.054563	-0.474621
C45	C	-0.918997	-0.062075	-0.556809
C46	C	-0.929905	0.141960	-0.567080
C47	C	-0.931675	0.149470	-0.484897
C48	C	-0.927097	0.051209	-0.438672
N49	N	-0.924821	-0.028823	-0.313390
N50	N	-0.928899	0.058897	-0.354669
C51	C	-0.921688	0.028173	0.309500
C52	C	-0.923568	0.036178	0.396965
H53	H	-0.296854	0.028970	0.317878
H54	H	-0.846642	-0.674162	0.241680
H55	H	-0.917048	-0.134574	-0.436995
O56	O	-0.551853	0.000270	0.002373
C57	C	-0.475157	0.088949	-0.092489
C58	C	-0.510168	0.096372	-0.010627
H59	H	-0.441433	0.166625	-0.103019
H60	H	-0.524908	0.084685	-0.139854
H61	H	-0.433162	0.009986	-0.095176
H62	H	-0.552153	0.175329	-0.007863
H63	H	-0.460377	0.100574	0.036699
O64	O	-0.940772	0.194847	-0.076233
C65	C	-0.881171	0.322211	0.015177
C66	C	-0.874257	0.205863	-0.024399
H67	H	-0.827393	0.331164	0.057080
H68	H	-0.937055	0.330530	0.049703
H69	H	-0.884162	0.391112	-0.032006
H70	H	-0.871233	0.136892	0.022731
H71	H	-0.818382	0.197641	-0.058943
O72	O	-0.919400	-0.207432	-0.056185
C73	C	-0.908321	-0.410598	-0.054660
C74	C	-0.913353	-0.302470	-0.105477
H75	H	-0.903414	-0.487464	-0.094491
H76	H	-0.963700	-0.412627	-0.019690
H77	H	-0.854062	-0.411745	-0.012166
H78	H	-0.967577	-0.301251	-0.148015
H79	H	-0.857935	-0.300484	-0.140393
O80	O	-0.337674	0.004150	0.049237
C81	C	-0.435445	-0.099625	-0.020939
C82	C	-0.380457	-0.092735	0.053647
H83	H	-0.470062	-0.177937	-0.017391
H84	H	-0.398680	-0.104669	-0.075283
H85	H	-0.478342	-0.021308	-0.025337
H86	H	-0.337550	-0.171032	0.058121
H87	H	-0.417272	-0.087636	0.107954
H88	H	-0.705302	0.002250	0.026044
H89	H	-0.933630	0.221958	-0.604725
H90	H	-0.672355	0.025890	0.284067
H91	H	-0.913833	-0.148212	-0.586081
O92	O	-0.140508	0.028962	0.316484
C93	C	-0.042808	0.132814	0.386704
C94	C	-0.097824	0.125951	0.312135
H95	H	-0.008296	0.211236	0.383220
H96	H	0.000175	0.054588	0.391116
H97	H	-0.079623	0.137733	0.441012
H98	H	-0.061073	0.121068	0.257784
H99	H	-0.140809	0.204177	0.307792
H100	H	-1.007098	-0.295784	0.090250
O101	O	-0.516037	0.025558	0.282715
C102	C	-0.407926	-0.064476	0.362657
C103	C	-0.462923	-0.071247	0.288068
H104	H	-0.364959	-0.142721	0.367000
H105	H	-0.444681	-0.059558	0.417010
H106	H	-0.373386	0.013918	0.359153
H107	H	-0.497475	-0.149634	0.291495
H108	H	-0.426125	-0.076103	0.233746
H109	H	-0.916892	-0.205519	-0.212435
H110	H	-1.050807	-0.477056	0.049011
O111	O	-0.176496	0.003086	0.036120
C112	C	-0.203136	-0.009697	-0.104249
C113	C	-0.238110	-0.002174	-0.022372
H114	H	-0.252935	-0.013929	-0.151563
H115	H	-0.161133	-0.088645	-0.107000
H116	H	-0.169442	0.068002	-0.114798
H117	H	-0.271843	-0.079815	-0.011769
H118	H	-0.280070	0.076822	-0.019660
H119	H	-1.039412	-0.690757	0.059765
O120	O	-0.794162	-0.501594	0.291255
C121	C	-0.737372	-0.679012	0.344801
C122	C	-0.799237	-0.619201	0.286379
H123	H	-0.741442	-0.774108	0.340867
H124	H	-0.749065	-0.650107	0.407341
H125	H	-0.675763	-0.657093	0.329407
H126	H	-0.860870	-0.641092	0.301701
H127	H	-0.787474	-0.648110	0.223856
O128	O	-0.806540	-0.269237	0.279699
C129	C	-0.762998	-0.221019	0.411825
C130	C	-0.817955	-0.290837	0.359886
H131	H	-0.772195	-0.238475	0.476666
H132	H	-0.777146	-0.127473	0.398539
H133	H	-0.698917	-0.245481	0.398713
H134	H	-0.882054	-0.266472	0.372968
H135	H	-0.803739	-0.384366	0.373181
H136	H	-0.936691	0.164646	-0.231065
H137	H	-0.936835	0.235601	-0.455628
