data_functionalizedCrystal
_audit_creation_method	'MofGen! by Chris Wilmer'
_symmetry_space_group_name_H-M	'P1'
_symmetry_Int_Tables_number	1
_symmetry_cell_setting	triclinic
loop_
_symmetry_equiv_pos_as_xyz
  x,y,z
_cell_length_a	18.215407
_cell_length_b	19.120786
_cell_length_c	18.215399
_cell_angle_alpha	87.529807
_cell_angle_beta	89.982632
_cell_angle_gamma	92.462665
loop_
_atom_site_label
_atom_site_type_symbol
_atom_site_fract_x
_atom_site_fract_y
_atom_site_fract_z
Zn1	Zn	1.112567	-0.279685	-0.403553
Zn2	Zn	1.612567	0.220315	0.096447
Zn3	Zn	1.107224	-0.397146	-0.275231
Zn4	Zn	1.607224	0.102854	0.224769
Zn5	Zn	0.989499	-0.279702	-0.280505
Zn6	Zn	1.489499	0.220298	0.219495
Zn7	Zn	0.984216	-0.397101	-0.398263
Zn8	Zn	1.484216	0.102899	0.101737
O9	O	1.048377	-0.338409	-0.339388
O10	O	1.548377	0.161591	0.160612
O11	O	1.214842	-0.295278	-0.386538
O12	O	1.714842	0.204722	0.113462
O13	O	1.091582	-0.381593	-0.172945
O14	O	1.591582	0.118407	0.327055
O15	O	1.010272	-0.181409	-0.301249
O16	O	1.510272	0.318591	0.198751
O17	O	1.210917	-0.381577	-0.292260
O18	O	1.710917	0.118423	0.207740
O19	O	1.100689	-0.181397	-0.391651
O20	O	1.600689	0.318603	0.108349
O21	O	1.005090	-0.295307	-0.176820
O22	O	1.505090	0.204693	0.323180
O23	O	0.885815	-0.295263	-0.296119
O24	O	1.385815	0.204737	0.203881
O25	O	1.001268	-0.381500	-0.501951
O26	O	1.501268	0.118500	-0.001951
O27	O	0.881933	-0.381516	-0.382636
O28	O	1.381933	0.118484	0.117364
O29	O	1.095567	-0.295234	-0.505837
O30	O	1.595567	0.204766	-0.005837
O31	O	1.086460	-0.495431	-0.287131
O32	O	1.586460	0.004569	0.212869
O33	O	0.996086	-0.495397	-0.377522
O34	O	1.496086	0.004603	0.122478
C35	C	0.857171	-0.338387	-0.339376
C36	C	1.357171	0.161613	0.160624
C37	C	0.775372	-0.338395	-0.339388
C38	C	1.275372	0.161605	0.160612
C39	C	0.589217	-0.293551	-0.388548
C40	C	1.089217	0.206449	0.111452
C41	C	0.512358	-0.293557	-0.388551
C42	C	1.012358	0.206443	0.111449
C43	C	0.508287	-0.383285	-0.290240
C44	C	1.008287	0.116715	0.209760
C45	C	0.585145	-0.383275	-0.290235
C46	C	1.085145	0.116725	0.209765
C47	C	0.625608	-0.338409	-0.339393
C48	C	1.125608	0.161591	0.160607
C49	C	0.471891	-0.338425	-0.339401
C50	C	0.971891	0.161575	0.160599
C51	C	0.388557	-0.338432	-0.339403
C52	C	0.888557	0.161568	0.160597
C53	C	0.708947	-0.338401	-0.339390
C54	C	1.208947	0.161599	0.160610
C55	C	1.040140	-0.520899	-0.331196
C56	C	1.540140	-0.020899	0.168804
C57	C	1.036684	-0.598970	-0.327716
C58	C	1.536684	-0.098970	0.172284
C59	C	1.082100	-0.635581	-0.373187
C60	C	1.582100	-0.135581	0.126813
C61	C	1.078850	-0.708936	-0.369919
C62	C	1.578850	-0.208936	0.130081
C63	C	1.030186	-0.745679	-0.321175
C64	C	1.530186	-0.245679	0.178825
C65	C	0.984764	-0.709063	-0.275701
C66	C	1.484764	-0.209063	0.224299
C67	C	0.988011	-0.635709	-0.278974
C68	C	1.488011	-0.135709	0.221026
C69	C	1.018024	-0.967165	-0.308940
C70	C	1.518024	-0.467165	0.191060
C71	C	1.014781	-1.040524	-0.305669
C72	C	1.514781	-0.540524	0.194331
C73	C	1.108867	-1.040391	-0.399887
C74	C	1.608867	-0.540391	0.100113
C75	C	1.112113	-0.967036	-0.403153
C76	C	1.612113	-0.467036	0.096847
C77	C	1.066688	-0.930426	-0.357682
C78	C	1.566688	-0.430426	0.142318
C79	C	1.026863	-0.820660	-0.317831
C80	C	1.526863	-0.320660	0.182169
C81	C	1.070007	-0.855447	-0.361030
C82	C	1.570007	-0.355447	0.138970
C83	C	1.240329	-0.338431	-0.339401
C84	C	1.740329	0.161569	0.160599
C85	C	1.322127	-0.338440	-0.339406
C86	C	1.822127	0.161560	0.160594
C87	C	1.048424	-0.338360	-0.531343
C88	C	1.548424	0.161640	-0.031343
C89	C	1.048444	-0.338339	-0.613143
C90	C	1.548444	0.161661	-0.113143
C91	C	1.056666	-0.155205	-0.347628
C92	C	1.556666	0.344795	0.152372
C93	C	1.060198	-0.077135	-0.351140
C94	C	1.560198	0.422865	0.148860
C95	C	1.097564	-0.293379	-0.803364
C96	C	1.597564	0.206621	-0.303364
C97	C	1.097574	-0.293359	-0.880224
C98	C	1.597574	0.206641	-0.380224
C99	C	0.999380	-0.383191	-0.876165
C100	C	1.499380	0.116809	-0.376165
C101	C	0.999368	-0.383208	-0.799307
C102	C	1.499368	0.116792	-0.299307
C103	C	1.048464	-0.338303	-0.762908
C104	C	1.548464	0.161697	-0.262908
C105	C	1.048486	-0.338266	-0.916626
C106	C	1.548486	0.161734	-0.416626
C107	C	1.048496	-0.338244	-0.999961
C108	C	1.548496	0.161756	-0.499961
C109	C	1.048453	-0.338323	-0.679568
C110	C	1.548453	0.161677	-0.179568
C111	C	1.048375	-0.338406	-0.148182
C112	C	1.548375	0.161594	0.351818
C113	C	1.048506	-0.338229	-0.066391
C114	C	1.548506	0.161771	0.433609
H115	H	0.622160	-0.257017	-0.428574
H116	H	1.122160	0.242983	0.071426
H117	H	0.482732	-0.257029	-0.428577
H118	H	0.982732	0.242971	0.071423
H119	H	1.137555	-0.256776	-0.913159
H120	H	1.637555	0.243224	-0.413159
H121	H	0.975150	-1.070438	-0.265975
H122	H	1.475150	-0.570438	0.234025
H123	H	0.959410	-0.419753	-0.905810
H124	H	1.459410	0.080247	-0.405810
H125	H	0.475333	-0.419814	-0.250218
H126	H	0.975333	0.080186	0.249782
H127	H	1.137539	-0.256813	-0.773731
H128	H	1.637539	0.243187	-0.273731
H129	H	0.614775	-0.419804	-0.250203
H130	H	1.114775	0.080196	0.249797
H131	H	0.951027	-0.605901	-0.241948
H132	H	1.451027	-0.105901	0.258052
H133	H	1.121731	-0.605669	-0.412877
H134	H	1.621731	-0.105669	0.087123
H135	H	1.109627	-0.825528	-0.400721
H136	H	1.609627	-0.325528	0.099279
H137	H	0.959379	-0.419789	-0.766367
H138	H	1.459379	0.080211	-0.266367
H139	H	1.145848	-1.070207	-0.436907
H140	H	1.645848	-0.570207	0.063093
H141	H	0.981039	-0.937363	-0.271914
H142	H	1.481039	-0.437363	0.228086
H143	H	1.115839	-0.738741	-0.406941
H144	H	1.615839	-0.238741	0.093059
H145	H	1.151739	-0.937121	-0.442844
H146	H	1.651739	-0.437121	0.057156
H147	H	0.945137	-0.738986	-0.236016
H148	H	1.445137	-0.238986	0.263984
H149	H	0.987243	-0.850585	-0.278141
H150	H	1.487243	-0.350585	0.221859
