data_functionalizedCrystal
_audit_creation_method	'MofGen! by Chris Wilmer'
_symmetry_space_group_name_H-M	'P1'
_symmetry_Int_Tables_number	1
_symmetry_cell_setting	triclinic
loop_
_symmetry_equiv_pos_as_xyz
  x,y,z
_cell_length_a	12.837943
_cell_length_b	27.732048
_cell_length_c	11.295483
_cell_angle_alpha	94.055952
_cell_angle_beta	85.461227
_cell_angle_gamma	88.735798
loop_
_atom_site_label
_atom_site_type_symbol
_atom_site_fract_x
_atom_site_fract_y
_atom_site_fract_z
O1	O	1.380472	0.122633	-0.099030
O2	O	1.078766	0.116430	-0.099036
O3	O	1.238988	0.049600	-0.099010
O4	O	1.220251	0.189464	-0.099056
O5	O	1.224916	0.055460	0.099039
O6	O	1.064694	0.122290	0.099013
O7	O	1.366400	0.128493	0.099019
Cu8	Cu	1.214262	0.125927	0.117099
Cu9	Cu	1.230904	0.118997	-0.117116
O10	O	1.206178	0.195323	0.098993
C11	C	1.033143	0.117265	-0.000012
C12	C	0.918166	0.111016	-0.000013
C13	C	0.676005	0.186144	-0.000020
C14	C	0.567973	0.180275	-0.000021
C15	C	0.594068	0.093407	-0.000005
C16	C	0.702100	0.099277	-0.000005
C17	C	0.743064	0.145647	-0.000014
C18	C	0.851099	0.151516	-0.000023
C19	C	0.877191	0.064649	0.000002
C20	C	0.769159	0.058780	0.000001
C21	C	1.231558	0.034504	0.000018
C22	C	1.230373	-0.019210	0.000027
C23	C	1.317601	-0.353705	-0.000032
C24	C	1.313207	-0.555583	-0.000049
O25	O	1.392971	-0.582888	-0.000099
N26	N	1.218201	-0.579414	-0.000050
C27	C	1.124288	-0.552772	-0.000054
O28	O	1.043380	-0.577674	-0.000067
C29	C	1.128684	-0.350895	-0.000046
C30	C	1.223695	-0.327067	-0.000033
C31	C	1.412605	-0.329876	-0.000021
C32	C	1.413702	-0.279410	-0.000010
C33	C	1.319795	-0.252772	-0.000011
C34	C	1.224792	-0.276600	-0.000022
C35	C	1.034772	-0.324255	-0.000058
C36	C	1.035879	-0.273783	-0.000059
C37	C	1.130890	-0.249954	-0.000047
C38	C	1.131982	-0.199496	-0.000012
N39	N	1.226988	-0.175665	-0.000012
C40	C	1.320895	-0.202303	-0.000011
C41	C	1.121987	-0.658760	-0.000056
C42	C	1.120887	-0.709229	-0.000056
C43	C	1.309807	-0.712036	-0.000053
C44	C	1.310905	-0.661566	-0.000045
C45	C	1.216993	-0.634929	-0.000055
C46	C	1.323191	-0.096319	0.000012
C47	C	1.324279	-0.045848	0.000028
C48	C	1.135361	-0.043045	0.000019
C49	C	1.134271	-0.093512	0.000010
C50	C	1.228195	-0.120148	0.000002
O51	O	1.052262	-0.172160	0.000025
O52	O	1.401793	-0.177392	-0.000024
C53	C	1.316504	-0.404172	-0.000043
C54	C	1.221501	-0.428000	-0.000054
C55	C	1.127594	-0.401362	-0.000055
C56	C	1.220401	-0.478469	-0.000054
C57	C	1.314308	-0.505107	-0.000053
C58	C	1.409314	-0.481276	-0.000053
C59	C	1.410411	-0.430810	-0.000042
C60	C	1.032588	-0.425193	-0.000056
C61	C	1.031499	-0.475660	-0.000065
C62	C	1.125405	-0.502298	-0.000064
C63	C	1.412023	0.127658	-0.000008
C64	C	1.527001	0.133908	-0.000015
C65	C	1.213608	0.210420	-0.000037
C66	C	1.214794	0.264133	-0.000055
N67	N	1.202564	0.130801	0.281834
N68	N	1.242610	0.114119	-0.281851
C69	C	1.326818	0.079005	0.531143
C70	C	1.317985	0.082692	0.655805
C71	C	1.176062	0.141860	0.655823
C72	C	1.184894	0.138173	0.531160
C73	C	1.260276	0.106745	0.468825
C74	C	1.269113	0.103060	0.344160
C75	C	1.127185	0.162225	0.344180
C76	C	1.118353	0.165912	0.468842
H77	H	0.735790	0.021027	0.000023
H78	H	0.931804	0.031673	-0.000001
H79	H	0.560689	0.055658	0.000101
H80	H	1.388203	0.053419	0.480389
C81	C	1.514479	-0.358848	0.000168
C82	C	1.512123	-0.384903	0.102047
C83	C	1.605950	-0.411598	0.102262
H84	H	1.571291	-0.337477	0.000235
H85	H	1.522902	-0.380662	-0.068858
H86	H	1.503711	-0.363091	0.171056
H87	H	1.455331	-0.406282	0.102002
H88	H	1.614374	-0.433412	0.033236
H89	H	1.662755	-0.390224	0.102326
H90	H	1.604360	-0.429283	0.171380
H91	H	1.399673	-0.118000	0.000002
H92	H	1.045507	-0.637077	-0.000064
C93	C	1.511165	-0.510291	-0.000117
C94	C	1.489856	-0.559589	-0.000159
C95	C	1.583650	-0.586335	-0.000242
H96	H	1.545335	-0.500624	0.068927
H97	H	1.555072	-0.504666	-0.069209
H98	H	1.445966	-0.565211	0.068927
H99	H	1.455701	-0.569271	-0.069198
H100	H	1.627557	-0.580710	-0.069335
H101	H	1.617813	-0.576664	0.068803
H102	H	1.569206	-0.619787	-0.000281
H103	H	1.401652	-0.026449	0.000041
C104	C	1.031208	-0.119456	-0.000179
C105	C	1.032312	-0.151360	-0.102068
C106	C	0.937395	-0.175269	-0.102286
H107	H	0.975351	-0.096418	-0.000235
H108	H	1.021939	-0.137079	0.068841
H109	H	1.041570	-0.133737	-0.171070
H110	H	1.088148	-0.174406	-0.102034
H111	H	0.928126	-0.192893	-0.033266
H112	H	0.881546	-0.152228	-0.102338
H113	H	0.938135	-0.196922	-0.171410
H114	H	1.388271	-0.642169	-0.000035
C115	C	0.928232	-0.501440	-0.000139
C116	C	0.846238	-0.467304	-0.000172
C117	C	0.751101	-0.491034	-0.000268
H118	H	0.918811	-0.519034	0.068898
H119	H	0.928733	-0.523095	-0.069239
H120	H	0.845736	-0.445658	0.068921
H121	H	0.855625	-0.449709	-0.069203
H122	H	0.751601	-0.512689	-0.069368
H123	H	0.741690	-0.508628	0.068770
H124	H	0.695457	-0.467877	-0.000301
H125	H	1.073006	0.184814	0.293426
H126	H	0.956117	-0.403509	-0.000059
H127	H	1.114681	0.167444	0.706592
C128	C	1.516971	-0.253634	-0.000069
C129	C	1.598966	-0.287774	-0.000103
C130	C	1.694119	-0.264051	-0.000177
H131	H	1.516580	-0.231966	0.068977
H132	H	1.526296	-0.236056	-0.069160
H133	H	1.589643	-0.305343	0.068981
H134	H	1.599391	-0.309443	-0.069143
H135	H	1.703444	-0.246474	-0.069268
H136	H	1.693716	-0.242384	0.068870
H137	H	1.749764	-0.287212	-0.000211
C138	C	1.036352	0.199966	0.536467
C139	C	0.936838	0.186517	0.506191
C140	C	0.861273	0.217873	0.568474
H141	H	1.048389	0.232135	0.516082
H142	H	1.040550	0.198182	0.619648
H143	H	0.932643	0.188305	0.423029
H144	H	0.924768	0.154352	0.526579
H145	H	0.865471	0.216089	0.651655
H146	H	0.873320	0.250040	0.548084
H147	H	0.793744	0.208749	0.547949
H148	H	1.386270	-0.733734	-0.000052
C149	C	1.017628	-0.735009	-0.000116
C150	C	0.935634	-0.700874	-0.000151
C151	C	0.840495	-0.724603	-0.000231
H152	H	1.008210	-0.752600	0.068927
H153	H	1.018123	-0.756667	-0.069210
H154	H	0.935137	-0.679224	0.068935
H155	H	0.945016	-0.683281	-0.069189
H156	H	0.840990	-0.746261	-0.069325
H157	H	0.831088	-0.742193	0.068813
H158	H	0.784851	-0.701446	-0.000266
H159	H	0.959403	-0.252098	-0.000070
C160	C	0.720283	0.236527	0.000021
C161	C	0.638430	0.270739	0.000036
C162	C	0.679176	0.317158	0.000089
H163	H	0.766774	0.238647	-0.069025
H164	H	0.756945	0.242692	0.069112
H165	H	0.601785	0.264576	-0.069048
H166	H	0.591932	0.268635	0.069077
H167	H	0.715838	0.323322	0.069180
H168	H	0.725666	0.319272	-0.068958
H169	H	0.623644	0.340376	0.000110
H170	H	1.487779	-0.411413	-0.000032
C171	C	0.931511	-0.350030	-0.000140
C172	C	0.849524	-0.315891	-0.000179
C173	C	0.754382	-0.339617	-0.000272
H174	H	0.922085	-0.367622	0.068901
H175	H	0.932009	-0.371687	-0.069236
H176	H	0.849026	-0.294244	0.068910
H177	H	0.858916	-0.298298	-0.069215
H178	H	0.754879	-0.361273	-0.069369
H179	H	0.744966	-0.357208	0.068769
H180	H	0.698743	-0.316458	-0.000310
H181	H	1.330495	0.077472	0.293408
C182	C	1.033345	-0.014183	-0.000176
C183	C	0.983328	-0.028626	-0.102064
C184	C	0.889344	-0.002053	-0.102288
H185	H	1.047474	0.019294	-0.000236
H186	H	0.989380	-0.019844	0.068844
H187	H	1.027283	-0.022961	-0.171066
H188	H	0.969173	-0.062099	-0.102025
H189	H	0.845379	-0.007714	-0.033267
H190	H	0.903483	0.031423	-0.102345
H191	H	0.855391	-0.011852	-0.171411
H192	H	1.372168	0.060103	0.706541
H193	H	0.513376	0.213252	-0.000022
H194	H	0.884449	0.189273	-0.000028
