data_functionalizedCrystal
_audit_creation_method	'MofGen! by Chris Wilmer'
_symmetry_space_group_name_H-M	'P1'
_symmetry_Int_Tables_number	1
_symmetry_cell_setting	triclinic
loop_
_symmetry_equiv_pos_as_xyz
  x,y,z
_cell_length_a	13.635800
_cell_length_b	11.168121
_cell_length_c	11.168136
_cell_angle_alpha	92.020174
_cell_angle_beta	108.508683
_cell_angle_gamma	108.508496
loop_
_atom_site_label
_atom_site_type_symbol
_atom_site_fract_x
_atom_site_fract_y
_atom_site_fract_z
V1	V	-2.054941	-0.174724	-0.393710
O2	O	-2.034733	0.008377	-0.386204
O3	O	-2.043085	-0.346429	-0.391027
O4	O	-2.043086	-0.172045	-0.565415
O5	O	-2.034732	-0.167215	-0.210609
V6	V	-2.293556	-0.152822	-0.371808
O7	O	-2.192473	-0.222767	-0.441753
O8	O	-2.381123	-0.104778	-0.323765
O9	O	-2.193809	0.018883	-0.374490
O10	O	-2.372462	-0.335922	-0.379314
O11	O	-2.372463	-0.160331	-0.554909
O12	O	-2.193807	-0.155501	-0.200102
C13	C	-1.968189	-0.388286	-0.384819
C14	C	-1.999220	-0.528658	-0.383771
C15	C	-2.100475	-0.597350	-0.389292
C16	C	-2.132550	-0.742432	-0.388208
C17	C	-1.968190	-0.165840	-0.607267
C18	C	-1.999221	-0.164786	-0.747637
C19	C	-2.100475	-0.170305	-0.816329
C20	C	-2.132549	-0.169216	-0.961409
V21	V	-1.554941	-0.174724	-0.393710
O22	O	-1.534733	0.008377	-0.386204
O23	O	-1.543085	-0.346429	-0.391027
O24	O	-1.543086	-0.172045	-0.565415
O25	O	-1.534732	-0.167215	-0.210609
V26	V	-1.793556	-0.152822	-0.371808
O27	O	-1.692473	-0.222767	-0.441753
O28	O	-1.881123	-0.104778	-0.323765
O29	O	-1.693809	0.018883	-0.374490
O30	O	-1.872462	-0.335922	-0.379314
O31	O	-1.872463	-0.160331	-0.554909
O32	O	-1.693807	-0.155501	-0.200102
C33	C	-2.100376	0.060735	-0.380695
C34	C	-2.058964	0.201105	-0.381752
C35	C	-1.468190	-0.165840	-0.607267
C36	C	-1.499221	-0.164786	-0.747637
C37	C	-2.100375	-0.161709	-0.158244
C38	C	-2.058962	-0.162757	-0.017873
C39	C	-1.600475	-0.170305	-0.816329
C40	C	-1.632549	-0.169216	-0.961409
C41	C	-1.468189	-0.388286	-0.384819
C42	C	-1.499220	-0.528658	-0.383771
C43	C	-1.600376	0.060735	-0.380695
C44	C	-1.558964	0.201105	-0.381752
C45	C	-1.600375	-0.161709	-0.158244
C46	C	-1.558962	-0.162757	-0.017873
C47	C	-1.600475	-0.597350	-0.389292
C48	C	-1.632550	-0.742432	-0.388208
H49	H	-1.936281	-0.577256	-0.378248
H50	H	-2.163418	-0.548754	-0.394828
H51	H	-1.663418	-0.548754	-0.394828
C52	C	-2.243764	-0.881353	-0.285342
C53	C	-2.249650	-0.822136	-0.394582
H54	H	-2.316059	-0.930565	-0.289281
H55	H	-2.209499	-0.818091	-0.211508
H56	H	-2.201754	-0.935583	-0.281164
H57	H	-2.291653	-0.767899	-0.398754
H58	H	-2.283931	-0.885407	-0.468435
C59	C	-2.202417	-0.287776	-0.692300
C60	C	-2.185455	-0.177775	-0.750740
H61	H	-2.254888	-0.292389	-0.651818
H62	H	-2.134740	-0.284444	-0.630409
H63	H	-2.229145	-0.361100	-0.755048
H64	H	-2.158719	-0.104451	-0.687990
H65	H	-2.253145	-0.181098	-0.812637
C66	C	-1.891366	-0.625955	-0.266506
C67	C	-1.941860	-0.719196	-0.375370
H68	H	-1.819073	-0.576742	-0.262572
H69	H	-1.887392	-0.666144	-0.192418
H70	H	-1.933384	-0.571732	-0.270710
H71	H	-1.899847	-0.773425	-0.371161
H72	H	-1.945829	-0.679005	-0.449476
H73	H	-1.972222	-0.158040	-0.958832
C74	C	-1.800139	-0.284455	-1.134365
C75	C	-1.749649	-0.175594	-1.041121
H76	H	-1.872431	-0.288387	-1.183582
H77	H	-1.804117	-0.358545	-1.094181
H78	H	-1.758118	-0.280248	-1.188584
H79	H	-1.791666	-0.179806	-0.986896
H80	H	-1.745677	-0.101486	-1.081308
C81	C	-1.743764	-0.881353	-0.285342
C82	C	-1.749650	-0.822136	-0.394582
H83	H	-1.816059	-0.930565	-0.289281
H84	H	-1.709499	-0.818091	-0.211508
H85	H	-1.701754	-0.935583	-0.281164
H86	H	-1.791653	-0.767899	-0.398754
H87	H	-1.783931	-0.885407	-0.468435
H88	H	-1.472222	-0.158040	-0.958832
C89	C	-2.300139	-0.284455	-1.134365
C90	C	-2.249649	-0.175594	-1.041121
H91	H	-2.372431	-0.288387	-1.183582
H92	H	-2.304117	-0.358545	-1.094181
H93	H	-2.258118	-0.280248	-1.188584
H94	H	-2.291666	-0.179806	-0.986896
H95	H	-2.245677	-0.101486	-1.081308
C96	C	-1.897284	-0.047318	-0.871673
C97	C	-1.914243	-0.157317	-0.813230
H98	H	-1.844825	-0.042713	-0.912171
H99	H	-1.870553	0.025999	-0.808936
H100	H	-1.964974	-0.050652	-0.933564
H101	H	-1.846555	-0.153979	-0.751332
H102	H	-1.940970	-0.230653	-0.875975
C103	C	-1.637232	-0.177410	-0.619713
C104	C	-1.685454	-0.177775	-0.750739
H105	H	-1.689701	-0.182030	-0.579227
H106	H	-1.575535	-0.101008	-0.583983
H107	H	-1.613772	-0.248962	-0.607070
H108	H	-1.708907	-0.106218	-0.763382
H109	H	-1.747171	-0.254186	-0.786479
C110	C	-1.397284	-0.047318	-0.871673
C111	C	-1.414243	-0.157317	-0.813230
H112	H	-1.344825	-0.042713	-0.912171
H113	H	-1.370553	0.025999	-0.808936
H114	H	-1.464974	-0.050652	-0.933564
H115	H	-1.346555	-0.153979	-0.751332
H116	H	-1.440970	-0.230653	-0.875975
C117	C	-1.391366	-0.625955	-0.266506
C118	C	-1.441860	-0.719196	-0.375370
H119	H	-1.319073	-0.576742	-0.262572
H120	H	-1.387392	-0.666144	-0.192418
H121	H	-1.433384	-0.571732	-0.270710
H122	H	-1.399847	-0.773425	-0.371161
H123	H	-1.445829	-0.679005	-0.449476
H124	H	-1.436281	-0.577256	-0.378248
