data_functionalizedCrystal
_audit_creation_method	'MofGen! by Chris Wilmer'
_symmetry_space_group_name_H-M	'P1'
_symmetry_Int_Tables_number	1
_symmetry_cell_setting	triclinic
loop_
_symmetry_equiv_pos_as_xyz
  x,y,z
_cell_length_a	17.699083
_cell_length_b	17.699104
_cell_length_c	15.186229
_cell_angle_alpha	89.993511
_cell_angle_beta	90.001174
_cell_angle_gamma	96.712734
loop_
_atom_site_label
_atom_site_type_symbol
_atom_site_fract_x
_atom_site_fract_y
_atom_site_fract_z
O1	O	0.095781	-1.004068	0.073248
O2	O	0.108217	-0.783691	0.073246
O3	O	-0.008190	-0.900106	0.073239
O4	O	0.212188	-0.887653	0.073255
O5	O	-0.008183	-0.900092	-0.073218
O6	O	0.108224	-0.783678	-0.073211
O7	O	0.095788	-1.004054	-0.073209
Zn8	Zn	0.102007	-0.893864	-0.096463
Zn9	Zn	0.101998	-0.893882	0.096500
O10	O	0.212194	-0.887640	-0.073202
C11	C	-0.036383	-0.899653	0.000011
C12	C	-0.120402	-0.898314	0.000010
C13	C	0.107772	-0.755488	0.000017
C14	C	0.106427	-0.671471	0.000016
C15	C	0.096233	-1.032258	0.000022
C16	C	0.097578	-1.116275	0.000028
C17	C	-0.169017	-0.966647	0.000010
C18	C	-0.247961	-0.965385	0.000017
C19	C	-0.278287	-0.895789	0.000020
C20	C	-0.229665	-0.827451	0.000023
C21	C	-0.150723	-0.828714	0.000021
C22	C	-0.548028	-0.822356	0.000030
C23	C	-0.626976	-0.821098	0.000029
C24	C	-0.645266	-0.959026	0.000026
C25	C	-0.566324	-0.960289	0.000025
C26	C	-0.517709	-0.891952	0.000032
C27	C	-0.432110	-0.893321	0.000026
C28	C	-0.363885	-0.894419	0.000020
C29	C	0.240388	-0.888093	0.000028
C30	C	0.324406	-0.889431	0.000034
C31	C	0.167171	-0.146600	0.000030
C32	C	0.168430	-0.225543	0.000032
C33	C	0.100095	-0.274161	0.000027
C34	C	0.030496	-0.243831	0.000029
C35	C	0.029238	-0.164889	0.000032
C36	C	0.035569	-0.562197	0.000015
C37	C	0.036833	-0.641144	0.000009
C38	C	0.174762	-0.622852	0.000015
C39	C	0.173503	-0.543909	0.000019
C40	C	0.103905	-0.513587	0.000025
C41	C	0.102541	-0.427987	0.000024
C42	C	0.101459	-0.359759	0.000022
N43	N	0.102012	-0.893857	-0.228156
C44	C	0.147851	-0.939688	-0.453875
C45	C	0.147845	-0.939696	-0.546065
C46	C	0.056143	-0.848062	-0.546082
C47	C	0.056145	-0.848058	-0.453894
C48	C	0.102003	-0.893870	-0.407793
C49	C	0.101996	-0.893882	-0.592170
C50	C	0.101990	-0.893890	-0.692126
C51	C	0.102008	-0.893862	-0.307830
N52	N	0.101987	-0.893894	0.228193
H53	H	-0.144333	-1.023320	0.000003
N54	N	0.197276	-0.989132	-0.595769
H55	H	0.226319	-1.018157	-0.552572
H56	H	0.234319	-0.956084	-0.634038
H57	H	-0.508455	-0.766711	0.000036
N58	N	-0.697704	-1.032735	0.000034
H59	H	-0.666512	-1.077014	0.000029
H60	H	-0.730859	-1.035210	-0.054257
N61	N	0.243498	-0.258240	0.000028
H62	H	0.247098	-0.290580	-0.054263
H63	H	0.247056	-0.290551	0.054356
H64	H	-0.651664	-0.764421	0.000029
H65	H	0.222818	-0.107020	0.000027
N66	N	0.197306	-0.989098	-0.404150
H67	H	0.226348	-1.018126	-0.447335
H68	H	0.164261	-1.026155	-0.365894
N69	N	0.006696	-0.798634	-0.404186
H70	H	0.013654	-0.805586	-0.338790
H71	H	-0.048370	-0.813690	-0.420297
H72	H	-0.025143	-0.283422	0.000030
N73	N	-0.039494	-0.529497	0.000014
H74	H	-0.082590	-0.572277	0.000005
H75	H	-0.043017	-0.497134	-0.054278
H76	H	0.018808	-0.810763	-0.583628
N77	N	-0.262372	-0.752387	0.000017
H78	H	-0.219593	-0.709290	0.000018
H79	H	-0.294728	-0.748862	0.054309
N80	N	-0.300398	-1.039085	0.000009
H81	H	-0.290656	-1.069467	0.054295
H82	H	-0.290634	-1.069383	-0.054325
N83	N	-0.533621	-1.035356	0.000017
H84	H	-0.551356	-1.065291	0.054310
H85	H	-0.476240	-1.025725	-0.000019
N86	N	-0.098283	-0.755013	0.000027
H87	H	-0.129472	-0.710732	0.000028
H88	H	-0.065130	-0.752525	-0.054265
N89	N	-0.045820	-0.132171	0.000029
H90	H	-0.075754	-0.149914	0.054318
H91	H	-0.075691	-0.149904	-0.054301
N92	N	0.247207	-0.491472	-0.000030
H93	H	0.291487	-0.522662	-0.000043
H94	H	0.249714	-0.458307	0.054249
H95	H	-0.018817	-0.680728	0.000007
N96	N	0.249832	-0.655557	0.000013
H97	H	0.240264	-0.712943	0.000013
H98	H	0.279727	-0.637769	0.054306
