data_functionalizedCrystal
_audit_creation_method	'MofGen! by Chris Wilmer'
_symmetry_space_group_name_H-M	'P1'
_symmetry_Int_Tables_number	1
_symmetry_cell_setting	triclinic
loop_
_symmetry_equiv_pos_as_xyz
  x,y,z
_cell_length_a	25.639242
_cell_length_b	25.639239
_cell_length_c	13.897441
_cell_angle_alpha	89.965695
_cell_angle_beta	89.969343
_cell_angle_gamma	90.034213
loop_
_atom_site_label
_atom_site_type_symbol
_atom_site_fract_x
_atom_site_fract_y
_atom_site_fract_z
Zn1	Zn	0.799269	-0.208196	-0.545612
Zn2	Zn	1.299269	0.291804	-0.045612
Zn3	Zn	0.799179	-0.295639	-0.384303
Zn4	Zn	1.299179	0.204361	0.115697
Zn5	Zn	0.711832	-0.208213	-0.384302
Zn6	Zn	1.211832	0.291787	0.115698
Zn7	Zn	0.711790	-0.295596	-0.545527
Zn8	Zn	1.211790	0.204404	-0.045527
O9	O	0.755518	-0.251911	-0.464936
O10	O	1.255518	0.248089	0.035064
O11	O	0.872422	-0.219807	-0.524249
O12	O	1.372422	0.280193	-0.024249
O13	O	0.787573	-0.284066	-0.249321
O14	O	1.287573	0.215934	0.250679
O15	O	0.723486	-0.135045	-0.405735
O16	O	1.223486	0.364955	0.094265
O17	O	0.872356	-0.284051	-0.405736
O18	O	1.372356	0.215949	0.094264
O19	O	0.787725	-0.135033	-0.524249
O20	O	1.287725	0.364967	-0.024249
O21	O	0.723399	-0.219835	-0.249320
O22	O	1.223399	0.280165	0.250680
O23	O	0.638662	-0.219793	-0.405653
O24	O	1.138662	0.280207	0.094347
O25	O	0.723414	-0.283977	-0.680520
O26	O	1.223414	0.216023	-0.180520
O27	O	0.638631	-0.283993	-0.524105
O28	O	1.138631	0.216007	-0.024105
O29	O	0.787685	-0.219765	-0.680582
O30	O	1.287685	0.280235	-0.180582
O31	O	0.787532	-0.368798	-0.405654
O32	O	1.287532	0.131202	0.094346
O33	O	0.723328	-0.368767	-0.524105
O34	O	1.223328	0.131233	-0.024105
C35	C	0.619675	-0.251890	-0.464870
C36	C	1.119675	0.248110	0.035130
C37	C	0.561561	-0.251894	-0.464865
C38	C	1.061561	0.248106	0.035135
C39	C	0.755430	-0.387754	-0.464892
C40	C	1.255430	0.112246	0.035108
C41	C	0.755440	-0.445868	-0.464905
C42	C	1.255440	0.054132	0.035095
C43	C	0.201191	-0.285396	-0.526555
C44	C	0.701191	0.214604	-0.026555
C45	C	0.146587	-0.285399	-0.526570
C46	C	0.646587	0.214601	-0.026570
O47	O	0.118344	-0.313858	-0.578966
O48	O	0.618344	0.186142	-0.078966
N49	N	0.119279	-0.251925	-0.464999
N50	N	0.619279	0.248075	0.035001
C51	C	0.146578	-0.218443	-0.403415
C52	C	0.646578	0.281557	0.096585
O53	O	0.118336	-0.189970	-0.351046
O54	O	0.618336	0.310030	0.148954
C55	C	0.201181	-0.218437	-0.403405
C56	C	0.701181	0.281563	0.096595
C57	C	0.228486	-0.251917	-0.464974
C58	C	0.728486	0.248083	0.035026
C59	C	0.228496	-0.318872	-0.588119
C60	C	0.728496	0.181128	-0.088119
C61	C	0.283097	-0.318870	-0.588103
C62	C	0.783097	0.181130	-0.088103
C63	C	0.310392	-0.285391	-0.526522
C64	C	0.810392	0.214609	-0.026522
C65	C	0.283087	-0.251914	-0.464957
C66	C	0.783087	0.248086	0.035043
C67	C	0.228479	-0.184952	-0.341827
C68	C	0.728479	0.315048	0.158173
C69	C	0.283086	-0.184949	-0.341823
C70	C	0.783086	0.315051	0.158177
C71	C	0.310392	-0.218429	-0.403392
C72	C	0.810392	0.281571	0.096608
C73	C	0.364983	-0.218432	-0.403359
C74	C	0.864983	0.281568	0.096641
N75	N	0.392291	-0.251906	-0.464931
N76	N	0.892291	0.248094	0.035069
C77	C	0.364995	-0.285385	-0.526512
C78	C	0.864995	0.214615	-0.026512
C79	C	0.031907	-0.218456	-0.403441
C80	C	0.531907	0.281544	0.096559
C81	C	-0.022695	-0.218464	-0.403445
C82	C	0.477305	0.281536	0.096555
C83	C	-0.022683	-0.285420	-0.526602
C84	C	0.477317	0.214580	-0.026602
C85	C	0.031921	-0.285414	-0.526592
C86	C	0.531921	0.214586	-0.026592
C87	C	0.059215	-0.251930	-0.465013
C88	C	0.559215	0.248070	0.034987
C89	C	0.479660	-0.285377	-0.526472
C90	C	0.979660	0.214623	-0.026472
C91	C	0.534266	-0.285373	-0.526446
C92	C	1.034266	0.214627	-0.026446
C93	C	0.534249	-0.218416	-0.403294
C94	C	1.034249	0.281584	0.096706
C95	C	0.479648	-0.218421	-0.403315
C96	C	0.979648	0.281579	0.096685
C97	C	0.452355	-0.251904	-0.464911
C98	C	0.952355	0.248096	0.035089
O99	O	0.393260	-0.189987	-0.350993
O100	O	0.893260	0.310013	0.149007
O101	O	0.393243	-0.313848	-0.578881
O102	O	0.893243	0.186152	-0.078881
C103	C	0.789036	-0.806235	-0.403364
C104	C	1.289036	-0.306235	0.096636
C105	C	0.789056	-0.860839	-0.403376
C106	C	1.289056	-0.360839	0.096624
O107	O	0.817530	-0.889079	-0.351003
O108	O	1.317530	-0.389079	0.148997
N109	N	0.755610	-0.888150	-0.465000
N110	N	1.255610	-0.388150	0.035000
C111	C	0.722144	-0.860854	-0.526621
C112	C	1.222144	-0.360854	-0.026621
O113	O	0.693697	-0.889098	-0.579039
O114	O	1.193697	-0.389098	-0.079039
C115	C	0.722127	-0.806251	-0.526612
C116	C	1.222127	-0.306251	-0.026612
C117	C	0.755572	-0.778942	-0.464978
C118	C	1.255572	-0.278942	0.035022
C119	C	0.822479	-0.778926	-0.341735
C120	C	1.322479	-0.278926	0.158265
C121	C	0.822458	-0.724326	-0.341721
C122	C	1.322458	-0.224326	0.158279
C123	C	0.788994	-0.697033	-0.403336
C124	C	1.288994	-0.197033	0.096664
C125	C	0.755551	-0.724342	-0.464964
C126	C	1.255551	-0.224342	0.035036
C127	C	0.688664	-0.778956	-0.588238
C128	C	1.188664	-0.278956	-0.088238
C129	C	0.688650	-0.724349	-0.588224
C130	C	1.188650	-0.224349	-0.088224
C131	C	0.722096	-0.697040	-0.526590
C132	C	1.222096	-0.197040	-0.026590
C133	C	0.722066	-0.642449	-0.526565
C134	C	1.222066	-0.142449	-0.026565
N135	N	0.755513	-0.615138	-0.464941
N136	N	1.255513	-0.115138	0.035059
C137	C	0.788977	-0.642430	-0.403327
C138	C	1.288977	-0.142430	0.096673
C139	C	0.722183	-0.975525	-0.526636
C140	C	1.222183	-0.475525	-0.026636
C141	C	0.722198	-1.030127	-0.526641
C142	C	1.222198	-0.530127	-0.026641
C143	C	0.789111	-1.030108	-0.403397
C144	C	1.289111	-0.530108	0.096603
C145	C	0.789094	-0.975505	-0.403388
C146	C	1.289094	-0.475505	0.096612
C147	C	0.755630	-0.948213	-0.465013
C148	C	1.255630	-0.448213	0.034987
C149	C	0.788930	-0.527765	-0.403302
C150	C	1.288930	-0.027765	0.096698
C151	C	0.788904	-0.473160	-0.403290
C152	C	1.288904	0.026840	0.096710
C153	C	0.721993	-0.473183	-0.526537
C154	C	1.221993	0.026817	-0.026537
C155	C	0.722016	-0.527784	-0.526545
C156	C	1.222016	-0.027784	-0.026545
C157	C	0.755489	-0.555074	-0.464924
C158	C	1.255489	-0.055074	0.035076
O159	O	0.693608	-0.614174	-0.578914
O160	O	1.193608	-0.114174	-0.078914
O161	O	0.817424	-0.614179	-0.350927
O162	O	1.317424	-0.114179	0.149073
C163	C	0.891891	-0.251932	-0.465002
C164	C	1.391891	0.248068	0.034998
C165	C	0.950005	-0.251941	-0.465030
C166	C	1.450005	0.248059	0.034970
C167	C	0.755555	-0.251865	-0.716529
C168	C	1.255555	0.248135	-0.216529
C169	C	0.755571	-0.251845	-0.823743
C170	C	1.255571	0.248155	-0.323743
C171	C	0.755620	-0.115538	-0.465001
C172	C	1.255620	0.384462	0.034999
C173	C	0.755664	-0.057424	-0.465029
C174	C	1.255664	0.442576	0.034971
C175	C	0.755585	-0.251810	-1.020038
C176	C	1.255585	0.248190	-0.520038
C177	C	0.755575	-0.251831	-0.910806
C178	C	1.255575	0.248169	-0.410806
C179	C	0.755511	-0.251919	-0.214322
C180	C	1.255511	0.248081	0.285678
C181	C	0.755596	-0.251792	-0.107108
C182	C	1.255596	0.248208	0.392892
H183	H	0.457445	-0.312641	-0.576632
H184	H	0.957445	0.187359	-0.076632
H185	H	0.305324	-0.346131	-0.638240
H186	H	0.805324	0.153869	-0.138240
C187	C	0.564278	-0.181585	-0.335568
C188	C	1.064278	0.318415	0.164432
H189	H	0.540198	-0.161647	-0.298897
H190	H	1.040198	0.338353	0.201103
H191	H	0.585602	-0.158833	-0.372552
H192	H	1.085602	0.341167	0.127448
H193	H	0.585555	-0.201555	-0.293461
H194	H	1.085555	0.298445	0.206539
C195	C	0.825920	-1.060136	-0.335618
C196	C	1.325920	-0.560136	0.164382
H197	H	0.821140	-1.096566	-0.344460
H198	H	1.321140	-0.596566	0.155540
H199	H	0.818283	-1.051221	-0.270792
H200	H	1.318283	-0.551221	0.229208
H201	H	0.861046	-1.051153	-0.349804
H202	H	1.361046	-0.551153	0.150196
H203	H	0.816328	-0.953273	-0.353201
H204	H	1.316328	-0.453273	0.146799
C205	C	-0.052714	-0.322242	-0.594349
C206	C	0.447286	0.177758	-0.094349
H207	H	-0.089144	-0.317443	-0.585540
H208	H	0.410856	0.182557	-0.085540
H209	H	-0.043793	-0.357363	-0.580122
H210	H	0.456207	0.142637	-0.080122
H211	H	-0.043740	-0.314626	-0.659186
H212	H	0.456260	0.185374	-0.159186
H213	H	-0.044922	-0.191206	-0.353300
H214	H	0.455078	0.308794	0.146700
H215	H	0.457415	-0.191161	-0.353179
H216	H	0.957415	0.308839	0.146821
C217	C	0.198453	-0.148112	-0.274125
C218	C	0.698453	0.351888	0.225875
H219	H	0.162022	-0.152903	-0.282942
H220	H	0.662022	0.347097	0.217058
H221	H	0.207436	-0.112998	-0.288383
H222	H	0.707436	0.387002	0.211617
H223	H	0.207372	-0.155712	-0.209278
H224	H	0.707372	0.344288	0.290722
H225	H	0.556495	-0.312638	-0.576584
H226	H	1.056495	0.187362	-0.076584
C227	C	0.313107	-0.148115	-0.274084
C228	C	0.813107	0.351885	0.225916
H229	H	0.289022	-0.128181	-0.237419
H230	H	0.789022	0.371819	0.262581
H231	H	0.334434	-0.125358	-0.311054
H232	H	0.834434	0.374642	0.188946
H233	H	0.334381	-0.168086	-0.231974
H234	H	0.834381	0.331914	0.268026
C235	C	0.651840	-0.694329	-0.656010
C236	C	1.151840	-0.194329	-0.156010
H237	H	0.656618	-0.657897	-0.647186
H238	H	1.156618	-0.157897	-0.147186
H239	H	0.616718	-0.703318	-0.641832
H240	H	1.116718	-0.203318	-0.141832
H241	H	0.659483	-0.703247	-0.720839
H242	H	1.159483	-0.203247	-0.220839
C243	C	0.685227	-0.557824	-0.594339
C244	C	1.185227	-0.057824	-0.094339
H245	H	0.665296	-0.533748	-0.631036
H246	H	1.165296	-0.033748	-0.131036
H247	H	0.662465	-0.579167	-0.557411
H248	H	1.162465	-0.079167	-0.057411
H249	H	0.705230	-0.579084	-0.636418
H250	H	1.205230	-0.079084	-0.136418
H251	H	0.694745	-0.450954	-0.576700
H252	H	1.194745	0.049046	-0.076700
C253	C	0.651878	-0.808983	-0.656044
C254	C	1.151878	-0.308983	-0.156044
H255	H	0.631954	-0.784901	-0.692741
H256	H	1.131954	-0.284901	-0.192741
H257	H	0.629110	-0.830322	-0.619121
H258	H	1.129110	-0.330322	-0.119121
H259	H	0.671878	-0.830245	-0.698122
H260	H	1.171878	-0.330245	-0.198122
C261	C	0.198479	-0.355704	-0.655863
C262	C	0.698479	0.144296	-0.155863
H263	H	0.222569	-0.375639	-0.692517
H264	H	0.722569	0.124361	-0.192517
H265	H	0.177202	-0.335739	-0.697969
H266	H	0.677202	0.164261	-0.197969
H267	H	0.177157	-0.378467	-0.618889
H268	H	0.677157	0.121533	-0.118889
C269	C	0.825698	-0.443123	-0.335495
C270	C	1.325698	0.056877	0.164505
H271	H	0.845634	-0.467201	-0.298811
H272	H	1.345634	0.032799	0.201189
H273	H	0.805705	-0.421858	-0.293419
H274	H	1.305705	0.078142	0.206581
H275	H	0.848462	-0.421787	-0.372440
H276	H	1.348462	0.078213	0.127560
C277	C	0.061952	-0.322237	-0.594324
C278	C	0.561952	0.177763	-0.094324
H279	H	0.037870	-0.342173	-0.631002
H280	H	0.537870	0.157827	-0.131002
H281	H	0.083231	-0.344993	-0.557353
H282	H	0.583231	0.155007	-0.057353
H283	H	0.083274	-0.302259	-0.636424
H284	H	0.583274	0.197741	-0.136424
H285	H	0.054127	-0.191189	-0.353288
H286	H	0.554127	0.308811	0.146712
C287	C	0.825745	-0.557776	-0.335513
C288	C	1.325745	-0.057776	0.164487
H289	H	0.845653	-0.533685	-0.298806
H290	H	1.345653	-0.033685	0.201194
H291	H	0.848527	-0.579042	-0.372449
H292	H	1.348527	-0.079042	0.127551
H293	H	0.805760	-0.579110	-0.293444
H294	H	1.305760	-0.079110	0.206556
H295	H	0.849694	-0.702094	-0.291536
H296	H	1.349694	-0.202094	0.208464
C297	C	0.859290	-0.808939	-0.273947
C298	C	1.359290	-0.308939	0.226053
H299	H	0.879199	-0.784848	-0.237243
H300	H	1.379199	-0.284848	0.262757
H301	H	0.882071	-0.830208	-0.310879
H302	H	1.382071	-0.330208	0.189121
H303	H	0.839304	-0.830270	-0.231875
H304	H	1.339304	-0.330270	0.268125
H305	H	0.694958	-1.052357	-0.576821
H306	H	1.194958	-0.552357	-0.076821
C307	C	0.685365	-0.945509	-0.594416
C308	C	1.185365	-0.445509	-0.094416
H309	H	0.665447	-0.969598	-0.631107
H310	H	1.165447	-0.469598	-0.131107
H311	H	0.705341	-0.924173	-0.636486
H312	H	1.205341	-0.424173	-0.136486
H313	H	0.662585	-0.924245	-0.557463
H314	H	1.162585	-0.424245	-0.057463
