data_functionalizedCrystal
_audit_creation_method	'MofGen! by Chris Wilmer'
_symmetry_space_group_name_H-M	'P1'
_symmetry_Int_Tables_number	1
_symmetry_cell_setting	triclinic
loop_
_symmetry_equiv_pos_as_xyz
  x,y,z
_cell_length_a	27.732048
_cell_length_b	27.732048
_cell_length_c	26.809956
_cell_angle_alpha	90.000636
_cell_angle_beta	89.996742
_cell_angle_gamma	97.357345
loop_
_atom_site_label
_atom_site_type_symbol
_atom_site_fract_x
_atom_site_fract_y
_atom_site_fract_z
O1	O	0.640931	-0.057510	-0.041421
O2	O	0.500138	-0.066256	-0.041436
O3	O	0.574907	0.008514	-0.041419
O4	O	0.566162	-0.132280	-0.041439
O5	O	0.574893	0.008502	0.041541
O6	O	0.500123	-0.066267	0.041523
O7	O	0.640917	-0.057522	0.041539
Zn8	Zn	0.570518	-0.061896	0.054702
Zn9	Zn	0.570536	-0.061881	-0.054600
O10	O	0.566147	-0.132291	0.041521
C11	C	0.482124	-0.066078	0.000041
C12	C	0.428469	-0.065525	0.000036
C13	C	0.574716	0.026515	0.000062
C14	C	0.574164	0.080170	0.000066
C15	C	0.089654	-0.106229	0.000051
C16	C	-0.112006	-0.104178	0.000056
O17	O	-0.143262	-0.141398	0.000073
N18	N	-0.131130	-0.059843	0.000062
C19	C	-0.099835	-0.016017	0.000069
O20	O	-0.120728	0.021740	0.000079
C21	C	0.101824	-0.018068	0.000068
C22	C	0.120944	-0.062407	0.000057
C23	C	0.108775	-0.150563	0.000042
C24	C	0.159187	-0.151076	0.000038
C25	C	0.190477	-0.107253	0.000044
C26	C	0.171356	-0.062919	0.000054
C27	C	0.133117	0.025757	0.000079
C28	C	0.183535	0.025240	0.000080
C29	C	0.202655	-0.019098	0.000069
C30	C	0.253059	-0.019609	0.000056
N31	N	0.272183	-0.063944	0.000050
C32	C	0.240892	-0.107766	0.000044
C33	C	-0.205709	-0.014943	0.000069
C34	C	-0.256124	-0.014430	0.000068
C35	C	-0.268291	-0.102591	0.000056
C36	C	-0.217876	-0.103104	0.000053
C37	C	-0.186585	-0.059278	0.000063
C38	C	0.346761	-0.108839	0.000036
C39	C	0.397178	-0.109347	0.000030
C40	C	0.409341	-0.021186	0.000044
C41	C	0.358929	-0.020678	0.000048
C42	C	0.327639	-0.064508	0.000045
O43	O	0.284343	0.017592	0.000045
O44	O	0.261794	-0.145518	0.000045
C45	C	0.039242	-0.105716	0.000055
C46	C	0.020120	-0.061382	0.000065
C47	C	0.051411	-0.017560	0.000071
C48	C	-0.030294	-0.060869	0.000065
C49	C	-0.061585	-0.104691	0.000059
C50	C	-0.042461	-0.149026	0.000053
C51	C	0.007951	-0.149539	0.000049
C52	C	0.032287	0.026775	0.000077
C53	C	-0.018125	0.027284	0.000080
C54	C	-0.049416	-0.016538	0.000074
C55	C	0.658931	-0.057699	0.000060
C56	C	0.712586	-0.058252	0.000062
C57	C	0.566338	-0.150292	0.000039
C58	C	0.566891	-0.203947	0.000031
N59	N	0.570509	-0.061906	0.129298
C60	C	0.614867	0.418985	0.000045
C61	C	0.612816	0.620645	0.000038
O62	O	0.650037	0.651900	0.000021
N63	N	0.568481	0.639768	0.000034
C64	C	0.524656	0.608474	0.000028
O65	O	0.486899	0.629367	0.000019
C66	C	0.526707	0.406815	0.000031
C67	C	0.571045	0.387694	0.000041
C68	C	0.659202	0.399864	0.000054
C69	C	0.659714	0.349452	0.000059
C70	C	0.615892	0.318161	0.000054
C71	C	0.571557	0.337282	0.000045
C72	C	0.482882	0.375521	0.000022
C73	C	0.483399	0.325104	0.000021
C74	C	0.527737	0.305983	0.000031
C75	C	0.528247	0.255580	0.000045
N76	N	0.572583	0.236456	0.000050
C77	C	0.616405	0.267747	0.000054
C78	C	0.523582	0.714348	0.000027
C79	C	0.523069	0.764762	0.000027
C80	C	0.611230	0.776930	0.000036
C81	C	0.611742	0.726514	0.000040
C82	C	0.567917	0.695224	0.000031
C83	C	0.617477	0.161878	0.000064
C84	C	0.617986	0.111461	0.000071
C85	C	0.529825	0.099298	0.000059
C86	C	0.529316	0.149710	0.000055
C87	C	0.573147	0.180999	0.000056
O88	O	0.491047	0.224296	0.000057
O89	O	0.654156	0.246844	0.000053
C90	C	0.614355	0.469397	0.000041
C91	C	0.570021	0.488518	0.000032
C92	C	0.526198	0.457228	0.000027
C93	C	0.569508	0.538933	0.000032
C94	C	0.613330	0.570223	0.000036
C95	C	0.657665	0.551100	0.000041
C96	C	0.658177	0.500688	0.000045
C97	C	0.481863	0.476351	0.000023
C98	C	0.481355	0.526764	0.000019
C99	C	0.525177	0.558054	0.000023
N100	N	0.570549	-0.061867	-0.129196
C101	C	0.603640	-0.028781	0.473932
C102	C	0.603652	-0.028774	0.682810
O103	O	0.631801	-0.000613	0.709820
N104	N	0.570539	-0.061870	0.708925
C105	C	0.537419	-0.094969	0.682818
O106	O	0.509252	-0.123116	0.709824
C107	C	0.537406	-0.094974	0.473941
C108	C	0.570524	-0.061878	0.447829
C109	C	0.636755	0.004312	0.447819
C110	C	0.636754	0.004308	0.395603
C111	C	0.603637	-0.028789	0.369500
C112	C	0.570522	-0.061882	0.395612
C113	C	0.504284	-0.128070	0.447835
C114	C	0.504283	-0.128067	0.395613
C115	C	0.537401	-0.094972	0.369500
C116	C	0.537405	-0.094983	0.317293
N117	N	0.570517	-0.061887	0.291177
C118	C	0.603633	-0.028790	0.317281
C119	C	0.537429	-0.094965	0.792481
C120	C	0.537433	-0.094964	0.844700
C121	C	0.603665	-0.028768	0.844689
C122	C	0.603663	-0.028772	0.792469
C123	C	0.570542	-0.061868	0.766366
C124	C	0.603628	-0.028801	0.207623
C125	C	0.603625	-0.028809	0.155402
C126	C	0.537392	-0.095003	0.155418
C127	C	0.537396	-0.094997	0.207635
C128	C	0.570516	-0.061892	0.233735
O129	O	0.509266	-0.123126	0.290250
O130	O	0.631789	-0.000640	0.290266
C131	C	0.603642	-0.028777	0.526149
C132	C	0.570527	-0.061870	0.552261
C133	C	0.537410	-0.094968	0.526158
C134	C	0.570531	-0.061870	0.604480
C135	C	0.603647	-0.028773	0.630584
C136	C	0.636759	0.004324	0.604468
C137	C	0.636758	0.004320	0.552252
C138	C	0.504298	-0.128064	0.552273
C139	C	0.504303	-0.128058	0.604489
C140	C	0.537419	-0.094961	0.630593
H141	H	0.412743	-0.145454	0.000021
O142	O	-0.298671	-0.145174	-0.000035
C143	C	-0.290049	-0.172123	-0.042995
H144	H	-0.272625	-0.146475	-0.073026
H145	H	-0.325965	-0.191776	-0.057415
H146	H	-0.264584	-0.199909	-0.033282
O147	O	0.438238	0.545254	-0.000012
C148	C	0.399673	0.506819	-0.000003
H149	H	0.412970	0.472666	-0.015701
H150	H	0.368701	0.517123	-0.024098
H151	H	0.386164	0.499589	0.039794
O152	O	-0.072793	-0.191640	0.000026
C153	C	-0.045112	-0.230887	0.000032
H154	H	-0.007389	-0.218335	-0.015675
H155	H	-0.063939	-0.261564	-0.024055
H156	H	-0.041624	-0.244500	0.039830
O157	O	0.701819	0.430187	0.000083
C158	C	0.741053	0.402488	0.000077
H159	H	0.728484	0.364768	0.015778
H160	H	0.771731	0.421302	0.024170
H161	H	0.754670	0.398998	-0.039720
O162	O	0.668948	0.036398	0.473227
C163	C	0.698586	0.010716	0.503416
H164	H	0.679049	-0.027240	0.511249
H165	H	0.706396	0.030950	0.540132
H166	H	0.734279	0.007672	0.483280
H167	H	0.209009	0.060929	0.000089
O168	O	0.505332	-0.127164	0.870086
C169	C	0.530991	-0.156803	0.900298
H170	H	0.569104	-0.157358	0.884560
H171	H	0.510979	-0.195360	0.900889
H172	H	0.533637	-0.141659	0.939875
H173	H	0.630595	-0.001859	0.134142
O174	O	0.701260	0.482141	-0.000037
C175	C	0.727960	0.498176	-0.042994
H176	H	0.702029	0.508469	-0.073027
H177	H	0.748300	0.467786	-0.057414
H178	H	0.755140	0.531238	-0.033279
H179	H	0.117558	0.061861	0.000088
O180	O	0.177676	-0.194189	0.000056
C181	C	0.139240	-0.232752	0.000040
H182	H	0.105088	-0.219458	0.015746
H183	H	0.149542	-0.263732	0.024125
H184	H	0.132009	-0.246248	-0.039760
O185	O	0.635850	0.003426	0.767182
C186	C	0.665087	0.032626	0.801426
H187	H	0.645274	0.033032	0.838651
H188	H	0.672751	0.071283	0.786342
H189	H	0.700876	0.017177	0.806974
O190	O	0.472084	-0.160153	0.526897
C191	C	0.442460	-0.134482	0.496679
H192	H	0.441925	-0.096363	0.512408
H193	H	0.403895	-0.154475	0.496094
H194	H	0.457605	-0.131850	0.457101
O195	O	0.660022	0.192316	0.000134
C196	C	0.662364	0.221835	0.043105
H197	H	0.624014	0.224112	0.057421
H198	H	0.680668	0.259859	0.033443
H199	H	0.684303	0.205405	0.073196
H200	H	0.343360	0.015426	0.000049
O201	O	0.439810	0.021336	0.000074
C202	C	0.488406	0.011371	0.000059
H203	H	0.490055	-0.026587	0.015754
H204	H	0.511453	0.039318	0.024152
H205	H	0.503004	0.013323	-0.039740
O206	O	0.702755	0.330825	-0.000005
C207	C	0.705704	0.302040	-0.042977
H208	H	0.667512	0.289196	-0.057302
H209	H	0.724727	0.269169	-0.033315
H210	H	0.727256	0.324477	-0.073062
H211	H	0.083302	-0.186251	0.000038
H212	H	0.487892	0.688875	0.000020
H213	H	0.630630	-0.001820	0.865951
H214	H	0.447710	0.299629	0.000014
H215	H	0.477310	-0.155018	0.374362
H216	H	0.647846	0.710950	0.000047
H217	H	-0.202311	-0.139207	0.000047
H218	H	0.446777	0.391080	0.000011
H219	H	0.646911	0.802415	0.000040
O220	O	0.668849	0.036455	0.370149
C221	C	0.698484	0.010891	0.339830
H222	H	0.699212	-0.027200	0.355560
H223	H	0.736991	0.031018	0.339108
H224	H	0.683215	0.008183	0.300306
O225	O	0.661046	0.092864	0.000166
C226	C	0.663971	0.064060	0.043127
H227	H	0.638798	0.075799	0.073155
H228	H	0.702961	0.068873	0.057552
H229	H	0.652521	0.024216	0.033415
H230	H	0.486964	0.780325	0.000028
O231	O	0.505237	-0.127167	0.767206
C232	C	0.476009	-0.156367	0.801460
H233	H	0.495830	-0.156769	0.838679
H234	H	0.468344	-0.195025	0.786379
H235	H	0.440220	-0.140919	0.807021
O236	O	0.700247	0.581481	0.000132
C237	C	0.727192	0.572864	0.043093
H238	H	0.701542	0.555443	0.073124
H239	H	0.746843	0.608783	0.057512
H240	H	0.754981	0.547399	0.033383
O241	O	-0.274614	0.028683	0.000094
C242	C	-0.236179	0.067248	0.000088
H243	H	-0.202029	0.053953	0.015792
H244	H	-0.246487	0.098223	0.024179
H245	H	-0.228943	0.080752	-0.039709
O246	O	0.472065	-0.160237	0.473115
C247	C	0.442846	-0.189450	0.438868
H248	H	0.442456	-0.169631	0.401646
H249	H	0.404187	-0.197089	0.453953
H250	H	0.458268	-0.225254	0.433311
H251	H	0.446177	0.450879	0.000018
O252	O	0.486205	0.168206	0.000025
C253	C	0.447637	0.129775	0.000037
H254	H	0.460930	0.095619	-0.015658
H255	H	0.416665	0.140080	-0.024058
H256	H	0.434128	0.122549	0.039835
O257	O	0.635847	0.003376	0.232895
C258	C	0.665062	0.032589	0.198641
H259	H	0.665453	0.012766	0.161421
H260	H	0.703721	0.040233	0.213720
H261	H	0.649636	0.068390	0.193083
O262	O	0.505180	-0.127163	0.232926
C263	C	0.475959	-0.156384	0.198686
H264	H	0.475569	-0.136574	0.161459
H265	H	0.437300	-0.164017	0.213772
H266	H	0.491379	-0.192190	0.193139
O267	O	0.505241	-0.127104	0.129979
C268	C	0.512351	-0.120012	0.078291
H269	H	0.530712	-0.081457	0.071162
H270	H	0.475706	-0.125635	0.058446
H271	H	0.536384	-0.147209	0.063468
H272	H	0.663725	0.031269	0.530995
O273	O	-0.036615	0.070400	0.000111
C274	C	0.001820	0.108965	0.000105
H275	H	0.035971	0.095669	0.015802
H276	H	-0.008486	0.139938	0.024200
H277	H	0.009052	0.122473	-0.039692
O278	O	0.668861	0.036523	0.629854
C279	C	0.643193	0.066154	0.660069
H280	H	0.605081	0.066706	0.644330
H281	H	0.663200	0.104714	0.660666
H282	H	0.640542	0.051005	0.699643
O283	O	-0.175269	0.027601	0.000007
C284	C	-0.145749	0.029956	-0.042965
H285	H	-0.143471	-0.008390	-0.057292
H286	H	-0.107726	0.048258	-0.033302
H287	H	-0.162180	0.051903	-0.073050
O288	O	0.472083	-0.160228	0.629775
C289	C	0.442863	-0.189446	0.595531
H290	H	0.442473	-0.169631	0.558307
H291	H	0.404204	-0.197082	0.610617
H292	H	0.458284	-0.225250	0.589979
H293	H	0.023514	-0.185643	0.000042
H294	H	0.321291	-0.144530	0.000035
H295	H	0.057760	0.062462	0.000083
H296	H	0.494146	0.073812	0.000057
