data_functionalizedCrystal
_audit_creation_method	'MofGen! by Chris Wilmer'
_symmetry_space_group_name_H-M	'P1'
_symmetry_Int_Tables_number	1
_symmetry_cell_setting	triclinic
loop_
_symmetry_equiv_pos_as_xyz
  x,y,z
_cell_length_a	8.597366
_cell_length_b	10.654541
_cell_length_c	7.088929
_cell_angle_alpha	83.716231
_cell_angle_beta	103.954530
_cell_angle_gamma	84.909530
loop_
_atom_site_label
_atom_site_type_symbol
_atom_site_fract_x
_atom_site_fract_y
_atom_site_fract_z
O1	O	2.103268	0.172457	0.187480
O2	O	1.638813	0.192960	0.110967
O3	O	1.881722	-0.000117	0.150995
O4	O	1.860359	0.365534	0.147452
O5	O	1.914184	-0.025978	0.474319
O6	O	1.671275	0.167099	0.434292
O7	O	2.135730	0.146596	0.510804
Cu8	Cu	1.906466	0.154486	0.502070
Cu9	Cu	1.868077	0.185070	0.119702
O10	O	1.892820	0.339673	0.470777
C11	C	1.595573	0.179269	0.262832
C12	C	1.418367	0.176988	0.233640
C13	C	1.896386	-0.059833	0.312398
C14	C	1.891695	-0.199239	0.311622
C15	C	2.182160	-0.229524	0.359496
C16	C	2.325183	-0.310158	0.383073
C17	C	2.320765	-0.441140	0.382339
C18	C	2.173309	-0.491489	0.358020
C19	C	2.030286	-0.410855	0.334443
C20	C	2.034720	-0.279872	0.335185
C21	C	1.739823	-0.380570	0.286556
C22	C	1.744239	-0.249588	0.287303
C23	C	1.592367	-0.430919	0.262237
C24	C	1.449342	-0.350286	0.238673
C25	C	1.453766	-0.219296	0.239410
C26	C	1.601216	-0.168954	0.263726
C27	C	2.178970	0.160288	0.358935
C28	C	2.356175	0.162570	0.388114
C29	C	1.878157	0.399390	0.309370
C30	C	1.882846	0.538796	0.310133
N31	N	1.933479	0.132975	0.771009
N32	N	1.841076	0.206572	-0.149236
H33	H	1.336044	0.187577	0.079045
H34	H	2.185774	-0.122874	0.360122
C35	C	1.374766	0.134477	0.733882
C36	C	1.467304	0.148263	0.596835
H37	H	1.443377	0.125637	0.862733
H38	H	1.297733	0.207414	0.714072
H39	H	1.320450	0.061016	0.717802
H40	H	1.521612	0.221731	0.612905
H41	H	1.544366	0.075319	0.616653
H42	H	2.445241	-0.269150	0.402890
H43	H	2.437226	-0.506792	0.401523
C44	C	2.229383	-0.674050	0.203773
C45	C	2.168457	-0.635466	0.357195
H46	H	2.226394	-0.762937	0.203273
H47	H	2.165424	-0.629804	0.082375
H48	H	2.337663	-0.655593	0.221644
H49	H	2.060172	-0.653915	0.339316
H50	H	2.232415	-0.679727	0.478622
C51	C	2.143902	-0.034612	0.785962
C52	C	2.062776	0.030009	0.902530
H53	H	2.223727	-0.098172	0.867161
H54	H	2.068961	-0.073356	0.695564
H55	H	2.194062	0.023869	0.716129
H56	H	2.012606	-0.028470	0.972352
H57	H	2.137730	0.068754	0.992962
H58	H	1.329293	-0.391290	0.218862
C59	C	1.490299	-0.597004	0.081927
C60	C	1.587510	-0.574896	0.261419
H61	H	1.487309	-0.685891	0.081425
H62	H	1.384031	-0.556196	0.064421
H63	H	1.533647	-0.563936	-0.021793
H64	H	1.544155	-0.607956	0.365139
H65	H	1.693798	-0.615721	0.278946
H66	H	1.337297	-0.153649	0.220202
H67	H	1.604833	-0.062304	0.264340
H68	H	1.745311	0.282840	0.753337
