data_functionalizedCrystal
_audit_creation_method	'MofGen! by Chris Wilmer'
_symmetry_space_group_name_H-M	'P1'
_symmetry_Int_Tables_number	1
_symmetry_cell_setting	triclinic
loop_
_symmetry_equiv_pos_as_xyz
  x,y,z
_cell_length_a	13.032721
_cell_length_b	19.077236
_cell_length_c	19.076919
_cell_angle_alpha	89.887323
_cell_angle_beta	99.138159
_cell_angle_gamma	99.764912
loop_
_atom_site_label
_atom_site_type_symbol
_atom_site_fract_x
_atom_site_fract_y
_atom_site_fract_z
Zn1	Zn	-0.383250	1.024260	-0.471946
Zn2	Zn	0.116750	1.524260	0.028054
Zn3	Zn	-0.552445	1.013877	-0.368304
Zn4	Zn	-0.052445	1.513877	0.131696
Zn5	Zn	-0.382696	0.911525	-0.349681
Zn6	Zn	0.117304	1.411525	0.150319
Zn7	Zn	-0.566531	0.890445	-0.482196
Zn8	Zn	-0.066531	1.390445	0.017804
O9	O	-0.471231	0.960027	-0.418032
O10	O	0.028769	1.460027	0.081968
O11	O	-0.400031	1.121720	-0.461702
O12	O	0.099969	1.621720	0.038298
O13	O	-0.523801	1.004776	-0.267001
O14	O	-0.023801	1.504776	0.232999
O15	O	-0.235025	0.939647	-0.353816
O16	O	0.264975	1.439647	0.146184
O17	O	-0.524338	1.114091	-0.385556
O18	O	-0.024338	1.614091	0.114444
O19	O	-0.235432	1.022474	-0.443644
O20	O	0.264568	1.522474	0.056356
O21	O	-0.399087	0.929579	-0.253318
O22	O	0.100913	1.429579	0.246682
O23	O	-0.412745	0.809892	-0.363755
O24	O	0.087255	1.309892	0.136245
O25	O	-0.548344	0.903720	-0.579669
O26	O	-0.048344	1.403720	-0.079669
O27	O	-0.547808	0.794405	-0.461114
O28	O	-0.047808	1.294405	0.038886
O29	O	-0.413689	1.002033	-0.572139
O30	O	0.086311	1.502033	-0.072139
O31	O	-0.702058	0.984335	-0.395495
O32	O	-0.202058	1.484335	0.104505
O33	O	-0.712407	0.893651	-0.479171
O34	O	-0.212407	1.393651	0.020829
C35	C	-0.481746	0.776521	-0.411526
C36	C	0.018254	1.276521	0.088474
C37	C	-0.486271	0.698014	-0.408762
C38	C	0.013729	1.198014	0.091238
C39	C	-0.423788	0.665091	-0.447186
C40	C	0.076212	1.165091	0.052814
C41	C	-0.428034	0.591325	-0.444582
C42	C	0.071966	1.091325	0.055418
C43	C	-0.494769	0.550484	-0.403558
C44	C	0.005231	1.050484	0.096442
C45	C	-0.557254	0.583412	-0.365129
C46	C	-0.057254	1.083412	0.134871
C47	C	-0.553002	0.657176	-0.367730
C48	C	-0.053002	1.157176	0.132270
C49	C	-0.514410	0.329446	-0.391518
C50	C	-0.014410	0.829446	0.108482
C51	C	-0.518660	0.255676	-0.388922
C52	C	-0.018660	0.755676	0.111078
C53	C	-0.389437	0.263595	-0.468374
C54	C	0.110563	0.763595	0.031626
C55	C	-0.385196	0.337360	-0.470974
C56	C	0.114804	0.837360	0.029026
C57	C	-0.447677	0.370283	-0.432543
C58	C	0.052323	0.870283	0.067457
N59	N	-0.499113	0.475083	-0.400897
N60	N	0.000887	0.975083	0.099103
N61	N	-0.443326	0.445682	-0.435200
N62	N	0.056674	0.945682	0.064800
C63	C	-0.745541	0.935597	-0.440483
C64	C	-0.245541	1.435597	0.059517
C65	C	-0.862889	0.925210	-0.450113
C66	C	-0.362889	1.425210	0.049887
C67	C	-0.910052	0.965484	-0.413039
C68	C	-0.410052	1.465484	0.086961
C69	C	-1.031338	0.954749	-0.422991
C70	C	-0.531338	1.454749	0.077009
C71	C	-0.195849	0.984570	-0.395509
C72	C	0.304151	1.484570	0.104491
C73	C	-0.078498	0.995029	-0.385912
C74	C	0.421502	1.495029	0.114088
C75	C	-0.482650	0.951683	-0.602247
C76	C	0.017350	1.451683	-0.102247
C77	C	-0.487516	0.948128	-0.680748
C78	C	0.012484	1.448128	-0.180748
C79	C	-0.460675	1.144249	-0.424563
C80	C	0.039325	1.644249	0.075437
C81	C	-0.456177	1.222753	-0.427346
C82	C	0.043823	1.722753	0.072654
C83	C	-0.419697	0.997641	-0.713709
C84	C	0.080303	1.497641	-0.213709
C85	C	-0.424266	0.994292	-0.787469
C86	C	0.075734	1.494292	-0.287469
C87	C	-0.496659	0.941432	-0.828267
C88	C	0.003341	1.441432	-0.328267
C89	C	-0.564481	0.891914	-0.795301
C90	C	-0.064481	1.391914	-0.295301
C91	C	-0.559906	0.895260	-0.721542
C92	C	-0.059906	1.395260	-0.221542
C93	C	-0.517853	0.925932	-1.049283
C94	C	-0.017853	1.425932	-0.549283
C95	C	-0.522425	0.922590	-1.123047
C96	C	-0.022425	1.422590	-0.623047
C97	C	-0.382208	1.024969	-1.115209
C98	C	0.117792	1.524969	-0.615209
C99	C	-0.377644	1.028313	-1.041450
C100	C	0.122356	1.528313	-0.541450
C101	C	-0.445462	0.978792	-1.008490
C102	C	0.054538	1.478792	-0.508490
N103	N	-0.501333	0.938009	-0.903662
N104	N	-0.001333	1.438009	-0.403662
N105	N	-0.440782	0.982213	-0.933096
N106	N	0.059218	1.482213	-0.433096
C107	C	-0.459777	0.968385	-0.234529
C108	C	0.040223	1.468385	0.265471
C109	C	-0.454606	0.972104	-0.156008
C110	C	0.045394	1.472104	0.343992
H111	H	-0.369447	0.698339	-0.480595
H112	H	0.130553	1.198339	0.019405
H113	H	-0.912303	0.882785	-0.489225
H114	H	-0.412303	1.382785	0.010775
H115	H	-1.080748	0.912321	-0.462106
H116	H	-0.580748	1.412321	0.037894
H117	H	-0.318697	1.071359	-1.008237
H118	H	0.181303	1.571359	-0.508237
Br119	Br	-0.827704	1.036209	-0.347859
Br120	Br	-0.327704	1.536209	0.152141
Br121	Br	-0.290173	1.092171	-1.159944
Br122	Br	0.209827	1.592171	-0.659944
Br123	Br	-0.620676	0.850845	-1.178417
Br124	Br	-0.120676	1.350845	-0.678417
H125	H	-0.330857	0.370609	-0.504384
H126	H	0.169143	0.870609	-0.004384
Br127	Br	-0.343232	0.546647	-0.496732
Br128	Br	0.156768	1.046647	0.003268
Br129	Br	-0.996156	1.065757	-0.320727
Br130	Br	-0.496156	1.565757	0.179273
Br131	Br	-0.321452	1.069388	-0.658347
Br132	Br	0.178548	1.569388	-0.158347
Br133	Br	-0.599178	0.374120	-0.339340
Br134	Br	-0.099178	0.874120	0.160660
H135	H	-0.369043	1.034613	-0.814302
H136	H	0.130957	1.534613	-0.314302
Br137	Br	-0.637802	0.701859	-0.315579
Br138	Br	-0.137802	1.201859	0.184421
Br139	Br	-0.609890	0.858724	-1.004561
Br140	Br	-0.109890	1.358724	-0.504561
H141	H	-0.623421	0.848871	-0.828525
H142	H	-0.123421	1.348871	-0.328525
H143	H	-0.615121	0.854935	-0.694706
H144	H	-0.115121	1.354935	-0.194706
H145	H	-0.338567	0.236782	-0.499662
H146	H	0.161433	0.736782	0.000338
H147	H	-0.573009	0.222424	-0.355515
H148	H	-0.073009	0.722424	0.144485
H149	H	-0.611586	0.550153	-0.331723
H150	H	-0.111586	1.050153	0.168277
