data_functionalizedCrystal
_audit_creation_method	'MofGen! by Chris Wilmer'
_symmetry_space_group_name_H-M	'P1'
_symmetry_Int_Tables_number	1
_symmetry_cell_setting	triclinic
loop_
_symmetry_equiv_pos_as_xyz
  x,y,z
_cell_length_a	17.019383
_cell_length_b	17.019294
_cell_length_c	15.072220
_cell_angle_alpha	86.119892
_cell_angle_beta	86.111534
_cell_angle_gamma	83.133350
loop_
_atom_site_label
_atom_site_type_symbol
_atom_site_fract_x
_atom_site_fract_y
_atom_site_fract_z
O1	O	1.046574	0.100545	-0.161347
O2	O	1.379908	0.433879	0.171986
O3	O	1.713241	0.767212	0.505319
O4	O	0.816896	0.113349	-0.144796
O5	O	1.150229	0.446682	0.188537
O6	O	1.483562	0.780016	0.521871
O7	O	0.938141	-0.007892	-0.144782
O8	O	1.271474	0.325441	0.188551
O9	O	1.604808	0.658775	0.521884
O10	O	0.925329	0.221786	-0.161361
O11	O	1.258662	0.555120	0.171972
O12	O	1.591996	0.888453	0.505306
O13	O	0.938111	-0.007885	0.002784
O14	O	1.271445	0.325448	0.336118
O15	O	1.604778	0.658782	0.669451
O16	O	0.816866	0.113356	0.002771
O17	O	1.150199	0.446689	0.336104
O18	O	1.483532	0.780023	0.669437
O19	O	1.046545	0.100552	-0.013781
O20	O	1.379878	0.433885	0.319553
O21	O	1.713211	0.767219	0.652886
Zn22	Zn	0.931700	0.106955	0.017925
Zn23	Zn	1.265034	0.440288	0.351258
Zn24	Zn	1.598367	0.773622	0.684591
Zn25	Zn	0.931740	0.106946	-0.176501
Zn26	Zn	1.265073	0.440279	0.156832
Zn27	Zn	1.598407	0.773613	0.490165
O28	O	0.925299	0.221793	-0.013794
O29	O	1.258632	0.555126	0.319539
O30	O	1.591966	0.888460	0.652873
C31	C	0.787492	0.112865	-0.068732
C32	C	1.120826	0.446198	0.264601
C33	C	1.454159	0.779532	0.597934
C34	C	0.699924	0.111403	-0.061937
C35	C	1.033257	0.444737	0.271396
C36	C	1.366591	0.778070	0.604729
C37	C	0.658793	0.110715	-0.139177
C38	C	0.992126	0.444048	0.194156
C39	C	1.325460	0.777381	0.527490
C40	C	0.576512	0.109354	-0.132780
C41	C	0.909845	0.442687	0.200553
C42	C	1.243178	0.776021	0.533887
C43	C	0.535363	0.108676	-0.049142
C44	C	0.868696	0.442009	0.284191
C45	C	1.202030	0.775343	0.617525
C46	C	0.576499	0.109367	0.028103
C47	C	0.909833	0.442700	0.361437
C48	C	1.243166	0.776034	0.694770
C49	C	0.658779	0.110733	0.021705
C50	C	0.992112	0.444067	0.355039
C51	C	1.325445	0.777400	0.688372
C52	C	0.286932	0.104555	-0.025800
C53	C	0.620265	0.437889	0.307533
C54	C	0.953599	0.771222	0.640867
C55	C	0.204647	0.103186	-0.019407
C56	C	0.537981	0.436520	0.313926
C57	C	0.871314	0.769853	0.647259
C58	C	0.204665	0.103175	-0.180292
C59	C	0.537998	0.436508	0.153042
C60	C	0.871331	0.769842	0.486375
C61	C	0.286946	0.104537	-0.186682
C62	C	0.620280	0.437870	0.146651
C63	C	0.953613	0.771203	0.479984
C64	C	0.328075	0.105232	-0.109437
C65	C	0.661408	0.438565	0.223896
C66	C	0.994741	0.771898	0.557230
C67	C	0.451259	0.107282	-0.042601
C68	C	0.784592	0.440616	0.290732
C69	C	1.117925	0.773949	0.624065
C70	C	0.412177	0.106631	-0.115979
C71	C	0.745510	0.439964	0.217354
C72	C	1.078844	0.773298	0.550688
C73	C	0.937640	-0.037277	-0.068717
C74	C	1.270973	0.296056	0.264616
C75	C	1.604307	0.629390	0.597949
C76	C	0.936181	-0.124845	-0.061918
C77	C	1.269515	0.208488	0.271415
C78	C	1.602848	0.541821	0.604749
C79	C	0.935514	-0.165984	-0.139162
C80	C	1.268848	0.167349	0.194171
C81	C	1.602181	0.500682	0.527505
C82	C	0.934139	-0.248264	-0.132770
C83	C	1.267472	0.085070	0.200563
C84	C	1.600805	0.418403	0.533897
C85	C	0.933436	-0.289403	-0.049134
C86	C	1.266769	0.043930	0.284199
C87	C	1.600103	0.377264	0.617533
C88	C	0.934101	-0.248258	0.028116
C89	C	1.267434	0.085076	0.361449
C90	C	1.600767	0.418409	0.694783
C91	C	0.935471	-0.165979	0.021724
C92	C	1.268804	0.167354	0.355057
C93	C	1.602137	0.500687	0.688390
C94	C	0.929294	-0.537830	-0.025809
C95	C	1.262627	-0.204497	0.307525
C96	C	1.595960	0.128837	0.640858
C97	C	0.927926	-0.620114	-0.019422
C98	C	1.261259	-0.286781	0.313911
C99	C	1.594593	0.046552	0.647244
C100	C	0.927963	-0.620114	-0.180309
C101	C	1.261296	-0.286781	0.153024
C102	C	1.594629	0.046552	0.486357
C103	C	0.929337	-0.537835	-0.186694
C104	C	1.262671	-0.204502	0.146639
C105	C	1.596004	0.128832	0.479972
C106	C	0.929998	-0.496696	-0.109444
C107	C	1.263331	-0.163363	0.223889
C108	C	1.596664	0.169970	0.557222
C109	C	0.932032	-0.373506	-0.042599
C110	C	1.265366	-0.040172	0.290735
C111	C	1.598699	0.293161	0.624068
C112	C	0.931396	-0.412594	-0.115980
C113	C	1.264729	-0.079261	0.217353
C114	C	1.598062	0.254072	0.550687
C115	C	1.075948	0.101036	-0.089846
C116	C	1.409281	0.434369	0.243487
C117	C	1.742615	0.767703	0.576820
C118	C	1.163516	0.102498	-0.096647
C119	C	1.496850	0.435831	0.236686
C120	C	1.830183	0.769165	0.570019
C121	C	0.925800	0.251178	-0.089861
C122	C	1.259134	0.584512	0.243472
C123	C	1.592467	0.917845	0.576805
C124	C	0.927259	0.338747	-0.096666
C125	C	1.260592	0.672080	0.236667
C126	C	1.593926	1.005413	0.570000
N127	N	0.931679	0.106961	0.150615
N128	N	1.265013	0.440294	0.483948
N129	N	1.598346	0.773627	0.817281
N130	N	0.931767	0.106934	-0.309191
N131	N	1.265101	0.440268	0.024142
N132	N	1.598434	0.773601	0.357475
C133	C	0.931738	0.106943	0.509813
C134	C	1.265072	0.440276	0.843146
C135	C	1.598405	0.773610	1.176480
C136	C	0.866645	0.171600	0.472232
C137	C	1.199978	0.504933	0.805565
C138	C	1.533311	0.838266	1.138899
C139	C	0.866794	0.171835	0.369377
C140	C	1.200127	0.505169	0.702710
C141	C	1.533460	0.838502	1.036043
C142	C	0.931708	0.106952	0.331610
C143	C	1.265042	0.440285	0.664944
C144	C	1.598375	0.773619	0.998277
C145	C	1.013996	0.124840	0.361254
C146	C	1.347329	0.458174	0.694587
C147	C	1.680663	0.791507	1.027920
C148	C	1.013631	0.125300	0.464104
C149	C	1.346965	0.458633	0.797438
C150	C	1.680298	0.791966	1.130771
C151	C	0.915278	0.024206	0.479494
C152	C	1.248611	0.357539	0.812827
C153	C	1.581945	0.690873	1.146161
C154	C	0.913389	0.024760	0.376732
C155	C	1.246722	0.358093	0.710066
C156	C	1.580055	0.691427	1.043399
C157	C	0.931697	0.106955	0.230898
C158	C	1.265030	0.440289	0.564231
C159	C	1.598363	0.773622	0.897564
C160	C	0.931755	0.106941	0.610525
C161	C	1.265089	0.440275	0.943858
C162	C	1.598422	0.773608	1.277192
H163	H	0.445683	0.107188	-0.184077
H164	H	0.779016	0.440521	0.149256
H165	H	1.112350	0.773854	0.482590
C166	C	0.784153	0.157469	0.342721
C167	C	1.117486	0.490802	0.676055
C168	C	1.450819	0.824135	1.009388
N169	N	0.721902	0.146653	0.322649
N170	N	1.055236	0.479986	0.655982
N171	N	1.388569	0.813319	0.989316
C172	C	0.835964	0.000955	0.522404
C173	C	1.169298	0.334288	0.855737
C174	C	1.502631	0.667621	1.189070
N175	N	0.776221	-0.016549	0.554722
N176	N	1.109554	0.316785	0.888056
N177	N	1.442888	0.650118	1.221389
H178	H	0.692266	0.111298	0.084602
H179	H	1.025599	0.444631	0.417935
H180	H	1.358933	0.777964	0.751269
C181	C	0.927227	-0.665372	-0.265278
C182	C	1.260560	-0.332039	0.068056
C183	C	1.593894	0.001295	0.401389
N184	N	0.926669	-0.699460	-0.329279
N185	N	1.260002	-0.366127	0.004054
N186	N	1.593336	-0.032793	0.337387
H187	H	0.933599	-0.281756	-0.195671
H188	H	1.266932	0.051578	0.137663
H189	H	1.600265	0.384911	0.470996
C190	C	0.332164	0.105311	0.059174
C191	C	0.665497	0.438644	0.392507
C192	C	0.998830	0.771978	0.725840
N193	N	0.366236	0.105877	0.123180
N194	N	0.699569	0.439211	0.456514
N195	N	1.032902	0.772544	0.789847
H196	H	0.417747	0.106728	0.025497
H197	H	0.751080	0.440061	0.358831
H198	H	1.084413	0.773395	0.692164
C199	C	0.931259	-0.418767	0.049399
C200	C	1.264592	-0.085434	0.382733
C201	C	1.597926	0.247899	0.716066
N202	N	0.930674	-0.452861	0.118692
N203	N	1.264007	-0.119527	0.452026
N204	N	1.597340	0.213806	0.785359
H205	H	0.929911	-0.504345	-0.254800
H206	H	1.263244	-0.171012	0.078533
H207	H	1.596577	0.162322	0.411867
H208	H	0.927350	-0.653607	0.048688
H209	H	1.260683	-0.320274	0.382021
H210	H	1.594016	0.013059	0.715355
C211	C	0.936287	-0.120739	-0.231169
C212	C	1.269620	0.212595	0.102164
C213	C	1.602954	0.545928	0.435498
N214	N	0.936866	-0.086661	-0.300471
N215	N	1.270199	0.246672	0.032862
N216	N	1.603532	0.580005	0.366195
H217	H	0.171144	0.102657	0.048703
H218	H	0.504477	0.435990	0.382036
H219	H	0.837810	0.769323	0.715369
H220	H	0.929847	-0.504347	0.037093
H221	H	1.263181	-0.171014	0.370426
H222	H	1.596514	0.162320	0.703760
H223	H	0.320444	0.105083	-0.254789
H224	H	0.653778	0.438416	0.078545
H225	H	0.987111	0.771750	0.411878
H226	H	0.931962	-0.379094	-0.184076
H227	H	1.265296	-0.045761	0.149257
H228	H	1.598629	0.287572	0.482591
H229	H	0.542989	0.108820	0.096203
H230	H	0.876323	0.442153	0.429536
H231	H	1.209656	0.775486	0.762870
C232	C	0.704049	0.111459	-0.231186
C233	C	1.037382	0.444793	0.102147
C234	C	1.370715	0.778126	0.435480
N235	N	0.738133	0.112023	-0.300490
N236	N	1.071466	0.445356	0.032843
N237	N	1.404800	0.778690	0.366176
H238	H	0.933524	-0.281759	0.096215
H239	H	1.266857	0.051574	0.429548
H240	H	1.600190	0.384907	0.762881
C241	C	0.936207	-0.120727	0.106698
C242	C	1.269540	0.212606	0.440031
C243	C	1.602873	0.545939	0.773365
N244	N	0.936759	-0.086644	0.170704
N245	N	1.270092	0.246689	0.504037
N246	N	1.603426	0.580023	0.837371
H247	H	0.852857	0.011182	0.358018
H248	H	1.186191	0.344516	0.691351
H249	H	1.519524	0.677849	1.024685
H250	H	0.805278	0.161131	0.502477
H251	H	1.138611	0.494464	0.835811
H252	H	1.471944	0.827798	1.169144
H253	H	0.877001	0.232654	0.492613
H254	H	1.210334	0.565987	0.825946
H255	H	1.543668	0.899320	1.159280
C256	C	0.880985	0.254783	0.328697
C257	C	1.214319	0.588116	0.662030
C258	C	1.547652	0.921450	0.995364
N259	N	0.891679	0.317262	0.298057
N260	N	1.225013	0.650595	0.631391
N261	N	1.558346	0.983928	0.964724
H262	H	0.957727	-0.025602	0.351489
H263	H	1.291060	0.307732	0.684823
H264	H	1.624394	0.641065	1.018156
H265	H	1.028150	0.185637	0.482366
H266	H	1.361483	0.518970	0.815699
H267	H	1.694817	0.852303	1.149032
C268	C	1.081044	0.064114	0.497244
C269	C	1.414377	0.397447	0.830577
C270	C	1.747711	0.730780	1.163910
N271	N	1.131827	0.018039	0.522199
N272	N	1.465161	0.351372	0.855532
N273	N	1.798494	0.684706	1.188865
C274	C	1.080995	0.062910	0.327817
C275	C	1.414328	0.396244	0.661150
C276	C	1.747661	0.729577	0.994483
N277	N	1.131457	0.016264	0.302630
N278	N	1.464790	0.349597	0.635963
N279	N	1.798123	0.682931	0.969296
H280	H	1.028864	0.184489	0.329790
H281	H	1.362197	0.517822	0.663124
H282	H	1.695531	0.851156	0.996457
C283	C	0.979404	-0.040796	0.512427
C284	C	1.312737	0.292538	0.845761
C285	C	1.646071	0.625871	1.179094
N286	N	1.027705	-0.089749	0.537238
N287	N	1.361038	0.243585	0.870572
N288	N	1.694372	0.576918	1.203905
H289	H	0.543026	0.108793	-0.195677
H290	H	0.876360	0.442127	0.137656
H291	H	1.209693	0.775460	0.470989
H292	H	0.171169	0.102611	-0.243180
H293	H	0.504502	0.435944	0.090153
H294	H	0.837836	0.769278	0.423486
