data_functionalizedCrystal
_audit_creation_method	'MofGen! by Chris Wilmer'
_symmetry_space_group_name_H-M	'P1'
_symmetry_Int_Tables_number	1
_symmetry_cell_setting	triclinic
loop_
_symmetry_equiv_pos_as_xyz
  x,y,z
_cell_length_a	10.654562
_cell_length_b	10.654541
_cell_length_c	9.130313
_cell_angle_alpha	89.998951
_cell_angle_beta	89.996930
_cell_angle_gamma	84.487016
loop_
_atom_site_label
_atom_site_type_symbol
_atom_site_fract_x
_atom_site_fract_y
_atom_site_fract_z
O1	O	1.667823	0.176469	-0.121895
O2	O	1.302347	0.193259	-0.121877
O3	O	1.493490	0.002125	-0.121877
O4	O	1.476680	0.367603	-0.121894
O5	O	1.493487	0.002130	0.121721
O6	O	1.302344	0.193264	0.121722
O7	O	1.667821	0.176474	0.121704
Cu8	Cu	1.485082	0.184870	0.143955
Cu9	Cu	1.485085	0.184864	-0.144128
O10	O	1.476678	0.367608	0.121704
C11	C	1.255548	0.192025	-0.000075
C12	C	1.116105	0.188327	-0.000068
C13	C	1.050573	0.186605	0.132706
C14	C	0.919551	0.183140	0.132682
C15	C	0.919604	0.183125	-0.132903
C16	C	1.050625	0.186581	-0.132877
C17	C	1.050541	0.186619	0.286040
C18	C	0.919519	0.183154	0.286016
C19	C	1.492255	-0.044671	-0.000079
C20	C	1.488564	-0.184114	-0.000081
C21	C	1.717127	-0.212075	-0.000074
C22	C	1.829670	-0.291564	-0.000067
C23	C	1.826194	-0.422582	-0.000072
C24	C	1.710164	-0.474113	-0.000087
C25	C	1.597621	-0.394623	-0.000094
C26	C	1.601109	-0.263604	-0.000085
C27	C	1.369061	-0.366663	-0.000111
C28	C	1.372534	-0.235645	-0.000097
C29	C	1.253031	-0.418194	-0.000127
C30	C	1.140485	-0.338704	-0.000123
C31	C	1.143966	-0.207679	-0.000117
C32	C	1.259991	-0.156156	-0.000103
C33	C	1.714620	0.177708	-0.000101
C34	C	1.854062	0.181406	-0.000118
C35	C	1.477913	0.414404	-0.000097
C36	C	1.481603	0.553848	-0.000105
N37	N	1.485090	0.184873	0.346578
N38	N	1.485088	0.184850	-0.346751
C39	C	1.569750	0.100268	0.423230
C40	C	1.569746	0.100253	0.576567
C41	C	1.400419	0.269459	0.576586
C42	C	1.400417	0.269467	0.423252
C43	C	1.667513	0.002582	0.423219
C44	C	1.667510	0.002567	0.576556
H45	H	1.096801	0.099826	0.344927
H46	H	1.052319	-0.142965	-0.000129
H47	H	0.873232	0.269952	0.344877
H48	H	0.889931	0.091561	0.333599
O49	O	0.848979	0.181254	-0.276144
H50	H	0.746861	0.178569	-0.253859
O51	O	1.249287	-0.559507	-0.000124
H52	H	1.199057	-0.588024	-0.099421
O53	O	1.795333	0.031094	0.631702
H54	H	1.868362	-0.041949	0.591122
H55	H	1.080114	0.278216	0.333612
O56	O	1.309124	0.360718	0.659295
H57	H	1.250256	0.419553	0.580229
O58	O	1.263753	-0.014845	-0.000083
H59	H	1.166005	0.031777	-0.000079
O60	O	1.121303	0.188425	-0.276089
H61	H	1.191423	0.104541	-0.282417
H62	H	1.924140	-0.249593	-0.000042
H63	H	1.331470	0.338348	0.360844
H64	H	1.719969	-0.105394	-0.000051
O65	O	1.639099	-0.125276	0.368074
H66	H	1.625175	-0.187876	0.462681
O67	O	1.015349	-0.394281	-0.000145
H68	H	0.961206	-0.362435	0.099138
O69	O	1.947576	-0.508325	-0.000049
H70	H	2.003066	-0.489883	-0.099323
O71	O	1.706407	-0.615424	-0.000092
H72	H	1.804157	-0.662041	-0.000079
H73	H	1.758696	0.033174	0.375655
O74	O	1.627141	-0.118292	0.639536
H75	H	1.530149	-0.131185	0.601935
