data_functionalizedCrystal
_audit_creation_method	'MofGen! by Chris Wilmer'
_symmetry_space_group_name_H-M	'P1'
_symmetry_Int_Tables_number	1
_symmetry_cell_setting	triclinic
loop_
_symmetry_equiv_pos_as_xyz
  x,y,z
_cell_length_a	27.732048
_cell_length_b	27.732064
_cell_length_c	22.610064
_cell_angle_alpha	89.999473
_cell_angle_beta	89.999096
_cell_angle_gamma	82.646040
loop_
_atom_site_label
_atom_site_type_symbol
_atom_site_fract_x
_atom_site_fract_y
_atom_site_fract_z
O1	O	0.057549	0.640925	-0.049085
O2	O	0.557549	1.140925	0.450915
O3	O	0.066286	0.500133	-0.049111
O4	O	0.566286	1.000133	0.450889
O5	O	-0.008479	0.574902	-0.049086
O6	O	0.491521	1.074902	0.450914
O7	O	0.132314	0.566156	-0.049110
O8	O	0.632314	1.066156	0.450890
O9	O	-0.008468	0.574889	0.049283
O10	O	0.491532	1.074889	0.549283
O11	O	0.066297	0.500120	0.049259
O12	O	0.566297	1.000120	0.549259
O13	O	0.057560	0.640912	0.049284
O14	O	0.557560	1.140912	0.549284
Zn15	Zn	0.061930	0.570514	0.064889
Zn16	Zn	0.561930	1.070514	0.564889
Zn17	Zn	0.061915	0.570531	-0.064716
Zn18	Zn	0.561915	1.070531	0.435284
O19	O	0.132325	0.566143	0.049259
O20	O	0.632325	1.066143	0.549259
C21	C	0.066106	0.482120	0.000071
C22	C	0.566106	0.982120	0.500071
C23	C	0.065551	0.428465	0.000062
C24	C	0.565551	0.928465	0.500062
C25	C	0.017583	0.051392	0.000104
C26	C	0.517583	0.551392	0.500104
C27	C	0.019630	0.253053	0.000088
C28	C	0.519630	0.753053	0.500088
O29	O	-0.017591	0.284305	0.000116
O30	O	0.482409	0.784305	0.500116
N31	N	0.063964	0.272180	0.000078
N32	N	0.563964	0.772180	0.500078
C33	C	0.107790	0.240889	0.000075
C34	C	0.607790	0.740889	0.500075
O35	O	0.145546	0.261785	0.000072
O36	O	0.645546	0.761785	0.500072
C37	C	0.105743	0.039230	0.000095
C38	C	0.605743	0.539230	0.500095
C39	C	0.061406	0.020105	0.000100
C40	C	0.561406	0.520105	0.500100
C41	C	-0.026750	0.032267	0.000109
C42	C	0.473250	0.532267	0.500109
C43	C	-0.027261	-0.018145	0.000109
C44	C	0.472739	0.481855	0.500109
C45	C	0.016561	-0.049432	0.000105
C46	C	0.516561	0.450568	0.500105
C47	C	0.060895	-0.030307	0.000100
C48	C	0.560895	0.469693	0.500100
C49	C	0.149568	0.007940	0.000097
C50	C	0.649568	0.507940	0.500097
C51	C	0.149053	-0.042478	0.000104
C52	C	0.649053	0.457522	0.500104
C53	C	0.104716	-0.061602	0.000108
C54	C	0.604716	0.438398	0.500108
C55	C	0.104206	-0.112006	0.000097
C56	C	0.604206	0.387994	0.500097
N57	N	0.059872	-0.131134	0.000107
N58	N	0.559872	0.368866	0.500107
C59	C	0.016049	-0.099846	0.000111
C60	C	0.516049	0.400154	0.500111
C61	C	0.108861	0.346763	0.000064
C62	C	0.608861	0.846763	0.500064
C63	C	0.109373	0.397178	0.000058
C64	C	0.609373	0.897178	0.500058
C65	C	0.021213	0.409338	0.000071
C66	C	0.521213	0.909338	0.500071
C67	C	0.020701	0.358923	0.000073
C68	C	0.520701	0.858923	0.500073
C69	C	0.064527	0.327636	0.000074
C70	C	0.564527	0.827636	0.500074
C71	C	0.014979	-0.205716	0.000112
C72	C	0.514979	0.294284	0.500112
C73	C	0.014472	-0.256133	0.000110
C74	C	0.514472	0.243867	0.500110
C75	C	0.102632	-0.268289	0.000100
C76	C	0.602632	0.231711	0.500100
C77	C	0.103140	-0.217876	0.000098
C78	C	0.603140	0.282124	0.500098
C79	C	0.059309	-0.186590	0.000107
C80	C	0.559309	0.313410	0.500107
O81	O	0.141407	-0.143287	0.000075
O82	O	0.641407	0.356713	0.500075
O83	O	-0.021701	-0.120752	0.000127
O84	O	0.478299	0.379248	0.500127
C85	C	0.018094	0.101804	0.000103
C86	C	0.518094	0.601804	0.500103
C87	C	0.062428	0.120930	0.000098
C88	C	0.562428	0.620930	0.500098
C89	C	0.106250	0.089642	0.000094
C90	C	0.606250	0.589642	0.500094
C91	C	0.062940	0.171344	0.000092
C92	C	0.562940	0.671344	0.500092
C93	C	0.019117	0.202631	0.000096
C94	C	0.519117	0.702631	0.500096
C95	C	-0.025217	0.183504	0.000106
C96	C	0.474783	0.683504	0.500106
C97	C	-0.025728	0.133092	0.000107
C98	C	0.474272	0.633092	0.500107
C99	C	0.150585	0.108770	0.000084
C100	C	0.650585	0.608770	0.500084
C101	C	0.151092	0.159183	0.000082
C102	C	0.651092	0.659183	0.500082
C103	C	0.107270	0.190470	0.000087
C104	C	0.607270	0.690470	0.500087
C105	C	-0.026481	0.574712	0.000100
C106	C	0.473519	1.074712	0.500100
C107	C	-0.080136	0.574159	0.000105
C108	C	0.419864	1.074159	0.500105
C109	C	-0.418948	0.614862	0.000082
C110	C	0.081052	1.114862	0.500082
C111	C	-0.620608	0.612811	0.000073
C112	C	-0.120608	1.112811	0.500073
O113	O	-0.651862	0.650032	0.000054
O114	O	-0.151862	1.150032	0.500054
N115	N	-0.639735	0.568476	0.000066
N116	N	-0.139735	1.068476	0.500066
C117	C	-0.608442	0.524651	0.000057
C118	C	-0.108442	1.024651	0.500057
O119	O	-0.629338	0.486895	0.000044
O120	O	-0.129338	0.986895	0.500044
C121	C	-0.406784	0.526703	0.000061
C122	C	0.093216	1.026703	0.500061
C123	C	-0.387660	0.571040	0.000075
C124	C	0.112340	1.071040	0.500075
C125	C	-0.399824	0.659196	0.000095
C126	C	0.100176	1.159196	0.500095
C127	C	-0.349412	0.659709	0.000100
C128	C	0.150588	1.159709	0.500100
C129	C	-0.318124	0.615887	0.000093
C130	C	0.181876	1.115887	0.500093
C131	C	-0.337248	0.571553	0.000080
C132	C	0.162752	1.071553	0.500080
C133	C	-0.375493	0.482878	0.000048
C134	C	0.124507	0.982878	0.500048
C135	C	-0.325075	0.483395	0.000047
C136	C	0.174925	0.983395	0.500047
C137	C	-0.305952	0.527733	0.000061
C138	C	0.194048	1.027733	0.500061
C139	C	-0.255548	0.528243	0.000078
C140	C	0.244452	1.028243	0.500078
N141	N	-0.236422	0.572578	0.000085
N142	N	0.263578	1.072578	0.500085
C143	C	-0.267710	0.616400	0.000093
C144	C	0.232290	1.116400	0.500093
C145	C	-0.714317	0.523577	0.000056
C146	C	-0.214317	1.023577	0.500056
C147	C	-0.764731	0.523064	0.000056
C148	C	-0.264731	1.023064	0.500056
C149	C	-0.776893	0.611225	0.000071
C150	C	-0.276893	1.111225	0.500071
C151	C	-0.726478	0.611737	0.000075
C152	C	-0.226478	1.111737	0.500075
C153	C	-0.695190	0.567912	0.000063
C154	C	-0.195190	1.067912	0.500063
C155	C	-0.161841	0.617472	0.000105
C156	C	0.338159	1.117472	0.500105
C157	C	-0.111424	0.617981	0.000112
C158	C	0.388576	1.117981	0.500112
C159	C	-0.099266	0.529821	0.000094
C160	C	0.400734	1.029821	0.500094
C161	C	-0.149679	0.529312	0.000089
C162	C	0.350321	1.029312	0.500089
C163	C	-0.180965	0.573142	0.000093
C164	C	0.319035	1.073142	0.500093
O165	O	-0.224267	0.491043	0.000091
O166	O	0.275733	0.991043	0.500091
O167	O	-0.246805	0.654151	0.000092
O168	O	0.253195	1.154151	0.500092
C169	C	-0.469360	0.614350	0.000077
C170	C	0.030640	1.114350	0.500077
C171	C	-0.488484	0.570016	0.000064
C172	C	0.011516	1.070016	0.500064
C173	C	-0.457196	0.526194	0.000057
C174	C	0.042804	1.026194	0.500057
C175	C	-0.538899	0.569503	0.000064
C176	C	-0.038899	1.069503	0.500064
C177	C	-0.570187	0.613325	0.000071
C178	C	-0.070187	1.113325	0.500071
C179	C	-0.551060	0.657660	0.000079
C180	C	-0.051060	1.157660	0.500079
C181	C	-0.500648	0.658172	0.000084
C182	C	-0.000648	1.158172	0.500084
C183	C	-0.476323	0.481859	0.000049
C184	C	0.023677	0.981859	0.500049
C185	C	-0.526735	0.481351	0.000044
C186	C	-0.026735	0.981351	0.500044
C187	C	-0.558023	0.525172	0.000052
C188	C	-0.058023	1.025172	0.500052
C189	C	0.150326	0.566333	0.000072
C190	C	0.650326	1.066333	0.500072
C191	C	0.203981	0.566886	0.000063
C192	C	0.703981	1.066886	0.500063
C193	C	0.057739	0.658925	0.000101
C194	C	0.557739	1.158925	0.500101
C195	C	0.058295	0.712580	0.000106
C196	C	0.558295	1.212580	0.500106
N197	N	0.061939	0.570505	0.153342
N198	N	0.561939	1.070505	0.653342
N199	N	0.061902	0.570543	-0.153169
N200	N	0.561902	1.070543	0.346831
C201	C	0.028814	0.603640	0.561994
C202	C	0.528814	1.103640	1.061994
C203	C	0.028811	0.603643	0.623914
C204	C	0.528811	1.103643	1.123914
O205	O	0.000654	0.631795	0.655942
O206	O	0.500654	1.131795	1.155942
N207	N	0.061905	0.570531	0.654879
N208	N	0.561905	1.070531	1.154879
C209	C	0.095002	0.537411	0.623921
C210	C	0.595002	1.037411	1.123921
O211	O	0.123151	0.509247	0.655945
O212	O	0.623151	1.009247	1.155945
C213	C	0.095003	0.537407	0.562002
C214	C	0.595003	1.037407	1.062002
C215	C	0.061910	0.570524	0.531040
C216	C	0.561910	1.070524	1.031040
C217	C	-0.004277	0.636755	0.531032
C218	C	0.495723	1.136755	1.031032
C219	C	-0.004272	0.636753	0.469117
C220	C	0.495728	1.136753	0.969117
C221	C	0.028823	0.603636	0.438163
C222	C	0.528823	1.103636	0.938163
C223	C	0.061914	0.570522	0.469125
C224	C	0.561914	1.070522	0.969125
C225	C	0.128097	0.504285	0.531045
C226	C	0.628097	1.004285	1.031045
C227	C	0.128095	0.504283	0.469122
C228	C	0.628095	1.004283	0.969122
C229	C	0.095002	0.537400	0.438160
C230	C	0.595002	1.037400	0.938160
C231	C	0.095013	0.537404	0.376255
C232	C	0.595013	1.037404	0.876255
N233	N	0.061919	0.570516	0.345290
N234	N	0.561919	1.070516	0.845290
C235	C	0.028824	0.603632	0.376244
C236	C	0.528824	1.103632	0.876244
C237	C	0.094997	0.537422	0.753954
C238	C	0.594997	1.037422	1.253954
C239	C	0.094999	0.537429	0.815872
C240	C	0.594999	1.037429	1.315872
C241	C	0.028807	0.603660	0.815861
C242	C	0.528807	1.103660	1.315861
C243	C	0.028808	0.603655	0.753942
C244	C	0.528808	1.103655	1.253942
C245	C	0.061903	0.570534	0.722990
C246	C	0.561903	1.070534	1.222990
C247	C	0.028836	0.603625	0.246217
C248	C	0.528836	1.103625	0.746217
C249	C	0.028844	0.603622	0.184296
C250	C	0.528844	1.103622	0.684296
C251	C	0.095034	0.537389	0.184312
C252	C	0.595034	1.037389	0.684312
C253	C	0.095027	0.537394	0.246228
C254	C	0.595027	1.037394	0.746228
C255	C	0.061924	0.570514	0.277179
C256	C	0.561924	1.070514	0.777179
O257	O	0.123154	0.509265	0.344188
O258	O	0.623154	1.009265	0.844188
O259	O	0.000676	0.631787	0.344213
O260	O	0.500676	1.131787	0.844213
H261	H	-0.061832	0.117526	0.000111
H262	H	0.438168	0.617526	0.500111
H263	H	-0.060899	0.208987	0.000106
H264	H	0.439101	0.708987	0.500106
N265	N	-0.480025	0.705993	0.000092
N266	N	0.019975	1.205993	0.500092
H267	H	-0.459381	0.708170	0.036559
H268	H	0.040619	1.208170	0.536559
H269	H	-0.507527	0.733644	0.000072
H270	H	-0.007527	1.233644	0.500072
H271	H	-0.710911	0.647841	0.000086
H272	H	-0.210911	1.147841	0.500086
N273	N	-0.006862	0.639352	0.279594
N274	N	0.493138	1.139352	0.779594
H275	H	-0.028147	0.621051	0.305285
H276	H	0.471853	1.121051	0.805285
H277	H	-0.027787	0.660319	0.250540
H278	H	0.472213	1.160319	0.750540
N279	N	0.150959	-0.197245	0.000085
N280	N	0.650959	0.302755	0.500085
H281	H	0.178642	-0.224717	0.000081
H282	H	0.678642	0.275283	0.500081
H283	H	0.153094	-0.176596	0.036554
H284	H	0.653094	0.323404	0.536554
H285	H	-0.021634	-0.271701	0.000112
H286	H	0.478366	0.228299	0.500112
N287	N	0.198917	0.179805	0.000083
N288	N	0.698917	0.679805	0.500083
H289	H	0.192597	0.216490	0.000085
H290	H	0.692597	0.716490	0.500085
H291	H	0.218077	0.168336	-0.036384
H292	H	0.718077	0.668336	0.463616
N293	N	-0.328790	0.707530	0.000112
N294	N	0.171210	1.207530	0.500112
H295	H	-0.356267	0.735209	0.000115
H296	H	0.143733	1.235209	0.500115
H297	H	-0.308138	0.709670	-0.036354
H298	H	0.191862	1.209670	0.463646
H299	H	-0.031221	0.663718	0.443911
H300	H	0.468779	1.163718	0.943911
H301	H	-0.014469	0.434821	0.000073
H302	H	0.485531	0.934821	0.500073
N303	N	-0.433569	0.706464	0.000107
N304	N	0.066431	1.206464	0.500107
H305	H	-0.427452	0.725832	-0.036352
H306	H	0.072548	1.225832	0.463648
H307	H	-0.427431	0.725775	0.036603
H308	H	0.072569	1.225775	0.536603
H309	H	0.186271	0.083300	0.000081
H310	H	0.686271	0.583300	0.500081
N311	N	-0.785354	0.475243	0.000057
N312	N	-0.285354	0.975243	0.500057
H313	H	-0.757879	0.447563	0.000053
H314	H	-0.257879	0.947563	0.500053
H315	H	-0.806007	0.473110	-0.036409
H316	H	-0.306007	0.973110	0.463591
N317	N	-0.680574	0.476306	0.000044
N318	N	-0.180574	0.976306	0.500044
H319	H	-0.700345	0.448146	0.000041
H320	H	-0.200345	0.948146	0.500041
H321	H	-0.659392	0.474592	0.036511
H322	H	-0.159392	0.974592	0.536511
H323	H	0.184742	-0.067950	0.000107
H324	H	0.684742	0.432050	0.500107
N325	N	-0.006887	0.639383	0.849252
N326	N	0.493113	1.139383	1.349252
H327	H	-0.041159	0.634079	0.838480
H328	H	0.458841	1.134079	1.338480
H329	H	-0.001506	0.673628	0.838458
H330	H	0.498494	1.173628	1.338458
N331	N	-0.090798	0.665804	0.000130
N332	N	0.409202	1.165804	0.500130
H333	H	-0.118272	0.693486	0.000132
H334	H	0.381728	1.193486	0.500132
H335	H	-0.070143	0.667944	-0.036333
H336	H	0.429857	1.167944	0.463667
H337	H	0.138311	-0.293772	0.000093
H338	H	0.638311	0.206228	0.500093
N339	N	-0.006896	0.639370	0.720559
N340	N	0.493104	1.139370	1.220559
H341	H	-0.028175	0.621056	0.694877
H342	H	0.471825	1.121056	1.194877
H343	H	0.011456	0.660628	0.694897
H344	H	0.511456	1.160628	1.194897
H345	H	-0.299603	0.447706	0.000037
H346	H	0.200397	0.947706	0.500037
N347	N	0.130693	0.501710	0.849263
N348	N	0.630693	1.001710	1.349263
H349	H	0.151972	0.520016	0.874954
H350	H	0.651972	1.020016	1.374954
H351	H	0.151623	0.480741	0.820215
H352	H	0.651623	0.980741	1.320215
H353	H	-0.062438	0.057737	0.000114
H354	H	0.437562	0.557737	0.500114
H355	H	0.155044	0.477310	0.443923
H356	H	0.655044	0.977310	0.943923
H357	H	0.001895	0.630592	0.159089
H358	H	0.501895	1.130592	0.659089
N359	N	-0.027121	0.338303	0.000087
N360	N	0.472879	0.838303	0.500087
H361	H	-0.029297	0.317661	0.036557
H362	H	0.470703	0.817661	0.536557
H363	H	-0.029279	0.317678	-0.036398
H364	H	0.470721	0.817678	0.463602
N365	N	0.130696	0.501698	0.720572
N366	N	0.630696	1.001698	1.220572
H367	H	0.151659	0.480725	0.749588
H368	H	0.651659	0.980725	1.249588
H369	H	0.151943	0.520038	0.694879
H370	H	0.651943	1.020038	1.194879
H371	H	-0.802377	0.646906	0.000077
H372	H	-0.302377	1.146906	0.500077
N373	N	0.163783	0.468558	0.564429
N374	N	0.663783	0.968558	1.064429
H375	H	0.184741	0.447577	0.535416
H376	H	0.684741	0.947577	1.035416
H377	H	0.145413	0.447332	0.590114
H378	H	0.645413	0.947332	1.090114
H379	H	-0.165249	0.493209	0.000095
H380	H	0.334751	0.993209	0.500095
N381	N	0.130723	0.501683	0.279632
N382	N	0.630723	1.001683	0.779632
H383	H	0.164994	0.506993	0.268861
H384	H	0.664994	1.006993	0.768861
H385	H	0.125350	0.467435	0.268845
H386	H	0.625350	0.967435	0.768845
N387	N	-0.396115	0.435059	0.000026
N388	N	0.103885	0.935059	0.500026
H389	H	-0.416762	0.432869	0.036488
H390	H	0.083238	0.932869	0.536488
H391	H	-0.368615	0.407405	-0.000006
H392	H	0.131385	0.907405	0.499994
H393	H	-0.073782	0.494142	0.000090
H394	H	0.426218	0.994142	0.500090
N395	N	-0.584812	0.704925	0.000092
N396	N	-0.084812	1.204925	0.500092
H397	H	-0.619649	0.697868	0.000088
H398	H	-0.119649	1.197868	0.500088
H399	H	-0.578658	0.724270	-0.036371
H400	H	-0.078658	1.224270	0.463629
H401	H	-0.187309	0.653163	0.000105
H402	H	0.312691	1.153163	0.500105
N403	N	0.130728	0.501672	0.150920
N404	N	0.630728	1.001672	0.650920
H405	H	0.125705	0.506697	0.106998
H406	H	0.625705	1.006697	0.606998
H407	H	0.125374	0.467426	0.161745
H408	H	0.625374	0.967426	0.661745
H409	H	-0.450852	0.446173	0.000042
H410	H	0.049148	0.946173	0.500042
N411	N	-0.032293	-0.171977	0.000123
N412	N	0.467707	0.328023	0.500123
H413	H	-0.060452	-0.191749	0.000126
H414	H	0.439548	0.308251	0.500126
H415	H	-0.034007	-0.150794	-0.036344
H416	H	0.465993	0.349206	0.463656
H417	H	-0.063365	-0.033711	0.000115
H418	H	0.436635	0.466289	0.500115
H419	H	-0.542300	0.445243	0.000039
H420	H	-0.042300	0.945243	0.500039
H421	H	-0.031229	0.663722	0.556230
H422	H	0.468771	1.163722	1.056230
N423	N	0.157193	0.417803	0.000038
N424	N	0.657193	0.917803	0.500038
H425	H	0.184874	0.390328	0.000036
H426	H	0.684874	0.890328	0.500036
H427	H	0.159333	0.438457	0.036501
H428	H	0.659333	0.938457	0.536501
H429	H	0.144551	0.321293	0.000063
H430	H	0.644551	0.821293	0.500063
H431	H	0.185672	0.023501	0.000091
H432	H	0.685672	0.523501	0.500091
