data_functionalizedCrystal
_audit_creation_method	'MofGen! by Chris Wilmer'
_symmetry_space_group_name_H-M	'P1'
_symmetry_Int_Tables_number	1
_symmetry_cell_setting	triclinic
loop_
_symmetry_equiv_pos_as_xyz
  x,y,z
_cell_length_a	14.044220
_cell_length_b	14.044220
_cell_length_c	12.503572
_cell_angle_alpha	86.164750
_cell_angle_beta	86.156832
_cell_angle_gamma	86.811122
loop_
_atom_site_label
_atom_site_type_symbol
_atom_site_fract_x
_atom_site_fract_y
_atom_site_fract_z
O1	O	0.225116	-1.282200	0.089210
O2	O	0.475116	-1.032200	0.339210
O3	O	0.725116	-0.782200	0.589210
O4	O	0.975116	-0.532200	0.839210
O5	O	0.216809	-1.005530	0.089237
O6	O	0.466809	-0.755530	0.339237
O7	O	0.716809	-0.505530	0.589237
O8	O	0.966809	-0.255530	0.839237
O9	O	0.082627	-1.139712	0.089213
O10	O	0.332627	-0.889712	0.339213
O11	O	0.582627	-0.639712	0.589213
O12	O	0.832627	-0.389712	0.839213
O13	O	0.359298	-1.148019	0.089234
O14	O	0.609298	-0.898019	0.339234
O15	O	0.859298	-0.648019	0.589234
O16	O	1.109298	-0.398019	0.839234
O17	O	0.092737	-1.129622	-0.089427
O18	O	0.342737	-0.879622	0.160573
O19	O	0.592737	-0.629622	0.410573
O20	O	0.842737	-0.379622	0.660573
O21	O	0.226918	-0.995440	-0.089403
O22	O	0.476918	-0.745440	0.160597
O23	O	0.726918	-0.495440	0.410597
O24	O	0.976918	-0.245440	0.660597
O25	O	0.235226	-1.272110	-0.089430
O26	O	0.485226	-1.022110	0.160570
O27	O	0.735226	-0.772110	0.410570
O28	O	0.985226	-0.522110	0.660570
Cu29	Cu	0.231995	-1.132854	-0.105728
Cu30	Cu	0.481995	-0.882854	0.144272
Cu31	Cu	0.731995	-0.632854	0.394272
Cu32	Cu	0.981995	-0.382854	0.644272
Cu33	Cu	0.220040	-1.144786	0.105535
Cu34	Cu	0.470040	-0.894786	0.355535
Cu35	Cu	0.720040	-0.644786	0.605535
Cu36	Cu	0.970040	-0.394786	0.855535
O37	O	0.369407	-1.137929	-0.089406
O38	O	0.619407	-0.887929	0.160594
O39	O	0.869407	-0.637929	0.410594
O40	O	1.119407	-0.387929	0.660594
C41	C	0.052060	-1.131031	-0.000107
C42	C	0.302060	-0.881031	0.249893
C43	C	0.552060	-0.631031	0.499893
C44	C	0.802060	-0.381031	0.749893
C45	C	-0.054082	-1.120187	-0.000107
C46	C	0.195918	-0.870187	0.249893
C47	C	0.445918	-0.620187	0.499893
C48	C	0.695918	-0.370187	0.749893
C49	C	0.218228	-0.964864	-0.000080
C50	C	0.468228	-0.714864	0.249920
C51	C	0.718228	-0.464864	0.499920
C52	C	0.968228	-0.214864	0.749920
C53	C	0.207383	-0.858721	-0.000070
C54	C	0.457383	-0.608721	0.249930
C55	C	0.707383	-0.358721	0.499930
C56	C	0.957383	-0.108721	0.749930
C57	C	0.233807	-1.312777	-0.000111
C58	C	0.483807	-1.062777	0.249889
C59	C	0.733807	-0.812777	0.499889
C60	C	0.983807	-0.562777	0.749889
C61	C	0.244651	-1.418920	-0.000114
C62	C	0.494651	-1.168920	0.249886
C63	C	0.744651	-0.918920	0.499886
C64	C	0.994651	-0.668920	0.749886
C65	C	-0.248421	-1.100361	-0.000090
C66	C	0.001579	-0.850361	0.249910
C67	C	0.251579	-0.600361	0.499910
C68	C	0.501579	-0.350361	0.749910
C69	C	-0.299551	-1.177275	-0.000094
C70	C	-0.049551	-0.927275	0.249906
C71	C	0.200449	-0.677275	0.499906
C72	C	0.450449	-0.427275	0.749906
C73	C	-0.407687	-1.166244	-0.000084
C74	C	-0.157687	-0.916244	0.249916
C75	C	0.092313	-0.666244	0.499916
C76	C	0.342313	-0.416244	0.749916
C77	C	-0.140274	-1.111391	-0.000099
C78	C	0.109726	-0.861391	0.249901
C79	C	0.359726	-0.611391	0.499901
C80	C	0.609726	-0.361391	0.749901
C81	C	0.399974	-1.146609	-0.000084
C82	C	0.649974	-0.896609	0.249916
C83	C	0.899974	-0.646609	0.499916
C84	C	1.149974	-0.396609	0.749916
C85	C	0.506117	-1.157454	-0.000077
C86	C	0.756117	-0.907454	0.249923
C87	C	1.006117	-0.657454	0.499923
C88	C	1.256117	-0.407454	0.749923
N89	N	0.240404	-1.124469	-0.254319
N90	N	0.490404	-0.874469	-0.004319
N91	N	0.740404	-0.624469	0.245681
N92	N	0.990404	-0.374469	0.495681
C93	C	0.187558	-0.664382	-0.000092
C94	C	0.437558	-0.414382	0.249908
C95	C	0.687558	-0.164382	0.499908
C96	C	0.937558	0.085618	0.749908
C97	C	0.264472	-0.613253	-0.000091
C98	C	0.514472	-0.363253	0.249909
C99	C	0.764472	-0.113253	0.499909
C100	C	1.014472	0.136747	0.749909
C101	C	0.253441	-0.505116	-0.000104
C102	C	0.503441	-0.255116	0.249896
C103	C	0.753441	-0.005116	0.499896
C104	C	1.003441	0.244884	0.749896
C105	C	0.198587	-0.772529	-0.000080
C106	C	0.448587	-0.522529	0.249920
C107	C	0.698587	-0.272529	0.499920
C108	C	0.948587	-0.022529	0.749920
C109	C	0.252782	-1.112134	-0.473432
C110	C	0.502782	-0.862134	-0.223432
C111	C	0.752782	-0.612134	0.026568
C112	C	1.002782	-0.362134	0.276568
C113	C	0.199249	-1.165511	-0.526768
C114	C	0.449249	-0.915511	-0.276768
C115	C	0.699249	-0.665511	-0.026768
C116	C	0.949249	-0.415511	0.223232
C117	C	0.206136	-1.158648	-0.648690
C118	C	0.456136	-0.908648	-0.398690
C119	C	0.706136	-0.658648	-0.148690
C120	C	0.956136	-0.408648	0.101310
C121	C	0.245896	-1.118996	-0.351499
C122	C	0.495896	-0.868996	-0.101499
C123	C	0.745896	-0.618996	0.148501
C124	C	0.995896	-0.368996	0.398501
N125	N	0.211624	-1.153179	0.254126
N126	N	0.461624	-0.903179	0.504126
N127	N	0.711624	-0.653179	0.754126
N128	N	0.961624	-0.403179	1.004126
H129	H	-0.262115	-1.251413	-0.000029
H130	H	-0.012115	-1.001413	0.249971
H131	H	0.237885	-0.751413	0.499971
H132	H	0.487885	-0.501413	0.749971
F133	F	0.132893	-1.232289	-0.466773
F134	F	0.382893	-0.982289	-0.216773
F135	F	0.632893	-0.732289	0.033227
F136	F	0.882893	-0.482289	0.283227
H137	H	-0.285859	-1.026234	-0.000080
H138	H	-0.035859	-0.776234	0.249920
H139	H	0.214141	-0.526234	0.499920
H140	H	0.464141	-0.276234	0.749920
F141	F	0.090667	-0.615449	-0.000103
F142	F	0.340667	-0.365449	0.249897
F143	F	0.590667	-0.115449	0.499897
F144	F	0.840667	0.134551	0.749897
F145	F	0.361370	-0.662186	-0.000079
F146	F	0.611370	-0.412186	0.249921
F147	F	0.861370	-0.162186	0.499921
F148	F	1.111370	0.087814	0.749921
F149	F	0.319446	-1.045671	-0.533425
F150	F	0.569446	-0.795671	-0.283425
F151	F	0.819446	-0.545671	-0.033425
F152	F	1.069446	-0.295671	0.216575
