data_functionalizedCrystal
_audit_creation_method	'MofGen! by Chris Wilmer'
_symmetry_space_group_name_H-M	'P1'
_symmetry_Int_Tables_number	1
_symmetry_cell_setting	triclinic
loop_
_symmetry_equiv_pos_as_xyz
  x,y,z
_cell_length_a	9.065218
_cell_length_b	11.295501
_cell_length_c	9.065218
_cell_angle_alpha	85.458250
_cell_angle_beta	94.984115
_cell_angle_gamma	94.543838
loop_
_atom_site_label
_atom_site_type_symbol
_atom_site_fract_x
_atom_site_fract_y
_atom_site_fract_z
O1	O	1.969386	0.099023	-0.225340
O2	O	2.469386	0.599023	0.274660
O3	O	1.540101	0.099024	-0.243087
O4	O	2.040101	0.599024	0.256913
O5	O	1.763617	0.099021	-0.019571
O6	O	2.263617	0.599021	0.480429
O7	O	1.745871	0.099026	-0.448856
O8	O	2.245871	0.599026	0.051144
O9	O	1.745628	-0.099030	-0.001596
O10	O	2.245628	0.400970	0.498404
O11	O	1.522112	-0.099026	-0.225112
O12	O	2.022112	0.400974	0.274888
O13	O	1.951397	-0.099028	-0.207366
O14	O	2.451397	0.400972	0.292634
Cu15	Cu	1.735112	-0.117111	-0.214598
Cu16	Cu	2.235112	0.382889	0.285402
Cu17	Cu	1.756386	0.117107	-0.235855
Cu18	Cu	2.256386	0.617107	0.264145
O19	O	1.727882	-0.099025	-0.430882
O20	O	2.227882	0.400975	0.069118
C21	C	1.476120	-0.000001	-0.232394
C22	C	1.976120	0.499999	0.267606
C23	C	1.312277	-0.000000	-0.227294
C24	C	1.812277	0.500000	0.272706
N25	N	1.720160	-0.281847	-0.199646
N26	N	2.220160	0.218153	0.300354
C27	C	1.878972	-0.531136	-0.358500
C28	C	2.378972	-0.031136	0.141500
C29	C	1.867683	-0.655800	-0.347188
C30	C	2.367683	-0.155800	0.152812
C31	C	1.686303	-0.655840	-0.165705
C32	C	2.186303	-0.155840	0.334295
C33	C	1.697591	-0.531177	-0.177016
C34	C	2.197591	-0.031177	0.322984
C35	C	1.793927	-0.468829	-0.273418
C36	C	2.293927	0.031171	0.226582
C37	C	1.805207	-0.344163	-0.284737
C38	C	2.305207	0.155837	0.215263
C39	C	1.623835	-0.344206	-0.103246
C40	C	2.123835	0.155794	0.396754
C41	C	1.612547	-0.468869	-0.091935
C42	C	2.112547	0.031131	0.408065
C43	C	2.015378	0.000000	-0.218059
C44	C	2.515378	0.500000	0.281941
C45	C	2.179222	0.000007	-0.223159
C46	C	2.679222	0.500007	0.276841
C47	C	1.752917	-0.000002	0.044403
C48	C	2.252917	0.499998	0.544403
C49	C	1.747818	0.000003	0.208245
C50	C	2.247818	0.500003	0.708245
N51	N	1.771350	0.281844	-0.250795
N52	N	2.271350	0.781844	0.249205
C53	C	1.738582	0.000001	-0.494856
C54	C	2.238582	0.500001	0.005144
C55	C	1.743682	0.000004	-0.658699
C56	C	2.243682	0.500004	-0.158699
H57	H	1.957398	-0.480372	-0.437008
H58	H	2.457398	0.019628	0.062992
H59	H	1.607886	-0.706625	-0.087202
H60	H	2.107886	-0.206625	0.412798
O61	O	1.541121	-0.283559	-0.020825
O62	O	2.041121	0.216441	0.479175
C63	C	1.448141	-0.211507	-0.115968
C64	C	1.948141	0.288493	0.384032
H65	H	1.497241	-0.192809	-0.227773
H66	H	1.997241	0.307191	0.272227
H67	H	1.438804	-0.123852	-0.064385
H68	H	1.938804	0.376148	0.435615
H69	H	1.333196	-0.259595	-0.132681
H70	H	1.833196	0.240405	0.367319
H71	H	1.883642	-0.293401	-0.363238
H72	H	2.383642	0.206599	0.136762
H73	H	1.936937	-0.706526	-0.416469
H74	H	2.436937	-0.206526	0.083531
H75	H	1.534118	-0.519650	-0.013442
H76	H	2.034118	-0.019650	0.486558
