data_functionalizedCrystal
_audit_creation_method	'MofGen! by Chris Wilmer'
_symmetry_space_group_name_H-M	'P1'
_symmetry_Int_Tables_number	1
_symmetry_cell_setting	triclinic
loop_
_symmetry_equiv_pos_as_xyz
  x,y,z
_cell_length_a	14.971490
_cell_length_b	14.971486
_cell_length_c	14.048226
_cell_angle_alpha	90.002448
_cell_angle_beta	90.010471
_cell_angle_gamma	83.614888
loop_
_atom_site_label
_atom_site_type_symbol
_atom_site_fract_x
_atom_site_fract_y
_atom_site_fract_z
O1	O	-1.186948	-0.116575	-0.079213
O2	O	-0.926548	-0.130530	-0.079203
O3	O	-1.063727	0.006648	-0.079201
O4	O	-1.049769	-0.253752	-0.079214
O5	O	-1.063705	0.006644	0.079120
O6	O	-0.926526	-0.130533	0.079118
O7	O	-1.186926	-0.116578	0.079109
Zn8	Zn	-1.056722	-0.123556	0.104250
Zn9	Zn	-1.056751	-0.123552	-0.104345
O10	O	-1.049746	-0.253756	0.079107
C11	C	-0.893212	-0.129907	-0.000041
C12	C	-0.793915	-0.128035	-0.000038
C13	C	-0.366222	-0.119955	-0.086356
C14	C	-0.459522	-0.121711	-0.086354
C15	C	-0.506156	-0.122597	-0.000050
C16	C	-0.459485	-0.121718	0.086257
C17	C	-0.366188	-0.119955	0.086253
C18	C	-0.653947	-0.125394	0.086258
C19	C	-0.747251	-0.127158	0.086263
C20	C	-0.747282	-0.127150	-0.086348
C21	C	-0.653984	-0.125387	-0.086352
C22	C	-0.607320	-0.124510	-0.000045
C23	C	-1.063092	0.039971	-0.000041
C24	C	-1.061221	0.139268	-0.000042
C25	C	-0.220261	-0.117202	-0.000053
C26	C	-0.319558	-0.119078	-0.000056
C27	C	-1.050382	-0.287079	-0.000056
C28	C	-1.052252	-0.386376	-0.000061
N29	N	-1.056709	-0.123559	0.246611
C30	C	-1.141810	0.196492	-0.000044
C31	C	-1.140047	0.289791	-0.000053
C32	C	-1.057694	0.325865	-0.000054
C33	C	-0.977099	0.268633	-0.000055
C34	C	-0.978863	0.175336	-0.000052
C35	C	-0.973428	0.463096	-0.000058
C36	C	-0.971663	0.556400	-0.000059
C37	C	-1.134612	0.577552	-0.000060
C38	C	-1.136376	0.484254	-0.000057
C39	C	-1.055780	0.427029	-0.000056
N40	N	-1.056772	-0.123542	-0.246706
C41	C	-1.117523	-0.062825	0.703451
C42	C	-1.117515	-0.062831	0.603794
C43	C	-1.056751	-0.123551	0.553981
C44	C	-0.995996	-0.184275	0.603831
C45	C	-0.996009	-0.184272	0.703487
C46	C	-0.995972	-0.184274	0.396117
C47	C	-0.995957	-0.184276	0.296454
C48	C	-1.117478	-0.062833	0.296424
C49	C	-1.117491	-0.062831	0.396079
C50	C	-1.056735	-0.123554	0.445923
H51	H	-0.616016	-0.124672	-0.156628
F52	F	-0.893089	0.114433	-0.000052
H53	H	-1.167001	-0.013376	0.744002
F54	F	-0.509182	-0.122641	-0.178206
H55	H	-0.946541	-0.233716	0.744068
H56	H	-0.946524	-0.233719	0.563268
F57	F	-1.182157	0.001798	0.449094
F58	F	-0.796945	-0.128093	-0.178204
H59	H	-0.785217	-0.127884	0.156539
H60	H	-1.208872	0.167129	-0.000038
H61	H	-0.328194	-0.119250	0.156528
F62	F	-1.182174	0.001790	0.550747
F63	F	-0.889452	0.307028	-0.000066
F64	F	-1.225821	0.350690	-0.000054
F65	F	-1.224025	0.445864	-0.000059
F66	F	-0.604287	-0.124450	0.178117
F67	F	-0.509119	-0.122658	0.178108
F68	F	-1.182137	0.001793	0.243373
F69	F	-1.220389	0.638456	-0.000065
H70	H	-0.946478	-0.233722	0.255902
H71	H	-0.904604	0.585767	-0.000044
H72	H	-0.907798	0.416505	-0.000060
F73	F	-0.931310	-0.248907	0.449160
H74	H	-0.328258	-0.119240	-0.156635
