data_functionalizedCrystal
_audit_creation_method	'MofGen! by Chris Wilmer'
_symmetry_space_group_name_H-M	'P1'
_symmetry_Int_Tables_number	1
_symmetry_cell_setting	triclinic
loop_
_symmetry_equiv_pos_as_xyz
  x,y,z
_cell_length_a	14.971486
_cell_length_b	14.519731
_cell_length_c	13.448316
_cell_angle_alpha	89.992415
_cell_angle_beta	89.998199
_cell_angle_gamma	83.651491
loop_
_atom_site_label
_atom_site_type_symbol
_atom_site_fract_x
_atom_site_fract_y
_atom_site_fract_z
O1	O	1.187024	0.120183	-0.082580
O2	O	0.926633	0.134575	-0.082607
O3	O	1.063722	-0.006862	-0.082584
O4	O	1.049934	0.261620	-0.082603
O5	O	1.063705	-0.006871	0.082800
O6	O	0.926616	0.134566	0.082777
O7	O	1.187007	0.120174	0.082804
Cu8	Cu	1.056810	0.127369	0.097891
Cu9	Cu	1.056830	0.127380	-0.097694
O10	O	1.049917	0.261611	0.082781
C11	C	0.893299	0.133927	0.000081
C12	C	0.794001	0.131998	0.000071
C13	C	1.063068	-0.041226	0.000108
C14	C	1.061132	-0.143605	0.000109
C15	C	0.736828	0.215089	0.000067
C16	C	0.643528	0.213271	0.000082
C17	C	0.607401	0.128361	0.000094
C18	C	0.664581	0.045264	0.000102
C19	C	0.757880	0.047083	0.000094
C20	C	0.470116	0.041479	0.000116
C21	C	0.376811	0.039660	0.000122
C22	C	0.355764	0.207667	0.000103
C23	C	0.449063	0.209486	0.000096
C24	C	0.506236	0.126388	0.000101
C25	C	1.059559	-0.226748	0.000106
C26	C	1.057593	-0.331056	0.000099
C27	C	1.056033	-0.414194	0.000092
C28	C	1.054068	-0.518508	0.000086
C29	C	1.220340	0.120822	0.000113
C30	C	1.319639	0.122751	0.000117
C31	C	1.050572	0.295975	0.000086
C32	C	1.052508	0.398354	0.000079
N33	N	1.056802	0.127361	0.235456
N34	N	1.056845	0.127380	-0.235259
C35	C	1.117524	0.064759	0.287506
C36	C	1.117529	0.064758	0.391610
C37	C	1.056816	0.127365	0.443660
C38	C	0.996088	0.189971	0.391602
C39	C	0.996079	0.189966	0.287501
C40	C	0.996113	0.189977	0.608582
C41	C	0.996123	0.189983	0.712691
C42	C	1.117563	0.064769	0.712691
C43	C	1.117554	0.064764	0.608590
C44	C	1.056827	0.127371	0.556539
H45	H	0.766235	0.284232	0.000056
O46	O	0.484009	0.292045	0.000125
C47	C	0.453293	0.458493	0.000051
C48	C	0.413597	0.365060	0.000037
H49	H	0.396385	0.517550	-0.000042
H50	H	0.496418	0.463602	0.069276
H51	H	0.496476	0.463493	-0.069150
H52	H	0.370374	0.359997	0.069191
H53	H	0.370524	0.359992	-0.069234
H54	H	1.166995	0.013790	0.566210
H55	H	1.167010	0.013792	0.755077
O56	O	0.300142	0.288330	-0.000033
C57	C	0.182627	0.383810	-0.085751
C58	C	0.245555	0.292420	-0.085701
H59	H	0.138490	0.387155	-0.155017
H60	H	0.138362	0.387178	-0.016582
H61	H	0.224496	0.444791	-0.085721
H62	H	0.203757	0.231387	-0.085766
H63	H	0.289823	0.289132	-0.154864
H64	H	0.635160	-0.023870	0.000126
H65	H	0.946683	0.240963	0.755065
H66	H	0.946659	0.240955	0.566206
O67	O	0.937073	0.250660	0.442273
C68	C	0.814934	0.270084	0.559781
C69	C	0.881729	0.201250	0.502478
H70	H	0.770159	0.230163	0.608455
H71	H	0.853581	0.316211	0.608569
H72	H	0.771570	0.314846	0.504678
H73	H	0.925110	0.156426	0.557510
H74	H	0.843027	0.155186	0.453675
O75	O	0.525620	-0.039264	-0.000059
C76	C	0.572121	-0.182315	-0.085715
C77	C	0.509226	-0.090903	-0.085643
H78	H	0.558875	-0.224099	-0.154891
H79	H	0.645026	-0.166483	-0.085787
H80	H	0.558981	-0.224067	-0.016468
H81	H	0.522285	-0.049106	-0.154877
H82	H	0.436341	-0.106800	-0.085519
H83	H	0.946632	0.240943	0.245122
H84	H	0.596981	0.280932	0.000077
O85	O	0.341669	-0.042794	-0.000031
C86	C	0.248488	-0.142320	-0.085646
C87	C	0.288245	-0.048920	-0.085611
H88	H	0.205271	-0.147295	-0.154819
H89	H	0.305336	-0.201441	-0.085697
H90	H	0.205372	-0.147343	-0.016397
H91	H	0.331351	-0.043806	-0.154849
H92	H	0.231355	0.010157	-0.085509
O93	O	0.813384	-0.033655	-0.000083
C94	C	0.859888	-0.176713	-0.085723
C95	C	0.796994	-0.085300	-0.085663
H96	H	0.846645	-0.218503	-0.154896
H97	H	0.932793	-0.160882	-0.085792
H98	H	0.846743	-0.218459	-0.016474
H99	H	0.810058	-0.043509	-0.154900
H100	H	0.724109	-0.101196	-0.085542
O101	O	1.176535	0.003852	0.237103
C102	C	1.297020	-0.120309	0.248103
C103	C	1.230225	-0.051393	0.305304
H104	H	1.340458	-0.164980	0.303218
H105	H	1.258372	-0.166513	0.199407
H106	H	1.341723	-0.080401	0.199324
H107	H	1.185506	-0.091225	0.354137
H108	H	1.268928	-0.005190	0.353936
O109	O	1.176398	0.003856	0.442210
C110	C	1.195267	-0.122030	0.559798
C111	C	1.128495	-0.053122	0.502541
H112	H	1.156564	-0.168102	0.608605
H113	H	1.238647	-0.166836	0.504753
H114	H	1.240031	-0.082115	0.608477
H115	H	1.083673	-0.092962	0.453861
H116	H	1.085178	-0.008316	0.557640
