data_functionalizedCrystal
_audit_creation_method	'MofGen! by Chris Wilmer'
_symmetry_space_group_name_H-M	'P1'
_symmetry_Int_Tables_number	1
_symmetry_cell_setting	triclinic
loop_
_symmetry_equiv_pos_as_xyz
  x,y,z
_cell_length_a	15.995350
_cell_length_b	14.044220
_cell_length_c	12.503572
_cell_angle_alpha	86.156832
_cell_angle_beta	93.514695
_cell_angle_gamma	88.340626
loop_
_atom_site_label
_atom_site_type_symbol
_atom_site_fract_x
_atom_site_fract_y
_atom_site_fract_z
O1	O	-1.124525	-0.116702	-0.089231
O2	O	-0.881878	-0.131788	-0.089254
O3	O	-0.999559	0.013739	-0.089232
O4	O	-1.006844	-0.262229	-0.089253
O5	O	-0.990710	0.002777	0.089408
O6	O	-0.873029	-0.142751	0.089386
O7	O	-1.115676	-0.127664	0.089409
Cu8	Cu	-0.993545	-0.136208	0.105709
Cu9	Cu	-1.004010	-0.123244	-0.105554
O10	O	-0.997995	-0.273191	0.089387
C11	C	-0.846212	-0.136645	0.000064
C12	C	-0.753123	-0.134775	0.000055
C13	C	-0.991946	0.043572	0.000088
C14	C	-0.982435	0.148798	0.000088
C15	C	-1.151342	-0.122807	0.000089
C16	C	-1.244432	-0.124677	0.000090
C17	C	-0.414873	-0.128061	0.000078
C18	C	-0.454546	-0.024443	0.000484
C19	C	-0.551396	-0.026288	0.000074
C20	C	-0.582682	-0.131391	0.000067
C21	C	-0.550467	-0.176251	-0.101944
C22	C	-0.453640	-0.173643	-0.102022
C23	C	-0.443398	-0.188250	0.101125
C24	C	-0.540276	-0.188308	0.102466
C25	C	-0.677521	-0.133279	0.000058
C26	C	-0.320034	-0.126176	0.000081
C27	C	-1.005609	-0.303024	0.000065
C28	C	-1.015120	-0.408250	0.000057
N29	N	-0.986190	-0.145326	0.254300
C30	C	-0.965048	0.341460	0.000071
C31	C	-1.032504	0.399093	0.000074
C32	C	-1.022829	0.506297	0.000065
C33	C	-0.974721	0.234246	0.000081
N34	N	-1.011370	-0.114118	-0.254145
C35	C	-0.975372	-0.158747	0.473413
C36	C	-1.022186	-0.100701	0.526749
C37	C	-1.016166	-0.108168	0.648671
C38	C	-0.981391	-0.151281	0.351480
H39	H	-0.573201	0.009407	0.073201
O40	O	-0.411514	-0.153523	0.193491
C41	C	-0.441534	-0.086049	0.359682
C42	C	-0.477718	-0.125373	0.255116
H43	H	-0.495043	-0.063261	0.409525
H44	H	-0.400753	-0.143864	0.407579
H45	H	-0.402009	-0.021843	0.339314
H46	H	-0.517281	-0.189565	0.275388
H47	H	-0.518452	-0.067500	0.207248
H48	H	-0.436325	-0.131684	-0.178274
O49	O	-1.110133	0.362074	0.000050
C50	C	-1.258866	0.394652	0.000157
C51	C	-1.171007	0.436711	0.000152
H52	H	-1.308104	0.454974	0.000263
H53	H	-1.270527	0.353524	-0.074613
H54	H	-1.263002	0.344305	0.074908
H55	H	-1.166808	0.487098	-0.074549
H56	H	-1.159384	0.477781	0.074972
H57	H	-0.417310	-0.264707	0.101810
H58	H	-0.900036	0.372630	0.000063
H59	H	-0.427305	-0.249451	-0.106656
O60	O	-1.075214	-0.034634	0.471828
C61	C	-1.129342	0.033445	0.298467
C62	C	-1.069378	-0.041540	0.360535
H63	H	-1.124631	0.027901	0.208476
H64	H	-1.196380	0.020121	0.320258
H65	H	-1.111362	0.107882	0.320728
H66	H	-1.087282	-0.116006	0.338307
H67	H	-1.002356	-0.028132	0.338738
H68	H	-0.930777	-0.214048	0.519312
O69	O	-0.424401	0.019774	0.087637
C70	C	-0.349574	0.153104	0.152296
C71	C	-0.383699	0.103140	0.053502
H72	H	-0.316644	0.220504	0.124733
H73	H	-0.403643	0.172963	0.202719
H74	H	-0.303120	0.102785	0.202584
H75	H	-0.430141	0.153407	0.003132
H76	H	-0.329587	0.083264	0.003159
O77	O	-0.585224	0.027331	-0.087390
C78	C	-0.558928	0.126500	-0.245809
C79	C	-0.520508	0.065786	-0.146807
H80	H	-0.506624	0.157624	-0.293864
H81	H	-0.598891	0.079841	-0.298328
H82	H	-0.599723	0.187041	-0.218480
H83	H	-0.479674	0.005239	-0.174040
H84	H	-0.480594	0.112510	-0.094311
O85	O	-0.574568	-0.268033	-0.106540
C86	C	-0.689955	-0.374344	-0.116160
C87	C	-0.662774	-0.270358	-0.110988
H88	H	-0.761270	-0.376260	-0.119735
H89	H	-0.665866	-0.405271	-0.190916
H90	H	-0.662838	-0.418495	-0.041575
H91	H	-0.689881	-0.226130	-0.185519
H92	H	-0.686851	-0.239507	-0.036185
O93	O	-0.565090	-0.149476	0.192587
C94	C	-0.634099	-0.174399	0.357672
C95	C	-0.606020	-0.218500	0.255670
H96	H	-0.667213	-0.230178	0.408692
H97	H	-0.576971	-0.149448	0.405825
H98	H	-0.678956	-0.110889	0.333968
H99	H	-0.561182	-0.282041	0.279279
H100	H	-0.663189	-0.243385	0.207543
O101	O	-0.585592	-0.128475	-0.192623
C102	C	-0.595815	-0.115352	-0.386159
C103	C	-0.555987	-0.169556	-0.283557
H104	H	-0.571881	-0.148532	-0.459705
H105	H	-0.666900	-0.120076	-0.387508
H106	H	-0.578105	-0.037264	-0.387213
H107	H	-0.573631	-0.247664	-0.282435
H108	H	-0.484910	-0.164752	-0.282248
H109	H	-0.435475	0.021259	-0.072263
H110	H	-0.561060	-0.265331	0.108623
