data_functionalizedCrystal
_audit_creation_method	'MofGen! by Chris Wilmer'
_symmetry_space_group_name_H-M	'P1'
_symmetry_Int_Tables_number	1
_symmetry_cell_setting	triclinic
loop_
_symmetry_equiv_pos_as_xyz
  x,y,z
_cell_length_a	18.050590
_cell_length_b	13.897449
_cell_length_c	13.897441
_cell_angle_alpha	90.020733
_cell_angle_beta	89.977321
_cell_angle_gamma	89.990680
loop_
_atom_site_label
_atom_site_type_symbol
_atom_site_fract_x
_atom_site_fract_y
_atom_site_fract_z
Zn1	Zn	0.295610	1.474767	0.545434
Zn2	Zn	0.795610	1.974767	1.045434
Zn3	Zn	0.419815	1.474688	0.384158
Zn4	Zn	0.919815	1.974688	0.884158
Zn5	Zn	0.295646	1.313456	0.384153
Zn6	Zn	0.795646	1.813456	0.884153
Zn7	Zn	0.419766	1.313465	0.545411
Zn8	Zn	0.919766	1.813465	1.045411
O9	O	0.357709	1.394094	0.464789
O10	O	0.857709	1.894094	0.964789
O11	O	0.312092	1.609738	0.524053
O12	O	0.812092	2.109738	1.024053
O13	O	0.403379	1.453264	0.249176
O14	O	0.903379	1.953264	0.749176
O15	O	0.191716	1.334884	0.405555
O16	O	0.691716	1.834884	0.905555
O17	O	0.403344	1.609681	0.405564
O18	O	0.903344	2.109681	0.905564
O19	O	0.191690	1.453398	0.524048
O20	O	0.691690	1.953398	1.024048
O21	O	0.312152	1.334808	0.249172
O22	O	0.812152	1.834808	0.749172
O23	O	0.312105	1.178476	0.405532
O24	O	0.812105	1.678476	0.905532
O25	O	0.403261	1.334899	0.680395
O26	O	0.903261	1.834899	1.180395
O27	O	0.403295	1.178483	0.524007
O28	O	0.903295	1.678483	1.024007
O29	O	0.312045	1.453407	0.680413
O30	O	0.812045	1.953407	1.180413
O31	O	0.523733	1.453273	0.405541
O32	O	1.023733	1.953273	0.905541
O33	O	0.523697	1.334823	0.524012
O34	O	1.023697	1.834823	1.024012
C35	C	0.357699	1.143480	0.464767
C36	C	0.857699	1.643480	0.964767
C37	C	0.357713	1.036266	0.464780
C38	C	0.857713	1.536266	0.964780
C39	C	0.164004	1.394149	0.464803
C40	C	0.664004	1.894149	0.964803
C41	C	0.081458	1.394172	0.464809
C42	C	0.581458	1.894172	0.964809
C43	C	0.357715	0.839971	0.464806
C44	C	0.857715	1.339971	0.964806
C45	C	0.357712	0.949204	0.464789
C46	C	0.857712	1.449204	0.964789
C47	C	-0.118007	1.458617	0.529266
C48	C	0.381993	1.958617	1.029266
C49	C	-0.167376	1.482186	0.441268
C50	C	0.332624	1.982186	0.941268
C51	C	-0.069673	1.394163	0.464814
C52	C	0.430327	1.894163	0.964814
C53	C	-0.167385	1.370629	0.552815
C54	C	0.332615	1.870629	1.052815
C55	C	-0.215658	1.394155	0.464827
C56	C	0.284342	1.894155	0.964827
C57	C	-0.117955	1.417777	0.376770
C58	C	0.382045	1.917777	0.876770
C59	C	-0.117959	1.306180	0.488376
C60	C	0.382041	1.806180	0.988376
C61	C	-0.167306	1.329715	0.400318
C62	C	0.332694	1.829715	0.900318
C63	C	0.014426	1.394169	0.464808
C64	C	0.514426	1.894169	0.964808
C65	C	-0.299754	1.394148	0.464823
C66	C	0.200246	1.894148	0.964823
C67	C	0.550661	1.394066	0.464796
C68	C	1.050661	1.894066	0.964796
C69	C	0.633207	1.394142	0.464831
C70	C	1.133207	1.894142	0.964831
C71	C	0.357643	1.394163	0.716382
C72	C	0.857643	1.894163	1.216382
C73	C	0.357615	1.394192	0.823596
C74	C	0.857615	1.894192	1.323596
C75	C	0.357720	1.645687	0.464812
C76	C	0.857720	2.145687	0.964812
C77	C	0.357724	1.752901	0.464821
C78	C	0.857724	2.252901	0.964821
C79	C	0.357721	1.394082	0.214175
C80	C	0.857721	1.894082	0.714175
C81	C	0.357540	1.394239	0.106961
C82	C	0.857540	1.894239	0.606961
C83	C	0.357565	1.394218	1.019891
C84	C	0.857565	1.894218	1.519891
C85	C	0.357595	1.394201	0.910659
C86	C	0.857595	1.894201	1.410659
H87	H	-0.096361	1.513168	0.583698
H88	H	0.403639	2.013168	1.083698
H89	H	-0.096238	1.231798	0.508331
H90	H	0.403762	1.731798	1.008331
O91	O	-0.193375	1.346764	0.641515
O92	O	0.306625	1.846764	1.141515
C93	C	-0.236293	1.262267	0.634877
C94	C	0.263707	1.762267	1.134877
H95	H	-0.257567	1.253699	0.558127
H96	H	0.242433	1.753699	1.058127
H97	H	-0.285265	1.267361	0.686452
H98	H	0.214735	1.767361	1.186452
H99	H	-0.200755	1.197415	0.654683
H100	H	0.299245	1.697415	1.154683
O101	O	-0.193007	1.264574	0.335365
O102	O	0.306993	1.764574	0.835365
C103	C	-0.236004	1.194691	0.383207
C104	C	0.263996	1.694691	0.883207
H105	H	-0.219325	1.191818	0.462261
H106	H	0.280675	1.691818	0.962261
H107	H	-0.226311	1.121331	0.348696
H108	H	0.273689	1.621331	0.848696
H109	H	-0.297143	1.214416	0.377350
H110	H	0.202857	1.714416	0.877350
H111	H	-0.189082	1.556588	0.421338
H112	H	0.310918	2.056588	0.921338
H113	H	-0.096333	1.437770	0.302335
H114	H	0.403667	1.937770	0.802335
