data_functionalizedCrystal
_audit_creation_method	'MofGen! by Chris Wilmer'
_symmetry_space_group_name_H-M	'P1'
_symmetry_Int_Tables_number	1
_symmetry_cell_setting	triclinic
loop_
_symmetry_equiv_pos_as_xyz
  x,y,z
_cell_length_a	12.970454
_cell_length_b	12.970454
_cell_length_c	18.878441
_cell_angle_alpha	60.001581
_cell_angle_beta	89.998481
_cell_angle_gamma	59.999262
loop_
_atom_site_label
_atom_site_type_symbol
_atom_site_fract_x
_atom_site_fract_y
_atom_site_fract_z
Zr1	Zr	0.993229	1.128500	-0.092960
O2	O	0.828611	1.343582	-0.206059
O3	O	1.043693	0.913413	-0.058289
O4	O	1.043701	1.128492	-0.206063
O5	O	0.828598	1.128511	0.058281
O6	O	1.213368	1.128491	-0.206065
O7	O	0.828603	1.128503	-0.058286
O8	O	1.213355	0.743754	0.058275
O9	O	0.828611	1.513248	-0.206058
O10	O	1.191837	1.001882	-0.043503
O11	O	1.065212	1.001889	0.043491
O12	O	1.065221	1.255117	-0.130493
O13	O	0.938596	1.255123	-0.043499
Zr14	Zr	1.263821	1.128511	0.092949
Zr15	Zr	1.263829	1.128499	-0.092962
Zr16	Zr	0.993221	1.128512	0.092952
Zr17	Zr	0.993230	1.399098	-0.092958
Zr18	Zr	1.263820	0.857913	0.092947
O19	O	1.213357	1.343598	0.058279
O20	O	1.213369	1.343580	-0.206063
O21	O	0.828599	1.343600	0.058283
O22	O	1.428440	0.913428	0.206049
O23	O	1.428452	0.913411	-0.058293
O24	O	1.043681	0.913430	0.206053
O25	O	1.428452	1.128500	-0.058292
O26	O	1.213350	1.128518	0.206052
O27	O	1.043682	1.128519	0.206054
O28	O	1.428447	1.128508	0.058275
O29	O	1.043702	1.513247	-0.206061
O30	O	1.213348	0.743764	0.206050
O31	O	1.428439	0.743762	0.206048
O32	O	1.428446	0.743753	0.058273
O33	O	0.828605	1.513258	-0.058284
O34	O	1.043695	1.513257	-0.058286
O35	O	1.191829	1.001894	0.130482
O36	O	1.318454	1.001887	0.043488
O37	O	1.191838	1.255122	-0.043502
O38	O	1.065213	1.255128	0.043492
C39	C	1.128524	0.790029	-0.000007
C40	C	1.128524	0.675153	-0.000008
C41	C	0.790046	1.128507	-0.000002
C42	C	0.675169	1.128508	-0.000001
C43	C	1.467004	1.128504	-0.000009
C44	C	1.581881	1.128503	-0.000010
C45	C	1.128536	1.128490	-0.232552
C46	C	1.128539	1.128485	-0.311476
C47	C	1.128526	1.466982	-0.000003
C48	C	1.128527	1.581857	-0.000003
C49	C	1.062418	1.260709	-0.696860
C50	C	1.062417	1.260703	-0.622698
C51	C	1.128516	1.128511	-0.540212
C52	C	1.194611	0.996317	-0.531889
C53	C	1.194605	0.996326	-0.606049
C54	C	1.194623	0.996310	-0.377317
C55	C	1.194632	0.996301	-0.303151
C56	C	1.062435	1.260687	-0.393966
C57	C	1.062429	1.260695	-0.468127
C58	C	1.128526	1.128501	-0.459798
C59	C	1.128515	1.128521	0.232541
C60	C	1.128511	1.128526	0.311466
C61	C	1.467003	0.790027	-0.000011
C62	C	1.581880	0.675151	-0.000013
C63	C	1.128513	0.790044	0.232539
C64	C	1.128509	0.675174	0.311463
C65	C	1.466993	0.790043	0.232536
C66	C	1.581866	0.675171	0.311458
C67	C	0.790058	1.466968	-0.232547
C68	C	0.675185	1.581839	-0.311469
C69	C	0.790047	1.466984	0.000000
C70	C	0.675171	1.581860	0.000002
C71	C	1.128537	1.466966	-0.232550
C72	C	1.128541	1.581837	-0.311474
C73	C	1.194600	0.621232	0.393943
C74	C	1.194592	0.513314	0.468107
C75	C	1.128499	0.459332	0.459789
C76	C	1.062400	0.513285	0.377301
C77	C	1.062402	0.621208	0.303139
C78	C	1.701919	0.621223	0.303111
C79	C	1.809865	0.513305	0.377260
C80	C	1.797754	0.459329	0.459755
C81	C	1.677688	0.513287	0.468100
C82	C	1.569745	0.621211	0.393953
C83	C	0.555131	1.635801	-0.303122
C84	C	0.447186	1.743753	-0.377270
C85	C	0.459296	1.797734	-0.459766
C86	C	0.579363	1.743769	-0.468111
C87	C	0.687306	1.635826	-0.393963
C88	C	1.194647	1.635784	-0.303128
C89	C	1.194675	1.743703	-0.377278
C90	C	1.128590	1.797680	-0.459773
C91	C	1.062482	1.743722	-0.468116
C92	C	1.062462	1.635798	-0.393967
H93	H	1.008597	1.368355	-0.764020
F94	F	0.815073	1.578399	-0.402861
F95	F	1.264989	1.578357	-0.215338
F96	F	0.992034	1.401391	-0.631564
F97	F	1.265032	1.801116	-0.368380
F98	F	0.992088	1.578405	-0.402862
H99	H	1.667845	0.469324	0.535278
F100	F	1.265020	0.855608	-0.215363
F101	F	1.264950	0.455910	0.555889
F102	F	0.344402	1.912617	-0.538674
H103	H	1.128616	1.885559	-0.520143
H104	H	1.008612	1.368337	-0.535289
H105	H	1.248440	0.888663	-0.370529
H106	H	1.907618	0.469382	0.370449
F107	F	0.592233	1.801232	-0.555916
H108	H	1.008677	1.787687	-0.535293
H109	H	1.248425	0.888685	-0.464722
H110	H	1.885658	0.371450	0.520124
F111	F	1.264955	0.678660	0.402815
F112	F	0.992092	1.401379	-0.402830
F113	F	0.992061	0.678599	0.215359
F114	F	1.714837	0.678656	0.215320
H115	H	0.545246	1.591855	-0.235956
F116	F	1.128509	0.344468	0.538728
F117	F	1.264946	0.855638	-0.597186
H118	H	1.471996	0.665122	0.400761
H119	H	1.008589	0.469317	0.370541
H120	H	0.349433	1.787673	-0.370458
