data_functionalizedCrystal
_audit_creation_method	'MofGen! by Chris Wilmer'
_symmetry_space_group_name_H-M	'P1'
_symmetry_Int_Tables_number	1
_symmetry_cell_setting	triclinic
loop_
_symmetry_equiv_pos_as_xyz
  x,y,z
_cell_length_a	19.188930
_cell_length_b	19.188924
_cell_length_c	12.376457
_cell_angle_alpha	101.235232
_cell_angle_beta	78.732154
_cell_angle_gamma	83.143372
loop_
_atom_site_label
_atom_site_type_symbol
_atom_site_fract_x
_atom_site_fract_y
_atom_site_fract_z
O1	O	0.939627	0.073691	-0.094378
O2	O	1.439627	0.573691	0.405622
O3	O	0.736304	0.085436	-0.094301
O4	O	1.236304	0.585436	0.405699
O5	O	0.843834	-0.022091	-0.094328
O6	O	1.343834	0.477909	0.405672
O7	O	0.832098	0.181218	-0.094351
O8	O	1.332098	0.681218	0.405649
O9	O	0.816961	0.004754	0.093691
O10	O	1.316961	0.504754	0.593691
O11	O	0.709432	0.112282	0.093718
O12	O	1.209432	0.612282	0.593718
O13	O	0.912754	0.100536	0.093641
O14	O	1.412754	0.600536	0.593641
Zn15	Zn	0.806826	0.110671	0.123532
Zn16	Zn	1.306826	0.610671	0.623532
Zn17	Zn	0.842232	0.075301	-0.124192
Zn18	Zn	1.342232	0.575301	0.375808
O19	O	0.805225	0.208063	0.093668
O20	O	1.305225	0.708063	0.593668
C21	C	0.696856	0.098480	-0.000282
C22	C	1.196856	0.598480	0.499718
C23	C	0.619347	0.097344	-0.000252
C24	C	1.119347	0.597344	0.499748
C25	C	0.830018	-0.034679	-0.000318
C26	C	1.330018	0.465321	0.499682
C27	C	0.828879	-0.112183	-0.000314
C28	C	1.328879	0.387817	0.499686
C29	C	0.574425	0.160431	-0.000276
C30	C	1.074425	0.660431	0.499724
C31	C	0.501603	0.159358	-0.000289
C32	C	1.001603	0.659358	0.499711
C33	C	0.473709	0.095190	-0.000299
C34	C	0.973709	0.595190	0.499701
C35	C	0.518640	0.032095	-0.000268
C36	C	1.018640	0.532095	0.499732
C37	C	0.591459	0.033172	-0.000244
C38	C	1.091459	0.533172	0.499756
N39	N	0.374882	0.037001	-0.064330
N40	N	0.874882	0.537001	0.435670
N41	N	0.305707	0.035982	-0.064355
N42	N	0.805707	0.535982	0.435645
C43	C	0.254311	0.091942	-0.000368
C44	C	0.754311	0.591942	0.499632
N45	N	0.274703	0.148969	0.063631
N46	N	0.774703	0.648969	0.563631
N47	N	0.343885	0.149989	0.063651
N48	N	0.843885	0.649989	0.563651
C49	C	0.394751	0.094016	-0.000324
C50	C	0.894751	0.594016	0.499676
C51	C	0.130426	0.153870	-0.000404
C52	C	0.630426	0.653870	0.499596
C53	C	0.057602	0.152795	-0.000410
C54	C	0.557602	0.652795	0.499590
C55	C	0.074643	0.025529	-0.000400
C56	C	0.574643	0.525529	0.499600
C57	C	0.147463	0.026608	-0.000384
C58	C	0.647463	0.526608	0.499616
C59	C	0.175351	0.090779	-0.000391
C60	C	0.675351	0.590779	0.499609
C61	C	0.842996	-0.163216	-0.102803
C62	C	1.342996	0.336784	0.397197
C63	C	0.841917	-0.236039	-0.102812
C64	C	1.341917	0.263961	0.397188
C65	C	0.826734	-0.257829	-0.000325
C66	C	1.326734	0.242171	0.499675
C67	C	0.812612	-0.206786	0.102178
C68	C	1.312612	0.293214	0.602178
C69	C	0.813684	-0.133963	0.102183
C70	C	1.313684	0.366037	0.602183
N71	N	0.853882	-0.366604	0.075939
N72	N	1.353882	0.133396	0.575939
N73	N	0.852866	-0.435784	0.075927
N74	N	1.352866	0.064216	0.575927
C75	C	0.823502	-0.477240	-0.000334
C76	C	1.323502	0.022760	0.499666
N77	N	0.795203	-0.446906	-0.076601
N78	N	1.295203	0.053094	0.423399
N79	N	0.796223	-0.377721	-0.076592
N80	N	1.296223	0.122279	0.423408
C81	C	0.825570	-0.336792	-0.000319
C82	C	1.325570	0.163208	0.499681
C83	C	0.836449	-0.607237	-0.102840
C84	C	1.336449	-0.107237	0.397160
C85	C	0.835365	-0.680061	-0.102844
C86	C	1.335365	-0.180061	0.397156
C87	C	0.806067	-0.650807	0.102149
C88	C	1.306067	-0.150807	0.602149
C89	C	0.807144	-0.577983	0.102150
C90	C	1.307144	-0.077983	0.602150
C91	C	0.822339	-0.556204	-0.000347
C92	C	1.322339	-0.056204	0.499653
C93	C	0.952203	0.087492	-0.000381
C94	C	1.452203	0.587492	0.499619
C95	C	1.029713	0.088627	-0.000418
C96	C	1.529713	0.588627	0.499582
C97	C	0.819041	0.220651	-0.000345
C98	C	1.319041	0.720651	0.499655
C99	C	0.820182	0.298154	-0.000356
C100	C	1.320182	0.798154	0.499644
N101	N	0.782668	0.134810	0.292596
N102	N	1.282668	0.634810	0.792596
N103	N	0.866396	0.051157	-0.293256
N104	N	1.366396	0.551157	0.206744
C105	C	0.922476	-0.004889	0.647545
C106	C	1.422476	0.495111	1.147545
C107	C	0.939381	-0.021784	0.529201
C108	C	1.439381	0.478216	1.029201
C109	C	0.900204	0.017363	0.470044
C110	C	1.400204	0.517363	0.970044
C111	C	0.844120	0.073407	0.529243
C112	C	1.344120	0.573407	1.029243
C113	C	0.827217	0.090307	0.647599
C114	C	1.327217	0.590307	1.147599
C115	C	0.804945	0.112560	0.470097
C116	C	1.304945	0.612560	0.970097
C117	C	0.748861	0.168604	0.529296
C118	C	1.248861	0.668604	1.029296
C119	C	0.731960	0.185501	0.647640
C120	C	1.231960	0.685501	1.147640
C121	C	0.771137	0.146354	0.706797
C122	C	1.271137	0.646354	1.206797
C123	C	0.821847	0.095660	0.351741
C124	C	1.321847	0.595660	0.851741
C125	C	0.726588	0.190856	0.351795
C126	C	1.226588	0.690856	0.851795
C127	C	0.709684	0.207751	0.470139
C128	C	1.209684	0.707751	0.970139
H129	H	0.465020	0.210734	-0.000306
H130	H	0.965020	0.710734	0.499694
H131	H	0.495927	-0.020153	-0.000292
H132	H	0.995927	0.479847	0.499708
N133	N	0.752906	0.164582	0.834443
N134	N	1.252906	0.664582	1.334443
H135	H	0.701427	0.158616	0.862985
H136	H	1.201427	0.658616	1.362985
H137	H	0.786278	0.131266	0.862839
H138	H	1.286278	0.631266	1.362839
H139	H	0.021026	0.204172	-0.000423
H140	H	0.521026	0.704172	0.499577
N141	N	0.639911	-0.034878	-0.000216
N142	N	1.139911	0.465122	0.499784
H143	H	0.640941	-0.072837	-0.069914
H144	H	1.140941	0.427163	0.430086
H145	H	0.690247	-0.024398	-0.000159
H146	H	1.190247	0.475602	0.499841
N147	N	0.999868	-0.082227	0.465358
N148	N	1.499868	0.417773	0.965358
H149	H	0.980300	-0.120085	0.416272
H150	H	1.480300	0.379915	0.916272
H151	H	1.037687	-0.062569	0.416300
H152	H	1.537687	0.437431	0.916300
H153	H	0.848817	-0.589503	-0.186299
H154	H	1.348817	-0.089503	0.313701
H155	H	0.800248	-0.224531	0.185623
H156	H	1.300248	0.275469	0.685623
H157	H	0.051943	-0.026727	-0.000479
H158	H	0.551943	0.473273	0.499521
H159	H	0.853408	-0.277597	-0.186273
H160	H	1.353408	0.222403	0.313727
N161	N	0.850598	-0.735106	-0.213393
N162	N	1.350598	-0.235106	0.286607
H163	H	0.847611	-0.784545	-0.197847
H164	H	1.347611	-0.284545	0.302153
H165	H	0.813913	-0.722968	-0.258143
H166	H	1.313913	-0.222968	0.241857
H167	H	0.153131	0.206125	-0.000394
H168	H	0.653131	0.706125	0.499606
N169	N	0.791934	-0.522940	0.212695
N170	N	1.291934	-0.022940	0.712695
H171	H	0.794917	-0.473501	0.197148
H172	H	1.294917	0.026499	0.697148
H173	H	0.742074	-0.523485	0.257471
H174	H	1.242074	-0.023485	0.757471
N175	N	0.882319	0.035201	0.287903
N176	N	1.382319	0.535201	0.787903
H177	H	0.887082	0.030430	0.203953
H178	H	1.387082	0.530430	0.703953
H179	H	0.928877	0.046085	0.308548
H180	H	1.428877	0.546085	0.808548
N181	N	0.671468	0.245946	0.711491
N182	N	1.171468	0.745946	1.211491
H183	H	0.682287	0.292541	0.690882
H184	H	1.182287	0.792541	1.190882
H185	H	0.624911	0.235014	0.690897
H186	H	1.124911	0.735014	1.190897
N187	N	0.789684	-0.674296	0.212692
N188	N	1.289684	-0.174296	0.712692
H189	H	0.791144	-0.728173	0.197139
H190	H	1.291144	-0.228173	0.697139
H191	H	0.826749	-0.660977	0.257436
H192	H	1.326749	-0.160977	0.757436
N193	N	0.195921	-0.041437	-0.000357
N194	N	0.695921	0.458563	0.499643
H195	H	0.167202	-0.082251	-0.000364
H196	H	0.667202	0.417749	0.499636
H197	H	0.236487	-0.053716	-0.070046
H198	H	0.736487	0.446284	0.429954
N199	N	0.798459	-0.078915	0.212729
N200	N	1.298459	0.421085	0.712729
H201	H	0.788675	-0.103766	0.277656
H202	H	1.288675	0.396234	0.777656
H203	H	0.841544	-0.053863	0.217178
H204	H	1.341544	0.446137	0.717178
H205	H	0.664019	0.253384	0.518353
H206	H	1.164019	0.753384	1.018353
N207	N	0.964727	-0.047113	0.711340
N208	N	1.464727	0.452887	1.211340
H209	H	1.017199	-0.042139	0.690709
H210	H	1.517199	0.457861	1.190709
H211	H	0.945453	-0.027882	0.795276
H212	H	1.445453	0.472118	1.295276
H213	H	0.694688	0.222735	0.303630
H214	H	1.194688	0.722735	0.803630
H215	H	0.855366	-0.145488	-0.186265
H216	H	1.355366	0.354512	0.313735
N217	N	0.604505	0.229641	-0.000293
N218	N	1.104505	0.729641	0.499707
H219	H	0.564993	0.269444	-0.000313
H220	H	1.064993	0.769444	0.499687
H221	H	0.624368	0.242818	0.069415
H222	H	1.124368	0.742818	0.569415
N223	N	0.918433	-0.000857	0.342402
N224	N	1.418433	0.499143	0.842402
H225	H	0.959905	-0.042302	0.313876
H226	H	1.459905	0.457698	0.813876
H227	H	0.875058	-0.014932	0.314022
H228	H	1.375058	0.485068	0.814022
