data_functionalizedCrystal
_audit_creation_method	'MofGen! by Chris Wilmer'
_symmetry_space_group_name_H-M	'P1'
_symmetry_Int_Tables_number	1
_symmetry_cell_setting	triclinic
loop_
_symmetry_equiv_pos_as_xyz
  x,y,z
_cell_length_a	16.959455
_cell_length_b	16.120444
_cell_length_c	16.120256
_cell_angle_alpha	95.616860
_cell_angle_beta	92.873525
_cell_angle_gamma	92.923869
loop_
_atom_site_label
_atom_site_type_symbol
_atom_site_fract_x
_atom_site_fract_y
_atom_site_fract_z
Zn1	Zn	1.167689	-0.356834	-0.489573
Zn2	Zn	1.167587	-0.489521	-0.356884
Zn3	Zn	1.042567	-0.349759	-0.349806
Zn4	Zn	1.028412	-0.496558	-0.496594
O5	O	1.101564	-0.423168	-0.423214
O6	O	1.278284	-0.374452	-0.471995
O7	O	1.156884	-0.465075	-0.238983
O8	O	1.065132	-0.233732	-0.362445
O9	O	1.278210	-0.471936	-0.374509
O10	O	1.157058	-0.238930	-0.465131
O11	O	1.065033	-0.362392	-0.233783
O12	O	0.930081	-0.369216	-0.369254
O13	O	1.041006	-0.483930	-0.612625
O14	O	0.919681	-0.477068	-0.477099
O15	O	1.143332	-0.381275	-0.607466
O16	O	1.143159	-0.607420	-0.381318
O17	O	1.040908	-0.612590	-0.483962
C18	C	0.896201	-0.423138	-0.423171
C19	C	0.808344	-0.423147	-0.423173
C20	C	0.436820	-0.473873	-0.372423
C21	C	0.436902	-0.372537	-0.474110
C22	C	0.519450	-0.372522	-0.474089
C23	C	0.560686	-0.423185	-0.423235
C24	C	0.519375	-0.473862	-0.372403
C25	C	0.560767	-0.321852	-0.524927
C26	C	0.643319	-0.321836	-0.524909
C27	C	0.684558	-0.372495	-0.474050
C28	C	0.643241	-0.423173	-0.423215
C29	C	0.684478	-0.473836	-0.372361
C30	C	0.643163	-0.524511	-0.321520
C31	C	0.560613	-0.524521	-0.321544
C32	C	0.767108	-0.372484	-0.474027
C33	C	0.767033	-0.473824	-0.372340
C34	C	1.090507	-0.640334	-0.434188
C35	C	1.085847	-0.733240	-0.438911
C36	C	1.125919	-0.942151	-0.398895
C37	C	1.077355	-0.903334	-0.447542
C38	C	1.082081	-0.808685	-0.442738
C39	C	1.121194	-1.036809	-0.403698
C40	C	1.307729	-0.423198	-0.423258
C41	C	1.395584	-0.423211	-0.423277
C42	C	1.090602	-0.434177	-0.641220
C43	C	1.085930	-0.438868	-0.734122
C44	C	1.112685	-0.205155	-0.412216
C45	C	1.117424	-0.112251	-0.407529
C46	C	1.125925	-0.398682	-0.943051
C47	C	1.077376	-0.447398	-0.904206
C48	C	1.082137	-0.442651	-0.809562
C49	C	1.121165	-0.403429	-1.037703
C50	C	1.112532	-0.412142	-0.206053
C51	C	1.117369	-0.407215	-0.113140
H52	H	0.526968	-0.565777	-0.280152
H53	H	1.171061	-0.353413	-0.905230
H54	H	0.403179	-0.515129	-0.331028
H55	H	0.676748	-0.565765	-0.280120
H56	H	1.171044	-0.904302	-0.353641
O57	O	0.807041	-0.523165	-0.323035
C58	C	0.781714	-0.607415	-0.345365
H59	H	0.755468	-0.615113	-0.412353
H60	H	0.734929	-0.626932	-0.301628
C61	C	0.884937	-0.653226	-0.256074
C62	C	0.852707	-0.662682	-0.338353
H63	H	0.928727	-0.687319	-0.251745
H64	H	0.901999	-0.596465	-0.241027
H65	H	0.845942	-0.669490	-0.219636
H66	H	0.891699	-0.646409	-0.374788
H67	H	0.835654	-0.719442	-0.353406
H68	H	0.403322	-0.331295	-0.515518
H69	H	1.032233	-0.492667	-0.942029
O70	O	0.807147	-0.323316	-0.523527
C71	C	0.781903	-0.345945	-0.607735
H72	H	0.720250	-0.378171	-0.611053
H73	H	0.824779	-0.390377	-0.637972
C74	C	0.855417	-0.227528	-0.650321
C75	C	0.779690	-0.267103	-0.654395
H76	H	0.854055	-0.178896	-0.679105
H77	H	0.872426	-0.212285	-0.593589
H78	H	0.891138	-0.264564	-0.675517
H79	H	0.743972	-0.230071	-0.629191
H80	H	0.762674	-0.282339	-0.711125
H81	H	0.676951	-0.280573	-0.566306
O82	O	0.520614	-0.272762	-0.574369
C83	C	0.467763	-0.323166	-0.630702
H84	H	0.453664	-0.384972	-0.604319
H85	H	0.496009	-0.335568	-0.693092
C86	C	0.408236	-0.202073	-0.676000
C87	C	0.390914	-0.277981	-0.643593
H88	H	0.360833	-0.174200	-0.683956
H89	H	0.443844	-0.168114	-0.638050
H90	H	0.431776	-0.212419	-0.727989
H91	H	0.367384	-0.267634	-0.591601
H92	H	0.355300	-0.311937	-0.681534
O93	O	1.023536	-0.948610	-0.501459
C94	C	1.030745	-1.034404	-0.494323
H95	H	1.059350	-1.042969	-0.430438
H96	H	1.069090	-1.061626	-0.545177
C97	C	0.913046	-1.069255	-0.582593
C98	C	0.948173	-1.079776	-0.504126
H99	H	0.862113	-1.097245	-0.588644
H100	H	0.908191	-1.011455	-0.587404
H101	H	0.945009	-1.091940	-0.624963
H102	H	0.916215	-1.057082	-0.461757
H103	H	0.953021	-1.137574	-0.499308
