data_functionalizedCrystal
_audit_creation_method	'MofGen! by Chris Wilmer'
_symmetry_space_group_name_H-M	'P1'
_symmetry_Int_Tables_number	1
_symmetry_cell_setting	triclinic
loop_
_symmetry_equiv_pos_as_xyz
  x,y,z
_cell_length_a	14.908742
_cell_length_b	11.169416
_cell_length_c	11.169409
_cell_angle_alpha	90.030816
_cell_angle_beta	93.278675
_cell_angle_gamma	93.283368
loop_
_atom_site_label
_atom_site_type_symbol
_atom_site_fract_x
_atom_site_fract_y
_atom_site_fract_z
Zn1	Zn	1.379262	0.583541	-0.572547
Zn2	Zn	1.879262	1.083541	-0.072547
Zn3	Zn	1.379177	0.784275	-0.371876
Zn4	Zn	1.879177	1.284275	0.128124
Zn5	Zn	1.228393	0.572035	-0.383477
Zn6	Zn	1.728393	1.072035	0.116523
Zn7	Zn	1.228400	0.772606	-0.584109
Zn8	Zn	1.728400	1.272606	-0.084109
O9	O	1.303808	0.678114	-0.478002
O10	O	1.803808	1.178114	0.021998
O11	O	1.505491	0.619869	-0.536234
O12	O	2.005491	1.119869	-0.036234
O13	O	1.359136	0.756190	-0.205468
O14	O	1.859136	1.256190	0.294532
O15	O	1.248438	0.405614	-0.408574
O16	O	1.748438	0.905614	0.091426
O17	O	1.505428	0.767347	-0.388801
O18	O	2.005428	1.267347	0.111199
O19	O	1.359281	0.414068	-0.547483
O20	O	1.859281	0.914068	-0.047483
O21	O	1.248356	0.600258	-0.213991
O22	O	1.748356	1.100258	0.286009
O23	O	1.102154	0.588942	-0.419785
O24	O	1.602154	1.088942	0.080215
O25	O	1.248451	0.747457	-0.750522
O26	O	1.748451	1.247457	-0.250522
O27	O	1.102159	0.736300	-0.567189
O28	O	1.602159	1.236300	-0.067189
O29	O	1.359289	0.608553	-0.742028
O30	O	1.859289	1.108553	-0.242028
O31	O	1.359143	0.950674	-0.400012
O32	O	1.859143	1.450674	0.099988
O33	O	1.248369	0.942101	-0.555939
O34	O	1.748369	1.442101	-0.055939
C35	C	1.069424	0.660107	-0.496001
C36	C	1.569424	1.160107	0.003999
C37	C	0.969153	0.652432	-0.503730
C38	C	1.469153	1.152432	-0.003730
C39	C	0.827855	0.564967	-0.591493
C40	C	1.327855	1.064967	-0.091493
C41	C	0.922068	0.572168	-0.584238
C42	C	1.422068	1.072168	-0.084238
C43	C	0.922019	0.725504	-0.430474
C44	C	1.422019	1.225504	0.069526
C45	C	0.827805	0.718303	-0.437730
C46	C	1.327805	1.218303	0.062270
C47	C	0.780727	0.638031	-0.518241
C48	C	1.280727	1.138031	-0.018241
C49	C	0.686512	0.630825	-0.525489
C50	C	1.186512	1.130825	-0.025489
C51	C	0.686464	0.784167	-0.371733
C52	C	1.186464	1.284167	0.128267
C53	C	0.780677	0.791367	-0.364477
C54	C	1.280677	1.291367	0.135523
C55	C	1.303772	0.989936	-0.477996
C56	C	1.803772	1.489936	0.022004
C57	C	1.303839	1.123341	-0.478027
C58	C	1.803839	1.623341	0.021973
C59	C	1.303880	0.677987	-0.791039
C60	C	1.803880	1.177987	-0.291039
C61	C	1.303911	0.677933	-0.924437
C62	C	1.803911	1.177933	-0.424437
C63	C	1.539107	0.696193	-0.459934
C64	C	2.039107	1.196193	0.040066
C65	C	1.639378	0.703897	-0.452234
C66	C	2.139378	1.203897	0.047766
C67	C	1.303868	0.365077	-0.478033
C68	C	1.803868	0.865077	0.021967
C69	C	1.303894	0.231679	-0.478046
C70	C	1.803894	0.731679	0.021954
C71	C	1.303788	0.678159	-0.166179
C72	C	1.803788	1.178159	0.333821
C73	C	1.303932	0.677888	-0.032769
C74	C	1.803932	1.177888	0.467231
H75	H	0.960366	0.790861	-0.364930
H76	H	1.460366	1.290861	0.135070
H77	H	0.819021	0.856725	-0.298931
H78	H	1.319021	1.356725	0.201069
F79	F	0.636301	0.861926	-0.293762
F80	F	1.136301	1.361926	0.206238
F81	F	0.972222	0.494406	-0.662206
F82	F	1.472222	0.994406	-0.162206
H83	H	0.648182	0.565458	-0.591040
H84	H	1.148182	1.065458	-0.091040
H85	H	0.789523	0.499595	-0.657037
H86	H	1.289523	0.999595	-0.157037
