data_functionalizedCrystal
_audit_creation_method	'MofGen! by Chris Wilmer'
_symmetry_space_group_name_H-M	'P1'
_symmetry_Int_Tables_number	1
_symmetry_cell_setting	triclinic
loop_
_symmetry_equiv_pos_as_xyz
  x,y,z
_cell_length_a	16.625546
_cell_length_b	19.805407
_cell_length_c	19.805407
_cell_angle_alpha	90.007450
_cell_angle_beta	90.013603
_cell_angle_gamma	90.019784
loop_
_atom_site_label
_atom_site_type_symbol
_atom_site_fract_x
_atom_site_fract_y
_atom_site_fract_z
Zn1	Zn	-0.321192	1.034685	0.382686
Zn2	Zn	-0.455995	1.034628	0.269497
Zn3	Zn	-0.321174	0.921520	0.269514
Zn4	Zn	-0.455980	0.921471	0.382648
O5	O	-0.388585	0.978076	0.326086
O6	O	-0.339087	1.129394	0.367680
O7	O	-0.438110	1.019621	0.174783
O8	O	-0.208344	0.936576	0.284550
O9	O	-0.438127	1.129352	0.284521
O10	O	-0.208357	1.019718	0.367697
O11	O	-0.339057	0.936521	0.174795
O12	O	-0.339042	0.826797	0.284513
O13	O	-0.438101	0.936492	0.477369
O14	O	-0.438083	0.826761	0.367631
O15	O	-0.339072	1.019670	0.477398
O16	O	-0.568825	1.019573	0.284484
O17	O	-0.568814	0.936437	0.367615
C18	C	-0.388560	0.802220	0.326070
C19	C	-0.388568	0.726988	0.326079
C20	C	-0.337090	0.691666	0.369446
C21	C	-0.337094	0.620978	0.369448
C22	C	-0.388582	0.585612	0.326087
C23	C	-0.440063	0.620939	0.282715
C24	C	-0.440054	0.691626	0.282710
C25	C	-0.440099	0.335866	0.282736
C26	C	-0.440105	0.265174	0.282746
C27	C	-0.337139	0.265217	0.369475
C28	C	-0.337130	0.335905	0.369469
C29	C	-0.388608	0.371225	0.326095
C30	C	-0.388602	0.447874	0.326092
C31	C	-0.388593	0.508965	0.326093
C32	C	-0.598076	0.978012	0.326058
C33	C	-0.687697	0.978047	0.326068
C34	C	-1.015873	0.978165	0.326139
C35	C	-0.924564	0.978130	0.326121
C36	C	-0.851788	0.978105	0.326103
C37	C	-0.760473	0.978071	0.326086
C38	C	-0.178276	0.978159	0.326130
C39	C	-0.088655	0.978194	0.326148
C40	C	-0.388587	0.978082	0.502629
C41	C	-0.388587	0.978085	0.577861
C42	C	-0.388611	1.154619	0.326103
C43	C	-0.388622	1.229851	0.326110
C44	C	-0.337031	1.021390	0.613221
C45	C	-0.337029	1.021384	0.683909
C46	C	-0.388587	0.978076	0.719237
C47	C	-0.440145	0.934766	0.683872
C48	C	-0.440143	0.934769	0.613184
C49	C	-0.440155	0.934753	0.968945
C50	C	-0.440155	0.934754	1.039637
C51	C	-0.337041	1.021368	1.039670
C52	C	-0.337038	1.021371	0.968983
C53	C	-0.388593	0.978059	0.933624
C54	C	-0.388594	0.978064	0.856976
C55	C	-0.388591	0.978073	0.795884
C56	C	-0.388600	0.978064	1.150230
C57	C	-0.388594	0.978057	1.074998
H58	H	-0.295206	0.364696	0.404781
Br59	Br	-0.510114	0.875985	0.731815
Br60	Br	-0.267228	0.573043	0.428307
H61	H	-0.295221	0.236451	0.404789
H62	H	-0.482035	0.236381	0.247434
Br63	Br	-0.510133	0.875976	1.087581
H64	H	-0.481972	0.720384	0.247396
Br65	Br	-0.510110	0.875991	0.565195
H66	H	-0.295049	1.056659	0.584463
Br67	Br	-0.509933	0.572944	0.223861
Br68	Br	-0.267070	1.080149	1.087660
Br69	Br	-0.267094	1.080190	0.731896
Br70	Br	-0.267215	0.739655	0.428301
Br71	Br	-0.509940	0.383792	0.223854
H72	H	-0.295057	1.056639	0.940223
H73	H	-0.482146	0.899495	0.940164
