data_functionalizedCrystal
_audit_creation_method	'MofGen! by Chris Wilmer'
_symmetry_space_group_name_H-M	'P1'
_symmetry_Int_Tables_number	1
_symmetry_cell_setting	triclinic
loop_
_symmetry_equiv_pos_as_xyz
  x,y,z
_cell_length_a	10.654550
_cell_length_b	16.109301
_cell_length_c	15.186229
_cell_angle_alpha	90.000638
_cell_angle_beta	89.996404
_cell_angle_gamma	96.026794
loop_
_atom_site_label
_atom_site_type_symbol
_atom_site_fract_x
_atom_site_fract_y
_atom_site_fract_z
O1	O	0.161419	-1.104090	-0.073173
O2	O	0.181507	-0.862148	-0.073187
O3	O	-0.011352	-0.988682	-0.073174
O4	O	0.354278	-0.977556	-0.073185
O5	O	-0.011354	-0.988673	0.073284
O6	O	0.181504	-0.862139	0.073271
O7	O	0.161416	-1.104082	0.073285
Zn8	Zn	0.171460	-0.983109	0.096531
Zn9	Zn	0.171463	-0.983120	-0.096433
O10	O	0.354275	-0.977548	0.073272
C11	C	0.180692	-0.831164	0.000040
C12	C	0.178253	-0.738854	0.000035
C13	C	-0.058140	-0.987861	0.000054
C14	C	-0.197550	-0.985417	0.000053
C15	C	0.162231	-1.135066	0.000056
C16	C	0.164671	-1.227376	0.000055
C17	C	-0.278046	-1.059918	0.000057
C18	C	-0.409036	-1.057616	0.000046
C19	C	-0.379020	-0.906306	0.000031
C20	C	-0.248033	-0.908608	0.000035
C21	C	-0.606070	-1.145364	-0.051264
C22	C	-0.686572	-1.219869	-0.051245
C23	C	-0.657317	-1.287407	0.000083
C24	C	-0.547563	-1.280443	0.051414
C25	C	-0.467068	-1.205937	0.051402
C26	C	-0.496322	-1.138402	0.000054
C27	C	-0.050997	-0.820866	0.051353
C28	C	0.029500	-0.746359	0.051348
C29	C	0.000249	-0.678814	0.000025
C30	C	-0.109507	-0.685769	-0.051292
C31	C	-0.190004	-0.760277	-0.051287
C32	C	-0.160745	-0.827822	0.000034
C33	C	0.401063	-0.978369	0.000042
C34	C	0.540473	-0.980813	0.000037
N35	N	0.171457	-0.983108	0.228224
C36	C	0.287019	-0.517228	0.000042
C37	C	0.284717	-0.430494	0.000048
C38	C	0.055896	-0.449008	0.000051
C39	C	0.058199	-0.535741	0.000052
C40	C	0.173764	-0.569848	0.000043
C41	C	0.169159	-0.396382	0.000048
C42	C	0.166662	-0.302341	0.000054
C43	C	0.176262	-0.663895	0.000038
N44	N	0.171457	-0.983129	-0.228126
C45	C	0.086088	-1.039156	0.453952
C46	C	0.086085	-1.039159	0.546142
C47	C	0.256830	-0.927074	0.546140
C48	C	0.256826	-0.927068	0.453952
C49	C	0.171456	-0.983114	0.407860
C50	C	0.171457	-0.983122	0.592238
C51	C	0.171455	-0.983125	0.692194
C52	C	0.171457	-0.983111	0.307898
H53	H	-0.236948	-1.122460	0.000069
H54	H	0.376940	-0.387654	0.000049
H55	H	0.016573	-1.084791	0.416427
H56	H	-0.038193	-0.421227	0.000064
H57	H	-0.034032	-0.578586	0.000055
H58	H	0.381119	-0.544996	0.000041
H59	H	0.016568	-1.084793	0.583667
H60	H	0.326338	-0.881444	0.583676
O61	O	0.348910	-0.866622	0.404227
H62	H	0.408287	-0.827660	0.451764
H63	H	-0.279365	-0.765940	-0.093086
O64	O	-0.141069	-0.612922	-0.106656
H65	H	-0.066649	-0.559948	-0.098046
O66	O	-0.348718	-1.198414	0.106780
H67	H	-0.297669	-1.135255	0.098154
H68	H	-0.722871	-1.348071	0.000097
O69	O	-0.516007	-1.353289	0.106779
H70	H	-0.590411	-1.406271	0.098156
H71	H	-0.775932	-1.225534	-0.093046
O72	O	-0.019454	-0.893728	0.106706
H73	H	-0.014311	-0.874947	0.177042
H74	H	-0.420140	-0.843771	0.000018
O75	O	-0.637623	-1.072515	-0.106626
H76	H	-0.727474	-1.089872	-0.142298
H77	H	0.118862	-0.740696	0.093145
H78	H	0.065794	-0.618142	0.000037
