data_functionalizedCrystal
_audit_creation_method	'MofGen! by Chris Wilmer'
_symmetry_space_group_name_H-M	'P1'
_symmetry_Int_Tables_number	1
_symmetry_cell_setting	triclinic
loop_
_symmetry_equiv_pos_as_xyz
  x,y,z
_cell_length_a	27.732048
_cell_length_b	27.732048
_cell_length_c	16.776229
_cell_angle_alpha	89.988391
_cell_angle_beta	89.998347
_cell_angle_gamma	82.642655
loop_
_atom_site_label
_atom_site_type_symbol
_atom_site_fract_x
_atom_site_fract_y
_atom_site_fract_z
O1	O	0.640929	0.057518	-0.066194
O2	O	1.140929	0.557518	0.433806
O3	O	0.500135	0.066264	-0.066219
O4	O	1.000135	0.566264	0.433781
O5	O	0.574905	-0.008506	-0.066191
O6	O	1.074905	0.491494	0.433809
O7	O	0.566159	0.132288	-0.066223
O8	O	1.066159	0.632288	0.433777
O9	O	0.574895	-0.008510	0.066386
O10	O	1.074895	0.491490	0.566386
O11	O	0.500126	0.066259	0.066357
O12	O	1.000126	0.566259	0.566357
O13	O	0.640919	0.057514	0.066383
O14	O	1.140919	0.557514	0.566383
Zn15	Zn	0.570521	0.061886	0.087419
Zn16	Zn	1.070521	0.561886	0.587419
Zn17	Zn	0.570534	0.061892	-0.087256
Zn18	Zn	1.070534	0.561892	0.412744
O19	O	0.566150	0.132283	0.066354
O20	O	1.066150	0.632283	0.566354
C21	C	0.482124	0.066078	0.000066
C22	C	0.982124	0.566078	0.500066
C23	C	0.428469	0.065525	0.000057
C24	C	0.928469	0.565525	0.500057
C25	C	0.089654	0.106229	0.000082
C26	C	0.589654	0.606229	0.500082
C27	C	-0.112006	0.104178	0.000090
C28	C	0.387994	0.604178	0.500090
O29	O	-0.143262	0.141398	0.000116
O30	O	0.356738	0.641398	0.500116
N31	N	-0.131130	0.059843	0.000098
N32	N	0.368870	0.559843	0.500098
C33	C	-0.099835	0.016017	0.000110
C34	C	0.400165	0.516017	0.500110
O35	O	-0.120728	-0.021740	0.000126
O36	O	0.379272	0.478260	0.500126
C37	C	0.101824	0.018068	0.000109
C38	C	0.601824	0.518068	0.500109
C39	C	0.120944	0.062407	0.000092
C40	C	0.620944	0.562407	0.500092
C41	C	0.108775	0.150563	0.000066
C42	C	0.608775	0.650563	0.500066
C43	C	0.159187	0.151075	0.000060
C44	C	0.659187	0.651075	0.500060
C45	C	0.190477	0.107253	0.000070
C46	C	0.690477	0.607253	0.500070
C47	C	0.171356	0.062919	0.000086
C48	C	0.671356	0.562919	0.500086
C49	C	0.133117	-0.025757	0.000126
C50	C	0.633117	0.474243	0.500126
C51	C	0.183535	-0.025240	0.000128
C52	C	0.683535	0.474760	0.500128
C53	C	0.202655	0.019098	0.000111
C54	C	0.702655	0.519098	0.500111
C55	C	0.253059	0.019609	0.000089
C56	C	0.753059	0.519609	0.500089
N57	N	0.272183	0.063944	0.000080
N58	N	0.772183	0.563944	0.500080
C59	C	0.240892	0.107766	0.000071
C60	C	0.740892	0.607766	0.500071
C61	C	-0.205709	0.014943	0.000110
C62	C	0.294291	0.514943	0.500110
C63	C	-0.256124	0.014430	0.000109
C64	C	0.243876	0.514430	0.500109
C65	C	-0.268291	0.102591	0.000090
C66	C	0.231709	0.602591	0.500090
C67	C	-0.217876	0.103104	0.000085
C68	C	0.282124	0.603104	0.500085
C69	C	-0.186585	0.059278	0.000101
C70	C	0.313415	0.559278	0.500101
C71	C	0.346761	0.108839	0.000057
C72	C	0.846761	0.608839	0.500057
C73	C	0.397178	0.109347	0.000047
C74	C	0.897178	0.609347	0.500047
C75	C	0.409341	0.021186	0.000071
C76	C	0.909341	0.521186	0.500071
C77	C	0.358929	0.020678	0.000076
C78	C	0.858929	0.520678	0.500076
C79	C	0.327639	0.064508	0.000072
C80	C	0.827639	0.564508	0.500072
O81	O	0.284343	-0.017592	0.000072
O82	O	0.784343	0.482408	0.500072
O83	O	0.261794	0.145518	0.000073
O84	O	0.761794	0.645518	0.500073
C85	C	0.039242	0.105716	0.000088
C86	C	0.539242	0.605716	0.500088
C87	C	0.020120	0.061382	0.000104
C88	C	0.520120	0.561382	0.500104
C89	C	0.051411	0.017560	0.000114
C90	C	0.551411	0.517560	0.500114
C91	C	-0.030294	0.060869	0.000103
C92	C	0.469706	0.560869	0.500103
C93	C	-0.061585	0.104691	0.000094
C94	C	0.438415	0.604691	0.500094
C95	C	-0.042461	0.149026	0.000085
C96	C	0.457539	0.649026	0.500085
C97	C	0.007951	0.149539	0.000079
C98	C	0.507951	0.649539	0.500079
C99	C	0.032287	-0.026775	0.000123
C100	C	0.532287	0.473225	0.500123
C101	C	-0.018125	-0.027284	0.000128
C102	C	0.481875	0.472716	0.500128
C103	C	-0.049416	0.016538	0.000118
C104	C	0.450584	0.516538	0.500118
C105	C	0.574716	-0.026515	0.000100
C106	C	1.074716	0.473485	0.500100
C107	C	0.574164	-0.080170	0.000106
C108	C	1.074164	0.419830	0.500106
C109	C	0.614867	-0.418985	0.000073
C110	C	1.114867	0.081015	0.500073
C111	C	0.612816	-0.620645	0.000061
C112	C	1.112816	-0.120645	0.500061
O113	O	0.650037	-0.651900	0.000033
O114	O	1.150037	-0.151900	0.500033
N115	N	0.568481	-0.639768	0.000054
N116	N	1.068481	-0.139768	0.500054
C117	C	0.524656	-0.608474	0.000044
C118	C	1.024656	-0.108474	0.500044
O119	O	0.486899	-0.629367	0.000030
O120	O	0.986899	-0.129367	0.500030
C121	C	0.526707	-0.406815	0.000050
C122	C	1.026707	0.093185	0.500050
C123	C	0.571045	-0.387694	0.000065
C124	C	1.071045	0.112306	0.500065
C125	C	0.659202	-0.399864	0.000087
C126	C	1.159202	0.100136	0.500087
C127	C	0.659714	-0.349452	0.000094
C128	C	1.159714	0.150548	0.500094
C129	C	0.615892	-0.318161	0.000087
C130	C	1.115892	0.181839	0.500087
C131	C	0.571557	-0.337282	0.000073
C132	C	1.071557	0.162718	0.500073
C133	C	0.482882	-0.375521	0.000035
C134	C	0.982882	0.124479	0.500035
C135	C	0.483399	-0.325104	0.000034
C136	C	0.983399	0.174896	0.500034
C137	C	0.527737	-0.305983	0.000050
C138	C	1.027737	0.194017	0.500050
C139	C	0.528247	-0.255580	0.000073
C140	C	1.028247	0.244420	0.500073
N141	N	0.572583	-0.236456	0.000080
N142	N	1.072583	0.263544	0.500080
C143	C	0.616405	-0.267747	0.000087
C144	C	1.116405	0.232253	0.500087
C145	C	0.523582	-0.714348	0.000043
C146	C	1.023582	-0.214348	0.500043
C147	C	0.523069	-0.764762	0.000043
C148	C	1.023069	-0.264762	0.500043
C149	C	0.611230	-0.776930	0.000058
C150	C	1.111230	-0.276930	0.500058
C151	C	0.611742	-0.726514	0.000064
C152	C	1.111742	-0.226514	0.500064
C153	C	0.567917	-0.695224	0.000050
C154	C	1.067917	-0.195224	0.500050
C155	C	0.617477	-0.161878	0.000103
C156	C	1.117477	0.338122	0.500103
C157	C	0.617986	-0.111461	0.000113
C158	C	1.117986	0.388539	0.500113
C159	C	0.529825	-0.099298	0.000094
C160	C	1.029825	0.400702	0.500094
C161	C	0.529316	-0.149710	0.000088
C162	C	1.029316	0.350290	0.500088
C163	C	0.573147	-0.180999	0.000089
C164	C	1.073147	0.319001	0.500089
O165	O	0.491047	-0.224296	0.000092
O166	O	0.991047	0.275704	0.500092
O167	O	0.654156	-0.246844	0.000084
O168	O	1.154156	0.253156	0.500084
C169	C	0.614355	-0.469397	0.000065
C170	C	1.114355	0.030603	0.500065
C171	C	0.570021	-0.488518	0.000051
C172	C	1.070021	0.011482	0.500051
C173	C	0.526198	-0.457228	0.000044
C174	C	1.026198	0.042772	0.500044
C175	C	0.569508	-0.538933	0.000051
C176	C	1.069508	-0.038933	0.500051
C177	C	0.613330	-0.570223	0.000058
C178	C	1.113330	-0.070223	0.500058
C179	C	0.657665	-0.551100	0.000065
C180	C	1.157665	-0.051100	0.500065
C181	C	0.658177	-0.500688	0.000073
C182	C	1.158177	-0.000688	0.500073
C183	C	0.481863	-0.476351	0.000037
C184	C	0.981863	0.023649	0.500037
C185	C	0.481355	-0.526764	0.000030
C186	C	0.981355	-0.026764	0.500030
C187	C	0.525177	-0.558054	0.000037
C188	C	1.025177	-0.058054	0.500037
C189	C	0.658931	0.057699	0.000096
C190	C	1.158931	0.557699	0.500096
C191	C	0.712586	0.058252	0.000099
C192	C	1.212586	0.558252	0.500099
C193	C	0.566338	0.150292	0.000062
C194	C	1.066338	0.650292	0.500062
C195	C	0.566891	0.203947	0.000050
C196	C	1.066891	0.703947	0.500050
N197	N	0.570515	0.061881	0.206630
N198	N	1.070515	0.561881	0.706630
N199	N	0.570543	0.061892	-0.206467
N200	N	1.070543	0.561892	0.293533
C201	C	0.603633	0.028787	0.248360
C202	C	1.103633	0.528787	0.748360
C203	C	0.603636	0.028786	0.331812
C204	C	1.103636	0.528786	0.831812
C205	C	0.570523	0.061883	0.373533
C206	C	1.070523	0.561883	0.873533
C207	C	0.537401	0.094979	0.331798
C208	C	1.037401	0.594979	0.831798
C209	C	0.537397	0.094977	0.248347
C210	C	1.037397	0.594977	0.748347
C211	C	0.537419	0.094989	0.668345
C212	C	1.037419	0.594989	1.168345
C213	C	0.537427	0.094989	0.751801
C214	C	1.037427	0.594989	1.251801
C215	C	0.603658	0.028798	0.751810
C216	C	1.103658	0.528798	1.251810
C217	C	0.603653	0.028796	0.668360
C218	C	1.103653	0.528796	1.168360
C219	C	0.570531	0.061890	0.626631
C220	C	1.070531	0.561890	1.126631
C221	C	0.570527	0.061889	0.536143
C222	C	1.070527	0.561889	1.036143
C223	C	0.570528	0.061886	0.464020
C224	C	1.070528	0.561886	0.964020
H225	H	0.117558	-0.061861	0.000140
H226	H	0.617558	0.438139	0.500140
F227	F	0.216833	-0.071886	0.000147
F228	F	0.716833	0.428114	0.500147
F229	F	0.502181	0.130217	0.796203
F230	F	1.002181	0.630217	1.296203
H231	H	0.446177	-0.450879	0.000029
H232	H	0.946177	0.049121	0.500029
F233	F	0.664126	-0.195171	0.000104
F234	F	1.164126	0.304829	0.500104
F235	F	0.502169	0.130211	0.623941
F236	F	1.002169	0.630211	1.123941
F237	F	0.436752	-0.291805	0.000018
F238	F	0.936752	0.208195	0.500018
H239	H	0.343360	-0.015426	0.000078
H240	H	0.843360	0.484574	0.500078
H241	H	0.412743	0.145454	0.000033
H242	H	0.912743	0.645454	0.500033
H243	H	0.174750	0.187180	0.000046
H244	H	0.674750	0.687180	0.500046
H245	H	0.510428	0.121925	0.214371
H246	H	1.010428	0.621925	0.714371
F247	F	0.476933	-0.681052	0.000028
F248	F	0.976933	-0.181052	0.500028
F249	F	0.442651	-0.025450	0.000082
F250	F	0.942651	0.474550	0.500082
H251	H	-0.293777	0.138273	0.000082
H252	H	0.206223	0.638273	0.500082
F253	F	0.704304	-0.584410	0.000077
F254	F	1.204304	-0.084410	0.500077
F255	F	0.638880	-0.006438	0.203966
F256	F	1.138880	0.493562	0.703966
F257	F	0.638898	-0.006428	0.623960
F258	F	1.138898	0.493572	1.123960
F259	F	0.502157	0.130202	0.376201
F260	F	1.002157	0.630202	0.876201
F261	F	0.638883	-0.006437	0.376225
F262	F	1.138883	0.493563	0.876225
F263	F	0.638909	-0.006426	0.796227
F264	F	1.138909	0.493574	1.296227
F265	F	0.075480	0.197209	0.000056
F266	F	0.575480	0.697209	0.500056
F267	F	0.482127	-0.170060	0.000086
F268	F	0.982127	0.329940	0.500086
F269	F	0.435691	-0.395860	0.000015
F270	F	0.935691	0.104140	0.500015
F271	F	0.313468	0.155488	0.000053
F272	F	0.813468	0.655488	0.500053
H273	H	0.694282	-0.485125	0.000085
H274	H	1.194282	0.014875	0.500085
F275	F	-0.197531	0.150294	0.000069
F276	F	0.302469	0.650294	0.500069
F277	F	-0.038469	-0.074478	0.000136
F278	F	0.461531	0.425522	0.500136
H279	H	0.494146	-0.073812	0.000091
H280	H	0.994146	0.426188	0.500091
H281	H	-0.180236	-0.020747	0.000123
H282	H	0.319764	0.479253	0.500123
F283	F	0.028294	0.196730	0.000061
F284	F	0.528294	0.696730	0.500061
F285	F	-0.276468	-0.032761	0.000109
F286	F	0.223532	0.467239	0.500109
H287	H	-0.067947	0.184708	0.000074
H288	H	0.432053	0.684708	0.500074
F289	F	0.065583	-0.073420	0.000134
F290	F	0.565583	0.426580	0.500134
H291	H	0.647846	-0.710950	0.000076
H292	H	1.147846	-0.210950	0.500076
H293	H	0.695819	-0.333889	0.000103
H294	H	1.195819	0.166111	0.500103
H295	H	0.654093	-0.095896	0.000128
H296	H	1.154093	0.404104	0.500128
H297	H	0.694889	-0.425336	0.000090
H298	H	1.194889	0.074664	0.500090
F299	F	0.475878	-0.785106	0.000041
F300	F	0.975878	-0.285106	0.500041
F301	F	0.657869	-0.810240	0.000064
F302	F	1.157869	-0.310240	0.500064
F303	F	0.434160	-0.547107	0.000019
F304	F	0.934160	-0.047107	0.500019
