data_functionalizedCrystal
_audit_creation_method	'MofGen! by Chris Wilmer'
_symmetry_space_group_name_H-M	'P1'
_symmetry_Int_Tables_number	1
_symmetry_cell_setting	triclinic
loop_
_symmetry_equiv_pos_as_xyz
  x,y,z
_cell_length_a	18.215407
_cell_length_b	19.805405
_cell_length_c	19.805399
_cell_angle_alpha	89.970699
_cell_angle_beta	89.981228
_cell_angle_gamma	90.026858
loop_
_atom_site_label
_atom_site_type_symbol
_atom_site_fract_x
_atom_site_fract_y
_atom_site_fract_z
Zn1	Zn	1.125056	-0.269471	-0.382697
Zn2	Zn	1.124964	-0.382659	-0.269505
Zn3	Zn	1.001991	-0.269490	-0.269523
Zn4	Zn	1.001952	-0.382624	-0.382654
O5	O	1.063491	-0.326061	-0.326095
O6	O	1.228028	-0.284492	-0.367693
O7	O	1.108629	-0.367670	-0.174791
O8	O	1.018371	-0.174771	-0.284562
O9	O	1.227960	-0.367651	-0.284531
O10	O	1.108787	-0.174757	-0.367710
O11	O	1.018282	-0.284525	-0.174804
O12	O	0.899002	-0.284491	-0.284520
O13	O	1.018304	-0.367591	-0.477376
O14	O	0.898973	-0.367610	-0.367636
O15	O	1.108748	-0.284458	-0.477408
O16	O	1.108591	-0.477371	-0.284489
O17	O	1.018214	-0.477345	-0.367619
C18	C	0.872285	-0.326050	-0.326075
C19	C	0.790486	-0.326061	-0.326083
C20	C	0.602296	-0.369409	-0.369308
C21	C	0.525437	-0.369411	-0.369316
C22	C	0.525438	-0.282726	-0.282897
C23	C	0.602295	-0.282721	-0.282892
C24	C	0.640722	-0.326066	-0.326097
C25	C	0.487006	-0.326073	-0.326110
C26	C	0.403672	-0.326075	-0.326119
C27	C	0.724061	-0.326063	-0.326089
C28	C	1.063408	-0.501917	-0.326062
C29	C	1.063440	-0.577149	-0.326071
C30	C	1.110545	-0.612484	-0.282831
C31	C	1.110576	-0.683173	-0.282845
C32	C	1.063498	-0.718525	-0.326098
C33	C	1.016391	-0.683185	-0.369343
C34	C	1.016364	-0.612497	-0.369331
C35	C	1.016500	-0.968258	-0.369393
C36	C	1.016529	-1.038950	-0.369400
C37	C	1.110711	-1.038933	-0.282908
C38	C	1.110684	-0.968246	-0.282896
C39	C	1.063581	-0.932912	-0.326143
C40	C	1.063548	-0.856264	-0.326127
C41	C	1.063526	-0.795172	-0.326111
C42	C	1.255444	-0.326073	-0.326115
C43	C	1.337243	-0.326078	-0.326123
C44	C	1.063532	-0.326018	-0.502638
C45	C	1.063550	-0.326000	-0.577870
C46	C	1.063594	-0.149518	-0.326143
C47	C	1.063638	-0.074286	-0.326163
C48	C	1.110645	-0.282711	-0.613232
C49	C	1.110653	-0.282691	-0.683920
C50	C	1.063568	-0.325965	-0.719245
C51	C	1.016467	-0.369256	-0.683879
C52	C	1.016456	-0.369272	-0.613191
C53	C	1.016509	-0.369193	-0.968952
C54	C	1.016525	-0.369176	-1.039644
C55	C	1.110705	-0.282612	-1.039681
C56	C	1.110694	-0.282628	-0.968993
C57	C	1.063591	-0.325917	-0.933633
C58	C	1.063583	-0.325937	-0.856984
C59	C	1.063580	-0.325949	-0.795893
C60	C	1.063492	-0.326055	-0.150239
C61	C	1.063617	-0.325882	-0.075007
H62	H	0.633581	-0.404702	-0.404489
H63	H	0.978179	-0.404416	-1.068404
H64	H	0.978127	-0.404488	-0.712646
N65	N	0.483991	-0.416162	-0.415919
H66	H	0.519999	-0.443620	-0.443285
H67	H	0.452077	-0.447449	-0.388309
N68	N	0.483992	-0.235994	-0.236282
H69	H	0.429471	-0.242580	-0.242834
H70	H	0.497412	-0.246484	-0.187929
N71	N	0.965683	-0.415873	-0.930836
H72	H	0.977072	-0.464235	-0.943124
H73	H	0.972819	-0.409267	-0.880704
H74	H	1.148878	-0.583705	-0.247607
N75	N	0.643748	-0.235961	-0.236293
H76	H	0.607743	-0.208504	-0.208922
H77	H	0.675616	-0.263465	-0.204918
N78	N	1.161381	-0.721285	-0.236208
H79	H	1.191197	-0.688163	-0.208803
H80	H	1.131454	-0.750659	-0.204867
H81	H	1.149017	-0.939464	-0.247673
N82	N	0.965550	-0.574385	-0.415962
H83	H	0.972676	-0.524241	-0.409392
H84	H	0.976976	-0.586699	-0.464314
N85	N	0.965688	-0.930155	-0.416029
H86	H	0.972812	-0.880011	-0.409463
H87	H	0.977114	-0.942473	-0.464380
H88	H	0.978193	-1.067732	-0.404627
N89	N	1.161517	-1.077043	-0.236259
H90	H	1.154394	-1.127187	-0.242827
H91	H	1.214066	-1.064640	-0.246829
N92	N	0.965653	-0.415961	-0.575054
H93	H	0.977053	-0.464321	-0.587342
H94	H	0.972808	-0.409348	-0.524926
N95	N	0.965616	-0.721310	-0.415997
H96	H	0.972777	-0.771453	-0.409442
H97	H	0.913059	-0.708999	-0.405415
N98	N	1.161436	-0.236043	-0.575132
H99	H	1.150040	-0.187677	-0.587440
H100	H	1.154260	-0.242684	-0.524998
N101	N	1.161434	-0.235987	-0.722061
H102	H	1.191259	-0.208575	-0.688957
H103	H	1.195482	-0.263522	-0.751397
N104	N	1.161483	-0.235956	-0.930896
H105	H	1.150083	-0.187591	-0.943208
H106	H	1.154308	-0.242593	-0.880762
N107	N	1.161509	-0.235918	-1.077819
H108	H	1.154373	-0.242470	-1.127960
H109	H	1.150085	-0.187580	-1.065473
