data_functionalizedCrystal
_audit_creation_method	'MofGen! by Chris Wilmer'
_symmetry_space_group_name_H-M	'P1'
_symmetry_Int_Tables_number	1
_symmetry_cell_setting	triclinic
loop_
_symmetry_equiv_pos_as_xyz
  x,y,z
_cell_length_a	10.489741
_cell_length_b	14.853567
_cell_length_c	13.930277
_cell_angle_alpha	90.000757
_cell_angle_beta	89.990801
_cell_angle_gamma	95.912948
loop_
_atom_site_label
_atom_site_type_symbol
_atom_site_fract_x
_atom_site_fract_y
_atom_site_fract_z
O1	O	1.692631	-0.127194	-0.079867
O2	O	1.321301	-0.139134	-0.079858
O3	O	1.516885	-0.001990	-0.079865
O4	O	1.497048	-0.264338	-0.079859
O5	O	1.516858	-0.001987	0.079796
O6	O	1.321274	-0.139131	0.079804
O7	O	1.692604	-0.127191	0.079795
Zn8	Zn	1.506935	-0.133160	0.105149
Zn9	Zn	1.506971	-0.133165	-0.105212
O10	O	1.497020	-0.264335	0.079803
C11	C	1.515973	0.031605	-0.000037
C12	C	1.513279	0.131704	-0.000046
C13	C	1.273766	-0.138230	-0.000026
C14	C	1.132167	-0.135533	-0.000023
C15	C	1.740139	-0.128095	-0.000039
C16	C	1.881738	-0.130793	-0.000048
C17	C	1.948899	-0.218053	-0.000036
C18	C	2.041502	-0.176834	-0.078755
C19	C	2.041441	-0.176810	0.078659
C20	C	1.972476	-0.089537	-0.078832
C21	C	1.972406	-0.089525	0.078652
C22	C	2.064982	-0.048243	-0.000086
C23	C	1.497933	-0.297930	-0.000028
C24	C	1.500626	-0.398029	-0.000026
N25	N	1.506920	-0.133157	0.248715
C26	C	1.385712	0.544953	-0.000024
C27	C	1.618070	0.564931	-0.000030
C28	C	1.620602	0.470883	-0.000035
C29	C	1.505688	0.413866	-0.000034
C30	C	1.388241	0.450896	-0.000027
C31	C	1.738047	0.433846	-0.000033
C32	C	1.740585	0.339793	-0.000037
C33	C	1.625669	0.282773	-0.000043
C34	C	1.508217	0.319809	-0.000037
C35	C	1.393303	0.262791	-0.000036
C36	C	1.275850	0.299825	-0.000036
C37	C	1.273325	0.393877	-0.000033
C38	C	1.628193	0.188722	-0.000047
C39	C	1.395832	0.168735	-0.000038
N40	N	1.506996	-0.133161	-0.248778
C41	C	1.420363	-0.193868	0.700988
C42	C	1.593614	-0.072455	0.700951
C43	C	1.593598	-0.072452	0.600455
C44	C	1.506965	-0.133159	0.550221
C45	C	1.420348	-0.193869	0.600483
C46	C	1.680223	-0.011749	0.550186
C47	C	1.680213	-0.011744	0.449684
C48	C	1.593572	-0.072448	0.399448
C49	C	1.506950	-0.133159	0.449716
C50	C	1.420317	-0.193866	0.399482
C51	C	1.333688	-0.254574	0.449748
C52	C	1.333707	-0.254572	0.550247
C53	C	1.593553	-0.072450	0.298949
C54	C	1.420302	-0.193867	0.298977
H55	H	1.898445	-0.289799	-0.000114
C56	C	2.082875	-0.226719	-0.168655
N57	N	2.114039	-0.264299	-0.236361
C58	C	1.931407	-0.039706	-0.168850
N59	N	1.900469	-0.002177	-0.236651
C60	C	1.757384	0.147988	-0.000046
N61	N	1.854697	0.117309	-0.000048
H62	H	1.302253	0.122316	-0.000042
H63	H	1.941760	-0.052634	0.145207
H64	H	2.115204	0.023570	-0.000126
H65	H	1.750764	0.037672	0.591089
H66	H	1.349750	-0.243299	0.258083
H67	H	2.071991	-0.213746	0.145213
H68	H	1.263178	-0.303999	0.591180
H69	H	1.182287	0.253390	-0.000029
H70	H	1.290084	0.575111	-0.000029
H71	H	1.177701	0.424039	-0.000032
H72	H	1.711628	0.611360	-0.000023
C73	C	1.869784	0.299064	-0.000044
N74	N	1.967098	0.268386	-0.000052
C75	C	1.688840	-0.005676	0.243661
N76	N	1.760613	0.044624	0.202019
C77	C	1.864444	0.496569	-0.000028
N78	N	1.959650	0.543818	-0.000025
H79	H	1.263156	-0.304006	0.408836
H80	H	1.349827	-0.243293	0.741917
H81	H	1.664154	-0.023033	0.741854
C82	C	1.775496	0.055042	0.394400
N83	N	1.847260	0.105350	0.352760
