data_functionalizedCrystal
_audit_creation_method	'MofGen! by Chris Wilmer'
_symmetry_space_group_name_H-M	'P1'
_symmetry_Int_Tables_number	1
_symmetry_cell_setting	triclinic
loop_
_symmetry_equiv_pos_as_xyz
  x,y,z
_cell_length_a	10.489741
_cell_length_b	17.699083
_cell_length_c	16.776229
_cell_angle_alpha	90.001114
_cell_angle_beta	89.993659
_cell_angle_gamma	96.088906
loop_
_atom_site_label
_atom_site_type_symbol
_atom_site_fract_x
_atom_site_fract_y
_atom_site_fract_z
O1	O	0.161296	-1.005134	-0.066176
O2	O	0.182281	-0.784893	-0.066202
O3	O	-0.013903	-0.900025	-0.066184
O4	O	0.357479	-0.890002	-0.066194
O5	O	-0.013915	-0.900009	0.066393
O6	O	0.182269	-0.784877	0.066375
O7	O	0.161284	-1.005118	0.066401
Zn8	Zn	0.171774	-0.894995	0.087437
Zn9	Zn	0.171790	-0.895016	-0.087238
O10	O	0.357467	-0.889986	0.066382
C11	C	0.181523	-0.756683	0.000083
C12	C	0.179267	-0.672650	0.000073
C13	C	-0.061427	-0.899260	0.000104
C14	C	-0.203014	-0.896995	0.000102
C15	C	0.162042	-1.033328	0.000114
C16	C	0.164297	-1.117361	0.000119
C17	C	-0.269793	-0.823740	0.000088
C18	C	-0.362564	-0.858337	0.065459
C19	C	-0.362527	-0.858370	-0.065251
C20	C	-0.293920	-0.931623	0.065528
C21	C	-0.293874	-0.931645	-0.065241
C22	C	-0.386619	-0.966296	0.000146
C23	C	0.404991	-0.890751	0.000093
C24	C	0.546578	-0.893016	0.000089
N25	N	0.171763	-0.894987	0.206648
C26	C	0.294422	-0.624782	0.000070
C27	C	0.292295	-0.545825	0.000080
C28	C	0.175011	-0.514737	0.000088
C29	C	0.059847	-0.562611	0.000094
C30	C	0.061975	-0.641567	0.000089
C31	C	0.051260	-0.244192	0.000114
C32	C	0.049140	-0.165230	0.000116
C33	C	0.281580	-0.148450	0.000105
C34	C	0.283709	-0.227406	0.000100
C35	C	0.168545	-0.275273	0.000110
C36	C	0.170853	-0.360887	0.000100
C37	C	0.172702	-0.429124	0.000092
N38	N	0.171791	-0.895030	-0.206450
C39	C	0.084928	-0.945983	0.248373
C40	C	0.084927	-0.945987	0.331826
C41	C	0.171767	-0.894998	0.373551
C42	C	0.258606	-0.843996	0.331820
C43	C	0.258600	-0.843989	0.248369
C44	C	0.258631	-0.844024	0.668367
C45	C	0.258633	-0.844037	0.751824
C46	C	0.084958	-0.946022	0.751823
C47	C	0.084952	-0.946015	0.668373
C48	C	0.171786	-0.895011	0.626649
C49	C	0.171784	-0.895006	0.536161
C50	C	0.171776	-0.895006	0.464038
H51	H	-0.219023	-0.763510	0.000147
H52	H	0.014249	-0.987550	0.785804
H53	H	-0.263400	-0.962621	-0.120504
H54	H	0.389929	-0.650088	0.000063
H55	H	-0.263669	-0.962585	0.120856
O56	O	-0.398618	-0.821289	-0.131162
C57	C	-0.338557	-0.746148	-0.130909
H58	H	-0.248354	-0.743004	-0.092639
H59	H	-0.407147	-0.706519	-0.105402
C60	C	-0.412934	-0.725706	-0.263786
C61	C	-0.302139	-0.721847	-0.216788
H62	H	-0.390474	-0.710714	-0.316761
H63	H	-0.453403	-0.776330	-0.263957
H64	H	-0.470083	-0.692683	-0.242522
H65	H	-0.245000	-0.754877	-0.238047
H66	H	-0.261659	-0.671228	-0.216624
O67	O	0.343078	-0.794425	0.207958
C68	C	0.419708	-0.749410	0.262679
H69	H	0.421091	-0.780452	0.322161
H70	H	0.378409	-0.692966	0.271566
C71	C	0.555636	-0.696425	0.157039
C72	C	0.557343	-0.734554	0.230094
H73	H	0.640534	-0.687258	0.136938
H74	H	0.504006	-0.726750	0.120172
H75	H	0.521214	-0.649393	0.164455
H76	H	0.591749	-0.781589	0.222675
H77	H	0.608982	-0.704236	0.266959
H78	H	0.329336	-0.802496	0.634402
O79	O	0.404275	-0.499435	0.000041
C80	C	0.508248	-0.543805	0.000048
H81	H	0.475692	-0.602546	-0.025056
H82	H	0.544208	-0.549628	0.063649
C83	C	0.657211	-0.432913	-0.021112
C84	C	0.617227	-0.505056	-0.051952
H85	H	0.724438	-0.409010	-0.053185
H86	H	0.587164	-0.403019	-0.021114
H87	H	0.687170	-0.437775	0.031888
H88	H	0.587255	-0.500192	-0.104947
H89	H	0.687273	-0.534949	-0.051960
H90	H	-0.437163	-1.026580	0.000189
O91	O	-0.064764	-0.134994	-0.000013
C92	C	-0.072936	-0.089810	-0.068664
H93	H	-0.006349	-0.108846	-0.116662
H94	H	-0.043315	-0.027717	-0.053142
C95	C	-0.293608	-0.075239	-0.040832
C96	C	-0.211832	-0.098622	-0.099787
H97	H	-0.379285	-0.080671	-0.060029
H98	H	-0.288102	-0.105677	0.005421
H99	H	-0.268908	-0.023496	-0.027903
H100	H	-0.236522	-0.150367	-0.112708
H101	H	-0.217345	-0.068192	-0.146043
H102	H	-0.393005	-0.827335	0.120719
O103	O	0.397750	-0.257479	0.000129
C104	C	0.498936	-0.198297	0.000110
H105	H	0.463347	-0.144475	0.025212
H106	H	0.534455	-0.187319	-0.063494
C107	C	0.653275	-0.287292	0.021267
C108	C	0.609566	-0.221188	0.052105
H109	H	0.721519	-0.301412	0.053337
H110	H	0.585105	-0.327164	0.021277
H111	H	0.682864	-0.278134	-0.031735
H112	H	0.579962	-0.230349	0.105103
H113	H	0.677734	-0.181317	0.052105
O114	O	0.342916	-0.794538	0.372473
C115	C	0.324285	-0.805467	0.455077
H116	H	0.276488	-0.865379	0.466472
H117	H	0.260405	-0.762286	0.478772
C118	C	0.513496	-0.721217	0.483912
C119	C	0.454801	-0.794806	0.497908
H120	H	0.594003	-0.714638	0.510333
H121	H	0.526046	-0.713852	0.428260
H122	H	0.460250	-0.685242	0.503658
H123	H	0.508039	-0.830779	0.478152
H124	H	0.442263	-0.802177	0.553557
H125	H	0.329351	-0.802512	0.785795
O126	O	0.000466	-0.995395	0.207775
C127	C	-0.078157	-0.954406	0.159558
H128	H	-0.027185	-0.895475	0.147039
H129	H	-0.172370	-0.948719	0.191761
C130	C	-0.168231	-1.069301	0.095672
C131	C	-0.105622	-0.996923	0.080291
H132	H	-0.185179	-1.095528	0.046778
H133	H	-0.115265	-1.096917	0.128159
H134	H	-0.246735	-1.064551	0.122511
H135	H	-0.027112	-1.001674	0.053462
H136	H	-0.158575	-0.969308	0.047797
O137	O	0.000542	-0.995607	0.372234
C138	C	-0.076115	-1.040603	0.317511
H139	H	-0.023827	-1.041725	0.258018
H140	H	-0.170829	-1.015529	0.308652
C141	C	-0.166761	-1.120732	0.423138
C142	C	-0.102535	-1.122115	0.350070
H143	H	-0.183065	-1.171012	0.443223
H144	H	-0.115120	-1.090416	0.460007
H145	H	-0.245682	-1.099834	0.415746
H146	H	-0.023610	-1.143005	0.357465
H147	H	-0.154165	-1.152437	0.313203
H148	H	0.375352	-0.109467	0.000101
O149	O	0.000471	-0.995573	0.627965
C150	C	-0.076154	-1.040598	0.682689
H151	H	-0.077525	-1.009569	0.742181
H152	H	-0.034860	-1.097045	0.691551
C153	C	-0.212103	-1.093556	0.577062
C154	C	-0.213795	-1.055442	0.650129
H155	H	-0.297005	-1.102716	0.556978
H156	H	-0.160476	-1.063224	0.540193
H157	H	-0.177685	-1.140591	0.584457
H158	H	-0.248197	-1.008404	0.642732
H159	H	-0.265430	-1.085767	0.686997
H160	H	-0.042514	-0.283156	0.000122
H161	H	-0.035648	-0.537293	0.000111
H162	H	-0.031796	-0.680540	0.000091
