data_functionalizedCrystal
_audit_creation_method	'MofGen! by Chris Wilmer'
_symmetry_space_group_name_H-M	'P1'
_symmetry_Int_Tables_number	1
_symmetry_cell_setting	triclinic
loop_
_symmetry_equiv_pos_as_xyz
  x,y,z
_cell_length_a	17.077404
_cell_length_b	16.625546
_cell_length_c	17.077396
_cell_angle_alpha	89.968950
_cell_angle_beta	89.980813
_cell_angle_gamma	90.020715
loop_
_atom_site_label
_atom_site_type_symbol
_atom_site_fract_x
_atom_site_fract_y
_atom_site_fract_z
Zn1	Zn	1.200039	-0.321033	-0.443874
Zn2	Zn	1.450039	-0.071033	-0.193874
Zn3	Zn	1.700039	0.178967	0.056126
Zn4	Zn	1.950039	0.428967	0.306126
Zn5	Zn	1.199953	-0.455877	-0.312604
Zn6	Zn	1.449953	-0.205877	-0.062604
Zn7	Zn	1.699953	0.044123	0.187396
Zn8	Zn	1.949953	0.294123	0.437396
Zn9	Zn	1.068776	-0.321058	-0.312617
Zn10	Zn	1.318776	-0.071058	-0.062617
Zn11	Zn	1.568776	0.178942	0.187383
Zn12	Zn	1.818776	0.428942	0.437383
Zn13	Zn	1.068740	-0.455823	-0.443823
Zn14	Zn	1.318740	-0.205823	-0.193823
Zn15	Zn	1.568740	0.044177	0.056177
Zn16	Zn	1.818740	0.294177	0.306177
O17	O	1.134377	-0.388448	-0.378230
O18	O	1.384377	-0.138448	-0.128230
O19	O	1.634377	0.111552	0.121770
O20	O	1.884377	0.361552	0.371770
O21	O	1.309875	-0.338932	-0.426476
O22	O	1.559875	-0.088932	-0.176476
O23	O	1.809875	0.161068	0.073524
O24	O	2.059875	0.411068	0.323524
O25	O	1.182531	-0.438027	-0.202759
O26	O	1.432531	-0.188027	0.047241
O27	O	1.682531	0.061973	0.297241
O28	O	1.932531	0.311973	0.547241
O29	O	1.086240	-0.208222	-0.330056
O30	O	1.336240	0.041778	-0.080056
O31	O	1.586240	0.291778	0.169944
O32	O	1.836240	0.541778	0.419944
O33	O	1.309811	-0.438002	-0.330033
O34	O	1.559811	-0.188002	-0.080033
O35	O	1.809811	0.061998	0.169967
O36	O	2.059811	0.311998	0.419967
O37	O	1.182679	-0.208204	-0.426489
O38	O	1.432679	0.041796	-0.176489
O39	O	1.682679	0.291796	0.073511
O40	O	1.932679	0.541796	0.323511
O41	O	1.086156	-0.338976	-0.202769
O42	O	1.336156	-0.088976	0.047231
O43	O	1.586156	0.161024	0.297231
O44	O	1.836156	0.411024	0.547231
O45	O	0.958925	-0.338923	-0.330006
O46	O	1.208925	-0.088923	-0.080006
O47	O	1.458925	0.161077	0.169994
O48	O	1.708925	0.411077	0.419994
O49	O	1.086178	-0.437909	-0.553677
O50	O	1.336178	-0.187909	-0.303677
O51	O	1.586178	0.062091	-0.053677
O52	O	1.836178	0.312091	0.196323
O53	O	0.958898	-0.437934	-0.426403
O54	O	1.208898	-0.187934	-0.176403
O55	O	1.458898	0.062066	0.073597
O56	O	1.708898	0.312066	0.323597
O57	O	1.182643	-0.338879	-0.553714
O58	O	1.432643	-0.088879	-0.303714
O59	O	1.682643	0.161121	-0.053714
O60	O	1.932643	0.411121	0.196286
O61	O	1.182496	-0.568703	-0.329984
O62	O	1.432496	-0.318703	-0.079984
O63	O	1.682496	-0.068703	0.170016
O64	O	1.932496	0.181297	0.420016
O65	O	1.086094	-0.568663	-0.426390
O66	O	1.336094	-0.318663	-0.176390
O67	O	1.586094	-0.068663	0.073610
O68	O	1.836094	0.181337	0.323610
C69	C	0.930429	-0.388426	-0.378201
C70	C	1.180429	-0.138426	-0.128201
C71	C	1.430429	0.111574	0.121799
C72	C	1.680429	0.361574	0.371799
C73	C	0.843180	-0.388436	-0.378207
C74	C	1.093180	-0.138436	-0.128207
C75	C	1.343180	0.111564	0.121793
C76	C	1.593180	0.361564	0.371793
C77	C	1.134303	-0.597939	-0.378197
C78	C	1.384303	-0.347939	-0.128197
C79	C	1.634303	-0.097939	0.121803
C80	C	1.884303	0.152061	0.371803
C81	C	1.134343	-0.687560	-0.378209
C82	C	1.384343	-0.437560	-0.128209
C83	C	1.634343	-0.187560	0.121791
C84	C	1.884343	0.062440	0.371791
C85	C	0.467395	-0.336977	-0.428557
C86	C	0.717395	-0.086977	-0.178557
C87	C	0.967395	0.163023	0.071443
C88	C	1.217395	0.413023	0.321443
C89	C	0.549376	-0.336971	-0.428548
C90	C	0.799376	-0.086971	-0.178548
C91	C	1.049376	0.163029	0.071452
C92	C	1.299376	0.413029	0.321452
C93	C	0.590331	-0.388465	-0.378249
C94	C	0.840331	-0.138465	-0.128249
C95	C	1.090331	0.111535	0.121751
C96	C	1.340331	0.361535	0.371751
C97	C	0.549301	-0.439973	-0.327962
C98	C	0.799301	-0.189973	-0.077962
C99	C	1.049301	0.060027	0.172038
C100	C	1.299301	0.310027	0.422038
C101	C	0.467322	-0.439983	-0.327975
C102	C	0.717322	-0.189983	-0.077975
C103	C	0.967322	0.060017	0.172025
C104	C	1.217322	0.310017	0.422025
C105	C	0.720171	-0.439949	-0.327936
C106	C	0.970171	-0.189949	-0.077936
C107	C	1.220171	0.060051	0.172064
C108	C	1.470171	0.310051	0.422064
C109	C	0.802155	-0.439939	-0.327922
C110	C	1.052155	-0.189939	-0.077922
C111	C	1.302155	0.060061	0.172078
C112	C	1.552155	0.310061	0.422078
C113	C	0.802225	-0.336938	-0.428509
C114	C	1.052225	-0.086938	-0.178509
C115	C	1.302225	0.163062	0.071491
C116	C	1.552225	0.413062	0.321491
C117	C	0.720246	-0.336947	-0.428523
C118	C	0.970246	-0.086947	-0.178523
C119	C	1.220246	0.163053	0.071477
C120	C	1.470246	0.413053	0.321477
C121	C	0.679222	-0.388455	-0.378234
C122	C	0.929222	-0.138455	-0.128234
C123	C	1.179222	0.111545	0.121766
C124	C	1.429222	0.361545	0.371766
C125	C	1.134480	-1.015735	-0.378291
C126	C	1.384480	-0.765735	-0.128291
C127	C	1.634480	-0.515735	0.121709
C128	C	1.884480	-0.265735	0.371709
C129	C	1.134439	-0.924427	-0.378270
C130	C	1.384439	-0.674427	-0.128270
C131	C	1.634439	-0.424427	0.121730
C132	C	1.884439	-0.174427	0.371730
C133	C	1.134411	-0.851650	-0.378249
C134	C	1.384411	-0.601650	-0.128249
C135	C	1.634411	-0.351650	0.121751
C136	C	1.884411	-0.101650	0.371751
C137	C	1.134371	-0.760336	-0.378230
C138	C	1.384371	-0.510336	-0.128230
C139	C	1.634371	-0.260336	0.121770
C140	C	1.884371	-0.010336	0.371770
C141	C	1.339121	-0.388470	-0.378259
C142	C	1.589121	-0.138470	-0.128259
C143	C	1.839121	0.111530	0.121741
C144	C	2.089121	0.361530	0.371741
C145	C	1.426371	-0.388480	-0.378271
C146	C	1.676371	-0.138480	-0.128271
C147	C	1.926371	0.111520	0.121729
C148	C	2.176371	0.361520	0.371729
C149	C	1.134417	-0.388385	-0.582974
C150	C	1.384417	-0.138385	-0.332974
C151	C	1.634417	0.111615	-0.082974
C152	C	1.884417	0.361615	0.167026
C153	C	1.134433	-0.388359	-0.670224
C154	C	1.384433	-0.138359	-0.420224
C155	C	1.634433	0.111641	-0.170224
C156	C	1.884433	0.361641	0.079776
C157	C	1.134473	-0.178139	-0.378280
C158	C	1.384473	0.071861	-0.128280
C159	C	1.634473	0.321861	0.121720
C160	C	1.884473	0.571861	0.371720
C161	C	1.134514	-0.088518	-0.378301
C162	C	1.384514	0.161482	-0.128301
C163	C	1.634514	0.411482	0.121699
C164	C	1.884514	0.661482	0.371699
C165	C	1.084266	-0.336777	-0.711219
C166	C	1.334266	-0.086777	-0.461219
C167	C	1.584266	0.163223	-0.211219
C168	C	1.834266	0.413223	0.038781
C169	C	1.084279	-0.336758	-0.793199
C170	C	1.334279	-0.086758	-0.543199
C171	C	1.584279	0.163242	-0.293199
C172	C	1.834279	0.413242	-0.043199
C173	C	1.134464	-0.388319	-0.834183
C174	C	1.384464	-0.138319	-0.584183
C175	C	1.634464	0.111681	-0.334183
C176	C	1.884464	0.361681	-0.084183
C177	C	1.184633	-0.439906	-0.793183
C178	C	1.434633	-0.189906	-0.543183
C179	C	1.684633	0.060094	-0.293183
C180	C	1.934633	0.310094	-0.043183
C181	C	1.184615	-0.439928	-0.711204
C182	C	1.434615	-0.189928	-0.461204
C183	C	1.684615	0.060072	-0.211204
C184	C	1.934615	0.310072	0.038796
C185	C	1.184667	-0.439856	-0.964053
C186	C	1.434667	-0.189856	-0.714053
C187	C	1.684667	0.060144	-0.464053
C188	C	1.934667	0.310144	-0.214053
C189	C	1.184685	-0.439833	-1.046038
C190	C	1.434685	-0.189833	-0.796038
C191	C	1.684685	0.060167	-0.546038
C192	C	1.934685	0.310167	-0.296038
C193	C	1.084331	-0.336686	-1.046048
C194	C	1.334331	-0.086686	-0.796048
C195	C	1.584331	0.163314	-0.546048
C196	C	1.834331	0.413314	-0.296048
C197	C	1.084313	-0.336708	-0.964069
C198	C	1.334313	-0.086708	-0.714069
C199	C	1.584313	0.163292	-0.464069
C200	C	1.834313	0.413292	-0.214069
C201	C	1.134484	-0.388295	-0.923074
C202	C	1.384484	-0.138295	-0.673074
C203	C	1.634484	0.111705	-0.423074
C204	C	1.884484	0.361705	-0.173074
C205	C	1.134383	-0.388452	-0.174282
C206	C	1.384383	-0.138452	0.075718
C207	C	1.634383	0.111548	0.325718
C208	C	1.884383	0.361548	0.575718
C209	C	1.134518	-0.388251	-0.087032
C210	C	1.384518	-0.138251	0.162968
C211	C	1.634518	0.111749	0.412968
C212	C	1.884518	0.361749	0.662968
H213	H	0.434056	-0.295040	-0.469511
H214	H	0.684056	-0.045040	-0.219511
H215	H	0.934056	0.204960	0.030489
H216	H	1.184056	0.454960	0.280489
H217	H	0.582653	-0.481903	-0.287011
H218	H	0.832653	-0.231903	-0.037011
H219	H	1.082653	0.018097	0.212989
H220	H	1.332653	0.268097	0.462989
H221	H	0.582774	-0.295035	-0.469498
H222	H	0.832774	-0.045035	-0.219498
H223	H	1.082774	0.204965	0.030502
H224	H	1.332774	0.454965	0.280502
H225	H	1.043405	-0.294786	-0.677855
H226	H	1.293405	-0.044786	-0.427855
H227	H	1.543405	0.205214	-0.177855
H228	H	1.793405	0.455214	0.072145
H229	H	0.686771	-0.481895	-0.286989
H230	H	0.936771	-0.231895	-0.036989
H231	H	1.186771	0.018105	0.213011
H232	H	1.436771	0.268105	0.463011
Br233	Br	0.411645	-0.509892	-0.259737
Br234	Br	0.661645	-0.259892	-0.009737
Br235	Br	0.911645	-0.009892	0.240263
Br236	Br	1.161645	0.240108	0.490263
Br237	Br	1.016150	-0.266795	-0.848832
Br238	Br	1.266150	-0.016795	-0.598832
Br239	Br	1.516150	0.233205	-0.348832
Br240	Br	1.766150	0.483205	-0.098832
H241	H	1.043452	-0.294719	-0.930702
H242	H	1.293452	-0.044719	-0.680702
H243	H	1.543452	0.205281	-0.430702
H244	H	1.793452	0.455281	-0.180702
H245	H	1.043481	-0.294681	-1.079430
H246	H	1.293481	-0.044681	-0.829430
H247	H	1.543481	0.205319	-0.579430
H248	H	1.793481	0.455319	-0.329430
Br249	Br	1.252801	-0.509801	-1.101659
Br250	Br	1.502801	-0.259801	-0.851659
Br251	Br	1.752801	-0.009801	-0.601659
Br252	Br	2.002801	0.240199	-0.351659
H253	H	1.225528	-0.481856	-0.930678
H254	H	1.475528	-0.231856	-0.680678
H255	H	1.725528	0.018144	-0.430678
H256	H	1.975528	0.268144	-0.180678
Br257	Br	0.664664	-0.267057	-0.496780
Br258	Br	0.914664	-0.017057	-0.246780
Br259	Br	1.164664	0.232943	0.003220
Br260	Br	1.414664	0.482943	0.253220
Br261	Br	1.252734	-0.509889	-0.848803
Br262	Br	1.502734	-0.259889	-0.598803
Br263	Br	1.752734	-0.009889	-0.348803
Br264	Br	2.002734	0.240111	-0.098803
Br265	Br	1.252696	-0.509941	-0.655567
Br266	Br	1.502696	-0.259941	-0.405567
Br267	Br	1.752696	-0.009941	-0.155567
Br268	Br	2.002696	0.240059	0.094433
H269	H	0.835499	-0.481872	-0.286967
H270	H	1.085499	-0.231872	-0.036967
H271	H	1.335499	0.018128	0.213033
H272	H	1.585499	0.268128	0.463033
Br273	Br	0.857899	-0.267027	-0.496752
Br274	Br	1.107899	-0.017027	-0.246752
Br275	Br	1.357899	0.232973	0.003248
Br276	Br	1.607899	0.482973	0.253248
