data_functionalizedCrystal
_audit_creation_method	'MofGen! by Chris Wilmer'
_symmetry_space_group_name_H-M	'P1'
_symmetry_Int_Tables_number	1
_symmetry_cell_setting	triclinic
loop_
_symmetry_equiv_pos_as_xyz
  x,y,z
_cell_length_a	13.330367
_cell_length_b	14.853567
_cell_length_c	14.853567
_cell_angle_alpha	83.634930
_cell_angle_beta	89.999156
_cell_angle_gamma	89.995418
loop_
_atom_site_label
_atom_site_type_symbol
_atom_site_fract_x
_atom_site_fract_y
_atom_site_fract_z
O1	O	0.083346	-1.196369	-0.117704
O2	O	0.083362	-0.933909	-0.131725
O3	O	0.083356	-1.072150	0.006515
O4	O	0.083351	-1.058128	-0.255944
O5	O	-0.083491	-1.072130	0.006519
O6	O	-0.083485	-0.933889	-0.131722
O7	O	-0.083501	-1.196349	-0.117700
Cu8	Cu	-0.098728	-1.065117	-0.124711
Cu9	Cu	0.098588	-1.065141	-0.124715
O10	O	-0.083496	-1.058108	-0.255941
C11	C	-0.000060	-0.900311	-0.131088
C12	C	-0.000053	-0.800227	-0.129184
N13	N	-0.237509	-1.065107	-0.124708
C14	C	-0.000064	-1.071504	0.040106
C15	C	-0.000055	-1.069601	0.140189
C16	C	-0.710130	-1.003925	-0.185903
C17	C	-0.710103	-1.126381	-0.063519
C18	C	-0.605084	-1.126371	-0.063516
C19	C	-0.552584	-1.065138	-0.124709
C20	C	-0.605102	-1.003915	-0.185904
C21	C	-0.552559	-1.187598	-0.002328
C22	C	-0.447534	-1.187591	-0.002323
C23	C	-0.395031	-1.126353	-0.063512
C24	C	-0.447556	-1.065127	-0.124710
C25	C	-0.395055	-1.003895	-0.185902
C26	C	-0.447578	-0.942664	-0.247096
C27	C	-0.552599	-0.942677	-0.247093
C28	C	-0.290010	-1.126340	-0.063515
C29	C	-0.290027	-1.003884	-0.185903
N30	N	0.237370	-1.065158	-0.124711
C31	C	-0.000078	-1.229947	-0.118337
C32	C	-0.000078	-1.330031	-0.120241
C33	C	-0.000074	-0.387693	-0.039019
C34	C	-0.000076	-0.366412	-0.203251
C35	C	-0.000073	-0.460446	-0.205042
C36	C	-0.000069	-0.518108	-0.123819
C37	C	-0.000067	-0.481736	-0.040806
C38	C	-0.000064	-0.496825	-0.288053
C39	C	-0.000059	-0.590864	-0.289846
C40	C	-0.000062	-0.648528	-0.208623
C41	C	-0.000062	-0.612150	-0.125607
C42	C	-0.000058	-0.669812	-0.044384
C43	C	-0.000065	-0.633437	0.038633
C44	C	-0.000070	-0.539399	0.040417
C45	C	-0.000057	-0.742565	-0.210407
C46	C	-0.000052	-0.763855	-0.046172
C47	C	-0.000073	-1.058754	-0.289531
C48	C	-0.000075	-1.060657	-0.389615
C49	C	-0.000069	-0.979435	0.552723
C50	C	-0.000079	-1.143668	0.574004
C51	C	-0.000073	-1.145458	0.479971
C52	C	-0.000067	-1.064235	0.422309
C53	C	-0.000066	-0.981223	0.458680
C54	C	-0.000084	-1.228469	0.443591
C55	C	-0.000079	-1.230262	0.349552
C56	C	-0.000066	-1.149039	0.291889
C57	C	-0.000064	-1.066023	0.328266
C58	C	-0.000058	-0.984800	0.270604
C59	C	-0.000049	-0.901783	0.306979
C60	C	-0.000053	-0.899999	0.401017
C61	C	-0.000062	-1.150823	0.197851
C62	C	-0.000055	-0.986588	0.176561
H63	H	-0.404820	-0.892811	-0.296924
O64	O	-0.000054	-0.898977	0.114376
H65	H	0.067952	-0.895865	0.071026
O66	O	-0.000082	-1.319796	0.310319
H67	H	0.067923	-1.324538	0.267984
H68	H	-0.595308	-1.237457	0.047489
H69	H	-0.000052	-0.810798	0.019971
H70	H	-0.595370	-0.892826	-0.296916
O71	O	-0.000054	-0.814180	0.244782
H72	H	0.067949	-0.774461	0.257722
H73	H	-0.000076	-1.218414	0.168238
H74	H	-0.752852	-1.176239	-0.013702
H75	H	-0.000100	-0.509774	0.108005
H76	H	-0.000046	-0.832411	0.430643
H77	H	-0.000092	-1.209795	0.620958
O78	O	-0.000105	-1.316070	0.505778
H79	H	-0.000098	-1.300878	0.577279
H80	H	-0.247288	-0.954018	-0.235731
H81	H	-0.000055	-0.680397	0.104764
O82	O	-0.766767	-0.937889	-0.251909
H83	H	-0.848617	-0.948182	-0.241636
O84	O	-0.000083	-0.348470	0.050520
H85	H	-0.000085	-0.273392	0.038124
H86	H	-0.000058	-0.911844	0.582344
H87	H	-0.247251	-1.176197	-0.013696
O88	O	-0.390885	-1.253618	0.063684
H89	H	-0.445038	-1.296192	0.106239
O90	O	-0.000091	-0.304227	-0.290854
H91	H	-0.000103	-0.232726	-0.275665
H92	H	-0.000057	-0.449870	-0.354180
O93	O	-0.000076	-0.630098	-0.379379
H94	H	-0.000091	-0.574202	-0.435557
H95	H	-0.000053	-0.772178	-0.277998
