data_functionalizedCrystal
_audit_creation_method	'MofGen! by Chris Wilmer'
_symmetry_space_group_name_H-M	'P1'
_symmetry_Int_Tables_number	1
_symmetry_cell_setting	triclinic
loop_
_symmetry_equiv_pos_as_xyz
  x,y,z
_cell_length_a	25.639239
_cell_length_b	25.639242
_cell_length_c	12.827885
_cell_angle_alpha	90.031141
_cell_angle_beta	89.964018
_cell_angle_gamma	89.966656
loop_
_atom_site_label
_atom_site_type_symbol
_atom_site_fract_x
_atom_site_fract_y
_atom_site_fract_z
Zn1	Zn	-0.208200	-0.799266	-0.591134
Zn2	Zn	0.125133	-0.465932	-0.257801
Zn3	Zn	0.458467	-0.132599	0.075532
Zn4	Zn	-0.295645	-0.799177	-0.416376
Zn5	Zn	0.037688	-0.465844	-0.083042
Zn6	Zn	0.371022	-0.132510	0.250291
Zn7	Zn	-0.208217	-0.711830	-0.416372
Zn8	Zn	0.125116	-0.378497	-0.083039
Zn9	Zn	0.458449	-0.045163	0.250295
Zn10	Zn	-0.295598	-0.711787	-0.591040
Zn11	Zn	0.037735	-0.378454	-0.257706
Zn12	Zn	0.371069	-0.045120	0.075627
O13	O	-0.251915	-0.755515	-0.503730
O14	O	0.081418	-0.422182	-0.170397
O15	O	0.414752	-0.088848	0.162936
O16	O	-0.219812	-0.872419	-0.567994
O17	O	0.113521	-0.539086	-0.234660
O18	O	0.446855	-0.205752	0.098673
O19	O	-0.284074	-0.787571	-0.270139
O20	O	0.049259	-0.454238	0.063194
O21	O	0.382592	-0.120905	0.396528
O22	O	-0.135050	-0.723483	-0.439593
O23	O	0.198284	-0.390150	-0.106259
O24	O	0.531617	-0.056817	0.227074
O25	O	-0.284058	-0.872354	-0.439599
O26	O	0.049276	-0.539021	-0.106266
O27	O	0.382609	-0.205687	0.227067
O28	O	-0.135037	-0.787722	-0.567990
O29	O	0.198296	-0.454389	-0.234657
O30	O	0.531630	-0.121055	0.098677
O31	O	-0.219842	-0.723398	-0.270136
O32	O	0.113492	-0.390064	0.063197
O33	O	0.446825	-0.056731	0.396530
O34	O	-0.219796	-0.638659	-0.439501
O35	O	0.113537	-0.305326	-0.106167
O36	O	0.446871	0.028008	0.227166
O37	O	-0.283978	-0.723410	-0.737288
O38	O	0.049356	-0.390077	-0.403955
O39	O	0.382689	-0.056744	-0.070622
O40	O	-0.283994	-0.638628	-0.567828
O41	O	0.049339	-0.305294	-0.234495
O42	O	0.382672	0.028039	0.098838
O43	O	-0.219767	-0.787681	-0.737358
O44	O	0.113567	-0.454347	-0.404025
O45	O	0.446900	-0.121014	-0.070691
O46	O	-0.368804	-0.787530	-0.439507
O47	O	-0.035471	-0.454196	-0.106174
O48	O	0.297863	-0.120863	0.227159
O49	O	-0.368769	-0.723325	-0.567832
O50	O	-0.035436	-0.389991	-0.234499
O51	O	0.297897	-0.056658	0.098835
C52	C	-0.251892	-0.619672	-0.503654
C53	C	0.081441	-0.286339	-0.170321
C54	C	0.414774	0.046994	0.163012
C55	C	-0.251895	-0.561558	-0.503647
C56	C	0.081438	-0.228225	-0.170313
C57	C	0.414771	0.105108	0.163020
C58	C	-0.218429	-0.310373	-0.436999
C59	C	0.114904	0.022961	-0.103666
C60	C	0.448237	0.356294	0.229667
C61	C	-0.218425	-0.364977	-0.436989
C62	C	0.114909	-0.031644	-0.103656
C63	C	0.448242	0.301690	0.229677
O64	O	-0.189941	-0.393220	-0.380279
O65	O	0.143392	-0.059887	-0.046946
O66	O	0.476726	0.273447	0.286388
N67	N	-0.251901	-0.392284	-0.503689
N68	N	0.081432	-0.058951	-0.170356
N69	N	0.414766	0.274382	0.162978
C70	C	-0.285380	-0.364985	-0.570411
C71	C	0.047953	-0.031652	-0.237077
C72	C	0.381286	0.301682	0.096256
O73	O	-0.313854	-0.393226	-0.627144
O74	O	0.019479	-0.059893	-0.293811
O75	O	0.352813	0.273441	0.039523
C76	C	-0.285382	-0.310382	-0.570425
C77	C	0.047951	0.022952	-0.237092
C78	C	0.381285	0.356285	0.096241
C79	C	-0.251907	-0.283077	-0.503714
C80	C	0.081426	0.050256	-0.170380
C81	C	0.414759	0.383590	0.162953
C82	C	-0.184957	-0.283068	-0.370294
C83	C	0.148377	0.050266	-0.036961
C84	C	0.481710	0.383599	0.296373
C85	C	-0.184962	-0.228467	-0.370303
C86	C	0.148371	0.104866	-0.036970
C87	C	0.481704	0.438199	0.296364
C88	C	-0.218440	-0.201171	-0.437017
C89	C	0.114893	0.132162	-0.103684
C90	C	0.448227	0.465495	0.229649
C91	C	-0.251913	-0.228476	-0.503723
C92	C	0.081421	0.104857	-0.170389
C93	C	0.414754	0.438190	0.162944
C94	C	-0.318858	-0.283083	-0.637151
C95	C	0.014475	0.050250	-0.303818
C96	C	0.347808	0.383584	0.029515
C97	C	-0.318857	-0.228476	-0.637161
C98	C	0.014477	0.104857	-0.303827
C99	C	0.347810	0.438191	0.029506
C100	C	-0.285382	-0.201171	-0.570449
C101	C	0.047951	0.132162	-0.237116
C102	C	0.381285	0.465495	0.096217
C103	C	-0.285396	-0.146580	-0.570446
C104	C	0.047937	0.186753	-0.237112
C105	C	0.381271	0.520087	0.096221
N106	N	-0.251920	-0.119272	-0.503746
N107	N	0.081414	0.214061	-0.170413
N108	N	0.414747	0.547394	0.162921
C109	C	-0.218442	-0.146568	-0.437032
C110	C	0.114892	0.186765	-0.103698
C111	C	0.448225	0.520099	0.229635
C112	C	-0.285374	-0.479656	-0.570376
C113	C	0.047959	-0.146322	-0.237043
C114	C	0.381293	0.187011	0.096290
C115	C	-0.285375	-0.534258	-0.570357
C116	C	0.047958	-0.200925	-0.237024
C117	C	0.381291	0.132409	0.096309
C118	C	-0.218419	-0.534246	-0.436937
C119	C	0.114915	-0.200913	-0.103604
C120	C	0.448248	0.132421	0.229730
C121	C	-0.218420	-0.479643	-0.436952
C122	C	0.114913	-0.146309	-0.103618
C123	C	0.448246	0.187024	0.229715
C124	C	-0.251898	-0.452348	-0.503677
C125	C	0.081436	-0.119015	-0.170343
C126	C	0.414769	0.214319	0.162990
C127	C	-0.218456	-0.031903	-0.437055
C128	C	0.114877	0.301430	-0.103722
C129	C	0.448211	0.634764	0.229612
C130	C	-0.218466	0.022702	-0.437067
C131	C	0.114867	0.356036	-0.103733
C132	C	0.448201	0.689369	0.229600
C133	C	-0.285420	0.022686	-0.570490
C134	C	0.047913	0.356019	-0.237157
C135	C	0.381246	0.689352	0.096176
C136	C	-0.285413	-0.031915	-0.570475
C137	C	0.047921	0.301418	-0.237142
C138	C	0.381254	0.634752	0.096191
C139	C	-0.251926	-0.059208	-0.503754
C140	C	0.081407	0.274125	-0.170421
C141	C	0.414741	0.607459	0.162913
O142	O	-0.313864	-0.118302	-0.627130
O143	O	0.019470	0.215031	-0.293797
O144	O	0.352803	0.548364	0.039537
O145	O	-0.189968	-0.118320	-0.380318
O146	O	0.143365	0.215013	-0.046985
O147	O	0.476698	0.548346	0.286349
C148	C	-0.387758	-0.755427	-0.503683
C149	C	-0.054424	-0.422094	-0.170349
C150	C	0.278909	-0.088760	0.162984
C151	C	-0.445872	-0.755437	-0.503697
C152	C	-0.112538	-0.422104	-0.170364
C153	C	0.220795	-0.088771	0.162970
C154	C	-0.806240	-0.789034	-0.437026
C155	C	-0.472907	-0.455700	-0.103692
C156	C	-0.139573	-0.122367	0.229641
C157	C	-0.860844	-0.789054	-0.437040
C158	C	-0.527511	-0.455721	-0.103706
C159	C	-0.194178	-0.122387	0.229627
O160	O	-0.889086	-0.817528	-0.380301
O161	O	-0.555752	-0.484195	-0.046967
O162	O	-0.222419	-0.150861	0.286366
N163	N	-0.888154	-0.755607	-0.503800
N164	N	-0.554821	-0.422274	-0.170466
N165	N	-0.221487	-0.088940	0.162867
C166	C	-0.860857	-0.722141	-0.570558
C167	C	-0.527523	-0.388808	-0.237224
C168	C	-0.194190	-0.055474	0.096109
O169	O	-0.889100	-0.693694	-0.627344
O170	O	-0.555766	-0.360360	-0.294011
O171	O	-0.222433	-0.027027	0.039322
C172	C	-0.806253	-0.722124	-0.570548
C173	C	-0.472920	-0.388790	-0.237215
C174	C	-0.139587	-0.055457	0.096118
C175	C	-0.778946	-0.755569	-0.503776
C176	C	-0.445613	-0.422236	-0.170443
C177	C	-0.112280	-0.088903	0.162890
C178	C	-0.778933	-0.822477	-0.370260
C179	C	-0.445600	-0.489144	-0.036927
C180	C	-0.112266	-0.155810	0.296407
C181	C	-0.724333	-0.822456	-0.370245
C182	C	-0.390999	-0.489123	-0.036912
C183	C	-0.057666	-0.155789	0.296422
C184	C	-0.697039	-0.788992	-0.436995
C185	C	-0.363706	-0.455658	-0.103662
C186	C	-0.030372	-0.122325	0.229671
C187	C	-0.724346	-0.755548	-0.503761
C188	C	-0.391013	-0.422215	-0.170428
C189	C	-0.057679	-0.088882	0.162906
C190	C	-0.778957	-0.688661	-0.637311
C191	C	-0.445624	-0.355327	-0.303977
C192	C	-0.112290	-0.021994	0.029356
C193	C	-0.724350	-0.688647	-0.637296
C194	C	-0.391016	-0.355313	-0.303963
C195	C	-0.057683	-0.021980	0.029371
C196	C	-0.697043	-0.722092	-0.570524
C197	C	-0.363710	-0.388759	-0.237191
C198	C	-0.030376	-0.055426	0.096143
C199	C	-0.642452	-0.722063	-0.570497
C200	C	-0.309118	-0.388729	-0.237163
C201	C	0.024215	-0.055396	0.096170
N202	N	-0.615142	-0.755510	-0.503737
N203	N	-0.281809	-0.422177	-0.170403
N204	N	0.051525	-0.088843	0.162930
C205	C	-0.642436	-0.788974	-0.436986
C206	C	-0.309102	-0.455641	-0.103653
C207	C	0.024231	-0.122308	0.229681
C208	C	-0.975527	-0.722180	-0.570574
C209	C	-0.642194	-0.388847	-0.237240
C210	C	-0.308861	-0.055514	0.096093
C211	C	-1.030130	-0.722195	-0.570579
C212	C	-0.696796	-0.388861	-0.237245
C213	C	-0.363463	-0.055528	0.096088
C214	C	-1.030114	-0.789108	-0.437062
C215	C	-0.696780	-0.455775	-0.103729
C216	C	-0.363447	-0.122442	0.229605
C217	C	-0.975510	-0.789091	-0.437052
C218	C	-0.642177	-0.455758	-0.103719
C219	C	-0.308844	-0.122425	0.229614
C220	C	-0.948218	-0.755628	-0.503814
C221	C	-0.614884	-0.422294	-0.170480
C222	C	-0.281551	-0.088961	0.162853
C223	C	-0.527771	-0.788927	-0.436959
C224	C	-0.194437	-0.455594	-0.103625
C225	C	0.138896	-0.122261	0.229708
C226	C	-0.473165	-0.788902	-0.436946
C227	C	-0.139832	-0.455568	-0.103613
C228	C	0.193501	-0.122235	0.229720
C229	C	-0.473186	-0.721990	-0.570467
C230	C	-0.139853	-0.388657	-0.237133
C231	C	0.193481	-0.055323	0.096200
C232	C	-0.527787	-0.722013	-0.570476
C233	C	-0.194453	-0.388680	-0.237142
C234	C	0.138880	-0.055347	0.096191
C235	C	-0.555078	-0.755486	-0.503718
C236	C	-0.221744	-0.422153	-0.170385
C237	C	0.111589	-0.088820	0.162949
O238	O	-0.614176	-0.693605	-0.627210
O239	O	-0.280842	-0.360272	-0.293876
O240	O	0.052491	-0.026938	0.039457
O241	O	-0.614186	-0.817422	-0.380219
O242	O	-0.280853	-0.484088	-0.046885
O243	O	0.052481	-0.150755	0.286448
C244	C	-0.115542	-0.755617	-0.503801
C245	C	0.217791	-0.422284	-0.170468
C246	C	0.551125	-0.088951	0.162865
C247	C	-0.057428	-0.755661	-0.503832
C248	C	0.275905	-0.422328	-0.170498
C249	C	0.609239	-0.088994	0.162835
C250	C	-0.251865	-0.755551	-0.776301
C251	C	0.081468	-0.422217	-0.442967
C252	C	0.414802	-0.088884	-0.109634
C253	C	-0.251843	-0.755566	-0.892454
C254	C	0.081490	-0.422232	-0.559121
C255	C	0.414823	-0.088899	-0.225787
C256	C	-0.251937	0.108112	-0.503793
C257	C	0.081396	0.441445	-0.170459
C258	C	0.414730	0.774779	0.162874
C259	C	-0.251944	0.049998	-0.503781
C260	C	0.081390	0.383331	-0.170448
C261	C	0.414723	0.716665	0.162886
C262	C	-0.220064	-0.787372	-0.944273
C263	C	0.113270	-0.454039	-0.610940
C264	C	0.446603	-0.120705	-0.277607
C265	C	-0.220041	-0.787388	-1.064324
C266	C	0.113293	-0.454055	-0.730990
C267	C	0.446626	-0.120722	-0.397657
C268	C	-0.251927	-0.755510	-0.232221
C269	C	0.081406	-0.422176	0.101113
C270	C	0.414739	-0.088843	0.434446
C271	C	-0.251801	-0.755596	-0.116068
C272	C	0.081532	-0.422262	0.217265
C273	C	0.414865	-0.088929	0.550599
H274	H	-0.191206	0.044931	-0.382739
H275	H	0.142128	0.378265	-0.049406
H276	H	0.475461	0.711598	0.283928
H277	H	-0.312674	-0.054148	-0.624789
H278	H	0.020659	0.279186	-0.291456
H279	H	0.353992	0.612519	0.041877
Br280	Br	-0.173010	-0.068935	-0.346504
Br281	Br	0.160323	0.264398	-0.013170
Br282	Br	0.493656	0.597732	0.320163
Br283	Br	-0.139524	-0.191419	-0.279771
Br284	Br	0.193809	0.141914	0.053562
Br285	Br	0.527142	0.475248	0.386895
H286	H	-0.346117	-0.305305	-0.691475
H287	H	-0.012784	0.028028	-0.358141
H288	H	0.320549	0.361361	-0.024808
H289	H	-0.953308	-0.694926	-0.624936
H290	H	-0.619975	-0.361593	-0.291602
H291	H	-0.286641	-0.028259	0.041731
Br292	Br	-0.174694	-0.832782	-1.138591
Br293	Br	0.158640	-0.499449	-0.805258
Br294	Br	0.491973	-0.166115	-0.471924
H295	H	-0.157692	-0.305286	-0.315967
H296	H	0.175641	0.028047	0.017366
H297	H	0.508975	0.361381	0.350699
Br298	Br	-0.174725	-0.832725	-0.870094
Br299	Br	0.158609	-0.499392	-0.536761
Br300	Br	0.491942	-0.166058	-0.203427
Br301	Br	-0.330815	-0.442618	-0.660934
Br302	Br	0.002518	-0.109285	-0.327600
Br303	Br	0.335851	0.224049	0.005733
H304	H	-0.312640	-0.556485	-0.624670
H305	H	0.020694	-0.223152	-0.291336
H306	H	0.354027	0.110182	0.041997
Br307	Br	-0.297162	-0.710193	-0.966633
Br308	Br	0.036171	-0.376859	-0.633300
Br309	Br	0.369505	-0.043526	-0.299967
Br310	Br	-0.172989	-0.442592	-0.346411
Br311	Br	0.160344	-0.109259	-0.013078
Br312	Br	0.493678	0.224075	0.320255
H313	H	-0.279013	-0.728366	-1.071512
H314	H	0.054321	-0.395032	-0.738178
H315	H	0.387654	-0.061699	-0.404845
H316	H	-0.550021	-0.694781	-0.624850
H317	H	-0.216688	-0.361447	-0.291517
H318	H	0.116646	-0.028114	0.041817
H319	H	-0.312679	0.044920	-0.624804
H320	H	0.020654	0.378253	-0.291470
H321	H	0.353988	0.711586	0.041863
Br322	Br	-0.816002	-0.643273	-0.727947
Br323	Br	-0.482669	-0.309939	-0.394614
Br324	Br	-0.149336	0.023394	-0.061280
Br325	Br	-0.687313	-0.643231	-0.727910
Br326	Br	-0.353980	-0.309898	-0.394577
Br327	Br	-0.020646	0.023436	-0.061243
H328	H	-0.346117	-0.206256	-0.691501
H329	H	-0.012783	0.127078	-0.358168
H330	H	0.320550	0.460411	-0.024835
Br331	Br	-0.172985	-0.571301	-0.346394
Br332	Br	0.160349	-0.237967	-0.013060
Br333	Br	0.493682	0.095366	0.320273
H334	H	-0.450934	-0.816137	-0.382569
H335	H	-0.117600	-0.482804	-0.049236
H336	H	0.215733	-0.149470	0.284098
H337	H	-0.450955	-0.694742	-0.624811
H338	H	-0.117622	-0.361409	-0.291478
H339	H	0.215712	-0.028075	0.041855
H340	H	-0.549984	-0.816185	-0.382601
H341	H	-0.216651	-0.482852	-0.049267
H342	H	0.116682	-0.149519	0.284066
H343	H	-0.801150	-0.849731	-0.315903
H344	H	-0.467817	-0.516397	0.017430
H345	H	-0.134483	-0.183064	0.350763
Br346	Br	-0.687282	-0.867857	-0.279636
Br347	Br	-0.353948	-0.534523	0.053697
Br348	Br	-0.020615	-0.201190	0.387031
H349	H	-0.953280	-0.816326	-0.382682
H350	H	-0.619947	-0.482992	-0.049348
H351	H	-0.286613	-0.149659	0.283985
H352	H	-1.052346	-0.816359	-0.382713
H353	H	-0.719013	-0.483026	-0.049380
H354	H	-0.385679	-0.149692	0.283953
H355	H	-1.052358	-0.694955	-0.624941
H356	H	-0.719025	-0.361621	-0.291608
H357	H	-0.385692	-0.028288	0.041725
