data_functionalizedCrystal
_audit_creation_method	'MofGen! by Chris Wilmer'
_symmetry_space_group_name_H-M	'P1'
_symmetry_Int_Tables_number	1
_symmetry_cell_setting	triclinic
loop_
_symmetry_equiv_pos_as_xyz
  x,y,z
_cell_length_a	16.109301
_cell_length_b	11.792254
_cell_length_c	14.586319
_cell_angle_alpha	89.996031
_cell_angle_beta	89.999213
_cell_angle_gamma	83.830039
loop_
_atom_site_label
_atom_site_type_symbol
_atom_site_fract_x
_atom_site_fract_y
_atom_site_fract_z
O1	O	1.103822	0.145884	-0.076183
O2	O	0.861846	0.164039	-0.076197
O3	O	0.988701	-0.010259	-0.076183
O4	O	0.976968	0.320183	-0.076197
O5	O	0.988692	-0.010262	0.076298
O6	O	0.861837	0.164037	0.076283
O7	O	1.103813	0.145882	0.076298
Cu8	Cu	0.982825	0.154959	0.090213
Cu9	Cu	0.982835	0.154962	-0.090113
O10	O	0.976959	0.320180	0.076284
C11	C	0.830863	0.163303	0.000041
C12	C	0.738558	0.161098	0.000036
C13	C	0.516751	0.259397	0.000042
C14	C	0.430021	0.257316	0.000048
C15	C	0.448915	0.050517	0.000053
C16	C	0.535644	0.052598	0.000054
C17	C	0.569559	0.157042	0.000044
C18	C	0.396100	0.152880	0.000049
C19	C	0.302064	0.150623	0.000055
C20	C	0.663602	0.159299	0.000039
C21	C	0.987957	-0.052545	0.000057
C22	C	0.985745	-0.178538	0.000056
C23	C	0.983948	-0.280859	0.000053
C24	C	0.981700	-0.409226	0.000044
C25	C	1.134796	0.146618	0.000057
C26	C	1.227102	0.148823	0.000057
C27	C	0.977702	0.362466	0.000042
C28	C	0.979915	0.488459	0.000037
N29	N	0.982823	0.154956	0.217045
N30	N	0.982843	0.154956	-0.216944
C31	C	1.039013	0.077803	0.452058
C32	C	1.039016	0.077800	0.548039
C33	C	0.926647	0.232113	0.548036
C34	C	0.926641	0.232110	0.452057
C35	C	0.982829	0.154956	0.404070
C36	C	0.982837	0.154957	0.596031
C37	C	0.982839	0.154954	0.700098
C38	C	0.982826	0.154956	0.299996
H39	H	0.387028	0.340664	0.000049
O40	O	0.549599	0.360919	-0.000082
C41	C	0.560021	0.538287	-0.079104
C42	C	0.522755	0.423361	-0.079070
H43	H	0.538347	0.588793	-0.142968
H44	H	0.538285	0.588937	-0.015333
H45	H	0.631078	0.522171	-0.079060
H46	H	0.451697	0.439372	-0.079145
H47	H	0.544557	0.372747	-0.142834
H48	H	0.578643	-0.030756	0.000057
O49	O	0.872144	0.307220	0.405478
C50	C	0.824286	0.504549	0.376135
C51	C	0.886063	0.419622	0.428925
H52	H	0.835506	0.595444	0.395087
H53	H	0.833931	0.491390	0.299282
H54	H	0.757640	0.489676	0.395002
H55	H	0.952733	0.434444	0.410134
H56	H	0.876345	0.432801	0.505764
H57	H	0.421290	-0.034517	0.000067
H58	H	1.084764	0.014978	0.412989
O59	O	1.093675	0.002813	0.594512
C60	C	1.205097	-0.150287	0.584380
C61	C	1.143252	-0.065403	0.531636
H62	H	1.245184	-0.205478	0.533568
H63	H	1.246909	-0.101328	0.629285
H64	H	1.168934	-0.206952	0.629345
H65	H	1.179347	-0.008717	0.486621
H66	H	1.101440	-0.114433	0.486789
H67	H	0.880901	0.294932	0.587116
