data_functionalizedCrystal
_audit_creation_method	'MofGen! by Chris Wilmer'
_symmetry_space_group_name_H-M	'P1'
_symmetry_Int_Tables_number	1
_symmetry_cell_setting	triclinic
loop_
_symmetry_equiv_pos_as_xyz
  x,y,z
_cell_length_a	14.971486
_cell_length_b	14.971482
_cell_length_c	14.048226
_cell_angle_alpha	89.994098
_cell_angle_beta	90.004507
_cell_angle_gamma	96.386577
loop_
_atom_site_label
_atom_site_type_symbol
_atom_site_fract_x
_atom_site_fract_y
_atom_site_fract_z
O1	O	-0.116549	1.186949	-0.079144
O2	O	-0.130511	0.926549	-0.079148
O3	O	0.006670	1.063728	-0.079144
O4	O	-0.253730	1.049770	-0.079148
O5	O	0.006678	1.063712	0.079177
O6	O	-0.130503	0.926532	0.079173
O7	O	-0.116541	1.186933	0.079177
Zn8	Zn	-0.123520	1.056730	0.104312
Zn9	Zn	-0.123531	1.056752	-0.104283
O10	O	-0.253722	1.049753	0.079173
C11	C	-0.129883	0.893216	0.000012
C12	C	-0.128014	0.793918	0.000010
C13	C	-0.127129	0.747265	0.086312
C14	C	-0.125358	0.653966	0.086313
C15	C	-0.124479	0.607322	0.000011
C16	C	-0.125361	0.653983	-0.086297
C17	C	-0.127125	0.747280	-0.086297
C18	C	-0.121686	0.459521	-0.086291
C19	C	-0.119923	0.366217	-0.086292
C20	C	-0.119918	0.366207	0.086319
C21	C	-0.121683	0.459504	0.086319
C22	C	-0.122567	0.506158	0.000010
C23	C	-0.287051	1.050386	0.000012
C24	C	-0.386348	1.052256	0.000011
C25	C	-0.432999	1.053145	-0.086291
C26	C	-0.526297	1.054915	-0.086292
C27	C	-0.572944	1.055789	0.000009
C28	C	-0.526286	1.054902	0.086318
C29	C	-0.432988	1.053140	0.086318
C30	C	-0.720748	1.058575	0.086312
C31	C	-0.814053	1.060336	0.086312
C32	C	-0.814057	1.060350	-0.086299
C33	C	-0.720760	1.058587	-0.086299
C34	C	-0.674108	1.057699	0.000010
C35	C	0.039999	1.063096	0.000015
C36	C	0.139296	1.061225	0.000010
C37	C	-0.117168	1.220266	0.000015
C38	C	-0.119038	1.319563	0.000010
N39	N	-0.123513	1.056721	0.246673
N40	N	-0.123532	1.056767	-0.246644
C41	C	-0.062794	1.117484	0.296492
C42	C	-0.062793	1.117490	0.396150
C43	C	-0.123517	1.056737	0.445986
C44	C	-0.184238	0.995968	0.396160
C45	C	-0.184234	0.995959	0.296504
C46	C	-0.184245	0.995994	0.603874
C47	C	-0.184251	0.996005	0.703536
C48	C	-0.062804	1.117525	0.703520
C49	C	-0.062800	1.117516	0.603864
C50	C	-0.123523	1.056748	0.554045
H51	H	-0.127847	0.785264	-0.156573
H52	H	-0.013350	1.166959	0.255922
C53	C	-0.118940	0.314903	-0.181220
C54	C	-0.041560	0.337807	-0.252402
C55	C	-0.040572	0.286491	-0.347329
C56	C	-0.116965	0.212270	-0.371075
C57	C	-0.194351	0.189362	-0.299891
C58	C	-0.195338	0.240678	-0.204963
H59	H	0.014996	0.392753	-0.234825
H60	H	0.016714	0.303450	-0.400024
H61	H	-0.116234	0.174283	-0.441346
H62	H	-0.250906	0.134416	-0.317467
H63	H	-0.252624	0.223719	-0.152269
H64	H	-0.852034	1.061019	0.156586
H65	H	-0.124638	0.615999	-0.156566
H66	H	-0.395027	1.052425	-0.156568
C67	C	-0.251042	0.929169	0.758354
C68	C	-0.317823	0.862322	0.703551
C69	C	-0.384616	0.795485	0.758366
C70	C	-0.384627	0.795495	0.867983
C71	C	-0.317843	0.862345	0.922792
C72	C	-0.251050	0.929182	0.867977
H73	H	-0.317817	0.862312	0.622400
H74	H	-0.434054	0.745998	0.717792
H75	H	-0.434070	0.746017	0.908560
H76	H	-0.317849	0.862354	1.003943
H77	H	-0.201613	0.978669	0.908551
H78	H	-0.564276	1.055640	-0.156568
H79	H	-0.127852	0.785235	0.156589
H80	H	-0.564273	1.055620	0.156587
H81	H	-0.852046	1.061065	-0.156575
C82	C	0.003995	1.184367	0.758320
C83	C	0.003996	1.184375	0.867938
C84	C	0.070788	1.251217	0.922744
C85	C	0.137579	1.318050	0.867933
C86	C	0.137580	1.318045	0.758309
C87	C	0.070788	1.251203	0.703503
H88	H	-0.045449	1.134898	0.908518
H89	H	0.070787	1.251220	1.003895
H90	H	0.187023	1.367531	0.908503
H91	H	0.187025	1.367522	0.717729
H92	H	0.070789	1.251199	0.622352
C93	C	-0.669424	1.057579	0.181247
C94	C	-0.692327	0.980188	0.252426
C95	C	-0.641001	0.979179	0.347355
C96	C	-0.566771	1.055562	0.371105
C97	C	-0.543864	1.132959	0.299924
C98	C	-0.595191	1.133967	0.204995
H99	H	-0.747280	0.923640	0.234846
H100	H	-0.657958	0.921884	0.400048
H101	H	-0.528775	1.054815	0.441377
H102	H	-0.488911	1.189507	0.317503
H103	H	-0.578233	1.191262	0.152302
H104	H	-0.122406	0.497503	-0.156573
H105	H	-0.124623	0.615987	0.156589
H106	H	-0.682783	1.057870	-0.156574
H107	H	-0.395006	1.052415	0.156594
C108	C	0.003993	1.184343	0.549039
C109	C	0.105854	1.182742	0.562747
C110	C	0.172649	1.249567	0.507920
C111	C	0.137583	1.317993	0.439387
C112	C	0.035717	1.319597	0.425676
C113	C	-0.031078	1.252771	0.480503
H114	H	0.131817	1.132086	0.613482
H115	H	0.248057	1.248380	0.518070
H116	H	0.187029	1.367461	0.398801
H117	H	0.009755	1.370252	0.374941
H118	H	-0.106486	1.253958	0.470353
H119	H	-0.122404	0.497479	0.156594
H120	H	-0.013351	1.166966	0.436713
H121	H	-0.233689	0.946508	0.563314
H122	H	-0.119199	0.328217	0.156595
H123	H	-0.233677	0.946498	0.436742
H124	H	-0.233676	0.946479	0.255941
