data_functionalizedCrystal
_audit_creation_method	'MofGen! by Chris Wilmer'
_symmetry_space_group_name_H-M	'P1'
_symmetry_Int_Tables_number	1
_symmetry_cell_setting	triclinic
loop_
_symmetry_equiv_pos_as_xyz
  x,y,z
_cell_length_a	19.805407
_cell_length_b	29.839131
_cell_length_c	19.805399
_cell_angle_alpha	89.962782
_cell_angle_beta	89.982197
_cell_angle_gamma	90.032545
loop_
_atom_site_label
_atom_site_type_symbol
_atom_site_fract_x
_atom_site_fract_y
_atom_site_fract_z
Zn1	Zn	1.034694	-0.178896	-0.382642
Zn2	Zn	1.034592	-0.254024	-0.269435
Zn3	Zn	0.921509	-0.178905	-0.269470
Zn4	Zn	0.921455	-0.253996	-0.382585
O5	O	0.978062	-0.216455	-0.326033
O6	O	1.129397	-0.188870	-0.367634
O7	O	1.019571	-0.244074	-0.174723
O8	O	0.936589	-0.116036	-0.284522
O9	O	1.129322	-0.244065	-0.284461
O10	O	1.019745	-0.116030	-0.367668
O11	O	0.936489	-0.188885	-0.174749
O12	O	0.826785	-0.188858	-0.284466
O13	O	0.936497	-0.244019	-0.477309
O14	O	0.826745	-0.244027	-0.367571
O15	O	1.019693	-0.188843	-0.477351
O16	O	1.019518	-0.316887	-0.284406
O17	O	0.936397	-0.316867	-0.367537
C18	C	0.802206	-0.216441	-0.326017
C19	C	0.726974	-0.216446	-0.326026
C20	C	0.691670	-0.187756	-0.369400
C21	C	0.620982	-0.187758	-0.369402
C22	C	0.585599	-0.216453	-0.326034
C23	C	0.620908	-0.245144	-0.282655
C24	C	0.691595	-0.245139	-0.282650
C25	C	0.335835	-0.245164	-0.282676
C26	C	0.265143	-0.245168	-0.282686
C27	C	0.265221	-0.187784	-0.369429
C28	C	0.335908	-0.187779	-0.369423
C29	C	0.371211	-0.216468	-0.326042
C30	C	0.447860	-0.216464	-0.326039
C31	C	0.508952	-0.216459	-0.326040
C32	C	0.977959	-0.333178	-0.325976
C33	C	0.977977	-0.383112	-0.325974
C34	C	1.021353	-0.692717	-0.369390
C35	C	1.021426	-0.880390	-0.369430
O36	O	1.058205	-0.904622	-0.406301
N37	N	0.978177	-0.903897	-0.326108
C38	C	0.934904	-0.880483	-0.282776
O39	O	0.898115	-0.904783	-0.245934
C40	C	0.934828	-0.692811	-0.282740
C41	C	0.978084	-0.669306	-0.326059
C42	C	1.064605	-0.669213	-0.412706
C43	C	1.064589	-0.622297	-0.412693
C44	C	1.021320	-0.598886	-0.369363
C45	C	0.978068	-0.622391	-0.326046
C46	C	0.891551	-0.669397	-0.239412
C47	C	0.891535	-0.622476	-0.239407
C48	C	0.934791	-0.598972	-0.282727
C49	C	0.934783	-0.552064	-0.282703
N50	N	0.978032	-0.528558	-0.326025
C51	C	1.021300	-0.551968	-0.369355
C52	C	0.934948	-0.979013	-0.282798
C53	C	0.934968	-1.025931	-0.282806
C54	C	1.021489	-1.025835	-0.369461
C55	C	1.021472	-0.978917	-0.369449
C56	C	0.978197	-0.955507	-0.326120
C57	C	1.021264	-0.453443	-0.369324
C58	C	1.021246	-0.406523	-0.369304
C59	C	0.934722	-0.406623	-0.282652
C60	C	0.934742	-0.453539	-0.282669
C61	C	0.978015	-0.476947	-0.326010
O62	O	0.898018	-0.527803	-0.245857
O63	O	1.058073	-0.527660	-0.406202
C64	C	1.021369	-0.739633	-0.369403
C65	C	0.978116	-0.763137	-0.326086
C66	C	0.934848	-0.739726	-0.282756
C67	C	0.978136	-0.810055	-0.326094
C68	C	1.021405	-0.833466	-0.369424
C69	C	1.064654	-0.809959	-0.412746
C70	C	1.064637	-0.763044	-0.412733
C71	C	0.891599	-0.763233	-0.239434
C72	C	0.891619	-0.810149	-0.239450
C73	C	0.934888	-0.833560	-0.282780
C74	C	1.154605	-0.216470	-0.326050
C75	C	1.229837	-0.216476	-0.326057
C76	C	0.978100	-0.216427	-0.502576
C77	C	0.978117	-0.216415	-0.577808
C78	C	0.978184	-0.099277	-0.326105
C79	C	0.978236	-0.049342	-0.326136
C80	C	1.021438	-0.187683	-0.613175
C81	C	1.021445	-0.187670	-0.683864
C82	C	0.978133	-0.216391	-0.719184
C83	C	0.934807	-0.245124	-0.683812
C84	C	0.934797	-0.245134	-0.613125
C85	C	0.934845	-0.245082	-0.968885
C86	C	0.934860	-0.245070	-1.039577
C87	C	1.021493	-0.187618	-1.039624
C88	C	1.021483	-0.187628	-0.968937
C89	C	0.978155	-0.216359	-0.933571
C90	C	0.978147	-0.216372	-0.856923
C91	C	0.978144	-0.216381	-0.795831
C92	C	0.978063	-0.216451	-0.150177
C93	C	0.978178	-0.216336	-0.074946
H94	H	1.056473	-0.387387	-0.404581
C95	C	1.069147	-0.156008	-1.078533
N96	N	1.105039	-0.132199	-1.107838
H97	H	1.056754	-0.164242	-0.940183
H98	H	0.364714	-0.164414	-0.404740
C99	C	0.887162	-0.479394	-0.235011
N100	N	0.851318	-0.498866	-0.199119
C101	C	0.887388	-1.051781	-0.235145
N102	N	0.851545	-1.071249	-0.199249
H103	H	0.899540	-0.268508	-0.712575
C104	C	1.112177	-0.596448	-0.460347
N105	N	1.148024	-0.576982	-0.496241
H106	H	0.364570	-0.268525	-0.247353
H107	H	1.056723	-0.164275	-0.712656
H108	H	0.592094	-0.268506	-0.247341
H109	H	0.592240	-0.164397	-0.404723
C110	C	0.887207	-0.276664	-1.078428
N111	N	0.851316	-0.300459	-1.107690
H112	H	0.899575	-0.268483	-0.940099
C113	C	1.068871	-0.479185	-0.416996
N114	N	1.104733	-0.498574	-0.452900
C115	C	0.843928	-0.596728	-0.191740
N116	N	0.808072	-0.577336	-0.155835
H117	H	0.236469	-0.164422	-0.404749
C118	C	0.226223	-0.276732	-0.234970
N119	N	0.196908	-0.300504	-0.199030
C120	C	0.887142	-0.276742	-0.574221
N121	N	0.851245	-0.300549	-0.544920
H122	H	0.720474	-0.164391	-0.404717
H123	H	0.720339	-0.268501	-0.247330
H124	H	1.099839	-0.688269	-0.447995
H125	H	1.056695	-0.959782	-0.404724
H126	H	1.056721	-1.044905	-0.404741
H127	H	0.856327	-0.688527	-0.204136
C128	C	0.887331	-0.953268	-0.235136
N129	N	0.851465	-0.933879	-0.199238
C130	C	0.887126	-0.380862	-0.234994
N131	N	0.851272	-0.361457	-0.199102
H132	H	1.099861	-0.743910	-0.448008
C133	C	1.112248	-0.835720	-0.460410
N134	N	1.148092	-0.855126	-0.496312
H135	H	0.856396	-0.829282	-0.204168
C136	C	0.843989	-0.737488	-0.191773
N137	N	0.808126	-0.718098	-0.155871
C138	C	1.069084	-0.156087	-0.574330
N139	N	1.104970	-0.132286	-0.545073
