data_functionalizedCrystal
_audit_creation_method	'MofGen! by Chris Wilmer'
_symmetry_space_group_name_H-M	'P1'
_symmetry_Int_Tables_number	1
_symmetry_cell_setting	triclinic
loop_
_symmetry_equiv_pos_as_xyz
  x,y,z
_cell_length_a	16.120530
_cell_length_b	16.120484
_cell_length_c	16.120297
_cell_angle_alpha	95.614431
_cell_angle_beta	90.128140
_cell_angle_gamma	90.167327
loop_
_atom_site_label
_atom_site_type_symbol
_atom_site_fract_x
_atom_site_fract_y
_atom_site_fract_z
Zn1	Zn	1.224987	-0.422264	-0.554813
Zn2	Zn	1.224883	-0.554948	-0.422118
Zn3	Zn	1.093726	-0.408180	-0.408056
Zn4	Zn	1.078880	-0.554181	-0.554051
O5	O	1.155619	-0.484893	-0.484760
O6	O	1.341009	-0.446081	-0.543415
O7	O	1.213654	-0.529906	-0.303620
O8	O	1.117395	-0.293418	-0.421958
O9	O	1.340932	-0.543563	-0.445925
O10	O	1.213832	-0.303765	-0.529780
O11	O	1.117294	-0.422076	-0.293289
O12	O	0.975721	-0.421332	-0.421218
O13	O	1.092092	-0.542255	-0.670785
O14	O	0.964814	-0.528598	-0.528480
O15	O	1.199436	-0.445336	-0.671345
O16	O	1.199258	-0.671477	-0.445185
O17	O	1.091990	-0.670913	-0.542116
C18	C	0.940181	-0.473354	-0.473241
C19	C	0.848013	-0.468438	-0.468334
C20	C	0.679262	-0.459445	-0.459381
C21	C	0.632810	-0.510407	-0.510202
C22	C	0.538911	-0.505403	-0.505220
C23	C	0.773169	-0.464448	-0.464361
C24	C	1.144023	-0.701438	-0.495113
C25	C	1.139137	-0.794083	-0.499574
C26	C	1.130220	-0.963706	-0.507736
C27	C	1.181166	-1.005249	-0.461804
C28	C	1.176204	-1.099633	-0.466346
C29	C	1.135180	-0.869313	-0.503196
C30	C	1.371899	-0.496479	-0.496324
C31	C	1.464064	-0.501416	-0.501252
C32	C	1.144119	-0.495281	-0.702152
C33	C	1.139219	-0.499708	-0.794791
C34	C	1.167282	-0.267505	-0.474385
C35	C	1.172251	-0.174867	-0.469964
C36	C	1.130243	-0.507770	-0.964403
C37	C	1.181172	-0.461776	-1.005965
C38	C	1.176177	-0.466262	-1.100342
C39	C	1.135236	-0.503285	-0.870017
C40	C	1.167125	-0.474489	-0.268213
C41	C	1.172198	-0.469836	-0.175571
H42	H	1.228508	-0.969931	-0.419069
O43	O	1.073762	-1.005958	-0.558640
C44	C	1.081326	-1.092154	-0.551902
H45	H	1.111338	-1.102322	-0.489616
H46	H	1.017204	-1.122315	-0.555739
H47	H	1.121551	-1.121527	-0.604899
O48	O	1.237632	-0.410841	-0.963735
C49	C	1.230097	-0.417626	-0.877538
H50	H	1.200113	-0.479947	-0.867371
H51	H	1.294227	-0.413739	-0.847434
H52	H	1.189861	-0.364679	-0.848107
H53	H	1.082894	-0.550512	-0.999698
O54	O	0.669624	-0.566921	-0.566497
C55	C	0.756542	-0.559392	-0.559010
H56	H	0.773118	-0.529532	-0.494034
H57	H	0.785900	-0.623820	-0.569258
H58	H	0.780893	-0.518739	-0.607683
O59	O	0.642448	-0.402989	-0.403036
C60	C	0.555532	-0.410495	-0.410556
H61	H	0.538935	-0.475545	-0.440222
H62	H	0.526127	-0.400046	-0.346146
H63	H	0.531249	-0.361967	-0.451381
