data_functionalizedCrystal
_audit_creation_method	'MofGen! by Chris Wilmer'
_symmetry_space_group_name_H-M	'P1'
_symmetry_Int_Tables_number	1
_symmetry_cell_setting	triclinic
loop_
_symmetry_equiv_pos_as_xyz
  x,y,z
_cell_length_a	9.065215
_cell_length_b	19.188924
_cell_length_c	8.140239
_cell_angle_alpha	89.994423
_cell_angle_beta	89.997810
_cell_angle_gamma	84.078331
loop_
_atom_site_label
_atom_site_type_symbol
_atom_site_fract_x
_atom_site_fract_y
_atom_site_fract_z
O1	O	1.956844	0.102360	-0.136603
O2	O	2.456844	0.602360	0.363397
O3	O	1.527267	0.110759	-0.136611
O4	O	2.027267	0.610759	0.363389
O5	O	1.754457	0.005000	-0.136588
O6	O	2.254457	0.505000	0.363412
O7	O	1.729653	0.208119	-0.136627
O8	O	2.229653	0.708119	0.363373
O9	O	1.754445	0.004999	0.136639
O10	O	2.254445	0.504999	0.636639
O11	O	1.527254	0.110758	0.136616
O12	O	2.027254	0.610758	0.636616
O13	O	1.956831	0.102359	0.136624
O14	O	2.456831	0.602359	0.636624
Zn15	Zn	1.742041	0.106558	0.180000
Zn16	Zn	2.242041	0.606558	0.680000
Zn17	Zn	1.742057	0.106560	-0.179988
Zn18	Zn	2.242057	0.606560	0.320012
O19	O	1.729641	0.208118	0.136600
O20	O	2.229641	0.708118	0.636600
C21	C	1.472302	0.109952	0.000001
C22	C	1.972302	0.609952	0.500001
C23	C	1.308542	0.107540	-0.000001
C24	C	1.808542	0.607540	0.499999
C25	C	1.753649	-0.021018	0.000027
C26	C	2.253649	0.478982	0.500027
C27	C	1.751243	-0.098542	0.000032
C28	C	2.251243	0.401458	0.500032
C29	C	1.750127	-0.134948	-0.148905
C30	C	2.250127	0.365052	0.351095
C31	C	1.747845	-0.207789	-0.148917
C32	C	2.247845	0.292211	0.351083
C33	C	1.746710	-0.244221	0.000015
C34	C	2.246710	0.255779	0.500015
C35	C	1.747818	-0.207805	0.148971
C36	C	2.247818	0.292195	0.648971
C37	C	1.750084	-0.134965	0.148979
C38	C	2.250084	0.365035	0.648979
N39	N	1.827096	-0.363261	0.110863
N40	N	2.327096	0.136739	0.610863
N41	N	1.824945	-0.432456	0.110845
N42	N	2.324945	0.067544	0.610845
C43	C	1.739876	-0.463683	-0.000001
C44	C	2.239876	0.036317	0.499999
N45	N	1.657057	-0.423103	-0.110854
N46	N	2.157057	0.076897	0.389146
N47	N	1.659214	-0.353902	-0.110840
N48	N	2.159214	0.146098	0.389160
C49	C	1.744251	-0.323204	0.000023
C50	C	2.244251	0.176796	0.500023
C51	C	1.736284	-0.579072	-0.148961
C52	C	2.236284	-0.079072	0.351039
C53	C	1.733993	-0.651913	-0.148968
C54	C	2.233993	-0.151913	0.351032
C55	C	1.733980	-0.651929	0.148925
C56	C	2.233980	-0.151929	0.648925
C57	C	1.736256	-0.579088	0.148927
C58	C	2.236256	-0.079088	0.648927
C59	C	1.737415	-0.542665	-0.000020
C60	C	2.237415	-0.042665	0.499980
C61	C	2.011796	0.103166	0.000007
C62	C	2.511796	0.603166	0.500007
C63	C	2.175556	0.105578	-0.000001
C64	C	2.675556	0.605578	0.499999
C65	C	1.730449	0.234136	-0.000018
C66	C	2.230449	0.734136	0.499982
C67	C	1.732855	0.311659	-0.000034
C68	C	2.232855	0.811659	0.499966
N69	N	1.742040	0.106557	0.425683
N70	N	2.242040	0.606557	0.925683
N71	N	1.742069	0.106556	-0.425671
N72	N	2.242069	0.606556	0.074329
H73	H	1.746927	-0.237437	-0.270203
H74	H	2.246927	0.262563	0.229797
H75	H	1.737219	-0.549414	-0.270243
H76	H	2.237219	-0.049414	0.229757
H77	H	1.746888	-0.237473	0.270233
H78	H	2.246888	0.262527	0.770233
C79	C	1.751397	-0.094883	-0.312736
C80	C	2.251397	0.405117	0.187264
H81	H	1.752921	-0.046287	-0.291405
H82	H	2.252921	0.453713	0.208595
H83	H	1.665028	-0.102035	-0.373949
H84	H	2.165028	0.397965	0.126051
H85	H	1.837055	-0.111601	-0.373917
H86	H	2.337055	0.388399	0.126083
C87	C	1.732719	-0.691995	0.312749
C88	C	2.232719	-0.191995	0.812749
H89	H	1.731213	-0.740591	0.291415
H90	H	2.231213	-0.240591	0.791415
H91	H	1.647078	-0.675276	0.373939
H92	H	2.147078	-0.175276	0.873939
H93	H	1.819105	-0.684847	0.373953
H94	H	2.319105	-0.184847	0.873953
C95	C	1.732758	-0.691961	-0.312806
C96	C	2.232758	-0.191961	0.187194
H97	H	1.733785	-0.659834	-0.401506
H98	H	2.233785	-0.159834	0.098494
H99	H	1.645863	-0.715591	-0.319011
H100	H	2.145863	-0.215591	0.180989
H101	H	1.817890	-0.725160	-0.318991
H102	H	2.317890	-0.225160	0.181009
C103	C	1.737509	-0.539040	0.312759
C104	C	2.237509	-0.039040	0.812759
H105	H	1.736519	-0.571169	0.401459
H106	H	2.236519	-0.071169	0.901459
H107	H	1.652389	-0.505841	0.318958
H108	H	2.152389	-0.005841	0.818958
H109	H	1.824416	-0.515411	0.318949
H110	H	2.324416	-0.015411	0.818949
H111	H	1.750987	-0.105323	0.270265
H112	H	2.250987	0.394677	0.770265
