data_functionalizedCrystal
_audit_creation_method	'MofGen! by Chris Wilmer'
_symmetry_space_group_name_H-M	'P1'
_symmetry_Int_Tables_number	1
_symmetry_cell_setting	triclinic
loop_
_symmetry_equiv_pos_as_xyz
  x,y,z
_cell_length_a	19.805407
_cell_length_b	25.639239
_cell_length_c	25.639233
_cell_angle_alpha	89.981253
_cell_angle_beta	89.985655
_cell_angle_gamma	90.038686
loop_
_atom_site_label
_atom_site_type_symbol
_atom_site_fract_x
_atom_site_fract_y
_atom_site_fract_z
Zn1	Zn	1.034643	-0.208214	-0.295633
Zn2	Zn	1.534643	0.291786	0.204367
Zn3	Zn	1.034544	-0.295633	-0.208197
Zn4	Zn	1.534544	0.204367	0.291803
Zn5	Zn	0.921468	-0.208214	-0.208209
Zn6	Zn	1.421468	0.291786	0.291791
Zn7	Zn	0.921397	-0.295621	-0.295599
Zn8	Zn	1.421397	0.204379	0.204401
O9	O	0.978013	-0.251920	-0.251910
O10	O	1.478013	0.248080	0.248090
O11	O	1.129346	-0.219816	-0.284044
O12	O	1.629346	0.280184	0.215956
O13	O	1.019532	-0.284042	-0.135034
O14	O	1.519532	0.215958	0.364966
O15	O	0.936552	-0.135048	-0.219825
O16	O	1.436552	0.364952	0.280175
O17	O	1.129274	-0.284043	-0.219805
O18	O	1.629274	0.215957	0.280195
O19	O	1.019701	-0.135049	-0.284055
O20	O	1.519701	0.364951	0.215945
O21	O	0.936456	-0.219815	-0.135042
O22	O	1.436456	0.280185	0.364958
O23	O	0.826742	-0.219803	-0.219792
O24	O	1.326742	0.280197	0.280208
O25	O	0.936431	-0.284021	-0.368769
O26	O	1.436431	0.215979	0.131231
O27	O	0.826690	-0.284020	-0.283998
O28	O	1.326690	0.215980	0.216002
O29	O	1.019632	-0.219804	-0.368794
O30	O	1.519632	0.280196	0.131206
O31	O	1.019463	-0.368797	-0.219773
O32	O	1.519463	0.131203	0.280227
O33	O	0.936335	-0.368788	-0.283986
O34	O	1.436335	0.131212	0.216014
C35	C	0.802157	-0.251910	-0.251893
C36	C	1.302157	0.248090	0.248107
C37	C	0.726925	-0.251919	-0.251898
C38	C	1.226925	0.248081	0.248102
C39	C	0.977899	-0.387763	-0.251886
C40	C	1.477899	0.112237	0.248114
C41	C	0.977912	-0.445877	-0.251893
C42	C	1.477912	0.054123	0.248107
C43	C	0.691571	-0.285407	-0.285276
C44	C	1.191571	0.214593	0.214724
C45	C	0.620883	-0.285408	-0.285283
C46	C	1.120883	0.214592	0.214717
C47	C	0.585549	-0.251923	-0.251910
C48	C	1.085549	0.248077	0.248090
C49	C	0.620908	-0.218431	-0.218531
C50	C	1.120908	0.281569	0.281469
C51	C	0.691595	-0.218428	-0.218526
C52	C	1.191595	0.281572	0.281474
C53	C	0.335835	-0.218442	-0.218548
C54	C	0.835835	0.281558	0.281452
C55	C	0.265143	-0.218449	-0.218554
C56	C	0.765143	0.281551	0.281446
C57	C	0.265122	-0.285423	-0.285305
C58	C	0.765122	0.214577	0.214695
C59	C	0.335810	-0.285420	-0.285300
C60	C	0.835810	0.214580	0.214700
C61	C	0.371162	-0.251926	-0.251923
C62	C	0.871162	0.248074	0.248077
C63	C	0.447810	-0.251925	-0.251917
C64	C	0.947810	0.248075	0.248083
C65	C	0.508902	-0.251926	-0.251914
C66	C	1.008902	0.248074	0.248086
C67	C	1.021411	-0.806232	-0.218531
C68	C	1.521411	-0.306232	0.281469
C69	C	1.021437	-0.860837	-0.218538
C70	C	1.521437	-0.360837	0.281462
O71	O	1.058303	-0.889067	-0.190145
O72	O	1.558303	-0.389067	0.309855
N73	N	0.978132	-0.888159	-0.251944
N74	N	1.478132	-0.388159	0.248056
C75	C	0.934802	-0.860875	-0.285350
C76	C	1.434802	-0.360875	0.214650
O77	O	0.897971	-0.889129	-0.313766
O78	O	1.397971	-0.389129	0.186234
C79	C	0.934780	-0.806272	-0.285345
C80	C	1.434780	-0.306272	0.214655
C81	C	0.978083	-0.778952	-0.251933
C82	C	1.478083	-0.278952	0.248067
C83	C	1.064711	-0.778912	-0.185121
C84	C	1.564711	-0.278912	0.314879
C85	C	1.064684	-0.724312	-0.185114
C86	C	1.564684	-0.224312	0.314886
C87	C	1.021356	-0.697031	-0.218516
C88	C	1.521356	-0.197031	0.281484
C89	C	0.978056	-0.724351	-0.251925
C90	C	1.478056	-0.224351	0.248075
C91	C	0.891455	-0.778989	-0.318753
C92	C	1.391455	-0.278989	0.181247
C93	C	0.891436	-0.724382	-0.318746
C94	C	1.391436	-0.224382	0.181254
C95	C	0.934740	-0.697062	-0.285333
C96	C	1.434740	-0.197062	0.214667
C97	C	0.934701	-0.642470	-0.285320
C98	C	1.434701	-0.142470	0.214680
N99	N	0.978006	-0.615148	-0.251913
N100	N	1.478006	-0.115148	0.248087
C101	C	1.021334	-0.642428	-0.218511
C102	C	1.521334	-0.142428	0.281489
C103	C	0.934853	-0.975546	-0.285358
C104	C	1.434853	-0.475546	0.214642
C105	C	0.934872	-1.030148	-0.285361
C106	C	1.434872	-0.530148	0.214639
C107	C	1.021508	-1.030106	-0.218549
C108	C	1.521508	-0.530106	0.281451
C109	C	1.021485	-0.975502	-0.218544
C110	C	1.521485	-0.475502	0.281456
C111	C	0.978159	-0.948223	-0.251951
C112	C	1.478159	-0.448223	0.248049
C113	C	1.021273	-0.527763	-0.218497
C114	C	1.521273	-0.027763	0.281503
C115	C	1.021240	-0.473158	-0.218491
C116	C	1.521240	0.026842	0.281509
C117	C	0.934607	-0.473205	-0.285305
C118	C	1.434607	0.026795	0.214695
C119	C	0.934637	-0.527805	-0.285309
C120	C	1.434637	-0.027805	0.214691
C121	C	0.977976	-0.555083	-0.251904
C122	C	1.477976	-0.055083	0.248096
O123	O	0.897856	-0.614206	-0.313699
O124	O	1.397856	-0.114206	0.186301
O125	O	1.058166	-0.614167	-0.190104
O126	O	1.558166	-0.114167	0.309896
C127	C	1.154556	-0.251931	-0.251927
C128	C	1.654556	0.248069	0.248073
C129	C	1.229788	-0.251935	-0.251934
C130	C	1.729788	0.248065	0.248066
C131	C	0.978035	-0.251911	-0.388283
C132	C	1.478035	0.248089	0.111717
C133	C	0.978044	-0.251907	-0.446397
C134	C	1.478044	0.248093	0.053603
C135	C	0.978146	-0.115547	-0.251945
C136	C	1.478146	0.384453	0.248055
C137	C	0.978202	-0.057433	-0.251960
C138	C	1.478202	0.442567	0.248040
C139	C	1.021422	-0.218370	-0.806779
C140	C	1.521422	0.281630	-0.306779
C141	C	1.021430	-0.218356	-0.861383
C142	C	1.521430	0.281644	-0.361383
O143	O	1.058257	-0.189903	-0.889636
O144	O	1.558257	0.310097	-0.389636
N145	N	0.978119	-0.251785	-0.888680
N146	N	1.478119	0.248215	-0.388680
C147	C	0.934791	-0.285227	-0.861369
C148	C	1.434791	0.214773	-0.361369
O149	O	0.897951	-0.313659	-0.889601
O150	O	1.397951	0.186341	-0.389601
C151	C	0.934780	-0.285238	-0.806766
C152	C	1.434780	0.214762	-0.306766
C153	C	0.978099	-0.251811	-0.779472
C154	C	1.478099	0.248189	-0.279472
C155	C	1.064737	-0.184945	-0.779485
C156	C	1.564737	0.315055	-0.279485
C157	C	1.064730	-0.184960	-0.724884
C158	C	1.564730	0.315040	-0.224884
C159	C	1.021407	-0.218401	-0.697578
C160	C	1.521407	0.281599	-0.197578
C161	C	0.978091	-0.251826	-0.724871
C162	C	1.478091	0.248174	-0.224871
C163	C	0.891449	-0.318677	-0.779456
C164	C	1.391449	0.181323	-0.279456
C165	C	0.891441	-0.318685	-0.724849
C166	C	1.391441	0.181315	-0.224849
C167	C	0.934761	-0.285258	-0.697555
C168	C	1.434761	0.214742	-0.197555
C169	C	0.934761	-0.285282	-0.642964
C170	C	1.434761	0.214718	-0.142964
N171	N	0.978073	-0.251853	-0.615667
N172	N	1.478073	0.248147	-0.115667
C173	C	1.021395	-0.218412	-0.642974
C174	C	1.521395	0.281588	-0.142974
C175	C	0.934817	-0.285200	-0.976040
C176	C	1.434817	0.214800	-0.476040
C177	C	0.934831	-0.285191	-1.030642
C178	C	1.434831	0.214809	-0.530642
C179	C	1.021470	-0.218319	-1.030652
C180	C	1.521470	0.281681	-0.530652
C181	C	1.021459	-0.218331	-0.976049
C182	C	1.521459	0.281669	-0.476049
C183	C	0.978129	-0.251770	-0.948743
C184	C	1.478129	0.248230	-0.448743
C185	C	1.021376	-0.218447	-0.528309
C186	C	1.521376	0.281553	-0.028309
C187	C	1.021367	-0.218467	-0.473704
C188	C	1.521367	0.281533	0.026296
C189	C	0.934726	-0.285337	-0.473698
C190	C	1.434726	0.214663	0.026302
C191	C	0.934738	-0.285319	-0.528299
C192	C	1.434738	0.214681	-0.028299
C193	C	0.978065	-0.251870	-0.555603
C194	C	1.478065	0.248130	-0.055603
O195	O	0.897951	-0.313718	-0.614677
O196	O	1.397951	0.186282	-0.114677
O197	O	1.058223	-0.189980	-0.614736
O198	O	1.558223	0.310020	-0.114736
C199	C	0.978030	-0.251892	-0.116067
C200	C	1.478030	0.248108	0.383933
C201	C	0.978152	-0.251748	-0.057954
C202	C	1.478152	0.248252	0.442046
H203	H	0.720335	-0.312677	-0.312450
H204	H	1.220335	0.187323	0.187550
H205	H	0.720379	-0.191155	-0.191350
H206	H	1.220379	0.308845	0.308650
H207	H	1.056565	-0.549966	-0.191296
H208	H	1.556565	-0.049966	0.308704
C209	C	1.112502	-0.211075	-0.914651
C210	C	1.612502	0.288925	-0.414651
C211	C	1.069069	-0.181582	-0.946049
C212	C	1.569069	0.318418	-0.446049
H213	H	1.141896	-0.188385	-0.896135
H214	H	1.641896	0.311615	-0.396135
H215	H	1.086700	-0.230986	-0.890572
H216	H	1.586700	0.269014	-0.390572
H217	H	1.138374	-0.233852	-0.935955
H218	H	1.638374	0.266148	-0.435955
H219	H	1.043193	-0.158808	-0.924745
H220	H	1.543193	0.341192	-0.424745
H221	H	1.094874	-0.161663	-0.970131
H222	H	1.594874	0.338337	-0.470131
H223	H	0.592134	-0.191164	-0.191360
H224	H	1.092134	0.308836	0.308640
H225	H	0.364575	-0.312689	-0.312474
H226	H	0.864575	0.187311	0.187526
H227	H	0.236376	-0.191178	-0.191377
H228	H	0.736376	0.308822	0.308623
H229	H	1.056790	-1.052327	-0.191353
H230	H	1.556790	-0.552327	0.308647
H231	H	1.099997	-0.801118	-0.157921
H232	H	1.599997	-0.301118	0.342079
H233	H	1.100003	-0.157739	-0.702667
H234	H	1.600003	0.342261	-0.202667
C235	C	1.107120	-0.980958	-0.152504
C236	C	1.607120	-0.480958	0.347496
C237	C	1.069089	-0.945475	-0.181819
C238	C	1.569089	-0.445475	0.318181
H239	H	1.136513	-0.962421	-0.129834
H240	H	1.636513	-0.462421	0.370166
H241	H	1.077653	-1.002283	-0.132488
H242	H	1.577653	-0.502283	0.367512
H243	H	1.132994	-1.002228	-0.175312
H244	H	1.632994	-0.502228	0.324688
H245	H	1.043211	-0.924207	-0.159012
H246	H	1.543211	-0.424207	0.340988
H247	H	1.098560	-0.924141	-0.201837
H248	H	1.598560	-0.424141	0.298163
H249	H	0.899604	-1.052388	-0.312564
H250	H	1.399604	-0.552388	0.187436
C251	C	0.849213	-0.981081	-0.351395
C252	C	1.349213	-0.481081	0.148605
C253	C	0.887216	-0.945563	-0.322077
C254	C	1.387216	-0.445563	0.177923
H255	H	0.819802	-0.962572	-0.374061
H256	H	1.319802	-0.462572	0.125939
H257	H	0.878695	-1.002345	-0.371416
H258	H	1.378695	-0.502345	0.128584
H259	H	0.823358	-1.002409	-0.328589
H260	H	1.323358	-0.502409	0.171411
H261	H	0.913074	-0.924237	-0.344882
H262	H	1.413074	-0.424237	0.155118
H263	H	0.857729	-0.924290	-0.302054
H264	H	1.357729	-0.424290	0.197946
C265	C	0.896245	-0.315037	-0.389985
C266	C	1.396245	0.184963	0.110015
C267	C	0.887103	-0.322090	-0.443675
C268	C	1.387103	0.177910	0.056325
H269	H	0.866838	-0.337723	-0.371451
H270	H	1.366838	0.162277	0.128549
H271	H	0.941707	-0.322699	-0.381045
H272	H	1.441707	0.177301	0.118955
H273	H	0.886378	-0.279905	-0.381048
H274	H	1.386378	0.220095	0.118952
H275	H	0.896975	-0.357221	-0.452613
H276	H	1.396975	0.142779	0.047387
H277	H	0.841631	-0.314432	-0.452619
H278	H	1.341631	0.185568	0.047381
C279	C	0.805812	-0.384792	-0.730328
C280	C	1.305812	0.115208	-0.230328
C281	C	0.843822	-0.355454	-0.694835
C282	C	1.343822	0.144546	-0.194835
H283	H	0.776422	-0.407495	-0.711798
H284	H	1.276422	0.092505	-0.211798
H285	H	0.779942	-0.362005	-0.751618
H286	H	1.279942	0.137995	-0.251618
H287	H	0.835296	-0.404779	-0.751632
H288	H	1.335296	0.095221	-0.251632
H289	H	0.814338	-0.335464	-0.673534
H290	H	1.314338	0.164536	-0.173534
H291	H	0.869694	-0.378243	-0.673536
H292	H	1.369694	0.121757	-0.173536
H293	H	1.099947	-0.702071	-0.157908
H294	H	1.599947	-0.202071	0.342092
C295	C	0.849193	-0.351290	-1.025133
C296	C	1.349193	0.148710	-0.525133
C297	C	0.887218	-0.321939	-1.060640
C298	C	1.387218	0.178061	-0.560640
H299	H	0.819793	-0.373973	-1.043652
H300	H	1.319793	0.126027	-0.543652
H301	H	0.878662	-0.371295	-1.003840
H302	H	1.378662	0.128705	-0.503840
H303	H	0.823326	-0.328507	-1.003833
H304	H	1.323326	0.171493	-0.503833
H305	H	0.913088	-0.344722	-1.081937
H306	H	1.413088	0.155278	-0.581937
H307	H	0.857744	-0.301933	-1.081942
H308	H	1.357744	0.198067	-0.581942
H309	H	0.592101	-0.312678	-0.312462
H310	H	1.092101	0.187322	0.187538
H311	H	0.364610	-0.191174	-0.191367
H312	H	0.864610	0.308826	0.308633
H313	H	1.056502	-0.450915	-0.191281
H314	H	1.556502	0.049085	0.308719
C315	C	0.805835	-0.773522	-0.384802
C316	C	1.305835	-0.273522	0.115198
C317	C	0.843858	-0.809009	-0.355486
C318	C	1.343858	-0.309009	0.144514
H319	H	0.776453	-0.792056	-0.407483
H320	H	1.276453	-0.292056	0.092517
H321	H	0.779955	-0.752259	-0.362000
H322	H	1.279955	-0.252259	0.138000
H323	H	0.835312	-0.752191	-0.404812
H324	H	1.335312	-0.252191	0.095188
H325	H	0.814381	-0.830338	-0.335473
H326	H	1.314381	-0.330338	0.164527
H327	H	0.869739	-0.830281	-0.378291
H328	H	1.369739	-0.330281	0.121709
H329	H	0.856155	-0.702173	-0.345952
H330	H	1.356155	-0.202173	0.154048
H331	H	0.236330	-0.312693	-0.312484
H332	H	0.736330	0.187307	0.187516
C333	C	1.059932	-0.188600	-1.114365
C334	C	1.559932	0.311400	-0.614365
C335	C	1.069082	-0.181552	-1.060675
C336	C	1.569082	0.318448	-0.560675
H337	H	1.089320	-0.165898	-1.132900
H338	H	1.589320	0.334102	-0.632900
H339	H	1.069815	-0.223722	-1.123309
H340	H	1.569815	0.276278	-0.623309
H341	H	1.014458	-0.180949	-1.123299
H342	H	1.514458	0.319051	-0.623299
H343	H	1.114555	-0.189206	-1.051741
H344	H	1.614555	0.310794	-0.551741
H345	H	1.059204	-0.146421	-1.051728
H346	H	1.559204	0.353579	-0.551728
C347	C	0.925265	-0.355631	-0.589708
C348	C	1.425265	0.144369	-0.089708
C349	C	0.887124	-0.322062	-0.558305
C350	C	1.387124	0.177938	-0.058305
H351	H	0.895864	-0.378313	-0.608228
H352	H	1.395864	0.121687	-0.108228
H353	H	0.951060	-0.335711	-0.613784
H354	H	1.451060	0.164289	-0.113784
H355	H	0.954729	-0.375641	-0.568407
H356	H	1.454729	0.124359	-0.068407
H357	H	0.857662	-0.302050	-0.579607
H358	H	1.357662	0.197950	-0.079607
H359	H	0.861317	-0.341984	-0.534227
H360	H	1.361317	0.158016	-0.034227
H361	H	0.899378	-0.550050	-0.312518
H362	H	1.399378	-0.050050	0.187482
C363	C	0.896117	-0.389515	-0.314959
C364	C	1.396117	0.110485	0.185041
C365	C	0.886986	-0.443211	-0.322022
C366	C	1.386986	0.056789	0.177978
H367	H	0.866723	-0.370999	-0.337631
H368	H	1.366723	0.129001	0.162369
H369	H	0.886232	-0.380595	-0.279826
H370	H	1.386232	0.119405	0.220174
H371	H	0.941588	-0.380537	-0.322638
H372	H	1.441588	0.119463	0.177362
H373	H	0.841516	-0.452190	-0.314339
H374	H	1.341516	0.047810	0.185661
H375	H	0.896866	-0.452135	-0.357163
H376	H	1.396866	0.047865	0.142837
H377	H	1.056645	-0.191246	-0.451484
H378	H	1.556645	0.308754	0.048516
H379	H	1.056656	-0.191208	-0.550534
H380	H	1.556656	0.308792	-0.050534
H381	H	1.100016	-0.157711	-0.801712
H382	H	1.600016	0.342289	-0.301712
C383	C	0.925334	-0.355548	-0.914629
C384	C	1.425334	0.144452	-0.414629
C385	C	0.887195	-0.321966	-0.946025
C386	C	1.387195	0.178034	-0.446025
H387	H	0.895933	-0.378243	-0.896099
H388	H	1.395933	0.121757	-0.396099
H389	H	0.954806	-0.375540	-0.935931
H390	H	1.454806	0.124460	-0.435931
H391	H	0.951122	-0.335636	-0.890557
H392	H	1.451122	0.164364	-0.390557
H393	H	0.861411	-0.341878	-0.970099
H394	H	1.361411	0.158122	-0.470099
H395	H	0.857712	-0.301973	-0.924720
H396	H	1.357712	0.198027	-0.424720
H397	H	0.856174	-0.345897	-0.801669
H398	H	1.356174	0.154103	-0.301669
