data_functionalizedCrystal
_audit_creation_method	'MofGen! by Chris Wilmer'
_symmetry_space_group_name_H-M	'P1'
_symmetry_Int_Tables_number	1
_symmetry_cell_setting	triclinic
loop_
_symmetry_equiv_pos_as_xyz
  x,y,z
_cell_length_a	17.699083
_cell_length_b	17.699083
_cell_length_c	15.186229
_cell_angle_alpha	89.995368
_cell_angle_beta	90.002674
_cell_angle_gamma	83.283015
loop_
_atom_site_label
_atom_site_type_symbol
_atom_site_fract_x
_atom_site_fract_y
_atom_site_fract_z
O1	O	1.004075	0.095710	-0.073107
O2	O	0.783696	0.108163	-0.073136
O3	O	0.900112	-0.008253	-0.073113
O4	O	0.887659	0.212126	-0.073130
O5	O	0.900104	-0.008254	0.073344
O6	O	0.783689	0.108161	0.073321
O7	O	1.004067	0.095709	0.073350
Zn8	Zn	0.893876	0.101935	0.096589
Zn9	Zn	0.893887	0.101937	-0.096375
O10	O	0.887652	0.212124	0.073327
C11	C	0.755495	0.107716	0.000089
C12	C	0.671477	0.106377	0.000078
C13	C	0.622856	0.174710	0.000073
C14	C	0.543913	0.173448	0.000085
C15	C	0.513592	0.103852	0.000095
C16	C	0.562219	0.035513	0.000103
C17	C	0.641161	0.036776	0.000097
C18	C	0.243856	0.030418	0.000125
C19	C	0.164908	0.029160	0.000127
C20	C	0.146608	0.167090	0.000112
C21	C	0.225550	0.168353	0.000107
C22	C	0.274170	0.100015	0.000119
C23	C	0.359769	0.101384	0.000108
C24	C	0.427995	0.102481	0.000099
C25	C	0.899662	-0.036451	0.000116
C26	C	0.898323	-0.120469	0.000116
C27	C	0.966656	-0.169090	0.000126
C28	C	0.965394	-0.248033	0.000118
C29	C	0.895798	-0.278354	0.000106
C30	C	0.827459	-0.229727	0.000094
C31	C	0.828722	-0.150785	0.000095
C32	C	0.822364	-0.548090	0.000086
C33	C	0.821106	-0.627038	0.000087
C34	C	0.959036	-0.645338	0.000109
C35	C	0.960299	-0.566396	0.000111
C36	C	0.891961	-0.517776	0.000093
C37	C	0.893330	-0.432177	0.000100
C38	C	0.894427	-0.363951	0.000106
C39	C	1.032268	0.096156	0.000123
C40	C	1.116286	0.097494	0.000129
C41	C	0.888102	0.240322	0.000097
C42	C	0.889440	0.324340	0.000091
N43	N	0.893875	0.101933	0.228282
N44	N	0.893894	0.101933	-0.228067
C45	C	0.945441	0.050401	0.454015
C46	C	0.945444	0.050399	0.546205
C47	C	0.842322	0.153467	0.546193
C48	C	0.842317	0.153464	0.454005
C49	C	0.893881	0.101932	0.407918
C50	C	0.893889	0.101933	0.592296
C51	C	0.893891	0.101931	0.692252
C52	C	0.893878	0.101933	0.307956
H53	H	0.107012	0.222734	0.000107
H54	H	0.800341	0.195424	0.583726
C55	C	0.991173	0.004581	0.312702
C56	C	1.002078	-0.006282	0.403354
H57	H	1.026131	-0.030423	0.281430
H58	H	0.940668	-0.003537	0.297624
H59	H	0.999339	0.055070	0.297572
H60	H	0.993907	-0.056770	0.418485
H61	H	1.052595	0.001830	0.418438
C62	C	0.190924	-0.107063	0.000163
C63	C	0.131579	-0.047346	0.000148
H64	H	0.170345	-0.154291	0.000180
H65	H	0.221330	-0.103710	-0.050908
H66	H	0.221337	-0.103694	0.051238
H67	H	0.101168	-0.050713	-0.050931
H68	H	0.101160	-0.050701	0.051224
H69	H	0.537526	-0.021154	0.000124
H70	H	0.770792	-0.254420	0.000078
C71	C	0.343236	-0.048185	-0.075163
C72	C	0.297292	-0.044699	0.000126
H73	H	0.376229	-0.094561	-0.075159
H74	H	0.312054	-0.045807	-0.126224
H75	H	0.372593	-0.006556	-0.075156
H76	H	0.267931	-0.086326	0.000116
H77	H	0.328477	-0.047085	0.051201
H78	H	0.773078	-0.111198	0.000087
H79	H	0.987428	0.008437	0.583734
H80	H	0.766718	-0.508512	0.000072
C81	C	0.797630	0.284553	0.425595
C82	C	0.785640	0.210114	0.403329
H83	H	0.762643	0.319522	0.394305
H84	H	0.790251	0.291927	0.487087
H85	H	0.848127	0.292697	0.410480
H86	H	0.735144	0.201969	0.418450
H87	H	0.793013	0.202737	0.341823
C88	C	0.596829	0.310925	0.000067
C89	C	0.656181	0.251215	0.000064
H90	H	0.617402	0.358156	0.000069
H91	H	0.566418	0.307566	-0.051001
H92	H	0.566424	0.307555	0.051146
H93	H	0.686583	0.254581	-0.051018
H94	H	0.686605	0.254576	0.051137
H95	H	1.023330	-0.144409	0.000141
C96	C	0.414775	0.232760	0.000080
C97	C	0.490468	0.248562	0.000069
H98	H	0.381781	0.279135	0.000074
H99	H	0.405598	0.204215	-0.050981
H100	H	0.405608	0.204223	0.051165
H101	H	0.499636	0.277095	-0.051020
H102	H	0.499648	0.277119	0.051135
C103	C	0.199529	0.304569	0.000103
C104	C	0.258877	0.244855	0.000100
H105	H	0.220105	0.351798	0.000107
H106	H	0.169118	0.301212	-0.050966
H107	H	0.169122	0.301200	0.051181
H108	H	0.289281	0.248221	-0.050981
H109	H	0.289301	0.248214	0.051174
H110	H	1.021038	-0.287618	0.000129
C111	C	0.681070	-0.080400	-0.075189
C112	C	0.694611	-0.038336	0.000096
H113	H	0.714071	-0.126769	-0.075188
H114	H	0.629723	-0.091112	-0.075178
H115	H	0.690244	-0.051846	-0.126258
H116	H	0.685431	-0.066888	0.051166
H117	H	0.745970	-0.027626	0.000093
C118	C	1.096515	-0.592417	0.000121
C119	C	1.036801	-0.533068	0.000119
H120	H	1.143744	-0.571841	0.000119
H121	H	1.093155	-0.622827	0.051191
H122	H	1.093149	-0.622824	-0.050955
H123	H	1.040164	-0.502664	0.051199
H124	H	1.040163	-0.502645	-0.050956
H125	H	1.014680	-0.684934	0.000119
H126	H	0.764429	-0.651721	0.000079
