data_functionalizedCrystal
_audit_creation_method	'MofGen! by Chris Wilmer'
_symmetry_space_group_name_H-M	'P1'
_symmetry_Int_Tables_number	1
_symmetry_cell_setting	triclinic
loop_
_symmetry_equiv_pos_as_xyz
  x,y,z
_cell_length_a	12.759401
_cell_length_b	12.594516
_cell_length_c	12.759393
_cell_angle_alpha	90.029726
_cell_angle_beta	90.020938
_cell_angle_gamma	90.013340
loop_
_atom_site_label
_atom_site_type_symbol
_atom_site_fract_x
_atom_site_fract_y
_atom_site_fract_z
Zn1	Zn	1.606287	-0.423647	0.594026
Zn2	Zn	1.606187	-0.601663	0.418348
Zn3	Zn	1.430586	-0.423704	0.418361
Zn4	Zn	1.430587	-0.601589	0.593985
O5	O	1.518412	-0.512651	0.506180
O6	O	1.753295	-0.447269	0.570733
O7	O	1.582851	-0.578111	0.271329
O8	O	1.453935	-0.274751	0.441685
O9	O	1.753222	-0.578056	0.441664
O10	O	1.583022	-0.274709	0.570746
O11	O	1.453838	-0.447365	0.271338
O12	O	1.283565	-0.447293	0.441646
O13	O	1.453936	-0.577930	0.741012
O14	O	1.283566	-0.577985	0.570677
O15	O	1.583023	-0.447197	0.741042
O16	O	1.582852	-0.750599	0.441625
O17	O	1.453839	-0.750545	0.570665
C18	C	1.245445	-0.512638	0.506159
C19	C	1.128668	-0.512658	0.506175
C20	C	1.073834	-0.580812	0.573256
C21	C	0.964110	-0.580816	0.573277
C22	C	0.964064	-0.444509	0.439127
C23	C	1.073786	-0.444500	0.439113
C24	C	1.518363	-0.789192	0.506162
C25	C	1.518439	-0.907497	0.506189
C26	C	1.588690	-0.976741	0.436079
C27	C	1.614368	-1.047434	0.531972
C28	C	1.492893	-1.047603	0.410357
C29	C	1.544165	-0.976632	0.602133
C30	C	1.422645	-0.976795	0.480453
C31	C	1.448286	-1.047456	0.576412
C32	C	1.792445	-0.512665	0.506202
C33	C	1.909222	-0.512671	0.506211
C34	C	1.518491	-0.512549	0.780214
C35	C	1.518524	-0.512505	0.896990
C36	C	1.518489	-0.235030	0.506221
C37	C	1.518522	-0.116725	0.506239
C38	C	1.518394	-0.512676	0.233213
C39	C	1.518564	-0.512420	0.116437
C40	C	1.585744	-0.444422	0.951869
C41	C	1.585762	-0.444376	1.061594
C42	C	1.451336	-0.580506	1.061550
C43	C	1.451314	-0.580546	0.951828
H44	H	1.118433	-0.388994	0.384488
H45	H	0.919365	-0.389018	0.384526
H46	H	1.648109	-0.945691	0.376843
O47	O	1.127263	-0.646862	0.638457
C48	C	1.251159	-0.661335	0.780308
C49	C	1.190739	-0.586417	0.706512
H50	H	1.302478	-0.612494	0.835364
H51	H	1.302567	-0.716914	0.732033
H52	H	1.193096	-0.710069	0.828209
H53	H	1.248727	-0.537614	0.658596
H54	H	1.139316	-0.530909	0.754848
H55	H	1.341623	-0.945740	0.458628
H56	H	1.695414	-1.078466	0.553769
O57	O	1.651109	-0.378387	1.115021
C58	C	1.793018	-0.364027	1.238887
C59	C	1.719064	-0.438884	1.178464
H60	H	1.847992	-0.412910	1.290179
H61	H	1.744862	-0.308365	1.290322
H62	H	1.840998	-0.315378	1.180826
H63	H	1.671067	-0.487602	1.236450
H64	H	1.767280	-0.494475	1.127013
O65	O	1.386156	-0.646568	1.114983
C66	C	1.326570	-0.706795	1.283996
C67	C	1.400456	-0.631941	1.223618
H68	H	1.338090	-0.694979	1.371837
H69	H	1.344989	-0.792653	1.262490
H70	H	1.241867	-0.688116	1.262350
H71	H	1.485184	-0.650525	1.245232
H72	H	1.381947	-0.546105	1.245129
O73	O	1.570131	-0.939431	0.698797
C74	C	1.599152	-0.785497	0.807232
C75	C	1.569752	-0.827485	0.697710
H76	H	1.598834	-0.694985	0.806396
H77	H	1.680620	-0.815146	0.829353
H78	H	1.539689	-0.815289	0.867055
H79	H	1.629144	-0.797711	0.637814
H80	H	1.488258	-0.797845	0.675678
H81	H	0.919469	-0.636313	0.627902
H82	H	1.388913	-1.078309	0.635791
O83	O	1.467189	-1.084666	0.313571
C84	C	1.512223	-1.090817	0.130278
C85	C	1.541427	-1.048758	0.239826
H86	H	1.572241	-1.061821	0.070629
H87	H	1.431127	-1.060519	0.107656
H88	H	1.511715	-1.181324	0.131467
H89	H	1.541995	-0.958254	0.238720
H90	H	1.622505	-1.079138	0.262405
O91	O	1.651056	-0.378223	0.898762
C92	C	1.784427	-0.243234	0.910391
C93	C	1.710500	-0.318137	0.970661
H94	H	1.832523	-0.194651	0.968496
H95	H	1.736248	-0.187524	0.859052
H96	H	1.839295	-0.292138	0.858995
H97	H	1.655617	-0.269319	1.022115
H98	H	1.758745	-0.373850	1.021934
H99	H	1.396568	-0.635987	0.907144
