data_functionalizedCrystal
_audit_creation_method	'MofGen! by Chris Wilmer'
_symmetry_space_group_name_H-M	'P1'
_symmetry_Int_Tables_number	1
_symmetry_cell_setting	triclinic
loop_
_symmetry_equiv_pos_as_xyz
  x,y,z
_cell_length_a	12.759401
_cell_length_b	18.215405
_cell_length_c	12.759393
_cell_angle_alpha	89.963505
_cell_angle_beta	89.979062
_cell_angle_gamma	90.026410
loop_
_atom_site_label
_atom_site_type_symbol
_atom_site_fract_x
_atom_site_fract_y
_atom_site_fract_z
Zn1	Zn	1.606192	-0.292919	-0.593976
Zn2	Zn	1.939525	0.040415	-0.260643
Zn3	Zn	2.272859	0.373748	0.072690
Zn4	Zn	1.606052	-0.416003	-0.418278
Zn5	Zn	1.939385	-0.082669	-0.084945
Zn6	Zn	2.272719	0.250664	0.248389
Zn7	Zn	1.430491	-0.292958	-0.418311
Zn8	Zn	1.763824	0.040375	-0.084978
Zn9	Zn	2.097157	0.373709	0.248355
Zn10	Zn	1.430451	-0.415951	-0.593915
Zn11	Zn	1.763785	-0.082618	-0.260582
Zn12	Zn	2.097118	0.250715	0.072751
O13	O	1.518296	-0.354458	-0.506120
O14	O	1.851630	-0.021124	-0.172787
O15	O	2.184963	0.312209	0.160546
O16	O	1.753194	-0.309251	-0.570681
O17	O	2.086528	0.024082	-0.237348
O18	O	2.419861	0.357415	0.095986
O19	O	1.582721	-0.399719	-0.271261
O20	O	1.916054	-0.066385	0.062072
O21	O	2.249388	0.266948	0.395405
O22	O	1.453873	-0.189968	-0.441653
O23	O	1.787206	0.143365	-0.108320
O24	O	2.120540	0.476698	0.225013
O25	O	1.753091	-0.399681	-0.441596
O26	O	2.086425	-0.066347	-0.108263
O27	O	2.419758	0.266986	0.225070
O28	O	1.582960	-0.189940	-0.570714
O29	O	1.916293	0.143394	-0.237380
O30	O	2.249627	0.476727	0.095953
O31	O	1.453737	-0.309318	-0.271286
O32	O	1.787070	0.024015	0.062047
O33	O	2.120404	0.357349	0.395381
O34	O	1.283465	-0.309268	-0.441594
O35	O	1.616798	0.024065	-0.108261
O36	O	1.950131	0.357399	0.225073
O37	O	1.453806	-0.399593	-0.740944
O38	O	1.787139	-0.066260	-0.407611
O39	O	2.120473	0.267074	-0.074278
O40	O	1.283436	-0.399631	-0.570609
O41	O	1.616769	-0.066298	-0.237276
O42	O	1.950102	0.267036	0.096057
O43	O	1.582922	-0.309201	-0.740989
O44	O	1.916255	0.024132	-0.407656
O45	O	2.249588	0.357465	-0.074323
O46	O	1.582683	-0.518980	-0.441537
O47	O	1.916016	-0.185647	-0.108204
O48	O	2.249350	0.147686	0.225130
O49	O	1.453670	-0.518942	-0.570577
O50	O	1.787003	-0.185609	-0.237244
O51	O	2.120337	0.147724	0.096090
C52	C	1.245329	-0.354449	-0.506099
C53	C	1.578662	-0.021115	-0.172766
C54	C	1.911996	0.312218	0.160567
C55	C	1.128552	-0.354463	-0.506115
C56	C	1.461886	-0.021129	-0.172782
C57	C	1.795219	0.312204	0.160551
C58	C	1.518186	-0.545664	-0.506070
C59	C	1.851519	-0.212331	-0.172736
C60	C	2.184852	0.121003	0.160597
C61	C	1.518234	-0.627463	-0.506083
C62	C	1.851568	-0.294130	-0.172750
C63	C	2.184901	0.039204	0.160583
C64	C	1.073703	-0.401586	-0.573188
C65	C	1.407036	-0.068253	-0.239855
C66	C	1.740370	0.265081	0.093479
C67	C	0.963979	-0.401589	-0.573209
C68	C	1.297312	-0.068256	-0.239875
C69	C	1.630646	0.265078	0.093458
C70	C	0.963964	-0.307343	-0.439076
C71	C	1.297297	0.025991	-0.105742
C72	C	1.630630	0.359324	0.227591
C73	C	1.073686	-0.307337	-0.439061
C74	C	1.407019	0.025997	-0.105727
C75	C	1.740352	0.359330	0.227606
C76	C	1.585569	-0.815652	-0.439016
C77	C	1.918902	-0.482319	-0.105682
C78	C	2.252236	-0.148985	0.227651
C79	C	1.585616	-0.892511	-0.439041
C80	C	1.918949	-0.559177	-0.105708
C81	C	2.252283	-0.225844	0.227625
C82	C	1.451158	-0.892511	-0.573300
C83	C	1.784492	-0.559178	-0.239967
C84	C	2.117825	-0.225845	0.093366
C85	C	1.451118	-0.815654	-0.573279
C86	C	1.784451	-0.482321	-0.239946
C87	C	2.117784	-0.148987	0.093387
C88	C	1.518321	-0.777226	-0.506131
C89	C	1.851655	-0.443893	-0.172798
C90	C	2.184988	-0.110560	0.160536
C91	C	1.518409	-0.930942	-0.506178
C92	C	1.851742	-0.597609	-0.172844
C93	C	2.185076	-0.264276	0.160489
C94	C	1.518460	-1.014276	-0.506206
C95	C	1.851793	-0.680943	-0.172872
C96	C	2.185126	-0.347609	0.160461
C97	C	1.518272	-0.693887	-0.506104
C98	C	1.851606	-0.360554	-0.172771
C99	C	2.184939	-0.027221	0.160562
C100	C	1.792330	-0.354467	-0.506142
C101	C	2.125663	-0.021134	-0.172808
C102	C	2.458996	0.312199	0.160525
C103	C	1.909106	-0.354471	-0.506151
C104	C	2.242440	-0.021138	-0.172818
C105	C	2.575773	0.312195	0.160516
C106	C	1.518375	-0.354387	-0.780154
C107	C	1.851708	-0.021054	-0.446820
C108	C	2.185042	0.312280	-0.113487
C109	C	1.518409	-0.354357	-0.896930
C110	C	1.851742	-0.021024	-0.563597
C111	C	2.185075	0.312310	-0.230264
C112	C	1.518437	-0.162505	-0.506194
C113	C	1.851770	0.170829	-0.172861
C114	C	2.185103	0.504162	0.160473
C115	C	1.518496	-0.080706	-0.506225
C116	C	1.851830	0.252628	-0.172892
C117	C	2.185163	0.585961	0.160441
C118	C	1.585644	-0.307283	-0.951818
C119	C	1.918978	0.026051	-0.618484
C120	C	2.252311	0.359384	-0.285151
C121	C	1.585662	-0.307251	-1.061542
C122	C	1.918995	0.026083	-0.728208
C123	C	2.252329	0.359416	-0.394875
C124	C	1.451206	-0.401374	-1.061482
C125	C	1.784539	-0.068041	-0.728149
C126	C	2.117872	0.265292	-0.394815
C127	C	1.451183	-0.401402	-0.951760
C128	C	1.784517	-0.068068	-0.618427
C129	C	2.117850	0.265265	-0.285093
C130	C	1.518279	-0.354475	-0.233153
C131	C	1.851612	-0.021142	0.100180
C132	C	2.184945	0.312192	0.433514
C133	C	1.518449	-0.354298	-0.116377
C134	C	1.851782	-0.020964	0.216957
C135	C	2.185115	0.312369	0.550290
H136	H	1.118372	-0.439957	-0.627791
H137	H	1.451706	-0.106624	-0.294457
H138	H	1.785039	0.226710	0.038876
H139	H	0.919325	-0.439960	-0.627827
H140	H	1.252659	-0.106627	-0.294494
H141	H	1.585992	0.226706	0.038839
Br142	Br	1.148131	-0.243371	-0.348037
Br143	Br	1.481465	0.089962	-0.014704
Br144	Br	1.814798	0.423295	0.318629
Br145	Br	1.359919	-0.465287	-0.877263
Br146	Br	1.693252	-0.131953	-0.543930
Br147	Br	2.026585	0.201380	-0.210597
H148	H	1.640292	-0.784366	-0.384341
H149	H	1.973625	-0.451033	-0.051008
H150	H	2.306959	-0.117699	0.282325
Br151	Br	0.889495	-0.243389	-0.348077
Br152	Br	1.222828	0.089944	-0.014744
Br153	Br	1.556162	0.423277	0.318590
H154	H	1.640377	-0.923793	-0.384391
H155	H	1.973711	-0.590460	-0.051057
H156	H	2.307044	-0.257127	0.282276
Br157	Br	1.676876	-0.243435	-0.877409
Br158	Br	2.010209	0.089898	-0.544076
Br159	Br	2.343542	0.423232	-0.210742
Br160	Br	1.359957	-0.944668	-0.664424
Br161	Br	1.693290	-0.611334	-0.331091
Br162	Br	2.026623	-0.278001	0.002242
Br163	Br	1.676922	-0.243367	-1.136028
Br164	Br	2.010255	0.089967	-0.802694
Br165	Br	2.343589	0.423300	-0.469361
H166	H	1.396476	-0.439678	-1.106138
H167	H	1.729809	-0.106345	-0.772804
H168	H	2.063142	0.226989	-0.439471
Br169	Br	1.359855	-0.763500	-0.664380
Br170	Br	1.693188	-0.430167	-0.331047
Br171	Br	2.026522	-0.096833	0.002286
