data_functionalizedCrystal
_audit_creation_method	'MofGen! by Chris Wilmer'
_symmetry_space_group_name_H-M	'P1'
_symmetry_Int_Tables_number	1
_symmetry_cell_setting	triclinic
loop_
_symmetry_equiv_pos_as_xyz
  x,y,z
_cell_length_a	21.395364
_cell_length_b	16.625545
_cell_length_c	16.625539
_cell_angle_alpha	89.971893
_cell_angle_beta	89.979410
_cell_angle_gamma	90.040509
loop_
_atom_site_label
_atom_site_type_symbol
_atom_site_fract_x
_atom_site_fract_y
_atom_site_fract_z
Zn1	Zn	0.957857	-0.320679	-0.455911
Zn2	Zn	1.291191	0.012655	-0.122578
Zn3	Zn	1.624524	0.345988	0.210756
Zn4	Zn	0.957776	-0.455522	-0.321079
Zn5	Zn	1.291110	-0.122188	0.012255
Zn6	Zn	1.624443	0.211145	0.345588
Zn7	Zn	0.853079	-0.320742	-0.321092
Zn8	Zn	1.186413	0.012591	0.012242
Zn9	Zn	1.519746	0.345925	0.345575
Zn10	Zn	0.853051	-0.455508	-0.455869
Zn11	Zn	1.186384	-0.122175	-0.122535
Zn12	Zn	1.519717	0.211159	0.210798
O13	O	0.905441	-0.388113	-0.388487
O14	O	1.238774	-0.054779	-0.055154
O15	O	1.572108	0.278554	0.278179
O16	O	1.045524	-0.338545	-0.438038
O17	O	1.378858	-0.005212	-0.104704
O18	O	1.712191	0.328122	0.228629
O19	O	0.943866	-0.437675	-0.208248
O20	O	1.277200	-0.104342	0.125085
O21	O	1.610533	0.228992	0.458419
O22	O	0.867024	-0.207901	-0.338999
O23	O	1.200358	0.125432	-0.005665
O24	O	1.533691	0.458766	0.327668
O25	O	1.045465	-0.437614	-0.338977
O26	O	1.378798	-0.104280	-0.005644
O27	O	1.712132	0.229053	0.327690
O28	O	0.944004	-0.207855	-0.438050
O29	O	1.277337	0.125479	-0.104717
O30	O	1.610671	0.458812	0.228617
O31	O	0.866946	-0.338653	-0.208257
O32	O	1.200279	-0.005320	0.125076
O33	O	1.533612	0.328014	0.458409
O34	O	0.765398	-0.338640	-0.338958
O35	O	1.098731	-0.005306	-0.005624
O36	O	1.432064	0.328027	0.327709
O37	O	0.866975	-0.437590	-0.568707
O38	O	1.200309	-0.104257	-0.235373
O39	O	1.533642	0.229076	0.097960
O40	O	0.765377	-0.437652	-0.437978
O41	O	1.098710	-0.104319	-0.104644
O42	O	1.432043	0.229015	0.228689
O43	O	0.943976	-0.338532	-0.568738
O44	O	1.277310	-0.005198	-0.235405
O45	O	1.610643	0.328135	0.097929
O46	O	0.943838	-0.568352	-0.338936
O47	O	1.277172	-0.235019	-0.005602
O48	O	1.610505	0.098314	0.327731
O49	O	0.866897	-0.568342	-0.437965
O50	O	1.200230	-0.235009	-0.104632
O51	O	1.533564	0.098324	0.228701
C52	C	0.742653	-0.388152	-0.388465
C53	C	1.075987	-0.054818	-0.055132
C54	C	1.409320	0.278515	0.278202
C55	C	0.673012	-0.388188	-0.388474
C56	C	1.006345	-0.054855	-0.055141
C57	C	1.339679	0.278479	0.278192
C58	C	0.640352	-0.336687	-0.440135
C59	C	0.973686	-0.003354	-0.106802
C60	C	1.307019	0.329979	0.226532
C61	C	0.574917	-0.336666	-0.440138
C62	C	0.908250	-0.003333	-0.106805
C63	C	1.241583	0.330001	0.226529
C64	C	0.542144	-0.388159	-0.388489
C65	C	0.875477	-0.054826	-0.055156
C66	C	1.208810	0.278507	0.278178
C67	C	0.574811	-0.439664	-0.336818
C68	C	0.908145	-0.106330	-0.003485
C69	C	1.241478	0.227003	0.329848
C70	C	0.640246	-0.439678	-0.336811
C71	C	0.973579	-0.106345	-0.003478
C72	C	1.306912	0.226989	0.329856
C73	C	0.438425	-0.460774	-0.382009
C74	C	0.771758	-0.127440	-0.048676
C75	C	1.105091	0.205893	0.284658
C76	C	0.372992	-0.460761	-0.382022
C77	C	0.706325	-0.127427	-0.048689
C78	C	1.039658	0.205906	0.284645
C79	C	0.340323	-0.388115	-0.388507
C80	C	0.673656	-0.054782	-0.055174
C81	C	1.006990	0.278552	0.278160
C82	C	0.373095	-0.315480	-0.394996
C83	C	0.706428	0.017853	-0.061662
C84	C	1.039762	0.351186	0.271671
C85	C	0.438529	-0.315494	-0.394988
C86	C	0.771863	0.017839	-0.061655
C87	C	1.105196	0.351172	0.271678
C88	C	0.471191	-0.388149	-0.388491
C89	C	0.804525	-0.054816	-0.055157
C90	C	1.137858	0.278517	0.278176
C91	C	0.236711	-0.336587	-0.440174
C92	C	0.570044	-0.003253	-0.106840
C93	C	0.903377	0.330080	0.226493
C94	C	0.171274	-0.336564	-0.440171
C95	C	0.504607	-0.003231	-0.106838
C96	C	0.837941	0.330103	0.226496
C97	C	0.171170	-0.439569	-0.336856
C98	C	0.504503	-0.106236	-0.003522
C99	C	0.837837	0.227098	0.329811
C100	C	0.236605	-0.439585	-0.336854
C101	C	0.569939	-0.106251	-0.003521
C102	C	0.903272	0.227082	0.329813
C103	C	0.269372	-0.388095	-0.388517
C104	C	0.602705	-0.054761	-0.055184
C105	C	0.936038	0.278572	0.278149
C106	C	0.905373	-0.597603	-0.388462
C107	C	1.238706	-0.264270	-0.055129
C108	C	1.572040	0.069063	0.278205
C109	C	0.905401	-0.687225	-0.388478
C110	C	1.238734	-0.353891	-0.055145
C111	C	1.572068	-0.020558	0.278188
C112	C	0.905425	-0.760007	-0.388494
C113	C	1.238759	-0.426674	-0.055161
C114	C	1.572092	-0.093340	0.278172
C115	C	0.905462	-0.851315	-0.388512
C116	C	1.238795	-0.517982	-0.055179
C117	C	1.572129	-0.184649	0.278155
C118	C	0.905494	-0.924092	-0.388522
C119	C	1.238828	-0.590758	-0.055189
C120	C	1.572161	-0.257425	0.278144
C121	C	0.905530	-1.015406	-0.388539
C122	C	1.238864	-0.682073	-0.055205
C123	C	1.572197	-0.348739	0.278128
C124	C	1.068864	-0.388074	-0.388511
C125	C	1.402198	-0.054740	-0.055177
C126	C	1.735531	0.278593	0.278156
C127	C	1.138505	-0.388057	-0.388521
C128	C	1.471839	-0.054724	-0.055187
C129	C	1.805172	0.278609	0.278146
C130	C	0.905482	-0.388052	-0.598796
C131	C	1.238815	-0.054719	-0.265463
C132	C	1.572148	0.278614	0.067870
C133	C	0.905499	-0.388027	-0.688418
C134	C	1.238832	-0.054694	-0.355084
C135	C	1.572166	0.278640	-0.021751
C136	C	0.905526	-0.177804	-0.388531
C137	C	1.238860	0.155530	-0.055197
C138	C	1.572193	0.488863	0.278136
C139	C	0.905563	-0.088182	-0.388549
C140	C	1.238896	0.245151	-0.055216
C141	C	1.572229	0.578484	0.278118
C142	C	0.905528	-0.387937	-1.016593
C143	C	1.238861	-0.054603	-0.683260
C144	C	1.572195	0.278730	-0.349927
C145	C	0.905518	-0.387964	-0.925285
C146	C	1.238851	-0.054631	-0.591952
C147	C	1.572185	0.278702	-0.258618
C148	C	0.905514	-0.387982	-0.852508
C149	C	1.238847	-0.054649	-0.519175
C150	C	1.572180	0.278684	-0.185842
C151	C	0.905503	-0.388009	-0.761194
C152	C	1.238837	-0.054675	-0.427861
C153	C	1.572170	0.278658	-0.094527
C154	C	0.905436	-0.388114	-0.178997
C155	C	1.238770	-0.054781	0.154337
C156	C	1.572103	0.278552	0.487670
C157	C	0.905540	-0.387913	-0.089376
C158	C	1.238874	-0.054579	0.243957
C159	C	1.572207	0.278754	0.577291
H160	H	0.144487	-0.481496	-0.294802
H161	H	0.477820	-0.148163	0.038532
H162	H	0.811153	0.185171	0.371865
H163	H	0.465018	-0.519935	-0.376728
H164	H	0.798352	-0.186601	-0.043394
H165	H	1.131685	0.146732	0.289939
H166	H	0.548123	-0.481590	-0.294765
H167	H	0.881457	-0.148256	0.038569
H168	H	1.214790	0.185077	0.371902
N169	N	0.539685	-0.281119	-0.495868
N170	N	0.873019	0.052214	-0.162534
N171	N	1.206352	0.385547	0.170799
H172	H	0.512529	-0.313936	-0.533173
H173	H	0.845862	0.019397	-0.199840
H174	H	1.179195	0.352730	0.133494
H175	H	0.512585	-0.243714	-0.463117
H176	H	0.845919	0.089620	-0.129784
H177	H	1.179252	0.422953	0.203549
N178	N	0.675470	-0.495235	-0.281091
N179	N	1.008804	-0.161902	0.052243
N180	N	1.342137	0.171432	0.385576
H181	H	0.702603	-0.532649	-0.313790
H182	H	1.035936	-0.199316	0.019543
H183	H	1.369270	0.134017	0.352876
H184	H	0.702594	-0.462370	-0.243791
H185	H	1.035927	-0.129037	0.089542
H186	H	1.369261	0.204296	0.422875
H187	H	0.263197	-0.481525	-0.294789
H188	H	0.596531	-0.148192	0.038544
H189	H	0.929864	0.185141	0.371877
H190	H	0.667027	-0.294759	-0.482203
H191	H	1.000360	0.038574	-0.148869
H192	H	1.333693	0.371907	0.184464
N193	N	0.272055	-0.281063	-0.495902
N194	N	0.605388	0.052271	-0.162569
N195	N	0.938722	0.385604	0.170765
H196	H	0.318464	-0.288896	-0.488070
H197	H	0.651797	0.044437	-0.154736
H198	H	0.985131	0.377770	0.178597
H199	H	0.260618	-0.293700	-0.553459
H200	H	0.593951	0.039633	-0.220126
H201	H	0.927284	0.372966	0.113207
N202	N	0.473878	-0.237160	-0.401983
N203	N	0.807211	0.096173	-0.068649
N204	N	1.140544	0.429506	0.264684
H205	H	0.443258	-0.191134	-0.406093
H206	H	0.776591	0.142200	-0.072759
H207	H	1.109925	0.475533	0.260574
H208	H	0.501014	-0.229621	-0.352864
H209	H	0.834347	0.103712	-0.019530
H210	H	1.167681	0.437046	0.313803
N211	N	0.337870	-0.237119	-0.401997
N212	N	0.671204	0.096214	-0.068664
N213	N	1.004537	0.429547	0.264670
H214	H	0.291446	-0.248128	-0.401014
H215	H	0.624779	0.085205	-0.067681
H216	H	0.958112	0.418539	0.265653
H217	H	0.349319	-0.201014	-0.355433
H218	H	0.682653	0.132320	-0.022100
H219	H	1.015986	0.465653	0.311233
H220	H	0.144683	-0.294621	-0.482238
H221	H	0.478017	0.038712	-0.148905
H222	H	0.811350	0.372045	0.184429
H223	H	0.346314	-0.519904	-0.376742
H224	H	0.679647	-0.186571	-0.043409
H225	H	1.012980	0.146762	0.289924
