data_functionalizedCrystal
_audit_creation_method	'MofGen! by Chris Wilmer'
_symmetry_space_group_name_H-M	'P1'
_symmetry_Int_Tables_number	1
_symmetry_cell_setting	triclinic
loop_
_symmetry_equiv_pos_as_xyz
  x,y,z
_cell_length_a	17.639181
_cell_length_b	16.625545
_cell_length_c	17.640968
_cell_angle_alpha	78.769372
_cell_angle_beta	87.836484
_cell_angle_gamma	78.832784
loop_
_atom_site_label
_atom_site_type_symbol
_atom_site_fract_x
_atom_site_fract_y
_atom_site_fract_z
Zn1	Zn	1.247484	-0.537965	-0.194251
Zn2	Zn	1.747484	-0.037965	0.305749
Zn3	Zn	1.221713	-0.693684	-0.067288
Zn4	Zn	1.721713	-0.193684	0.432712
Zn5	Zn	1.094850	-0.527428	-0.092999
Zn6	Zn	1.594850	-0.027428	0.407001
Zn7	Zn	1.120478	-0.641294	-0.219937
Zn8	Zn	1.620478	-0.141294	0.280063
O9	O	1.171131	-0.600093	-0.143619
O10	O	1.671131	-0.100093	0.356381
O11	O	1.350311	-0.584957	-0.155899
O12	O	1.850311	-0.084957	0.344101
O13	O	1.183373	-0.689145	0.035560
O14	O	1.683373	-0.189145	0.535560
O15	O	1.115157	-0.416003	-0.106441
O16	O	1.615157	0.083997	0.393559
O17	O	1.331376	-0.699363	-0.062620
O18	O	1.831376	-0.199363	0.437380
O19	O	1.227297	-0.423745	-0.180830
O20	O	1.727297	0.076255	0.319170
O21	O	1.090167	-0.566997	0.016670
O22	O	1.590167	-0.066997	0.516670
O23	O	0.992004	-0.516197	-0.131348
O24	O	1.492004	-0.016197	0.368652
O25	O	1.158836	-0.610072	-0.322788
O26	O	1.658836	-0.110072	0.177212
O27	O	1.010833	-0.599854	-0.224608
O28	O	1.510833	-0.099854	0.275392
O29	O	1.252147	-0.534157	-0.303917
O30	O	1.752147	-0.034157	0.196083
O31	O	1.208224	-0.799557	-0.087527
O32	O	1.708224	-0.299557	0.412473
O33	O	1.133847	-0.761066	-0.199677
O34	O	1.633847	-0.261066	0.300323
C35	C	0.973870	-0.551197	-0.183556
C36	C	1.473870	-0.051197	0.316444
C37	C	0.889485	-0.530296	-0.200659
C38	C	1.389485	-0.030296	0.299341
C39	C	0.562613	-0.759054	-0.013697
C40	C	1.062613	-0.259054	0.486303
C41	C	0.483322	-0.739402	-0.029774
C42	C	0.983322	-0.239402	0.470226
C43	C	0.503066	-0.620414	-0.127050
C44	C	1.003066	-0.120414	0.372950
C45	C	0.582360	-0.640054	-0.110978
C46	C	1.082360	-0.140054	0.389022
C47	C	0.612127	-0.709375	-0.054301
C48	C	1.112127	-0.209375	0.445699
C49	C	0.631874	-0.590374	-0.151583
C50	C	1.131874	-0.090374	0.348417
C51	C	0.711162	-0.610015	-0.135514
C52	C	1.211162	-0.110015	0.364486
C53	C	0.740936	-0.679335	-0.078841
C54	C	1.240936	-0.179335	0.421159
C55	C	0.691415	-0.729016	-0.038233
C56	C	1.191415	-0.229016	0.461767
C57	C	0.602107	-0.521057	-0.208263
C58	C	1.102107	-0.021057	0.291737
C59	C	0.651621	-0.471378	-0.248868
C60	C	1.151621	0.028622	0.251132
C61	C	0.730909	-0.491015	-0.232796
C62	C	1.230909	0.008985	0.267204
C63	C	0.760683	-0.560334	-0.176123
C64	C	1.260683	-0.060334	0.323877
C65	C	0.780430	-0.441334	-0.273405
C66	C	1.280430	0.058666	0.226595
C67	C	0.859718	-0.460975	-0.257336
C68	C	1.359718	0.039025	0.242664
C69	C	0.839971	-0.579975	-0.160055
C70	C	1.339971	-0.079975	0.339945
C71	C	1.171044	-0.809567	-0.143612
C72	C	1.671044	-0.309567	0.356388
C73	C	1.171081	-0.899194	-0.143620
C74	C	1.671081	-0.399194	0.356380
C75	C	1.171113	-0.971981	-0.143629
C76	C	1.671113	-0.471981	0.356371
C77	C	1.171161	-1.063298	-0.143637
C78	C	1.671161	-0.563298	0.356363
C79	C	1.171202	-1.136083	-0.143638
C80	C	1.671202	-0.636083	0.356362
C81	C	1.171249	-1.227405	-0.143645
C82	C	1.671249	-0.727405	0.356355
C83	C	1.369162	-0.649179	-0.103526
C84	C	1.869162	-0.149179	0.396474
C85	C	1.453551	-0.670097	-0.086441
C86	C	1.953551	-0.170097	0.413559
C87	C	1.211225	-0.567446	-0.341674
C88	C	1.711225	-0.067446	0.158326
C89	C	1.228311	-0.553533	-0.426074
C90	C	1.728311	-0.053533	0.073926
C91	C	1.171243	-0.389803	-0.143639
C92	C	1.671243	0.110197	0.356361
C93	C	1.171290	-0.300190	-0.143647
C94	C	1.671290	0.199810	0.356353
C95	C	1.041623	-0.705416	-0.752774
C96	C	1.541623	-0.205416	-0.252774
C97	C	1.057694	-0.692337	-0.832077
C98	C	1.557694	-0.192337	-0.332077
C99	C	1.154850	-0.613294	-0.812418
C100	C	1.654850	-0.113294	-0.312418
C101	C	1.138785	-0.626363	-0.733112
C102	C	1.638785	-0.126363	-0.233112
C103	C	1.082171	-0.672425	-0.703297
C104	C	1.582171	-0.172425	-0.203297
C105	C	1.179333	-0.593372	-0.683634
C106	C	1.679333	-0.093372	-0.183634
C107	C	1.163272	-0.606443	-0.604335
C108	C	1.663272	-0.106443	-0.104335
C109	C	1.106662	-0.652506	-0.574513
C110	C	1.606662	-0.152506	-0.074513
C111	C	1.066110	-0.685497	-0.623997
C112	C	1.566110	-0.185497	-0.123997
C113	C	1.235951	-0.547314	-0.713450
C114	C	1.735951	-0.047314	-0.213450
C115	C	1.276499	-0.514323	-0.663973
C116	C	1.776499	-0.014323	-0.163973
C117	C	1.260434	-0.527390	-0.584673
C118	C	1.760434	-0.027390	-0.084673
C119	C	1.203824	-0.573452	-0.554851
C120	C	1.703824	-0.073452	-0.054851
C121	C	1.300986	-0.494399	-0.535188
C122	C	1.800986	0.005601	-0.035188
C123	C	1.284925	-0.507470	-0.455889
C124	C	1.784925	-0.007470	0.044111
C125	C	1.187763	-0.586524	-0.475551
C126	C	1.687763	-0.086524	0.024449
C127	C	1.131236	-0.632566	0.053675
C128	C	1.631236	-0.132566	0.553675
C129	C	1.114298	-0.646287	0.138104
C130	C	1.614298	-0.146287	0.638104
H131	H	0.443009	-0.779864	0.003293
H132	H	0.943009	-0.279864	0.503293
H133	H	0.756182	-0.384897	-0.319556
H134	H	1.256182	0.115103	0.180444
H135	H	0.627374	-0.414938	-0.295016
H136	H	1.127374	0.085062	0.204984
F137	F	1.328083	-0.472361	-0.403228
F138	F	1.828083	0.027639	0.096772
F139	F	0.471378	-0.546643	-0.187372
F140	F	0.971378	-0.046643	0.312628
H141	H	1.141644	-0.624009	-0.451278
H142	H	1.641644	-0.124009	0.048722
H143	H	1.322596	-0.476822	-0.688259
H144	H	1.822596	0.023178	-0.188259
F145	F	1.089572	-0.666423	-0.490114
F146	F	1.589572	-0.166423	0.009886
H147	H	0.537545	-0.505070	-0.221346
H148	H	1.037545	-0.005070	0.278654
H149	H	0.864208	-0.636420	-0.113898
H150	H	1.364208	-0.136420	0.386102
F151	F	0.825323	-0.700241	-0.061743
F152	F	1.325323	-0.200241	0.438257
H153	H	0.900034	-0.420519	-0.290399
H154	H	1.400034	0.079481	0.209601
F155	F	0.981362	-0.754434	-0.721040
F156	F	1.481362	-0.254434	-0.221040
H157	H	1.019991	-0.722982	-0.599724
H158	H	1.519991	-0.222982	-0.099724
H159	H	1.024671	-0.719206	-0.872361
H160	H	1.524671	-0.219206	-0.372361
F161	F	0.723100	-0.802798	0.022088
F162	F	1.223100	-0.302798	0.522088
F163	F	1.215103	-0.564275	-0.844157
F164	F	1.715103	-0.064275	-0.344157
H165	H	1.347086	-0.456902	-0.559475
H166	H	1.847086	0.043098	-0.059475
H167	H	0.586850	-0.815499	0.032460
H168	H	1.086850	-0.315499	0.532460
H169	H	1.249028	-0.536675	-0.778021
H170	H	1.749028	-0.036675	-0.278021
