data_functionalizedCrystal
_audit_creation_method	'MofGen! by Chris Wilmer'
_symmetry_space_group_name_H-M	'P1'
_symmetry_Int_Tables_number	1
_symmetry_cell_setting	triclinic
loop_
_symmetry_equiv_pos_as_xyz
  x,y,z
_cell_length_a	10.489741
_cell_length_b	17.699083
_cell_length_c	16.776229
_cell_angle_alpha	89.998886
_cell_angle_beta	90.003071
_cell_angle_gamma	96.088906
loop_
_atom_site_label
_atom_site_type_symbol
_atom_site_fract_x
_atom_site_fract_y
_atom_site_fract_z
O1	O	-0.161296	1.005134	-0.066170
O2	O	-0.182281	0.784893	-0.066195
O3	O	0.013903	0.900025	-0.066184
O4	O	-0.357479	0.890002	-0.066182
O5	O	0.013915	0.900009	0.066392
O6	O	-0.182269	0.784877	0.066381
O7	O	-0.161284	1.005118	0.066406
Zn8	Zn	-0.171774	0.894995	0.087443
Zn9	Zn	-0.171790	0.895016	-0.087232
O10	O	-0.357467	0.889986	0.066395
C11	C	-0.181523	0.756683	0.000089
C12	C	-0.179267	0.672650	0.000080
C13	C	-0.294422	0.624782	0.000081
C14	C	-0.292295	0.545825	0.000091
C15	C	-0.175011	0.514737	0.000094
C16	C	-0.059847	0.562611	0.000096
C17	C	-0.061975	0.641567	0.000091
C18	C	-0.051260	0.244192	0.000115
C19	C	-0.049140	0.165230	0.000118
C20	C	-0.281580	0.148450	0.000115
C21	C	-0.283709	0.227406	0.000110
C22	C	-0.168545	0.275273	0.000116
C23	C	-0.170853	0.360887	0.000106
C24	C	-0.172702	0.429124	0.000098
C25	C	-0.404991	0.890751	0.000107
C26	C	-0.546578	0.893016	0.000109
C27	C	-0.613357	0.966271	0.000111
C28	C	-0.706115	0.931658	0.065474
C29	C	-0.706105	0.931656	-0.065236
C30	C	-0.637471	0.858373	0.065525
C31	C	-0.637451	0.858381	-0.065243
C32	C	-0.730183	0.823715	0.000135
C33	C	0.061427	0.899260	0.000102
C34	C	0.203014	0.896995	0.000095
C35	C	-0.162042	1.033328	0.000120
C36	C	-0.164297	1.117361	0.000124
N37	N	-0.171763	0.894987	0.206654
N38	N	-0.171791	0.895030	-0.206443
C39	C	-0.084928	0.945983	0.248376
C40	C	-0.084927	0.945987	0.331829
C41	C	-0.171767	0.894998	0.373557
C42	C	-0.258606	0.843996	0.331829
C43	C	-0.258600	0.843989	0.248379
C44	C	-0.258631	0.844024	0.668376
C45	C	-0.258633	0.844037	0.751833
C46	C	-0.084958	0.946022	0.751826
C47	C	-0.084952	0.946015	0.668376
C48	C	-0.171786	0.895011	0.626655
C49	C	-0.171784	0.895006	0.536167
C50	C	-0.171776	0.895006	0.464044
H51	H	-0.379213	0.252713	0.000104
H52	H	-0.014219	0.987512	0.365798
Br53	Br	-0.586674	0.806771	-0.157364
H54	H	-0.329336	0.802496	0.634414
H55	H	-0.014249	0.987550	0.785804
H56	H	-0.607208	0.827395	0.120845
Br57	Br	-0.756802	0.983350	-0.157333
Br58	Br	0.032899	1.015220	0.611747
Br59	Br	0.032925	1.015192	0.191754
H60	H	0.031796	0.680540	0.000090
H61	H	-0.329351	0.802512	0.785807
H62	H	-0.329309	0.802476	0.365809
Br63	Br	-0.437877	0.083484	0.000108
H64	H	-0.780726	0.763431	0.000164
Br65	Br	-0.376444	0.774772	0.191756
Br66	Br	0.099327	0.520421	0.000109
Br67	Br	-0.453602	0.666965	0.000068
H68	H	-0.386067	0.506854	0.000091
Br69	Br	-0.756845	0.983308	0.157585
H70	H	0.042514	0.283156	0.000121
Br71	Br	0.110042	0.123040	0.000120
H72	H	-0.562590	1.026501	0.000183
