data_functionalizedCrystal
_audit_creation_method	'MofGen! by Chris Wilmer'
_symmetry_space_group_name_H-M	'P1'
_symmetry_Int_Tables_number	1
_symmetry_cell_setting	triclinic
loop_
_symmetry_equiv_pos_as_xyz
  x,y,z
_cell_length_a	16.994730
_cell_length_b	12.759401
_cell_length_c	12.759393
_cell_angle_alpha	89.979062
_cell_angle_beta	89.952594
_cell_angle_gamma	90.045799
loop_
_atom_site_label
_atom_site_type_symbol
_atom_site_fract_x
_atom_site_fract_y
_atom_site_fract_z
Zn1	Zn	-0.313958	-1.606719	0.594589
Zn2	Zn	-0.445883	-1.606801	0.419148
Zn3	Zn	-0.314000	-1.431018	0.418924
Zn4	Zn	-0.445828	-1.431200	0.594785
O5	O	-0.379917	-1.518935	0.506861
O6	O	-0.331464	-1.753751	0.571328
O7	O	-0.428429	-1.583441	0.272097
O8	O	-0.203613	-1.454215	0.442051
O9	O	-0.428388	-1.753811	0.442432
O10	O	-0.203582	-1.583302	0.571111
O11	O	-0.331535	-1.454294	0.271933
O12	O	-0.331482	-1.284021	0.442241
O13	O	-0.428294	-1.454525	0.741780
O14	O	-0.428335	-1.284155	0.571445
O15	O	-0.331410	-1.583478	0.741636
O16	O	-0.556257	-1.583617	0.442622
O17	O	-0.556217	-1.454604	0.571662
C18	C	-0.379908	-1.245967	0.506841
C19	C	-0.379923	-1.129191	0.506857
C20	C	-0.674177	-1.518956	0.506978
C21	C	-0.584855	-1.519060	0.507106
Zn22	Zn	-0.944817	-1.430787	0.418759
Zn23	Zn	-0.945292	-1.606625	0.594287
Zn24	Zn	-0.813220	-1.431095	0.594636
Zn25	Zn	-0.813137	-1.606559	0.418862
O26	O	-0.879117	-1.518766	0.506636
O27	O	-1.055261	-1.454011	0.441854
O28	O	-0.928006	-1.583497	0.741354
O29	O	-0.830513	-1.284033	0.571408
O30	O	-1.055610	-1.583199	0.570813
O31	O	-0.927197	-1.283807	0.442192
O32	O	-0.830974	-1.454536	0.741610
O33	O	-0.702828	-1.454472	0.571508
O34	O	-0.830371	-1.583086	0.271827
O35	O	-0.702767	-1.583384	0.442368
O36	O	-0.927116	-1.453947	0.271751
O37	O	-0.927926	-1.753637	0.570913
O38	O	-0.830832	-1.753588	0.442029
C39	C	-0.174177	-1.518721	0.506531
C40	C	-0.084855	-1.518633	0.506388
C41	C	-0.379842	-1.519013	0.780895
C42	C	-0.379809	-1.519046	0.897672
C43	C	-0.379928	-1.792968	0.506883
C44	C	-0.379932	-1.909744	0.506892
C45	C	-0.430431	-1.074426	0.574028
C46	C	-0.430434	-0.964702	0.574049
C47	C	-0.329418	-0.964517	0.439718
C48	C	-0.329412	-1.074239	0.439703
C49	C	-0.458737	-0.814847	0.697960
C50	C	-0.509258	-0.760078	0.765122
C51	C	-0.586237	-0.795787	0.781209
C52	C	-0.612710	-0.886262	0.730120
C53	C	-0.562194	-0.941025	0.662950
C54	C	-0.485204	-0.905318	0.646883
C55	C	-0.301116	-1.224096	0.315790
C56	C	-0.250603	-1.278861	0.248615
C57	C	-0.173623	-1.243154	0.232517
C58	C	-0.147152	-1.152675	0.283588
C59	C	-0.197665	-1.097910	0.350764
C60	C	-0.274645	-1.133625	0.366863
C61	C	-0.379936	-1.518917	0.233894
C62	C	-0.379746	-1.519086	0.117118
C63	C	-0.329354	-1.586197	0.952460
C64	C	-0.329320	-1.586215	1.062184
C65	C	-0.430204	-1.451928	1.062321
C66	C	-0.430233	-1.451906	0.952599
C67	C	-0.236255	-1.623693	1.211994
C68	C	-0.185806	-1.690860	1.266786
C69	C	-0.173711	-1.793356	1.231173
C70	C	-0.212075	-1.828704	1.140769
C71	C	-0.262530	-1.761543	1.085982
C72	C	-0.274610	-1.659033	1.121594
C73	C	-0.523299	-1.414439	0.802788
C74	C	-0.573758	-1.347282	0.747999
C75	C	-0.585862	-1.244785	0.783610
C76	C	-0.547511	-1.209439	0.874018
C77	C	-0.497052	-1.276597	0.928806
C78	C	-0.484947	-1.379093	0.893188
C79	C	-0.879423	-1.791734	0.506447
C80	C	-0.879577	-1.908510	0.506397
C81	C	-0.878682	-1.518475	0.232602
C82	C	-0.878496	-1.518350	0.115826
C83	C	-0.878811	-1.244733	0.506828
C84	C	-0.878681	-1.127957	0.506909
C85	C	-0.879595	-1.518982	0.779603
C86	C	-0.879931	-1.518813	0.896379
C87	C	-0.930238	-1.963363	0.573422
C88	C	-0.930381	-2.073087	0.573368
C89	C	-0.829196	-2.073096	0.439263
C90	C	-0.829058	-1.963374	0.439312
C91	C	-1.023678	-2.222958	0.610581
C92	C	-1.074331	-2.277814	0.677622
C93	C	-1.086621	-2.242272	0.780119
C94	C	-1.048245	-2.151875	0.815595
C95	C	-0.997586	-2.097025	0.748560
C96	C	-0.985312	-2.132566	0.646049
C97	C	-0.735760	-1.813501	0.402110
C98	C	-0.685096	-1.758649	0.335079
C99	C	-0.672798	-1.794189	0.232581
C100	C	-0.711160	-1.884589	0.197108
C101	C	-0.761823	-1.939441	0.264139
C102	C	-0.774122	-1.903894	0.366636
C103	C	-0.829203	-1.452089	0.951325
C104	C	-0.829521	-1.451936	1.061048
C105	C	-0.931296	-1.585242	1.060870
C106	C	-0.930982	-1.585388	0.951149
C107	C	-0.800953	-1.328133	1.210903
C108	C	-0.750213	-1.261418	1.265852
C109	C	-0.673042	-1.246153	1.230522
C110	C	-0.646595	-1.297618	1.140245
C111	C	-0.697331	-1.364341	1.085300
C112	C	-0.774513	-1.379586	1.120629
C113	C	-0.959542	-1.709192	0.801292
C114	C	-1.010274	-1.775921	0.746346
C115	C	-1.087447	-1.791198	0.781674
C116	C	-1.113891	-1.739751	0.871956
C117	C	-1.063158	-1.673022	0.926902
C118	C	-0.985987	-1.657744	0.891566
H119	H	-0.583749	-1.014688	0.621353
O120	O	-0.876087	-1.693455	0.763718
H121	H	-0.845177	-1.638671	0.817281
O122	O	-0.803198	-2.036952	0.225892
H123	H	-0.867820	-2.025349	0.230704
O124	O	-1.115725	-2.375308	0.639368
H125	H	-1.153187	-2.355353	0.571007
O126	O	-0.510244	-1.524997	0.764383
H127	H	-0.545400	-1.538298	0.692324
H128	H	-0.154570	-1.662069	1.340393
O129	O	-0.484589	-1.379521	1.121572
H130	H	-0.519673	-1.332814	1.065037
O131	O	-0.984784	-1.904224	0.645727
H132	H	-0.971507	-1.925366	0.728225
O133	O	-1.141275	-2.301426	0.852406
H134	H	-1.119361	-2.382699	0.862725
H135	H	-0.487695	-0.686413	0.806720
O136	O	-0.778740	-1.205909	1.363217
H137	H	-0.730489	-1.156964	1.395496
O138	O	-0.274966	-0.905249	0.367255
H139	H	-0.283468	-0.819751	0.378531
H140	H	-0.701143	-1.913530	0.113648
O141	O	-0.249293	-1.513134	1.250395
H142	H	-0.214149	-1.499849	1.322467
O143	O	-0.695747	-0.924761	0.747459
H144	H	-0.705670	-0.996864	0.700643
O145	O	-0.749187	-1.774616	0.512439
H146	H	-0.812584	-1.756870	0.523452
O147	O	-0.640729	-0.736725	0.853653
H148	H	-0.609387	-0.667820	0.886478
H149	H	-0.675797	-1.406247	1.011801
O150	O	-0.455675	-1.238477	1.026312
H151	H	-0.472561	-1.155917	1.041869
O152	O	-0.774147	-1.380284	0.892246
H153	H	-0.738931	-1.333856	0.948892
H154	H	-0.863795	-1.340544	1.239669
O155	O	-0.618145	-1.735038	0.160282
H156	H	-0.593529	-1.666209	0.202165
H157	H	-0.288293	-1.640865	0.907741
O158	O	-0.064125	-1.114159	0.266200
H159	H	-0.065754	-1.033845	0.232825
O160	O	-0.643734	-1.661127	0.373323
H161	H	-0.660811	-1.645610	0.455850
H162	H	-0.557369	-1.125979	0.903016
H163	H	-0.583751	-1.285193	1.111493
H164	H	-0.631729	-1.191831	1.275271
O165	O	-0.986349	-1.657056	1.119942
H166	H	-0.978041	-1.645754	1.205470
O167	O	-0.640285	-1.172344	0.724519
H168	H	-0.664922	-1.214135	0.655669
O169	O	-0.956181	-1.999554	0.786836
H170	H	-1.000555	-1.940258	0.810366
O171	O	-0.119137	-1.302219	0.160063
H172	H	-0.150472	-1.371135	0.127250
O173	O	-1.091679	-1.617513	1.024269
H174	H	-1.153869	-1.639335	1.039602
O175	O	-0.169128	-1.000318	0.405858
H176	H	-0.117910	-1.020123	0.455998
O177	O	-0.375715	-0.776313	0.680579
H178	H	-0.365806	-0.704185	0.727363
O179	O	-1.142168	-1.863203	0.722451
H180	H	-1.194221	-1.818258	0.695372
O181	O	-1.061464	-2.113337	0.926087
H182	H	-1.086364	-2.032981	0.923662
H183	H	-0.272163	-1.352533	0.207029
O184	O	-0.615124	-1.385396	0.650484
H185	H	-0.598223	-1.467947	0.634912
H186	H	-0.471558	-1.119164	0.628711
H187	H	-0.363798	-1.253184	0.328901
H188	H	-0.293768	-1.790325	1.012380
O189	O	-0.199042	-1.939263	1.102365
H190	H	-0.157510	-1.980025	1.155646
O191	O	-0.119288	-1.865799	1.290254
H192	H	-0.094639	-1.823999	1.359091
H193	H	-1.013686	-2.251896	0.527116
H194	H	-1.176730	-1.752194	0.900724
H195	H	-0.988733	-1.817823	0.672842
H196	H	-0.788064	-2.117780	0.384646
