data_functionalizedCrystal
_audit_creation_method	'MofGen! by Chris Wilmer'
_symmetry_space_group_name_H-M	'P1'
_symmetry_Int_Tables_number	1
_symmetry_cell_setting	triclinic
loop_
_symmetry_equiv_pos_as_xyz
  x,y,z
_cell_length_a	27.440280
_cell_length_b	21.606444
_cell_length_c	21.606444
_cell_angle_alpha	60.001331
_cell_angle_beta	90.005497
_cell_angle_gamma	59.997270
loop_
_atom_site_label
_atom_site_type_symbol
_atom_site_fract_x
_atom_site_fract_y
_atom_site_fract_z
Zr1	Zr	0.469493	0.677381	-0.081126
O2	O	0.391669	0.806515	-0.179961
O3	O	0.493351	0.548258	-0.050831
O4	O	0.493344	0.677382	-0.179949
O5	O	0.391679	0.677387	0.051011
O6	O	0.573547	0.677370	-0.179936
O7	O	0.391675	0.677391	-0.050843
O8	O	0.573558	0.446391	0.051033
O9	O	0.391668	0.908366	-0.179958
O10	O	0.563379	0.601355	-0.037897
O11	O	0.503528	0.601361	0.038106
O12	O	0.503520	0.753388	-0.113914
O13	O	0.443669	0.753393	-0.037911
Zr14	Zr	0.597413	0.677355	0.081340
Zr15	Zr	0.597407	0.677362	-0.081106
Zr16	Zr	0.469499	0.677374	0.081319
Zr17	Zr	0.469491	0.839821	-0.081121
Zr18	Zr	0.597415	0.514915	0.081335
O19	O	0.573555	0.806478	0.051044
O20	O	0.573546	0.806488	-0.179932
O21	O	0.391678	0.806505	0.051016
O22	O	0.675237	0.548221	0.180175
O23	O	0.675228	0.548231	-0.050802
O24	O	0.493360	0.548248	0.180146
O25	O	0.675227	0.677349	-0.050798
O26	O	0.573561	0.677354	0.180163
O27	O	0.493359	0.677366	0.180150
O28	O	0.675231	0.677345	0.051056
O29	O	0.493342	0.908351	-0.179942
O30	O	0.573563	0.446385	0.180155
O31	O	0.675238	0.446370	0.180172
O32	O	0.675233	0.446376	0.051049
O33	O	0.391673	0.908361	-0.050835
O34	O	0.493348	0.908345	-0.050819
O35	O	0.563385	0.601349	0.114128
O36	O	0.623237	0.601343	0.038125
O37	O	0.563378	0.753375	-0.037892
O38	O	0.503527	0.753381	0.038111
C39	C	0.533455	0.474180	0.000100
C40	C	0.533455	0.405220	0.000098
C41	C	0.564696	0.372819	-0.039576
C42	C	0.564698	0.308019	-0.039571
C43	C	0.533456	0.275626	0.000104
C44	C	0.502214	0.308029	0.039783
C45	C	0.502216	0.372823	0.039782
C46	C	0.502207	0.046720	0.039789
C47	C	0.502206	-0.018078	0.039786
C48	C	0.564689	-0.018084	-0.039563
C49	C	0.564691	0.046710	-0.039564
C50	C	0.533452	0.079104	0.000117
C51	C	0.533451	0.149367	0.000112
C52	C	0.533453	0.205369	0.000105
C53	C	0.373452	0.677392	0.000081
C54	C	0.319149	0.677400	0.000073
C55	C	0.013697	0.597994	0.039808
C56	C	-0.037322	0.597990	0.039815
O57	O	-0.037136	0.530497	0.073584
N58	N	-0.094084	0.677348	0.000134
C59	C	-0.099827	0.756716	-0.039550
O60	O	-0.152793	0.824217	-0.073301
C61	C	-0.048809	0.756720	-0.039552
C62	C	0.007952	0.677357	0.000125
C63	C	0.070456	0.518637	0.079483
C64	C	0.121471	0.518642	0.079475
C65	C	0.115726	0.598005	0.039792
C66	C	0.058967	0.677362	0.000117
C67	C	-0.054553	0.836088	-0.079231
C68	C	-0.003529	0.836085	-0.079229
C69	C	0.053233	0.756721	-0.039552
C70	C	0.104238	0.756729	-0.039574
N71	N	0.161000	0.677371	0.000107
C72	C	0.166744	0.598009	0.039790
C73	C	-0.206966	0.756702	-0.039542
C74	C	-0.257983	0.756699	-0.039545
C75	C	-0.195474	0.597972	0.039821
C76	C	-0.144456	0.597976	0.039819
C77	C	-0.150204	0.677344	0.000139
C78	C	0.273877	0.598025	0.039770
C79	C	0.324893	0.598038	0.039756
C80	C	0.262380	0.756764	-0.039607
C81	C	0.211367	0.756753	-0.039597
C82	C	0.217120	0.677376	0.000097
O83	O	0.104098	0.824187	-0.073323
O84	O	0.219712	0.530520	0.073543
C85	C	0.693454	0.677344	0.000132
C86	C	0.747757	0.677336	0.000141
C87	C	0.533445	0.677377	-0.203088
C88	C	0.533442	0.677380	-0.272050
C89	C	0.533451	0.880556	0.000113
C90	C	0.533451	0.949516	0.000116
C91	C	0.502196	0.756739	-0.344129
C92	C	0.502201	0.756736	-0.408924
C93	C	0.533449	0.677374	-0.401638
C94	C	0.564699	0.598009	-0.329552
C95	C	0.564697	0.598013	-0.264759
C96	C	0.564708	0.597994	-0.590855
C97	C	0.564707	0.597997	-0.655656
C98	C	0.502213	0.756718	-0.735020
C99	C	0.502211	0.756721	-0.670227
C100	C	0.533463	0.677357	-0.598146
C101	C	0.533458	0.677360	-0.527889
C102	C	0.533451	0.677370	-0.471894
C103	C	0.533461	0.677359	0.203301
C104	C	0.533464	0.677356	0.272264
C105	C	0.693456	0.474156	0.000126
C106	C	0.747759	0.405188	0.000132
C107	C	0.533463	0.474171	0.203295
C108	C	0.533466	0.405208	0.272255
C109	C	0.693464	0.474148	0.203320
C110	C	0.747770	0.405176	0.272289
C111	C	0.373442	0.880589	-0.203107
C112	C	0.319136	0.949560	-0.272075
C113	C	0.373450	0.880580	0.000088
C114	C	0.319147	0.949548	0.000082
C115	C	0.533443	0.880565	-0.203081
C116	C	0.533440	0.949528	-0.272041
C117	C	0.742016	0.372806	-0.039554
C118	C	0.793035	0.308012	-0.039564
C119	C	0.849797	0.275597	0.000119
C120	C	0.855539	0.307985	0.039806
C121	C	0.804521	0.372782	0.039811
C122	C	0.564713	0.372816	0.344329
C123	C	0.564713	0.308027	0.409131
C124	C	0.533471	0.275627	0.401857
C125	C	0.502220	0.308025	0.329775
C126	C	0.502217	0.372818	0.264975
C127	C	0.804520	0.372784	0.265005
C128	C	0.855551	0.307987	0.329802
C129	C	0.849832	0.275580	0.401883
C130	C	0.793076	0.307979	0.409166
C131	C	0.742046	0.372779	0.344369
C132	C	0.262386	0.981960	-0.264791
C133	C	0.211354	1.046777	-0.329588
C134	C	0.217074	1.079188	-0.401669
C135	C	0.273830	1.046785	-0.408952
C136	C	0.324860	0.981974	-0.344156
C137	C	0.324890	0.981937	0.039761
C138	C	0.273871	1.046749	0.039753
C139	C	0.217109	1.079166	0.000068
C140	C	0.211367	1.046775	-0.039617
C141	C	0.262385	0.981969	-0.039612
C142	C	0.564688	0.981908	-0.264743
C143	C	0.564697	1.046697	-0.329532
C144	C	0.533453	1.079110	-0.401619
C145	C	0.502203	1.046724	-0.408916
C146	C	0.502199	0.981932	-0.344127
H147	H	0.476775	0.399205	0.072086
N148	N	0.684085	0.405831	0.351837
N149	N	0.668890	0.355174	0.385654
H150	H	0.627956	0.378511	0.390937
H151	H	0.278569	0.533390	0.072093
N152	N	-0.009413	0.917168	-0.119764
N153	N	-0.060098	0.988015	-0.155182
H154	H	-0.064255	1.045281	-0.183811
H155	H	0.590140	0.533390	-0.206069
N156	N	0.533469	1.145293	-0.467787
N157	N	0.561374	1.174191	-0.461252
H158	H	0.561387	1.220934	-0.507981
N159	N	0.256523	0.948869	-0.191173
N160	N	0.205844	0.977819	-0.184694
H161	H	0.201698	0.954455	-0.132703
N162	N	0.382875	0.516966	0.080276
N163	N	0.398093	0.463832	0.063450
H164	H	0.439041	0.406576	0.092066
H165	H	0.788427	0.281583	0.467863
H166	H	0.590156	0.533371	-0.532172
H167	H	0.590137	0.281639	-0.071876
H168	H	0.476767	0.821340	-0.793718
N169	N	0.470261	0.948887	-0.351605
N170	N	0.415172	0.999549	-0.385431
H171	H	0.392613	0.976217	-0.390719
N172	N	0.382862	0.948838	0.080308
N173	N	0.387971	0.977778	0.115727
H174	H	0.428913	0.954409	0.144363
H175	H	0.165146	1.073149	-0.323644
N176	N	0.901926	0.209371	0.000170
N177	N	0.938631	0.137070	0.061306
H178	H	0.975452	0.090287	0.061359
N179	N	0.470267	0.837792	-0.482556
N180	N	0.470264	0.837781	-0.540403
H181	H	0.447704	0.895030	-0.592408
H182	H	0.165148	0.821377	-0.071915
N183	N	0.164939	1.145393	-0.467846
N184	N	0.114274	1.174308	-0.461323
H185	H	0.077451	1.221065	-0.508058
N186	N	-0.315965	0.837760	-0.080073
N187	N	-0.361516	0.837756	-0.080066
H188	H	-0.402467	0.895007	-0.108686
H189	H	0.695802	0.399198	-0.071878
H190	H	0.278480	1.073182	-0.467648
N191	N	0.179443	0.437566	0.120011
N192	N	0.184553	0.366719	0.155439
H193	H	0.225495	0.309453	0.184073
H194	H	0.590134	0.399194	-0.071888
H195	H	0.371067	0.955594	-0.350096
N196	N	0.076343	0.437555	0.120029
N197	N	0.127031	0.366714	0.155449
H198	H	0.131194	0.309444	0.184084
H199	H	0.278558	1.073111	0.072072
N200	N	0.787150	0.274947	-0.080109
N201	N	0.736464	0.303893	-0.115527
H202	H	0.732306	0.280543	-0.144163
H203	H	-0.098241	0.533351	0.072135
H204	H	0.175571	1.131936	0.000070
H205	H	0.590154	0.399189	0.350266
H206	H	0.590154	0.533367	-0.649715
H207	H	0.590129	0.073086	-0.071875
H208	H	0.165144	1.073180	-0.071927
H209	H	-0.211654	0.821337	-0.071858
N210	N	-0.112522	0.917165	-0.119766
N211	N	-0.117629	0.988011	-0.155185
H212	H	-0.158570	1.045278	-0.183814
H213	H	0.257700	0.955600	-0.071922
H214	H	0.901761	0.281583	0.072114
N215	N	0.901955	0.209376	0.468075
N216	N	0.896846	0.180436	0.532432
H217	H	0.933659	0.133677	0.579179
H218	H	0.476784	0.281635	0.323864
N219	N	0.596639	0.274951	0.482748
N220	N	0.624536	0.303885	0.489225
H221	H	0.647085	0.280527	0.541215
H222	H	0.257713	0.821379	-0.071919
H223	H	0.476780	0.281644	0.072091
N224	N	-0.189621	0.516910	0.080347
N225	N	-0.235181	0.516927	0.080338
H226	H	-0.231051	0.459682	0.108955
H227	H	0.590131	0.955527	-0.206052
N228	N	0.913516	0.274911	0.322339
N229	N	0.918610	0.303851	0.257974
H230	H	0.959546	0.280492	0.252700
H231	H	0.809205	0.399139	0.072133
H232	H	0.590143	1.073059	-0.323576
H233	H	0.476765	1.073125	-0.467618
N234	N	0.470275	0.837815	-0.351588
N235	N	0.442384	0.908664	-0.415952
H236	H	0.419842	0.965928	-0.421224
N237	N	0.533494	0.209431	0.468061
N238	N	0.581621	0.137121	0.514699
H239	H	0.581642	0.090368	0.561460
N240	N	0.470293	0.837796	-0.677685
N241	N	0.483541	0.890927	-0.711487
H242	H	0.461000	0.948190	-0.716757
N243	N	0.596603	-0.051165	-0.080103
N244	N	0.583349	-0.000529	-0.150064
H245	H	0.605886	-0.023888	-0.178697
N246	N	0.596611	0.516951	-0.322122
N247	N	0.569413	0.499250	-0.349431
H248	H	0.591949	0.442001	-0.344184
N249	N	0.470297	-0.051169	0.080332
N250	N	0.483556	-0.087331	0.150294
H251	H	0.461022	-0.110701	0.178930
N252	N	0.470295	0.405891	0.191360
N253	N	0.442405	0.376947	0.184885
H254	H	0.419858	0.400302	0.132895
H255	H	0.476773	0.073084	0.072104
H256	H	0.809189	0.399160	0.206319
