data_functionalizedCrystal
_audit_creation_method	'MofGen! by Chris Wilmer'
_symmetry_space_group_name_H-M	'P1'
_symmetry_Int_Tables_number	1
_symmetry_cell_setting	triclinic
loop_
_symmetry_equiv_pos_as_xyz
  x,y,z
_cell_length_a	10.654554
_cell_length_b	15.538191
_cell_length_c	9.130313
_cell_angle_alpha	89.996790
_cell_angle_beta	90.003803
_cell_angle_gamma	65.879468
loop_
_atom_site_label
_atom_site_type_symbol
_atom_site_fract_x
_atom_site_fract_y
_atom_site_fract_z
O1	O	1.606162	0.131929	0.121809
O2	O	1.234811	0.144493	0.121804
O3	O	1.492773	0.001555	0.121814
O4	O	1.348200	0.274867	0.121799
O5	O	1.492756	0.001563	-0.121785
O6	O	1.234794	0.144501	-0.121794
O7	O	1.606145	0.131938	-0.121790
Cu8	Cu	1.420468	0.138220	-0.144035
Cu9	Cu	1.420488	0.138210	0.144049
O10	O	1.348183	0.274876	-0.121800
C11	C	1.188437	0.143574	0.000005
C12	C	1.050285	0.140811	0.000004
C13	C	0.909494	0.051456	0.000028
C14	C	1.039303	0.054052	0.000013
C15	C	0.931449	0.224981	-0.000005
C16	C	0.801643	0.222385	-0.000000
C17	C	0.971764	-0.047228	0.000045
C18	C	1.101573	-0.044633	0.000029
C19	C	1.507891	-0.033437	0.000020
C20	C	1.552947	-0.137716	0.000035
C21	C	1.105329	-0.428437	-0.000002
C22	C	1.147697	-0.526425	-0.000004
C23	C	1.386010	-0.547308	-0.000001
C24	C	1.343661	-0.449320	0.000009
C25	C	1.203319	-0.389891	0.000007
C26	C	1.441651	-0.410774	0.000018
C27	C	1.399306	-0.312794	0.000020
C28	C	1.258970	-0.253359	0.000014
C29	C	1.160974	-0.291911	0.000009
C30	C	1.581993	-0.470204	0.000009
C31	C	1.679983	-0.431658	0.000018
C32	C	1.637638	-0.333677	0.000031
C33	C	1.497302	-0.274242	0.000024
C34	C	1.735634	-0.295125	0.000035
C35	C	1.693289	-0.197145	0.000037
C36	C	1.454957	-0.176262	0.000026
C37	C	1.652520	0.132857	0.000013
C38	C	1.790671	0.135620	0.000023
C39	C	1.333066	0.309868	-0.000002
C40	C	1.288010	0.414147	-0.000008
N41	N	1.420463	0.138227	-0.346657
C42	C	1.470417	0.195717	-0.423326
C43	C	1.470444	0.195699	-0.576663
C44	C	1.370552	0.080700	-0.576649
C45	C	1.370535	0.080713	-0.423315
C46	C	1.528084	0.262113	-0.423335
C47	C	1.528110	0.262096	-0.576672
N48	N	1.420506	0.138196	0.346672
H49	H	0.960437	-0.085821	-0.101892
H50	H	1.329903	0.033875	-0.639082
Br51	Br	1.708761	0.212913	-0.655909
H52	H	1.616466	-0.549985	0.000021
H53	H	0.940400	0.295622	-0.000026
H54	H	0.950833	-0.078656	0.105228
H55	H	0.704897	0.290919	-0.000021
Br56	Br	1.200871	-0.094321	-0.175279
H57	H	0.991049	-0.380046	0.000008
Br58	Br	1.302730	0.002693	-0.319268
Br59	Br	1.418859	0.385528	-0.646098
Br60	Br	1.711147	0.223658	-0.353927
Br61	Br	1.200154	-0.106591	0.169954
Br62	Br	1.264490	-0.095600	0.000045
H63	H	1.067891	-0.557804	-0.000033
Br64	Br	0.970507	-0.211249	0.000028
Br65	Br	1.406989	0.379951	-0.344099
Br66	Br	1.826275	-0.144827	0.000013
H67	H	1.224495	-0.173578	0.000007
H68	H	1.500276	-0.595708	-0.000005
H69	H	1.794250	-0.480058	0.000014
H70	H	1.849900	-0.343526	0.000022
