data_functionalizedCrystal
_audit_creation_method	'MofGen! by Chris Wilmer'
_symmetry_space_group_name_H-M	'P1'
_symmetry_Int_Tables_number	1
_symmetry_cell_setting	triclinic
loop_
_symmetry_equiv_pos_as_xyz
  x,y,z
_cell_length_a	14.971486
_cell_length_b	14.971486
_cell_length_c	14.048226
_cell_angle_alpha	89.993360
_cell_angle_beta	89.998499
_cell_angle_gamma	83.614129
loop_
_atom_site_label
_atom_site_type_symbol
_atom_site_fract_x
_atom_site_fract_y
_atom_site_fract_z
O1	O	1.186947	0.116565	-0.079052
O2	O	1.686947	0.616565	0.420948
O3	O	0.926547	0.130523	-0.079078
O4	O	1.426547	0.630523	0.420922
O5	O	1.063726	-0.006656	-0.079057
O6	O	1.563726	0.493344	0.420943
O7	O	1.049768	0.253744	-0.079072
O8	O	1.549768	0.753744	0.420928
O9	O	1.063710	-0.006664	0.079264
O10	O	1.563710	0.493336	0.579264
O11	O	0.926530	0.130515	0.079244
O12	O	1.426530	0.630515	0.579244
O13	O	1.186930	0.116556	0.079270
O14	O	1.686930	0.616556	0.579270
Zn15	Zn	1.056728	0.123535	0.104394
Zn16	Zn	1.556728	0.623535	0.604394
Zn17	Zn	1.056750	0.123545	-0.104202
Zn18	Zn	1.556750	0.623545	0.395798
O19	O	1.049751	0.253736	0.079249
O20	O	1.549751	0.753736	0.579249
C21	C	0.893214	0.129895	0.000080
C22	C	1.393214	0.629895	0.500080
C23	C	0.793917	0.128024	0.000070
C24	C	1.293917	0.628024	0.500070
C25	C	0.736692	0.208614	0.000067
C26	C	1.236692	0.708614	0.500067
C27	C	0.643392	0.206850	0.000081
C28	C	1.143392	0.706850	0.500081
C29	C	0.607320	0.124497	0.000092
C30	C	1.107320	0.624497	0.500092
C31	C	0.664552	0.043902	0.000098
C32	C	1.164552	0.543902	0.500098
C33	C	0.757850	0.045666	0.000090
C34	C	1.257850	0.545666	0.500090
C35	C	0.470090	0.040231	0.000111
C36	C	0.970090	0.540231	0.500111
C37	C	0.376786	0.038466	0.000117
C38	C	0.876786	0.538466	0.500117
C39	C	0.355632	0.201415	0.000102
C40	C	0.855632	0.701415	0.500102
C41	C	0.448930	0.203179	0.000094
C42	C	0.948930	0.703179	0.500094
C43	C	0.506156	0.122584	0.000099
C44	C	1.006156	0.622584	0.500099
C45	C	1.063094	-0.039985	0.000103
C46	C	1.563094	0.460015	0.500103
C47	C	1.061223	-0.139282	0.000102
C48	C	1.561223	0.360718	0.500102
C49	C	1.141812	-0.196507	0.000111
C50	C	1.641812	0.303493	0.500111
C51	C	1.140049	-0.289807	0.000101
C52	C	1.640049	0.210193	0.500101
C53	C	1.057696	-0.325879	0.000089
C54	C	1.557696	0.174121	0.500089
C55	C	0.977101	-0.268646	0.000078
C56	C	1.477101	0.231354	0.500078
C57	C	0.978865	-0.175349	0.000081
C58	C	1.478865	0.324651	0.500081
C59	C	0.973430	-0.463109	0.000074
C60	C	1.473430	0.036891	0.500074
C61	C	0.971665	-0.556413	0.000073
C62	C	1.471665	-0.056413	0.500073
C63	C	1.134614	-0.577567	0.000094
C64	C	1.634614	-0.077567	0.500094
C65	C	1.136378	-0.484269	0.000097
C66	C	1.636378	0.015731	0.500097
C67	C	1.055782	-0.427043	0.000088
C68	C	1.555782	0.072957	0.500088
C69	C	1.220263	0.117185	0.000110
C70	C	1.720263	0.617185	0.500110
C71	C	1.319561	0.119056	0.000114
C72	C	1.819561	0.619056	0.500114
C73	C	1.050384	0.287065	0.000087
C74	C	1.550384	0.787065	0.500087
C75	C	1.052254	0.386362	0.000082
C76	C	1.552254	0.886362	0.500082
N77	N	1.056719	0.123527	0.246754
N78	N	1.556719	0.623527	0.746754
N79	N	1.056765	0.123546	-0.246562
N80	N	1.556765	0.623546	0.253438
C81	C	1.117482	0.062809	0.296581
C82	C	1.617482	0.562809	0.796581
C83	C	1.117488	0.062808	0.396239
C84	C	1.617488	0.562808	0.896239
C85	C	1.056735	0.123531	0.446068
C86	C	1.556735	0.623531	0.946068
C87	C	0.995966	0.184252	0.396234
C88	C	1.495966	0.684252	0.896234
C89	C	0.995957	0.184247	0.296578
C90	C	1.495957	0.684247	0.796578
C91	C	0.995992	0.184258	0.603948
C92	C	1.495992	0.684258	1.103948
C93	C	0.996003	0.184264	0.703611
C94	C	1.496003	0.684264	1.203611
C95	C	1.117523	0.062819	0.703609
C96	C	1.617523	0.562819	1.203609
C97	C	1.117514	0.062815	0.603953
C98	C	1.617514	0.562815	1.103953
C99	C	1.056746	0.123537	0.554126
C100	C	1.556746	0.623537	1.054126
H101	H	0.766054	0.275675	0.000057
H102	H	1.266054	0.775675	0.500057
H103	H	1.166987	0.013375	0.563383
H104	H	1.666987	0.513375	1.063383
O105	O	1.176518	0.003708	0.751898
O106	O	1.676518	0.503708	1.251898
C107	C	1.161882	-0.084864	0.727578
C108	C	1.661882	0.415136	1.227578
H109	H	1.127396	-0.084814	0.655228
H110	H	1.627396	0.415186	1.155228
H111	H	1.229072	-0.128795	0.724161
H112	H	1.729072	0.371205	1.224161
H113	H	1.117346	-0.112606	0.783678
H114	H	1.617346	0.387394	1.283678
H115	H	0.347419	-0.028593	0.000127
H116	H	0.847419	0.471407	0.500127
O117	O	0.483859	0.283235	-0.000049
O118	O	0.983859	0.783235	0.499951
C119	C	0.454635	0.332356	-0.082061
C120	C	0.954635	0.832356	0.417939
H121	H	0.389903	0.307906	-0.109387
H122	H	0.889903	0.807906	0.390613
H123	H	0.441762	0.406829	-0.063629
H124	H	0.941762	0.906829	0.436371
H125	H	0.508607	0.322057	-0.139482
H126	H	1.008607	0.822057	0.360518
O127	O	0.900522	-0.119847	-0.000053
O128	O	1.400522	0.380153	0.499947
C129	C	0.850548	-0.136186	-0.082069
C130	C	1.350548	0.363814	0.417931
H131	H	0.872436	-0.206932	-0.109401
H132	H	1.372436	0.293068	0.390599
H133	H	0.775952	-0.129699	-0.063639
H134	H	1.275952	0.370301	0.436361
H135	H	0.862845	-0.085139	-0.139484
H136	H	1.362845	0.414861	0.360516
O137	O	0.891689	-0.591494	0.000222
O138	O	1.391689	-0.091494	0.500222
C139	C	0.885784	-0.644853	0.082205
C140	C	1.385784	-0.144853	0.582205
H141	H	0.932535	-0.622745	0.139527
H142	H	1.432535	-0.122745	0.639527
H143	H	0.813699	-0.636558	0.109710
H144	H	1.313699	-0.136558	0.609710
H145	H	0.906341	-0.718403	0.063672
H146	H	1.406341	-0.218403	0.563672
O147	O	0.936890	0.243269	0.751869
O148	O	1.436890	0.743269	1.251869
C149	C	0.883257	0.296869	0.686523
C150	C	1.383257	0.796869	1.186523
H151	H	0.882214	0.260197	0.615487
H152	H	1.382214	0.760197	1.115487
H153	H	0.811845	0.310372	0.715326
H154	H	1.311845	0.810372	1.215326
H155	H	0.912343	0.363376	0.675916
H156	H	1.412343	0.863376	1.175916
O157	O	0.937087	0.243281	0.555439
O158	O	1.437087	0.743281	1.055439
C159	C	0.985040	0.298553	0.497795
C160	C	1.485040	0.798553	0.997795
H161	H	1.054990	0.263041	0.482864
H162	H	1.554990	0.763041	0.982864
H163	H	0.947718	0.312639	0.427719
H164	H	1.447718	0.812639	0.927719
H165	H	0.991188	0.364673	0.536188
H166	H	1.491188	0.864673	1.036188
O167	O	0.813569	-0.032536	0.000132
O168	O	1.313569	0.467464	0.500132
C169	C	0.903651	-0.013321	0.000101
C170	C	1.403651	0.486679	0.500101
H171	H	0.907301	0.056938	0.030068
H172	H	1.407301	0.556938	0.530068
H173	H	0.945867	-0.064684	0.046069
H174	H	1.445867	0.435316	0.546069
H175	H	0.930626	-0.016680	-0.075855
H176	H	1.430626	0.483320	0.424145
H177	H	0.516682	-0.025399	0.000116
H178	H	1.016682	0.474601	0.500116
H179	H	0.635175	-0.023152	0.000120
H180	H	1.135175	0.476848	0.500120
H181	H	1.166964	0.013367	0.436808
H182	H	1.666964	0.513367	0.936808
H183	H	1.200238	-0.624165	0.000099
H184	H	1.700238	-0.124165	0.500099
H185	H	0.946496	0.233690	0.436810
H186	H	1.446496	0.733690	0.936810
O187	O	0.300136	0.279766	0.000230
O188	O	0.800136	0.779766	0.500230
C189	C	0.316488	0.329753	0.082228
C190	C	0.816488	0.829753	0.582228
H191	H	0.387239	0.307870	0.109559
H192	H	0.887239	0.807870	0.609559
H193	H	0.309998	0.404346	0.063776
H194	H	0.809998	0.904346	0.563776
H195	H	0.265450	0.317466	0.139653
H196	H	0.765450	0.817466	0.639653
H197	H	0.907800	-0.416517	0.000064
H198	H	1.407800	0.083483	0.500064
H199	H	0.596802	0.272474	0.000077
H200	H	1.096802	0.772474	0.500077
H201	H	0.910047	-0.298024	0.000062
H202	H	1.410047	0.201976	0.500062
H203	H	1.208874	-0.167145	0.000126
H204	H	1.708874	0.332855	0.500126
H205	H	1.205673	-0.336396	0.000110
H206	H	1.705673	0.163604	0.500110
O207	O	1.216398	-0.449271	-0.000057
O208	O	1.716398	0.050729	0.499943
C209	C	1.265553	-0.478511	-0.082036
C210	C	1.765553	0.021489	0.417964
H211	H	1.217406	-0.497963	-0.139354
H212	H	1.717406	0.002037	0.360646
H213	H	1.303669	-0.421947	-0.109551
H214	H	1.803669	0.078053	0.390449
H215	H	1.315330	-0.539263	-0.063493
H216	H	1.815330	-0.039263	0.436507
H217	H	0.946477	0.233689	0.256010
H218	H	1.446477	0.733689	0.756010
H219	H	1.166957	0.013365	0.256017
H220	H	1.666957	0.513365	0.756017
