data_functionalizedCrystal
_audit_creation_method	'MofGen! by Chris Wilmer'
_symmetry_space_group_name_H-M	'P1'
_symmetry_Int_Tables_number	1
_symmetry_cell_setting	triclinic
loop_
_symmetry_equiv_pos_as_xyz
  x,y,z
_cell_length_a	11.169417
_cell_length_b	14.908520
_cell_length_c	11.169409
_cell_angle_alpha	93.260433
_cell_angle_beta	89.979436
_cell_angle_gamma	93.321403
loop_
_atom_site_label
_atom_site_type_symbol
_atom_site_fract_x
_atom_site_fract_y
_atom_site_fract_z
Zn1	Zn	1.807307	-0.359063	-0.706060
Zn2	Zn	2.307307	0.140937	-0.206060
Zn3	Zn	1.795569	-0.509955	-0.516941
Zn4	Zn	2.295569	-0.009955	-0.016941
Zn5	Zn	1.606586	-0.359118	-0.505398
Zn6	Zn	2.106586	0.140882	-0.005398
Zn7	Zn	1.594981	-0.509882	-0.717580
Zn8	Zn	2.094981	-0.009882	-0.217580
O9	O	1.701111	-0.434504	-0.611495
O10	O	2.201111	0.065496	-0.111495
O11	O	1.973699	-0.379087	-0.680982
O12	O	2.473699	0.120913	-0.180982
O13	O	1.770444	-0.490000	-0.347464
O14	O	2.270444	0.010000	0.152536
O15	O	1.642982	-0.232867	-0.522365
O16	O	2.142982	0.267133	-0.022365
O17	O	1.965075	-0.489947	-0.542037
O18	O	2.465075	0.010053	-0.042037
O19	O	1.790451	-0.232826	-0.669790
O20	O	2.290451	0.267174	-0.169790
O21	O	1.631600	-0.379180	-0.338984
O22	O	2.131600	0.120820	0.161016
O23	O	1.437098	-0.379109	-0.533535
O24	O	1.937098	0.120891	-0.033535
O25	O	1.623202	-0.489822	-0.883997
O26	O	2.123202	0.010178	-0.383997
O27	O	1.428571	-0.489875	-0.689424
O28	O	1.928571	0.010125	-0.189424
O29	O	1.779198	-0.379016	-0.875534
O30	O	2.279198	0.120984	-0.375534
O31	O	1.759191	-0.636189	-0.553207
O32	O	2.259191	-0.136189	-0.053207
O33	O	1.611820	-0.636135	-0.700616
O34	O	2.111820	-0.136135	-0.200616
C35	C	1.389287	-0.434491	-0.611478
C36	C	1.889287	0.065509	-0.111478
C37	C	1.255886	-0.434507	-0.611501
C38	C	1.755886	0.065493	-0.111501
C39	C	1.683005	-0.668896	-0.629440
C40	C	2.183005	-0.168896	-0.129440
C41	C	1.675369	-0.769170	-0.637158
C42	C	2.175369	-0.269170	-0.137158
C43	C	1.814635	-0.957589	-0.498287
C44	C	2.314635	-0.457589	0.001713
C45	C	1.807464	-1.051806	-0.505534
C46	C	2.307464	-0.551806	-0.005534
C47	C	1.653864	-1.051820	-0.658905
C48	C	2.153864	-0.551820	-0.158905
C49	C	1.661034	-0.957603	-0.651658
C50	C	2.161034	-0.457603	-0.151658
C51	C	1.741422	-0.910492	-0.571345
C52	C	2.241422	-0.410492	-0.071345
C53	C	1.748585	-0.816274	-0.564092
C54	C	2.248585	-0.316274	-0.064092
C55	C	1.594991	-0.816290	-0.717468
C56	C	2.094991	-0.316290	-0.217468
C57	C	1.587821	-0.910506	-0.724716
C58	C	2.087821	-0.410506	-0.224716
C59	C	2.014152	-0.434519	-0.611512
C60	C	2.514152	0.065481	-0.111512
C61	C	2.147552	-0.434525	-0.611519
C62	C	2.647552	0.065475	-0.111519
C63	C	1.701215	-0.434404	-0.924530
C64	C	2.201215	0.065596	-0.424530
C65	C	1.701259	-0.434362	-1.057926
C66	C	2.201259	0.065638	-0.557926
C67	C	1.719320	-0.199198	-0.593505
C68	C	2.219320	0.300802	-0.093505
C69	C	1.727080	-0.098924	-0.585839
C70	C	2.227080	0.401076	-0.085839
C71	C	1.701082	-0.434539	-0.299673
C72	C	2.201082	0.065461	0.200327
C73	C	1.701289	-0.434327	-0.166257
C74	C	2.201289	0.065673	0.333743
H75	H	1.880081	-0.919230	-0.432884
H76	H	2.380081	-0.419230	0.067116
N77	N	1.567168	-1.102641	-0.745522
N78	N	2.067168	-0.602641	-0.245522
H79	H	1.587013	-1.086182	-0.830026
H80	H	2.087013	-0.586182	-0.330026
H81	H	1.573783	-1.169455	-0.738922
H82	H	2.073783	-0.669455	-0.238922
H83	H	1.867085	-1.090149	-0.446045
H84	H	2.367085	-0.590149	0.053955
N85	N	1.501123	-0.961321	-0.811336
N86	N	2.001123	-0.461321	-0.311336
H87	H	1.507688	-1.028154	-0.804843
H88	H	2.007688	-0.528154	-0.304843
H89	H	1.416668	-0.944921	-0.791307
H90	H	1.916668	-0.444921	-0.291307
N91	N	1.516014	-0.765488	-0.796264
N92	N	2.016014	-0.265488	-0.296264
H93	H	1.567730	-0.726329	-0.848917
H94	H	2.067730	-0.226329	-0.348917
H95	H	1.464015	-0.809689	-0.848161
H96	H	1.964015	-0.309689	-0.348161
N97	N	1.835282	-0.765457	-0.477472
N98	N	2.335282	-0.265457	0.022528
H99	H	1.880577	-0.809593	-0.432295
H100	H	2.380577	-0.309593	0.067705
H101	H	1.893774	-0.726300	-0.523370
H102	H	2.393774	-0.226300	-0.023370
