data_functionalizedCrystal
_audit_creation_method	'MofGen! by Chris Wilmer'
_symmetry_space_group_name_H-M	'P1'
_symmetry_Int_Tables_number	1
_symmetry_cell_setting	triclinic
loop_
_symmetry_equiv_pos_as_xyz
  x,y,z
_cell_length_a	6.817900
_cell_length_b	7.190339
_cell_length_c	14.858572
_cell_angle_alpha	89.892171
_cell_angle_beta	75.475997
_cell_angle_gamma	119.388276
loop_
_atom_site_label
_atom_site_type_symbol
_atom_site_fract_x
_atom_site_fract_y
_atom_site_fract_z
V1	V	4.125828	0.296434	-0.289300
O2	O	4.021815	-0.012864	-0.284469
O3	O	4.162881	0.586450	-0.286671
O4	O	4.081301	0.292480	-0.415770
O5	O	4.103959	0.283141	-0.154476
V6	V	4.597882	0.259367	-0.273253
O7	O	4.412246	0.377744	-0.324500
O8	O	4.761661	0.178057	-0.238052
O9	O	4.337623	-0.030650	-0.275882
O10	O	4.819292	0.568664	-0.278083
O11	O	4.737147	0.272659	-0.408077
O12	O	4.419202	0.263321	-0.146782
C13	C	3.924480	0.282140	-0.446617
C14	C	3.969923	0.280827	-0.550003
C15	C	4.028561	0.657134	-0.281943
C16	C	4.142268	0.898687	-0.280614
C17	C	4.136248	0.276026	-0.928582
C18	C	4.089963	0.277362	-0.823250
C19	C	4.053087	0.278428	-0.739296
C20	C	4.006798	0.279760	-0.633957
C21	C	4.239368	0.273667	-0.115931
C22	C	4.173160	0.274970	-0.012544
