data_functionalizedCrystal
_audit_creation_method	'MofGen! by Chris Wilmer'
_symmetry_space_group_name_H-M	'P1'
_symmetry_Int_Tables_number	1
_symmetry_cell_setting	triclinic
loop_
_symmetry_equiv_pos_as_xyz
  x,y,z
_cell_length_a	11.026607
_cell_length_b	10.908878
_cell_length_c	9.130307
_cell_angle_alpha	89.997946
_cell_angle_beta	89.998664
_cell_angle_gamma	84.335404
loop_
_atom_site_label
_atom_site_type_symbol
_atom_site_fract_x
_atom_site_fract_y
_atom_site_fract_z
O1	O	1.506479	0.513757	-0.121798
O2	O	1.164979	0.455255	-0.121800
O3	O	1.380999	0.308038	-0.121793
O4	O	1.290459	0.660973	-0.121805
O5	O	1.380993	0.308037	0.121806
O6	O	1.164973	0.455253	0.121799
O7	O	1.506473	0.513755	0.121801
Cu8	Cu	1.335722	0.484504	0.144043
Cu9	Cu	1.335730	0.484506	-0.144041
O10	O	1.290453	0.660971	0.121794
C11	C	1.121943	0.444461	-0.000001
C12	C	0.993722	0.412288	-0.000001
C13	C	1.389458	0.262152	0.000005
C14	C	1.414656	0.125424	-0.000000
C15	C	0.901989	0.501123	-0.000005
C16	C	0.769465	0.467873	-0.000006
C17	C	1.549509	0.524548	-0.000001
C18	C	1.677730	0.556721	-0.000010
C19	C	1.322712	0.055162	-0.000003
C20	C	1.348753	-0.086154	-0.000008
C21	C	1.281995	0.706858	-0.000007
C22	C	1.256796	0.843586	-0.000011
N23	N	1.335726	0.484504	0.346666
C24	C	1.527066	0.354206	0.346662
C25	C	1.622742	0.289063	0.423326
C26	C	1.622754	0.289066	0.576660
C27	C	1.527076	0.354216	0.653332
C28	C	1.431399	0.419359	0.576667
C29	C	1.431400	0.419352	0.423330
C30	C	1.240057	0.549648	0.576671
C31	C	1.240048	0.549654	0.423338
C32	C	1.144379	0.614797	0.653343
C33	C	1.048705	0.679949	0.576679
C34	C	1.048698	0.679945	0.423336
C35	C	1.144371	0.614797	0.346673
N36	N	1.335734	0.484505	0.653336
H37	H	0.921564	0.601794	-0.000000
H38	H	1.700658	0.236016	0.639080
H39	H	1.224716	0.099627	0.000005
Cl40	Cl	0.739261	0.312434	0.000009
Cl41	Cl	1.500064	-0.154789	0.000001
H42	H	1.158792	-0.111956	0.000002
H43	H	1.144389	0.614791	0.778196
Cl44	Cl	1.565960	0.056784	0.000010
H45	H	0.974146	0.311618	-0.000036
H46	H	1.527074	0.354210	0.221809
Cl47	Cl	1.743015	0.207159	0.326936
H48	H	0.697297	0.657399	-0.000004
Cl49	Cl	0.928432	0.761834	0.673070
H50	H	1.527083	0.354202	0.778184
Cl51	Cl	0.928406	0.761836	0.326971
H52	H	1.144378	0.614793	0.221821
