data_functionalizedCrystal
_audit_creation_method	'MofGen! by Chris Wilmer'
_symmetry_space_group_name_H-M	'P1'
_symmetry_Int_Tables_number	1
_symmetry_cell_setting	triclinic
loop_
_symmetry_equiv_pos_as_xyz
  x,y,z
_cell_length_a	15.944545
_cell_length_b	15.944499
_cell_length_c	14.421503
_cell_angle_alpha	89.995085
_cell_angle_beta	90.003292
_cell_angle_gamma	96.513109
loop_
_atom_site_label
_atom_site_type_symbol
_atom_site_fract_x
_atom_site_fract_y
_atom_site_fract_z
O1	O	1.114509	-0.108314	0.077045
O2	O	1.614509	0.391686	0.577045
O3	O	0.869956	-0.121676	0.077059
O4	O	1.369956	0.378324	0.577059
O5	O	0.998933	0.007283	0.077053
O6	O	1.498933	0.507283	0.577053
O7	O	0.985532	-0.237273	0.077051
O8	O	1.485532	0.262727	0.577051
O9	O	0.998919	0.007295	-0.077170
O10	O	1.498919	0.507295	0.422830
O11	O	0.869942	-0.121664	-0.077164
O12	O	1.369942	0.378336	0.422836
O13	O	1.114495	-0.108302	-0.077179
O14	O	1.614495	0.391698	0.422821
Cu15	Cu	0.992217	-0.114982	-0.091253
Cu16	Cu	1.492217	0.385018	0.408747
Cu17	Cu	0.992234	-0.114996	0.091134
Cu18	Cu	1.492234	0.385004	0.591134
O19	O	0.985517	-0.237261	-0.077173
O20	O	1.485517	0.262739	0.422827
C21	C	0.838655	-0.121116	-0.000051
C22	C	1.338655	0.378884	0.499949
C23	C	0.745409	-0.119456	-0.000045
C24	C	1.245409	0.380544	0.499955
C25	C	0.474792	-0.034560	-0.000054
C26	C	0.974792	0.465440	0.499946
C27	C	0.525359	-0.075484	-0.076097
C28	C	1.025359	0.424516	0.423903
C29	C	0.409766	-0.113535	-0.000061
C30	C	0.909766	0.386465	0.499939
C31	C	0.525354	-0.075517	0.075955
C32	C	1.025354	0.424483	0.575955
C33	C	0.574679	-0.116440	-0.000052
C34	C	1.074679	0.383560	0.499948
C35	C	0.459105	-0.154438	-0.076167
C36	C	0.959105	0.345562	0.423833
C37	C	0.459096	-0.154459	0.075954
C38	C	0.959096	0.345541	0.575954
C39	C	0.509630	-0.195441	-0.000107
C40	C	1.009630	0.304559	0.499893
C41	C	0.314764	-0.111859	-0.000067
C42	C	0.814764	0.388141	0.499933
C43	C	0.669678	-0.118121	-0.000052
C44	C	1.169678	0.381879	0.499948
C45	C	0.998377	0.038584	-0.000056
C46	C	1.498377	0.538584	0.499944
C47	C	0.996733	0.131832	-0.000049
C48	C	1.496733	0.631832	0.499951
C49	C	1.145796	-0.108861	-0.000067
C50	C	1.645796	0.391139	0.499933
C51	C	1.239042	-0.110522	-0.000066
C52	C	1.739042	0.389478	0.499934
C53	C	0.986073	-0.268561	-0.000061
C54	C	1.486073	0.231439	0.499939
C55	C	0.987718	-0.361810	-0.000062
C56	C	1.487718	0.138190	0.499938
C57	C	1.071665	0.423370	-0.000059
C58	C	1.571665	0.923370	0.499941
C59	C	1.032706	0.362350	-0.076100
C60	C	1.532706	0.862350	0.423900
C61	C	0.990756	0.467469	-0.000060
C62	C	1.490756	0.967469	0.499940
C63	C	1.032698	0.362344	0.075952
C64	C	1.532698	0.862344	0.575952
C65	C	0.993697	0.302560	-0.000053
C66	C	1.493697	0.802560	0.499947
C67	C	0.951775	0.407677	-0.076164
C68	C	1.451775	0.907677	0.423836
C69	C	0.951779	0.407677	0.075957
C70	C	1.451779	0.907677	0.575957
C71	C	0.912761	0.346675	-0.000103
C72	C	1.412761	0.846675	0.499897
C73	C	0.989065	0.562469	-0.000064
C74	C	1.489065	1.062469	0.499936
C75	C	0.995382	0.207561	-0.000055
C76	C	1.495382	0.707561	0.499945
N77	N	0.992246	-0.114999	0.219415
N78	N	1.492246	0.385001	0.719415
N79	N	0.992211	-0.114971	-0.219535
N80	N	1.492211	0.385029	0.280465
C81	C	1.052002	-0.055454	0.530841
C82	C	1.552002	0.444546	1.030841
C83	C	0.976162	-0.038996	0.469009
C84	C	1.476162	0.461004	0.969009
C85	C	0.992221	-0.114980	0.591304
C86	C	1.492221	0.385020	1.091304
C87	C	1.068071	-0.131408	0.469042
C88	C	1.568071	0.368592	0.969042
C89	C	0.992238	-0.114987	0.408583
C90	C	1.492238	0.385013	0.908583
C91	C	0.916343	-0.098485	0.530833
C92	C	1.416343	0.401515	1.030833
C93	C	1.008302	-0.190930	0.530871
C94	C	1.508302	0.309070	1.030871
C95	C	0.932407	-0.174504	0.469067
C96	C	1.432407	0.325496	0.969067
C97	C	0.992213	-0.114974	0.696565
C98	C	1.492213	0.385026	1.196565
C99	C	0.992237	-0.114994	0.303324
C100	C	1.492237	0.385006	0.803324
H101	H	0.525110	-0.263508	-0.000153
H102	H	1.025110	0.236492	0.499847
H103	H	1.132209	-0.145301	0.441899
H104	H	1.632209	0.354699	0.941899
N105	N	1.155888	0.465207	-0.000142
N106	N	1.655888	0.965207	0.499858
N107	N	1.180650	0.513300	0.065170
N108	N	1.680650	1.013300	0.565170
H109	H	1.240130	0.542850	0.065108
H110	H	1.740130	1.042850	0.565108
H111	H	0.554290	-0.042126	-0.140384
H112	H	1.054290	0.457874	0.359616
N113	N	0.561662	-0.033669	0.156592
N114	N	1.061662	0.466331	0.656592
N115	N	0.615727	0.029050	0.148142
N116	N	1.115727	0.529050	0.648142
H117	H	0.641371	0.058610	0.205087
H118	H	1.141371	0.558610	0.705087
N119	N	1.075633	0.337130	0.156597
N120	N	1.575633	0.837130	0.656597
N121	N	1.083243	0.260889	0.169850
N122	N	1.583243	0.760889	0.669850
H123	H	1.113568	0.243081	0.226803
H124	H	1.613568	0.743081	0.726803
H125	H	0.962562	0.025229	0.441836
H126	H	1.462562	0.525229	0.941836
N127	N	0.422759	-0.196275	0.156591
N128	N	0.922759	0.303725	0.656591
N129	N	0.369608	-0.259742	0.148175
N130	N	0.869608	0.240258	0.648175
H131	H	0.343942	-0.289270	0.205131
H132	H	0.843942	0.210730	0.705131
N133	N	1.075635	0.337161	-0.156749
N134	N	1.575635	0.837161	0.343251
N135	N	1.151126	0.364958	-0.170302
N136	N	1.651126	0.864958	0.329698
H137	H	1.181450	0.347173	-0.227258
H138	H	1.681450	0.847173	0.272742
H139	H	0.459151	0.033454	-0.000127
H140	H	0.959151	0.533454	0.499873
N141	N	1.025381	-0.271481	0.564979
N142	N	1.525381	0.228519	1.064979
N143	N	1.038222	-0.328814	0.509409
N144	N	1.538222	0.171186	1.009409
H145	H	1.050292	-0.385705	0.533498
H146	H	1.550292	0.114295	1.033498
H147	H	0.430284	-0.187761	-0.140524
H148	H	0.930284	0.312239	0.359476
H149	H	0.917576	0.427663	-0.140518
H150	H	1.417576	0.927663	0.359482
N151	N	0.828459	0.305037	-0.000350
N152	N	1.328459	0.805037	0.499650
N153	N	0.804203	0.256183	-0.065189
N154	N	1.304203	0.756183	0.434811
H155	H	0.744666	0.226774	-0.065438
H156	H	1.244666	0.726774	0.434562
H157	H	0.852190	-0.084520	0.557862
H158	H	1.352190	0.415480	1.057862
H159	H	0.881804	-0.224849	0.442115
H160	H	1.381804	0.275151	0.942115
N161	N	0.908895	0.432897	0.156617
N162	N	1.408895	0.932897	0.656617
N163	N	0.936477	0.418620	0.235513
N164	N	1.436477	0.918620	0.735513
H165	H	0.906196	0.436432	0.292487
H166	H	1.406196	0.936432	0.792487
H167	H	1.102492	-0.005079	0.557965
H168	H	1.602492	0.494921	1.057965
