data_functionalizedCrystal
_audit_creation_method	'MofGen! by Chris Wilmer'
_symmetry_space_group_name_H-M	'P1'
_symmetry_Int_Tables_number	1
_symmetry_cell_setting	triclinic
loop_
_symmetry_equiv_pos_as_xyz
  x,y,z
_cell_length_a	12.759401
_cell_length_b	13.897448
_cell_length_c	12.759393
_cell_angle_alpha	89.967158
_cell_angle_beta	89.980718
_cell_angle_gamma	90.019217
loop_
_atom_site_label
_atom_site_type_symbol
_atom_site_fract_x
_atom_site_fract_y
_atom_site_fract_z
Zn1	Zn	1.606227	-0.383924	-0.594007
Zn2	Zn	1.606114	-0.545252	-0.418322
Zn3	Zn	1.430531	-0.383976	-0.418342
Zn4	Zn	1.430509	-0.545183	-0.593959
O5	O	1.518345	-0.464584	-0.506158
O6	O	1.753233	-0.405331	-0.570714
O7	O	1.582785	-0.523909	-0.271303
O8	O	1.453894	-0.248988	-0.441673
O9	O	1.753150	-0.523858	-0.441638
O10	O	1.582978	-0.248949	-0.570734
O11	O	1.453785	-0.405421	-0.271318
O12	O	1.283507	-0.405354	-0.441627
O13	O	1.453856	-0.523740	-0.740987
O14	O	1.283491	-0.523791	-0.570652
O15	O	1.582956	-0.405264	-0.741022
O16	O	1.582763	-0.680224	-0.441592
O17	O	1.453747	-0.680173	-0.570632
C18	C	1.245378	-0.464572	-0.506137
C19	C	1.128601	-0.464590	-0.506153
C20	C	1.073758	-0.526354	-0.573230
C21	C	0.964034	-0.526358	-0.573251
C22	C	0.964006	-0.402830	-0.439108
C23	C	1.073728	-0.402823	-0.439093
C24	C	0.814133	-0.560968	-0.697110
C25	C	0.759286	-0.622747	-0.764179
C26	C	0.794878	-0.716882	-0.780123
C27	C	0.885315	-0.749256	-0.728984
C28	C	0.940156	-0.687482	-0.661908
C29	C	0.904566	-0.593334	-0.645984
C30	C	1.223632	-0.368222	-0.315232
C31	C	1.278475	-0.306452	-0.248150
C32	C	1.242885	-0.212316	-0.232195
C33	C	1.152444	-0.179945	-0.283315
C34	C	1.097601	-0.241715	-0.350397
C35	C	1.133199	-0.335850	-0.366354
C36	C	1.518269	-0.715198	-0.506127
C37	C	1.518332	-0.822412	-0.506149
C38	C	1.518442	-1.018707	-0.506215
C39	C	1.518378	-0.909474	-0.506182
C40	C	1.792379	-0.464596	-0.506179
C41	C	1.909155	-0.464601	-0.506188
C42	C	1.518416	-0.464488	-0.780191
C43	C	1.518446	-0.464448	-0.896968
C44	C	1.518451	-0.212991	-0.506211
C45	C	1.518496	-0.105777	-0.506234
C46	C	1.451330	-0.402706	-1.061568
C47	C	1.451301	-0.402738	-0.951844
C48	C	1.585632	-0.526122	-0.951822
C49	C	1.585666	-0.526084	-1.061544
C50	C	1.413767	-0.289029	-0.801917
C51	C	1.346571	-0.227366	-0.747067
C52	C	1.244074	-0.212538	-0.782678
C53	C	1.208752	-0.259387	-0.873137
C54	C	1.275941	-0.321058	-0.927981
C55	C	1.378453	-0.335867	-0.892372
C56	C	1.623190	-0.639795	-1.211473
C57	C	1.690375	-0.701471	-1.266319
C58	C	1.792873	-0.716309	-1.230710
C59	C	1.828192	-0.669476	-1.140248
C60	C	1.761007	-0.607800	-1.085402
C61	C	1.658509	-0.592961	-1.121018
C62	C	1.518335	-0.464609	-0.233190
C63	C	1.518509	-0.464377	-0.116414
H64	H	0.685653	-0.596379	-0.805817
H65	H	1.189364	-0.162329	-0.738011
H66	H	1.352116	-0.332817	-0.206525
O67	O	1.927782	-0.683711	-1.105628
C68	C	1.981730	-0.595165	-1.104167
H69	H	1.922838	-0.533679	-1.099025
H70	H	2.036078	-0.592762	-1.033319
H71	H	2.029896	-0.587453	-1.178975
O72	O	0.741540	-0.776984	-0.845124
C73	C	0.707505	-0.858314	-0.788429
H74	H	0.702840	-0.839761	-0.701535
H75	H	0.626783	-0.881109	-0.817571
H76	H	0.765369	-0.919836	-0.800337
H77	H	0.919315	-0.352543	-0.384509
H78	H	1.789773	-0.569667	-1.011742
H79	H	1.118433	-0.576647	-0.627837
O80	O	1.109162	-0.244850	-0.907604
C81	C	1.057425	-0.180393	-0.839786
H82	H	1.117861	-0.134907	-0.796504
H83	H	1.003810	-0.131443	-0.887378
H84	H	1.008768	-0.222703	-0.780637
O85	O	1.381066	-0.181894	-0.659248
C86	C	1.485942	-0.208209	-0.639567
H87	H	1.524026	-0.233556	-0.715520
H88	H	1.530647	-0.143451	-0.607822
H89	H	1.487961	-0.268895	-0.579447
H90	H	1.013787	-0.713841	-0.620271
H91	H	0.914280	-0.825914	-0.741963
H92	H	1.847572	-0.766536	-1.275374
H93	H	0.785152	-0.484313	-0.684145
O94	O	1.656233	-0.746930	-1.354282
C95	C	1.719391	-0.719803	-1.440052
H96	H	1.798760	-0.693893	-1.410295
H97	H	1.731083	-0.784288	-1.493984
H98	H	1.679404	-0.659297	-1.485235
O99	O	1.009795	-0.210103	-0.400017
C100	C	0.990121	-0.113777	-0.371532
H101	H	1.066072	-0.078787	-0.343949
H102	H	0.958398	-0.072817	-0.442153
H103	H	0.929986	-0.111834	-0.305465
O104	O	1.513405	-0.303331	-0.767472
C105	C	1.584818	-0.274315	-0.845703
H106	H	1.545336	-0.220251	-0.900079
H107	H	1.656068	-0.239464	-0.807446
H108	H	1.610798	-0.339765	-0.892843
O109	O	1.296306	-0.152425	-0.167025
C110	C	1.383740	-0.201187	-0.125289
H111	H	1.406213	-0.263102	-0.179375
H112	H	1.452451	-0.149136	-0.118273
H113	H	1.363261	-0.230753	-0.044472
O114	O	1.523583	-0.625417	-1.245983
C115	C	1.452058	-0.654455	-1.167864
H116	H	1.492228	-0.652547	-1.088101
H117	H	1.382035	-0.603530	-1.167403
H118	H	1.424074	-0.730769	-1.184920
H119	H	1.396650	-0.352457	-1.106240
O120	O	1.118035	-0.088458	-0.267741
C121	C	1.185819	-0.040887	-0.197553
H122	H	1.265851	-0.077311	-0.198674
H123	H	1.194609	0.037555	-0.222226
H124	H	1.151809	-0.044437	-0.115006
H125	H	1.252624	-0.444873	-0.328227
H126	H	1.247182	-0.359201	-1.001631
O127	O	1.650706	-0.586170	-0.898469
C128	C	1.590838	-0.648471	-0.834970
H129	H	1.508101	-0.654411	-0.868037
H130	H	1.628801	-0.722708	-0.833707
H131	H	1.587203	-0.618676	-0.751820
