data_functionalizedCrystal
_audit_creation_method	'MofGen! by Chris Wilmer'
_symmetry_space_group_name_H-M	'P1'
_symmetry_Int_Tables_number	1
_symmetry_cell_setting	triclinic
loop_
_symmetry_equiv_pos_as_xyz
  x,y,z
_cell_length_a	10.489741
_cell_length_b	10.654550
_cell_length_c	8.965430
_cell_angle_alpha	89.998408
_cell_angle_beta	89.998843
_cell_angle_gamma	95.487962
loop_
_atom_site_label
_atom_site_type_symbol
_atom_site_fract_x
_atom_site_fract_y
_atom_site_fract_z
O1	O	1.693968	-0.177183	-0.123943
O2	O	1.322764	-0.193815	-0.123966
O3	O	1.516901	-0.002764	-0.123948
O4	O	1.499831	-0.368234	-0.123960
O5	O	1.516884	-0.002776	0.124131
O6	O	1.322748	-0.193828	0.124113
O7	O	1.693951	-0.177195	0.124136
Cu8	Cu	1.508348	-0.185513	0.146776
Cu9	Cu	1.508367	-0.185498	-0.146606
O10	O	1.499815	-0.368247	0.124118
C11	C	1.275225	-0.192565	0.000071
C12	C	1.133597	-0.188807	0.000062
C13	C	1.515639	0.044029	0.000089
C14	C	1.511889	0.183474	0.000084
N15	N	1.508344	-0.185523	0.353125
C16	C	1.065516	-0.067246	0.000080
C17	C	0.973369	-0.124664	-0.122235
C18	C	0.973387	-0.124706	0.122352
C19	C	1.043316	-0.246275	-0.122354
C20	C	1.043343	-0.246299	0.122343
C21	C	0.951224	-0.303805	-0.000002
C22	C	1.741491	-0.178445	0.000096
C23	C	1.883118	-0.182204	0.000095
C24	C	1.501076	-0.415039	0.000078
C25	C	1.504826	-0.554484	0.000073
C26	C	1.626194	0.262906	0.000095
C27	C	1.622663	0.393928	0.000085
C28	C	1.390513	0.366074	0.000057
C29	C	1.394045	0.235054	0.000057
C30	C	1.744038	0.211326	0.000122
C31	C	1.858352	0.290759	0.000135
C32	C	1.854821	0.421782	0.000124
C33	C	1.736976	0.473371	0.000101
N34	N	1.508382	-0.185478	-0.352955
C35	C	1.418534	-0.273848	0.450423
C36	C	1.534018	-0.299261	0.549843
C37	C	1.392908	-0.160121	0.549833
C38	C	1.623887	-0.210992	0.450356
C39	C	1.482700	-0.071803	0.450337
C40	C	1.598267	-0.097168	0.549712
H41	H	1.115254	0.032684	-0.000070
H42	H	0.942387	-0.073224	-0.225641
H43	H	1.746926	0.104642	0.000135
H44	H	0.901752	-0.403841	-0.000072
C45	C	1.741527	-0.349879	0.304823
C46	C	1.755717	-0.240212	0.391683
H47	H	1.822910	-0.367946	0.268623
H48	H	1.686492	-0.337734	0.223023
H49	H	1.705573	-0.418338	0.363927
H50	H	1.791662	-0.171751	0.332576
H51	H	1.810772	-0.252350	0.473495
C52	C	1.675284	-0.415380	0.694768
C53	C	1.563333	-0.429053	0.608871
H54	H	1.693374	-0.495512	0.731199
H55	H	1.663791	-0.360776	0.776407
H56	H	1.744615	-0.380598	0.634938
H57	H	1.493999	-0.463827	0.668704
H58	H	1.574817	-0.483677	0.527221
C59	C	1.821672	-0.023190	0.557726
C60	C	1.700923	0.003694	0.608217
H61	H	1.885047	0.039071	0.593856
H62	H	1.822673	-0.023121	0.451790
H63	H	1.839192	-0.103746	0.593313
H64	H	1.683399	0.084247	0.572620
H65	H	1.699919	0.003639	0.714175
C66	C	1.050319	-0.251853	0.389913
C67	C	1.085235	-0.315680	0.261940
H68	H	1.076193	-0.294676	0.476101
H69	H	0.960064	-0.249307	0.391420
H70	H	1.091040	-0.168294	0.389018
H71	H	1.044506	-0.399237	0.262829
H72	H	1.175506	-0.318240	0.260433
H73	H	1.947901	0.486453	0.000120
H74	H	1.954297	0.248746	0.000117
C75	C	1.332323	0.084342	0.441393
C76	C	1.453338	0.057953	0.391268
H77	H	1.314185	0.164444	0.404914
H78	H	1.331349	0.085083	0.547325
H79	H	1.269361	0.021402	0.405910
H80	H	1.516301	0.120889	0.426760
H81	H	1.454322	0.057222	0.285314
H82	H	1.734110	0.580059	0.000076
H83	H	1.294569	0.408088	0.000040
H84	H	0.942427	-0.073254	0.225760
H85	H	1.074126	-0.297664	-0.225878
C86	C	1.167199	-0.223768	0.558678
C87	C	1.261103	-0.131125	0.608810
H88	H	1.085827	-0.205867	0.595077
H89	H	1.186042	-0.303919	0.594222
H90	H	1.166031	-0.224331	0.452732
H91	H	1.262277	-0.130569	0.714757
H92	H	1.242255	-0.050953	0.573273
H93	H	1.300968	0.170377	0.000050
H94	H	1.342655	-0.348611	0.406828
