data_functionalizedCrystal
_audit_creation_method	'MofGen! by Chris Wilmer'
_symmetry_space_group_name_H-M	'P1'
_symmetry_Int_Tables_number	1
_symmetry_cell_setting	triclinic
loop_
_symmetry_equiv_pos_as_xyz
  x,y,z
_cell_length_a	13.033293
_cell_length_b	12.759400
_cell_length_c	13.032268
_cell_angle_alpha	97.151488
_cell_angle_beta	89.079182
_cell_angle_gamma	97.183247
loop_
_atom_site_label
_atom_site_type_symbol
_atom_site_fract_x
_atom_site_fract_y
_atom_site_fract_z
Zn1	Zn	1.498485	-0.326864	-0.781500
Zn2	Zn	1.520239	-0.477844	-0.609535
Zn3	Zn	1.348345	-0.321315	-0.587675
Zn4	Zn	1.326493	-0.521641	-0.759577
O5	O	1.423390	-0.411916	-0.684572
O6	O	1.645289	-0.330884	-0.777011
O7	O	1.515686	-0.436429	-0.462725
O8	O	1.368303	-0.175028	-0.613413
O9	O	1.661271	-0.441809	-0.650669
O10	O	1.478610	-0.179105	-0.755815
O11	O	1.389396	-0.321428	-0.446665
O12	O	1.201529	-0.363896	-0.592155
O13	O	1.331059	-0.516455	-0.906395
O14	O	1.185474	-0.511075	-0.718451
O15	O	1.457421	-0.373352	-0.922501
O16	O	1.494496	-0.630677	-0.629412
O17	O	1.352152	-0.662854	-0.739647
C18	C	1.156185	-0.441637	-0.650553
C19	C	1.041870	-0.454381	-0.636023
C20	C	0.982985	-0.405292	-0.692154
C21	C	0.864834	-0.418461	-0.677139
C22	C	1.423339	-0.684887	-0.684548
C23	C	1.423406	-0.801660	-0.684585
C24	C	1.480803	-0.858576	-0.758783
C25	C	1.480848	-0.968298	-0.758815
C26	C	1.366096	-0.964178	-0.610440
C27	C	1.366047	-0.854459	-0.610414
C28	C	1.538163	-0.805777	-0.832955
C29	C	1.595566	-0.862693	-0.907158
C30	C	1.595610	-0.972416	-0.907189
C31	C	1.538252	-1.025222	-0.833017
C32	C	1.691639	-0.382080	-0.718724
C33	C	1.805951	-0.369366	-0.733278
C34	C	1.389376	-0.450408	-0.952805
C35	C	1.374880	-0.466811	-1.067111
C36	C	1.423468	-0.137879	-0.684621
C37	C	1.423501	-0.021101	-0.684642
C38	C	1.430940	-0.403319	-1.126041
C39	C	1.415960	-0.420271	-1.244181
C40	C	1.457332	-0.373492	-0.417389
C41	C	1.472026	-0.356771	-0.303110
H42	H	0.827783	-0.470239	-0.617961
Cl43	Cl	1.324725	-0.523574	-1.301308
Cl44	Cl	1.522139	-0.299993	-1.068905
H45	H	1.004814	-0.506155	-0.576850
H46	H	1.531110	-0.289854	-1.266104
Cl47	Cl	1.283650	-0.570108	-1.124242
H48	H	1.642341	-1.018756	-0.967617
Cl49	Cl	1.040188	-0.325346	-0.783511
H50	H	1.538135	-0.716435	-0.832936
Cl51	Cl	0.863147	-0.289409	-0.824634
H52	H	1.642258	-0.819694	-0.967553
Cl53	Cl	1.293996	-1.030563	-0.517200
Cl54	Cl	1.538486	-1.163120	-0.832923
Cl55	Cl	1.293893	-0.782901	-0.517131
