data_functionalizedCrystal
_audit_creation_method	'MofGen! by Chris Wilmer'
_symmetry_space_group_name_H-M	'P1'
_symmetry_Int_Tables_number	1
_symmetry_cell_setting	triclinic
loop_
_symmetry_equiv_pos_as_xyz
  x,y,z
_cell_length_a	12.477989
_cell_length_b	21.606444
_cell_length_c	21.606444
_cell_angle_alpha	60.003871
_cell_angle_beta	64.368266
_cell_angle_gamma	90.001090
loop_
_atom_site_label
_atom_site_type_symbol
_atom_site_fract_x
_atom_site_fract_y
_atom_site_fract_z
Zr1	Zr	0.973029	-0.117884	0.750823
O2	O	0.811748	-0.210621	0.867774
O3	O	1.022472	-0.089458	0.625434
O4	O	1.022470	-0.218570	0.754547
O5	O	0.811749	0.020341	0.738666
O6	O	1.188690	-0.224837	0.767082
O7	O	0.811749	-0.081508	0.738661
O8	O	1.188694	0.006122	0.536123
O9	O	0.811746	-0.210618	0.969625
O10	O	1.167606	-0.082008	0.689488
O11	O	1.043557	-0.001321	0.680136
O12	O	1.043555	-0.153335	0.832150
O13	O	0.919507	-0.072649	0.822798
Zr14	Zr	1.238131	0.034560	0.770822
Zr15	Zr	1.238131	-0.127879	0.770815
Zr16	Zr	0.973029	0.044555	0.750830
Zr17	Zr	0.973026	-0.117878	0.913263
Zr18	Zr	1.238134	0.034554	0.608382
O19	O	1.188688	0.006134	0.896210
O20	O	1.188688	-0.224833	0.896200
O21	O	0.811747	0.020346	0.867784
O22	O	1.399413	0.127297	0.653870
O23	O	1.399413	-0.103669	0.653860
O24	O	1.022472	0.141509	0.625444
O25	O	1.399411	-0.103665	0.782979
O26	O	1.188690	0.135246	0.767097
O27	O	1.022470	0.141513	0.754562
O28	O	1.399411	-0.001815	0.782983
O29	O	1.022466	-0.218563	0.985516
O30	O	1.188694	0.135239	0.536129
O31	O	1.399414	0.127294	0.552020
O32	O	1.399415	-0.001823	0.552014
O33	O	0.811745	-0.081501	0.969630
O34	O	1.022466	-0.089446	0.985521
O35	O	1.167605	0.070011	0.689494
O36	O	1.291654	-0.010675	0.698846
O37	O	1.167603	-0.082003	0.841508
O38	O	1.043555	-0.001316	0.832156
C39	C	0.773978	-0.029159	0.735815
C40	C	0.661435	-0.024916	0.727328
C41	C	1.105584	-0.041669	0.557634
C42	C	1.105585	-0.041671	0.488674
C43	C	1.105580	0.161524	0.760831
C44	C	1.105579	0.230483	0.760834
C45	C	1.437182	-0.054164	0.785829
C46	C	1.549725	-0.058408	0.794316
C47	C	1.105580	-0.244848	0.760813
C48	C	1.105581	-0.313807	0.760811
C49	C	1.040828	0.225650	0.835301
C50	C	1.040823	0.290448	0.835299
C51	C	1.105576	0.360077	0.760828
C52	C	1.170329	0.364909	0.686354
C53	C	1.170327	0.300112	0.686357
C54	C	1.170339	0.626227	0.686340
C55	C	1.170340	0.691025	0.686343
C56	C	1.040835	0.616562	0.835281
C57	C	1.040833	0.551766	0.835284
C58	C	1.105580	0.556603	0.760811
C59	C	1.105583	0.486342	0.760815
C60	C	1.105581	0.430338	0.760824
C61	C	1.170334	-0.083789	0.461158
C62	C	1.170338	-0.083784	0.396358
C63	C	1.105585	-0.041665	0.359080
C64	C	1.040834	0.000459	0.386599
C65	C	1.040838	0.000457	0.451394
C66	C	1.040820	0.000466	0.125289
C67	C	1.040818	0.000462	0.060491
C68	C	1.170320	-0.083776	0.070253
C69	C	1.170324	-0.083778	0.135048
C70	C	1.105578	-0.041651	0.162558
C71	C	1.105576	-0.041656	0.232821
C72	C	1.105580	-0.041664	0.288823
C73	C	1.105577	-0.041655	0.964010
C74	C	1.105575	-0.041653	1.032970
C75	C	1.437186	-0.054171	0.582641
C76	C	1.549729	-0.058417	0.522168
C77	C	1.105583	0.161517	0.557643
C78	C	1.105584	0.230474	0.488686
C79	C	1.437185	0.149015	0.582650
C80	C	1.549729	0.213729	0.522180
C81	C	0.773975	-0.232339	0.938994
C82	C	0.661431	-0.297053	0.999464
C83	C	0.773975	-0.029153	0.939003
C84	C	0.661431	-0.024907	0.999476
C85	C	1.105577	-0.244841	0.964001
C86	C	1.105576	-0.313798	1.032958
C87	C	1.537829	-0.097652	0.488885
C88	C	1.643566	-0.101656	0.432072
C89	C	1.761202	-0.066419	0.408540
C90	C	1.773099	-0.027183	0.441830
C91	C	1.667364	-0.023184	0.498646
C92	C	1.170336	0.300099	0.461188
C93	C	1.170333	0.364898	0.396404
C94	C	1.105583	0.360070	0.359116
C95	C	1.040823	0.290439	0.386620
C96	C	1.040820	0.225641	0.451406
C97	C	1.667344	0.202001	0.498665
C98	C	1.773101	0.262800	0.441857
C99	C	1.761240	0.335326	0.408560
C100	C	1.643613	0.347053	0.432081
C101	C	1.537858	0.286254	0.488892
C102	C	0.543816	-0.285325	1.022987
C103	C	0.438060	-0.346124	1.079816
C104	C	0.449920	-0.418650	1.113115
C105	C	0.567547	-0.430376	1.089591
C106	C	0.673302	-0.369578	1.032768
C107	C	0.673331	0.014321	1.032766
C108	C	0.567594	0.018307	1.089597
C109	C	0.449958	-0.016931	1.113131
C110	C	0.438061	-0.056165	1.079838
C111	C	0.543796	-0.060155	1.023014
C112	C	1.170338	-0.308947	1.070227
C113	C	1.170361	-0.373734	1.135013
C114	C	1.105614	-0.443372	1.162532
C115	C	1.040850	-0.448222	1.125257
C116	C	1.040835	-0.383435	1.060469
H117	H	0.540183	-0.090332	0.858161
H118	H	1.633855	-0.133606	0.404974
F119	F	0.673911	0.016806	0.643872
H120	H	1.677024	0.142952	0.525767
F121	F	1.239266	0.438997	0.367143
F122	F	0.971897	0.045295	0.020817
F123	F	1.680048	0.018582	0.534059
F124	F	0.971936	0.045296	0.346914
H125	H	0.988104	0.168958	0.895945
H126	H	1.868868	0.253239	0.422713
F127	F	1.239256	-0.234840	1.040951
F128	F	0.971869	0.285301	0.914555
F129	F	1.239247	-0.128624	0.500831
F130	F	0.971892	-0.388609	1.020816
H131	H	1.442095	0.295814	0.508030
F132	F	0.971926	0.045287	0.480677
H133	H	1.105595	0.412838	0.306363
H134	H	0.988105	0.034770	0.147677
F135	F	1.239261	0.305253	0.500860
H136	H	1.442054	-0.126355	0.508045
H137	H	0.988109	0.495073	0.895926
F138	F	0.971920	0.611419	0.914543
F139	F	0.531112	-0.101904	0.987584
F140	F	1.239236	-0.128611	0.174722
H141	H	0.988135	-0.504929	1.147674
H142	H	1.223063	-0.118080	0.373955
F143	F	0.337435	-0.012678	1.173610
F144	F	0.312854	-0.093663	1.104892
F145	F	1.239259	0.765133	0.607076
F146	F	0.971917	0.285312	0.346925
F147	F	1.873725	-0.070681	0.348069
H148	H	1.223065	0.630175	0.625699
H149	H	1.223098	-0.369771	1.165356
F150	F	1.898306	0.010317	0.416775
H151	H	1.847362	0.384826	0.362301
F152	F	0.337355	-0.483351	1.173591
H153	H	1.105636	-0.496119	1.215288
H154	H	0.988095	0.168952	0.473786
H155	H	1.223047	0.421607	0.625718
H156	H	1.633974	0.406111	0.404963
F157	F	0.312884	-0.333628	1.104839
H158	H	1.223051	0.304052	0.625718
H159	H	1.223044	-0.118075	0.047845
F160	F	0.531165	-0.208142	0.987555
H161	H	0.577190	-0.489434	1.116711
F162	F	0.798473	-0.382071	1.007735
F163	F	0.798517	0.051829	1.007732
H164	H	0.577305	0.050258	1.116695
