data_functionalizedCrystal
_audit_creation_method	'MofGen! by Chris Wilmer'
_symmetry_space_group_name_H-M	'P1'
_symmetry_Int_Tables_number	1
_symmetry_cell_setting	triclinic
loop_
_symmetry_equiv_pos_as_xyz
  x,y,z
_cell_length_a	19.805407
_cell_length_b	13.897441
_cell_length_c	19.805404
_cell_angle_alpha	90.031718
_cell_angle_beta	89.973090
_cell_angle_gamma	89.981072
loop_
_atom_site_label
_atom_site_type_symbol
_atom_site_fract_x
_atom_site_fract_y
_atom_site_fract_z
Zn1	Zn	1.034728	-0.545376	0.269497
Zn2	Zn	1.534728	-0.045376	0.769497
Zn3	Zn	1.034635	-0.384071	0.382694
Zn4	Zn	1.534635	0.115929	0.882694
Zn5	Zn	0.921541	-0.384093	0.269519
Zn6	Zn	1.421541	0.115907	0.769519
Zn7	Zn	0.921500	-0.545323	0.382644
Zn8	Zn	1.421500	-0.045323	0.882644
O9	O	0.978101	-0.464716	0.326088
O10	O	1.478101	0.035284	0.826088
O11	O	1.129432	-0.523991	0.284524
O12	O	1.629432	-0.023991	0.784524
O13	O	1.019610	-0.249092	0.367712
O14	O	1.519610	0.250908	0.867712
O15	O	0.936611	-0.405519	0.174799
O16	O	1.436611	0.094481	0.674799
O17	O	1.129364	-0.405481	0.367690
O18	O	1.629364	0.094519	0.867690
O19	O	1.019770	-0.524012	0.174783
O20	O	1.519770	-0.024012	0.674783
O21	O	0.936521	-0.249108	0.284562
O22	O	1.436521	0.250892	0.784562
O23	O	0.826819	-0.405468	0.284514
O24	O	1.326819	0.094532	0.784514
O25	O	0.936542	-0.680312	0.367604
O26	O	1.436542	-0.180312	0.867604
O27	O	0.826789	-0.523922	0.367626
O28	O	1.326789	-0.023922	0.867626
O29	O	1.019730	-0.680350	0.284475
O30	O	1.519730	-0.180350	0.784475
O31	O	1.019571	-0.405430	0.477404
O32	O	1.519571	0.094570	0.977404
O33	O	0.936451	-0.523901	0.477367
O34	O	1.436451	-0.023901	0.977367
C35	C	0.802245	-0.464692	0.326067
C36	C	1.302245	0.035308	0.826067
C37	C	0.727013	-0.464705	0.326074
C38	C	1.227013	0.035295	0.826074
C39	C	0.691705	-0.526507	0.282847
C40	C	1.191705	-0.026507	0.782847
C41	C	0.621017	-0.526511	0.282850
C42	C	1.121017	-0.026511	0.782850
C43	C	0.585637	-0.464717	0.326085
C44	C	1.085637	0.035283	0.826085
C45	C	0.620950	-0.402908	0.369315
C46	C	1.120950	0.097092	0.869315
C47	C	0.691637	-0.402900	0.369308
C48	C	1.191637	0.097100	0.869308
C49	C	0.335877	-0.402938	0.369346
C50	C	0.835877	0.097062	0.869346
C51	C	0.265185	-0.402952	0.369351
C52	C	0.765185	0.097048	0.869351
C53	C	0.265256	-0.526548	0.282888
C54	C	0.765256	-0.026548	0.782888
C55	C	0.335943	-0.526540	0.282881
C56	C	0.835943	-0.026540	0.782881
C57	C	0.371250	-0.464728	0.326107
C58	C	0.871250	0.035272	0.826107
C59	C	0.447898	-0.464724	0.326102
C60	C	0.947898	0.035276	0.826102
C61	C	0.508990	-0.464725	0.326095
C62	C	1.008990	0.035275	0.826095
C63	C	0.978142	-0.716309	0.326032
C64	C	1.478142	-0.216309	0.826032
C65	C	0.978160	-0.823523	0.326007
C66	C	1.478160	-0.323523	0.826007
C67	C	0.978174	-0.910593	0.325988
C68	C	1.478174	-0.410593	0.825988
C69	C	0.978193	-1.019825	0.325958
C70	C	1.478193	-0.519825	0.825958
C71	C	1.154644	-0.464740	0.326110
C72	C	1.654644	0.035260	0.826110
C73	C	1.229876	-0.464750	0.326119
C74	C	1.729876	0.035250	0.826119
C75	C	0.978015	-0.464679	0.501944
C76	C	1.478015	0.035321	1.001944
C77	C	0.978040	-0.464695	0.577176
C78	C	1.478040	0.035305	1.077176
C79	C	0.978099	-0.214101	0.326096
C80	C	1.478099	0.285899	0.826096
C81	C	0.978212	-0.106888	0.325930
C82	C	1.478212	0.393112	0.825930
C83	C	0.978206	-0.464774	0.149546
C84	C	1.478206	0.035226	0.649546
C85	C	0.978250	-0.464799	0.074314
C86	C	1.478250	0.035201	0.574314
C87	C	1.021547	-0.403163	1.038964
C88	C	1.521547	0.096837	1.538964
C89	C	1.021516	-0.403144	0.968276
C90	C	1.521516	0.096856	1.468276
C91	C	0.978190	-0.464767	0.932938
C92	C	1.478190	0.035233	1.432938
C93	C	0.934888	-0.526405	0.968292
C94	C	1.434888	-0.026405	1.468292
C95	C	0.934916	-0.526419	1.038980
C96	C	1.434916	-0.026419	1.538980
C97	C	0.934770	-0.526352	0.683219
C98	C	1.434770	-0.026352	1.183219
C99	C	0.934746	-0.526336	0.612527
C100	C	1.434746	-0.026336	1.112527
C101	C	1.021369	-0.403078	0.612515
C102	C	1.521369	0.096922	1.112515
C103	C	1.021398	-0.403091	0.683202
C104	C	1.521398	0.096909	1.183202
C105	C	0.978094	-0.464726	0.718551
C106	C	1.478094	0.035274	1.218551
C107	C	0.978128	-0.464744	0.795199
C108	C	1.478128	0.035256	1.295199
C109	C	0.978159	-0.464754	0.856291
C110	C	1.478159	0.035246	1.356291
H111	H	0.720506	-0.576829	0.247641
H112	H	1.220506	-0.076829	0.747641
H113	H	0.899607	-0.576576	0.939517
H114	H	1.399607	-0.076576	1.439517
H115	H	0.592272	-0.576838	0.247651
H116	H	1.092272	-0.076838	0.747651
O117	O	0.892881	-0.586204	1.073425
O118	O	1.392881	-0.086204	1.573425
C119	C	0.902207	-0.573018	1.143392
C120	C	1.402207	-0.073018	1.643392
H121	H	0.924410	-0.498609	1.153062
H122	H	1.424410	0.001391	1.653062
H123	H	0.938235	-0.630284	1.163394
H124	H	1.438235	-0.130284	1.663394
C125	C	0.806464	-0.673163	1.167862
C126	C	1.306464	-0.173163	1.667862
C127	C	0.833729	-0.581769	1.179740
C128	C	1.333729	-0.081769	1.679740
H129	H	0.764225	-0.678565	1.190284
H130	H	1.264225	-0.178565	1.690284
H131	H	0.800182	-0.682050	1.120724
H132	H	1.300182	-0.182050	1.620724
H133	H	0.836494	-0.720874	1.184530
H134	H	1.336494	-0.220874	1.684530
H135	H	0.803703	-0.534060	1.163064
H136	H	1.303703	-0.034060	1.663064
H137	H	0.840004	-0.572874	1.226876
H138	H	1.340004	-0.072874	1.726876
H139	H	0.236501	-0.576875	0.247688
H140	H	0.736501	-0.076875	0.747688
H141	H	1.056771	-0.352955	0.939494
H142	H	1.556771	0.147045	1.439494
H143	H	0.364746	-0.576862	0.247676
H144	H	0.864746	-0.076862	0.747676
O145	O	0.230741	-0.342871	0.411255
O146	O	0.730741	0.157129	0.911255
C147	C	0.189858	-0.280668	0.372665
C148	C	0.689858	0.219332	0.872665
H149	H	0.179301	-0.314827	0.321403
H150	H	0.679301	0.185173	0.821403
H151	H	0.217078	-0.209198	0.365160
H152	H	0.717078	0.290802	0.865160
C153	C	0.135658	-0.221166	0.472855
C154	C	0.635658	0.278834	0.972855
C155	C	0.122687	-0.263124	0.409896
C156	C	0.622687	0.236876	0.909896
H157	H	0.094225	-0.210340	0.495821
H158	H	0.594225	0.289660	0.995821
H159	H	0.163203	-0.263070	0.498855
H160	H	0.663203	0.236930	0.998855
H161	H	0.158343	-0.161612	0.466592
H162	H	0.658343	0.338388	0.966592
H163	H	0.100010	-0.322682	0.416160
H164	H	0.600010	0.177318	0.916160
H165	H	0.095136	-0.221229	0.383898
H166	H	0.595136	0.278771	0.883898
O167	O	0.725908	-0.342973	0.411398
O168	O	1.225908	0.157027	0.911398
C169	C	0.708605	-0.363867	0.478878
C170	C	1.208605	0.136133	0.978878
H171	H	0.689193	-0.440919	0.482364
H172	H	1.189193	0.059081	0.982364
H173	H	0.667554	-0.312111	0.496531
H174	H	1.167554	0.187889	0.996531
C175	C	0.795222	-0.257885	0.519750
C176	C	1.295222	0.242115	1.019750
C177	C	0.771385	-0.352524	0.524033
C178	C	1.271385	0.147476	1.024033
H179	H	0.833946	-0.250884	0.547605
H180	H	1.333946	0.249116	1.047605
H181	H	0.806878	-0.243804	0.474288
H182	H	1.306878	0.256196	0.974288
H183	H	0.761006	-0.214766	0.534459
H184	H	1.261006	0.285234	1.034459
H185	H	0.805597	-0.395641	0.509315
H186	H	1.305597	0.104359	1.009315
H187	H	0.759737	-0.366612	0.569493
H188	H	1.259737	0.133388	1.069493
H189	H	0.364615	-0.352608	0.404544
H190	H	0.864615	0.147392	0.904544
H191	H	1.056832	-0.352988	1.067731
H192	H	1.556832	0.147012	1.567731
H193	H	1.056628	-0.352888	0.583727
H194	H	1.556628	0.147112	1.083727
O195	O	1.063505	-0.343381	0.717633
O196	O	1.563505	0.156619	1.217633
C197	C	1.054256	-0.356625	0.787603
C198	C	1.554256	0.143375	1.287603
H199	H	1.032006	-0.431009	0.797226
H200	H	1.532006	0.068991	1.297226
H201	H	1.018298	-0.299322	0.807758
H202	H	1.518298	0.200678	1.307758
C203	C	1.150109	-0.256661	0.811993
C204	C	1.650109	0.243339	1.311993
C205	C	1.122787	-0.348023	0.823812
C206	C	1.622787	0.151977	1.323812
H207	H	1.192381	-0.251350	0.834329
H208	H	1.692381	0.248650	1.334329
H209	H	1.156339	-0.247734	0.764853
H210	H	1.656339	0.252266	1.264853
H211	H	1.120138	-0.208918	0.828788
H212	H	1.620138	0.291082	1.328788
H213	H	1.152753	-0.395763	0.807009
H214	H	1.652753	0.104237	1.307009
H215	H	1.116563	-0.356957	0.870950
H216	H	1.616563	0.143043	1.370950
O217	O	0.892687	-0.586330	0.578273
O218	O	1.392687	-0.086330	1.078273
C219	C	0.907451	-0.682494	0.595473
C220	C	1.407451	-0.182494	1.095473
H221	H	0.933484	-0.684543	0.646775
H222	H	1.433484	-0.184543	1.146775
H223	H	0.942222	-0.715023	0.555646
H224	H	1.442222	-0.215023	1.055646
C225	C	0.809465	-0.738313	0.535749
C226	C	1.309465	-0.238313	1.035749
C227	C	0.841434	-0.740830	0.598762
C228	C	1.341434	-0.240830	1.098762
H229	H	0.768744	-0.774300	0.537775
H230	H	1.268744	-0.274300	1.037775
H231	H	0.799519	-0.673527	0.524159
H232	H	1.299519	-0.173527	1.024159
H233	H	0.838448	-0.765419	0.502567
H234	H	1.338448	-0.265419	1.002567
H235	H	0.812455	-0.713714	0.631942
H236	H	1.312455	-0.213714	1.131942
H237	H	0.851374	-0.805614	0.610359
H238	H	1.351374	-0.305614	1.110359
O239	O	0.586480	-0.342971	0.411292
O240	O	1.086480	0.157029	0.911292
C241	C	0.516518	-0.356213	0.402020
C242	C	1.016518	0.143787	0.902020
H243	H	0.506893	-0.430711	0.379919
H244	H	1.006893	0.069289	0.879919
H245	H	0.496454	-0.299093	0.365928
H246	H	0.996454	0.200907	0.865928
C247	C	0.492021	-0.255703	0.497646
C248	C	0.992021	0.244297	0.997646
C249	C	0.480200	-0.347206	0.470506
C250	C	0.980200	0.152794	0.970506
H251	H	0.469617	-0.250143	0.539890
H252	H	0.969617	0.249857	1.039890
H253	H	0.539156	-0.246778	0.503891
H254	H	1.039156	0.253222	1.003891
H255	H	0.475301	-0.208113	0.467563
H256	H	0.975301	0.291887	0.967563
H257	H	0.496927	-0.394793	0.500584
H258	H	0.996927	0.105207	1.000584
H259	H	0.433067	-0.356139	0.464267
H260	H	0.933067	0.143861	0.964267
O261	O	0.892806	-0.586280	0.717622
O262	O	1.392806	-0.086280	1.217622
C263	C	0.931333	-0.648657	0.758433
C264	C	1.431333	-0.148657	1.258433
H265	H	0.982642	-0.614700	0.769002
H266	H	1.482642	-0.114700	1.269002
H267	H	0.938737	-0.720138	0.731144
H268	H	1.438737	-0.220138	1.231144
C269	C	0.831089	-0.707808	0.812617
C270	C	1.331089	-0.207808	1.312617
C271	C	0.894105	-0.666098	0.825602
C272	C	1.394105	-0.166098	1.325602
H273	H	0.808124	-0.718571	0.854049
H274	H	1.308124	-0.218571	1.354049
H275	H	0.805131	-0.665787	0.785120
H276	H	1.305131	-0.165787	1.285120
H277	H	0.837267	-0.767371	0.789875
H278	H	1.337267	-0.267371	1.289875
H279	H	0.887925	-0.606531	0.848336
H280	H	1.387925	-0.106531	1.348336
H281	H	0.920061	-0.708110	0.853104
H282	H	1.420061	-0.208110	1.353104
