data_functionalizedCrystal
_audit_creation_method	'MofGen! by Chris Wilmer'
_symmetry_space_group_name_H-M	'P1'
_symmetry_Int_Tables_number	1
_symmetry_cell_setting	triclinic
loop_
_symmetry_equiv_pos_as_xyz
  x,y,z
_cell_length_a	14.853566
_cell_length_b	14.853559
_cell_length_c	15.186229
_cell_angle_alpha	89.998446
_cell_angle_beta	89.999490
_cell_angle_gamma	83.632934
loop_
_atom_site_label
_atom_site_type_symbol
_atom_site_fract_x
_atom_site_fract_y
_atom_site_fract_z
O1	O	1.196361	0.117698	-0.073166
O2	O	1.696361	0.617698	0.426834
O3	O	0.933900	0.131721	-0.073180
O4	O	1.433900	0.631721	0.426820
O5	O	1.072145	-0.006521	-0.073172
O6	O	1.572145	0.493479	0.426828
O7	O	1.058116	0.255940	-0.073174
O8	O	1.558116	0.755940	0.426826
O9	O	1.072136	-0.006523	0.073286
O10	O	1.572136	0.493477	0.573286
O11	O	0.933891	0.131719	0.073277
O12	O	1.433891	0.631719	0.573277
O13	O	1.196351	0.117696	0.073291
O14	O	1.696351	0.617696	0.573291
Zn15	Zn	1.065120	0.124707	0.096538
Zn16	Zn	1.565120	0.624707	0.596538
Zn17	Zn	1.065132	0.124710	-0.096426
Zn18	Zn	1.565132	0.624710	0.403574
O19	O	1.058107	0.255938	0.073283
O20	O	1.558107	0.755938	0.573283
C21	C	0.900307	0.131085	0.000047
C22	C	1.400307	0.631085	0.500047
C23	C	0.800223	0.129181	0.000041
C24	C	1.300223	0.629181	0.500041
C25	C	1.071506	-0.040111	0.000055
C26	C	1.571506	0.459889	0.500055
C27	C	1.069605	-0.140195	0.000050
C28	C	1.569605	0.359805	0.500050
C29	C	0.377044	0.121132	-0.079777
C30	C	0.877044	0.621132	0.420223
C31	C	0.377055	0.121130	0.079896
C32	C	0.877055	0.621130	0.579896
C33	C	0.471089	0.122917	0.079894
C34	C	0.971089	0.622917	0.579894
C35	C	0.518105	0.123813	0.000054
C36	C	1.018105	0.623813	0.500054
C37	C	0.471086	0.122922	-0.079782
C38	C	0.971086	0.622922	0.420218
C39	C	0.518113	0.123818	0.159729
C40	C	1.018113	0.623818	0.659729
C41	C	0.612153	0.125607	0.159729
C42	C	1.112153	0.625607	0.659729
C43	C	0.659171	0.126496	0.079889
C44	C	1.159171	0.626496	0.579889
C45	C	0.612147	0.125604	0.000049
C46	C	1.112147	0.625604	0.500049
C47	C	0.659163	0.126499	-0.079790
C48	C	1.159163	0.626499	0.420210
C49	C	0.612141	0.125600	-0.159631
C50	C	1.112141	0.625600	0.340369
C51	C	0.518104	0.123811	-0.159622
C52	C	1.018104	0.623811	0.340378
C53	C	0.753208	0.128285	0.079881
C54	C	1.253208	0.628285	0.579881
C55	C	0.753205	0.128290	-0.079795
C56	C	1.253205	0.628290	0.420205
C57	C	1.061547	-0.563369	-0.079784
C58	C	1.561547	-0.063369	0.420216
C59	C	1.061537	-0.563366	0.079889
C60	C	1.561537	-0.063366	0.579889
C61	C	1.063330	-0.469332	0.079890
C62	C	1.563330	0.030668	0.579890
C63	C	1.064230	-0.422313	0.000053
C64	C	1.564230	0.077687	0.500053
C65	C	1.063338	-0.469326	-0.079786
C66	C	1.563338	0.030674	0.420214
C67	C	1.064214	-0.422310	0.159727
C68	C	1.564214	0.077690	0.659727
C69	C	1.066006	-0.328271	0.159731
C70	C	1.566006	0.171729	0.659731
C71	C	1.066913	-0.281251	0.079893
C72	C	1.566913	0.218749	0.579893
C73	C	1.066021	-0.328270	0.000051
C74	C	1.566021	0.171730	0.500051
C75	C	1.066922	-0.281251	-0.079787
C76	C	1.566922	0.218749	0.420213
C77	C	1.066036	-0.328270	-0.159629
C78	C	1.566036	0.171730	0.340371
C79	C	1.064245	-0.422306	-0.159624
C80	C	1.564245	0.077694	0.340376
C81	C	1.068705	-0.187214	0.079888
C82	C	1.568705	0.312786	0.579888
C83	C	1.068713	-0.187208	-0.079788
C84	C	1.568713	0.312792	0.420212
C85	C	1.229945	0.118332	0.000063
C86	C	1.729945	0.618332	0.500063
C87	C	1.330028	0.120236	0.000062
C88	C	1.830028	0.620236	0.500062
C89	C	1.058745	0.289528	0.000054
C90	C	1.558745	0.789528	0.500054
C91	C	1.060646	0.389612	0.000053
C92	C	1.560646	0.889612	0.500053
N93	N	1.065118	0.124705	0.228230
N94	N	1.565118	0.624705	0.728230
N95	N	1.065141	0.124705	-0.228119
N96	N	1.565141	0.624705	0.271881
C97	C	1.126354	0.063512	0.453957
C98	C	1.626354	0.563512	0.953957
C99	C	1.126357	0.063510	0.546146
C100	C	1.626357	0.563510	1.046146
C101	C	1.003899	0.185901	0.546148
C102	C	1.503899	0.685901	1.046148
C103	C	1.003892	0.185898	0.453960
C104	C	1.503892	0.685898	0.953960
C105	C	1.065125	0.124704	0.407867
C106	C	1.565125	0.624704	0.907867
C107	C	1.065134	0.124705	0.592244
C108	C	1.565134	0.624705	1.092244
C109	C	1.065137	0.124703	0.692201
C110	C	1.565137	0.624703	1.192201
C111	C	1.065121	0.124705	0.307904
C112	C	1.565121	0.624705	0.807904
H113	H	0.791479	0.129016	-0.144811
H114	H	1.291479	0.629016	0.355189
F115	F	0.938717	0.251026	0.404904
F116	F	1.438717	0.751026	0.904904
F117	F	0.468071	0.122875	0.244693
F118	F	0.968071	0.622875	0.744693
F119	F	0.938736	0.251026	0.595210
F120	F	1.438736	0.751026	1.095210
H121	H	1.176213	0.013681	0.583670
H122	H	1.676213	0.513681	1.083670
H123	H	1.063523	-0.460597	-0.224628
H124	H	1.563523	0.039403	0.275372
F125	F	1.069645	-0.137178	0.164855
F126	F	1.569645	0.362822	0.664855
H127	H	0.338769	0.120407	0.144898
H128	H	0.838769	0.620407	0.644898
H129	H	0.650430	0.126337	0.224740
H130	H	1.150430	0.626337	0.724740
H131	H	1.066763	-0.289973	-0.224633
H132	H	1.566763	0.210027	0.275367
H133	H	0.650432	0.126336	-0.224636
H134	H	1.150432	0.626336	0.275364
H135	H	1.060829	-0.601656	-0.144790
H136	H	1.560829	-0.101656	0.355210
F137	F	1.191521	-0.001617	0.404904
F138	F	1.691521	0.498383	0.904904
F139	F	0.327004	0.120153	-0.164745
F140	F	0.827004	0.620153	0.335255
H141	H	0.479811	0.123078	-0.224624
H142	H	0.979811	0.623078	0.275376
H143	H	1.063476	-0.460600	0.224726
H144	H	1.563476	0.039400	0.724726
F145	F	0.803247	0.129249	0.164846
F146	F	1.303247	0.629249	0.664846
F147	F	1.069677	-0.137175	-0.164764
F148	F	1.569677	0.362825	0.335236
F149	F	1.060565	-0.613408	0.164853
F150	F	1.560565	-0.113408	0.664853
H151	H	1.066731	-0.289997	0.224744
H152	H	1.566731	0.210003	0.724744
