data_functionalizedCrystal
_audit_creation_method	'MofGen! by Chris Wilmer'
_symmetry_space_group_name_H-M	'P1'
_symmetry_Int_Tables_number	1
_symmetry_cell_setting	triclinic
loop_
_symmetry_equiv_pos_as_xyz
  x,y,z
_cell_length_a	12.759401
_cell_length_b	21.295417
_cell_length_c	21.295411
_cell_angle_alpha	89.972329
_cell_angle_beta	89.986642
_cell_angle_gamma	90.030129
loop_
_atom_site_label
_atom_site_type_symbol
_atom_site_fract_x
_atom_site_fract_y
_atom_site_fract_z
Zn1	Zn	1.606091	-0.250630	-0.355864
Zn2	Zn	1.605956	-0.355895	-0.250591
Zn3	Zn	1.430409	-0.250644	-0.250615
Zn4	Zn	1.430336	-0.355866	-0.355829
O5	O	1.518198	-0.303259	-0.303225
O6	O	1.753094	-0.264600	-0.341904
O7	O	1.582643	-0.341951	-0.162505
O8	O	1.453801	-0.162553	-0.264601
O9	O	1.752995	-0.341937	-0.264561
O10	O	1.582874	-0.162542	-0.341927
O11	O	1.453670	-0.264624	-0.162522
O12	O	1.283379	-0.264596	-0.264567
O13	O	1.453676	-0.341888	-0.443923
O14	O	1.283325	-0.341902	-0.341867
O15	O	1.582803	-0.264572	-0.443949
O16	O	1.582572	-0.443980	-0.264527
O17	O	1.453545	-0.443959	-0.341844
C18	C	1.245231	-0.303248	-0.303216
C19	C	1.128454	-0.303258	-0.303227
C20	C	1.073645	-0.263061	-0.343562
C21	C	0.963920	-0.263068	-0.343566
C22	C	0.963825	-0.343473	-0.262899
C23	C	1.073547	-0.343463	-0.262892
C24	C	0.814029	-0.188873	-0.366204
C25	C	0.759216	-0.148682	-0.406548
C26	C	0.794867	-0.139097	-0.467987
C27	C	0.885330	-0.169714	-0.489093
C28	C	0.940138	-0.209910	-0.448752
C29	C	0.904488	-0.219482	-0.387305
C30	C	1.223440	-0.417659	-0.240261
C31	C	1.278250	-0.457859	-0.199922
C32	C	1.242601	-0.467449	-0.138483
C33	C	1.152134	-0.436844	-0.117379
C34	C	1.097325	-0.396644	-0.157717
C35	C	1.132982	-0.387053	-0.219156
C36	C	1.518064	-0.466810	-0.303193
C37	C	1.518103	-0.536778	-0.303200
C38	C	1.585273	-0.569582	-0.343493
C39	C	1.585310	-0.635325	-0.343508
C40	C	1.518188	-0.668261	-0.303220
C41	C	1.451005	-0.635449	-0.262925
C42	C	1.450963	-0.569708	-0.262915
N43	N	1.510258	-0.771520	-0.248129
N44	N	1.510304	-0.833971	-0.248141
C45	C	1.518311	-0.866336	-0.303249
N46	N	1.526290	-0.833889	-0.358346
N47	N	1.526249	-0.771432	-0.358334
C48	C	1.518226	-0.739546	-0.303227
C49	C	1.585524	-0.970425	-0.343561
C50	C	1.585554	-1.036169	-0.343578
C51	C	1.451255	-1.036292	-0.262989
C52	C	1.451220	-0.970549	-0.262978
C53	C	1.518360	-0.937620	-0.303263
C54	C	1.792231	-0.303270	-0.303234
C55	C	1.909008	-0.303275	-0.303238
C56	C	1.518246	-0.303225	-0.467415
C57	C	1.518267	-0.303211	-0.537383
C58	C	1.518361	-0.139068	-0.303271
C59	C	1.518431	-0.069100	-0.303290
C60	C	1.585541	-0.343344	-1.036833
C61	C	1.585522	-0.343365	-0.971091
C62	C	1.518366	-0.303113	-0.938223
C63	C	1.451206	-0.262849	-0.971103
C64	C	1.451219	-0.262834	-1.036845
N65	N	1.510340	-0.248033	-0.835017
N66	N	1.510334	-0.248049	-0.772565
C67	C	1.518320	-0.303155	-0.740148
N68	N	1.526334	-0.358246	-0.772542
N69	N	1.526347	-0.358230	-0.834999
C70	C	1.518344	-0.303124	-0.866938
C71	C	1.585451	-0.343441	-0.635990
C72	C	1.585424	-0.343462	-0.570246
C73	C	1.451114	-0.262941	-0.570260
C74	C	1.451135	-0.262926	-0.636003
C75	C	1.518309	-0.303175	-0.668864
C76	C	1.518210	-0.303247	-0.139673
C77	C	1.518393	-0.303084	-0.069706
H78	H	1.351923	-0.482771	-0.217107
O79	O	1.378793	-0.935161	-0.219507
H80	H	1.332133	-0.969106	-0.191488
O81	O	0.904599	-0.386839	-0.219401
H82	H	0.925630	-0.375968	-0.170015
H83	H	1.118347	-0.230322	-0.376403
H84	H	1.396597	-1.063107	-0.230189
H85	H	1.640145	-0.376216	-0.662747
O86	O	0.735752	-0.095746	-0.511501
H87	H	0.788090	-0.056935	-0.526633
H88	H	1.640251	-1.062877	-0.376392
H89	H	1.640098	-0.376254	-0.543483
O90	O	1.378516	-0.534320	-0.219453
H91	H	1.425560	-0.504362	-0.187450
O92	O	1.378686	-0.219519	-0.534822
H93	H	1.325200	-0.247694	-0.504855
H94	H	1.287217	-0.500201	-0.105647
O95	O	1.657679	-0.534060	-0.386942
H96	H	1.711138	-0.504103	-0.358782
H97	H	1.396352	-0.662270	-0.230123
O98	O	0.923776	-0.159377	-0.555363
H99	H	1.004100	-0.139384	-0.554086
H100	H	1.640191	-0.943613	-0.376366
H101	H	1.023662	-0.371724	-0.140530
H102	H	0.785001	-0.196666	-0.316174
H103	H	1.396526	-0.230076	-0.944338
H104	H	1.396539	-0.230048	-1.063609
O105	O	1.378728	-0.219490	-0.671463
H106	H	1.296256	-0.230280	-0.658836
O107	O	1.037708	-0.242928	-0.471503
H108	H	1.053296	-0.229511	-0.521005
O109	O	1.657968	-0.386773	-1.072269
H110	H	1.740436	-0.375992	-1.059657
O111	O	0.661658	-0.115651	-0.383786
H112	H	0.646085	-0.129055	-0.334279
O113	O	1.657958	-0.386783	-0.935623
H114	H	1.704676	-0.414764	-0.969518
O115	O	1.657767	-0.670719	-0.386963
H116	H	1.704451	-0.636776	-0.414971
H117	H	1.123104	-0.444656	-0.067351
H118	H	1.252481	-0.409849	-0.290288
