data_functionalizedCrystal
_audit_creation_method	'MofGen! by Chris Wilmer'
_symmetry_space_group_name_H-M	'P1'
_symmetry_Int_Tables_number	1
_symmetry_cell_setting	triclinic
loop_
_symmetry_equiv_pos_as_xyz
  x,y,z
_cell_length_a	14.044220
_cell_length_b	16.109301
_cell_length_c	14.586319
_cell_angle_alpha	90.012306
_cell_angle_beta	90.000119
_cell_angle_gamma	91.674821
loop_
_atom_site_label
_atom_site_type_symbol
_atom_site_fract_x
_atom_site_fract_y
_atom_site_fract_z
O1	O	1.257645	-0.200444	-0.076149
O2	O	1.757645	0.299556	0.423851
O3	O	0.981678	-0.193211	-0.076172
O4	O	1.481678	0.306789	0.423828
O5	O	1.127243	-0.076361	-0.076150
O6	O	1.627243	0.423639	0.423850
O7	O	1.112080	-0.317295	-0.076170
O8	O	1.612080	0.182705	0.423830
O9	O	1.127229	-0.076341	0.076331
O10	O	1.627229	0.423659	0.576331
O11	O	0.981665	-0.193192	0.076309
O12	O	1.481665	0.306808	0.576309
O13	O	1.257632	-0.200425	0.076332
O14	O	1.757632	0.299575	0.576332
Cu15	Cu	1.119647	-0.196806	0.090243
Cu16	Cu	1.619647	0.303194	0.590243
Cu17	Cu	1.119663	-0.196830	-0.090083
Cu18	Cu	1.619663	0.303170	0.409917
O19	O	1.112067	-0.317275	0.076311
O20	O	1.612067	0.182725	0.576311
C21	C	0.946358	-0.190036	0.000066
C22	C	1.446358	0.309964	0.500066
C23	C	0.841135	-0.180592	0.000058
C24	C	1.341135	0.319408	0.500058
C25	C	1.126622	-0.045330	0.000091
C26	C	1.626622	0.454670	0.500091
C27	C	1.124781	0.047102	0.000092
C28	C	1.624781	0.547102	0.500092
N29	N	1.119674	-0.196840	-0.216915
N30	N	1.619674	0.303160	0.283085
C31	C	0.648479	-0.163326	0.000077
C32	C	1.148479	0.336674	0.500077
C33	C	0.590825	-0.230306	0.000075
C34	C	1.090825	0.269694	0.500075
C35	C	0.483625	-0.220699	0.000086
C36	C	0.983625	0.279301	0.500086
C37	C	0.755690	-0.172932	0.000066
C38	C	1.255690	0.327068	0.500066
C39	C	1.292952	-0.203600	0.000093
C40	C	1.792952	0.296400	0.500093
C41	C	1.398175	-0.213044	0.000095
C42	C	1.898175	0.286956	0.500095
C43	C	1.112688	-0.348305	0.000068
C44	C	1.612688	0.151695	0.500068
C45	C	1.114529	-0.440738	0.000061
C46	C	1.614529	0.059262	0.500061
C47	C	1.206874	0.263266	0.000084
C48	C	1.706874	0.763266	0.500084
C49	C	1.205137	0.350116	0.000076
C50	C	1.705137	0.850116	0.500076
C51	C	1.032429	0.343091	0.000066
C52	C	1.532429	0.843091	0.500066
C53	C	1.034168	0.256243	0.000067
C54	C	1.534168	0.756243	0.500067
C55	C	1.121393	0.216333	0.000081
C56	C	1.621393	0.716333	0.500081
C57	C	1.117917	0.390031	0.000072
C58	C	1.617917	0.890031	0.500072
C59	C	1.116032	0.484197	0.000064
C60	C	1.616032	0.984197	0.500064
C61	C	1.123278	0.122161	0.000087
C62	C	1.623278	0.622161	0.500087
C63	C	1.184238	-0.145198	-0.547899
C64	C	1.684238	0.354802	-0.047899
C65	C	1.184242	-0.145204	-0.451918
C66	C	1.684242	0.354796	0.048082
C67	C	1.055073	-0.248434	-0.451947
C68	C	1.555073	0.251566	0.048053
C69	C	1.055065	-0.248423	-0.547927
C70	C	1.555065	0.251577	-0.047927
C71	C	1.119653	-0.196806	-0.595900
C72	C	1.619653	0.303194	-0.095900
C73	C	1.119665	-0.196824	-0.403939
C74	C	1.619665	0.303176	0.096061
C75	C	1.119669	-0.196831	-0.299872
C76	C	1.619669	0.303169	0.200128
C77	C	1.119648	-0.196797	-0.699974
C78	C	1.619648	0.303203	-0.199974
N79	N	1.119643	-0.196790	0.217075
N80	N	1.619643	0.303210	0.717075
H81	H	0.621976	-0.294863	0.000066
H82	H	1.121976	0.205137	0.500066
C83	C	0.606397	-0.076117	0.000082
C84	C	1.106397	0.423883	0.500082
N85	N	0.574690	-0.010432	0.000082
N86	N	1.074690	0.489568	0.500082
H87	H	1.274744	0.388326	0.000077
H88	H	1.774744	0.888326	0.500077
C89	C	0.936486	0.387001	0.000068
C90	C	1.436486	0.887001	0.500068
N91	N	0.864220	0.420072	0.000077
N92	N	1.364220	0.920072	0.500077
H93	H	0.964554	0.218029	0.000061
H94	H	1.464554	0.718029	0.500061
C95	C	0.984062	-0.305246	-0.600731
C96	C	1.484062	0.194754	-0.100731
N97	N	0.930601	-0.348059	-0.640503
N98	N	1.430601	0.151941	-0.140503
C99	C	1.255279	-0.088411	-0.600666
C100	C	1.755279	0.411589	-0.100666
N101	N	1.308786	-0.045634	-0.640408
N102	N	1.808786	0.454366	-0.140408
C103	C	1.302824	0.219368	0.000089
C104	C	1.802824	0.719368	0.500089
N105	N	1.375097	0.186307	0.000089
N106	N	1.875097	0.686307	0.500089
H107	H	1.236832	-0.103179	-0.412838
H108	H	1.736832	0.396821	0.087162
H109	H	1.002488	-0.290461	-0.412878
H110	H	1.502488	0.209539	0.087122
