data_functionalizedCrystal
_audit_creation_method	'MofGen! by Chris Wilmer'
_symmetry_space_group_name_H-M	'P1'
_symmetry_Int_Tables_number	1
_symmetry_cell_setting	triclinic
loop_
_symmetry_equiv_pos_as_xyz
  x,y,z
_cell_length_a	12.759395
_cell_length_b	16.120444
_cell_length_c	12.759387
_cell_angle_alpha	92.863078
_cell_angle_beta	89.982262
_cell_angle_gamma	92.926266
loop_
_atom_site_label
_atom_site_type_symbol
_atom_site_fract_x
_atom_site_fract_y
_atom_site_fract_z
Zn1	Zn	1.584960	-0.331857	-0.615144
Zn2	Zn	2.084960	0.168143	-0.115144
Zn3	Zn	1.575909	-0.471296	-0.448359
Zn4	Zn	2.075909	0.028704	0.051641
Zn5	Zn	1.409260	-0.331901	-0.439487
Zn6	Zn	1.909260	0.168099	0.060513
Zn7	Zn	1.400308	-0.471230	-0.623997
Zn8	Zn	1.900308	0.028770	-0.123997
O9	O	1.492609	-0.401571	-0.531747
O10	O	1.992609	0.098429	-0.031747
O11	O	1.730780	-0.350363	-0.593028
O12	O	2.230780	0.149637	-0.093028
O13	O	1.553762	-0.452851	-0.300164
O14	O	2.053762	0.047149	0.199836
O15	O	1.440101	-0.215230	-0.455370
O16	O	1.940101	0.284770	0.044630
O17	O	1.724130	-0.452809	-0.470492
O18	O	2.224130	0.047191	0.029508
O19	O	1.569187	-0.215197	-0.584424
O20	O	2.069187	0.284803	-0.084424
O21	O	1.431325	-0.350438	-0.293646
O22	O	1.931325	0.149562	0.206354
O23	O	1.261052	-0.350374	-0.463955
O24	O	1.761052	0.149626	0.036045
O25	O	1.424844	-0.452696	-0.769841
O26	O	1.924844	0.047304	-0.269841
O27	O	1.254475	-0.452739	-0.599514
O28	O	1.754475	0.047261	-0.099514
O29	O	1.560506	-0.350299	-0.763337
O30	O	2.060506	0.149701	-0.263337
O31	O	1.545081	-0.587953	-0.479076
O32	O	2.045081	-0.087953	0.020924
O33	O	1.416068	-0.587904	-0.608117
O34	O	1.916068	-0.087904	-0.108117
C35	C	1.219643	-0.401555	-0.531733
C36	C	1.719643	0.098445	-0.031733
C37	C	1.102865	-0.401568	-0.531753
C38	C	1.602865	0.098432	-0.031753
C39	C	1.109759	-0.295063	-0.659578
C40	C	1.609759	0.204937	-0.159578
C41	C	1.058344	-0.241821	-0.723500
C42	C	1.558344	0.258179	-0.223500
C43	C	0.948622	-0.241836	-0.723514
C44	C	1.448622	0.258164	-0.223514
C45	C	0.890311	-0.295097	-0.659597
C46	C	1.390311	0.204903	-0.159597
C47	C	0.941726	-0.348339	-0.595675
C48	C	1.441726	0.151661	-0.095675
C49	C	1.051451	-0.348320	-0.595671
C50	C	1.551451	0.151680	-0.095671
C51	C	0.934832	-0.454838	-0.467846
C52	C	1.434832	0.045162	0.032154
C53	C	1.044555	-0.454828	-0.467836
C54	C	1.544555	0.045172	0.032164
C55	C	0.876522	-0.508098	-0.403930
C56	C	1.376522	-0.008098	0.096070
C57	C	0.927936	-0.561346	-0.340012
C58	C	1.427936	-0.061346	0.159988
C59	C	1.037665	-0.561329	-0.340002
C60	C	1.537665	-0.061329	0.159998
C61	C	1.095969	-0.508070	-0.403915
C62	C	1.595969	-0.008070	0.096085
C63	C	1.478650	-0.618179	-0.545543
C64	C	1.978650	-0.118179	-0.045543
C65	C	1.472774	-0.710845	-0.551480
C66	C	1.972774	-0.210845	-0.051480
C67	C	1.523348	-0.921790	-0.501174
C68	C	2.023348	-0.421790	-0.001174
C69	C	1.462065	-0.880501	-0.562331
C70	C	1.962065	-0.380501	-0.062331
C71	C	1.468025	-0.786095	-0.556292
C72	C	1.968025	-0.286095	-0.056292
C73	C	1.517389	-1.016204	-0.507212
C74	C	2.017389	-0.516204	-0.007212
C75	C	1.766641	-0.401588	-0.531762
C76	C	2.266641	0.098412	-0.031762
C77	C	1.883418	-0.401596	-0.531768
C78	C	2.383418	0.098404	-0.031768
C79	C	1.492686	-0.401485	-0.805775
C80	C	1.992686	0.098515	-0.305775
C81	C	1.492719	-0.401448	-0.922549
C82	C	1.992719	0.098552	-0.422549
C83	C	1.506652	-0.184117	-0.517920
C84	C	2.006652	0.315883	-0.017920
C85	C	1.512636	-0.091452	-0.512028
C86	C	2.012636	0.408548	-0.012028
C87	C	1.365235	-0.294798	-0.915780
C88	C	1.865235	0.205202	-0.415780
C89	C	1.301513	-0.241457	-0.967255
C90	C	1.801513	0.258543	-0.467255
C91	C	1.301547	-0.241427	-1.076975
C92	C	1.801547	0.258573	-0.576975
C93	C	1.365306	-0.294746	-1.135223
C94	C	1.865306	0.205254	-0.635223
C95	C	1.429028	-0.348087	-1.083748
C96	C	1.929028	0.151913	-0.583748
C97	C	1.428990	-0.348110	-0.974025
C98	C	1.928990	0.151890	-0.474025
C99	C	1.556505	-0.454740	-1.090517
C100	C	2.056505	0.045260	-0.590517
C101	C	1.556478	-0.454767	-0.980797
C102	C	2.056478	0.045233	-0.480797
C103	C	1.620264	-0.508059	-1.148765
C104	C	2.120264	-0.008059	-0.648765
C105	C	1.683993	-0.561398	-1.097289
C106	C	2.183993	-0.061398	-0.597289
C107	C	1.683958	-0.561425	-0.987563
C108	C	2.183958	-0.061425	-0.487563
C109	C	1.620200	-0.508109	-0.929322
C110	C	2.120200	-0.008109	-0.429322
C111	C	1.492597	-0.401597	-0.258781
C112	C	1.992597	0.098403	0.241219
C113	C	1.492783	-0.401398	-0.141992
C114	C	1.992783	0.098602	0.358008
H115	H	1.185312	-0.508048	-0.403907
H116	H	1.685312	-0.008048	0.096093
O117	O	1.598766	-0.874702	-0.425812
O118	O	2.098766	-0.374702	0.074188
H119	H	1.642748	-0.919510	-0.381941
H120	H	2.142748	-0.419510	0.118059
O121	O	0.893166	-0.184405	-0.792450
O122	O	1.393166	0.315595	-0.292450
H123	H	0.807074	-0.193361	-0.781710
H124	H	1.307074	0.306639	-0.281710
O125	O	1.752746	-0.618909	-1.160109
O126	O	2.252746	-0.118909	-0.660109
H127	H	1.836123	-0.604635	-1.138148
H128	H	2.336123	-0.104635	-0.638148
H129	H	1.405123	-0.916052	-0.619225
H130	H	1.905123	-0.416052	-0.119225
O131	O	1.752696	-0.618951	-0.932042
O132	O	2.252696	-0.118951	-0.432042
H133	H	1.797040	-0.656012	-0.990981
H134	H	2.297040	-0.156012	-0.490981
H135	H	0.787180	-0.508104	-0.403943
H136	H	1.287180	-0.008104	0.096057
H137	H	1.365210	-0.294811	-0.826440
H138	H	1.865210	0.205189	-0.326440
O139	O	0.771967	-0.295109	-0.659598
O140	O	1.271967	0.204891	-0.159598
H141	H	0.746012	-0.249139	-0.714783
H142	H	1.246012	0.250861	-0.214783
O143	O	1.232756	-0.183947	-0.904426
O144	O	1.732756	0.316053	-0.404426
H145	H	1.149379	-0.198229	-0.926381
H146	H	1.649379	0.301771	-0.426381
H147	H	0.880451	-0.604703	-0.287972
H148	H	1.380451	-0.104703	0.212028
H149	H	1.620169	-0.508123	-0.839982
H150	H	2.120169	-0.008123	-0.339982
O151	O	1.232826	-0.183893	-1.132506
O152	O	1.732826	0.316107	-0.632506
H153	H	1.188489	-0.146818	-1.073575
H154	H	1.688489	0.353182	-0.573575
O155	O	1.365384	-0.294724	-1.253564
O156	O	1.865384	0.205276	-0.753564
H157	H	1.285075	-0.311554	-1.283600
H158	H	1.785075	0.188446	-0.783600
O159	O	1.228103	-0.295049	-0.659560
O160	O	1.728103	0.204951	-0.159560
H161	H	1.260012	-0.249067	-0.714735
H162	H	1.760012	0.250933	-0.214735
O163	O	1.121233	-0.184374	-0.792434
O164	O	1.621233	0.315626	-0.292434
H165	H	1.168837	-0.221732	-0.848188
H166	H	1.668837	0.278268	-0.348188
O167	O	1.093120	-0.618754	-0.271055
O168	O	1.593120	-0.118754	0.228945
H169	H	1.034136	-0.655790	-0.226621
H170	H	1.534136	-0.155790	0.273379
O171	O	1.620345	-0.508032	-1.267106
O172	O	2.120345	-0.008032	-0.767106
H173	H	1.540035	-0.524855	-1.297146
H174	H	2.040035	-0.024855	-0.797146
