data_functionalizedCrystal
_audit_creation_method	'MofGen! by Chris Wilmer'
_symmetry_space_group_name_H-M	'P1'
_symmetry_Int_Tables_number	1
_symmetry_cell_setting	triclinic
loop_
_symmetry_equiv_pos_as_xyz
  x,y,z
_cell_length_a	12.594517
_cell_length_b	25.639239
_cell_length_c	25.639214
_cell_angle_alpha	89.879638
_cell_angle_beta	89.925971
_cell_angle_gamma	90.038486
loop_
_atom_site_label
_atom_site_type_symbol
_atom_site_fract_x
_atom_site_fract_y
_atom_site_fract_z
Zn1	Zn	1.627654	-0.207693	-0.295625
Zn2	Zn	1.627310	-0.295267	-0.208189
Zn3	Zn	1.449494	-0.207847	-0.208202
Zn4	Zn	1.449569	-0.295099	-0.295593
O5	O	1.538507	-0.251476	-0.251902
O6	O	1.776554	-0.219315	-0.284035
O7	O	1.603547	-0.283805	-0.135026
O8	O	1.473239	-0.134661	-0.219818
O9	O	1.776302	-0.283656	-0.219796
O10	O	1.604132	-0.134548	-0.284048
O11	O	1.472906	-0.219578	-0.135035
O12	O	1.300558	-0.219415	-0.219786
O13	O	1.473368	-0.283369	-0.368762
O14	O	1.300614	-0.283519	-0.283992
O15	O	1.604206	-0.219153	-0.368787
O16	O	1.603621	-0.368410	-0.219765
O17	O	1.473035	-0.368286	-0.283979
C18	C	1.261966	-0.251466	-0.251887
C19	C	1.143660	-0.251474	-0.251893
C20	C	1.074346	-0.216560	-0.217038
C21	C	1.003473	-0.264271	-0.204173
C22	C	1.003735	-0.203786	-0.264767
C23	C	1.074345	-0.299210	-0.239003
C24	C	1.074613	-0.238692	-0.299619
C25	C	1.003772	-0.286437	-0.286772
C26	C	1.538328	-0.387319	-0.251878
C27	C	1.538349	-0.445433	-0.251886
C28	C	1.606680	-0.805847	-0.218523
C29	C	1.606722	-0.860452	-0.218530
O30	O	1.664634	-0.888732	-0.190137
N31	N	1.538694	-0.887715	-0.251937
C32	C	1.470628	-0.860371	-0.285343
O33	O	1.412770	-0.888575	-0.313760
C34	C	1.470593	-0.805768	-0.285338
C35	C	1.538618	-0.778508	-0.251925
C36	C	1.674700	-0.778587	-0.185113
C37	C	1.674657	-0.723986	-0.185105
C38	C	1.606594	-0.696646	-0.218508
C39	C	1.538575	-0.723907	-0.251918
C40	C	1.402534	-0.778426	-0.318747
C41	C	1.402505	-0.723818	-0.318740
C42	C	1.470529	-0.696558	-0.285326
C43	C	1.470469	-0.641967	-0.285313
N44	N	1.538497	-0.614703	-0.251905
C45	C	1.606559	-0.642043	-0.218503
C46	C	1.470708	-0.975042	-0.285351
C47	C	1.470737	-1.029644	-0.285354
C48	C	1.606832	-1.029721	-0.218541
C49	C	1.606797	-0.975118	-0.218536
C50	C	1.538736	-0.947779	-0.251944
C51	C	1.606463	-0.527378	-0.218489
C52	C	1.606411	-0.472773	-0.218483
C53	C	1.470321	-0.472701	-0.285298
C54	C	1.470368	-0.527302	-0.285302
C55	C	1.538448	-0.554639	-0.251896
O56	O	1.412589	-0.613651	-0.313692
O57	O	1.664418	-0.613833	-0.190096
C58	C	1.816128	-0.251487	-0.251918
C59	C	1.934433	-0.251492	-0.251925
C60	C	1.538834	-0.251225	-0.388276
C61	C	1.538973	-0.251118	-0.446390
C62	C	1.538716	-0.115103	-0.251938
C63	C	1.538805	-0.056989	-0.251953
C64	C	1.538242	-0.251689	-0.116059
C65	C	1.538309	-0.251648	-0.057945
C66	C	1.607112	-0.284623	0.193272
C67	C	1.607053	-0.284669	0.138668
O68	O	1.665311	-0.312911	0.110452
N69	N	1.538509	-0.251499	0.111328
C70	C	1.470026	-0.218276	0.138595
O71	O	1.411719	-0.190066	0.110327
C72	C	1.470091	-0.218228	0.193199
C73	C	1.538632	-0.251404	0.220536
C74	C	1.675649	-0.317796	0.220609
C75	C	1.675706	-0.317750	0.275209
C76	C	1.607226	-0.284531	0.302473
C77	C	1.538689	-0.251358	0.275136
C78	C	1.401614	-0.185003	0.220465
C79	C	1.401686	-0.184957	0.275072
C80	C	1.470227	-0.218133	0.302409
C81	C	1.470267	-0.218093	0.357000
N82	N	1.538811	-0.251264	0.384340
C83	C	1.607291	-0.284483	0.357076
C84	C	1.469896	-0.218380	0.023925
C85	C	1.469825	-0.218431	-0.030677
C86	C	1.606854	-0.284824	-0.030601
C87	C	1.606919	-0.284775	0.024002
C88	C	1.538441	-0.251551	0.051265
C89	C	1.607405	-0.284384	0.471741
C90	C	1.607453	-0.284337	0.526346
C91	C	1.470428	-0.217943	0.526265
C92	C	1.470376	-0.217992	0.471665
C93	C	1.538873	-0.251214	0.444404
O94	O	1.412042	-0.189865	0.385250
O95	O	1.665598	-0.312683	0.385351
H96	H	1.661903	-0.549630	-0.191288
H97	H	1.345799	-0.157988	0.198217
O98	O	1.674139	-0.316582	0.552820
C99	C	1.809999	-0.382462	0.547122
C100	C	1.734551	-0.345965	0.517079
H101	H	1.858846	-0.406236	0.518239
H102	H	1.865435	-0.358267	0.572552
H103	H	1.761507	-0.409930	0.572824
H104	H	1.782957	-0.318490	0.491349
H105	H	1.679113	-0.370193	0.491683
H106	H	1.347082	-0.701562	-0.345946
H107	H	1.345925	-0.157899	0.297266
H108	H	1.415335	-1.051835	-0.312557
O109	O	1.111363	-0.347309	-0.225957
C110	C	1.265092	-0.401270	-0.211338
C111	C	1.223311	-0.346773	-0.226108
H112	H	1.355606	-0.400857	-0.211466
H113	H	1.235232	-0.412255	-0.170780
H114	H	1.235358	-0.431056	-0.240872
H115	H	1.253028	-0.316950	-0.196609
H116	H	1.253163	-0.335832	-0.266678
H117	H	0.972978	-0.316004	-0.316261
H118	H	1.347135	-0.800612	-0.345953
O119	O	1.740848	-0.697590	-0.152636
C120	C	1.875809	-0.703449	-0.086354
C121	C	1.800909	-0.733403	-0.123106
H122	H	1.924372	-0.732391	-0.062461
H123	H	1.931537	-0.677822	-0.110358
H124	H	1.826903	-0.677954	-0.059007
H125	H	1.849729	-0.758927	-0.150460
H126	H	1.745178	-0.758997	-0.099070
H127	H	0.972230	-0.275093	-0.163826
O128	O	1.111875	-0.225676	-0.347722
C129	C	1.118188	-0.160677	-0.415678
C130	C	1.075936	-0.175355	-0.361192
H131	H	1.089129	-0.119997	-0.426589
H132	H	1.208697	-0.161136	-0.415302
H133	H	1.087955	-0.190055	-0.445497
H134	H	1.106090	-0.145992	-0.331342
H135	H	0.985428	-0.174912	-0.361610
H136	H	1.414981	-0.549498	-0.312512
H137	H	1.105336	-0.187064	-0.187526
H138	H	1.663183	-0.311436	0.449552
O139	O	0.966855	-0.155626	-0.277684
C140	C	0.960836	-0.064397	-0.255489
C141	C	1.002688	-0.118906	-0.240813
H142	H	0.989772	-0.034695	-0.225680
H143	H	0.991348	-0.053164	-0.295862
H144	H	0.870328	-0.064985	-0.255772
H145	H	1.093193	-0.118359	-0.240499
H146	H	0.972095	-0.130117	-0.200449
H147	H	1.730131	-0.800841	-0.157912
O148	O	1.742146	-0.350030	0.301783
C149	C	1.757512	-0.420500	0.363641
C150	C	1.682139	-0.383984	0.333576
H151	H	1.709028	-0.447954	0.389361
H152	H	1.806423	-0.444283	0.334790
H153	H	1.812902	-0.396267	0.389057
H154	H	1.626684	-0.408177	0.308159
H155	H	1.633303	-0.360199	0.362455
H156	H	1.414670	-0.190899	0.548473
O157	O	1.672596	-0.446373	-0.186008
C158	C	1.807540	-0.452222	-0.119717
C159	C	1.732661	-0.482181	-0.156474
H160	H	1.856106	-0.481160	-0.095822
H161	H	1.863267	-0.426590	-0.143717
H162	H	1.758618	-0.426731	-0.092374
H163	H	1.781497	-0.507701	-0.183825
H164	H	1.676932	-0.507781	-0.132442
O165	O	1.672979	-0.948720	-0.186064
C166	C	1.807917	-0.954574	-0.119770
C167	C	1.733034	-0.984530	-0.156528
H168	H	1.856474	-0.983513	-0.095872
H169	H	1.863651	-0.928946	-0.143770
H170	H	1.758999	-0.929078	-0.092428
H171	H	1.781866	-1.010054	-0.183877
H172	H	1.677296	-1.010125	-0.132495
H173	H	1.414901	-0.450432	-0.312492
O174	O	1.672994	-1.056365	-0.186180
C175	C	1.733480	-1.140525	-0.156649
C176	C	1.658476	-1.110414	-0.193307
H177	H	1.721752	-1.184229	-0.162390
H178	H	1.819293	-1.129740	-0.165918
H179	H	1.714867	-1.129891	-0.114466
H180	H	1.676993	-1.121032	-0.235501
H181	H	1.572685	-1.121202	-0.183992
O182	O	1.404479	-0.948568	-0.317818
C183	C	1.269539	-0.954266	-0.384108
C184	C	1.344468	-0.984309	-0.347357
H185	H	1.221017	-0.983150	-0.408008
H186	H	1.213774	-0.928797	-0.360103
H187	H	1.318419	-0.928604	-0.411448
H188	H	1.295674	-1.009999	-0.320010
H189	H	1.400236	-1.009745	-0.371395
H190	H	1.731419	-0.344847	0.198417
H191	H	1.414558	-0.190980	0.449406
H192	H	1.662621	-0.311869	-0.052809
O193	O	1.673602	-0.317017	0.050474
C194	C	1.809453	-0.382901	0.044772
C195	C	1.734003	-0.346403	0.014731
H196	H	1.858291	-0.406677	0.015887
H197	H	1.864898	-0.358706	0.070197
H198	H	1.760965	-0.410367	0.070477
H199	H	1.782406	-0.318930	-0.011002
H200	H	1.678556	-0.370630	-0.010661
H201	H	1.414001	-0.191421	-0.052930
H202	H	1.414124	-0.191326	0.046119
