data_functionalizedCrystal
_audit_creation_method	'MofGen! by Chris Wilmer'
_symmetry_space_group_name_H-M	'P1'
_symmetry_Int_Tables_number	1
_symmetry_cell_setting	triclinic
loop_
_symmetry_equiv_pos_as_xyz
  x,y,z
_cell_length_a	16.959455
_cell_length_b	16.959454
_cell_length_c	12.759387
_cell_angle_alpha	89.968763
_cell_angle_beta	89.977521
_cell_angle_gamma	90.019023
loop_
_atom_site_label
_atom_site_type_symbol
_atom_site_fract_x
_atom_site_fract_y
_atom_site_fract_z
Zn1	Zn	1.208429	-0.314653	-0.594113
Zn2	Zn	1.208338	-0.446856	-0.418436
Zn3	Zn	1.076244	-0.314693	-0.418439
Zn4	Zn	1.076222	-0.446791	-0.594063
O5	O	1.142308	-0.380748	-0.506263
O6	O	1.319028	-0.332200	-0.570828
O7	O	1.190787	-0.429368	-0.271415
O8	O	1.093826	-0.204077	-0.441764
O9	O	1.318961	-0.429329	-0.441759
O10	O	1.190941	-0.204047	-0.570831
O11	O	1.093738	-0.332268	-0.271417
O12	O	0.965630	-0.332205	-0.441716
O13	O	1.093788	-0.429219	-0.741091
O14	O	0.965614	-0.429257	-0.570747
O15	O	1.190920	-0.332138	-0.741128
O16	O	1.190765	-0.557458	-0.441711
O17	O	1.093700	-0.557410	-0.570744
C18	C	0.936942	-0.380729	-0.506227
C19	C	0.849085	-0.380740	-0.506237
C20	C	0.807796	-0.330138	-0.439164
C21	C	0.807821	-0.431349	-0.573325
C22	C	0.725275	-0.431358	-0.573341
C23	C	0.683986	-0.380755	-0.506268
C24	C	0.725243	-0.330143	-0.439180
C25	C	0.684012	-0.481963	-0.640435
C26	C	0.601461	-0.481973	-0.640454
C27	C	0.560170	-0.431374	-0.573375
C28	C	0.601432	-0.380761	-0.506283
C29	C	0.560143	-0.330158	-0.439211
C30	C	0.601404	-0.279549	-0.372113
C31	C	0.683952	-0.279544	-0.372101
C32	C	0.477622	-0.431379	-0.573387
C33	C	0.477590	-0.330164	-0.439226
C34	C	1.142242	-0.586114	-0.506245
C35	C	1.142286	-0.673971	-0.506272
C36	C	1.091840	-1.045452	-0.573443
C37	C	1.192997	-1.045441	-0.439189
C38	C	1.192969	-0.962896	-0.439180
C39	C	1.142375	-0.921624	-0.506302
C40	C	1.091809	-0.962898	-0.573433
C41	C	1.243529	-0.921615	-0.372042
C42	C	1.243503	-0.839064	-0.372029
C43	C	1.192912	-0.797791	-0.439157
C44	C	1.142344	-0.839070	-0.506292
C45	C	1.091750	-0.797799	-0.573414
C46	C	1.041186	-0.839077	-0.640555
C47	C	1.041218	-0.921625	-0.640561
C48	C	1.192880	-0.715243	-0.439150
C49	C	1.091719	-0.715245	-0.573404
C50	C	1.348476	-0.380768	-0.506299
C51	C	1.436333	-0.380776	-0.506314
C52	C	1.142362	-0.380667	-0.780296
C53	C	1.142385	-0.380632	-0.897073
C54	C	1.142396	-0.174580	-0.506304
C55	C	1.142434	-0.086723	-0.506321
C56	C	1.041334	-0.279515	-0.897094
C57	C	0.990823	-0.228941	-0.951966
C58	C	0.990847	-0.228912	-1.061687
C59	C	1.041385	-0.279465	-1.116540
C60	C	1.091896	-0.330039	-1.061669
C61	C	1.091869	-0.330060	-0.951945
C62	C	1.192941	-0.431159	-1.061648
C63	C	1.192923	-0.431184	-0.951926
C64	C	1.243479	-0.481711	-1.116500
C65	C	1.293995	-0.532282	-1.061629
C66	C	1.293970	-0.532308	-0.951901
C67	C	1.243434	-0.481758	-0.897054
C68	C	1.142300	-0.380772	-0.233295
C69	C	1.142430	-0.380585	-0.116519
H70	H	0.841443	-0.472544	-0.627937
C71	C	0.432178	-0.274495	-0.365441
N72	N	0.397975	-0.232563	-0.309867
C73	C	1.248639	-1.090843	-0.365349
N74	N	1.290550	-1.125043	-0.309729
H75	H	1.243491	-0.481688	-1.205842
H76	H	0.444031	-0.472579	-0.628024
C77	C	0.935283	-0.173279	-1.122048
N78	N	0.893434	-0.131374	-1.167511
H79	H	1.050674	-1.079064	-0.628111
H80	H	0.717635	-0.523158	-0.695045
H81	H	0.567874	-0.523184	-0.695088
H82	H	0.949674	-0.187784	-0.907292
H83	H	1.284714	-0.955224	-0.317387
H84	H	1.050522	-0.681647	-0.628067
H85	H	0.567775	-0.238344	-0.317507
H86	H	1.284675	-0.805461	-0.317360
C87	C	0.985534	-0.793667	-0.714386
N88	N	0.943619	-0.759462	-0.769995
H89	H	1.335136	-0.573441	-1.106299
C90	C	1.041399	-0.279440	-1.237237
N91	N	1.041409	-0.279423	-1.328147
H92	H	1.335105	-0.573490	-0.907231
C93	C	0.985593	-0.967037	-0.714398
N94	N	0.943693	-1.001244	-0.770006
C95	C	1.248498	-0.669841	-0.365301
N96	N	1.290395	-0.635645	-0.309677
H97	H	1.041316	-0.279527	-0.807753
H98	H	1.243411	-0.481772	-0.807713
H99	H	0.717554	-0.238340	-0.317474
C100	C	0.853183	-0.274463	-0.365368
N101	N	0.887369	-0.232526	-0.309789
