data_functionalizedCrystal
_audit_creation_method	'MofGen! by Chris Wilmer'
_symmetry_space_group_name_H-M	'P1'
_symmetry_Int_Tables_number	1
_symmetry_cell_setting	triclinic
loop_
_symmetry_equiv_pos_as_xyz
  x,y,z
_cell_length_a	21.395362
_cell_length_b	16.625546
_cell_length_c	16.625539
_cell_angle_alpha	90.028532
_cell_angle_beta	90.036465
_cell_angle_gamma	90.038346
loop_
_atom_site_label
_atom_site_type_symbol
_atom_site_fract_x
_atom_site_fract_y
_atom_site_fract_z
Zn1	Zn	0.957849	-0.320673	0.456315
Zn2	Zn	1.207849	-0.070673	0.706315
Zn3	Zn	1.457849	0.179327	0.956315
Zn4	Zn	1.707849	0.429327	1.206315
Zn5	Zn	0.957780	-0.455512	0.321478
Zn6	Zn	1.207780	-0.205512	0.571478
Zn7	Zn	1.457780	0.044488	0.821478
Zn8	Zn	1.707780	0.294488	1.071478
Zn9	Zn	0.853078	-0.320734	0.321450
Zn10	Zn	1.103078	-0.070734	0.571450
Zn11	Zn	1.353078	0.179266	0.821450
Zn12	Zn	1.603078	0.429266	1.071450
Zn13	Zn	0.853048	-0.455505	0.456222
Zn14	Zn	1.103048	-0.205505	0.706222
Zn15	Zn	1.353048	0.044495	0.956222
Zn16	Zn	1.603048	0.294495	1.206222
O17	O	0.905439	-0.388106	0.388866
O18	O	1.155439	-0.138106	0.638866
O19	O	1.405439	0.111894	0.888866
O20	O	1.655439	0.361894	1.138866
O21	O	1.045518	-0.338537	0.438479
O22	O	1.295518	-0.088537	0.688479
O23	O	1.545518	0.161463	0.938479
O24	O	1.795518	0.411463	1.188479
O25	O	0.943875	-0.437662	0.208642
O26	O	1.193875	-0.187662	0.458642
O27	O	1.443875	0.062338	0.708642
O28	O	1.693875	0.312338	0.958642
O29	O	0.867017	-0.207894	0.339368
O30	O	1.117017	0.042106	0.589368
O31	O	1.367017	0.292106	0.839368
O32	O	1.617017	0.542106	1.089368
O33	O	1.045467	-0.437603	0.339415
O34	O	1.295467	-0.187603	0.589415
O35	O	1.545467	0.062397	0.839415
O36	O	1.795467	0.312397	1.089415
O37	O	0.943992	-0.207849	0.438453
O38	O	1.193992	0.042151	0.688453
O39	O	1.443992	0.292151	0.938453
O40	O	1.693992	0.542151	1.188453
O41	O	0.866950	-0.338642	0.208621
O42	O	1.116950	-0.088642	0.458621
O43	O	1.366950	0.161358	0.708621
O44	O	1.616950	0.411358	0.958621
O45	O	0.765396	-0.338635	0.339277
O46	O	1.015396	-0.088635	0.589277
O47	O	1.265396	0.161365	0.839277
O48	O	1.515396	0.411365	1.089277
O49	O	0.866967	-0.437591	0.569067
O50	O	1.116967	-0.187591	0.819067
O51	O	1.366967	0.062409	1.069067
O52	O	1.616967	0.312409	1.319067
O53	O	0.765374	-0.437650	0.438293
O54	O	1.015374	-0.187650	0.688293
O55	O	1.265374	0.062350	0.938293
O56	O	1.515374	0.312350	1.188293
O57	O	0.943964	-0.338530	0.569135
O58	O	1.193964	-0.088530	0.819135
O59	O	1.443964	0.161470	1.069135
O60	O	1.693964	0.411470	1.319135
O61	O	0.943846	-0.568343	0.339324
O62	O	1.193846	-0.318343	0.589324
O63	O	1.443846	-0.068343	0.839324
O64	O	1.693846	0.181657	1.089324
O65	O	0.866900	-0.568338	0.438320
O66	O	1.116900	-0.318338	0.688320
O67	O	1.366900	-0.068338	0.938320
O68	O	1.616900	0.181662	1.188320
C69	C	0.742651	-0.388149	0.388773
C70	C	0.992651	-0.138149	0.638773
C71	C	1.242651	0.111851	0.888773
C72	C	1.492651	0.361851	1.138773
C73	C	0.673010	-0.388186	0.388752
C74	C	0.923010	-0.138186	0.638752
C75	C	1.173010	0.111814	0.888752
C76	C	1.423010	0.361814	1.138752
C77	C	0.640302	-0.439812	0.440232
C78	C	0.890302	-0.189812	0.690232
C79	C	1.140302	0.060188	0.940232
C80	C	1.390302	0.310188	1.190232
C81	C	0.574867	-0.439792	0.440268
C82	C	0.824867	-0.189792	0.690268
C83	C	1.074867	0.060208	0.940268
C84	C	1.324867	0.310208	1.190268
C85	C	0.542142	-0.388155	0.388809
C86	C	0.792142	-0.138155	0.638809
C87	C	1.042142	0.111845	0.888809
C88	C	1.292142	0.361845	1.138809
C89	C	0.574858	-0.336520	0.337325
C90	C	0.824858	-0.086520	0.587325
C91	C	1.074858	0.163480	0.837325
C92	C	1.324858	0.413480	1.087325
C93	C	0.640292	-0.336535	0.337296
C94	C	0.890292	-0.086535	0.587296
C95	C	1.140292	0.163465	0.837296
C96	C	1.390292	0.413465	1.087296
C97	C	0.438424	-0.381673	0.316222
C98	C	0.688424	-0.131673	0.566222
C99	C	0.938424	0.118327	0.816222
C100	C	1.188424	0.368327	1.066222
C101	C	0.372991	-0.381663	0.316249
C102	C	0.622991	-0.131663	0.566249
C103	C	0.872991	0.118337	0.816249
C104	C	1.122991	0.368337	1.066249
C105	C	0.340321	-0.388103	0.388898
C106	C	0.590321	-0.138103	0.638898
C107	C	0.840321	0.111897	0.888898
C108	C	1.090321	0.361897	1.138898
C109	C	0.373092	-0.394570	0.461523
C110	C	0.623092	-0.144570	0.711523
C111	C	0.873092	0.105430	0.961523
C112	C	1.123092	0.355430	1.211523
C113	C	0.438526	-0.394585	0.461494
C114	C	0.688526	-0.144585	0.711494
C115	C	0.938526	0.105415	0.961494
C116	C	1.188526	0.355415	1.211494
C117	C	0.471189	-0.388132	0.388835
C118	C	0.721189	-0.138132	0.638835
C119	C	0.971189	0.111868	0.888835
C120	C	1.221189	0.361868	1.138835
C121	C	0.236660	-0.439710	0.440422
C122	C	0.486660	-0.189710	0.690422
C123	C	0.736660	0.060290	0.940422
C124	C	0.986660	0.310290	1.190422
C125	C	0.171224	-0.439684	0.440459
C126	C	0.421224	-0.189684	0.690459
C127	C	0.671224	0.060316	0.940459
C128	C	0.921224	0.310316	1.190459
C129	C	0.171216	-0.336416	0.337509
C130	C	0.421216	-0.086416	0.587509
C131	C	0.671216	0.163584	0.837509
C132	C	0.921216	0.413584	1.087509
C133	C	0.236651	-0.336437	0.337479
C134	C	0.486651	-0.086437	0.587479
C135	C	0.736651	0.163563	0.837479
C136	C	0.986651	0.413563	1.087479
C137	C	0.269370	-0.388088	0.388934
C138	C	0.519370	-0.138088	0.638934
C139	C	0.769370	0.111912	0.888934
C140	C	1.019370	0.361912	1.138934
C141	C	0.905380	-0.597597	0.388832
C142	C	1.155380	-0.347597	0.638832
C143	C	1.405380	-0.097597	0.888832
C144	C	1.655380	0.152403	1.138832
C145	C	0.905412	-0.687218	0.388845
C146	C	1.155412	-0.437218	0.638845
C147	C	1.405412	-0.187218	0.888845
C148	C	1.655412	0.062782	1.138845
C149	C	0.905521	-1.015394	0.388929
C150	C	1.155521	-0.765394	0.638929
C151	C	1.405521	-0.515394	0.888929
C152	C	1.655521	-0.265394	1.138929
C153	C	0.905488	-0.924085	0.388908
C154	C	1.155488	-0.674085	0.638908
C155	C	1.405488	-0.424085	0.888908
C156	C	1.655488	-0.174085	1.138908
C157	C	0.905466	-0.851309	0.388887
C158	C	1.155466	-0.601309	0.638887
C159	C	1.405466	-0.351309	0.888887
C160	C	1.655466	-0.101309	1.138887
C161	C	0.905434	-0.759995	0.388866
C162	C	1.155434	-0.509995	0.638866
C163	C	1.405434	-0.259995	0.888866
C164	C	1.655434	-0.009995	1.138866
C165	C	1.068862	-0.388064	0.388961
C166	C	1.318862	-0.138064	0.638961
C167	C	1.568862	0.111936	0.888961
C168	C	1.818862	0.361936	1.138961
C169	C	1.138503	-0.388046	0.389001
C170	C	1.388503	-0.138046	0.639001
C171	C	1.638503	0.111954	0.889001
C172	C	1.888503	0.361954	1.139001
C173	C	0.905470	-0.388053	0.599175
C174	C	1.155470	-0.138053	0.849175
C175	C	1.405470	0.111947	1.099175
C176	C	1.655470	0.361947	1.349175
C177	C	0.905483	-0.388030	0.688796
C178	C	1.155483	-0.138030	0.938796
C179	C	1.405483	0.111970	1.188796
C180	C	1.655483	0.361970	1.438796
C181	C	0.905515	-0.177797	0.388918
C182	C	1.155515	0.072203	0.638918
C183	C	1.405515	0.322203	0.888918
C184	C	1.655515	0.572203	1.138918
C185	C	0.905548	-0.088176	0.388940
C186	C	1.155548	0.161824	0.638940
C187	C	1.405548	0.411824	0.888940
C188	C	1.655548	0.661824	1.138940
C189	C	0.905444	-0.388101	0.179375
C190	C	1.155444	-0.138101	0.429375
C191	C	1.405444	0.111899	0.679375
C192	C	1.655444	0.361899	0.929375
C193	C	0.905553	-0.387896	0.089755
C194	C	1.155553	-0.137896	0.339755
C195	C	1.405553	0.112104	0.589755
C196	C	1.655553	0.362104	0.839755
C197	C	0.905493	-0.388012	0.761579
C198	C	1.155493	-0.138012	1.011579
C199	C	1.405493	0.111988	1.261579
C200	C	1.655493	0.361988	1.511579
C201	C	0.905508	-0.387982	0.852887
C202	C	1.155508	-0.137982	1.102887
C203	C	1.405508	0.112018	1.352887
C204	C	1.655508	0.362018	1.602887
C205	C	0.905522	-0.387954	0.925664
C206	C	1.155522	-0.137954	1.175664
C207	C	1.405522	0.112046	1.425664
C208	C	1.655522	0.362046	1.675664
C209	C	0.905538	-0.387925	1.016978
C210	C	1.155538	-0.137925	1.266978
C211	C	1.405538	0.112075	1.516978
C212	C	1.655538	0.362075	1.766978
H213	H	0.144594	-0.481723	0.482386
H214	H	0.394594	-0.231723	0.732386
H215	H	0.644594	0.018277	0.982386
H216	H	0.894594	0.268277	1.232386
C217	C	0.676275	-0.279749	0.280664
C218	C	0.926275	-0.029749	0.530664
C219	C	1.176275	0.220251	0.780664
C220	C	1.426275	0.470251	1.030664
H221	H	0.719931	-0.287152	0.288020
H222	H	0.969931	-0.037152	0.538020
H223	H	1.219931	0.212848	0.788020
H224	H	1.469931	0.462848	1.038020
H225	H	0.665501	-0.291472	0.226472
H226	H	0.915501	-0.041472	0.476472
H227	H	1.165501	0.208528	0.726472
H228	H	1.415501	0.458528	0.976472
H229	H	0.665598	-0.225583	0.292575
H230	H	0.915598	0.024417	0.542575
H231	H	1.165598	0.274417	0.792575
H232	H	1.415598	0.524417	1.042575
C233	C	0.538866	-0.279719	0.280721
C234	C	0.788866	-0.029719	0.530721
C235	C	1.038866	0.220281	0.780721
C236	C	1.288866	0.470281	1.030721
H237	H	0.567720	-0.248969	0.250060
H238	H	0.817720	0.001031	0.500060
H239	H	1.067720	0.251031	0.750060
H240	H	1.317720	0.501031	1.000060
H241	H	0.513293	-0.310508	0.245543
H242	H	0.763293	-0.060508	0.495543
H243	H	1.013293	0.189492	0.745543
H244	H	1.263293	0.439492	0.995543
H245	H	0.513387	-0.244620	0.311646
H246	H	0.763387	0.005380	0.561646
H247	H	1.013387	0.255380	0.811646
H248	H	1.263387	0.505380	1.061646
C249	C	0.336945	-0.374606	0.236364
C250	C	0.586945	-0.124606	0.486364
C251	C	0.836945	0.125394	0.736364
C252	C	1.086945	0.375394	0.986364
H253	H	0.293296	-0.375547	0.246783
H254	H	0.543296	-0.125547	0.496783
H255	H	0.793296	0.124453	0.746783
H256	H	1.043296	0.374453	0.996783
H257	H	0.347664	-0.325501	0.210632
H258	H	0.597664	-0.075501	0.460632
H259	H	0.847664	0.174499	0.710632
H260	H	1.097664	0.424499	0.960632
H261	H	0.347632	-0.418449	0.202396
H262	H	0.597632	-0.168449	0.452396
H263	H	0.847632	0.081551	0.702396
H264	H	1.097632	0.331551	0.952396
H265	H	0.666937	-0.481869	0.482132
H266	H	0.916937	-0.231869	0.732132
H267	H	1.166937	0.018131	0.982132
H268	H	1.416937	0.268131	1.232132
H269	H	0.465018	-0.376425	0.257058
H270	H	0.715018	-0.126425	0.507058
H271	H	0.965018	0.123575	0.757058
H272	H	1.215018	0.373575	1.007058
H273	H	0.263301	-0.481763	0.482324
H274	H	0.513301	-0.231763	0.732324
H275	H	0.763301	0.018237	0.982324
H276	H	1.013301	0.268237	1.232324
H277	H	0.548231	-0.481832	0.482193
H278	H	0.798231	-0.231832	0.732193
H279	H	1.048231	0.018168	0.982193
H280	H	1.298231	0.268168	1.232193
H281	H	0.465206	-0.399848	0.520627
H282	H	0.715206	-0.149848	0.770627
H283	H	0.965206	0.100152	1.020627
H284	H	1.215206	0.350152	1.270627
H285	H	0.346494	-0.399812	0.520681
H286	H	0.596494	-0.149812	0.770681
H287	H	0.846494	0.100188	1.020681
H288	H	1.096494	0.350188	1.270681
H289	H	0.144572	-0.294368	0.295614
H290	H	0.394572	-0.044368	0.545614
H291	H	0.644572	0.205632	0.795614
H292	H	0.894572	0.455632	1.045614
H293	H	0.263283	-0.294402	0.295554
H294	H	0.513283	-0.044402	0.545554
H295	H	0.763283	0.205598	0.795554
H296	H	1.013283	0.455598	1.045554
