data_functionalizedCrystal
_audit_creation_method	'MofGen! by Chris Wilmer'
_symmetry_space_group_name_H-M	'P1'
_symmetry_Int_Tables_number	1
_symmetry_cell_setting	triclinic
loop_
_symmetry_equiv_pos_as_xyz
  x,y,z
_cell_length_a	14.519731
_cell_length_b	14.519709
_cell_length_c	7.088929
_cell_angle_alpha	96.236165
_cell_angle_beta	83.784327
_cell_angle_gamma	83.684499
loop_
_atom_site_label
_atom_site_type_symbol
_atom_site_fract_x
_atom_site_fract_y
_atom_site_fract_z
O1	O	1.214403	0.130449	0.158997
O2	O	0.945929	0.144666	0.159000
O3	O	1.087285	0.003318	0.158981
O4	O	1.073047	0.271796	0.159016
O5	O	1.106176	-0.015614	-0.158996
O6	O	0.964820	0.125733	-0.158977
O7	O	1.233294	0.111517	-0.158981
Cu8	Cu	1.100782	0.116896	-0.188013
Cu9	Cu	1.078441	0.139286	0.188033
O10	O	1.091938	0.252864	-0.158962
C11	C	0.921015	0.134533	0.000012
C12	C	0.818635	0.132537	0.000013
C13	C	0.735490	0.130916	0.000020
C14	C	0.631181	0.128889	0.000021
C15	C	0.548042	0.127281	0.000020
C16	C	0.443727	0.125255	0.000024
C17	C	1.096067	-0.040508	-0.000008
C18	C	1.094079	-0.142889	-0.000009
C19	C	1.086757	-0.517782	0.000041
C20	C	1.088790	-0.413475	0.000027
C21	C	1.090418	-0.330339	0.000014
C22	C	1.092452	-0.226025	0.000003
C23	C	1.258208	0.121649	0.000012
C24	C	1.360588	0.123646	0.000024
C25	C	1.083156	0.296690	0.000032
C26	C	1.085143	0.399072	0.000045
N27	N	1.116502	0.101148	-0.452503
N28	N	1.062729	0.155027	0.452523
H29	H	1.006999	0.210861	-0.465824
C30	C	1.191800	0.025717	-0.562822
N31	N	1.248512	-0.031098	-0.645916
