data_functionalizedCrystal
_audit_creation_method	'MofGen! by Chris Wilmer'
_symmetry_space_group_name_H-M	'P1'
_symmetry_Int_Tables_number	1
_symmetry_cell_setting	triclinic
loop_
_symmetry_equiv_pos_as_xyz
  x,y,z
_cell_length_a	14.044220
_cell_length_b	15.944551
_cell_length_c	12.503572
_cell_angle_alpha	93.522593
_cell_angle_beta	86.164750
_cell_angle_gamma	88.343808
loop_
_atom_site_label
_atom_site_type_symbol
_atom_site_fract_x
_atom_site_fract_y
_atom_site_fract_z
O1	O	1.263178	0.198062	-0.089210
O2	O	0.987210	0.190753	-0.089237
O3	O	1.132730	0.072697	-0.089213
O4	O	1.117659	0.316117	-0.089234
O5	O	1.121786	0.081592	0.089427
O6	O	0.976267	0.199647	0.089403
O7	O	1.252235	0.206956	0.089430
Cu8	Cu	1.113251	0.204114	0.105728
Cu9	Cu	1.126194	0.193595	-0.105535
O10	O	1.106715	0.325012	0.089406
C11	C	0.946424	0.192001	0.000079
C12	C	0.841198	0.182459	0.000069
C13	C	0.648534	0.165017	0.000092
C14	C	0.590906	0.232688	0.000091
C15	C	0.483701	0.222983	0.000104
C16	C	0.755749	0.174721	0.000079
C17	C	1.126632	0.045804	0.000107
C18	C	1.124756	-0.047583	0.000107
C19	C	1.030073	-0.269530	0.000083
C20	C	1.068645	-0.322870	0.088168
C21	C	1.121363	-0.218563	0.000099
C22	C	1.079457	-0.331621	-0.087957
C23	C	1.118079	-0.383722	0.000086
C24	C	1.159956	-0.270669	0.088256
C25	C	1.170759	-0.279418	-0.087948
C26	C	1.209396	-0.332734	0.000158
C27	C	1.123252	-0.123419	0.000107
C28	C	1.116197	-0.478865	0.000085
C29	C	1.293021	0.205708	0.000111
C30	C	1.398247	0.215249	0.000114
C31	C	1.112813	0.351905	0.000083
C32	C	1.114689	0.445291	0.000076
N33	N	1.104155	0.211512	0.254318
N34	N	1.135297	0.186191	-0.254126
C35	C	1.090774	0.222403	0.473431
C36	C	1.148675	0.175303	0.526768
C37	C	1.141230	0.181362	0.648690
C38	C	1.098218	0.216344	0.351498
H39	H	0.617360	0.099799	0.000104
H40	H	1.203838	0.130429	0.480864
C41	C	0.694752	0.325850	-0.091806
C42	C	0.632975	0.320742	0.000046
H43	H	0.720719	0.380212	-0.091843
H44	H	0.744998	0.284679	-0.091789
H45	H	0.660427	0.316136	-0.154081
H46	H	0.667302	0.330450	0.062322
H47	H	0.582721	0.361926	0.000038
H48	H	1.035617	0.267275	0.519330
H49	H	0.954293	-0.241893	0.000164
C50	C	0.933759	-0.396831	0.157448
C51	C	1.010366	-0.348922	0.188685
H52	H	0.897781	-0.412915	0.219501
H53	H	0.894066	-0.364382	0.115985
H54	H	0.957480	-0.445695	0.115685
H55	H	0.986645	-0.300055	0.230441
H56	H	1.050066	-0.381372	0.230165
C57	C	1.207163	-0.147045	0.188021
C58	C	1.205867	-0.234779	0.188903
H59	H	1.235498	-0.124889	0.250160
H60	H	1.243200	-0.131854	0.125563
H61	H	1.143664	-0.124892	0.187759
H62	H	1.269367	-0.256933	0.189156
H63	H	1.169830	-0.249977	0.251377
C64	C	1.331965	-0.423324	-0.092061
C65	C	1.311787	-0.369807	0.000205
H66	H	1.395181	-0.446199	-0.092036
H67	H	1.288159	-0.467608	-0.092670
H68	H	1.326253	-0.392455	-0.154051
H69	H	1.317491	-0.400679	0.062195
H70	H	1.355604	-0.325518	0.000823
C71	C	1.186699	-0.284137	-0.280625
C72	C	1.228997	-0.253337	-0.188470
H73	H	1.222645	-0.268028	-0.342687
H74	H	1.185454	-0.343711	-0.281705
H75	H	1.123314	-0.261548	-0.279987
H76	H	1.292380	-0.275931	-0.189104
H77	H	1.230252	-0.193751	-0.187390
H78	H	1.045395	-0.358298	-0.162431
