data_functionalizedCrystal
_audit_creation_method	'MofGen! by Chris Wilmer'
_symmetry_space_group_name_H-M	'P1'
_symmetry_Int_Tables_number	1
_symmetry_cell_setting	triclinic
loop_
_symmetry_equiv_pos_as_xyz
  x,y,z
_cell_length_a	12.594517
_cell_length_b	12.594516
_cell_length_c	13.032268
_cell_angle_alpha	97.151307
_cell_angle_beta	97.162024
_cell_angle_gamma	90.011616
loop_
_atom_site_label
_atom_site_type_symbol
_atom_site_fract_x
_atom_site_fract_y
_atom_site_fract_z
Zn1	Zn	1.550828	-0.500141	-0.590891
Zn2	Zn	1.573345	-0.655551	-0.416158
Zn3	Zn	1.395445	-0.477587	-0.416164
Zn4	Zn	1.372834	-0.678071	-0.590845
O5	O	1.473113	-0.577838	-0.503515
O6	O	1.702759	-0.520770	-0.567729
O7	O	1.568633	-0.613081	-0.269928
O8	O	1.416096	-0.331636	-0.439364
O9	O	1.719302	-0.634950	-0.439354
O10	O	1.530256	-0.348206	-0.567735
O11	O	1.437930	-0.482331	-0.269933
O12	O	1.243502	-0.504168	-0.439319
O13	O	1.377559	-0.673332	-0.737081
O14	O	1.226890	-0.651462	-0.567656
O15	O	1.508331	-0.542607	-0.737116
O16	O	1.546708	-0.807482	-0.439309
O17	O	1.399393	-0.824027	-0.567650
C18	C	1.196576	-0.577812	-0.503484
C19	C	1.078269	-0.577830	-0.503495
C20	C	1.473066	-0.854376	-0.503496
C21	C	1.473139	-0.972685	-0.503524
C22	C	1.018003	-0.497637	-0.433826
C23	C	0.950526	-0.591401	-0.408124
C24	C	0.934945	-0.484116	-0.529215
C25	C	1.012356	-0.671639	-0.477743
C26	C	0.996777	-0.564294	-0.598879
C27	C	0.929326	-0.658130	-0.573213
C28	C	1.553336	-1.032910	-0.433793
C29	C	1.567004	-1.115943	-0.529172
C30	C	1.459597	-1.100459	-0.408206
C31	C	1.486849	-1.054166	-0.598952
C32	C	1.379406	-1.038668	-0.477922
C33	C	1.393027	-1.121677	-0.573366
C34	C	1.750730	-0.577864	-0.503546
C35	C	1.869034	-0.577875	-0.503559
C36	C	1.437911	-0.612997	-0.776075
C37	C	1.422910	-0.627980	-0.892224
C38	C	1.473186	-0.300222	-0.503556
C39	C	1.473217	-0.181919	-0.503573
C40	C	1.480926	-0.569980	-0.944023
C41	C	1.465423	-0.585464	-1.064069
C42	C	1.508239	-0.542738	-0.232015
C43	C	1.523446	-0.527456	-0.115866
H44	H	1.056654	-0.429870	-0.374836
H45	H	1.448109	-1.121201	-0.327576
Cl46	Cl	1.328496	-0.722341	-0.960959
Cl47	Cl	1.504745	-1.022357	-0.723471
Cl48	Cl	1.257008	-0.986385	-0.444407
Cl49	Cl	0.882615	-0.361730	-0.562759
Cl50	Cl	1.064490	-0.794047	-0.444052
Cl51	Cl	1.617875	-0.433098	-1.047138
Cl52	Cl	1.371004	-0.679829	-1.132801
Cl53	Cl	1.575308	-0.475586	-0.875288
H54	H	1.621160	-0.994240	-0.374878
H55	H	1.646304	-1.149782	-0.550854
Cl56	Cl	1.288357	-1.181113	-0.664543
H57	H	0.890877	-0.726035	-0.632158
Cl58	Cl	1.028813	-0.546526	-0.723342
H59	H	0.929804	-0.602879	-0.327487
