data_functionalizedCrystal
_audit_creation_method	'MofGen! by Chris Wilmer'
_symmetry_space_group_name_H-M	'P1'
_symmetry_Int_Tables_number	1
_symmetry_cell_setting	triclinic
loop_
_symmetry_equiv_pos_as_xyz
  x,y,z
_cell_length_a	27.732064
_cell_length_b	27.732048
_cell_length_c	16.098538
_cell_angle_alpha	92.695138
_cell_angle_beta	87.291500
_cell_angle_gamma	82.646040
loop_
_atom_site_label
_atom_site_type_symbol
_atom_site_fract_x
_atom_site_fract_y
_atom_site_fract_z
O1	O	0.643098	0.055383	-0.069116
O2	O	1.143098	0.555383	0.430884
O3	O	0.502307	0.064119	-0.069151
O4	O	1.002307	0.564119	0.430849
O5	O	0.577075	-0.010645	-0.069116
O6	O	1.077075	0.489355	0.430884
O7	O	0.568330	0.130147	-0.069150
O8	O	1.068330	0.630147	0.430850
O9	O	0.572707	-0.006294	0.069394
O10	O	1.072707	0.493706	0.569394
O11	O	0.497939	0.068470	0.069360
O12	O	0.997939	0.568470	0.569360
O13	O	0.638731	0.059734	0.069395
O14	O	1.138731	0.559734	0.569395
Zn15	Zn	0.567642	0.064792	0.091369
Zn16	Zn	1.067642	0.564792	0.591369
Zn17	Zn	0.573396	0.059061	-0.091125
Zn18	Zn	1.073396	0.559061	0.408875
O19	O	0.563963	0.134498	0.069360
O20	O	1.063963	0.634498	0.569360
C21	C	0.482116	0.066110	0.000100
C22	C	0.982116	0.566110	0.500100
C23	C	0.428462	0.065553	0.000087
C24	C	0.928462	0.565553	0.500087
C25	C	0.574707	-0.026476	0.000141
C26	C	1.074707	0.473524	0.500141
C27	C	0.574154	-0.080131	0.000148
C28	C	1.074154	0.419869	0.500148
C29	C	0.051388	0.017588	0.000146
C30	C	0.551388	0.517588	0.500146
C31	C	0.253049	0.019633	0.000124
C32	C	0.753049	0.519633	0.500124
O33	O	0.284300	-0.017586	0.000164
O34	O	0.784300	0.482414	0.500164
N35	N	0.272177	0.063967	0.000109
N36	N	0.772177	0.563967	0.500109
C37	C	0.240886	0.107793	0.000106
C38	C	0.740886	0.607793	0.500106
O39	O	0.261782	0.145549	0.000102
O40	O	0.761782	0.645549	0.500102
C41	C	0.039226	0.105747	0.000134
C42	C	0.539226	0.605747	0.500134
C43	C	0.020101	0.061410	0.000140
C44	C	0.520101	0.561410	0.500140
C45	C	0.032263	-0.026745	0.000153
C46	C	0.532263	0.473255	0.500153
C47	C	-0.018150	-0.027256	0.000154
C48	C	0.481850	0.472744	0.500154
C49	C	-0.049436	0.016566	0.000148
C50	C	0.450564	0.516566	0.500148
C51	C	-0.030311	0.060899	0.000141
C52	C	0.469689	0.560899	0.500141
C53	C	0.007935	0.149573	0.000137
C54	C	0.507935	0.649573	0.500137
C55	C	-0.042482	0.149057	0.000146
C56	C	0.457518	0.649057	0.500146
C57	C	-0.061607	0.104720	0.000152
C58	C	0.438393	0.604720	0.500152
C59	C	-0.112010	0.104210	0.000136
C60	C	0.387990	0.604210	0.500136
N61	N	-0.131138	0.059877	0.000151
N62	N	0.368862	0.559877	0.500151
C63	C	-0.099851	0.016054	0.000157
C64	C	0.400149	0.516054	0.500157
C65	C	0.346761	0.108864	0.000090
C66	C	0.846761	0.608864	0.500090
C67	C	0.397176	0.109376	0.000081
C68	C	0.897176	0.609376	0.500081
C69	C	0.409335	0.021216	0.000101
C70	C	0.909335	0.521216	0.500101
C71	C	0.358919	0.020705	0.000103
C72	C	0.858919	0.520705	0.500103
C73	C	0.327633	0.064530	0.000104
C74	C	0.827633	0.564530	0.500104
C75	C	-0.205721	0.014984	0.000158
C76	C	0.294279	0.514984	0.500158
C77	C	-0.256138	0.014477	0.000155
C78	C	0.243862	0.514477	0.500155
C79	C	-0.268293	0.102637	0.000141
C80	C	0.231707	0.602637	0.500141
C81	C	-0.217880	0.103144	0.000139
C82	C	0.282120	0.603144	0.500139
C83	C	-0.186595	0.059314	0.000150
C84	C	0.313405	0.559314	0.500150
O85	O	-0.143290	0.141411	0.000106
O86	O	0.356710	0.641411	0.500106
O87	O	-0.120758	-0.021695	0.000179
O88	O	0.379242	0.478305	0.500179
C89	C	0.101800	0.018099	0.000145
C90	C	0.601800	0.518099	0.500145
C91	C	0.120925	0.062432	0.000138
C92	C	0.620925	0.562432	0.500138
C93	C	0.089638	0.106255	0.000132
C94	C	0.589638	0.606255	0.500132
C95	C	0.171340	0.062944	0.000130
C96	C	0.671340	0.562944	0.500130
C97	C	0.202627	0.019122	0.000136
C98	C	0.702627	0.519122	0.500136
C99	C	0.183499	-0.025212	0.000150
C100	C	0.683499	0.474788	0.500150
C101	C	0.133087	-0.025723	0.000151
C102	C	0.633087	0.474277	0.500151
C103	C	0.108766	0.150588	0.000118
C104	C	0.608766	0.650588	0.500118
C105	C	0.159179	0.151096	0.000116
C106	C	0.659179	0.651096	0.500116
C107	C	0.190466	0.107274	0.000122
C108	C	0.690466	0.607274	0.500122
C109	C	0.614859	-0.418945	0.000115
C110	C	1.114859	0.081055	0.500115
C111	C	0.612808	-0.620605	0.000103
C112	C	1.112808	-0.120605	0.500103
O113	O	0.650029	-0.651859	0.000076
O114	O	1.150029	-0.151859	0.500076
N115	N	0.568474	-0.639732	0.000093
N116	N	1.068474	-0.139732	0.500093
C117	C	0.524649	-0.608440	0.000080
C118	C	1.024649	-0.108440	0.500080
O119	O	0.486893	-0.629336	0.000062
O120	O	0.986893	-0.129336	0.500062
C121	C	0.526700	-0.406781	0.000086
C122	C	1.026700	0.093219	0.500086
C123	C	0.571037	-0.387657	0.000105
C124	C	1.071037	0.112343	0.500105
C125	C	0.659192	-0.399820	0.000133
C126	C	1.159192	0.100180	0.500133
C127	C	0.659704	-0.349408	0.000141
C128	C	1.159704	0.150592	0.500141
C129	C	0.615883	-0.318120	0.000131
C130	C	1.115883	0.181880	0.500131
C131	C	0.571549	-0.337245	0.000113
C132	C	1.071549	0.162755	0.500113
C133	C	0.482876	-0.375491	0.000067
C134	C	0.982876	0.124509	0.500067
C135	C	0.483393	-0.325073	0.000067
C136	C	0.983393	0.174927	0.500067
C137	C	0.527730	-0.305949	0.000086
C138	C	1.027730	0.194051	0.500086
C139	C	0.528240	-0.255545	0.000110
C140	C	1.028240	0.244455	0.500110
N141	N	0.572574	-0.236418	0.000120
N142	N	1.072574	0.263582	0.500120
C143	C	0.616396	-0.267706	0.000131
C144	C	1.116396	0.232294	0.500131
C145	C	0.523575	-0.714314	0.000078
C146	C	1.023575	-0.214314	0.500078
C147	C	0.523062	-0.764729	0.000078
C148	C	1.023062	-0.264729	0.500078
C149	C	0.611221	-0.776890	0.000100
C150	C	1.111221	-0.276890	0.500100
C151	C	0.611734	-0.726475	0.000106
C152	C	1.111734	-0.226475	0.500106
C153	C	0.567909	-0.695187	0.000089
C154	C	1.067909	-0.195187	0.500089
C155	C	0.617468	-0.161836	0.000147
C156	C	1.117468	0.338164	0.500147
C157	C	0.617976	-0.111419	0.000158
C158	C	1.117976	0.388581	0.500158
C159	C	0.529817	-0.099262	0.000132
C160	C	1.029817	0.400738	0.500132
C161	C	0.529308	-0.149675	0.000126
C162	C	1.029308	0.350325	0.500126
C163	C	0.573138	-0.180961	0.000130
C164	C	1.073138	0.319039	0.500130
O165	O	0.491039	-0.224263	0.000128
O166	O	0.991039	0.275737	0.500128
O167	O	0.654147	-0.246801	0.000130
O168	O	1.154147	0.253199	0.500130
C169	C	0.614347	-0.469357	0.000108
C170	C	1.114347	0.030643	0.500108
C171	C	0.570013	-0.488481	0.000090
C172	C	1.070013	0.011519	0.500090
C173	C	0.526192	-0.457194	0.000080
C174	C	1.026192	0.042806	0.500080
C175	C	0.569500	-0.538896	0.000090
C176	C	1.069500	-0.038896	0.500090
C177	C	0.613322	-0.570184	0.000100
C178	C	1.113322	-0.070184	0.500100
C179	C	0.657656	-0.551057	0.000111
C180	C	1.157656	-0.051057	0.500111
C181	C	0.658168	-0.500645	0.000118
C182	C	1.158168	-0.000645	0.500118
C183	C	0.481857	-0.476320	0.000069
C184	C	0.981857	0.023680	0.500069
C185	C	0.481349	-0.526733	0.000063
C186	C	0.981349	-0.026733	0.500063
C187	C	0.525170	-0.558021	0.000073
C188	C	1.025170	-0.058021	0.500073
C189	C	0.658921	0.057743	0.000142
C190	C	1.158921	0.557743	0.500142
C191	C	0.712575	0.058299	0.000150
C192	C	1.212575	0.558299	0.500150
C193	C	0.566330	0.150329	0.000101
C194	C	1.066330	0.650329	0.500101
C195	C	0.566883	0.203984	0.000089
C196	C	1.066883	0.703984	0.500089
N197	N	0.563718	0.068704	0.215916
N198	N	1.063718	0.568704	0.715916
N199	N	0.577323	0.055145	-0.215672
N200	N	1.077323	0.555145	0.284328
C201	C	0.595464	0.036982	0.259516
C202	C	1.095464	0.536982	0.759516
C203	C	0.592723	0.039723	0.346704
C204	C	1.092723	0.539723	0.846704
C205	C	0.558239	0.074188	0.390290
C206	C	1.058239	0.574188	0.890290
C207	C	0.526490	0.105911	0.346684
C208	C	1.026490	0.605911	0.846684
C209	C	0.529228	0.103168	0.259498
C210	C	1.029228	0.603168	0.759498
C211	C	0.548312	0.084125	0.653536
C212	C	1.048312	0.584125	1.153536
C213	C	0.545577	0.086867	0.740728
C214	C	1.045577	0.586867	1.240728
C215	C	0.611811	0.020678	0.740741
C216	C	1.111811	0.520678	1.240741
C217	C	0.614548	0.017939	0.653554
C218	C	1.114548	0.517939	1.153554
C219	C	0.582797	0.049661	0.609955
C220	C	1.082797	0.549661	1.109955
C221	C	0.555438	0.076991	0.479410
C222	C	1.055438	0.576991	0.979410
C223	C	0.585596	0.046855	0.520837
C224	C	1.085596	0.546855	1.020837
H225	H	-0.271706	-0.021629	0.000158
H226	H	0.228294	0.478371	0.500158
C227	C	0.627635	0.004815	0.394660
C228	C	1.127635	0.504815	0.894660
N229	N	0.653928	-0.021484	0.430780
N230	N	1.153928	0.478516	0.930780
C231	C	0.666752	-0.090386	0.000177
C232	C	1.166752	0.409614	0.500177
N233	N	0.703490	-0.074546	0.000188
N234	N	1.203490	0.425454	0.500188
H235	H	0.517495	0.114935	0.776212
H236	H	1.017495	0.614935	1.276212
C237	C	0.633399	-0.000933	0.211579
C238	C	1.133399	0.499067	0.711579
N239	N	0.661972	-0.029493	0.175476
N240	N	1.161972	0.470507	0.675476
C241	C	0.708479	-0.328379	0.000153
C242	C	1.208479	0.171621	0.500153
N243	N	0.745219	-0.312544	0.000158
N244	N	1.245219	0.187456	0.500158
C245	C	-0.171314	-0.033231	0.000164
C246	C	0.328686	0.466769	0.500164
N247	N	-0.145398	-0.069547	0.000163
N248	N	0.354602	0.430453	0.500163
H249	H	-0.293776	0.138315	0.000132
H250	H	0.206224	0.638315	0.500132
C251	C	0.066671	-0.074958	0.000156
C252	C	0.566671	0.425042	0.500156
N253	N	0.092586	-0.111275	0.000151
N254	N	0.592586	0.388725	0.500151
C255	C	0.652481	-0.019978	0.605615
C256	C	1.152481	0.480022	1.105615
N257	N	0.681053	-0.048537	0.569508
N258	N	1.181053	0.451463	1.069508
H259	H	-0.202309	0.139247	0.000133
H260	H	0.297691	0.639247	0.500133
C261	C	0.217924	-0.073417	0.000161
C262	C	0.717924	0.426583	0.500161
N263	N	0.243855	-0.109722	0.000176
N264	N	0.743855	0.390278	0.500176
C265	C	0.513447	0.119082	0.605589
C266	C	1.013447	0.619082	1.105589
N267	N	0.487208	0.145436	0.569472
N268	N	0.987208	0.645436	1.069472
H269	H	0.321291	0.144554	0.000089
H270	H	0.821291	0.644554	0.500089
C271	C	0.180209	0.199874	0.000113
C272	C	0.680209	0.699874	0.500113
N273	N	0.196047	0.236612	0.000120
N274	N	0.696047	0.736612	0.500120
H275	H	0.613671	0.018791	0.485347
H276	H	1.113671	0.518791	0.985347
H277	H	0.446772	-0.391052	0.000047
H278	H	0.946772	0.108948	0.500047
H279	H	0.434818	-0.014466	0.000102
H280	H	0.934818	0.485534	0.500102
C281	C	-0.076895	0.197270	0.000145
C282	C	0.423105	0.697270	0.500145
N283	N	-0.102814	0.233584	0.000140
N284	N	0.397186	0.733584	0.500140
H285	H	0.117521	-0.061827	0.000156
H286	H	0.617521	0.438173	0.500156
C287	C	0.418207	0.158149	0.000068
C288	C	0.918207	0.658149	0.500068
N289	N	0.434045	0.194888	0.000064
N290	N	0.934045	0.694888	0.500064
C291	C	0.433647	-0.441910	0.000056
C292	C	0.933647	0.058090	0.500056
N293	N	0.397332	-0.415994	0.000050
N294	N	0.897332	0.084006	0.500050
C295	C	-0.039180	-0.076030	0.000181
C296	C	0.460820	0.423970	0.500181
N297	N	-0.055017	-0.112769	0.000209
N298	N	0.444983	0.387231	0.500209
H299	H	0.498410	0.133972	0.382177
H300	H	0.998410	0.633972	0.882177
H301	H	0.637660	-0.005149	0.776247
H302	H	1.137660	0.494851	1.276247
H303	H	0.653158	-0.187304	0.000148
H304	H	1.153158	0.312696	0.500148
H305	H	0.694272	-0.485079	0.000133
H306	H	1.194272	0.014921	0.500133
H307	H	0.647837	-0.710908	0.000121
H308	H	1.147837	-0.210908	0.500121
H309	H	0.343352	-0.015398	0.000109
H310	H	0.843352	0.484602	0.500109
H311	H	0.693337	-0.576540	0.000123
H312	H	1.193337	-0.076540	0.500123
H313	H	0.023497	0.185676	0.000128
H314	H	0.523497	0.685676	0.500128
C315	C	0.494309	0.138068	0.211539
C316	C	0.994309	0.638068	0.711539
N317	N	0.468007	0.164356	0.175417
N318	N	0.968007	0.664356	0.675417
C319	C	0.074357	0.198799	0.000116
C320	C	0.574357	0.698799	0.500116
N321	N	0.048441	0.235115	0.000113
N322	N	0.548441	0.735115	0.500113
C323	C	0.707404	-0.434230	0.000154
C324	C	1.207404	0.065770	0.500154
N325	N	0.743719	-0.460144	0.000178
N326	N	1.243719	0.039856	0.500178
C327	C	0.475361	-0.679904	0.000060
C328	C	0.975361	-0.179904	0.500060
N329	N	0.439046	-0.653988	0.000049
N330	N	0.939046	-0.153988	0.500049
C331	C	0.435181	-0.290660	0.000051
C332	C	0.935181	0.209340	0.500051
N333	N	0.398868	-0.264741	0.000042
N334	N	0.898868	0.235259	0.500042
C335	C	0.480535	-0.170711	0.000110
C336	C	0.980535	0.329289	0.500110
N337	N	0.443799	-0.186553	0.000090
N338	N	0.943799	0.313447	0.500090
H339	H	0.646903	-0.802373	0.000109
H340	H	1.146903	-0.302373	0.500109
H341	H	0.494138	-0.073778	0.000127
H342	H	0.994138	0.426222	0.500127
C343	C	0.432571	-0.547763	0.000043
C344	C	0.932571	-0.047763	0.500043
N345	N	0.395832	-0.563601	0.000020
N346	N	0.895832	-0.063601	0.500020
H347	H	0.486958	-0.780294	0.000078
H348	H	0.986958	-0.280294	0.500078
H349	H	0.527361	0.105054	0.514905
H350	H	1.027361	0.605054	1.014905
