data_functionalizedCrystal
_audit_creation_method	'MofGen! by Chris Wilmer'
_symmetry_space_group_name_H-M	'P1'
_symmetry_Int_Tables_number	1
_symmetry_cell_setting	triclinic
loop_
_symmetry_equiv_pos_as_xyz
  x,y,z
_cell_length_a	10.489741
_cell_length_b	16.974800
_cell_length_c	16.053802
_cell_angle_alpha	91.074188
_cell_angle_beta	92.592148
_cell_angle_gamma	83.963381
loop_
_atom_site_label
_atom_site_type_symbol
_atom_site_fract_x
_atom_site_fract_y
_atom_site_fract_z
O1	O	0.162593	1.050000	0.001544
O2	O	0.662593	1.550000	0.501544
O3	O	0.182119	0.820649	-0.013960
O4	O	0.682119	1.320649	0.486040
O5	O	-0.013302	0.940543	-0.005850
O6	O	0.486698	1.440543	0.494150
O7	O	0.358013	0.930106	-0.006566
O8	O	0.858013	1.430106	0.493434
O9	O	-0.002590	0.933944	0.132562
O10	O	0.497410	1.433944	0.632562
O11	O	0.192831	0.814050	0.124452
O12	O	0.692831	1.314050	0.624452
O13	O	0.173305	1.043401	0.139957
O14	O	0.673305	1.543401	0.639957
Zn15	Zn	0.184769	0.927677	0.154181
Zn16	Zn	0.684769	1.427677	0.654181
Zn17	Zn	0.170655	0.936373	-0.028184
Zn18	Zn	0.670655	1.436373	0.471816
O19	O	0.368725	0.923507	0.131847
O20	O	0.868725	1.423507	0.631847
C21	C	0.186536	0.787981	0.053261
C22	C	0.686536	1.287981	0.553261
C23	C	0.183723	0.700473	0.047345
C24	C	0.683723	1.200473	0.547345
C25	C	0.188238	0.655768	0.120017
C26	C	0.688238	1.155768	0.620017
C27	C	0.185575	0.573546	0.114461
C28	C	0.685575	1.073546	0.614461
C29	C	0.178406	0.536029	0.036233
C30	C	0.678406	1.036029	0.536233
C31	C	0.173888	0.580740	-0.036444
C32	C	0.673888	1.080740	0.463556
C33	C	0.176541	0.662961	-0.030887
C34	C	0.676541	1.162961	0.469113
C35	C	0.169835	0.290510	0.011524
C36	C	0.669835	0.790510	0.511524
C37	C	0.167185	0.208282	0.005972
C38	C	0.667185	0.708282	0.505972
C39	C	0.178870	0.201094	0.156878
C40	C	0.678870	0.701094	0.656878
C41	C	0.181531	0.283317	0.162428
C42	C	0.681531	0.783317	0.662428
C43	C	0.177006	0.328021	0.089751
C44	C	0.677006	0.828021	0.589751
N45	N	0.175688	0.451984	0.030552
N46	N	0.675688	0.951984	0.530552
N47	N	0.179714	0.412065	0.095433
N48	N	0.679714	0.912065	0.595433
C49	C	-0.055468	0.936455	0.063302
C50	C	0.444532	1.436455	0.563302
C51	C	-0.197071	0.934097	0.063141
C52	C	0.302929	1.434097	0.563141
C53	C	-0.264336	0.857812	0.057978
C54	C	0.235664	1.357812	0.557978
C55	C	-0.351590	0.890594	0.128659
C56	C	0.148410	1.390594	0.628659
C57	C	-0.362126	0.897119	-0.007804
C58	C	0.137874	1.397119	0.492196
C59	C	-0.282456	0.966908	0.133880
C60	C	0.217544	1.466908	0.633880
C61	C	-0.292987	0.973425	-0.002644
C62	C	0.207013	1.473425	0.497356
C63	C	-0.380214	1.006262	0.068057
C64	C	0.119786	1.506262	0.568057
C65	C	0.410892	0.927595	0.062692
C66	C	0.910892	1.427595	0.562692
C67	C	0.552494	0.929953	0.062848
C68	C	1.052494	1.429953	0.562848
C69	C	0.168888	1.076069	0.072734
C70	C	0.668888	1.576069	0.572734
C71	C	0.171700	1.163578	0.078644
C72	C	0.671700	1.663578	0.578644
N73	N	0.194400	0.921749	0.278640
N74	N	0.694400	1.421749	0.778640
N75	N	0.161014	0.942307	-0.152643
N76	N	0.661014	1.442307	0.347357
C77	C	0.111278	0.972783	0.325786
C78	C	0.611278	1.472783	0.825786
C79	C	0.118028	0.968643	0.412913
C80	C	0.618028	1.468643	0.912913
C81	C	0.207906	0.913473	0.452892
C82	C	0.707906	1.413473	0.952892
C83	C	0.291031	0.862433	0.405739
C84	C	0.791031	1.362433	0.905739
C85	C	0.284275	0.866570	0.318614
C86	C	0.784275	1.366570	0.818614
C87	C	0.237383	0.895404	0.713079
C88	C	0.737383	1.395404	1.213079
C89	C	0.244135	0.891273	0.800211
C90	C	0.744135	1.391273	1.300211
C91	C	0.071129	0.997482	0.807378
C92	C	0.571129	1.497482	1.307378
C93	C	0.064386	1.001617	0.720251
C94	C	0.564386	1.501617	1.220251
C95	C	0.147507	0.950575	0.673106
C96	C	0.647507	1.450575	1.173106
N97	N	0.214810	0.909242	0.541949
N98	N	0.714810	1.409242	1.041949
N99	N	0.140596	0.954803	0.584050
N100	N	0.640596	1.454803	1.084050
H101	H	-0.213959	0.795087	0.053807
H102	H	0.286041	1.295087	0.553807
H103	H	0.003455	1.039038	0.845771
H104	H	0.503455	1.539038	1.345771
N105	N	0.159434	0.167810	-0.078403
N106	N	0.659434	0.667810	0.421597
H107	H	0.237072	0.127914	-0.084476
H108	H	0.737072	0.627914	0.415524
H109	H	0.156921	0.208652	-0.123554
H110	H	0.656921	0.708652	0.376446
H111	H	0.305065	0.853845	0.674701
H112	H	0.805065	1.353845	1.174701
N113	N	-0.236190	1.005957	0.213290
N114	N	0.263810	1.505957	0.713290
H115	H	-0.311531	1.022070	0.249124
H116	H	0.188469	1.522070	0.749124
H117	H	-0.193739	1.054429	0.199154
H118	H	0.306261	1.554429	0.699154
N119	N	-0.258248	1.019791	-0.076178
N120	N	0.241752	1.519791	0.423822
H121	H	-0.302156	1.075576	-0.072956
H122	H	0.197844	1.575576	0.427044
H123	H	-0.287077	0.993322	-0.129618
H124	H	0.212923	1.493322	0.370382
N125	N	-0.386255	0.844205	0.202202
N126	N	0.113745	1.344205	0.702202
H127	H	-0.343678	0.788133	0.198365
H128	H	0.156322	1.288133	0.698365
H129	H	-0.482424	0.843450	0.201821
H130	H	0.017576	1.343450	0.701821
H131	H	-0.430355	1.069038	0.072338
H132	H	0.069645	1.569038	0.572338
H133	H	-0.397185	0.867583	-0.067687
H134	H	0.102815	1.367583	0.432313
N135	N	0.014345	1.032293	0.282668
N136	N	0.514345	1.532293	0.782668
H137	H	-0.037289	1.063993	0.325759
H138	H	0.462711	1.563993	0.825759
H139	H	-0.044979	1.003520	0.244471
H140	H	0.455021	1.503520	0.744471
H141	H	0.194086	0.686307	0.183719
H142	H	0.694086	1.186307	0.683719
H143	H	0.166145	0.326898	-0.047655
H144	H	0.666145	0.826898	0.452345
H145	H	0.187363	0.313858	0.226130
H146	H	0.687363	0.813858	0.726130
H147	H	0.351960	0.825012	0.280228
H148	H	0.851960	1.325012	0.780228
H149	H	0.050342	1.010199	0.451299
H150	H	0.550342	1.510199	0.951299
H151	H	-0.008800	1.046541	0.687702
H152	H	0.491200	1.546541	1.187702
H153	H	0.189230	0.537152	0.173638
H154	H	0.689230	1.037152	0.673638
H155	H	0.172867	0.699359	-0.090064
H156	H	0.672867	1.199359	0.409936
N157	N	0.341092	0.831773	0.843335
N158	N	0.841092	1.331773	1.343335
H159	H	0.392727	0.800066	0.800250
H160	H	0.892727	1.300066	1.300250
H161	H	0.294919	0.794942	0.877132
H162	H	0.794919	1.294942	1.377132
H163	H	0.364208	0.817508	0.438295
H164	H	0.864208	1.317508	0.938295
N165	N	0.166163	0.540283	-0.120823
N166	N	0.666163	1.040283	0.379177
H167	H	0.085073	0.562108	-0.152437
H168	H	0.585073	1.062108	0.347563
H169	H	0.165226	0.481419	-0.113252
H170	H	0.665226	0.981419	0.386748
H171	H	0.182553	0.164688	0.216047
H172	H	0.682553	0.664688	0.716047
