data_functionalizedCrystal
_audit_creation_method	'MofGen! by Chris Wilmer'
_symmetry_space_group_name_H-M	'P1'
_symmetry_Int_Tables_number	1
_symmetry_cell_setting	triclinic
loop_
_symmetry_equiv_pos_as_xyz
  x,y,z
_cell_length_a	10.723024
_cell_length_b	13.596369
_cell_length_c	10.723024
_cell_angle_alpha	90.004807
_cell_angle_beta	95.532131
_cell_angle_gamma	89.994365
loop_
_atom_site_label
_atom_site_type_symbol
_atom_site_fract_x
_atom_site_fract_y
_atom_site_fract_z
O1	O	-1.657190	0.081797	0.175029
O2	O	-1.157190	0.581797	0.675029
O3	O	-1.294037	0.081797	0.191783
O4	O	-0.794037	0.581797	0.691783
O5	O	-1.483990	0.081793	0.001830
O6	O	-0.983990	0.581793	0.501830
O7	O	-1.467237	0.081800	0.364982
O8	O	-0.967237	0.581800	0.864982
O9	O	-1.483971	-0.081790	0.001820
O10	O	-0.983971	0.418210	0.501820
O11	O	-1.294018	-0.081786	0.191772
O12	O	-0.794018	0.418214	0.691772
O13	O	-1.657171	-0.081786	0.175019
O14	O	-1.157171	0.418214	0.675019
Zn15	Zn	-1.475591	-0.107759	0.183394
Zn16	Zn	-0.975591	0.392241	0.683394
Zn17	Zn	-1.475617	0.107769	0.183408
Zn18	Zn	-0.975617	0.607769	0.683408
O19	O	-1.467218	-0.081783	0.364972
O20	O	-0.967218	0.418217	0.864972
C21	C	-1.247528	0.000005	0.190558
C22	C	-0.747528	0.500005	0.690558
C23	C	-1.108974	0.000005	0.186911
C24	C	-0.608974	0.500005	0.686911
N25	N	-1.475583	-0.254850	0.183384
N26	N	-0.975583	0.245150	0.683384
C27	C	-0.917217	0.000003	0.073603
C28	C	-0.417217	0.500003	0.573603
C29	C	-1.060420	0.000003	0.077371
C30	C	-0.560420	0.500003	0.577371
C31	C	-1.475615	-0.656141	0.183409
C32	C	-0.975615	-0.156141	0.683409
C33	C	-1.475602	-0.544490	0.183406
C34	C	-0.975602	-0.044490	0.683406
C35	C	-1.475600	-0.455499	0.183398
C36	C	-0.975600	0.044501	0.683398
C37	C	-1.475586	-0.343841	0.183393
C38	C	-0.975586	0.156159	0.683393
C39	C	-0.703680	0.000005	0.176243
C40	C	-0.203680	0.500005	0.676243
C41	C	-0.842234	0.000005	0.179891
C42	C	-0.342234	0.500005	0.679891
C43	C	-1.482762	0.000003	-0.044675
C44	C	-0.982762	0.500003	0.455325
C45	C	-1.479114	0.000006	-0.183229
C46	C	-0.979114	0.500006	0.316771
N47	N	-1.475635	0.254861	0.183408
N48	N	-0.975635	0.754861	0.683408
C49	C	-1.585401	0.000008	-0.258212
C50	C	-1.085401	0.500008	0.241788
C51	C	-1.581634	0.000011	-0.401415
C52	C	-1.081634	0.500011	0.098585
C53	C	-1.468447	0.000010	0.411477
C54	C	-0.968447	0.500010	0.911477
C55	C	-1.472094	0.000013	0.550031
C56	C	-0.972094	0.500013	1.050031
H57	H	-0.875395	-0.000014	-0.020182
H58	H	-0.375395	0.499986	0.479818
H59	H	-1.672624	0.000008	-0.465848
H60	H	-1.172624	0.500008	0.034152
H61	H	-1.124853	0.000007	-0.013619
H62	H	-0.624853	0.500007	0.486381
H63	H	-1.381099	0.000005	-0.385544
H64	H	-0.881099	0.500005	0.114456
H65	H	-1.044549	0.000011	0.277906
H66	H	-0.544549	0.500011	0.777906
N67	N	-0.897606	0.000007	0.304134
N68	N	-0.397606	0.500007	0.804134
H69	H	-0.951007	-0.060633	0.310548
H70	H	-0.451007	0.439367	0.810548
H71	H	-0.950959	0.060688	0.310478
H72	H	-0.450959	0.560688	0.810478
H73	H	-1.679187	0.000001	-0.216390
H74	H	-1.179187	0.500001	0.283610
H75	H	-1.385328	0.000013	-0.225051
H76	H	-0.885328	0.500013	0.274949
