data_functionalizedCrystal
_audit_creation_method	'MofGen! by Chris Wilmer'
_symmetry_space_group_name_H-M	'P1'
_symmetry_Int_Tables_number	1
_symmetry_cell_setting	triclinic
loop_
_symmetry_equiv_pos_as_xyz
  x,y,z
_cell_length_a	8.497374
_cell_length_b	12.759401
_cell_length_c	12.759400
_cell_angle_alpha	89.983583
_cell_angle_beta	89.991978
_cell_angle_gamma	90.003035
loop_
_atom_site_label
_atom_site_type_symbol
_atom_site_fract_x
_atom_site_fract_y
_atom_site_fract_z
Zn1	Zn	0.892016	1.606068	0.418400
Zn2	Zn	0.628221	1.606018	0.594047
Zn3	Zn	0.628237	1.430425	0.418388
Zn4	Zn	0.891946	1.430358	0.594043
O5	O	0.760105	1.518217	0.506219
O6	O	0.857045	1.753082	0.441707
O7	O	0.407461	1.582732	0.570741
O8	O	0.663264	1.453773	0.271368
O9	O	0.663236	1.753045	0.570753
O10	O	0.857061	1.582817	0.271377
O11	O	0.407473	1.453725	0.441686
O12	O	0.663197	1.283395	0.441682
O13	O	1.112718	1.453659	0.570747
O14	O	0.856942	1.283346	0.570735
O15	O	1.112769	1.582752	0.441703
O16	O	0.663168	1.582667	0.741067
O17	O	0.856926	1.453611	0.741064
C18	C	0.760065	1.245250	0.506207
C19	C	0.760085	1.128473	0.506228
C20	C	0.860863	0.963888	0.573527
C21	C	0.860820	1.073612	0.573525
C22	C	0.659375	1.073604	0.438935
C23	C	0.659411	0.963882	0.438943
C24	C	0.977171	0.963894	0.651228
C25	C	0.977127	1.073618	0.651227
C26	C	0.760072	1.518155	0.779187
C27	C	0.760111	1.518224	0.895963
C28	C	1.171585	1.518209	0.506221
C29	C	1.350229	1.518212	0.506232
C30	C	0.760147	1.792250	0.506232
C31	C	0.760164	1.909027	0.506237
C32	C	0.760173	1.518308	0.232186
C33	C	0.760201	1.518347	0.115409
C34	C	0.659333	1.585498	0.950792
C35	C	0.659381	1.585563	1.060516
C36	C	0.860991	1.451070	1.060573
C37	C	0.860949	1.451012	0.950851
C38	C	0.542930	1.663143	0.950760
C39	C	0.542979	1.663208	1.060484
H40	H	1.093317	0.929889	0.622205
C41	C	0.587273	1.773016	0.910422
C42	C	0.471375	1.834597	0.841018
C43	C	0.515720	1.944466	0.800679
C44	C	0.675961	1.992755	0.829745
C45	C	0.791869	1.931174	0.899152
C46	C	0.747525	1.821305	0.939491
H47	H	0.352746	1.798851	0.819498
H48	H	0.429916	1.990053	0.749299
H49	H	0.708787	2.074087	0.799884
H50	H	0.910499	1.966920	0.920672
H51	H	0.833329	1.775718	0.990871
C52	C	0.386070	1.623853	0.904837
C53	C	0.383436	1.526468	0.833597
C54	C	0.226576	1.487181	0.787669
C55	C	0.072351	1.545279	0.812982
C56	C	0.074980	1.642670	0.884227
C57	C	0.231839	1.681956	0.930154
H58	H	0.497607	1.483455	0.814855
H59	H	0.224631	1.415086	0.734929
H60	H	-0.043765	1.516197	0.778984
H61	H	-0.039192	1.685683	0.902968
H62	H	0.233785	1.754052	0.982894
H63	H	0.586848	1.740503	1.094438
H64	H	0.577394	0.919218	0.384161
C65	C	0.548560	1.133949	0.364909
C66	C	0.617103	1.209414	0.282493
C67	C	0.506287	1.269757	0.208464
C68	C	0.326929	1.254636	0.216852
C69	C	0.258377	1.179168	0.299272
C70	C	0.369192	1.118825	0.373300
H71	H	0.749883	1.220610	0.276280
H72	H	0.557035	1.325623	0.147451
H73	H	0.244897	1.299305	0.162051
H74	H	0.125597	1.167971	0.305484
H75	H	0.318445	1.062958	0.434313
H76	H	0.933155	1.107622	0.728477
H77	H	0.943024	1.396242	0.906210
H78	H	0.944254	0.934094	0.732567
C79	C	1.142237	1.113899	0.621947
C80	C	1.285045	1.084757	0.690289
C81	C	1.450145	1.125040	0.661009
C82	C	1.472437	1.194465	0.563386
C83	C	1.329624	1.223611	0.495037
C84	C	1.164524	1.183328	0.524318
H85	H	1.268547	1.033361	0.762561
H86	H	1.555864	1.103463	0.711606
H87	H	1.594654	1.224285	0.541711
H88	H	1.346122	1.275007	0.422766
H89	H	1.058805	1.204904	0.473721
H90	H	0.420779	1.641496	1.090313
H91	H	0.943091	1.396349	1.105276
