data_functionalizedCrystal
_audit_creation_method	'MofGen! by Chris Wilmer'
_symmetry_space_group_name_H-M	'P1'
_symmetry_Int_Tables_number	1
_symmetry_cell_setting	triclinic
loop_
_symmetry_equiv_pos_as_xyz
  x,y,z
_cell_length_a	12.759401
_cell_length_b	16.625546
_cell_length_c	12.759393
_cell_angle_alpha	90.036194
_cell_angle_beta	90.018496
_cell_angle_gamma	90.022629
loop_
_atom_site_label
_atom_site_type_symbol
_atom_site_fract_x
_atom_site_fract_y
_atom_site_fract_z
Zn1	Zn	1.606199	-0.320951	0.593948
Zn2	Zn	1.606069	-0.455807	0.418253
Zn3	Zn	1.430501	-0.320993	0.418287
Zn4	Zn	1.430465	-0.455745	0.593895
O5	O	1.518308	-0.388374	0.506096
O6	O	1.753203	-0.338848	0.570649
O7	O	1.582740	-0.437968	0.271237
O8	O	1.453876	-0.208155	0.441625
O9	O	1.753107	-0.437927	0.441568
O10	O	1.582961	-0.208124	0.570682
O11	O	1.453751	-0.338920	0.271261
O12	O	1.283475	-0.338860	0.441574
O13	O	1.453816	-0.437821	0.740923
O14	O	1.283449	-0.437862	0.570592
O15	O	1.582927	-0.338788	0.740962
O16	O	1.582706	-0.568632	0.441517
O17	O	1.453691	-0.568586	0.570560
C18	C	1.245341	-0.388359	0.506081
C19	C	1.128564	-0.388372	0.506100
C20	C	1.073717	-0.440005	0.573169
C21	C	0.963992	-0.440015	0.573180
C22	C	0.963974	-0.336758	0.439045
C23	C	1.073696	-0.336744	0.439040
C24	C	1.128585	-0.491634	0.640229
C25	C	1.073737	-0.543271	0.707303
C26	C	0.964013	-0.543282	0.707314
C27	C	0.909137	-0.491654	0.640252
C28	C	1.518209	-0.597865	0.506052
C29	C	1.518263	-0.687486	0.506068
C30	C	1.518446	-1.015662	0.506177
C31	C	1.518392	-0.924353	0.506150
C32	C	1.518353	-0.851577	0.506122
C33	C	1.518301	-0.760262	0.506096
C34	C	1.792342	-0.388390	0.506111
C35	C	1.909118	-0.388396	0.506117
C36	C	1.518382	-0.388293	0.780129
C37	C	1.518413	-0.388258	0.896906
C38	C	1.518437	-0.178065	0.506163
C39	C	1.518492	-0.088444	0.506191
C40	C	1.518296	-0.388397	0.233128
C41	C	1.518468	-0.388204	0.116352
C42	C	1.585650	-0.336687	0.951790
C43	C	1.585675	-0.336657	1.061514
C44	C	1.451223	-0.439778	1.061461
C45	C	1.451194	-0.439803	0.951739
C46	C	1.652870	-0.285142	0.896957
C47	C	1.720113	-0.233567	0.951841
C48	C	1.720138	-0.233538	1.061565
C49	C	1.652920	-0.285084	1.116405
H50	H	1.217928	-0.491633	0.640226
H51	H	1.118424	-0.585299	0.761909
H52	H	1.774833	-0.191595	0.907183
H53	H	1.774883	-0.191537	1.106249
C54	C	1.377302	-0.496486	1.121782
C55	C	1.303344	-0.553219	1.061411
C56	C	1.229427	-0.609933	1.121731
C57	C	1.229467	-0.609914	1.242421
C58	C	1.303427	-0.553179	1.302798
C59	C	1.377344	-0.496465	1.242479
H60	H	1.303312	-0.553235	0.972063
H61	H	1.174678	-0.651932	1.077035
H62	H	1.174750	-0.651897	1.287073
H63	H	1.303459	-0.553163	1.392146
H64	H	1.432094	-0.454466	1.287175
C65	C	0.903678	-0.600077	0.781095
C66	C	0.964035	-0.656862	0.854857
C67	C	0.903703	-0.713663	0.928636
C68	C	0.783013	-0.713678	0.928654
C69	C	0.722649	-0.656891	0.854890
C70	C	0.782981	-0.600090	0.781110
H71	H	1.053383	-0.656853	0.854846
H72	H	0.948389	-0.755701	0.983242
H73	H	0.738351	-0.755725	0.983271
H74	H	0.633301	-0.656900	0.854901
H75	H	0.738295	-0.558053	0.726505
H76	H	0.819792	-0.491660	0.640276
H77	H	1.396427	-0.481784	0.907051
C78	C	0.903614	-0.279977	0.365273
C79	C	0.782924	-0.279994	0.365273
C80	C	0.722565	-0.223214	0.291497
C81	C	0.782896	-0.166418	0.217720
C82	C	0.903593	-0.166398	0.217717
C83	C	0.963951	-0.223178	0.291494
H84	H	0.738257	-0.322040	0.419890
H85	H	0.633217	-0.223229	0.291499
H86	H	0.738215	-0.124386	0.163106
H87	H	0.948259	-0.124352	0.163100
H88	H	1.053299	-0.223163	0.291491
C89	C	1.134043	-0.279950	0.365267
C90	C	1.209510	-0.216684	0.410952
C91	C	1.269861	-0.159886	0.337184
C92	C	1.254745	-0.166355	0.217730
C93	C	1.179275	-0.229623	0.172039
C94	C	1.118924	-0.286421	0.245807
H95	H	1.220702	-0.211894	0.499384
H96	H	1.325729	-0.113051	0.371008
H97	H	1.299421	-0.124310	0.163122
H98	H	1.168083	-0.234414	0.083607
H99	H	1.063057	-0.333257	0.211983
H100	H	1.652859	-0.285162	0.807614
H101	H	1.652934	-0.285046	1.205750
