data_functionalizedCrystal
_audit_creation_method	'MofGen! by Chris Wilmer'
_symmetry_space_group_name_H-M	'P1'
_symmetry_Int_Tables_number	1
_symmetry_cell_setting	triclinic
loop_
_symmetry_equiv_pos_as_xyz
  x,y,z
_cell_length_a	18.101398
_cell_length_b	18.101395
_cell_length_c	18.101389
_cell_angle_alpha	89.983159
_cell_angle_beta	89.985654
_cell_angle_gamma	90.029256
loop_
_atom_site_label
_atom_site_type_symbol
_atom_site_fract_x
_atom_site_fract_y
_atom_site_fract_z
Zn1	Zn	1.132121	-0.294944	-0.418650
Zn2	Zn	1.132017	-0.418770	-0.294812
Zn3	Zn	1.008280	-0.294942	-0.294832
Zn4	Zn	1.008231	-0.418744	-0.418622
O5	O	1.070162	-0.356850	-0.356729
O6	O	1.235740	-0.311381	-0.402225
O7	O	1.115580	-0.402354	-0.191181
O8	O	1.024772	-0.191310	-0.311277
O9	O	1.235663	-0.402355	-0.311242
O10	O	1.115757	-0.191311	-0.402245
O11	O	1.024671	-0.311378	-0.191197
O12	O	0.904640	-0.311354	-0.311250
O13	O	1.024688	-0.402312	-0.522258
O14	O	0.904604	-0.402310	-0.402198
O15	O	1.115710	-0.311356	-0.522279
O16	O	1.115532	-0.522399	-0.311215
O17	O	1.024587	-0.522380	-0.402178
C18	C	0.877752	-0.356830	-0.356724
C19	C	0.795437	-0.356839	-0.356739
C20	C	1.070063	-0.549261	-0.356707
C21	C	1.070088	-0.631575	-0.356722
C22	C	0.644729	-0.356852	-0.356738
C23	C	0.613377	-0.414168	-0.413871
C24	C	0.527759	-0.414400	-0.413702
C25	C	0.496346	-0.356866	-0.356738
C26	C	0.527399	-0.377679	-0.278597
C27	C	0.613044	-0.378087	-0.278927
C28	C	0.613208	-0.278582	-0.377064
C29	C	0.527558	-0.279011	-0.378785
C30	C	0.412487	-0.356873	-0.356733
C31	C	0.728588	-0.356848	-0.356737
C32	C	1.070251	-0.930665	-0.356762
C33	C	1.013163	-0.899359	-0.414136
C34	C	1.012892	-0.813741	-0.413956
C35	C	1.070170	-0.782283	-0.356743
C36	C	1.049041	-0.813419	-0.278695
C37	C	1.048673	-0.899065	-0.279039
C38	C	1.148593	-0.899015	-0.376750
C39	C	1.148132	-0.813365	-0.378461
C40	C	1.070126	-0.698424	-0.356728
C41	C	1.070293	-1.014525	-0.356773
C42	C	1.263324	-0.356871	-0.356734
C43	C	1.345638	-0.356880	-0.356737
C44	C	1.070205	-0.356831	-0.549891
C45	C	1.070223	-0.356823	-0.632205
C46	C	1.070282	-0.163688	-0.356767
C47	C	1.070333	-0.081374	-0.356783
C48	C	1.070266	-0.356684	-0.931296
C49	C	1.012801	-0.413729	-0.899958
C50	C	1.012956	-0.413994	-0.814340
C51	C	1.070244	-0.356753	-0.782913
C52	C	1.148270	-0.377940	-0.814006
C53	C	1.147949	-0.378314	-0.899651
C54	C	1.050385	-0.278326	-0.899722
C55	C	1.048649	-0.278779	-0.814071
C56	C	1.070237	-0.356791	-0.699054
C57	C	1.070279	-0.356649	-1.015156
C58	C	1.070162	-0.356815	-0.164318
C59	C	1.070287	-0.356615	-0.082005
H60	H	0.506764	-0.401418	-0.471633
H61	H	1.165415	-0.434612	-0.792562
H62	H	1.167856	-0.920574	-0.432692
H63	H	0.634834	-0.259564	-0.433084
H64	H	0.994478	-0.259024	-0.921317
H65	H	0.633998	-0.401337	-0.471982
H66	H	0.992380	-0.792030	-0.261460
H67	H	1.092240	-0.235825	-0.919989
H68	H	0.955448	-0.920942	-0.401063
H69	H	1.164065	-0.793013	-0.435900
H70	H	0.507265	-0.263310	-0.436293
H71	H	1.026082	-0.472075	-0.793856
H72	H	0.991229	-0.262802	-0.793749
H73	H	0.506177	-0.234054	-0.340239
H74	H	1.026251	-0.919918	-0.472195
H75	H	1.088449	-0.919775	-0.234834
H76	H	1.026111	-0.792688	-0.471828
H77	H	1.087450	-0.234021	-0.792679
H78	H	0.954823	-0.793314	-0.400717
H79	H	0.505920	-0.434260	-0.261125
H80	H	1.025796	-0.471456	-0.921483
H81	H	0.633485	-0.235882	-0.335455
H82	H	0.634865	-0.471838	-0.400549
H83	H	0.991406	-0.919103	-0.262107
H84	H	1.192236	-0.337697	-0.793651
H85	H	0.507237	-0.472403	-0.400217
H86	H	0.632986	-0.435292	-0.261748
H87	H	0.633784	-0.338125	-0.234898
H88	H	1.164804	-0.435595	-0.919633
H89	H	1.089313	-0.793042	-0.234783
H90	H	0.507053	-0.337213	-0.234859
H91	H	1.191125	-0.919259	-0.334963
H92	H	1.192915	-0.791947	-0.339719
H93	H	0.955097	-0.400735	-0.793317
H94	H	0.954768	-0.400607	-0.920554
H95	H	1.192217	-0.338569	-0.920383
