data_functionalizedCrystal
_audit_creation_method	'MofGen! by Chris Wilmer'
_symmetry_space_group_name_H-M	'P1'
_symmetry_Int_Tables_number	1
_symmetry_cell_setting	triclinic
loop_
_symmetry_equiv_pos_as_xyz
  x,y,z
_cell_length_a	42.784839
_cell_length_b	42.784841
_cell_length_c	42.784893
_cell_angle_alpha	90.002418
_cell_angle_beta	59.997780
_cell_angle_gamma	119.999863
loop_
_atom_site_label
_atom_site_type_symbol
_atom_site_fract_x
_atom_site_fract_y
_atom_site_fract_z
O1	O	0.275695	-0.214412	-0.009300
O2	O	0.211692	-0.168961	0.009253
O3	O	0.275692	-0.168961	-0.054750
O4	O	0.211694	-0.214412	0.054702
O5	O	0.223708	-0.220945	-0.054749
O6	O	0.159708	-0.220945	0.009253
O7	O	0.223710	-0.266397	-0.009300
Cu8	Cu	0.186962	-0.248417	-0.000023
Cu9	Cu	0.248440	-0.186940	-0.000024
O10	O	0.159710	-0.266396	0.054703
C11	C	0.051021	-0.022778	0.028112
C12	C	0.013142	-0.041761	0.028375
C13	C	0.051018	-0.079378	0.028116
C14	C	0.013139	-0.098275	0.028379
C15	C	-0.005578	-0.079377	0.028112
C16	C	0.069652	-0.041762	0.028379
C17	C	0.152948	0.113708	0.017863
C18	C	0.173786	0.152360	0.014965
C19	C	0.155902	0.171750	0.013509
C20	C	0.178499	0.213661	0.010359
C21	C	0.117177	0.152485	0.014953
C22	C	0.096339	0.113835	0.017857
C23	C	0.114226	0.094447	0.019312
C24	C	-0.131813	-0.113936	0.017859
C25	C	-0.167567	-0.131750	0.014961
C26	C	-0.185502	-0.169024	0.013506
C27	C	-0.224264	-0.188340	0.010358
C28	C	-0.167685	-0.188485	0.014954
C29	C	-0.131938	-0.170675	0.017859
C30	C	-0.114002	-0.133396	0.019309
C31	C	0.152939	-0.113943	0.017877
C32	C	0.173778	-0.131757	0.014977
C33	C	0.155892	-0.169032	0.013523
C34	C	0.178486	-0.188349	0.010377
C35	C	0.117170	-0.188491	0.014967
C36	C	0.096334	-0.170675	0.017865
C37	C	0.114220	-0.133401	0.019323
C38	C	0.091629	0.052537	0.022456
C39	C	0.073617	0.019131	0.024964
C40	C	0.073613	-0.098693	0.024971
C41	C	0.091623	-0.114089	0.022466
C42	C	-0.044339	-0.098690	0.024964
C43	C	-0.075237	-0.114084	0.022456
O44	O	-0.327856	-0.266388	-0.009322
O45	O	-0.236954	-0.220935	0.009228
O46	O	-0.236950	-0.220939	-0.054773
O47	O	-0.327860	-0.266385	0.054680
O48	O	-0.236948	-0.168954	-0.054776
O49	O	-0.236952	-0.168950	0.009225
O50	O	-0.327854	-0.214403	-0.009325
Cu51	Cu	-0.282403	-0.186930	-0.000050
Cu52	Cu	-0.282405	-0.248408	-0.000046
O53	O	-0.327858	-0.214400	0.054676
C54	C	0.384390	-0.079141	-0.361606
C55	C	0.422270	-0.041526	-0.380503
C56	C	0.384390	-0.079141	-0.305008
C57	C	0.422270	-0.041526	-0.323990
C58	C	0.440988	-0.022543	-0.361606
C59	C	0.365758	-0.098038	-0.323991
C60	C	0.282465	-0.170819	-0.396168
C61	C	0.261627	-0.188759	-0.413983
C62	C	0.279513	-0.169420	-0.451257
C63	C	0.256917	-0.188867	-0.470572
C64	C	0.318239	-0.132140	-0.470717
C65	C	0.339076	-0.114205	-0.452905
C66	C	0.321187	-0.133546	-0.415628
C67	C	0.567227	0.113942	-0.453282
C68	C	0.602981	0.152594	-0.471222
C69	C	0.620916	0.171985	-0.451883
C70	C	0.659678	0.213894	-0.471328
C71	C	0.603097	0.152719	-0.414603
C72	C	0.567349	0.114068	-0.396667
C73	C	0.549414	0.094682	-0.416011
C74	C	0.282465	-0.170819	-0.168522
C75	C	0.261624	-0.188757	-0.129868
C76	C	0.279510	-0.169418	-0.110479
C77	C	0.256914	-0.188865	-0.068568
C78	C	0.318233	-0.132140	-0.129742
C79	C	0.339070	-0.114203	-0.168394
C80	C	0.321184	-0.133548	-0.187782
C81	C	0.343783	-0.114094	-0.396315
C82	C	0.361794	-0.098590	-0.380920
C83	C	0.361794	-0.098590	-0.263099
C84	C	0.343783	-0.114094	-0.229693
C85	C	0.479750	0.019366	-0.381054
C86	C	0.510649	0.052771	-0.396557
C87	C	0.440758	-0.356212	-0.028193
C88	C	0.422041	-0.393827	-0.028459
C89	C	0.384158	-0.356213	-0.028190
C90	C	0.365526	-0.393828	-0.028456
C91	C	0.384160	-0.412810	-0.028193
C92	C	0.422038	-0.337315	-0.028456
C93	C	0.567000	-0.264532	-0.017949
C94	C	0.602755	-0.246591	-0.015053
C95	C	0.620692	-0.265931	-0.013601
C96	C	0.659455	-0.246483	-0.010453
C97	C	0.602873	-0.303210	-0.015048
C98	C	0.567125	-0.321146	-0.017949
C99	C	0.549188	-0.301805	-0.019399
C100	C	0.339356	-0.549295	-0.017951
C101	C	0.318645	-0.587947	-0.015055
C102	C	0.279915	-0.607338	-0.013597
C103	C	0.257452	-0.649247	-0.010452
C104	C	0.261899	-0.588073	-0.015042
C105	C	0.282613	-0.549422	-0.017945
C106	C	0.321343	-0.530035	-0.019397
C107	C	0.339344	-0.264537	-0.017936
C108	C	0.318628	-0.246599	-0.015032
C109	C	0.279898	-0.265939	-0.013577
C110	C	0.257433	-0.246493	-0.010426
C111	C	0.261884	-0.303217	-0.015022
C112	C	0.282601	-0.321153	-0.017924
C113	C	0.321334	-0.301808	-0.019385
C114	C	0.510421	-0.321258	-0.022542
C115	C	0.479522	-0.336762	-0.025048
C116	C	0.361696	-0.336765	-0.025041
C117	C	0.343793	-0.321261	-0.022532
C118	C	0.361701	-0.454719	-0.025047
C119	C	0.343799	-0.488125	-0.022541
O120	O	0.223728	0.336934	-0.009323
O121	O	0.159726	0.227482	0.009227
O122	O	0.223729	0.291478	-0.054775
O123	O	0.159725	0.272938	0.054678
O124	O	0.275711	0.291477	-0.054771
O125	O	0.211707	0.227481	0.009230
O126	O	0.275710	0.336932	-0.009320
Cu127	Cu	0.248455	0.282206	-0.000045
Cu128	Cu	0.186981	0.282208	-0.000049
O129	O	0.211707	0.272936	0.054681
O130	O	0.763271	0.337164	-0.496871
O131	O	0.672367	0.227713	-0.451422
O132	O	0.672365	0.291711	-0.451418
O133	O	0.763273	0.273165	-0.496876
O134	O	0.672366	0.291712	-0.503402
O135	O	0.672368	0.227714	-0.503407
O136	O	0.763272	0.337165	-0.548856
Cu137	Cu	0.717820	0.282440	-0.530878
Cu138	Cu	0.717819	0.282438	-0.469400
O139	O	0.763275	0.273167	-0.548860
O140	O	0.211690	-0.214417	-0.548617
O141	O	0.275691	-0.168962	-0.503167
O142	O	0.211689	-0.168964	-0.503163
O143	O	0.275692	-0.214415	-0.548621
O144	O	0.159706	-0.220947	-0.451179
O145	O	0.223708	-0.220945	-0.451183
O146	O	0.159707	-0.266400	-0.496633
Cu147	Cu	0.186961	-0.248419	-0.469161
Cu148	Cu	0.248437	-0.186943	-0.530639
O149	O	0.223709	-0.266398	-0.496637
C150	C	-0.005343	-0.412572	0.361558
C151	C	0.013375	-0.393590	0.380456
C152	C	0.051255	-0.355974	0.304961
C153	C	0.069887	-0.337077	0.323944
C154	C	0.051254	-0.355974	0.361560
C155	C	0.013375	-0.393589	0.323943
C156	C	-0.131582	-0.549057	0.396116
C157	C	-0.167336	-0.587709	0.413930
C158	C	-0.185271	-0.607098	0.451205
C159	C	-0.224034	-0.649009	0.470519
C160	C	-0.167452	-0.587833	0.470666
C161	C	-0.131705	-0.549184	0.452854
C162	C	-0.113770	-0.529796	0.415578
C163	C	0.096061	-0.321414	0.453239
C164	C	0.116773	-0.303600	0.471179
C165	C	0.155502	-0.266327	0.451842
C166	C	0.177965	-0.247011	0.471288
C167	C	0.173517	-0.246866	0.414562
C168	C	0.152802	-0.264677	0.396625
C169	C	0.114073	-0.301955	0.415968
C170	C	0.096064	-0.321412	0.168474
C171	C	0.116779	-0.303599	0.129820
C172	C	0.155508	-0.266324	0.110432
C173	C	0.177972	-0.247009	0.068521
C174	C	0.173522	-0.246865	0.129696
C175	C	0.152807	-0.264680	0.168348
C176	C	0.114075	-0.301953	0.187735
C177	C	-0.075004	-0.487887	0.396265
C178	C	-0.044106	-0.454481	0.380871
C179	C	0.073715	-0.336660	0.263052
C180	C	0.091618	-0.321265	0.229646
C181	C	0.073714	-0.336661	0.381009
C182	C	0.091616	-0.321267	0.396513
C183	C	0.051046	-0.022794	-0.361634
C184	C	0.069679	-0.041778	-0.380530
C185	C	-0.005555	-0.079390	-0.305034
C186	C	0.013163	-0.098288	-0.324016
C187	C	0.051045	-0.079393	-0.361631
C188	C	0.013164	-0.041775	-0.324018
C189	C	0.095858	0.113693	-0.396200
C190	C	0.116571	0.152344	-0.414015
C191	C	0.155302	0.171732	-0.451290
C192	C	0.177767	0.213642	-0.470607
C193	C	0.173317	0.152465	-0.470750
C194	C	0.152600	0.113815	-0.452936
C195	C	0.113869	0.094429	-0.415659
C196	C	0.152973	-0.113959	-0.453306
C197	C	0.173810	-0.131775	-0.471245
C198	C	0.155926	-0.169048	-0.451906
C199	C	0.178519	-0.188366	-0.471350
C200	C	0.117198	-0.188507	-0.414626
C201	C	0.096358	-0.170694	-0.396690
C202	C	0.114251	-0.133416	-0.416035
C203	C	-0.131801	-0.113944	-0.168548
C204	C	-0.167554	-0.131755	-0.129895
C205	C	-0.185491	-0.169029	-0.110504
C206	C	-0.224255	-0.188343	-0.068593
C207	C	-0.167671	-0.188490	-0.129767
C208	C	-0.131918	-0.170677	-0.168418
C209	C	-0.113988	-0.133404	-0.187808
C210	C	0.091411	0.052521	-0.396344
C211	C	0.073508	0.019115	-0.380949
C212	C	-0.044320	-0.098701	-0.263125
C213	C	-0.075220	-0.114094	-0.229719
C214	C	0.073641	-0.098707	-0.381079
C215	C	0.091652	-0.114103	-0.396582
C216	C	-0.615853	-0.356193	0.361535
C217	C	-0.634487	-0.393808	0.380433
C218	C	-0.559253	-0.356195	0.304938
C219	C	-0.577972	-0.393810	0.323921
C220	C	-0.615854	-0.412792	0.361537
C221	C	-0.577972	-0.337297	0.323920
C222	C	-0.660661	-0.264512	0.396093
C223	C	-0.681373	-0.246571	0.413906
C224	C	-0.720104	-0.265909	0.451181
C225	C	-0.742568	-0.246461	0.470495
C226	C	-0.738120	-0.303189	0.470643
C227	C	-0.717405	-0.321125	0.452831
C228	C	-0.678674	-0.301785	0.415554
C229	C	-0.717784	-0.549275	0.453218
C230	C	-0.738622	-0.587926	0.471159
C231	C	-0.720740	-0.607319	0.451822
C232	C	-0.743333	-0.649227	0.471268
C233	C	-0.682012	-0.588055	0.414542
C234	C	-0.661170	-0.549403	0.396604
C235	C	-0.679063	-0.530016	0.415946
C236	C	-0.433006	-0.264522	0.168449
C237	C	-0.397253	-0.246585	0.129796
C238	C	-0.379317	-0.265926	0.110407
C239	C	-0.340553	-0.246480	0.068496
C240	C	-0.397138	-0.303204	0.129672
C241	C	-0.432891	-0.321139	0.168324
C242	C	-0.450820	-0.301793	0.187711
C243	C	-0.656216	-0.321238	0.396242
C244	C	-0.638314	-0.336743	0.380848
C245	C	-0.520488	-0.336748	0.263028
C246	C	-0.489588	-0.321245	0.229622
C247	C	-0.638451	-0.454700	0.380987
C248	C	-0.656463	-0.488106	0.396492
C249	C	0.440756	0.310302	-0.361620
C250	C	0.422038	0.310564	-0.380518
C251	C	0.384160	0.310312	-0.305026
C252	C	0.365528	0.310574	-0.324010
C253	C	0.384159	0.310303	-0.361624
C254	C	0.422038	0.310573	-0.324006
C255	C	0.566989	0.300046	-0.396172
C256	C	0.602741	0.297145	-0.413984
C257	C	0.620675	0.295684	-0.451257
C258	C	0.659436	0.292531	-0.470569
C259	C	0.602857	0.297127	-0.470719
C260	C	0.567111	0.300033	-0.452909
C261	C	0.549177	0.301493	-0.415634
C262	C	0.339351	0.300042	-0.453303
C263	C	0.318640	0.297142	-0.471244
C264	C	0.279912	0.295690	-0.451908
C265	C	0.257449	0.292541	-0.471354
C266	C	0.261899	0.297143	-0.414629
C267	C	0.282613	0.300049	-0.396692
C268	C	0.321341	0.301496	-0.416033
C269	C	0.339354	0.300088	-0.168540
C270	C	0.318640	0.297192	-0.129888
C271	C	0.279912	0.295742	-0.110501
C272	C	0.257450	0.292601	-0.068591
C273	C	0.261898	0.297184	-0.129766
C274	C	0.282612	0.300078	-0.168417
C275	C	0.321344	0.301533	-0.187802
C276	C	0.510413	0.304640	-0.396323
C277	C	0.479516	0.307151	-0.380931
C278	C	0.361701	0.307173	-0.263117
C279	C	0.343799	0.304671	-0.229712
C280	C	0.361700	0.307154	-0.381073
C281	C	0.343798	0.304644	-0.396578
O282	O	0.275503	0.336913	-0.548651
O283	O	0.211494	0.227461	-0.503201
O284	O	0.275490	0.291455	-0.503192
O285	O	0.211507	0.272919	-0.548659
O286	O	0.223502	0.291457	-0.451211
O287	O	0.159506	0.227463	-0.451219
O288	O	0.223515	0.336915	-0.496669
Cu289	Cu	0.186764	0.282189	-0.469197
Cu290	Cu	0.248246	0.282187	-0.530672
O291	O	0.159519	0.272921	-0.496677
C292	C	0.051032	0.254111	0.361530
C293	C	0.013154	0.253851	0.380425
C294	C	0.051031	0.254102	0.304932
C295	C	0.013153	0.253842	0.323913
C296	C	-0.005564	0.254113	0.361527
C297	C	0.069663	0.253840	0.323916
C298	C	0.152954	0.264360	0.396096
C299	C	0.173791	0.267260	0.413911
C300	C	0.155906	0.268721	0.451185
C301	C	0.178502	0.271871	0.470501
C302	C	0.117182	0.267279	0.470643
C303	C	0.096345	0.264374	0.452830
C304	C	0.114233	0.262915	0.415555
C305	C	-0.131796	0.264379	0.453195
C306	C	-0.167548	0.267281	0.471133
C307	C	-0.185483	0.268734	0.451793
C308	C	-0.224243	0.271886	0.471236
C309	C	-0.167664	0.267282	0.414515
C310	C	-0.131919	0.264374	0.396581
C311	C	-0.113984	0.262925	0.415925
C312	C	0.152952	0.264325	0.168451
C313	C	0.173792	0.267221	0.129798
C314	C	0.155907	0.268673	0.110407
C315	C	0.178502	0.271814	0.068498
C316	C	0.117186	0.267232	0.129669
C317	C	0.096350	0.264339	0.168320
C318	C	0.114234	0.262881	0.187709
C319	C	0.091638	0.259769	0.396240
C320	C	0.073627	0.257260	0.380845
C321	C	0.073626	0.257242	0.263024
C322	C	0.091636	0.259743	0.229619
C323	C	-0.044324	0.257264	0.380973
C324	C	-0.075221	0.259775	0.396474
H325	H	-0.117214	-0.083584	0.019042
O326	O	0.211374	0.268572	0.111062
C327	C	0.204312	0.237353	0.097433
H328	H	0.175926	0.226830	0.094492
H329	H	0.195680	0.213205	0.118465
C330	C	0.281470	0.263013	0.061721
C331	C	0.246607	0.250090	0.058106
H332	H	0.307559	0.270869	0.037463
H333	H	0.286227	0.284045	0.070904
H334	H	0.274270	0.242887	0.079249
H335	H	0.253805	0.270217	0.040582
H336	H	0.241852	0.229061	0.048919
H337	H	0.335043	-0.409068	-0.028878
H338	H	0.552629	0.098160	-0.469035
H339	H	0.102633	-0.218858	-0.398880
O340	O	-0.005506	-0.135150	0.028902
C341	C	0.019161	-0.147830	0.029063
H342	H	0.038335	-0.129828	0.040814
H343	H	0.043290	-0.144758	-0.001388
C344	C	-0.035939	-0.212254	0.040066
C345	C	-0.012393	-0.190147	0.054502
H346	H	-0.055402	-0.238358	0.055756
H347	H	-0.052558	-0.203712	0.039956
H348	H	-0.015827	-0.209691	0.014690
H349	H	-0.032505	-0.192707	0.079875
H350	H	0.004221	-0.198691	0.054616
H351	H	0.167518	0.263140	0.184235
H352	H	0.204850	0.168253	-0.501099
H353	H	0.167522	0.263171	0.365746
H354	H	0.267943	-0.533739	-0.019121
H355	H	-0.382753	-0.216236	0.114110
H356	H	-0.769653	-0.318930	0.500992
O357	O	0.440782	-0.411955	-0.028963
C358	C	0.478307	-0.387118	-0.029151
H359	H	0.475301	-0.364385	-0.016783
H360	H	0.509261	-0.372691	-0.059789
C361	C	0.485235	-0.438106	-0.019866
C362	C	0.481541	-0.410186	-0.004673
H363	H	0.487232	-0.452335	-0.004769
H364	H	0.459955	-0.454839	-0.019741
H365	H	0.511030	-0.426080	-0.045397
H366	H	0.455744	-0.422213	0.020856
H367	H	0.506817	-0.393456	-0.004793
H368	H	0.064526	-0.351765	0.468991
H369	H	0.552845	0.098385	-0.366316
H370	H	0.102103	-0.319447	0.501532
O371	O	0.329201	0.311137	-0.305891
C372	C	0.339093	0.344288	-0.326375
H373	H	0.368132	0.354977	-0.357437
H374	H	0.348124	0.367469	-0.312978
C375	C	0.262804	0.321621	-0.286737
C376	C	0.298468	0.334747	-0.324889
H377	H	0.237745	0.315736	-0.285819
H378	H	0.256140	0.299286	-0.272935
H379	H	0.270336	0.340940	-0.275577
H380	H	0.290938	0.315426	-0.336046
H381	H	0.305130	0.357078	-0.338692
H382	H	0.102606	-0.218843	0.013783
O383	O	-0.185010	0.268739	0.395669
C384	C	-0.152134	0.300921	0.361978
H385	H	-0.118102	0.309775	0.352975
H386	H	-0.155315	0.325585	0.367529
C387	C	-0.199700	0.279922	0.340899
C388	C	-0.157900	0.290795	0.329839
H389	H	-0.203257	0.273677	0.321074
H390	H	-0.221849	0.258241	0.363598
H391	H	-0.202345	0.300477	0.345525
H392	H	-0.155257	0.270238	0.325218
H393	H	-0.135750	0.312473	0.307139
O394	O	0.620352	0.295757	-0.506942
C395	C	0.665209	0.326968	-0.531035
H396	H	0.678574	0.337504	-0.513105
H397	H	0.668391	0.351112	-0.546636
C398	C	0.675440	0.301273	-0.582520
C399	C	0.691856	0.314212	-0.560499
H400	H	0.691878	0.293406	-0.600696
H401	H	0.645219	0.280246	-0.566289
H402	H	0.678093	0.321395	-0.595517
H403	H	0.689199	0.294088	-0.547498
H404	H	0.722078	0.335235	-0.576728
H405	H	0.370607	-0.083853	-0.468752
O406	O	0.058193	0.094862	-0.360016
C407	C	0.025198	0.095564	-0.359199
H408	H	0.032955	0.100133	-0.389142
H409	H	0.024235	0.119931	-0.349121
C410	C	-0.029547	0.051630	-0.294694
C411	C	-0.020022	0.057238	-0.331470
H412	H	-0.057442	0.027990	-0.277589
H413	H	-0.007318	0.051158	-0.295244
H414	H	-0.030347	0.071938	-0.286301
H415	H	-0.019217	0.036932	-0.339864
H416	H	-0.042252	0.057705	-0.330921
H417	H	0.205320	0.268435	0.398066
H418	H	0.335269	-0.128941	-0.308748
H419	H	-0.182060	-0.603623	0.501016
O420	O	-0.623524	-0.530720	0.360412
C421	C	-0.590593	-0.531480	0.359663
H422	H	-0.606835	-0.556620	0.384766
H423	H	-0.568225	-0.503617	0.361956
C424	C	-0.542946	-0.505114	0.291005
C425	C	-0.562895	-0.535993	0.321835
H426	H	-0.525859	-0.507896	0.267671
H427	H	-0.565131	-0.504600	0.291509
H428	H	-0.524309	-0.481898	0.292921
H429	H	-0.581535	-0.559208	0.319921
H430	H	-0.540712	-0.536511	0.321330
O431	O	0.170169	0.095164	-0.471884
C432	C	0.208790	0.120559	-0.508606
H433	H	0.222841	0.151278	-0.508573
H434	H	0.200452	0.116615	-0.530421
C435	C	0.226002	0.074402	-0.519336
C436	C	0.243262	0.112132	-0.519294
H437	H	0.247266	0.069203	-0.525930
H438	H	0.199982	0.057292	-0.494596
H439	H	0.219054	0.071119	-0.537515
H440	H	0.250204	0.115413	-0.501112
H441	H	0.269284	0.129242	-0.544031
O442	O	-0.184822	-0.112803	-0.111245
C443	C	-0.161320	-0.076083	-0.136645
H444	H	-0.144689	-0.076121	-0.167364
H445	H	-0.135107	-0.054268	-0.132704
C446	C	-0.213953	-0.065343	-0.090489
C447	C	-0.193528	-0.065390	-0.128218
H448	H	-0.233819	-0.058746	-0.085290
H449	H	-0.229785	-0.090082	-0.073376
H450	H	-0.192104	-0.047164	-0.087209
H451	H	-0.215376	-0.083572	-0.131495
H452	H	-0.177700	-0.040655	-0.145331
H453	H	0.332799	-0.116397	-0.501067
H454	H	0.230362	0.296001	-0.113978
H455	H	0.437704	-0.306410	-0.028878
H456	H	-0.447603	-0.248768	0.184232
H457	H	-0.562326	-0.306401	0.308670
O458	O	-0.114536	0.263012	0.360354
C459	C	-0.069687	0.294225	0.336195
H460	H	-0.056222	0.304753	0.354057
H461	H	-0.066563	0.318373	0.320670
C462	C	-0.059641	0.268548	0.284709
C463	C	-0.043102	0.281477	0.306647
H464	H	-0.043242	0.260686	0.266481
H465	H	-0.089857	0.247520	0.300984
H466	H	-0.057037	0.288674	0.271775
H467	H	-0.045711	0.261350	0.319584
H468	H	-0.012886	0.302502	0.290373
H469	H	-0.002510	0.253416	0.308669
O470	O	0.336129	0.295840	-0.111148
C471	C	0.346655	0.327059	-0.097520
H472	H	0.325853	0.337583	-0.094582
H473	H	0.383204	0.351207	-0.118549
C474	C	0.362430	0.301398	-0.061801
C475	C	0.336878	0.314322	-0.058190
H476	H	0.356402	0.293543	-0.037541
H477	H	0.355340	0.280366	-0.070983
H478	H	0.392886	0.321524	-0.079327
H479	H	0.306424	0.294196	-0.040668
H480	H	0.343963	0.335351	-0.049004
H481	H	0.205048	-0.216515	0.398819
H482	H	0.332793	-0.116391	-0.113952
O483	O	0.211368	0.171019	0.013612
C484	C	0.202696	0.152833	0.047214
H485	H	0.172584	0.121883	0.060286
H486	H	0.195938	0.168497	0.068609
C487	C	0.280015	0.191630	0.021305
C488	C	0.243032	0.153616	0.037359
H489	H	0.304896	0.192114	0.015227
H490	H	0.285858	0.203883	-0.001333
H491	H	0.274377	0.204679	0.039137
H492	H	0.248669	0.140569	0.019526
H493	H	0.237192	0.141360	0.059994
O494	O	-0.623030	-0.245663	0.359889
C495	C	-0.611576	-0.208919	0.346530
H496	H	-0.627057	-0.200012	0.371963
H497	H	-0.624322	-0.209503	0.328504
C498	C	-0.541923	-0.190963	0.290693
C499	C	-0.560934	-0.180022	0.321931
H500	H	-0.510685	-0.173138	0.275518
H501	H	-0.549640	-0.215718	0.299693
H502	H	-0.552549	-0.191450	0.275677
H503	H	-0.550312	-0.179539	0.336949
H504	H	-0.553214	-0.155265	0.312933
O505	O	0.099871	0.268769	0.506822
C506	C	0.131038	0.303334	0.506731
H507	H	0.155360	0.325436	0.476813
H508	H	0.149729	0.298097	0.515348
C509	C	0.077106	0.291159	0.572150
C510	C	0.106977	0.318307	0.535406
H511	H	0.062265	0.300394	0.589839
H512	H	0.056109	0.267871	0.572213
H513	H	0.092687	0.286797	0.579326
H514	H	0.091395	0.322664	0.528229
H515	H	0.127971	0.341595	0.535343
O516	O	0.058728	0.262924	0.186978
C517	C	0.047416	0.264835	0.161574
H518	H	0.062961	0.254875	0.137228
H519	H	0.060198	0.295608	0.149370
C520	C	-0.022301	0.251040	0.213102
C521	C	-0.003211	0.238804	0.183201
H522	H	-0.053530	0.234985	0.226442
H523	H	-0.014680	0.249754	0.230216
H524	H	-0.011645	0.276685	0.202927
H525	H	-0.013863	0.213162	0.193376
H526	H	-0.010836	0.240085	0.166088
H527	H	0.617258	-0.216240	-0.013873
H528	H	-0.666703	-0.216219	0.398058
H529	H	-0.182293	-0.218837	0.013775
H530	H	0.617482	-0.318952	-0.013867
O531	O	-0.005546	0.253404	0.417277
C532	C	-0.005726	0.286208	0.419354
H533	H	-0.003917	0.297493	0.393944
H534	H	0.024021	0.309206	0.418678
C535	C	-0.050771	0.261870	0.488070
C536	C	-0.048553	0.275728	0.456863
H537	H	-0.077188	0.255406	0.511208
H538	H	-0.050648	0.239770	0.486671
H539	H	-0.025979	0.281037	0.487501
H540	H	-0.073341	0.256559	0.457429
H541	H	-0.048681	0.297825	0.458263
O542	O	-0.776276	-0.606695	0.507348
C543	C	-0.810819	-0.637753	0.507319
H544	H	-0.796292	-0.646499	0.481396
H545	H	-0.831319	-0.628927	0.505908
C546	C	-0.858323	-0.661047	0.576050
C547	C	-0.840481	-0.671791	0.544213
H548	H	-0.876622	-0.682043	0.598809
H549	H	-0.835052	-0.640122	0.576070
H550	H	-0.875404	-0.653692	0.574869
H551	H	-0.823397	-0.679141	0.545392
H552	H	-0.863750	-0.692719	0.544194
O553	O	0.265131	-0.357338	-0.019399
C554	C	0.263602	-0.358089	-0.051571
H555	H	0.289045	-0.328145	-0.073760
H556	H	0.229185	-0.368063	-0.042449
C557	C	0.242806	-0.422662	-0.041808
C558	C	0.274058	-0.385885	-0.069063
H559	H	0.249254	-0.439809	-0.052597
H560	H	0.243835	-0.422157	-0.020133
H561	H	0.214128	-0.430968	-0.034209
H562	H	0.302735	-0.377578	-0.076658
H563	H	0.273034	-0.386390	-0.090740
H564	H	-0.182070	-0.115902	0.013781
H565	H	0.370892	0.301275	-0.184323
H566	H	0.267897	-0.186572	-0.184305
O567	O	0.549636	0.301477	-0.359969
C568	C	0.573020	0.299571	-0.346609
H569	H	0.607360	0.309523	-0.372042
H570	H	0.554410	0.268801	-0.328583
C571	C	0.535141	0.313390	-0.290774
C572	C	0.577319	0.325616	-0.322011
H573	H	0.537791	0.329454	-0.275599
H574	H	0.519385	0.314673	-0.299774
H575	H	0.519637	0.287748	-0.275757
H576	H	0.592820	0.351256	-0.337030
H577	H	0.593077	0.324339	-0.313012
O578	O	0.265069	0.301495	-0.187078
C579	C	0.226441	0.299587	-0.161678
H580	H	0.227596	0.309545	-0.137330
H581	H	0.196244	0.268814	-0.149475
C582	C	0.222060	0.313387	-0.213211
C583	C	0.223480	0.325621	-0.183308
H584	H	0.220232	0.329445	-0.226553
H585	H	0.248083	0.314671	-0.230323
H586	H	0.196895	0.287743	-0.203037
H587	H	0.248647	0.351263	-0.193482
H588	H	0.197461	0.324342	-0.166197
O589	O	0.211434	-0.112846	0.013507
C590	C	0.245983	-0.109373	-0.021053
H591	H	0.238185	-0.111652	-0.043171
H592	H	0.249467	-0.133229	-0.015816
C593	C	0.299125	-0.067479	-0.008833
C594	C	0.289550	-0.070274	-0.036000
H595	H	0.326000	-0.043362	-0.018052
H596	H	0.275849	-0.069820	0.014451
H597	H	0.302025	-0.087361	-0.004471
H598	H	0.286644	-0.050396	-0.040358
H599	H	0.312826	-0.067929	-0.059285
O600	O	0.440655	0.311060	-0.305759
C601	C	0.416001	0.311253	-0.268424
H602	H	0.380910	0.298909	-0.259076
H603	H	0.432227	0.341889	-0.268106
C604	C	0.457655	0.301916	-0.252180
C605	C	0.414554	0.286752	-0.240698
H606	H	0.456763	0.286804	-0.235078
H607	H	0.474265	0.301788	-0.277334
H608	H	0.471171	0.327446	-0.251915
H609	H	0.401040	0.261225	-0.240968
H610	H	0.397941	0.286876	-0.215544
O611	O	0.106015	0.253315	0.305796
C612	C	0.118535	0.253161	0.330624
H613	H	0.088784	0.241414	0.361549
H614	H	0.145914	0.283613	0.324298
C615	C	0.171958	0.242154	0.286530
C616	C	0.135415	0.227723	0.324513
H617	H	0.182372	0.226464	0.282760
H618	H	0.163524	0.242259	0.269802
H619	H	0.194769	0.267530	0.281263
H620	H	0.112603	0.202349	0.329778
H621	H	0.143846	0.227613	0.341242
O622	O	-0.114588	-0.189528	0.019284
C623	C	-0.079180	-0.165807	0.022144
H624	H	-0.083086	-0.143415	0.034568
H625	H	-0.046644	-0.150899	-0.007498
C626	C	-0.074378	-0.217785	0.033270
C627	C	-0.079178	-0.190284	0.048532
H628	H	-0.074375	-0.232883	0.049546
H629	H	-0.098232	-0.233766	0.031342
H630	H	-0.047265	-0.205357	0.008568
H631	H	-0.106293	-0.202712	0.073232
H632	H	-0.055328	-0.174306	0.050466
O633	O	0.170367	-0.245726	0.360409
C634	C	0.208984	-0.209003	0.347188
H635	H	0.223039	-0.209037	0.363852
H636	H	0.200639	-0.187192	0.351593
C637	C	0.226189	-0.198264	0.283822
C638	C	0.243455	-0.198307	0.304286
H639	H	0.247452	-0.191665	0.257358
H640	H	0.200172	-0.223004	0.292729
H641	H	0.219236	-0.180088	0.287497
H642	H	0.250403	-0.216486	0.300615
H643	H	0.269475	-0.173570	0.295378
O644	O	-0.114305	-0.077719	-0.187410
C645	C	-0.069449	-0.053631	-0.201051
H646	H	-0.056088	-0.071565	-0.203879
H647	H	-0.066268	-0.038032	-0.180086
C648	C	-0.059206	-0.002140	-0.236976
C649	C	-0.042795	-0.024166	-0.240453
H650	H	-0.042764	0.016037	-0.261280
H651	H	-0.089426	-0.018368	-0.227785
H652	H	-0.056555	0.010856	-0.219504
H653	H	-0.045451	-0.037165	-0.257921
H654	H	-0.012574	-0.007940	-0.249648
O655	O	0.211388	-0.112913	-0.507478
C656	C	0.204346	-0.133609	-0.531638
H657	H	0.167468	-0.152784	-0.518623
H658	H	0.217235	-0.151999	-0.534891
C659	C	0.274353	-0.081920	-0.587201
C660	C	0.229059	-0.105469	-0.571218
H661	H	0.289599	-0.064562	-0.611617
H662	H	0.279098	-0.067977	-0.570925
H663	H	0.285088	-0.097249	-0.589909
H664	H	0.218324	-0.090140	-0.568506
H665	H	0.224313	-0.119409	-0.587495
O666	O	0.058746	0.262996	0.471777
C667	C	0.047422	0.264898	0.508498
H668	H	0.078175	0.278984	0.508464
H669	H	0.021663	0.234746	0.530315
C670	C	-0.009466	0.271379	0.519228
C671	C	0.028306	0.288682	0.519185
H672	H	-0.021260	0.286048	0.525821
H673	H	-0.001838	0.270095	0.494489
H674	H	-0.030927	0.246252	0.537409
H675	H	0.049768	0.313806	0.501001
H676	H	0.020681	0.289970	0.543921
O677	O	-0.184782	0.268714	0.507333
C678	C	-0.161292	0.266805	0.520560
H679	H	-0.126992	0.276748	0.495057
H680	H	-0.179871	0.236036	0.538568
C681	C	-0.198996	0.280643	0.576459
C682	C	-0.156866	0.292858	0.545135
H683	H	-0.196267	0.296711	0.591619
H684	H	-0.214823	0.281927	0.567548
H685	H	-0.214474	0.255001	0.591461
H686	H	-0.141391	0.318497	0.530131
H687	H	-0.141036	0.291578	0.554044
H688	H	0.552400	-0.248780	-0.019131
H689	H	0.230346	-0.318966	-0.013835
H690	H	-0.117197	0.263199	0.468949
O691	O	0.106032	-0.023661	-0.417406
C692	C	0.118539	-0.048498	-0.430081
H693	H	0.088781	-0.079420	-0.412076
H694	H	0.145916	-0.042182	-0.427009
C695	C	0.171966	-0.004409	-0.494510
C696	C	0.135415	-0.042389	-0.472398
H697	H	0.182378	-0.000640	-0.520614
H698	H	0.163541	0.012324	-0.485971
H699	H	0.194775	0.000849	-0.491946
H700	H	0.112605	-0.047645	-0.474959
H701	H	0.143837	-0.059123	-0.480939
O702	O	-0.734973	-0.357342	0.471782
C703	C	-0.773593	-0.370562	0.508504
H704	H	-0.787645	-0.353895	0.508469
H705	H	-0.765253	-0.366163	0.530318
C706	C	-0.790803	-0.433930	0.519240
C707	C	-0.808064	-0.413462	0.519196
H708	H	-0.812067	-0.460393	0.525837
H709	H	-0.764783	-0.425023	0.494500
H710	H	-0.783854	-0.430259	0.537419
H711	H	-0.815008	-0.417129	0.501015
H712	H	-0.834086	-0.422370	0.543934
O713	O	0.440904	-0.023399	-0.305754
C714	C	0.416230	-0.048223	-0.268405
H715	H	0.397069	-0.079149	-0.267233
H716	H	0.392089	-0.041908	-0.247355
C717	C	0.471306	-0.004109	-0.259062
C718	C	0.447775	-0.042093	-0.257624
H719	H	0.490764	-0.000327	-0.252411
H720	H	0.487929	0.012616	-0.284225
H721	H	0.451184	0.001149	-0.241521
H722	H	0.467897	-0.047349	-0.275168
H723	H	0.431157	-0.058820	-0.232464
H724	H	0.167506	-0.083593	0.019063
O725	O	0.265064	-0.189568	-0.359936
C726	C	0.254632	-0.168796	-0.335847
H727	H	0.249873	-0.149691	-0.348861
H728	H	0.282731	-0.150328	-0.332700
C729	C	0.217552	-0.220326	-0.280217
C730	C	0.211703	-0.196863	-0.296200
H731	H	0.191073	-0.237639	-0.255760
H732	H	0.224582	-0.234321	-0.296446
H733	H	0.240970	-0.204932	-0.277598
H734	H	0.188290	-0.212257	-0.298822
H735	H	0.204668	-0.182872	-0.279970
O736	O	0.058755	-0.189642	-0.360472
C737	C	0.047428	-0.226365	-0.347249
H738	H	0.078181	-0.226332	-0.363915
H739	H	0.021673	-0.248178	-0.351649
C740	C	-0.009468	-0.237096	-0.283882
C741	C	0.028305	-0.237055	-0.304348
H742	H	-0.021266	-0.243692	-0.257418
H743	H	-0.001838	-0.212357	-0.292791
H744	H	-0.030925	-0.255274	-0.287553
H745	H	0.049763	-0.218875	-0.300682
H746	H	0.020678	-0.261792	-0.295438
O747	O	-0.450137	-0.357345	0.186984
C748	C	-0.426650	-0.370575	0.161581
H749	H	-0.392342	-0.345073	0.137234
H750	H	-0.445221	-0.388564	0.149377
C751	C	-0.464389	-0.426495	0.213110
C752	C	-0.422250	-0.395173	0.183209
H753	H	-0.461677	-0.441670	0.226451
H754	H	-0.480214	-0.417583	0.230224
H755	H	-0.479860	-0.441482	0.202935
H756	H	-0.406782	-0.380184	0.193384
H757	H	-0.406422	-0.404083	0.166097
H758	H	0.102624	0.268416	0.113879
H759	H	0.552621	-0.351498	-0.019128
O760	O	0.440893	-0.023393	-0.417368
C761	C	0.416240	-0.048228	-0.430054
H762	H	0.381144	-0.070968	-0.404313
H763	H	0.432455	-0.062646	-0.446595
C764	C	0.457918	0.002769	-0.487953
C765	C	0.414812	-0.025159	-0.456338
H766	H	0.457039	0.016999	-0.504168
H767	H	0.474529	0.019500	-0.479408
H768	H	0.471427	-0.009251	-0.501734
H769	H	0.401306	-0.013138	-0.442556
H770	H	0.398198	-0.041887	-0.464882
H771	H	0.102618	0.168275	0.013770
O772	O	0.058450	-0.357624	0.187247
C773	C	0.046985	-0.370975	0.161960
H774	H	0.077673	-0.354387	0.131204
H775	H	0.021205	-0.366596	0.165934
C776	C	-0.009863	-0.434257	0.208289
C777	C	0.027830	-0.413886	0.170515
H778	H	-0.021680	-0.460727	0.213567
H779	H	-0.002140	-0.425262	0.225326
H780	H	-0.031341	-0.430603	0.211597
H781	H	0.049310	-0.417536	0.167209
H782	H	0.020111	-0.422883	0.153477
H783	H	0.333296	-0.216247	-0.013853
H784	H	0.101900	0.168027	-0.398169
O785	O	-0.735208	-0.530495	0.472068
C786	C	-0.773860	-0.555785	0.508813
H787	H	-0.772813	-0.580170	0.517720
H788	H	-0.804047	-0.567948	0.508228
C789	C	-0.778005	-0.504092	0.526770
C790	C	-0.776717	-0.534040	0.537711
H791	H	-0.779769	-0.490679	0.544596
H792	H	-0.751966	-0.487053	0.502014
H793	H	-0.803161	-0.514232	0.526283
H794	H	-0.751559	-0.523900	0.538194
H795	H	-0.802753	-0.551077	0.562468
O796	O	-0.114677	-0.189642	-0.187077
C797	C	-0.138167	-0.226357	-0.161674
H798	H	-0.172472	-0.235156	-0.137325
H799	H	-0.119594	-0.225777	-0.149473
C800	C	-0.100440	-0.244549	-0.213203
C801	C	-0.142576	-0.255358	-0.183299
H802	H	-0.103159	-0.262439	-0.226542
H803	H	-0.084613	-0.219813	-0.230318
H804	H	-0.084968	-0.244067	-0.203031
H805	H	-0.158046	-0.255836	-0.193472
H806	H	-0.158406	-0.280095	-0.166186
O807	O	0.336216	-0.606606	-0.013704
C808	C	0.379334	-0.588418	-0.047307
H809	H	0.393244	-0.557468	-0.060376
H810	H	0.378307	-0.604080	-0.068704
C811	C	0.391946	-0.627219	-0.021405
C812	C	0.409032	-0.589204	-0.037455
H813	H	0.410265	-0.627705	-0.015328
H814	H	0.362896	-0.639473	0.001234
H815	H	0.391091	-0.640266	-0.039238
H816	H	0.409881	-0.576159	-0.019620
H817	H	0.438083	-0.576947	-0.060090
H818	H	0.230091	-0.219108	-0.114185
H819	H	0.230097	-0.219111	-0.398135
O820	O	0.620220	0.171254	-0.507425
C821	C	0.596731	0.145852	-0.520652
H822	H	0.562428	0.121502	-0.495149
H823	H	0.615307	0.133654	-0.538651
C824	C	0.634451	0.197383	-0.576562
C825	C	0.592317	0.167477	-0.545238
H826	H	0.631729	0.210722	-0.591730
H827	H	0.650277	0.214497	-0.567652
H828	H	0.649926	0.187213	-0.591557
H829	H	0.576845	0.177647	-0.530242
H830	H	0.576488	0.150365	-0.554147
O831	O	-0.184639	-0.606472	0.395043
C832	C	-0.181129	-0.637531	0.391550
H833	H	-0.178480	-0.646285	0.414819
H834	H	-0.150390	-0.628703	0.362222
C835	C	-0.225648	-0.660809	0.367338
C836	C	-0.222399	-0.671563	0.395920
H837	H	-0.251104	-0.681801	0.370032
H838	H	-0.228012	-0.639883	0.369690
H839	H	-0.200030	-0.653452	0.342901
H840	H	-0.248014	-0.678915	0.420356
H841	H	-0.220041	-0.692491	0.393572
O842	O	-0.185157	-0.224723	-0.110935
C843	C	-0.230018	-0.248811	-0.097280
H844	H	-0.236107	-0.235794	-0.115053
H845	H	-0.251634	-0.251960	-0.066033
C846	C	-0.234115	-0.304442	-0.078736
C847	C	-0.241594	-0.288456	-0.100567
H848	H	-0.241256	-0.328897	-0.080762
H849	H	-0.203892	-0.288214	-0.087935
H850	H	-0.252129	-0.307063	-0.052699
H851	H	-0.223576	-0.285831	-0.126604
H852	H	-0.271814	-0.304685	-0.091373
H853	H	-0.562304	-0.409050	0.308680
O854	O	0.549844	0.301414	-0.471860
C855	C	0.573343	0.299512	-0.508581
H856	H	0.589973	0.285424	-0.508544
H857	H	0.599558	0.329665	-0.530397
C858	C	0.520713	0.293038	-0.519318
C859	C	0.541134	0.275731	-0.519272
H860	H	0.500846	0.278370	-0.525914
H861	H	0.504881	0.294321	-0.494580
H862	H	0.542562	0.318164	-0.537499
H863	H	0.519286	0.250608	-0.501088
H864	H	0.556962	0.274444	-0.544008
O865	O	0.106238	-0.300201	0.305715
C866	C	0.118757	-0.287522	0.268369
H867	H	0.089006	-0.305525	0.267195
H868	H	0.146138	-0.290592	0.247311
C869	C	0.172174	-0.223097	0.259047
C870	C	0.135632	-0.245206	0.257606
H871	H	0.182585	-0.196993	0.252407
H872	H	0.163741	-0.231639	0.284208
H873	H	0.194987	-0.225659	0.241499
H874	H	0.112818	-0.242647	0.275158
H875	H	0.144062	-0.236662	0.232448
O876	O	-0.005378	-0.411821	0.417331
C877	C	-0.042909	-0.449154	0.430021
H878	H	-0.039896	-0.458525	0.404284
H879	H	-0.073856	-0.449459	0.446529
C880	C	-0.049872	-0.465355	0.487959
C881	C	-0.046169	-0.476866	0.456349
H882	H	-0.051885	-0.482449	0.504201
H883	H	-0.024588	-0.440202	0.479410
H884	H	-0.075661	-0.465609	0.501711
H885	H	-0.020377	-0.476607	0.442595
H886	H	-0.071449	-0.502019	0.464896
O887	O	0.211102	-0.210632	0.110867
C888	C	0.203987	-0.186542	0.097212
H889	H	0.167106	-0.199559	0.114984
H890	H	0.216771	-0.183391	0.065965
C891	C	0.274064	-0.130913	0.078673
C892	C	0.228766	-0.146899	0.100503
H893	H	0.289350	-0.106458	0.080701
H894	H	0.278859	-0.147142	0.087871
H895	H	0.284711	-0.128290	0.052635
H896	H	0.218119	-0.149526	0.126540
H897	H	0.223970	-0.130669	0.091309
H898	H	0.370892	-0.533512	-0.019136
H899	H	0.370598	-0.083850	-0.184076
O900	O	-0.005512	-0.023535	0.028912
C901	C	0.019125	0.013796	0.029117
H902	H	0.054239	0.023176	0.016719
H903	H	0.002928	0.014091	0.059764
C904	C	-0.022642	0.029986	0.019919
C905	C	0.020486	0.041507	0.004688
H906	H	-0.021804	0.047080	0.004852
H907	H	-0.039242	0.004835	0.019782
H908	H	-0.036135	0.030232	0.045458
H909	H	0.033976	0.041257	-0.020848
H910	H	0.037089	0.066659	0.004821
H911	H	0.167543	-0.083608	-0.469060
O912	O	0.105999	-0.023534	0.028909
C913	C	0.118518	0.013812	0.029070
H914	H	0.088768	0.014988	0.040813
H915	H	0.145904	0.034869	-0.001380
C916	C	0.171924	0.023130	0.040092
C917	C	0.135384	0.024574	0.054518
H918	H	0.182330	0.029769	0.055788
H919	H	0.163492	-0.002030	0.039983
H920	H	0.194741	0.040677	0.014718
H921	H	0.112566	0.007023	0.079890
H922	H	0.143813	0.049731	0.054633
H923	H	0.267945	0.301232	-0.366341
O924	O	-0.664646	-0.606916	0.395815
C925	C	-0.654200	-0.620556	0.416584
H926	H	-0.674963	-0.623384	0.447878
H927	H	-0.617637	-0.599592	0.404167
C928	C	-0.638630	-0.656482	0.375333
C929	C	-0.664134	-0.659958	0.413770
H930	H	-0.644755	-0.680786	0.373596
H931	H	-0.645666	-0.647291	0.361340
H932	H	-0.608163	-0.639010	0.364990
H933	H	-0.694600	-0.677425	0.424111
H934	H	-0.657104	-0.669152	0.427765
H935	H	0.167516	0.097925	0.019049
H936	H	-0.664969	-0.409045	0.411340
H937	H	0.370881	-0.248784	-0.019122
H938	H	0.167477	-0.248833	0.184031
O939	O	0.620112	0.295805	-0.395120
C940	C	0.664968	0.327006	-0.415820
H941	H	0.671128	0.350865	-0.434999
H942	H	0.686609	0.317367	-0.434208
C943	C	0.668844	0.312575	-0.364129
C944	C	0.676409	0.341880	-0.387682
H945	H	0.675903	0.321749	-0.346773
H946	H	0.638624	0.291553	-0.350184
H947	H	0.686879	0.304545	-0.379456
H948	H	0.658370	0.349906	-0.372355
H949	H	0.706627	0.362903	-0.401625
H950	H	-0.002509	-0.129196	-0.308775
H951	H	-0.382532	-0.318952	0.113884
H952	H	0.064808	0.098152	0.019035
O953	O	0.440751	0.311133	-0.417410
C954	C	0.453406	0.344273	-0.440676
H955	H	0.458048	0.367020	-0.426206
H956	H	0.426611	0.336914	-0.445014
C957	C	0.491454	0.331748	-0.497551
C958	C	0.497159	0.359688	-0.479780
H959	H	0.518442	0.341257	-0.521673
H960	H	0.482927	0.309420	-0.481876
H961	H	0.469123	0.325618	-0.501162
H962	H	0.519486	0.365815	-0.476164
H963	H	0.505691	0.382018	-0.495455
O964	O	0.376931	0.301389	-0.472050
C965	C	0.369814	0.270187	-0.451274
H966	H	0.332934	0.246324	-0.432167
H967	H	0.382592	0.279822	-0.432806
C968	C	0.439897	0.284633	-0.502803
C969	C	0.394600	0.255323	-0.479338
H970	H	0.455187	0.275465	-0.520114
H971	H	0.444693	0.305655	-0.516800
H972	H	0.450539	0.292659	-0.487410
H973	H	0.383957	0.247300	-0.494731
H974	H	0.389803	0.234299	-0.465344
O975	O	0.620485	0.171589	-0.395809
C976	C	0.617000	0.202666	-0.392411
H977	H	0.589293	0.197069	-0.394619
H978	H	0.649543	0.229972	-0.416345
C979	C	0.640689	0.214165	-0.350675
C980	C	0.606656	0.207289	-0.353383
H981	H	0.634310	0.217018	-0.326602
H982	H	0.643038	0.193229	-0.352965
H983	H	0.667805	0.236920	-0.370622
H984	H	0.579542	0.184532	-0.333439
H985	H	0.604302	0.228222	-0.351089
O986	O	0.224310	-0.606934	-0.013678
C987	C	0.231435	-0.620575	-0.044894
H988	H	0.259901	-0.623405	-0.055428
H989	H	0.239982	-0.599611	-0.069038
C990	C	0.154259	-0.656497	-0.019207
C991	C	0.189219	-0.659976	-0.032144
H992	H	0.128218	-0.680801	-0.011344
H993	H	0.149458	-0.647306	0.001822
H994	H	0.161387	-0.639026	-0.039330
H995	H	0.182093	-0.677444	-0.012020
H996	H	0.194017	-0.669171	-0.053170
H997	H	0.064802	-0.186523	0.019045
H998	H	-0.002293	-0.408830	0.308704
O999	O	0.336182	0.295715	-0.507446
C1000	C	0.374810	0.297626	-0.520671
H1001	H	0.373656	0.287676	-0.495166
H1002	H	0.405007	0.328397	-0.538671
C1003	C	0.379190	0.283807	-0.576581
C1004	C	0.377770	0.271583	-0.545255
H1005	H	0.381017	0.267745	-0.591747
H1006	H	0.353166	0.282522	-0.567672
H1007	H	0.404354	0.309450	-0.591576
H1008	H	0.352603	0.245943	-0.530258
H1009	H	0.403790	0.272864	-0.554162
O1010	O	0.224325	0.295805	-0.395854
C1011	C	0.232930	0.329399	-0.386336
H1012	H	0.269764	0.353182	-0.406419
H1013	H	0.222561	0.323650	-0.355540
C1014	C	0.161339	0.312522	-0.365743
C1015	C	0.206578	0.341734	-0.390411
H1016	H	0.145082	0.320130	-0.368255
H1017	H	0.155541	0.289889	-0.372154
H1018	H	0.152704	0.307734	-0.340082
H1019	H	0.215213	0.346518	-0.416072
H1020	H	0.212377	0.364368	-0.384004
O1021	O	0.099290	-0.322443	0.111081
C1022	C	0.088766	-0.301751	0.097450
H1023	H	0.109570	-0.270424	0.094511
H1024	H	0.052217	-0.314148	0.118480
C1025	C	0.072987	-0.343194	0.061735
C1026	C	0.098541	-0.304717	0.058122
H1027	H	0.079015	-0.345025	0.037476
H1028	H	0.080075	-0.357136	0.070920
H1029	H	0.042531	-0.353520	0.079261
H1030	H	0.128996	-0.294393	0.040600
H1031	H	0.091458	-0.290774	0.048933
H1032	H	-0.116983	-0.533275	0.365765
H1033	H	-0.117201	-0.533500	0.468702
H1034	H	-0.002500	-0.026531	-0.308780
