data_functionalizedCrystal
_audit_creation_method	'MofGen! by Chris Wilmer'
_symmetry_space_group_name_H-M	'P1'
_symmetry_Int_Tables_number	1
_symmetry_cell_setting	triclinic
loop_
_symmetry_equiv_pos_as_xyz
  x,y,z
_cell_length_a	16.109301
_cell_length_b	14.519709
_cell_length_c	15.186229
_cell_angle_alpha	89.995307
_cell_angle_beta	89.999362
_cell_angle_gamma	83.570813
loop_
_atom_site_label
_atom_site_type_symbol
_atom_site_fract_x
_atom_site_fract_y
_atom_site_fract_z
O1	O	1.103336	0.118540	-0.073175
O2	O	1.603336	0.618540	0.426825
O3	O	0.861299	0.133292	-0.073189
O4	O	1.361299	0.633292	0.426811
O5	O	0.988735	-0.008336	-0.073174
O6	O	1.488735	0.491664	0.426826
O7	O	0.975900	0.260168	-0.073190
O8	O	1.475900	0.760168	0.426810
O9	O	0.988726	-0.008338	0.073284
O10	O	1.488726	0.491662	0.573284
O11	O	0.861291	0.133290	0.073268
O12	O	1.361291	0.633290	0.573268
O13	O	1.103327	0.118538	0.073282
O14	O	1.603327	0.618538	0.573282
Zn15	Zn	0.982308	0.125914	0.096529
Zn16	Zn	1.482308	0.625914	0.596529
Zn17	Zn	0.982319	0.125916	-0.096435
Zn18	Zn	1.482319	0.625916	0.403565
O19	O	0.975892	0.260166	0.073267
O20	O	1.475892	0.760166	0.573267
C21	C	0.830319	0.132693	0.000038
C22	C	1.330319	0.632693	0.500038
C23	C	0.738021	0.130902	0.000033
C24	C	1.238021	0.630902	0.500033
C25	C	0.515887	0.210775	0.000038
C26	C	1.015887	0.710775	0.500038
C27	C	0.429163	0.209085	0.000044
C28	C	0.929163	0.709085	0.500044
C29	C	0.448747	0.041048	0.000050
C30	C	0.948747	0.541048	0.500050
C31	C	0.535468	0.042739	0.000051
C32	C	1.035468	0.542739	0.500051
C33	C	0.569036	0.127606	0.000040
C34	C	1.069036	0.627606	0.500040
C35	C	0.395591	0.124224	0.000045
C36	C	0.895591	0.624224	0.500045
C37	C	0.301562	0.122390	0.000052
C38	C	0.801562	0.622390	0.500052
C39	C	0.663071	0.129440	0.000036
C40	C	1.163071	0.629440	0.500036
C41	C	0.988132	-0.042696	0.000055
C42	C	1.488132	0.457304	0.500055
C43	C	0.986340	-0.145073	0.000056
C44	C	1.486340	0.354927	0.500056
C45	C	0.979741	-0.519955	0.000032
C46	C	1.479741	-0.019955	0.500032
C47	C	0.981574	-0.415651	0.000039
C48	C	1.481574	0.084349	0.500039
C49	C	0.983041	-0.332517	0.000045
C50	C	1.483041	0.167483	0.500045
C51	C	0.984873	-0.228207	0.000050
C52	C	1.484873	0.271793	0.500050
C53	C	1.134307	0.119136	0.000054
C54	C	1.634307	0.619136	0.500054
C55	C	1.226606	0.120928	0.000053
C56	C	1.726606	0.620928	0.500053
C57	C	0.976494	0.294526	0.000036
C58	C	1.476494	0.794526	0.500036
C59	C	0.978287	0.396903	0.000030
C60	C	1.478287	0.896903	0.500030
N61	N	0.982306	0.125911	0.228221
N62	N	1.482306	0.625911	0.728221
N63	N	0.982327	0.125911	-0.228128
N64	N	1.482327	0.625911	0.271872
C65	C	1.038754	0.063219	0.453951
C66	C	1.538754	0.563219	0.953951
C67	C	1.038756	0.063217	0.546141
C68	C	1.538756	0.563217	1.046141
C69	C	0.925873	0.188606	0.546136
C70	C	1.425873	0.688606	1.046136
C71	C	0.925867	0.188603	0.453948
C72	C	1.425867	0.688603	0.953948
C73	C	0.982312	0.125911	0.407858
C74	C	1.482312	0.625911	0.907858
C75	C	0.982321	0.125912	0.592236
C76	C	1.482321	0.625912	1.092236
C77	C	0.982323	0.125910	0.692192
C78	C	1.482323	0.625910	1.192192
C79	C	0.982309	0.125911	0.307895
C80	C	1.482309	0.625911	0.807895
H81	H	1.084714	0.012170	0.416427
H82	H	1.584714	0.512170	0.916427
O83	O	1.099642	-0.004388	0.595859
O84	O	1.599642	0.495612	1.095859
H85	H	1.138895	-0.047972	0.548319
H86	H	1.638895	0.452028	1.048319
O87	O	0.865004	0.256233	0.595846
O88	O	1.365004	0.756233	1.095846
H89	H	0.874496	0.245713	0.667694
H90	H	1.374496	0.745713	1.167694
O91	O	0.412543	-0.050485	0.000056
O92	O	0.912543	0.449515	0.500056
H93	H	0.343311	-0.037691	0.000047
H94	H	0.843311	0.462309	0.500047
O95	O	0.864992	0.256226	0.404223
O96	O	1.364992	0.756226	0.904223
H97	H	0.825752	0.299831	0.451758
H98	H	1.325752	0.799831	0.951758
H99	H	0.543214	0.279879	0.000036
H100	H	1.043214	0.779879	0.500036
H101	H	0.385892	0.276810	0.000044
H102	H	0.885892	0.776810	0.500044
O103	O	0.592798	-0.046973	0.000059
O104	O	1.092798	0.453027	0.500059
H105	H	0.658739	-0.031537	0.000069
H106	H	1.158739	0.468463	0.500069
