data_functionalizedCrystal
_audit_creation_method	'MofGen! by Chris Wilmer'
_symmetry_space_group_name_H-M	'P1'
_symmetry_Int_Tables_number	1
_symmetry_cell_setting	triclinic
loop_
_symmetry_equiv_pos_as_xyz
  x,y,z
_cell_length_a	16.120484
_cell_length_b	21.395362
_cell_length_c	21.395356
_cell_angle_alpha	90.035878
_cell_angle_beta	92.870655
_cell_angle_gamma	87.057600
loop_
_atom_site_label
_atom_site_type_symbol
_atom_site_fract_x
_atom_site_fract_y
_atom_site_fract_z
Zn1	Zn	-0.331576	-0.945196	-0.367212
Zn2	Zn	-0.081576	-0.695196	-0.117212
Zn3	Zn	0.168424	-0.445196	0.132788
Zn4	Zn	0.418424	-0.195196	0.382788
Zn5	Zn	-0.470997	-0.939809	-0.267744
Zn6	Zn	-0.220997	-0.689809	-0.017744
Zn7	Zn	0.029003	-0.439809	0.232256
Zn8	Zn	0.279003	-0.189809	0.482256
Zn9	Zn	-0.331639	-0.840423	-0.262416
Zn10	Zn	-0.081639	-0.590423	-0.012416
Zn11	Zn	0.168361	-0.340423	0.237584
Zn12	Zn	0.418361	-0.090423	0.487584
Zn13	Zn	-0.470991	-0.835077	-0.372448
Zn14	Zn	-0.220991	-0.585077	-0.122448
Zn15	Zn	0.029009	-0.335077	0.127552
Zn16	Zn	0.279009	-0.085077	0.377552
O17	O	-0.401301	-0.890126	-0.317455
O18	O	-0.151301	-0.640126	-0.067455
O19	O	0.098699	-0.390126	0.182545
O20	O	0.348699	-0.140126	0.432545
O21	O	-0.350047	-1.032160	-0.354056
O22	O	-0.100047	-0.782160	-0.104056
O23	O	0.149953	-0.532160	0.145944
O24	O	0.399953	-0.282160	0.395944
O25	O	-0.452540	-0.926609	-0.179360
O26	O	-0.202540	-0.676609	0.070640
O27	O	0.047460	-0.426609	0.320640
O28	O	0.297460	-0.176609	0.570640
O29	O	-0.214963	-0.858814	-0.271896
O30	O	0.035037	-0.608814	-0.021896
O31	O	0.285037	-0.358814	0.228104
O32	O	0.535037	-0.108814	0.478104
O33	O	-0.452479	-1.028203	-0.280977
O34	O	-0.202479	-0.778203	-0.030977
O35	O	0.047521	-0.528203	0.219023
O36	O	0.297521	-0.278203	0.469023
O37	O	-0.214917	-0.935790	-0.348889
O38	O	0.035083	-0.685790	-0.098889
O39	O	0.285083	-0.435790	0.151111
O40	O	0.535083	-0.185790	0.401111
O41	O	-0.350154	-0.853590	-0.175446
O42	O	-0.100154	-0.603590	0.074554
O43	O	0.149846	-0.353590	0.324554
O44	O	0.399846	-0.103590	0.574554
O45	O	-0.350147	-0.752035	-0.276973
O46	O	-0.100147	-0.502035	-0.026973
O47	O	0.149853	-0.252035	0.223027
O48	O	0.399853	-0.002035	0.473027
O49	O	-0.452469	-0.849701	-0.459430
O50	O	-0.202469	-0.599701	-0.209430
O51	O	0.047531	-0.349701	0.040570
O52	O	0.297531	-0.099701	0.290570
O53	O	-0.452529	-0.748107	-0.357814
O54	O	-0.202529	-0.498107	-0.107814
O55	O	0.047471	-0.248107	0.142186
O56	O	0.297471	0.001893	0.392186
O57	O	-0.350041	-0.930605	-0.455583
O58	O	-0.100041	-0.680605	-0.205583
O59	O	0.149959	-0.430605	0.044417
O60	O	0.399959	-0.180605	0.294417
O61	O	-0.587664	-0.921424	-0.286054
O62	O	-0.337664	-0.671424	-0.036054
O63	O	-0.087664	-0.421424	0.213946
O64	O	0.162336	-0.171424	0.463946
O65	O	-0.587660	-0.844478	-0.362980
O66	O	-0.337660	-0.594478	-0.112980
O67	O	-0.087660	-0.344478	0.137020
O68	O	0.162340	-0.094478	0.387020
C69	C	-0.401345	-0.727337	-0.317384
C70	C	-0.151345	-0.477337	-0.067384
C71	C	0.098655	-0.227337	0.182616
C72	C	0.348655	0.022663	0.432616
C73	C	-0.401384	-0.657694	-0.317369
C74	C	-0.151384	-0.407694	-0.067369
C75	C	0.098616	-0.157694	0.182631
C76	C	0.348616	0.092306	0.432631
C77	C	-0.617913	-0.881803	-0.325677
C78	C	-0.367913	-0.631803	-0.075677
C79	C	-0.117913	-0.381803	0.174323
C80	C	0.132087	-0.131803	0.424323
C81	C	-0.710580	-0.878300	-0.329216
C82	C	-0.460580	-0.628300	-0.079216
C83	C	-0.210580	-0.378300	0.170784
C84	C	0.039420	-0.128300	0.420784
C85	C	-0.401247	-0.890157	-0.480876
C86	C	-0.151247	-0.640157	-0.230876
C87	C	0.098753	-0.390157	0.019124
C88	C	0.348753	-0.140157	0.269124
C89	C	-0.401224	-0.890171	-0.550517
C90	C	-0.151224	-0.640171	-0.300517
C91	C	0.098776	-0.390171	-0.050517
C92	C	0.348776	-0.140171	0.199483
C93	C	-0.880244	-0.871908	-0.335689
C94	C	-0.630244	-0.621908	-0.085689
C95	C	-0.380244	-0.371908	0.164311
C96	C	-0.130244	-0.121908	0.414311
C97	C	-0.921517	-0.908457	-0.299231
C98	C	-0.671517	-0.658457	-0.049231
C99	C	-0.421517	-0.408457	0.200769
C100	C	-0.171517	-0.158457	0.450769
C101	C	-1.015924	-0.904900	-0.302833
C102	C	-0.765924	-0.654900	-0.052833
C103	C	-0.515924	-0.404900	0.197167
C104	C	-0.265924	-0.154900	0.447167
C105	C	-0.785829	-0.875464	-0.332088
C106	C	-0.535829	-0.625464	-0.082088
C107	C	-0.285829	-0.375464	0.167912
C108	C	-0.035829	-0.125464	0.417912
C109	C	-0.183843	-0.898499	-0.309214
C110	C	0.066157	-0.648499	-0.059214
C111	C	0.316157	-0.398499	0.190786
C112	C	0.566157	-0.148499	0.440786
C113	C	-0.091176	-0.902067	-0.305703
C114	C	0.158824	-0.652067	-0.055703
C115	C	0.408824	-0.402067	0.194297
C116	C	0.658824	-0.152067	0.444297
C117	C	-0.401257	-1.053551	-0.317527
C118	C	-0.151257	-0.803551	-0.067527
C119	C	0.098743	-0.553551	0.182473
C120	C	0.348743	-0.303551	0.432473
C121	C	-0.401239	-1.123193	-0.317557
C122	C	-0.151239	-0.873193	-0.067557
C123	C	0.098761	-0.623193	0.182443
C124	C	0.348761	-0.373193	0.432443
C125	C	-0.454765	-0.622949	-0.359405
C126	C	-0.204765	-0.372949	-0.109405
C127	C	0.045235	-0.122949	0.140595
C128	C	0.295235	0.127051	0.390595
C129	C	-0.454744	-0.557515	-0.359433
C130	C	-0.204744	-0.307515	-0.109433
C131	C	0.045256	-0.057515	0.140567
C132	C	0.295256	0.192485	0.390567
C133	C	-0.401352	-0.526827	-0.317413
C134	C	-0.151352	-0.276827	-0.067413
C135	C	0.098648	-0.026827	0.182587
C136	C	0.348648	0.223173	0.432587
C137	C	-0.347961	-0.561580	-0.275373
C138	C	-0.097961	-0.311580	-0.025373
C139	C	0.152039	-0.061580	0.224627
C140	C	0.402039	0.188420	0.474627
C141	C	-0.347977	-0.627014	-0.275351
C142	C	-0.097977	-0.377014	-0.025351
C143	C	0.152023	-0.127014	0.224649
C144	C	0.402023	0.122986	0.474649
C145	C	-0.394648	-0.423365	-0.260752
C146	C	-0.144648	-0.173365	-0.010752
C147	C	0.105352	0.076635	0.239248
C148	C	0.355352	0.326635	0.489248
C149	C	-0.394638	-0.357933	-0.260773
C150	C	-0.144638	-0.107933	-0.010773
C151	C	0.105362	0.142067	0.239227
C152	C	0.355362	0.392067	0.489227
C153	C	-0.401297	-0.325009	-0.317480
C154	C	-0.151297	-0.075009	-0.067480
C155	C	0.098703	0.174991	0.182520
C156	C	0.348703	0.424991	0.432520
C157	C	-0.407985	-0.357524	-0.374168
C158	C	-0.157985	-0.107524	-0.124168
C159	C	0.092015	0.142476	0.125832
C160	C	0.342015	0.392476	0.375832
C161	C	-0.408001	-0.422958	-0.374146
C162	C	-0.158001	-0.172958	-0.124146
C163	C	0.091999	0.077042	0.125854
C164	C	0.341999	0.327042	0.375854
C165	C	-0.401328	-0.455876	-0.317432
C166	C	-0.151328	-0.205876	-0.067432
C167	C	0.098672	0.044124	0.182568
C168	C	0.348672	0.294124	0.432568
C169	C	-0.454659	-0.219312	-0.359549
C170	C	-0.204659	0.030688	-0.109549
C171	C	0.045341	0.280688	0.140451
C172	C	0.295341	0.530688	0.390451
C173	C	-0.454633	-0.153876	-0.359577
C174	C	-0.204633	0.096124	-0.109577
C175	C	0.045367	0.346124	0.140423
C176	C	0.295367	0.596124	0.390423
C177	C	-0.347853	-0.157943	-0.275512
C178	C	-0.097853	0.092057	-0.025512
C179	C	0.152147	0.342057	0.224488
C180	C	0.402147	0.592057	0.474488
C181	C	-0.347875	-0.223377	-0.275489
C182	C	-0.097875	0.026623	-0.025489
C183	C	0.152125	0.276623	0.224511
C184	C	0.402125	0.526623	0.474511
C185	C	-0.401282	-0.254058	-0.317507
C186	C	-0.151282	-0.004058	-0.067507
C187	C	0.098718	0.245942	0.182493
C188	C	0.348718	0.495942	0.432493
C189	C	-0.347758	-0.932361	-1.050306
C190	C	-0.097758	-0.682361	-0.800306
C191	C	0.152242	-0.432361	-0.550306
C192	C	0.402242	-0.182361	-0.300306
C193	C	-0.347778	-0.932356	-0.984871
C194	C	-0.097778	-0.682356	-0.734871
C195	C	0.152222	-0.432356	-0.484871
C196	C	0.402222	-0.182356	-0.234871
C197	C	-0.401113	-0.890229	-0.954151
C198	C	-0.151113	-0.640229	-0.704151
C199	C	0.098887	-0.390229	-0.454151
C200	C	0.348887	-0.140229	-0.204151
C201	C	-0.454448	-0.848115	-0.988872
C202	C	-0.204448	-0.598115	-0.738872
C203	C	0.045552	-0.348115	-0.488872
C204	C	0.295552	-0.098115	-0.238872
C205	C	-0.454432	-0.848126	-1.054305
C206	C	-0.204432	-0.598126	-0.804305
C207	C	0.045568	-0.348126	-0.554305
C208	C	0.295568	-0.098126	-0.304305
C209	C	-0.407737	-0.833508	-0.850708
C210	C	-0.157737	-0.583508	-0.600708
C211	C	0.092263	-0.333508	-0.350708
C212	C	0.342263	-0.083508	-0.100708
C213	C	-0.407747	-0.833496	-0.785275
C214	C	-0.157747	-0.583496	-0.535275
C215	C	0.092253	-0.333496	-0.285275
C216	C	0.342253	-0.083496	-0.035275
C217	C	-0.401167	-0.890194	-0.752332
C218	C	-0.151167	-0.640194	-0.502332
C219	C	0.098833	-0.390194	-0.252332
C220	C	0.348833	-0.140194	-0.002332
C221	C	-0.394560	-0.946908	-0.784829
C222	C	-0.144560	-0.696908	-0.534829
C223	C	0.105440	-0.446908	-0.284829
C224	C	0.355440	-0.196908	-0.034829
C225	C	-0.394544	-0.946919	-0.850262
C226	C	-0.144544	-0.696919	-0.600262
C227	C	0.105456	-0.446919	-0.350262
C228	C	0.355456	-0.196919	-0.100262
C229	C	-0.401137	-0.890212	-0.883199
C230	C	-0.151137	-0.640212	-0.633199
C231	C	0.098863	-0.390212	-0.383199
C232	C	0.348863	-0.140212	-0.133199
C233	C	-0.347861	-0.932302	-0.646668
C234	C	-0.097861	-0.682302	-0.396668
C235	C	0.152139	-0.432302	-0.146668
C236	C	0.402139	-0.182302	0.103332
C237	C	-0.347887	-0.932298	-0.581232
C238	C	-0.097887	-0.682298	-0.331232
C239	C	0.152113	-0.432298	-0.081232
C240	C	0.402113	-0.182298	0.168768
C241	C	-0.454553	-0.848051	-0.585234
C242	C	-0.204553	-0.598051	-0.335234
C243	C	0.045447	-0.348051	-0.085234
C244	C	0.295447	-0.098051	0.164766
C245	C	-0.454532	-0.848061	-0.650668
C246	C	-0.204532	-0.598061	-0.400668
C247	C	0.045468	-0.348061	-0.150668
C248	C	0.295468	-0.098061	0.099332
C249	C	-0.401181	-0.890186	-0.681381
C250	C	-0.151181	-0.640186	-0.431381
C251	C	0.098819	-0.390186	-0.181381
C252	C	0.348819	-0.140186	0.068619
C253	C	-0.401294	-0.890134	-0.154667
C254	C	-0.151294	-0.640134	0.095333
C255	C	0.098706	-0.390134	0.345333
C256	C	0.348706	-0.140134	0.595333
C257	C	-0.401082	-0.890251	-0.085018
C258	C	-0.151082	-0.640251	0.164982
C259	C	0.098918	-0.390251	0.414982
C260	C	0.348918	-0.140251	0.664982
H261	H	-0.885949	-0.942419	-0.265314
H262	H	-0.635949	-0.692419	-0.015314
H263	H	-0.385949	-0.442419	0.234686
H264	H	-0.135949	-0.192419	0.484686
H265	H	-0.915809	-0.837948	-0.369603
H266	H	-0.665809	-0.587948	-0.119603
H267	H	-0.415809	-0.337948	0.130397
H268	H	-0.165809	-0.087948	0.380397
H269	H	-0.498252	-0.647925	-0.393620
H270	H	-0.248252	-0.397925	-0.143620
H271	H	0.001748	-0.147925	0.106380
H272	H	0.251748	0.102075	0.356380
Br273	Br	-0.275441	-0.989457	-0.688353
Br274	Br	-0.025441	-0.739457	-0.438353
Br275	Br	0.224559	-0.489457	-0.188353
Br276	Br	0.474559	-0.239457	0.061647
Br277	Br	-0.526838	-0.790945	-0.947182
Br278	Br	-0.276838	-0.540945	-0.697182
Br279	Br	-0.026838	-0.290945	-0.447182
Br280	Br	0.223162	-0.040945	-0.197182
Br281	Br	-0.275426	-0.270535	-0.218437
Br282	Br	-0.025426	-0.020535	0.031563
Br283	Br	0.224574	0.229465	0.281563
Br284	Br	0.474574	0.479465	0.531563
H285	H	-0.389199	-0.993077	-0.758008
H286	H	-0.139199	-0.743077	-0.508008
H287	H	0.110801	-0.493077	-0.258008
H288	H	0.360801	-0.243077	-0.008008
H289	H	-0.304319	-0.966666	-1.075308
H290	H	-0.054319	-0.716666	-0.825308
H291	H	0.195681	-0.466666	-0.575308
H292	H	0.445681	-0.216666	-0.325308
H293	H	-0.413443	-0.449429	-0.420304
H294	H	-0.163443	-0.199429	-0.170304
H295	H	0.086557	0.050571	0.079696
H296	H	0.336557	0.300571	0.329696
Br297	Br	-0.417021	-0.312850	-0.451133
Br298	Br	-0.167021	-0.062850	-0.201133
Br299	Br	0.082979	0.187150	0.048867
Br300	Br	0.332979	0.437150	0.298867
H301	H	-0.498213	-0.529220	-0.393666
H302	H	-0.248213	-0.279220	-0.143666
H303	H	0.001787	-0.029220	0.106334
H304	H	0.251787	0.220780	0.356334
H305	H	-0.498142	-0.244293	-0.393765
H306	H	-0.248142	0.005707	-0.143765
H307	H	0.001858	0.255707	0.106235
H308	H	0.251858	0.505707	0.356235
H309	H	-0.498100	-0.125588	-0.393812
H310	H	-0.248100	0.124412	-0.143812
H311	H	0.001900	0.374412	0.106188
H312	H	0.251900	0.624412	0.356188
H313	H	-0.304376	-0.132958	-0.241301
H314	H	-0.054376	0.117042	0.008699
H315	H	0.195624	0.367042	0.258699
H316	H	0.445624	0.617042	0.508699
Br317	Br	-0.385564	-0.313811	-0.183840
Br318	Br	-0.135564	-0.063811	0.066160
Br319	Br	0.114436	0.186189	0.316160
Br320	Br	0.364436	0.436189	0.566160
H321	H	-0.389222	-0.450167	-0.214571
H322	H	-0.139222	-0.200167	0.035429
H323	H	0.110778	0.049833	0.285429
H324	H	0.360778	0.299833	0.535429
H325	H	-0.304487	-0.536590	-0.241161
H326	H	-0.054487	-0.286590	0.008839
H327	H	0.195513	-0.036590	0.258839
H328	H	0.445513	0.213410	0.508839
H329	H	-0.389166	-0.993096	-0.876719
H330	H	-0.139166	-0.743096	-0.626719
H331	H	0.110834	-0.493096	-0.376719
H332	H	0.360834	-0.243096	-0.126719
H333	H	-0.304505	-0.655303	-0.241120
H334	H	-0.054505	-0.405303	0.008880
H335	H	0.195495	-0.155303	0.258880
H336	H	0.445495	0.094697	0.508880
H337	H	-0.304352	-0.966647	-0.956603
H338	H	-0.054352	-0.716647	-0.706603
H339	H	0.195648	-0.466647	-0.456603
H340	H	0.445648	-0.216647	-0.206603
Br341	Br	-0.275519	-0.989458	-0.534121
Br342	Br	-0.025519	-0.739458	-0.284121
Br343	Br	0.224481	-0.489458	-0.034121
Br344	Br	0.474481	-0.239458	0.215879
H345	H	-0.497983	-0.813753	-0.560222
H346	H	-0.247983	-0.563753	-0.310222
H347	H	0.002017	-0.313753	-0.060222
H348	H	0.252017	-0.063753	0.189778
Br349	Br	-0.526905	-0.790908	-0.697781
Br350	Br	-0.276905	-0.540908	-0.447781
Br351	Br	-0.026905	-0.290908	-0.197781
Br352	Br	0.223095	-0.040908	0.052219
Br353	Br	-0.416701	-0.756529	-0.741179
Br354	Br	-0.166701	-0.506529	-0.491179
Br355	Br	0.083299	-0.256529	-0.241179
Br356	Br	0.333299	-0.006529	0.008821
Br357	Br	-0.526809	-0.790973	-1.101418
Br358	Br	-0.276809	-0.540973	-0.851418
Br359	Br	-0.026809	-0.290973	-0.601418
Br360	Br	0.223191	-0.040973	-0.351418
Br361	Br	-0.416657	-0.756552	-0.895410
Br362	Br	-0.166657	-0.506552	-0.645410
Br363	Br	0.083343	-0.256552	-0.395410
Br364	Br	0.333343	-0.006552	-0.145410
