data_functionalizedCrystal
_audit_creation_method	'MofGen! by Chris Wilmer'
_symmetry_space_group_name_H-M	'P1'
_symmetry_Int_Tables_number	1
_symmetry_cell_setting	triclinic
loop_
_symmetry_equiv_pos_as_xyz
  x,y,z
_cell_length_a	14.044191
_cell_length_b	23.532357
_cell_length_c	13.101039
_cell_angle_alpha	93.334957
_cell_angle_beta	86.337551
_cell_angle_gamma	88.010034
loop_
_atom_site_label
_atom_site_type_symbol
_atom_site_fract_x
_atom_site_fract_y
_atom_site_fract_z
O1	O	1.261616	0.134378	-0.085188
O2	O	1.761616	0.634378	0.414812
O3	O	0.985695	0.129421	-0.085200
O4	O	1.485695	0.629421	0.414800
O5	O	1.131999	0.049419	-0.085173
O6	O	1.631999	0.549419	0.414827
O7	O	1.115312	0.214380	-0.085215
O8	O	1.615312	0.714380	0.414785
O9	O	1.121502	0.055170	0.085255
O10	O	1.621502	0.555170	0.585255
O11	O	0.975198	0.135172	0.085228
O12	O	1.475198	0.635172	0.585228
O13	O	1.251119	0.140129	0.085240
O14	O	1.751119	0.640129	0.585240
Zn15	Zn	1.111492	0.138563	0.112293
Zn16	Zn	1.611492	0.638563	0.612293
Zn17	Zn	1.125322	0.130987	-0.112253
Zn18	Zn	1.625322	0.630987	0.387747
O19	O	1.104815	0.220131	0.085212
O20	O	1.604815	0.720131	0.585212
C21	C	0.945153	0.130128	0.000013
C22	C	1.445153	0.630128	0.500013
C23	C	0.839990	0.123661	0.000009
C24	C	1.339990	0.623661	0.500009
C25	C	0.589373	0.157706	0.000010
C26	C	1.089373	0.657706	0.500010
C27	C	0.647447	0.111846	0.000020
C28	C	1.147447	0.611846	0.500020
C29	C	0.754588	0.118421	0.000014
C30	C	1.254588	0.618421	0.500014
C31	C	0.482222	0.151132	0.000017
C32	C	0.982222	0.651132	0.500017
C33	C	1.126333	0.031055	0.000045
C34	C	1.626333	0.531055	0.500045
C35	C	1.125077	-0.032231	0.000054
C36	C	1.625077	0.467769	0.500054
C37	C	1.122923	-0.427806	-0.092902
C38	C	1.622923	0.072194	0.407098
C39	C	1.121730	-0.487270	-0.092908
C40	C	1.621730	0.012730	0.407092
O41	O	1.125947	-0.520688	-0.171916
O42	O	1.625947	-0.020688	0.328084
N43	N	1.115417	-0.513879	-0.000009
N44	N	1.615417	-0.013879	0.499991
C45	C	1.110286	-0.481020	0.092902
C46	C	1.610286	0.018980	0.592902
O47	O	1.104805	-0.509113	0.171919
O48	O	1.604805	-0.009113	0.671919
C49	C	1.111472	-0.421556	0.092907
C50	C	1.611472	0.078444	0.592907
C51	C	1.117795	-0.394951	0.000002
C52	C	1.617795	0.105049	0.500002
C53	C	1.129245	-0.401200	-0.185799
C54	C	1.629245	0.098800	0.314201
C55	C	1.130440	-0.341740	-0.185793
C56	C	1.630440	0.158260	0.314207
C57	C	1.125312	-0.308885	-0.092889
C58	C	1.625312	0.191115	0.407111
C59	C	1.118990	-0.335491	0.000008
C60	C	1.618990	0.164509	0.500008
C61	C	1.106334	-0.388698	0.185817
C62	C	1.606334	0.111302	0.685817
C63	C	1.107520	-0.329231	0.185814
C64	C	1.607520	0.170769	0.685814
C65	C	1.113844	-0.302626	0.092909
C66	C	1.613844	0.197374	0.592909
C67	C	1.115057	-0.243176	0.092918
C68	C	1.615057	0.256824	0.592918
N69	N	1.121370	-0.216567	0.000019
N70	N	1.621370	0.283433	0.500019
C71	C	1.126498	-0.249422	-0.092884
C72	C	1.626498	0.250578	0.407116
C73	C	1.107794	-0.605897	0.092885
C74	C	1.607794	-0.105897	0.592885
C75	C	1.106615	-0.665360	0.092881
C76	C	1.606615	-0.165360	0.592881
C77	C	1.118057	-0.671606	-0.092929
C78	C	1.618057	-0.171606	0.407071
C79	C	1.119243	-0.612142	-0.092924
C80	C	1.619243	-0.112142	0.407076
C81	C	1.114107	-0.579288	-0.000014
C82	C	1.614107	-0.079288	0.499986
C83	C	1.129007	-0.124551	-0.092864
C84	C	1.629007	0.375449	0.407136
C85	C	1.130205	-0.065086	-0.092850
C86	C	1.630205	0.434914	0.407150
C87	C	1.118757	-0.058844	0.092960
C88	C	1.618757	0.441156	0.592960
C89	C	1.117564	-0.118305	0.092946
C90	C	1.617564	0.381695	0.592946
C91	C	1.122686	-0.151157	0.000026
C92	C	1.622686	0.348843	0.500026
O93	O	1.110839	-0.209722	0.171886
O94	O	1.610839	0.290278	0.671886
O95	O	1.131965	-0.221321	-0.171888
O96	O	1.631965	0.278679	0.328112
C97	C	1.291661	0.139422	0.000025
C98	C	1.791661	0.639422	0.500025
C99	C	1.396824	0.145889	0.000022
C100	C	1.896824	0.645889	0.500022
C101	C	1.110481	0.238495	-0.000007
C102	C	1.610481	0.738495	0.499993
C103	C	1.111737	0.301781	-0.000023
C104	C	1.611737	0.801781	0.499977
N105	N	1.102060	0.143734	0.265540
N106	N	1.602060	0.643734	0.765540
N107	N	1.134762	0.125812	-0.265500
N108	N	1.634762	0.625812	0.234500
C109	C	1.089227	0.150774	0.474580
C110	C	1.589227	0.650774	0.974580
C111	C	1.147592	0.118773	0.525466
C112	C	1.647592	0.618773	1.025466
C113	C	1.140451	0.122691	0.641784
C114	C	1.640451	0.622691	1.141784
C115	C	1.096366	0.146858	0.358252
C116	C	1.596366	0.646858	0.858252
H117	H	1.133173	-0.151293	-0.168529
H118	H	1.633173	0.348707	0.331471
H119	H	1.033901	0.181111	0.518367
H120	H	1.533901	0.681111	1.018367
H121	H	0.616705	0.067643	-0.000040
H122	H	1.116705	0.567643	0.499960
H123	H	0.620118	0.201903	-0.000004
H124	H	1.120118	0.701903	0.499996
H125	H	1.135357	-0.043427	-0.168507
H126	H	1.635357	0.456573	0.331493
H127	H	1.202922	0.088435	0.481675
H128	H	1.702922	0.588435	0.981675
C129	C	1.137378	-0.312481	-0.287989
C130	C	1.637378	0.187519	0.212011
H131	H	1.140249	-0.340571	-0.343312
H132	H	1.640249	0.159429	0.156688
H133	H	1.193331	-0.290950	-0.291864
H134	H	1.693331	0.209050	0.208136
H135	H	1.082813	-0.287880	-0.291850
H136	H	1.582813	0.212120	0.208150
H137	H	1.124391	-0.590485	-0.168576
H138	H	1.624391	-0.090485	0.331424
C139	C	1.134896	-0.437332	-0.288002
C140	C	1.634896	0.062668	0.211998
H141	H	1.138839	-0.412962	-0.343319
H142	H	1.638839	0.087038	0.156681
H143	H	1.079422	-0.459125	-0.291889
H144	H	1.579422	0.040875	0.208111
H145	H	1.189938	-0.462192	-0.291863
H146	H	1.689938	0.037808	0.208137
H147	H	1.122229	-0.698367	-0.168577
H148	H	1.622229	-0.198367	0.331423
H149	H	1.101480	-0.687017	0.168534
H150	H	1.601480	-0.187017	0.668534
H151	H	1.103614	-0.579151	0.168548
H152	H	1.603614	-0.079151	0.668548
H153	H	1.101186	-0.410350	0.261470
H154	H	1.601186	0.089650	0.761470
C155	C	1.101871	-0.293092	0.288015
C156	C	1.601871	0.206908	0.788015
H157	H	1.103479	-0.253866	0.274720
H158	H	1.603479	0.246134	0.774720
H159	H	1.154576	-0.303094	0.326194
H160	H	1.654576	0.196906	0.826194
H161	H	1.044060	-0.300016	0.326174
H162	H	1.544060	0.199984	0.826174
C163	C	1.110611	-0.147572	0.195138
C164	C	1.610611	0.352428	0.695138
H165	H	1.107724	-0.119486	0.250468
H166	H	1.607724	0.380514	0.750468
H167	H	1.165156	-0.172183	0.199008
H168	H	1.665156	0.327817	0.699008
H169	H	1.054639	-0.169093	0.198990
H170	H	1.554639	0.330907	0.698990
H171	H	1.114587	-0.032084	0.168600
H172	H	1.614587	0.467916	0.668600
