data_functionalizedCrystal
_audit_creation_method	'MofGen! by Chris Wilmer'
_symmetry_space_group_name_H-M	'P1'
_symmetry_Int_Tables_number	1
_symmetry_cell_setting	triclinic
loop_
_symmetry_equiv_pos_as_xyz
  x,y,z
_cell_length_a	18.215407
_cell_length_b	16.120444
_cell_length_c	16.120256
_cell_angle_alpha	84.383140
_cell_angle_beta	87.119259
_cell_angle_gamma	92.923925
loop_
_atom_site_label
_atom_site_type_symbol
_atom_site_fract_x
_atom_site_fract_y
_atom_site_fract_z
Zn1	Zn	1.087185	-0.356817	0.489416
Zn2	Zn	1.420518	-0.023484	0.822749
Zn3	Zn	1.753851	0.309849	1.156083
Zn4	Zn	1.087090	-0.489504	0.356727
Zn5	Zn	1.420423	-0.156170	0.690061
Zn6	Zn	1.753756	0.177163	1.023394
Zn7	Zn	0.970689	-0.349743	0.349666
Zn8	Zn	1.304023	-0.016410	0.682999
Zn9	Zn	1.637356	0.316923	1.016333
Zn10	Zn	0.957510	-0.496543	0.496456
Zn11	Zn	1.290843	-0.163210	0.829790
Zn12	Zn	1.624177	0.170124	1.163123
O13	O	1.025618	-0.423152	0.423066
O14	O	1.358952	-0.089819	0.756400
O15	O	1.692285	0.243515	1.089733
O16	O	1.190155	-0.374433	0.471823
O17	O	1.523488	-0.041100	0.805157
O18	O	1.856822	0.292234	1.138490
O19	O	1.077125	-0.465058	0.238828
O20	O	1.410458	-0.131724	0.572161
O21	O	1.743792	0.201609	0.905495
O22	O	0.991698	-0.233716	0.362303
O23	O	1.325031	0.099617	0.695636
O24	O	1.658365	0.432951	1.028969
O25	O	1.190086	-0.471917	0.374338
O26	O	1.523419	-0.138584	0.707671
O27	O	1.856752	0.194750	1.041004
O28	O	1.077286	-0.238913	0.464976
O29	O	1.410620	0.094420	0.798310
O30	O	1.743953	0.427753	1.131643
O31	O	0.991606	-0.362377	0.233640
O32	O	1.324939	-0.029043	0.566973
O33	O	1.658273	0.304290	0.900307
O34	O	0.865958	-0.369202	0.369129
O35	O	1.199291	-0.035869	0.702462
O36	O	1.532625	0.297465	1.035796
O37	O	0.969236	-0.483914	0.612485
O38	O	1.302569	-0.150581	0.945818
O39	O	1.635902	0.182752	1.279152
O40	O	0.856275	-0.477055	0.476975
O41	O	1.189609	-0.143722	0.810309
O42	O	1.522942	0.189612	1.143642
O43	O	1.064507	-0.381259	0.607313
O44	O	1.397840	-0.047925	0.940646
O45	O	1.731174	0.285408	1.273979
O46	O	1.064346	-0.607403	0.381164
O47	O	1.397679	-0.274070	0.714498
O48	O	1.731012	0.059264	1.047831
O49	O	0.969144	-0.612575	0.483822
O50	O	1.302477	-0.279241	0.817156
O51	O	1.635811	0.054092	1.150489
C52	C	0.834414	-0.423125	0.423050
C53	C	1.167747	-0.089792	0.756384
C54	C	1.501081	0.243541	1.089717
C55	C	0.752614	-0.423135	0.423064
C56	C	1.085947	-0.089802	0.756398
C57	C	1.419281	0.243531	1.089731
C58	C	0.564446	-0.372490	0.473915
C59	C	0.897780	-0.039156	0.807249
C60	C	1.231113	0.294177	1.140582
C61	C	0.487587	-0.372497	0.473918
C62	C	0.820920	-0.039164	0.807252
C63	C	1.154254	0.294170	1.140585
C64	C	0.487541	-0.473838	0.372233
C65	C	0.820874	-0.140505	0.705567
C66	C	1.154208	0.192828	1.038900
C67	C	0.564399	-0.473826	0.372226
C68	C	0.897732	-0.140493	0.705560
C69	C	1.231066	0.192841	1.038893
C70	C	0.602849	-0.423153	0.423072
C71	C	0.936183	-0.089820	0.756405
C72	C	1.269516	0.243514	1.089739
C73	C	0.449132	-0.423173	0.423082
C74	C	0.782465	-0.089839	0.756416
C75	C	1.115799	0.243494	1.089749
C76	C	0.365798	-0.423181	0.423085
C77	C	0.699131	-0.089848	0.756419
C78	C	1.032465	0.243486	1.089752
C79	C	0.686189	-0.423143	0.423068
C80	C	1.019522	-0.089810	0.756401
C81	C	1.352856	0.243523	1.089735
C82	C	1.015324	-0.640318	0.434042
C83	C	1.348657	-0.306984	0.767375
C84	C	1.681990	0.026349	1.100709
C85	C	1.010985	-0.733224	0.438765
C86	C	1.344319	-0.399890	0.772099
C87	C	1.677652	-0.066557	1.105432
C88	C	1.048295	-0.942134	0.398744
C89	C	1.381628	-0.608801	0.732077
C90	C	1.714961	-0.275468	1.065411
C91	C	1.003078	-0.903319	0.447398
C92	C	1.336411	-0.569985	0.780731
C93	C	1.669745	-0.236652	1.114064
C94	C	1.007479	-0.808669	0.442593
C95	C	1.340812	-0.475336	0.775926
C96	C	1.674146	-0.142002	1.109260
C97	C	1.043895	-1.036792	0.403547
C98	C	1.377228	-0.703459	0.736881
C99	C	1.710562	-0.370126	1.070214
C100	C	1.217569	-0.423179	0.423083
C101	C	1.550903	-0.089846	0.756416
C102	C	1.884236	0.243488	1.089750
C103	C	1.299367	-0.423191	0.423090
C104	C	1.632701	-0.089857	0.756423
C105	C	1.966034	0.243476	1.089757
C106	C	1.015412	-0.434161	0.641074
C107	C	1.348745	-0.100828	0.974407
C108	C	1.682079	0.232506	1.307741
C109	C	1.011062	-0.438852	0.733976
C110	C	1.344396	-0.105519	1.067309
C111	C	1.677729	0.227814	1.400643
C112	C	1.035973	-0.205139	0.412066
C113	C	1.369306	0.128194	0.745400
C114	C	1.702639	0.461528	1.078733
C115	C	1.040385	-0.112235	0.407379
C116	C	1.373718	0.221099	0.740712
C117	C	1.707052	0.554432	1.074045
C118	C	1.035831	-0.412125	0.205904
C119	C	1.369164	-0.078792	0.539237
C120	C	1.702497	0.254541	0.872570
C121	C	1.040334	-0.407199	0.112991
C122	C	1.373667	-0.073865	0.446324
C123	C	1.707000	0.259468	0.779657
C124	C	1.048300	-0.398665	0.942900
C125	C	1.381633	-0.065332	1.276233
C126	C	1.714967	0.268001	1.609566
C127	C	1.003098	-0.447383	0.904061
C128	C	1.336432	-0.114049	1.237395
C129	C	1.669765	0.219284	1.570728
C130	C	1.007531	-0.442635	0.809417
C131	C	1.340864	-0.109302	1.142750
C132	C	1.674198	0.224032	1.476084
C133	C	1.043868	-0.403412	1.037553
C134	C	1.377202	-0.070079	1.370886
C135	C	1.710535	0.263254	1.704219
H136	H	0.456323	-0.331240	0.515319
H137	H	0.789656	0.002093	0.848652
H138	H	1.122989	0.335426	1.181985
H139	H	0.961061	-0.941172	0.492659
H140	H	1.294395	-0.607839	0.825993
H141	H	1.627728	-0.274505	1.159326
H142	H	1.090308	-0.904285	0.353484
H143	H	1.423641	-0.570952	0.686818
H144	H	1.756975	-0.237619	1.020151
H145	H	0.961067	-0.492652	0.941891
H146	H	1.294401	-0.159319	1.275224
H147	H	1.627734	0.174015	1.608557
H148	H	1.090324	-0.353396	0.905072
H149	H	1.423658	-0.020062	1.238406
H150	H	1.756991	0.313271	1.571739
H151	H	0.456225	-0.515095	0.330837
H152	H	0.789558	-0.181762	0.664171
H153	H	1.122892	0.151572	0.997504
H154	H	0.595668	-0.515083	0.330819
H155	H	0.929001	-0.181749	0.664153
H156	H	1.262335	0.151584	0.997486
H157	H	0.595751	-0.331226	0.515314
H158	H	0.929084	0.002107	0.848648
H159	H	1.262417	0.335441	1.181981
