data_functionalizedCrystal
_audit_creation_method	'MofGen! by Chris Wilmer'
_symmetry_space_group_name_H-M	'P1'
_symmetry_Int_Tables_number	1
_symmetry_cell_setting	triclinic
loop_
_symmetry_equiv_pos_as_xyz
  x,y,z
_cell_length_a	13.897449
_cell_length_b	21.295417
_cell_length_c	13.897441
_cell_angle_alpha	90.035375
_cell_angle_beta	90.020733
_cell_angle_gamma	90.030982
loop_
_atom_site_label
_atom_site_type_symbol
_atom_site_fract_x
_atom_site_fract_y
_atom_site_fract_z
Zn1	Zn	1.474622	-0.250568	0.545349
Zn2	Zn	1.974622	0.249432	1.045349
Zn3	Zn	1.474482	-0.355847	0.384037
Zn4	Zn	1.974482	0.144153	0.884037
Zn5	Zn	1.313311	-0.250598	0.384068
Zn6	Zn	1.813311	0.249402	0.884068
Zn7	Zn	1.313259	-0.355805	0.545290
Zn8	Zn	1.813259	0.144195	1.045290
O9	O	1.393919	-0.303204	0.464686
O10	O	1.893919	0.196796	0.964686
O11	O	1.609585	-0.264538	0.523963
O12	O	2.109585	0.235462	1.023963
O13	O	1.453066	-0.341915	0.249059
O14	O	1.953066	0.158085	0.749059
O15	O	1.334790	-0.162504	0.405499
O16	O	1.834790	0.337496	0.905499
O17	O	1.609482	-0.341886	0.405448
O18	O	2.109482	0.158114	0.905448
O19	O	1.453304	-0.162482	0.523992
O20	O	1.953304	0.337518	1.023992
O21	O	1.334654	-0.264589	0.249082
O22	O	1.834654	0.235411	0.749082
O23	O	1.178323	-0.264549	0.405442
O24	O	1.678323	0.235451	0.905442
O25	O	1.334701	-0.341815	0.680279
O26	O	1.834701	0.158185	1.180279
O27	O	1.178284	-0.341844	0.523891
O28	O	1.678284	0.158156	1.023891
O29	O	1.453254	-0.264498	0.680323
O30	O	1.953254	0.235502	1.180323
O31	O	1.453015	-0.443931	0.405390
O32	O	1.953015	0.056069	0.905390
O33	O	1.334565	-0.443900	0.523862
O34	O	1.834565	0.056100	1.023862
C35	C	1.143304	-0.303196	0.464664
C36	C	1.643304	0.196804	0.964664
C37	C	1.036090	-0.303207	0.464677
C38	C	1.536090	0.196793	0.964677
C39	C	0.839795	-0.303210	0.464703
C40	C	1.339795	0.196790	0.964703
C41	C	0.949028	-0.303207	0.464686
C42	C	1.449028	0.196793	0.964686
C43	C	1.393796	-0.466756	0.464637
C44	C	1.893796	0.033244	0.964637
C45	C	1.393831	-0.536724	0.464648
C46	C	1.893831	-0.036724	0.964648
C47	C	1.455507	-0.569522	0.526392
C48	C	1.955507	-0.069522	1.026392
C49	C	1.455541	-0.635265	0.526416
C50	C	1.955541	-0.135265	1.026416
C51	C	1.393910	-0.668207	0.464679
C52	C	1.893910	-0.168207	0.964679
C53	C	1.332223	-0.635401	0.402931
C54	C	1.832223	-0.135401	0.902931
C55	C	1.332183	-0.569659	0.402916
C56	C	1.832183	-0.069659	0.902916
N57	N	1.386620	-0.771473	0.380261
N58	N	1.886620	-0.271473	0.880261
N59	N	1.386663	-0.833925	0.380279
N60	N	1.886663	-0.333925	0.880279
C61	C	1.394022	-0.866281	0.464722
C62	C	1.894022	-0.366281	0.964722
N63	N	1.401356	-0.833827	0.549150
N64	N	1.901356	-0.333827	1.049150
N65	N	1.401318	-0.771370	0.549132
N66	N	1.901318	-0.271370	1.049132
C67	C	1.393945	-0.739492	0.464689
C68	C	1.893945	-0.239492	0.964689
C69	C	1.455738	-0.970365	0.526497
C70	C	1.955738	-0.470365	1.026497
C71	C	1.455765	-1.036108	0.526522
C72	C	1.955765	-0.536108	1.026522
C73	C	1.332452	-1.036243	0.403029
C74	C	1.832452	-0.536243	0.903029
C75	C	1.332420	-0.970501	0.403012
C76	C	1.832420	-0.470501	0.903012
C77	C	1.394068	-0.937565	0.464745
C78	C	1.894068	-0.437565	0.964745
C79	C	1.645512	-0.303213	0.464708
C80	C	2.145512	0.196787	0.964708
C81	C	1.752726	-0.303217	0.464718
C82	C	2.252726	0.196783	0.964718
C83	C	1.393987	-0.303149	0.716279
C84	C	1.893987	0.196851	1.216279
C85	C	1.394016	-0.303125	0.823493
C86	C	1.894016	0.196875	1.323493
C87	C	1.394068	-0.139014	0.464756
C88	C	1.894068	0.360986	0.964756
C89	C	1.394132	-0.069046	0.464786
C90	C	1.894132	0.430954	0.964786
C91	C	1.393906	-0.303214	0.214072
C92	C	1.893906	0.196786	0.714072
C93	C	1.394064	-0.303061	0.106858
C94	C	1.894064	0.196939	0.606858
C95	C	1.394043	-0.303082	1.019788
C96	C	1.894043	0.196918	1.519788
C97	C	1.394025	-0.303108	0.910556
C98	C	1.894025	0.196892	1.410556
H99	H	1.505702	-0.542708	0.576660
H100	H	2.005702	-0.042708	1.076660
H101	H	1.505932	-0.943548	0.576766
H102	H	2.005932	-0.443548	1.076766
H103	H	1.505988	-1.062811	0.576805
H104	H	2.005988	-0.562811	1.076805
F105	F	1.266856	-1.071298	0.337326
F106	F	1.766856	-0.571298	0.837326
H107	H	1.505756	-0.661974	0.576706
H108	H	2.005756	-0.161974	1.076706
H109	H	1.282040	-0.662226	0.352667
H110	H	1.782040	-0.162226	0.852667
F111	F	1.266776	-0.935593	0.337295
F112	F	1.766776	-0.435593	0.837295
H113	H	1.281959	-0.542955	0.352636
H114	H	1.781959	-0.042955	0.852636
