data_functionalizedCrystal
_audit_creation_method	'MofGen! by Chris Wilmer'
_symmetry_space_group_name_H-M	'P1'
_symmetry_Int_Tables_number	1
_symmetry_cell_setting	triclinic
loop_
_symmetry_equiv_pos_as_xyz
  x,y,z
_cell_length_a	17.699083
_cell_length_b	12.996460
_cell_length_c	17.699083
_cell_angle_alpha	90.007036
_cell_angle_beta	96.717152
_cell_angle_gamma	89.995129
loop_
_atom_site_label
_atom_site_type_symbol
_atom_site_fract_x
_atom_site_fract_y
_atom_site_fract_z
O1	O	-1.004077	0.085551	0.095710
O2	O	-0.670744	0.418885	0.429043
O3	O	-0.337411	0.752218	0.762376
O4	O	-0.783699	0.085558	0.108163
O5	O	-0.450365	0.418891	0.441496
O6	O	-0.117032	0.752224	0.774829
O7	O	-0.900114	0.085545	-0.008253
O8	O	-0.566781	0.418879	0.325080
O9	O	-0.233448	0.752212	0.658414
O10	O	-0.887662	0.085564	0.212125
O11	O	-0.554328	0.418897	0.545459
O12	O	-0.220995	0.752230	0.878792
O13	O	-0.900102	-0.085589	-0.008259
O14	O	-0.566769	0.247745	0.325074
O15	O	-0.233435	0.581078	0.658407
O16	O	-0.783687	-0.085576	0.108156
O17	O	-0.450353	0.247757	0.441490
O18	O	-0.117020	0.581090	0.774823
O19	O	-1.004065	-0.085582	0.095703
O20	O	-0.670732	0.247751	0.429037
O21	O	-0.337398	0.581084	0.762370
Cu22	Cu	-0.893875	-0.101205	0.101929
Cu23	Cu	-0.560541	0.232128	0.435263
Cu24	Cu	-0.227208	0.565462	0.768596
Cu25	Cu	-0.893889	0.101180	0.101937
Cu26	Cu	-0.560556	0.434514	0.435270
Cu27	Cu	-0.227222	0.767847	0.768603
O28	O	-0.887650	-0.085570	0.212119
O29	O	-0.554316	0.247763	0.545452
O30	O	-0.220983	0.581097	0.878786
C31	C	-0.755496	-0.000009	0.107713
C32	C	-0.422162	0.333325	0.441047
C33	C	-0.088829	0.666658	0.774380
C34	C	-0.671478	-0.000007	0.106375
C35	C	-0.338144	0.333327	0.439708
C36	C	-0.004811	0.666660	0.773042
C37	C	-0.632004	-0.093293	0.105741
C38	C	-0.298670	0.240041	0.439074
C39	C	0.034663	0.573374	0.772408
C40	C	-0.553061	-0.093293	0.104471
C41	C	-0.219728	0.240040	0.437805
C42	C	0.113605	0.573373	0.771138
C43	C	-0.513594	-0.000007	0.103841
C44	C	-0.180260	0.333326	0.437175
C45	C	0.153073	0.666659	0.770508
C46	C	-0.553073	0.093286	0.104473
C47	C	-0.219740	0.426619	0.437807
C48	C	0.113593	0.759953	0.771140
C49	C	-0.632015	0.093286	0.105737
C50	C	-0.298682	0.426619	0.439071
C51	C	0.034652	0.759952	0.772404
C52	C	-0.234711	0.093289	0.099374
C53	C	0.098623	0.426622	0.432707
C54	C	0.431956	0.759955	0.766041
C55	C	-0.155763	0.093282	0.098112
C56	C	0.177570	0.426615	0.431445
C57	C	0.510903	0.759948	0.764779
C58	C	-0.155757	-0.093291	0.098108
C59	C	0.177576	0.240043	0.431441
C60	C	0.510909	0.573376	0.764775
C61	C	-0.234699	-0.093291	0.099372
C62	C	0.098634	0.240043	0.432705
C63	C	0.431968	0.573376	0.766039
C64	C	-0.274172	0.000002	0.100000
C65	C	0.059161	0.333335	0.433333
C66	C	0.392494	0.666668	0.766667
C67	C	-0.359771	0.000002	0.101375
C68	C	-0.026437	0.333335	0.434708
C69	C	0.306896	0.666668	0.768042
C70	C	-0.427996	-0.000006	0.102472
C71	C	-0.094663	0.333327	0.435805
C72	C	0.238671	0.666661	0.769138
N73	N	-0.893870	-0.243552	0.101923
N74	N	-0.560537	0.089781	0.435257
N75	N	-0.227204	0.423114	0.768590
C76	C	-0.893888	-0.663367	0.101938
C77	C	-0.560555	-0.330033	0.435271
C78	C	-0.227221	0.003300	0.768604
C79	C	-0.893881	-0.546561	0.101936
C80	C	-0.560548	-0.213228	0.435270
C81	C	-0.227214	0.120105	0.768603
C82	C	-0.893880	-0.453463	0.101931
C83	C	-0.560546	-0.120130	0.435264
C84	C	-0.227213	0.213204	0.768598
C85	C	-0.893872	-0.336651	0.101929
C86	C	-0.560538	-0.003317	0.435262
C87	C	-0.227205	0.330016	0.768595
C88	C	-0.032269	-0.000013	0.096148
C89	C	0.301065	0.333320	0.429481
C90	C	0.634398	0.666654	0.762815
C91	C	-0.116289	-0.000005	0.097472
C92	C	0.217045	0.333328	0.430806
C93	C	0.550378	0.666661	0.764139
C94	C	-0.899662	-0.000022	-0.036453
C95	C	-0.566329	0.333312	0.296880
C96	C	-0.232995	0.666645	0.630213
C97	C	-0.898323	-0.000022	-0.120471
C98	C	-0.564990	0.333311	0.212862
C99	C	-0.231657	0.666645	0.546195
N100	N	-0.893900	0.243527	0.101937
N101	N	-0.560566	0.576861	0.435270
N102	N	-0.227233	0.910194	0.768603
C103	C	-0.966657	-0.000025	-0.169092
C104	C	-0.633323	0.333308	0.164241
C105	C	-0.299990	0.666641	0.497574
C106	C	-0.965395	-0.000016	-0.248036
C107	C	-0.632061	0.333317	0.085298
C108	C	-0.298728	0.666650	0.418631
C109	C	-0.895798	-0.000011	-0.278356
C110	C	-0.562465	0.333322	0.054977
C111	C	-0.229131	0.666655	0.388310
C112	C	-0.827459	-0.000005	-0.229729
C113	C	-0.494126	0.333329	0.103604
C114	C	-0.160793	0.666662	0.436938
C115	C	-0.828722	-0.000007	-0.150787
C116	C	-0.495389	0.333327	0.182546
C117	C	-0.162056	0.666660	0.515879
C118	C	-0.822364	0.000004	-0.548092
C119	C	-0.489031	0.333337	-0.214759
C120	C	-0.155697	0.666670	0.118575
C121	C	-0.821106	0.000002	-0.627040
C122	C	-0.487773	0.333336	-0.293707
C123	C	-0.154440	0.666669	0.039627
C124	C	-0.959036	-0.000006	-0.645341
C125	C	-0.625703	0.333327	-0.312007
C126	C	-0.292370	0.666661	0.021326
C127	C	-0.960299	-0.000008	-0.566399
C128	C	-0.626966	0.333325	-0.233065
C129	C	-0.293633	0.666659	0.100268
C130	C	-0.891961	0.000004	-0.517778
C131	C	-0.558628	0.333337	-0.184445
C132	C	-0.225294	0.666671	0.148888
C133	C	-0.893331	-0.000004	-0.432179
C134	C	-0.559997	0.333329	-0.098846
C135	C	-0.226664	0.666663	0.234488
C136	C	-0.894428	-0.000011	-0.363954
C137	C	-0.561094	0.333323	-0.030621
C138	C	-0.227761	0.666656	0.302713
C139	C	-0.888102	-0.000001	0.240319
C140	C	-0.554769	0.333333	0.573653
C141	C	-0.221435	0.666666	0.906986
C142	C	-0.889441	0.000006	0.324337
C143	C	-0.556107	0.333340	0.657671
C144	C	-0.222774	0.666673	0.991004
H145	H	-0.520927	-0.169256	0.103942
H146	H	-0.187594	0.164077	0.437276
H147	H	0.145740	0.497410	0.770609
H148	H	-0.520933	0.169241	0.103955
H149	H	-0.187600	0.502575	0.437288
H150	H	0.145734	0.835908	0.770622
Cl151	Cl	-0.739966	0.000014	-0.267846
Cl152	Cl	-0.406633	0.333348	0.065487
Cl153	Cl	-0.073299	0.666681	0.398820
H154	H	-1.023330	-0.000036	-0.144412
H155	H	-0.689997	0.333297	0.188921
H156	H	-0.356664	0.666631	0.522255
Cl157	Cl	-1.051304	-0.000024	-0.309157
Cl158	Cl	-0.717970	0.333310	0.024177
Cl159	Cl	-0.384637	0.666643	0.357510
Cl160	Cl	-0.681640	0.210565	0.106531
Cl161	Cl	-0.348307	0.543898	0.439864
Cl162	Cl	-0.014973	0.877231	0.773198
H163	H	-0.266829	-0.169254	0.099889
H164	H	0.066504	0.164079	0.433222
H165	H	0.399838	0.497413	0.766556
H166	H	-1.016972	-0.000017	-0.541717
H167	H	-0.683638	0.333316	-0.208383
H168	H	-0.350305	0.666650	0.124950
H169	H	-1.014680	-0.000010	-0.684937
H170	H	-0.681347	0.333323	-0.351604
H171	H	-0.348014	0.666656	-0.018271
H172	H	-0.764429	0.000005	-0.651723
H173	H	-0.431096	0.333338	-0.318390
H174	H	-0.097762	0.666671	0.014943
H175	H	-0.766719	0.000013	-0.508514
H176	H	-0.433385	0.333346	-0.175181
H177	H	-0.100052	0.666680	0.158153
Cl178	Cl	-0.742814	0.000002	-0.089663
Cl179	Cl	-0.409480	0.333335	0.243671
Cl180	Cl	-0.076147	0.666668	0.577004
Cl181	Cl	-0.106129	-0.210575	0.097315
Cl182	Cl	0.227204	0.122758	0.430648
Cl183	Cl	0.560537	0.456092	0.763981
H184	H	-0.123631	0.169251	0.097598
H185	H	0.209702	0.502584	0.430932
H186	H	0.543036	0.835918	0.764265
H187	H	-0.664132	-0.169257	0.106260
H188	H	-0.330799	0.164076	0.439594
H189	H	0.002535	0.497409	0.772927
Cl190	Cl	-0.284324	0.210571	0.100165
Cl191	Cl	0.049009	0.543905	0.433498
Cl192	Cl	0.382343	0.877238	0.766831
