data_functionalizedCrystal
_audit_creation_method	'MofGen! by Chris Wilmer'
_symmetry_space_group_name_H-M	'P1'
_symmetry_Int_Tables_number	1
_symmetry_cell_setting	triclinic
loop_
_symmetry_equiv_pos_as_xyz
  x,y,z
_cell_length_a	12.827892
_cell_length_b	12.759395
_cell_length_c	12.759387
_cell_angle_alpha	89.980763
_cell_angle_beta	90.029894
_cell_angle_gamma	89.987131
loop_
_atom_site_label
_atom_site_type_symbol
_atom_site_fract_x
_atom_site_fract_y
_atom_site_fract_z
Zn1	Zn	-0.416052	-1.606249	0.594014
Zn2	Zn	-0.590829	-1.606142	0.418336
Zn3	Zn	-0.416095	-1.430551	0.418350
Zn4	Zn	-0.590744	-1.430537	0.593975
O5	O	-0.503430	-1.518370	0.506169
O6	O	-0.439254	-1.753256	0.570720
O7	O	-0.567705	-1.582810	0.271317
O8	O	-0.269853	-1.453909	0.441675
O9	O	-0.567662	-1.753177	0.441651
O10	O	-0.269821	-1.582993	0.570734
O11	O	-0.439328	-1.453805	0.271327
O12	O	-0.439245	-1.283528	0.441637
O13	O	-0.567516	-1.453885	0.741001
O14	O	-0.567559	-1.283518	0.570667
O15	O	-0.439171	-1.582979	0.741030
O16	O	-0.737054	-1.582797	0.441613
O17	O	-0.736991	-1.453781	0.570654
C18	C	-0.503398	-1.245402	0.506150
C19	C	-0.503410	-1.128626	0.506167
C20	C	-0.369914	-1.128688	0.640784
C21	C	-0.303177	-1.073859	0.708100
C22	C	-0.303191	-0.964137	0.708111
C23	C	-0.369947	-0.909242	0.640796
C24	C	-0.436684	-0.964072	0.573480
C25	C	-0.436665	-1.073796	0.573479
C26	C	-0.570173	-0.964009	0.438859
C27	C	-0.570166	-1.073731	0.438852
C28	C	-0.636930	-0.909115	0.371544
C29	C	-0.703674	-0.963944	0.304232
C30	C	-0.703658	-1.073672	0.304225
C31	C	-0.636903	-1.128560	0.371536
C32	C	-0.774940	-1.518304	0.506150
C33	C	-0.891093	-1.518372	0.506177
C34	C	-0.942874	-1.582289	0.442395
C35	C	-1.062925	-1.582361	0.442421
C36	C	-0.230860	-1.518464	0.506210
C37	C	-0.114707	-1.518505	0.506228
C38	C	-0.503329	-1.518442	0.780202
C39	C	-0.503286	-1.518473	0.896979
C40	C	-0.503453	-0.792403	0.506183
C41	C	-0.503436	-0.909180	0.506175
C42	C	-0.503455	-1.518358	0.233201
C43	C	-0.503204	-1.518531	0.116425
C44	C	-0.369566	-1.652966	1.116453
C45	C	-0.302763	-1.720165	1.061606
C46	C	-0.302798	-1.720136	0.951884
C47	C	-0.369645	-1.652901	0.897007
C48	C	-0.436448	-1.585702	0.951854
C49	C	-0.436404	-1.585737	1.061578
C50	C	-0.570089	-1.451274	0.951826
C51	C	-0.570051	-1.451296	1.061548
C52	C	-0.636937	-1.384040	0.896949
C53	C	-0.703736	-1.316833	0.951796
C54	C	-0.703698	-1.316865	1.061524
C55	C	-0.636854	-1.384097	1.116395
H56	H	-0.369944	-0.819901	0.640802
O57	O	-0.637052	-1.235143	0.371430
C58	C	-0.710246	-1.271771	0.297562
H59	H	-0.771296	-1.208534	0.282738
H60	H	-0.668706	-1.291212	0.221029
C61	C	-0.688867	-1.448614	0.358485
C62	C	-0.763853	-1.370948	0.340286
H63	H	-0.721931	-1.509793	0.384836
H64	H	-0.639551	-1.423938	0.408249
H65	H	-0.654255	-1.464801	0.294704
H66	H	-0.798454	-1.354753	0.404069
H67	H	-0.813177	-1.395623	0.290533
O68	O	-0.768479	-0.910459	0.238948
C69	C	-0.754154	-0.801860	0.253365
H70	H	-0.720030	-0.786911	0.334507
H71	H	-0.698427	-0.770710	0.191148
C72	C	-0.901789	-0.763864	0.143892
C73	C	-0.859886	-0.745502	0.243555
H74	H	-0.967008	-0.729098	0.137836
H75	H	-0.911439	-0.837029	0.134175
H76	H	-0.855340	-0.737905	0.092055
H77	H	-0.906328	-0.771472	0.295389
H78	H	-0.850246	-0.672340	0.253280
O79	O	-0.237757	-1.785299	0.898648
C80	C	-0.133592	-1.762405	0.925494
H81	H	-0.128291	-1.678486	0.955660
H82	H	-0.106260	-1.818767	0.989185
C83	C	-0.070398	-1.877693	0.790984
C84	C	-0.063886	-1.774619	0.828026
H85	H	-0.027399	-1.885231	0.730863
H86	H	-0.140576	-1.893121	0.772899
H87	H	-0.047624	-1.924649	0.844069
H88	H	-0.086673	-1.727666	0.774946
H89	H	0.006290	-1.759184	0.846099
H90	H	-0.636933	-0.819773	0.371555
H91	H	-0.935638	-1.463708	0.560808
H92	H	-0.369518	-1.652983	1.205794
H93	H	-0.758000	-1.118308	0.249404
H94	H	-0.898332	-1.636962	0.387771
O95	O	-1.116202	-1.647645	0.377403
C96	C	-1.224204	-1.633194	0.391915
H97	H	-1.238964	-1.598692	0.472964
H98	H	-1.255298	-1.577313	0.329556
C99	C	-1.262111	-1.781878	0.282973
C100	C	-1.280240	-1.739510	0.382523
H101	H	-1.296679	-1.847456	0.277175
H102	H	-1.189348	-1.791612	0.273192
H103	H	-1.288023	-1.735300	0.231019
H104	H	-1.254317	-1.786081	0.434474
H105	H	-1.353001	-1.729786	0.392312
H106	H	-1.070184	-1.463776	0.560834
H107	H	-0.758162	-1.262102	0.907106
O108	O	-0.237939	-1.785622	1.114865
C109	C	-0.260783	-1.890317	1.088034
H110	H	-0.344279	-1.895584	1.057861
H111	H	-0.204784	-1.917780	1.024354
C112	C	-0.146041	-1.953999	1.222567
C113	C	-0.248595	-1.960469	1.185516
H114	H	-0.138519	-1.997274	1.282696
H115	H	-0.130647	-1.883465	1.240642
H116	H	-0.099387	-1.976883	1.169491
H117	H	-0.295246	-1.937574	1.238587
H118	H	-0.263997	-2.031002	1.167453
H119	H	-0.369891	-1.218029	0.640778
O120	O	-0.768626	-1.251488	1.114637
C121	C	-0.827649	-1.192167	1.042669
H122	H	-0.784871	-1.188526	0.964462
H123	H	-0.907023	-1.230612	1.030988
C124	C	-0.895226	-1.084827	1.181530
C125	C	-0.842681	-1.080347	1.085478
H126	H	-0.904503	-1.015852	1.207937
H127	H	-0.855464	-1.124794	1.230018
H128	H	-0.961365	-1.116869	1.171783
H129	H	-0.776538	-1.048317	1.095228
H130	H	-0.882431	-1.040371	1.036993
H131	H	-0.636810	-1.384123	1.205736
H132	H	-0.248823	-1.118566	0.762905
H133	H	-0.369677	-1.652892	0.807665
H134	H	-0.636965	-1.384025	0.807608
H135	H	-0.248841	-0.919495	0.762919
