data_functionalizedCrystal
_audit_creation_method	'MofGen! by Chris Wilmer'
_symmetry_space_group_name_H-M	'P1'
_symmetry_Int_Tables_number	1
_symmetry_cell_setting	triclinic
loop_
_symmetry_equiv_pos_as_xyz
  x,y,z
_cell_length_a	6.817900
_cell_length_b	15.300912
_cell_length_c	13.563497
_cell_angle_alpha	109.485901
_cell_angle_beta	104.703674
_cell_angle_gamma	104.173621
loop_
_atom_site_label
_atom_site_type_symbol
_atom_site_fract_x
_atom_site_fract_y
_atom_site_fract_z
V1	V	-4.105344	-0.211021	-0.346739
O2	O	-4.087733	-0.078540	-0.339792
O3	O	-4.059814	-0.333131	-0.344701
O4	O	-4.089624	-0.246687	-0.497812
O5	O	-4.057716	-0.165582	-0.185621
V6	V	-4.584366	-0.190577	-0.327428
O7	O	-4.376477	-0.255867	-0.389101
O8	O	-4.763430	-0.145732	-0.285066
O9	O	-4.406690	-0.068468	-0.329466
O10	O	-4.719374	-0.323059	-0.334375
O11	O	-4.749390	-0.236017	-0.488546
O12	O	-4.376880	-0.154912	-0.176355
C13	C	-3.904455	-0.361682	-0.339317
C14	C	-3.948734	-0.461759	-0.338658
C15	C	-4.322983	-0.898800	-0.341376
C16	C	-4.281359	-0.804764	-0.341988
C17	C	-4.077106	-0.751780	-0.336745
C18	C	-3.914461	-0.792831	-0.330877
C19	C	-3.956082	-0.886862	-0.330258
C20	C	-3.827725	-0.596842	-0.332173
C21	C	-3.786102	-0.502805	-0.332795
C22	C	-4.153002	-0.514745	-0.343903
C23	C	-4.194623	-0.608776	-0.343284
C24	C	-4.031975	-0.649821	-0.337418
C25	C	-3.942480	-0.251413	-0.534624
C26	C	-4.010929	-0.281381	-0.658129
C27	C	-4.089055	-0.382045	-0.732236
C28	C	-4.153386	-0.410209	-0.848277
C29	C	-4.139581	-0.337713	-0.890222
C30	C	-4.061439	-0.237047	-0.816113
C31	C	-3.997118	-0.208880	-0.700061
C32	C	-4.047643	-0.164548	-0.858047
C33	C	-3.969501	-0.063882	-0.783938
C34	C	-3.905186	-0.035720	-0.667898
C35	C	-3.918991	-0.108217	-0.625954
C36	C	-4.111965	-0.192715	-0.974099
C37	C	-4.020027	-0.019550	-0.941924
C38	C	-3.955696	0.008614	-0.825883
C39	C	-4.225389	-0.039920	-0.334847
C40	C	-4.160351	0.060154	-0.335513
C41	C	-4.187365	-0.150187	-0.139537
C42	C	-4.098153	-0.120214	-0.016031
H43	H	-3.695283	-0.630261	-0.327407
H44	H	-3.892065	0.090578	-0.765528
H45	H	-4.175580	-0.274678	-1.034427
H46	H	-4.008790	0.039482	-0.976073
H47	H	-4.489308	-0.941937	-0.345653
Br48	Br	-4.471833	-0.680688	-0.350412
Br49	Br	-4.226885	-0.375938	-1.047708
H50	H	-3.823653	-0.920283	-0.325492
Br51	Br	-3.508901	-0.430898	-0.325682
H52	H	-4.413797	-0.771351	-0.346768
Br53	Br	-4.373745	-0.459045	-0.351872
H54	H	-4.217014	-0.492172	-0.908609
H55	H	-4.100302	-0.441061	-0.698074
Br56	Br	-3.637244	-0.720916	-0.323739
Br57	Br	-3.831670	-0.069996	-0.468463
H58	H	-3.841584	0.046248	-0.607562
