data_functionalizedCrystal
_audit_creation_method	'MofGen! by Chris Wilmer'
_symmetry_space_group_name_H-M	'P1'
_symmetry_Int_Tables_number	1
_symmetry_cell_setting	triclinic
loop_
_symmetry_equiv_pos_as_xyz
  x,y,z
_cell_length_a	27.732048
_cell_length_b	27.732048
_cell_length_c	26.809956
_cell_angle_alpha	90.000636
_cell_angle_beta	90.003258
_cell_angle_gamma	82.642655
loop_
_atom_site_label
_atom_site_type_symbol
_atom_site_fract_x
_atom_site_fract_y
_atom_site_fract_z
O1	O	-0.640931	-0.057510	-0.041421
O2	O	-0.140931	0.442490	0.458579
O3	O	-0.500138	-0.066256	-0.041436
O4	O	-0.000138	0.433744	0.458564
O5	O	-0.574907	0.008514	-0.041419
O6	O	-0.074907	0.508514	0.458581
O7	O	-0.566162	-0.132280	-0.041439
O8	O	-0.066162	0.367720	0.458561
O9	O	-0.574893	0.008502	0.041541
O10	O	-0.074893	0.508502	0.541541
O11	O	-0.500123	-0.066267	0.041523
O12	O	-0.000123	0.433733	0.541523
O13	O	-0.640917	-0.057522	0.041539
O14	O	-0.140917	0.442478	0.541539
Zn15	Zn	-0.570518	-0.061896	0.054702
Zn16	Zn	-0.070518	0.438104	0.554702
Zn17	Zn	-0.570536	-0.061881	-0.054600
Zn18	Zn	-0.070536	0.438119	0.445400
O19	O	-0.566147	-0.132291	0.041521
O20	O	-0.066147	0.367709	0.541521
C21	C	-0.482124	-0.066078	0.000041
C22	C	0.017876	0.433922	0.500041
C23	C	-0.428469	-0.065525	0.000036
C24	C	0.071531	0.434475	0.500036
C25	C	-0.574716	0.026515	0.000062
C26	C	-0.074716	0.526515	0.500062
C27	C	-0.574164	0.080170	0.000066
C28	C	-0.074164	0.580170	0.500066
C29	C	-0.658931	-0.057699	0.000060
C30	C	-0.158931	0.442301	0.500060
C31	C	-0.712586	-0.058252	0.000062
C32	C	-0.212586	0.441748	0.500062
C33	C	-0.089654	-0.106229	0.000051
C34	C	0.410346	0.393771	0.500051
C35	C	0.112006	-0.104178	0.000056
C36	C	0.612006	0.395822	0.500056
O37	O	0.143262	-0.141398	0.000073
O38	O	0.643262	0.358602	0.500073
N39	N	0.131130	-0.059843	0.000062
N40	N	0.631130	0.440157	0.500062
C41	C	0.099835	-0.016017	0.000069
C42	C	0.599835	0.483983	0.500069
O43	O	0.120728	0.021740	0.000079
O44	O	0.620728	0.521740	0.500079
C45	C	-0.101824	-0.018068	0.000068
C46	C	0.398176	0.481932	0.500068
C47	C	-0.120944	-0.062407	0.000057
C48	C	0.379056	0.437593	0.500057
C49	C	-0.108775	-0.150563	0.000042
C50	C	0.391225	0.349437	0.500042
C51	C	-0.159187	-0.151076	0.000038
C52	C	0.340813	0.348924	0.500038
C53	C	-0.190477	-0.107253	0.000044
C54	C	0.309523	0.392747	0.500044
C55	C	-0.171356	-0.062919	0.000054
C56	C	0.328644	0.437081	0.500054
C57	C	-0.133117	0.025757	0.000079
C58	C	0.366883	0.525757	0.500079
C59	C	-0.183535	0.025240	0.000080
C60	C	0.316465	0.525240	0.500080
C61	C	-0.202655	-0.019098	0.000069
C62	C	0.297345	0.480902	0.500069
C63	C	-0.253059	-0.019609	0.000056
C64	C	0.246941	0.480391	0.500056
N65	N	-0.272183	-0.063944	0.000050
N66	N	0.227817	0.436056	0.500050
C67	C	-0.240892	-0.107766	0.000044
C68	C	0.259108	0.392234	0.500044
C69	C	0.205709	-0.014943	0.000069
C70	C	0.705709	0.485057	0.500069
C71	C	0.256124	-0.014430	0.000068
C72	C	0.756124	0.485570	0.500068
C73	C	0.268291	-0.102591	0.000056
C74	C	0.768291	0.397409	0.500056
C75	C	0.217876	-0.103104	0.000053
C76	C	0.717876	0.396896	0.500053
C77	C	0.186585	-0.059278	0.000063
C78	C	0.686585	0.440722	0.500063
C79	C	-0.346761	-0.108839	0.000036
C80	C	0.153239	0.391161	0.500036
C81	C	-0.397178	-0.109347	0.000030
C82	C	0.102822	0.390653	0.500030
C83	C	-0.409341	-0.021186	0.000044
C84	C	0.090659	0.478814	0.500044
C85	C	-0.358929	-0.020678	0.000048
C86	C	0.141071	0.479322	0.500048
C87	C	-0.327639	-0.064508	0.000045
C88	C	0.172361	0.435492	0.500045
O89	O	-0.284343	0.017592	0.000045
O90	O	0.215657	0.517592	0.500045
O91	O	-0.261794	-0.145518	0.000045
O92	O	0.238206	0.354482	0.500045
C93	C	-0.039242	-0.105716	0.000055
C94	C	0.460758	0.394284	0.500055
C95	C	-0.020120	-0.061382	0.000065
C96	C	0.479880	0.438618	0.500065
C97	C	-0.051411	-0.017560	0.000071
C98	C	0.448589	0.482440	0.500071
C99	C	0.030294	-0.060869	0.000065
C100	C	0.530294	0.439131	0.500065
C101	C	0.061585	-0.104691	0.000059
C102	C	0.561585	0.395309	0.500059
C103	C	0.042461	-0.149026	0.000053
C104	C	0.542461	0.350974	0.500053
C105	C	-0.007951	-0.149539	0.000049
C106	C	0.492049	0.350461	0.500049
C107	C	-0.032287	0.026775	0.000077
C108	C	0.467713	0.526775	0.500077
C109	C	0.018125	0.027284	0.000080
C110	C	0.518125	0.527284	0.500080
C111	C	0.049416	-0.016538	0.000074
C112	C	0.549416	0.483462	0.500074
C113	C	-0.566338	-0.150292	0.000039
C114	C	-0.066338	0.349708	0.500039
C115	C	-0.566891	-0.203947	0.000031
C116	C	-0.066891	0.296053	0.500031
N117	N	-0.570509	-0.061906	0.129298
N118	N	-0.070509	0.438094	0.629298
C119	C	-0.614867	0.418985	0.000045
C120	C	-0.114867	0.918985	0.500045
C121	C	-0.612816	0.620645	0.000038
C122	C	-0.112816	1.120645	0.500038
O123	O	-0.650037	0.651900	0.000021
O124	O	-0.150037	1.151900	0.500021
N125	N	-0.568481	0.639768	0.000034
N126	N	-0.068481	1.139768	0.500034
C127	C	-0.524656	0.608474	0.000028
C128	C	-0.024656	1.108474	0.500028
O129	O	-0.486899	0.629367	0.000019
O130	O	0.013101	1.129367	0.500019
C131	C	-0.526707	0.406815	0.000031
C132	C	-0.026707	0.906815	0.500031
C133	C	-0.571045	0.387694	0.000041
C134	C	-0.071045	0.887694	0.500041
C135	C	-0.659202	0.399864	0.000054
C136	C	-0.159202	0.899864	0.500054
C137	C	-0.659714	0.349452	0.000059
C138	C	-0.159714	0.849452	0.500059
C139	C	-0.615892	0.318161	0.000054
C140	C	-0.115892	0.818161	0.500054
C141	C	-0.571557	0.337282	0.000045
C142	C	-0.071557	0.837282	0.500045
C143	C	-0.482882	0.375521	0.000022
C144	C	0.017118	0.875521	0.500022
C145	C	-0.483399	0.325104	0.000021
C146	C	0.016601	0.825104	0.500021
C147	C	-0.527737	0.305983	0.000031
C148	C	-0.027737	0.805983	0.500031
C149	C	-0.528247	0.255580	0.000045
C150	C	-0.028247	0.755580	0.500045
N151	N	-0.572583	0.236456	0.000050
N152	N	-0.072583	0.736456	0.500050
C153	C	-0.616405	0.267747	0.000054
C154	C	-0.116405	0.767747	0.500054
C155	C	-0.523582	0.714348	0.000027
C156	C	-0.023582	1.214348	0.500027
C157	C	-0.523069	0.764762	0.000027
C158	C	-0.023069	1.264762	0.500027
C159	C	-0.611230	0.776930	0.000036
C160	C	-0.111230	1.276930	0.500036
C161	C	-0.611742	0.726514	0.000040
C162	C	-0.111742	1.226514	0.500040
C163	C	-0.567917	0.695224	0.000031
C164	C	-0.067917	1.195224	0.500031
C165	C	-0.617477	0.161878	0.000064
C166	C	-0.117477	0.661878	0.500064
C167	C	-0.617986	0.111461	0.000071
C168	C	-0.117986	0.611461	0.500071
C169	C	-0.529825	0.099298	0.000059
C170	C	-0.029825	0.599298	0.500059
C171	C	-0.529316	0.149710	0.000055
C172	C	-0.029316	0.649710	0.500055
C173	C	-0.573147	0.180999	0.000056
C174	C	-0.073147	0.680999	0.500056
O175	O	-0.491047	0.224296	0.000057
O176	O	0.008953	0.724296	0.500057
O177	O	-0.654156	0.246844	0.000053
O178	O	-0.154156	0.746844	0.500053
C179	C	-0.614355	0.469397	0.000041
C180	C	-0.114355	0.969397	0.500041
C181	C	-0.570021	0.488518	0.000032
C182	C	-0.070021	0.988518	0.500032
C183	C	-0.526198	0.457228	0.000027
C184	C	-0.026198	0.957228	0.500027
C185	C	-0.569508	0.538933	0.000032
C186	C	-0.069508	1.038933	0.500032
C187	C	-0.613330	0.570223	0.000036
C188	C	-0.113330	1.070223	0.500036
C189	C	-0.657665	0.551100	0.000041
C190	C	-0.157665	1.051100	0.500041
C191	C	-0.658177	0.500688	0.000045
C192	C	-0.158177	1.000688	0.500045
C193	C	-0.481863	0.476351	0.000023
C194	C	0.018137	0.976351	0.500023
C195	C	-0.481355	0.526764	0.000019
C196	C	0.018645	1.026764	0.500019
C197	C	-0.525177	0.558054	0.000023
C198	C	-0.025177	1.058054	0.500023
N199	N	-0.570549	-0.061867	-0.129196
N200	N	-0.070549	0.438133	0.370804
C201	C	-0.603640	-0.028781	0.473932
C202	C	-0.103640	0.471219	0.973932
C203	C	-0.603652	-0.028774	0.682810
C204	C	-0.103652	0.471226	1.182810
O205	O	-0.631801	-0.000613	0.709820
O206	O	-0.131801	0.499387	1.209820
N207	N	-0.570539	-0.061870	0.708925
N208	N	-0.070539	0.438130	1.208925
C209	C	-0.537419	-0.094969	0.682818
C210	C	-0.037419	0.405031	1.182818
O211	O	-0.509252	-0.123116	0.709824
O212	O	-0.009252	0.376884	1.209824
C213	C	-0.537406	-0.094974	0.473941
C214	C	-0.037406	0.405026	0.973941
C215	C	-0.570524	-0.061878	0.447829
C216	C	-0.070524	0.438122	0.947829
C217	C	-0.636755	0.004312	0.447819
C218	C	-0.136755	0.504312	0.947819
C219	C	-0.636754	0.004308	0.395603
C220	C	-0.136754	0.504308	0.895603
C221	C	-0.603637	-0.028789	0.369500
C222	C	-0.103637	0.471211	0.869500
C223	C	-0.570522	-0.061882	0.395612
C224	C	-0.070522	0.438118	0.895612
C225	C	-0.504284	-0.128070	0.447835
C226	C	-0.004284	0.371930	0.947835
C227	C	-0.504283	-0.128067	0.395613
C228	C	-0.004283	0.371933	0.895613
C229	C	-0.537401	-0.094972	0.369500
C230	C	-0.037401	0.405028	0.869500
C231	C	-0.537405	-0.094983	0.317293
C232	C	-0.037405	0.405017	0.817293
N233	N	-0.570517	-0.061887	0.291177
N234	N	-0.070517	0.438113	0.791177
C235	C	-0.603633	-0.028790	0.317281
C236	C	-0.103633	0.471210	0.817281
C237	C	-0.537429	-0.094965	0.792481
C238	C	-0.037429	0.405035	1.292481
C239	C	-0.537433	-0.094964	0.844700
C240	C	-0.037433	0.405036	1.344700
C241	C	-0.603665	-0.028768	0.844689
C242	C	-0.103665	0.471232	1.344689
C243	C	-0.603663	-0.028772	0.792469
C244	C	-0.103663	0.471228	1.292469
C245	C	-0.570542	-0.061868	0.766366
C246	C	-0.070542	0.438132	1.266366
C247	C	-0.603628	-0.028801	0.207623
C248	C	-0.103628	0.471199	0.707623
C249	C	-0.603625	-0.028809	0.155402
C250	C	-0.103625	0.471191	0.655402
C251	C	-0.537392	-0.095003	0.155418
C252	C	-0.037392	0.404997	0.655418
C253	C	-0.537396	-0.094997	0.207635
C254	C	-0.037396	0.405003	0.707635
C255	C	-0.570516	-0.061892	0.233735
C256	C	-0.070516	0.438108	0.733735
O257	O	-0.509266	-0.123126	0.290250
O258	O	-0.009266	0.376874	0.790250
O259	O	-0.631789	-0.000640	0.290266
O260	O	-0.131789	0.499360	0.790266
C261	C	-0.603642	-0.028777	0.526149
C262	C	-0.103642	0.471223	1.026149
C263	C	-0.570527	-0.061870	0.552261
C264	C	-0.070527	0.438130	1.052261
C265	C	-0.537410	-0.094968	0.526158
C266	C	-0.037410	0.405032	1.026158
C267	C	-0.570531	-0.061870	0.604480
C268	C	-0.070531	0.438130	1.104480
C269	C	-0.603647	-0.028773	0.630584
C270	C	-0.103647	0.471227	1.130584
C271	C	-0.636759	0.004324	0.604468
C272	C	-0.136759	0.504324	1.104468
C273	C	-0.636758	0.004320	0.552252
C274	C	-0.136758	0.504320	1.052252
C275	C	-0.504298	-0.128064	0.552273
C276	C	-0.004298	0.371936	1.052273
C277	C	-0.504303	-0.128058	0.604489
C278	C	-0.004303	0.371942	1.104489
C279	C	-0.537419	-0.094961	0.630593
C280	C	-0.037419	0.405039	1.130593
H281	H	-0.412743	-0.145454	0.000021
H282	H	0.087257	0.354546	0.500021
H283	H	-0.493213	0.165279	0.000061
H284	H	0.006787	0.665279	0.500061
H285	H	-0.494146	0.073812	0.000057
H286	H	0.005854	0.573812	0.500057
H287	H	0.202311	-0.139207	0.000047
H288	H	0.702311	0.360793	0.500047
H289	H	-0.209009	0.060929	0.000089
H290	H	0.290991	0.560929	0.500089
H291	H	-0.023514	-0.185643	0.000042
H292	H	0.476486	0.314357	0.500042
H293	H	0.067947	-0.184708	0.000046
H294	H	0.567947	0.315292	0.500046
H295	H	-0.321291	-0.144530	0.000035
H296	H	0.178709	0.355470	0.500035
H297	H	-0.654093	0.095896	0.000080
H298	H	-0.154093	0.595896	0.500080
H299	H	-0.445246	0.542327	0.000015
H300	H	0.054754	1.042327	0.500015
H301	H	-0.477310	-0.155018	0.374362
H302	H	0.022690	0.344982	0.874362
H303	H	-0.510457	-0.121917	0.771232
H304	H	-0.010457	0.378083	1.271232
H305	H	-0.174750	-0.187180	0.000029
H306	H	0.325250	0.312820	0.500029
H307	H	-0.083302	-0.186251	0.000038
H308	H	0.416698	0.313749	0.500038
H309	H	-0.694282	0.485125	0.000053
H310	H	-0.194282	0.985125	0.500053
H311	H	-0.510433	-0.121951	0.228896
H312	H	-0.010433	0.378049	0.728896
H313	H	-0.663720	0.031258	0.374345
H314	H	-0.163720	0.531258	0.874345
H315	H	-0.653168	0.187348	0.000063
H316	H	-0.153168	0.687348	0.500063
H317	H	-0.646911	0.802415	0.000040
H318	H	-0.146911	1.302415	0.500040
H319	H	-0.663722	0.031266	0.469068
H320	H	-0.163722	0.531266	0.969068
H321	H	-0.117558	0.061861	0.000088
H322	H	0.382442	0.561861	0.500088
H323	H	-0.630595	-0.001859	0.134142
H324	H	-0.130595	0.498141	0.634142
H325	H	-0.486964	0.780325	0.000028
H326	H	0.013036	1.280325	0.500028
H327	H	-0.630630	-0.001820	0.865951
H328	H	-0.130630	0.498180	1.365951
H329	H	-0.630630	-0.001822	0.771211
H330	H	-0.130630	0.498178	1.271211
H331	H	0.293777	-0.138273	0.000051
H332	H	0.793777	0.361727	0.500051
H333	H	-0.343360	0.015426	0.000049
H334	H	0.156640	0.515426	0.500049
H335	H	0.271687	0.021674	0.000069
H336	H	0.771687	0.521674	0.500069
H337	H	-0.695819	0.333889	0.000065
H338	H	-0.195819	0.833889	0.500065
H339	H	-0.477317	-0.155019	0.469089
H340	H	0.022683	0.344981	0.969089
H341	H	-0.693347	0.576585	0.000047
H342	H	-0.193347	1.076585	0.500047
H343	H	-0.510430	-0.121952	0.134157
H344	H	-0.010430	0.378048	0.634157
H345	H	-0.057760	0.062462	0.000083
H346	H	0.442240	0.562462	0.500083
H347	H	-0.630597	-0.001843	0.228868
H348	H	-0.130597	0.498157	0.728868
H349	H	0.180236	0.020747	0.000077
H350	H	0.680236	0.520747	0.500077
H351	H	-0.446177	0.450879	0.000018
H352	H	0.053823	0.950879	0.500018
H353	H	-0.663726	0.031271	0.625730
H354	H	-0.163726	0.531271	1.125730
H355	H	-0.663725	0.031269	0.530995
H356	H	-0.163725	0.531269	1.030995
H357	H	0.033688	0.063392	0.000085
H358	H	0.533688	0.563392	0.500085
H359	H	-0.434827	0.014492	0.000047
H360	H	0.065173	0.514492	0.500047
H361	H	-0.694889	0.425336	0.000056
H362	H	-0.194889	0.925336	0.500056
H363	H	-0.510471	-0.121919	0.865958
H364	H	-0.010471	0.378081	1.365958
H365	H	-0.647846	0.710950	0.000047
H366	H	-0.147846	1.210950	0.500047
H367	H	-0.477330	-0.155015	0.531024
H368	H	0.022670	0.344985	1.031024
H369	H	-0.487892	0.688875	0.000020
H370	H	0.012108	1.188875	0.500020
H371	H	-0.447710	0.299629	0.000014
H372	H	0.052290	0.799629	0.500014
H373	H	-0.446777	0.391080	0.000011
H374	H	0.053223	0.891080	0.500011
H375	H	-0.477335	-0.155012	0.625747
H376	H	0.022665	0.344988	1.125747
