data_functionalizedCrystal
_audit_creation_method	'MofGen! by Chris Wilmer'
_symmetry_space_group_name_H-M	'P1'
_symmetry_Int_Tables_number	1
_symmetry_cell_setting	triclinic
loop_
_symmetry_equiv_pos_as_xyz
  x,y,z
_cell_length_a	10.723023
_cell_length_b	9.198806
_cell_length_c	9.065218
_cell_angle_alpha	89.998664
_cell_angle_beta	95.258283
_cell_angle_gamma	90.003487
loop_
_atom_site_label
_atom_site_type_symbol
_atom_site_fract_x
_atom_site_fract_y
_atom_site_fract_z
O1	O	1.658029	0.120871	-0.206933
O2	O	1.294957	0.120877	-0.226742
O3	O	1.483998	0.120871	-0.002153
O4	O	1.468988	0.120877	-0.431523
O5	O	1.483982	-0.120914	-0.002152
O6	O	1.294942	-0.120908	-0.226742
O7	O	1.658014	-0.120914	-0.206933
Cu8	Cu	1.476476	-0.142988	-0.216837
Cu9	Cu	1.476494	0.142951	-0.216838
O10	O	1.468973	-0.120908	-0.431522
C11	C	1.248444	-0.000015	-0.225301
C12	C	1.109872	-0.000013	-0.220989
C13	C	1.048084	-0.125263	-0.219066
C14	C	0.904863	-0.125264	-0.214609
N15	N	1.476473	-0.344102	-0.216836
C16	C	1.555844	-0.416301	-0.122121
C17	C	1.555863	-0.583714	-0.122116
C18	C	1.704527	-0.000019	-0.208374
C19	C	1.843099	-0.000012	-0.212687
C20	C	1.482547	-0.000019	0.052826
C21	C	1.478234	-0.000012	0.216644
N22	N	1.476508	0.344065	-0.216828
C23	C	1.470423	-0.000015	-0.486501
C24	C	1.474736	-0.000012	-0.650319
H25	H	0.896226	0.107226	-0.214349
H26	H	1.056740	0.107219	-0.219331
H27	H	1.623821	-0.645802	-0.041032
H28	H	1.623778	-0.354177	-0.041030
H29	H	1.408556	-0.593856	-0.297926
Br30	Br	1.363221	-0.447636	-0.351979
H31	H	0.851726	-0.232496	-0.212963
Br32	Br	1.136629	-0.304001	-0.221812
