data_functionalizedCrystal
_audit_creation_method	'MofGen! by Chris Wilmer'
_symmetry_space_group_name_H-M	'P1'
_symmetry_Int_Tables_number	1
_symmetry_cell_setting	triclinic
loop_
_symmetry_equiv_pos_as_xyz
  x,y,z
_cell_length_a	14.044220
_cell_length_b	17.038272
_cell_length_c	12.503572
_cell_angle_alpha	93.777379
_cell_angle_beta	86.164750
_cell_angle_gamma	92.150217
loop_
_atom_site_label
_atom_site_type_symbol
_atom_site_fract_x
_atom_site_fract_y
_atom_site_fract_z
O1	O	1.278116	0.185401	-0.089207
O2	O	1.611450	0.518734	0.244126
O3	O	1.944783	0.852068	0.577460
O4	O	1.001597	0.178559	-0.089234
O5	O	1.334930	0.511893	0.244099
O6	O	1.668264	0.845226	0.577433
O7	O	1.138213	0.068050	-0.089212
O8	O	1.471546	0.401384	0.244121
O9	O	1.804879	0.734717	0.577454
O10	O	1.141501	0.295910	-0.089229
O11	O	1.474834	0.629243	0.244104
O12	O	1.808167	0.962577	0.577438
O13	O	1.127940	0.076376	0.089428
O14	O	1.461273	0.409710	0.422761
O15	O	1.794606	0.743043	0.756095
O16	O	0.991324	0.186885	0.089406
O17	O	1.324657	0.520219	0.422739
O18	O	1.657991	0.853552	0.756073
O19	O	1.267843	0.193727	0.089433
O20	O	1.601177	0.527060	0.422767
O21	O	1.934510	0.860394	0.756100
Cu22	Cu	1.128646	0.191066	0.105731
Cu23	Cu	1.461979	0.524400	0.439064
Cu24	Cu	1.795312	0.857733	0.772398
Cu25	Cu	1.140795	0.181220	-0.105532
Cu26	Cu	1.474128	0.514553	0.227801
Cu27	Cu	1.807461	0.847887	0.561135
O28	O	1.131228	0.304236	0.089411
O29	O	1.464561	0.637569	0.422745
O30	O	1.797894	0.970903	0.756078
C31	C	0.960905	0.179728	0.000083
C32	C	1.294238	0.513061	0.333416
C33	C	1.627572	0.846395	0.666749
C34	C	0.854959	0.170796	0.000072
C35	C	1.188293	0.504129	0.333406
C36	C	1.521626	0.837463	0.666739
C37	C	1.130087	0.042876	0.000108
C38	C	1.463420	0.376209	0.333441
C39	C	1.796753	0.709542	0.666774
C40	C	1.121168	-0.044541	0.000106
C41	C	1.454501	0.288792	0.333440
C42	C	1.787834	0.622126	0.666773
C43	C	0.660980	0.154469	0.000095
C44	C	0.994313	0.487802	0.333428
C45	C	1.327647	0.821135	0.666762
C46	C	0.608455	0.217814	0.000095
C47	C	0.941788	0.551147	0.333428
C48	C	1.275122	0.884480	0.666761
C49	C	0.500518	0.208729	0.000107
C50	C	0.833851	0.542062	0.333441
C51	C	1.167185	0.875396	0.666774
C52	C	0.768927	0.163552	0.000082
C53	C	1.102260	0.496886	0.333416
C54	C	1.435593	0.830219	0.666749
C55	C	1.203055	-0.088926	0.000115
C56	C	1.536389	0.244407	0.333449
C57	C	1.869722	0.577741	0.666782
C58	C	1.194670	-0.171064	0.000104
C59	C	1.528003	0.162269	0.333438
C60	C	1.861337	0.495603	0.666771
C61	C	1.104395	-0.208815	0.000092
C62	C	1.437729	0.124519	0.333425
C63	C	1.771062	0.457852	0.666759
C64	C	1.022502	-0.164424	0.000080
C65	C	1.355835	0.168910	0.333413
C66	C	1.689168	0.502243	0.666746
C67	C	1.030888	-0.082288	0.000083
C68	C	1.364222	0.251045	0.333416
C69	C	1.697555	0.584379	0.666750
C70	C	1.074766	-0.456646	0.000074
C71	C	1.408100	-0.123313	0.333408
C72	C	1.741433	0.210020	0.666741
C73	C	1.066385	-0.538788	0.000074
C74	C	1.399719	-0.205455	0.333408
C75	C	1.733052	0.127879	0.666741
C76	C	1.238555	-0.545422	0.000097
C77	C	1.571888	-0.212089	0.333430
C78	C	1.905221	0.121244	0.666764
C79	C	1.246933	-0.463284	0.000107
C80	C	1.580267	-0.129951	0.333440
C81	C	1.913600	0.203382	0.666774
C82	C	1.165040	-0.418901	0.000089
C83	C	1.498373	-0.085568	0.333422
C84	C	1.831707	0.247766	0.666756
C85	C	1.095822	-0.292772	0.000084
C86	C	1.429155	0.040561	0.333417
C87	C	1.762488	0.373894	0.666751
C88	C	1.173615	-0.334945	0.000089
C89	C	1.506948	-0.001612	0.333422
C90	C	1.840282	0.331721	0.666756
C91	C	1.308536	0.192558	0.000114
C92	C	1.641869	0.525892	0.333448
C93	C	1.975202	0.859225	0.666781
C94	C	1.414481	0.201490	0.000117
C95	C	1.747815	0.534823	0.333451
C96	C	2.081148	0.868156	0.666784
C97	C	1.139354	0.329410	0.000089
C98	C	1.472687	0.662744	0.333423
C99	C	1.806020	0.996077	0.666756
C100	C	1.148273	0.416827	0.000083
C101	C	1.481607	0.750160	0.333417
C102	C	1.814940	1.083494	0.666750
N103	N	1.120107	0.197992	0.254322
N104	N	1.453441	0.531325	0.587655
N105	N	1.786774	0.864658	0.920989
N106	N	1.149340	0.174289	-0.254123
N107	N	1.482673	0.507622	0.079211
N108	N	1.816007	0.840955	0.412544
C109	C	1.107548	0.208186	0.473435
C110	C	1.440881	0.541519	0.806768
C111	C	1.774215	0.874853	1.140102
C112	C	1.161896	0.164097	0.526771
C113	C	1.495230	0.497430	0.860104
C114	C	1.828563	0.830764	1.193438
C115	C	1.154908	0.169769	0.648693
C116	C	1.488242	0.503102	0.982026
C117	C	1.821575	0.836436	1.315360
C118	C	1.114535	0.202515	0.351502
C119	C	1.447868	0.535848	0.684835
C120	C	1.781202	0.869181	1.018169
H121	H	0.644550	0.278868	0.000085
H122	H	0.977883	0.612201	0.333418
H123	H	1.311217	0.945535	0.666752
H124	H	1.213675	0.122092	0.480866
H125	H	1.547008	0.455425	0.814200
H126	H	1.880341	0.788758	1.147533
C127	C	0.612220	0.071992	0.000098
C128	C	0.945553	0.405325	0.333432
C129	C	1.278886	0.738658	0.666765
N130	N	0.575483	0.009870	0.000096
N131	N	0.908816	0.343204	0.333429
N132	N	1.242150	0.676537	0.666763
C133	C	1.037602	0.264929	0.535447
C134	C	1.370935	0.598263	0.868780
C135	C	1.704268	0.931596	1.202114
N136	N	0.984919	0.307668	0.582167
N137	N	1.318253	0.641002	0.915500
N138	N	1.651586	0.974335	1.248833
C139	C	1.272914	-0.293416	0.000108
C140	C	1.606247	0.039917	0.333442
C141	C	1.939581	0.373250	0.666775
N142	N	1.347706	-0.262129	0.000130
N143	N	1.681040	0.071204	0.333463
N144	N	2.014373	0.404537	0.666797
H145	H	1.276566	-0.058195	0.000132
H146	H	1.609900	0.275138	0.333466
H147	H	1.943233	0.608471	0.666799
C148	C	1.346242	-0.421765	0.000122
C149	C	1.679575	-0.088432	0.333455
C150	C	2.012909	0.244902	0.666789
N151	N	1.421043	-0.390492	0.000137
N152	N	1.754376	-0.057159	0.333471
N153	N	2.087710	0.276175	0.666804
H154	H	1.022319	-0.323518	0.000076
H155	H	1.355653	0.009815	0.333410
H156	H	1.688986	0.343148	0.666743
H157	H	1.261352	-0.207199	0.000114
H158	H	1.594685	0.126135	0.333448
H159	H	1.928019	0.459468	0.666781
H160	H	1.305227	-0.581568	0.000110
H161	H	1.638561	-0.248235	0.333443
H162	H	1.971894	0.085098	0.666776
C163	C	0.967073	-0.580312	0.000052
C164	C	1.300406	-0.246979	0.333386
C165	C	1.633739	0.086354	0.666719
N166	N	0.892274	-0.611588	0.000036
N167	N	1.225607	-0.278255	0.333369
N168	N	1.558941	0.055078	0.666702
C169	C	0.984680	-0.407835	0.000049
C170	C	1.318013	-0.074502	0.333382
C171	C	1.651347	0.258831	0.666715
N172	N	0.916823	-0.371068	0.000026
N173	N	1.250156	-0.037735	0.333360
N174	N	1.583490	0.295599	0.666693
H175	H	0.948998	-0.195167	0.000063
H176	H	1.282332	0.138166	0.333396
H177	H	1.615665	0.471499	0.666729
H178	H	0.964206	-0.046150	0.000075
H179	H	1.297540	0.287183	0.333409
H180	H	1.630873	0.620516	0.666742
