data_functionalizedCrystal
_audit_creation_method	'MofGen! by Chris Wilmer'
_symmetry_space_group_name_H-M	'P1'
_symmetry_Int_Tables_number	1
_symmetry_cell_setting	triclinic
loop_
_symmetry_equiv_pos_as_xyz
  x,y,z
_cell_length_a	12.759401
_cell_length_b	18.050589
_cell_length_c	18.050582
_cell_angle_alpha	89.981795
_cell_angle_beta	89.988279
_cell_angle_gamma	90.028382
loop_
_atom_site_label
_atom_site_type_symbol
_atom_site_fract_x
_atom_site_fract_y
_atom_site_fract_z
Zn1	Zn	1.606086	-0.295703	-0.419872
Zn2	Zn	1.605960	-0.419887	-0.295691
Zn3	Zn	1.430409	-0.295715	-0.295703
Zn4	Zn	1.430336	-0.419857	-0.419847
O5	O	1.518198	-0.357791	-0.357778
O6	O	1.753091	-0.312184	-0.403405
O7	O	1.582651	-0.403433	-0.191768
O8	O	1.453797	-0.191789	-0.312189
O9	O	1.752998	-0.403421	-0.312170
O10	O	1.582866	-0.191780	-0.403416
O11	O	1.453674	-0.312205	-0.191777
O12	O	1.283378	-0.312175	-0.312165
O13	O	1.453671	-0.403370	-0.523775
O14	O	1.283324	-0.403381	-0.403373
O15	O	1.582795	-0.312155	-0.523793
O16	O	1.582579	-0.523807	-0.312145
O17	O	1.453549	-0.523785	-0.403362
C18	C	1.245230	-0.357777	-0.357768
C19	C	1.128454	-0.357789	-0.357781
C20	C	1.073591	-0.405356	-0.405195
C21	C	0.963867	-0.405365	-0.405203
C22	C	0.963878	-0.310239	-0.310378
C23	C	1.073600	-0.310226	-0.310374
C24	C	1.128445	-0.452919	-0.452602
C25	C	1.073582	-0.500490	-0.500019
C26	C	0.963858	-0.500499	-0.500027
C27	C	0.908997	-0.452937	-0.452618
C28	C	1.518071	-0.550743	-0.357766
C29	C	1.518113	-0.633288	-0.357785
C30	C	1.448015	-0.832754	-0.407371
C31	C	1.422412	-0.882188	-0.339605
C32	C	1.518216	-0.784419	-0.357795
C33	C	1.543870	-0.882066	-0.425569
C34	C	1.518314	-0.930404	-0.357810
C35	C	1.492563	-0.832766	-0.289993
C36	C	1.614066	-0.832640	-0.376002
C37	C	1.588499	-0.882051	-0.308189
C38	C	1.518157	-0.700321	-0.357787
C39	C	1.518373	-1.014500	-0.357810
C40	C	1.792231	-0.357805	-0.357789
C41	C	1.909008	-0.357811	-0.357793
C42	C	1.518239	-0.357758	-0.551484
C43	C	1.518256	-0.357744	-0.634030
C44	C	1.518354	-0.164085	-0.357807
C45	C	1.518420	-0.081539	-0.357819
C46	C	1.448093	-0.407278	-0.833470
C47	C	1.543946	-0.425432	-0.882859
C48	C	1.518308	-0.357687	-0.785160
C49	C	1.422508	-0.339513	-0.882853
C50	C	1.518350	-0.357634	-0.931145
C51	C	1.614211	-0.375876	-0.833462
C52	C	1.492709	-0.289926	-0.833451
C53	C	1.588628	-0.308053	-0.882818
C54	C	1.518283	-0.357720	-0.701062
C55	C	1.518386	-0.357601	-1.015242
C56	C	1.518217	-0.357770	-0.164826
C57	C	1.518403	-0.357575	-0.082281
H58	H	1.118270	-0.271487	-0.271771
C59	C	1.463518	-0.803872	-0.213616
C60	C	1.463736	-0.726310	-0.214512
C61	C	1.436968	-0.699666	-0.144173
H62	H	1.513065	-0.821066	-0.178313
H63	H	1.395650	-0.821208	-0.200601
H64	H	1.531595	-0.708980	-0.227517
H65	H	1.414188	-0.709096	-0.249800
H66	H	1.369099	-0.717003	-0.131158
H67	H	1.486518	-0.716865	-0.108875
H68	H	1.437103	-0.647038	-0.144773
C69	C	1.572676	-0.501801	-0.911908
C70	C	1.490659	-0.529020	-0.955661
C71	C	1.517084	-0.599366	-0.982438
H72	H	1.584259	-0.534402	-0.871413
H73	H	1.634650	-0.498450	-0.940902
H74	H	1.428703	-0.532376	-0.926668
H75	H	1.479064	-0.496440	-0.996167
H76	H	1.579057	-0.596015	-1.011432
H77	H	1.528667	-0.631961	-0.941939
H78	H	1.461444	-0.617841	-1.012133
H79	H	1.217788	-0.452918	-0.452600
C80	C	0.904128	-0.258693	-0.258927
C81	C	0.796295	-0.268903	-0.269062
C82	C	0.741223	-0.221442	-0.221668
H83	H	0.922004	-0.208776	-0.269828
H84	H	0.922030	-0.269503	-0.208995
H85	H	0.778401	-0.258088	-0.318983
H86	H	0.778388	-0.318810	-0.258156
H87	H	0.759125	-0.232252	-0.171735
H88	H	0.759108	-0.171527	-0.232572
H89	H	0.668053	-0.228367	-0.228533
C90	C	1.722097	-0.803554	-0.396406
C91	C	1.761512	-0.760932	-0.337903
C92	C	1.861034	-0.734135	-0.356677
H93	H	1.717157	-0.773790	-0.439670
H94	H	1.767818	-0.844060	-0.405549
H95	H	1.715803	-0.720432	-0.328770
H96	H	1.766478	-0.790681	-0.294633
H97	H	1.906755	-0.774640	-0.365819
H98	H	1.856084	-0.704373	-0.399941
H99	H	1.887794	-0.705218	-0.316984
H100	H	1.565530	-0.903722	-0.482879
H101	H	1.118257	-0.539208	-0.538622
H102	H	1.388561	-0.811107	-0.449237
H103	H	0.919192	-0.539229	-0.538641
C104	C	1.368840	-0.463211	-0.804674
C105	C	1.268886	-0.444748	-0.830788
C106	C	1.195860	-0.496262	-0.804284
H107	H	1.368792	-0.462571	-0.752055
H108	H	1.387147	-0.511323	-0.821615
H109	H	1.250584	-0.396649	-0.813844
H110	H	1.268899	-0.445393	-0.883405
H111	H	1.214167	-0.544374	-0.821224
H112	H	1.195822	-0.495618	-0.751665
H113	H	1.128035	-0.483746	-0.822004
C114	C	0.789866	-0.453056	-0.452736
C115	C	0.753557	-0.504892	-0.504408
C116	C	0.643824	-0.505020	-0.504539
H117	H	0.764982	-0.405187	-0.465696
H118	H	0.764942	-0.465863	-0.404811
H119	H	0.778471	-0.492080	-0.552322
H120	H	0.778413	-0.552767	-0.491460
H121	H	0.618900	-0.517827	-0.456614
H122	H	0.618950	-0.457149	-0.517497
H123	H	0.619174	-0.540194	-0.539592
H124	H	1.647908	-0.903561	-0.266222
H125	H	1.695269	-0.391290	-0.811857
H126	H	1.341474	-0.324164	-0.904549
H127	H	1.648093	-0.266092	-0.904348
H128	H	1.471004	-0.232660	-0.811732
C129	C	1.314314	-0.911170	-0.319214
C130	C	1.241079	-0.886213	-0.371294
C131	C	1.141490	-0.912901	-0.352544
H132	H	1.295499	-0.893581	-0.271439
H133	H	1.315249	-0.963798	-0.318956
H134	H	1.240141	-0.833596	-0.371544
H135	H	1.259860	-0.903801	-0.419074
H136	H	1.142426	-0.965529	-0.352287
H137	H	1.122686	-0.895311	-0.304768
H138	H	1.091790	-0.895978	-0.387881
