data_functionalizedCrystal
_audit_creation_method	'MofGen! by Chris Wilmer'
_symmetry_space_group_name_H-M	'P1'
_symmetry_Int_Tables_number	1
_symmetry_cell_setting	triclinic
loop_
_symmetry_equiv_pos_as_xyz
  x,y,z
_cell_length_a	16.959454
_cell_length_b	14.908618
_cell_length_c	14.908308
_cell_angle_alpha	89.826377
_cell_angle_beta	93.269679
_cell_angle_gamma	93.285187
loop_
_atom_site_label
_atom_site_type_symbol
_atom_site_fract_x
_atom_site_fract_y
_atom_site_fract_z
Zn1	Zn	-0.412531	-1.345295	-0.587639
Zn2	Zn	-0.537556	-1.353876	-0.437285
Zn3	Zn	-0.397346	-1.203611	-0.428632
Zn4	Zn	-0.536613	-1.194904	-0.578933
O5	O	-0.471012	-1.274421	-0.508122
O6	O	-0.435866	-1.472259	-0.574959
O7	O	-0.512996	-1.341178	-0.310313
O8	O	-0.288753	-1.222458	-0.449746
O9	O	-0.527721	-1.478564	-0.464495
O10	O	-0.299910	-1.326553	-0.566568
O11	O	-0.409984	-1.230778	-0.303955
O12	O	-0.409070	-1.076630	-0.441305
O13	O	-0.526114	-1.207619	-0.705912
O14	O	-0.511389	-1.070233	-0.551730
O15	O	-0.434952	-1.318111	-0.712308
O16	O	-0.648038	-1.332735	-0.456053
O17	O	-0.647345	-1.215939	-0.560121
C18	C	-0.458480	-1.040806	-0.494634
C19	C	-0.453138	-0.940863	-0.488885
C20	C	-0.549796	-0.746456	-0.592914
C21	C	-0.544780	-0.652551	-0.587515
C22	C	-0.438087	-0.659145	-0.472695
C23	C	-0.443103	-0.753050	-0.478093
C24	C	-0.498960	-0.796703	-0.538204
C25	C	-0.503979	-0.890610	-0.543597
C26	C	-0.397283	-0.897202	-0.428782
C27	C	-0.392268	-0.803297	-0.423383
C28	C	-0.676373	-1.274347	-0.508102
C29	C	-0.764233	-1.274396	-0.508129
C30	C	-1.135383	-1.213689	-0.562309
C31	C	-1.136054	-1.335398	-0.454041
C32	C	-1.053506	-1.335368	-0.454031
C33	C	-1.011893	-1.274496	-0.508160
C34	C	-1.052827	-1.213655	-0.562298
C35	C	-1.012565	-1.396201	-0.399887
C36	C	-0.930012	-1.396172	-0.399874
C37	C	-0.888398	-1.335304	-0.454008
C38	C	-0.929337	-1.274461	-0.508149
C39	C	-0.887724	-1.213589	-0.562278
C40	C	-0.928662	-1.152750	-0.616425
C41	C	-1.011213	-1.152787	-0.616432
C42	C	-0.805847	-1.335267	-0.454000
C43	C	-0.805168	-1.213555	-0.562267
C44	C	-0.264850	-1.274519	-0.508163
C45	C	-0.176997	-1.274561	-0.508180
C46	C	-0.482122	-1.260936	-0.742648
C47	C	-0.486856	-1.255190	-0.842588
C48	C	-0.483586	-0.508949	-0.521657
C49	C	-0.488928	-0.608892	-0.527407
C50	C	-0.400807	-1.359444	-1.037050
C51	C	-0.405253	-1.354047	-1.130953
C52	C	-0.500189	-1.238996	-1.124300
C53	C	-0.495743	-1.244393	-1.030397
C54	C	-0.446051	-1.304620	-0.986775
C55	C	-0.441610	-1.310020	-0.892870
C56	C	-0.536541	-1.194965	-0.886219
C57	C	-0.540987	-1.189568	-0.980122
C58	C	-0.459890	-1.287906	-0.274512
C59	C	-0.454943	-1.293826	-0.174582
H60	H	-0.771291	-1.163988	-0.606349
C61	C	-0.291316	-0.894284	-0.314741
C62	C	-0.341398	-0.952434	-0.368640
H63	H	-0.256821	-0.928384	-0.277608
H64	H	-0.261036	-0.855422	-0.351869
H65	H	-0.322128	-0.859619	-0.278180
H66	H	-0.310586	-0.987095	-0.405205
H67	H	-0.371681	-0.991312	-0.331507
H68	H	-0.586174	-0.611644	-0.632068
C69	C	-0.801813	-1.098663	-0.664471
C70	C	-0.882915	-1.085842	-0.675923
H71	H	-0.773571	-1.057360	-0.701206
H72	H	-0.784753	-1.089017	-0.603294
H73	H	-0.792114	-1.158305	-0.681162
H74	H	-0.892615	-1.026201	-0.659225
H75	H	-0.899981	-1.095480	-0.737114
H76	H	-0.392607	-0.623587	-0.423762
H77	H	-0.573385	-1.150325	-0.845275
H78	H	-1.044552	-1.103254	-0.660515
H79	H	-0.401150	-1.359061	-0.857355
H80	H	-0.360350	-1.408487	-1.001532
C81	C	-1.261624	-1.159694	-0.610406
C82	C	-1.180378	-1.146814	-0.621822
H83	H	-1.289400	-1.118403	-0.647144
H84	H	-1.278969	-1.219336	-0.627108
H85	H	-1.271604	-1.150064	-0.549225
H86	H	-1.170397	-1.156451	-0.683003
H87	H	-1.163027	-1.087158	-0.605126
H88	H	-0.346789	-0.767742	-0.374446
H89	H	-0.581443	-1.140532	-1.015652
H90	H	-0.896685	-1.445711	-0.355786
H91	H	-0.540645	-1.189962	-1.159833
C92	C	-1.262891	-1.389434	-0.405926
C93	C	-1.181790	-1.402269	-0.394504
H94	H	-1.291126	-1.430713	-0.369160
H95	H	-1.272574	-1.329787	-0.389265
H96	H	-1.279976	-1.399112	-0.467101
H97	H	-1.164704	-1.392585	-0.333330
H98	H	-1.172102	-1.461930	-0.411160
C99	C	-1.044071	-1.550995	-0.364951
C100	C	-1.058345	-1.463064	-0.340384
H101	H	-1.072346	-1.592261	-0.328209
H102	H	-1.061131	-1.560646	-0.426128
H103	H	-0.989055	-1.559714	-0.357162
H104	H	-1.113361	-1.454343	-0.348179
H105	H	-1.041290	-1.453410	-0.279192
H106	H	-0.772518	-1.384798	-0.409910
C107	C	-0.310972	-1.468316	-1.128093
C108	C	-0.355523	-1.414316	-1.186216
H109	H	-0.280273	-1.505528	-1.162212
H110	H	-0.276905	-1.431257	-1.089215
H111	H	-0.345527	-1.504798	-1.093444
H112	H	-0.320967	-1.377829	-1.220861
H113	H	-0.389593	-1.451379	-1.225110
H114	H	-0.595281	-0.781999	-0.641853
C115	C	-0.608927	-0.874656	-0.656559
C116	C	-0.565372	-0.938595	-0.609674
H117	H	-0.646824	-0.904280	-0.697359
H118	H	-0.635297	-0.840273	-0.615223
H119	H	-0.574198	-0.836061	-0.688905
H120	H	-0.600100	-0.977186	-0.577323
H121	H	-0.539000	-0.972994	-0.651016
