data_functionalizedCrystal
_audit_creation_method	'MofGen! by Chris Wilmer'
_symmetry_space_group_name_H-M	'P1'
_symmetry_Int_Tables_number	1
_symmetry_cell_setting	triclinic
loop_
_symmetry_equiv_pos_as_xyz
  x,y,z
_cell_length_a	15.944551
_cell_length_b	15.944551
_cell_length_c	14.421503
_cell_angle_alpha	89.996660
_cell_angle_beta	89.996859
_cell_angle_gamma	96.501262
loop_
_atom_site_label
_atom_site_type_symbol
_atom_site_fract_x
_atom_site_fract_y
_atom_site_fract_z
O1	O	1.114529	-0.108320	-0.077017
O2	O	0.869980	-0.121677	-0.077040
O3	O	0.998933	0.007276	-0.077020
O4	O	0.985576	-0.237273	-0.077038
O5	O	0.998911	0.007257	0.077204
O6	O	0.869958	-0.121696	0.077183
O7	O	1.114508	-0.108340	0.077206
Cu8	Cu	0.992231	-0.115020	0.091277
Cu9	Cu	0.992256	-0.114997	-0.091110
O10	O	0.985555	-0.237293	0.077186
C11	C	0.838675	-0.121132	0.000069
C12	C	0.745429	-0.119470	0.000060
C13	C	0.530572	-0.035565	0.000084
C14	C	0.469563	-0.074518	-0.075959
C15	C	0.574703	-0.116462	0.000071
C16	C	0.469564	-0.074556	0.076093
C17	C	0.409790	-0.113551	0.000086
C18	C	0.514922	-0.155437	-0.076035
C19	C	0.514929	-0.155464	0.076086
C20	C	0.453937	-0.194476	0.000024
C21	C	0.669705	-0.118137	0.000062
C22	C	0.314789	-0.111883	0.000089
C23	C	0.998367	0.038561	0.000092
C24	C	0.996705	0.131807	0.000093
C25	C	1.145813	-0.108885	0.000096
C26	C	1.239059	-0.110547	0.000098
C27	C	0.986120	-0.268577	0.000072
C28	C	0.987782	-0.361823	0.000066
N29	N	0.992219	-0.115035	0.219558
C30	C	0.912801	0.346663	0.000072
C31	C	0.951753	0.407671	0.076117
C32	C	0.993698	0.302533	0.000085
C33	C	0.951793	0.407674	-0.075935
C34	C	0.990787	0.467445	0.000074
C35	C	1.032672	0.362312	0.076193
C36	C	1.032701	0.362308	-0.075927
C37	C	1.071711	0.423298	0.000136
C38	C	0.995372	0.207530	0.000092
C39	C	0.989119	0.562446	0.000073
N40	N	0.992275	-0.114975	-0.219392
C41	C	0.932581	-0.174636	0.469202
C42	C	1.008481	-0.190943	0.531011
C43	C	0.992240	-0.115015	0.408719
C44	C	0.916359	-0.098727	0.531005
C45	C	0.992253	-0.114997	0.591441
C46	C	1.068178	-0.131360	0.469167
C47	C	0.976007	-0.039111	0.469156
C48	C	1.051961	-0.055386	0.530936
C49	C	0.992231	-0.115027	0.303458
C50	C	0.992270	-0.114985	0.696700
H51	H	0.563905	0.031573	-0.000005
O52	O	0.959634	0.037394	0.436552
C53	C	0.960606	0.036522	0.338798
H54	H	0.999789	-0.014511	0.313602
H55	H	0.893287	0.022745	0.311708
C56	C	0.951553	0.185796	0.333591
C57	C	0.999684	0.123121	0.302645
H58	H	0.975655	0.239215	0.311289
H59	H	0.950895	0.186384	0.399450
H60	H	0.895457	0.174304	0.311014
H61	H	1.055776	0.134608	0.325232
H62	H	1.000353	0.122537	0.236789
O63	O	1.024735	-0.267569	0.563388
C64	C	0.961697	-0.330259	0.531923
H65	H	0.902100	-0.300138	0.514578
H66	H	0.984944	-0.361642	0.467249
C67	C	1.015137	-0.434032	0.629648
C68	C	0.941937	-0.397037	0.608352
H69	H	1.002951	-0.475226	0.676790
H70	H	1.057610	-0.391798	0.650845
H71	H	1.034503	-0.460178	0.575747
H72	H	0.922579	-0.370883	0.662249
H73	H	0.899461	-0.439269	0.587166
O74	O	0.872558	-0.234875	0.436741
C75	C	0.910992	-0.292799	0.381650
H76	H	0.974035	-0.261450	0.354511
H77	H	0.921966	-0.350232	0.425190
C78	C	0.775564	-0.359337	0.332651
C79	C	0.852990	-0.320832	0.299312
H80	H	0.739784	-0.376633	0.281863
H81	H	0.749669	-0.320315	0.369770
H82	H	0.784720	-0.407193	0.368934
H83	H	0.843834	-0.272971	0.263040
H84	H	0.878882	-0.359846	0.262185
H85	H	0.852183	-0.084959	0.558170
H86	H	0.917527	0.427771	0.140401
O87	O	1.073383	0.338178	-0.152643
C88	C	1.018143	0.281087	-0.204760
H89	H	0.966331	0.249823	-0.157631
H90	H	0.988554	0.316559	-0.262643
C91	C	1.131397	0.251439	-0.305048
C92	C	1.067764	0.213035	-0.247161
H93	H	1.162005	0.209463	-0.331207
H94	H	1.168613	0.289905	-0.269938
H95	H	1.106730	0.280998	-0.353276
H96	H	1.092432	0.183486	-0.198928
H97	H	1.030553	0.174562	-0.282264
O98	O	1.112106	0.004867	0.563121
C99	C	1.073703	0.063721	0.616932
H100	H	1.004607	0.062347	0.596040
H101	H	1.077856	0.046737	0.693457
C102	C	1.204344	0.154498	0.626221
C103	C	1.119481	0.152815	0.600555
H104	H	1.232584	0.209455	0.616124
H105	H	1.230218	0.114846	0.589971
H106	H	1.207793	0.140341	0.689991
H107	H	1.116033	0.166962	0.536785
H108	H	1.093607	0.192472	0.636795
O109	O	0.910860	0.431532	-0.152606
C110	C	0.827107	0.392138	-0.152310
H111	H	0.823074	0.332734	-0.107793
H112	H	0.783538	0.437385	-0.122637
C113	C	0.804872	0.441188	-0.306882
C114	C	0.799921	0.368223	-0.252212
H115	H	0.788101	0.426440	-0.368506
H116	H	0.861297	0.467732	-0.307081
H117	H	0.768565	0.478888	-0.282143
H118	H	0.836236	0.330530	-0.276944
H119	H	0.743502	0.341672	-0.252019
H120	H	1.066850	0.342314	0.140554
O121	O	1.151900	0.462827	0.000355
C122	C	1.194220	0.439686	0.080625
H123	H	1.145989	0.417773	0.136402
H124	H	1.233333	0.386200	0.063212
C125	C	1.312001	0.543171	0.047974
C126	C	1.252764	0.516264	0.116485
H127	H	1.348117	0.590406	0.070093
H128	H	1.283491	0.558760	-0.006107
H129	H	1.344586	0.498593	0.033470
H130	H	1.220173	0.560839	0.130979
H131	H	1.281269	0.500685	0.170569
O132	O	0.538859	-0.196293	-0.152723
C133	C	0.578893	-0.266830	-0.125596
H134	H	0.604642	-0.256735	-0.052213
H135	H	0.531355	-0.325866	-0.127429
C136	C	0.620429	-0.290167	-0.282747
C137	C	0.652062	-0.277765	-0.192619
H138	H	0.665561	-0.296916	-0.324092
H139	H	0.593455	-0.242648	-0.301024
H140	H	0.580815	-0.339363	-0.284262
H141	H	0.691667	-0.228565	-0.191104
H142	H	0.679044	-0.325277	-0.174343
O143	O	1.144679	-0.147962	0.436751
C144	C	1.143734	-0.147815	0.338991
H145	H	1.075866	-0.160958	0.313423
H146	H	1.172472	-0.083549	0.312483
C147	C	1.278916	-0.200569	0.333951
C148	C	1.195560	-0.216719	0.302548
H149	H	1.310888	-0.243069	0.311470
H150	H	1.279555	-0.200665	0.399814
H151	H	1.302853	-0.147012	0.311859
H152	H	1.171621	-0.270270	0.324650
H153	H	1.194919	-0.216634	0.236688
H154	H	0.535052	-0.189660	0.140373
O155	O	0.445631	-0.033557	-0.152580
C156	C	0.485050	0.050186	-0.152318
H157	H	0.503291	0.069671	-0.078319
H158	H	0.544131	0.054593	-0.197386
C159	C	0.401258	0.085459	-0.281998
C160	C	0.423655	0.109392	-0.191111
H161	H	0.363390	0.121981	-0.305931
H162	H	0.374703	0.029039	-0.282178
H163	H	0.450498	0.089132	-0.319543
H164	H	0.374418	0.105709	-0.153565
H165	H	0.450202	0.165814	-0.190926
H166	H	0.449469	-0.040333	0.140379
O167	O	0.832682	0.306959	0.000313
C168	C	0.790324	0.329947	0.080624
H169	H	0.838535	0.351931	0.136387
H170	H	0.751072	0.383339	0.063270
C171	C	0.672740	0.226238	0.047976
C172	C	0.731954	0.253232	0.116468
H173	H	0.636732	0.178918	0.070085
H174	H	0.701276	0.210752	-0.006133
H175	H	0.640039	0.270738	0.033521
H176	H	0.764661	0.208736	0.130914
H177	H	0.703422	0.268709	0.170581
H178	H	0.420779	-0.261683	-0.000023
