data_functionalizedCrystal
_audit_creation_method	'MofGen! by Chris Wilmer'
_symmetry_space_group_name_H-M	'P1'
_symmetry_Int_Tables_number	1
_symmetry_cell_setting	triclinic
loop_
_symmetry_equiv_pos_as_xyz
  x,y,z
_cell_length_a	10.686220
_cell_length_b	16.625546
_cell_length_c	16.625539
_cell_angle_alpha	89.969603
_cell_angle_beta	94.350309
_cell_angle_gamma	94.404440
loop_
_atom_site_label
_atom_site_type_symbol
_atom_site_fract_x
_atom_site_fract_y
_atom_site_fract_z
Zn1	Zn	1.929061	-0.226312	-0.361452
Zn2	Zn	2.262394	0.107021	-0.028119
Zn3	Zn	2.595727	0.440354	0.305215
Zn4	Zn	1.928909	-0.361163	-0.226622
Zn5	Zn	2.262243	-0.027830	0.106712
Zn6	Zn	2.595576	0.305504	0.440045
Zn7	Zn	1.718048	-0.236698	-0.236964
Zn8	Zn	2.051381	0.096635	0.096370
Zn9	Zn	2.384715	0.429969	0.429703
Zn10	Zn	1.718002	-0.371466	-0.371737
Zn11	Zn	2.051335	-0.038133	-0.038404
Zn12	Zn	2.384669	0.295200	0.294929
O13	O	1.823505	-0.298910	-0.299194
O14	O	2.156838	0.034423	0.034140
O15	O	2.490172	0.367757	0.367473
O16	O	2.105616	-0.235542	-0.334934
O17	O	2.438949	0.097791	-0.001600
O18	O	2.772282	0.431125	0.331733
O19	O	1.900894	-0.344687	-0.115163
O20	O	2.234227	-0.011353	0.218170
O21	O	2.567561	0.321980	0.551503
O22	O	1.746122	-0.122484	-0.253501
O23	O	2.079455	0.210849	0.079833
O24	O	2.412789	0.544183	0.413166
O25	O	2.105504	-0.334616	-0.235875
O26	O	2.438838	-0.001283	0.097459
O27	O	2.772171	0.332051	0.430792
O28	O	1.901152	-0.114854	-0.344962
O29	O	2.234486	0.218480	-0.011629
O30	O	2.567819	0.551813	0.321705
O31	O	1.745975	-0.253243	-0.122761
O32	O	2.079309	0.080090	0.210572
O33	O	2.412642	0.413424	0.543905
O34	O	1.541467	-0.263234	-0.263474
O35	O	1.874800	0.070099	0.069859
O36	O	2.208134	0.403433	0.403192
O37	O	1.746043	-0.352177	-0.483203
O38	O	2.079377	-0.018844	-0.149870
O39	O	2.412710	0.314490	0.183463
O40	O	1.541433	-0.362248	-0.362492
O41	O	1.874766	-0.028914	-0.029159
O42	O	2.208100	0.304419	0.304175
O43	O	1.901107	-0.245533	-0.475647
O44	O	2.234441	0.087800	-0.142313
O45	O	2.567774	0.421134	0.191020
O46	O	1.900849	-0.475366	-0.245848
O47	O	2.234182	-0.142033	0.087485
O48	O	2.567516	0.191301	0.420819
O49	O	1.745896	-0.482936	-0.352464
O50	O	2.079230	-0.149603	-0.019131
O51	O	2.412563	0.183731	0.314203
C52	C	1.495666	-0.314986	-0.315222
C53	C	1.828999	0.018347	0.018111
C54	C	2.162333	0.351680	0.351445
C55	C	1.355415	-0.321883	-0.322098
C56	C	1.688749	0.011450	0.011235
C57	C	2.022082	0.344783	0.344569
C58	C	1.823386	-0.508407	-0.299166
C59	C	2.156719	-0.175073	0.034168
C60	C	2.490052	0.158260	0.367501
C61	C	1.823450	-0.598025	-0.299175
C62	C	2.156783	-0.264691	0.034158
C63	C	2.490117	0.068642	0.367492
C64	C	1.823670	-0.926189	-0.299248
C65	C	2.157003	-0.592856	0.034085
C66	C	2.490337	-0.259523	0.367418
C67	C	1.823605	-0.834884	-0.299230
C68	C	2.156938	-0.501551	0.034103
C69	C	2.490271	-0.168217	0.367436
C70	C	1.823559	-0.762110	-0.299211
C71	C	2.156892	-0.428777	0.034122
C72	C	2.490226	-0.095443	0.367455
C73	C	1.823496	-0.670799	-0.299194
C74	C	2.156829	-0.337465	0.034139
C75	C	2.490162	-0.004132	0.367473
C76	C	2.152624	-0.282771	-0.283103
C77	C	2.485957	0.050562	0.050230
C78	C	2.819291	0.383895	0.383563
C79	C	2.292875	-0.275894	-0.276247
C80	C	2.626208	0.057439	0.057087
C81	C	2.959542	0.390773	0.390420
C82	C	1.823587	-0.298846	-0.509499
C83	C	2.156920	0.034488	-0.176165
C84	C	2.490254	0.367821	0.157168
C85	C	1.823622	-0.298819	-0.599118
C86	C	2.156955	0.034515	-0.265785
C87	C	2.490289	0.367848	0.067549
C88	C	1.823659	-0.088593	-0.299238
C89	C	2.156993	0.244740	0.034096
C90	C	2.490326	0.578073	0.367429
C91	C	1.823725	0.001031	-0.299256
C92	C	2.157058	0.334364	0.034077
C93	C	2.490392	0.667698	0.367410
C94	C	1.823680	-0.298725	-0.927291
C95	C	2.157013	0.034608	-0.593958
C96	C	2.490347	0.367941	-0.260624
C97	C	1.823660	-0.298754	-0.835984
C98	C	2.156994	0.034579	-0.502650
C99	C	2.490327	0.367913	-0.169317
C100	C	1.823652	-0.298773	-0.763207
C101	C	2.156985	0.034561	-0.429874
C102	C	2.490318	0.367894	-0.096541
C103	C	1.823631	-0.298800	-0.671894
C104	C	2.156964	0.034533	-0.338561
C105	C	2.490297	0.367867	-0.005227
C106	C	1.823496	-0.298912	-0.089703
C107	C	2.156829	0.034421	0.243630
C108	C	2.490163	0.367755	0.576963
C109	C	1.823705	-0.298700	-0.000072
C110	C	2.157039	0.034633	0.333261
C111	C	2.490372	0.367966	0.666594
H112	H	1.346628	-0.231244	-0.231730
H113	H	1.679961	0.102089	0.101603
H114	H	2.013294	0.435422	0.434937
O115	O	1.291098	-0.375092	-0.375192
O116	O	1.624431	-0.041759	-0.041858
O117	O	1.957764	0.291574	0.291475
C118	C	1.160685	-0.370381	-0.370459
C119	C	1.494018	-0.037047	-0.037125
C120	C	1.827351	0.296286	0.296208
H121	H	1.142810	-0.308992	-0.345028
H122	H	1.476143	0.024341	-0.011695
H123	H	1.809477	0.357675	0.321639
H124	H	1.110550	-0.378364	-0.433273
H125	H	1.443883	-0.045031	-0.099940
H126	H	1.777216	0.288302	0.233394
H127	H	1.123239	-0.419975	-0.329249
H128	H	1.456572	-0.086642	0.004084
H129	H	1.789905	0.246692	0.337418
