data_functionalizedCrystal
_audit_creation_method	'MofGen! by Chris Wilmer'
_symmetry_space_group_name_H-M	'P1'
_symmetry_Int_Tables_number	1
_symmetry_cell_setting	triclinic
loop_
_symmetry_equiv_pos_as_xyz
  x,y,z
_cell_length_a	17.699077
_cell_length_b	10.654551
_cell_length_c	16.176319
_cell_angle_alpha	89.996057
_cell_angle_beta	89.993140
_cell_angle_gamma	83.882969
loop_
_atom_site_label
_atom_site_type_symbol
_atom_site_fract_x
_atom_site_fract_y
_atom_site_fract_z
O1	O	1.005091	0.158773	-0.068730
O2	O	0.784844	0.179442	-0.068734
O3	O	0.900031	-0.013720	-0.068732
O4	O	0.889904	0.351936	-0.068732
O5	O	0.900015	-0.013733	0.068761
O6	O	0.784828	0.179430	0.068759
O7	O	1.005075	0.158761	0.068763
Cu8	Cu	0.894950	0.169094	0.081315
Cu9	Cu	0.894969	0.169109	-0.081286
O10	O	0.889888	0.351923	0.068761
C11	C	0.756634	0.178697	0.000012
C12	C	0.672602	0.176479	0.000011
C13	C	0.899279	-0.060511	0.000012
C14	C	0.897054	-0.199915	0.000007
C15	C	0.633119	0.175427	0.074959
C16	C	0.554163	0.173323	0.074960
C17	C	0.514691	0.172279	0.000012
C18	C	0.554179	0.173328	-0.074943
C19	C	0.633134	0.175423	-0.074943
C20	C	0.235762	0.164877	-0.074944
C21	C	0.156801	0.162785	-0.074938
C22	C	0.156791	0.162777	0.074958
C23	C	0.235746	0.164872	0.074958
C24	C	0.275228	0.165913	0.000005
C25	C	0.360841	0.168192	0.000005
C26	C	0.429078	0.170009	0.000011
C27	C	0.896019	-0.265402	-0.074939
C28	C	0.893922	-0.396386	-0.074936
C29	C	0.893898	-0.396385	0.074967
C30	C	0.895990	-0.265402	0.074962
C31	C	0.897083	-0.199916	-0.149895
C32	C	0.896049	-0.265403	-0.224847
C33	C	0.893952	-0.396386	-0.224844
C34	C	0.892889	-0.461883	-0.149888
C35	C	1.033285	0.159506	0.000015
C36	C	1.117318	0.161724	0.000011
C37	C	0.890640	0.398714	0.000015
C38	C	0.892865	0.538119	0.000015
N39	N	0.894942	0.169083	0.195680
N40	N	0.894983	0.169110	-0.195652
C41	C	0.945963	0.083586	0.238945
C42	C	0.945967	0.083584	0.325492
C43	C	0.894953	0.169088	0.368773
C44	C	0.843927	0.254589	0.325502
C45	C	0.843920	0.254584	0.238957
C46	C	0.843953	0.254613	0.674530
C47	C	0.843965	0.254614	0.761082
C48	C	0.946000	0.083614	0.761066
C49	C	0.945993	0.083608	0.674521
C50	C	0.894964	0.169105	0.631257
C51	C	0.894960	0.169103	0.537413
C52	C	0.894961	0.169096	0.462616
H53	H	0.522021	0.172445	0.135991
H54	H	0.896907	-0.212066	-0.285874
H55	H	0.987507	0.013965	0.203712
H56	H	0.987511	0.013965	0.360718
O57	O	0.896882	-0.201883	0.147812
C58	C	0.831998	-0.147279	0.275884
C59	C	0.830913	-0.219306	0.193422
H60	H	0.778661	-0.161318	0.312775
H61	H	0.884413	-0.184679	0.312922
H62	H	0.833705	-0.042430	0.262972
H63	H	0.829180	-0.324165	0.206259
H64	H	0.778505	-0.181803	0.156409
H65	H	0.893033	-0.449722	0.135992
H66	H	0.802387	0.324203	0.360746
O67	O	0.273976	0.165825	0.147837
C68	C	0.265625	0.165660	0.296520
C69	C	0.222240	0.164555	0.214044
H70	H	0.223814	0.164661	0.350070
H71	H	0.309039	0.078768	0.300322
H72	H	0.296144	0.254470	0.300223
H73	H	0.191676	0.075803	0.210286
H74	H	0.178870	0.251507	0.210277
H75	H	0.987535	0.013988	0.639284
O76	O	0.892979	-0.459815	-0.297721
C77	C	0.893178	-0.445974	-0.446404
C78	C	0.894297	-0.373993	-0.363928
H79	H	0.894227	-0.376616	-0.499954
H80	H	0.945083	-0.518927	-0.450204
H81	H	0.839336	-0.495672	-0.450109
H82	H	0.948104	-0.324220	-0.360168
H83	H	0.842356	-0.301113	-0.360163
H84	H	0.891170	-0.568536	-0.149891
O85	O	0.995529	0.000375	0.803004
C86	C	1.038705	-0.218085	0.829524
C87	C	0.982585	-0.123962	0.781965
H88	H	1.028249	-0.318631	0.812544
H89	H	1.099423	-0.201955	0.812480
H90	H	1.029957	-0.203337	0.898810
H91	H	0.991264	-0.138653	0.712668
H92	H	0.921887	-0.140115	0.799078
O93	O	0.671442	0.176215	0.147787
C94	C	0.703555	0.068122	0.275927
C95	C	0.660136	0.067063	0.193470
H96	H	0.694417	-0.020104	0.312893
H97	H	0.766784	0.069720	0.263104
H98	H	0.681564	0.155595	0.312855
H99	H	0.682063	-0.020397	0.156501
H100	H	0.596913	0.065531	0.206351
H101	H	0.665280	0.176282	-0.135973
H102	H	0.802421	0.324244	0.796320
O103	O	0.794362	0.337788	0.632640
C104	C	0.693127	0.507357	0.641797
C105	C	0.749262	0.413243	0.689345
H106	H	0.656638	0.568369	0.687622
H107	H	0.726084	0.570111	0.601287
H108	H	0.655064	0.453192	0.601271
H109	H	0.787339	0.467305	0.729915
H110	H	0.716258	0.350490	0.729803
O111	O	0.794436	0.337812	0.196963
C112	C	0.751193	0.556265	0.170511
C113	C	0.807292	0.462151	0.218103
H114	H	0.761556	0.656813	0.187598
H115	H	0.759948	0.541682	0.101211
H116	H	0.690499	0.539962	0.187534
H117	H	0.868008	0.478397	0.201150
H118	H	0.798470	0.476756	0.287392
O119	O	0.118527	0.161934	-0.147800
C120	C	0.086330	0.270078	-0.275903
C121	C	0.129725	0.271182	-0.193433
H122	H	0.095354	0.358408	-0.312813
H123	H	0.108332	0.182695	-0.312917
H124	H	0.023125	0.268346	-0.263003
H125	H	0.192936	0.272959	-0.206258
H126	H	0.107661	0.358555	-0.156444
O127	O	0.274175	0.166072	-0.147700
C128	C	0.355269	0.277238	-0.234732
C129	C	0.311815	0.276025	-0.152292
H130	H	0.385699	0.366139	-0.238479
H131	H	0.398748	0.190429	-0.238500
H132	H	0.313478	0.276078	-0.288279
H133	H	0.353548	0.277228	-0.098698
H134	H	0.268324	0.362826	-0.148596
O135	O	0.515907	0.172490	-0.147800
C136	C	0.483715	0.280664	-0.275893
C137	C	0.527107	0.281748	-0.193421
H138	H	0.492742	0.369002	-0.312793
H139	H	0.505717	0.193290	-0.312915
H140	H	0.420509	0.278932	-0.262998
H141	H	0.590319	0.283525	-0.206241
H142	H	0.505043	0.369113	-0.156424
H143	H	0.124635	0.161923	0.135989
H144	H	0.898793	-0.093263	-0.149907
