data_functionalizedCrystal
_audit_creation_method	'MofGen! by Chris Wilmer'
_symmetry_space_group_name_H-M	'P1'
_symmetry_Int_Tables_number	1
_symmetry_cell_setting	triclinic
loop_
_symmetry_equiv_pos_as_xyz
  x,y,z
_cell_length_a	13.033293
_cell_length_b	18.050590
_cell_length_c	13.033109
_cell_angle_alpha	97.150860
_cell_angle_beta	74.800007
_cell_angle_gamma	97.187921
loop_
_atom_site_label
_atom_site_type_symbol
_atom_site_fract_x
_atom_site_fract_y
_atom_site_fract_z
Zn1	Zn	1.700277	-0.215182	-0.807163
Zn2	Zn	1.677604	-0.325397	-0.629527
Zn3	Zn	1.500081	-0.215196	-0.606965
Zn4	Zn	1.522602	-0.353309	-0.784499
O5	O	1.600141	-0.277271	-0.707039
O6	O	1.845921	-0.218115	-0.802526
O7	O	1.635141	-0.299103	-0.477895
O8	O	1.526702	-0.111267	-0.633565
O9	O	1.829263	-0.299090	-0.672018
O10	O	1.673785	-0.111257	-0.780649
O11	O	1.504716	-0.218138	-0.461319
O12	O	1.354417	-0.245204	-0.611588
O13	O	1.565085	-0.346662	-0.936145
O14	O	1.370963	-0.346675	-0.742021
O15	O	1.695622	-0.245180	-0.952796
O16	O	1.656978	-0.433026	-0.650042
O17	O	1.543099	-0.453533	-0.763899
C18	C	1.324147	-0.298970	-0.671898
C19	C	1.206078	-0.308274	-0.656890
C20	C	1.600054	-0.470226	-0.706986
C21	C	1.600119	-0.552768	-0.707011
C22	C	1.161695	-0.272434	-0.714871
C23	C	1.039665	-0.282049	-0.699361
C24	C	1.662206	-0.741037	-0.645214
C25	C	1.700468	-0.795962	-0.745455
C26	C	1.600184	-0.703897	-0.707061
C27	C	1.562036	-0.796049	-0.606877
C28	C	1.600249	-0.849880	-0.707101
C29	C	1.638502	-0.757735	-0.807360
C30	C	1.500017	-0.757817	-0.668711
C31	C	1.538250	-0.812728	-0.769015
C32	C	1.600150	-0.619800	-0.707037
C33	C	1.600284	-0.933977	-0.707136
C34	C	1.877213	-0.255487	-0.742317
C35	C	1.995285	-0.246204	-0.757351
C36	C	1.635395	-0.299033	-0.984089
C37	C	1.650418	-0.308307	-1.102151
C38	C	1.600260	-0.083562	-0.707118
C39	C	1.600311	-0.001015	-0.707153
C40	C	1.592584	-0.272382	-1.146585
C41	C	1.608110	-0.281966	-1.268608
C42	C	1.565085	-0.255535	-0.431074
C43	C	1.550268	-0.246036	-0.313039
H44	H	1.214037	-0.234630	-0.775990
N45	N	1.140441	-0.355705	-0.580212
N46	N	1.182107	-0.389407	-0.525695
H47	H	1.135754	-0.422908	-0.471539
N48	N	1.060929	-0.198765	-0.834021
N49	N	1.118109	-0.143627	-0.804583
H50	H	1.164470	-0.110122	-0.858729
N51	N	1.684638	-0.329459	-1.334213
N52	N	1.697138	-0.337180	-1.433243
H53	H	1.751184	-0.370722	-1.479579
N54	N	1.728044	-0.702012	-0.579685
N55	N	1.825222	-0.711044	-0.601743
H56	H	1.871723	-0.683483	-0.555468
N57	N	1.806767	-0.817228	-0.786139
N58	N	1.882769	-0.768485	-0.814431
H59	H	1.957844	-0.783507	-0.843140
N60	N	1.393752	-0.736513	-0.627950
N61	N	1.376656	-0.669320	-0.622167
H62	H	1.301605	-0.654269	-0.593367
N63	N	0.973998	-0.329463	-0.622671
N64	N	0.874961	-0.337203	-0.610175
H65	H	0.828581	-0.370688	-0.556012
H66	H	1.670720	-0.740828	-0.892162
N67	N	1.472499	-0.851609	-0.834725
N68	N	1.461291	-0.921716	-0.844849
H69	H	1.414854	-0.949177	-0.891258
H70	H	1.529746	-0.813060	-0.522136
H71	H	1.489254	-0.208183	-1.260748
N72	N	1.516044	-0.224905	-1.080975
N73	N	1.503536	-0.217190	-0.981943
H74	H	1.449476	-0.183659	-0.935606
N75	N	1.726942	-0.355798	-1.167759
N76	N	1.739442	-0.363519	-1.266789
H77	H	1.793487	-0.397061	-1.313125
