data_functionalizedCrystal
_audit_creation_method	'MofGen! by Chris Wilmer'
_symmetry_space_group_name_H-M	'P1'
_symmetry_Int_Tables_number	1
_symmetry_cell_setting	triclinic
loop_
_symmetry_equiv_pos_as_xyz
  x,y,z
_cell_length_a	21.395362
_cell_length_b	18.101395
_cell_length_c	21.395355
_cell_angle_alpha	90.015727
_cell_angle_beta	90.043940
_cell_angle_gamma	90.046983
loop_
_atom_site_label
_atom_site_type_symbol
_atom_site_fract_x
_atom_site_fract_y
_atom_site_fract_z
Zn1	Zn	0.957858	-0.294602	0.354598
Zn2	Zn	1.457858	0.205398	0.854598
Zn3	Zn	0.957760	-0.418425	0.249825
Zn4	Zn	1.457760	0.081575	0.749825
Zn5	Zn	0.853073	-0.294636	0.249799
Zn6	Zn	1.353073	0.205364	0.749799
Zn7	Zn	0.853041	-0.418440	0.354530
Zn8	Zn	1.353041	0.081560	0.854530
O9	O	0.905433	-0.356526	0.302188
O10	O	1.405433	0.143474	0.802188
O11	O	1.045523	-0.311006	0.340739
O12	O	1.545523	0.188994	0.840739
O13	O	0.943845	-0.402012	0.162144
O14	O	1.443845	0.097988	0.662144
O15	O	0.867027	-0.190998	0.263718
O16	O	1.367027	0.309002	0.763718
O17	O	1.045450	-0.401979	0.263763
O18	O	1.545450	0.098021	0.763763
O19	O	0.944012	-0.190973	0.340713
O20	O	1.444012	0.309027	0.840713
O21	O	0.866932	-0.311065	0.162125
O22	O	1.366932	0.188935	0.662125
O23	O	0.765391	-0.311080	0.263652
O24	O	1.265391	0.188920	0.763652
O25	O	0.866973	-0.402005	0.442217
O26	O	1.366973	0.097995	0.942217
O27	O	0.765367	-0.402038	0.340598
O28	O	1.265367	0.097962	0.840598
O29	O	0.943982	-0.311021	0.442267
O30	O	1.443982	0.188979	0.942267
O31	O	0.943814	-0.522060	0.263697
O32	O	1.443814	-0.022060	0.763697
O33	O	0.866878	-0.522071	0.340623
O34	O	1.366878	-0.022071	0.840623
C35	C	0.742645	-0.356565	0.302115
C36	C	1.242645	0.143435	0.802115
C37	C	0.673004	-0.356599	0.302099
C38	C	1.173004	0.143401	0.802099
C39	C	0.640295	-0.404024	0.342105
C40	C	1.140295	0.095976	0.842105
C41	C	0.574860	-0.404006	0.342133
C42	C	1.074860	0.095994	0.842133
C43	C	0.542136	-0.356571	0.302144
C44	C	1.042136	0.143429	0.802144
C45	C	0.574852	-0.309137	0.262135
C46	C	1.074852	0.190863	0.762135
C47	C	0.640286	-0.309151	0.262113
C48	C	1.140286	0.190849	0.762113
C49	C	0.438411	-0.350605	0.245738
C50	C	0.938411	0.149395	0.745738
C51	C	0.372978	-0.350596	0.245760
C52	C	0.872978	0.149404	0.745760
C53	C	0.340315	-0.356523	0.302213
C54	C	0.840315	0.143477	0.802213
C55	C	0.373093	-0.362474	0.358647
C56	C	0.873093	0.137526	0.858647
C57	C	0.438527	-0.362488	0.358624
C58	C	0.938527	0.137512	0.858624
C59	C	0.471183	-0.356550	0.302164
C60	C	0.971183	0.143450	0.802164
C61	C	0.236654	-0.403930	0.342252
C62	C	0.736654	0.096070	0.842252
C63	C	0.171217	-0.403907	0.342281
C64	C	0.671217	0.096093	0.842281
C65	C	0.171211	-0.309042	0.262278
C66	C	0.671211	0.190958	0.762278
C67	C	0.236646	-0.309061	0.262255
C68	C	0.736646	0.190939	0.762255
C69	C	0.269364	-0.356509	0.302241
C70	C	0.769364	0.143491	0.802241
C71	C	0.905349	-0.548936	0.302170
C72	C	1.405349	-0.048936	0.802170
C73	C	0.905370	-0.631250	0.302183
C74	C	1.405370	-0.131250	0.802183
C75	C	0.905508	-0.930341	0.302216
C76	C	1.405508	-0.430341	0.802216
C77	C	0.857214	-0.899054	0.350736
C78	C	1.357214	-0.399054	0.850736
C79	C	0.856985	-0.813436	0.350585
C80	C	1.356985	-0.313436	0.850585
C81	C	0.905440	-0.781959	0.302200
C82	C	1.405440	-0.281959	0.802200
C83	C	0.887557	-0.813100	0.236161
C84	C	1.387557	-0.313100	0.736161
C85	C	0.887246	-0.898745	0.236451
C86	C	1.387246	-0.398745	0.736451
C87	C	0.971790	-0.898667	0.319154
C88	C	1.471790	-0.398667	0.819154
C89	C	0.971400	-0.813017	0.320602
C90	C	1.471400	-0.313017	0.820602
C91	C	0.905402	-0.698099	0.302187
C92	C	1.405402	-0.198099	0.802187
C93	C	0.905544	-1.014201	0.302225
C94	C	1.405544	-0.514201	0.802225
C95	C	1.068856	-0.356487	0.302261
C96	C	1.568856	0.143513	0.802261
C97	C	1.138497	-0.356470	0.302293
C98	C	1.638497	0.143530	0.802293
C99	C	0.905485	-0.356511	0.465611
C100	C	1.405485	0.143489	0.965611
C101	C	0.905507	-0.356504	0.535253
C102	C	1.405507	0.143496	1.035253
C103	C	0.905534	-0.163364	0.302220
C104	C	1.405534	0.336636	0.802220
C105	C	0.905577	-0.081050	0.302234
C106	C	1.405577	0.418950	0.802234
C107	C	0.905417	-0.356487	0.139400
C108	C	1.405417	0.143513	0.639400
C109	C	0.905516	-0.356285	0.069760
C110	C	1.405516	0.143715	0.569760
C111	C	0.945603	-0.309127	0.567993
C112	C	1.445603	0.190873	1.067993
C113	C	0.945603	-0.309095	0.633428
C114	C	1.445603	0.190905	1.133428
C115	C	0.905512	-0.356454	0.666121
C116	C	1.405512	0.143546	1.166121
C117	C	0.865408	-0.403834	0.633373
C118	C	1.365408	0.096166	1.133373
C119	C	0.865405	-0.403859	0.567939
C120	C	1.365405	0.096141	1.067939
C121	C	0.900536	-0.423137	0.769788
C122	C	1.400536	0.076863	1.269788
C123	C	0.900542	-0.423113	0.835221
C124	C	1.400542	0.076887	1.335221
C125	C	0.905516	-0.356375	0.867942
C126	C	1.405516	0.143625	1.367942
C127	C	0.910495	-0.289660	0.835222
C128	C	1.410495	0.210340	1.335222
C129	C	0.910493	-0.289685	0.769788
C130	C	1.410493	0.210315	1.269788
C131	C	0.905510	-0.356431	0.737073
C132	C	1.405510	0.143569	1.237073
C133	C	0.945613	-0.308960	0.971635
C134	C	1.445613	0.191040	1.471635
C135	C	0.945608	-0.308927	1.037071
C136	C	1.445608	0.191073	1.537071
C137	C	0.865416	-0.403672	1.037015
C138	C	1.365416	0.096328	1.537015
C139	C	0.865418	-0.403699	0.971580
C140	C	1.365418	0.096301	1.471580
C141	C	0.905520	-0.356344	0.938893
C142	C	1.405520	0.143656	1.438893
H143	H	0.548223	-0.442625	0.374712
H144	H	1.048223	0.057375	0.874712
F145	F	0.473409	-0.368819	0.418684
F146	F	0.973409	0.131181	0.918684
F147	F	0.675099	-0.258673	0.219532
F148	F	1.175099	0.241327	0.719532
H149	H	1.007771	-0.918897	0.283816
H150	H	1.507771	-0.418897	0.783816
H151	H	0.839618	-0.791728	0.221559
H152	H	1.339618	-0.291728	0.721559
H153	H	0.984886	-0.792661	0.369204
H154	H	1.484886	-0.292661	0.869204
F155	F	0.871691	-0.925923	0.414948
F156	F	1.371691	-0.425923	0.914948
H157	H	0.978257	-0.270566	0.541384
H158	H	1.478257	0.229434	1.041384
H159	H	1.009286	-0.791584	0.287841
H160	H	1.509286	-0.291584	0.787841
H161	H	0.868173	-0.792380	0.399551
H162	H	1.368173	-0.292380	0.899551
F163	F	0.823916	-0.924962	0.217701
F164	F	1.323916	-0.424962	0.717701
H165	H	0.808383	-0.920654	0.339656
H166	H	1.308383	-0.420654	0.839656
F167	F	0.792768	-0.786755	0.335920
F168	F	1.292768	-0.286755	0.835920
H169	H	0.978253	-0.270511	0.660090
H170	H	1.478253	0.229489	1.160090
F171	F	0.915789	-0.218684	0.734968
F172	F	1.415789	0.281316	1.234968
F173	F	0.915791	-0.218628	0.870041
F174	F	1.415791	0.281372	1.370041
F175	F	0.988290	-0.258558	0.936845
F176	F	1.488290	0.241442	1.436845
H177	H	0.978259	-0.270342	1.063727
H178	H	1.478259	0.229658	1.563727
H179	H	0.896318	-0.477468	0.743152
H180	H	1.396318	0.022532	1.243152
F181	F	0.822738	-0.454234	0.668168
F182	F	1.322738	0.045766	1.168168
H183	H	0.832767	-0.442225	1.063633
H184	H	1.332767	0.057775	1.563633
F185	F	0.136406	-0.454382	0.384866
F186	F	0.636406	0.045618	0.884866
F187	F	0.822727	-0.454287	0.533094
F188	F	1.322727	0.045713	1.033094
F189	F	0.931222	-0.925801	0.187583
F190	F	1.431222	-0.425801	0.687583
H191	H	0.832771	-0.442283	0.944922
H192	H	1.332771	0.057717	1.444922
F193	F	0.895248	-0.494117	0.870037
F194	F	1.395248	0.005883	1.370037
F195	F	0.932086	-0.786450	0.187617
F196	F	1.432086	-0.286450	0.687617
H197	H	0.988093	-0.920221	0.366491
H198	H	1.488093	-0.420221	0.866491
H199	H	0.666930	-0.442659	0.374665
H200	H	1.166930	0.057341	0.874665
H201	H	0.144568	-0.270415	0.229722
H202	H	0.644568	0.229585	0.729722
H203	H	0.346500	-0.367299	0.404617
H204	H	0.846500	0.132701	0.904617
H205	H	0.263294	-0.442562	0.374814
H206	H	0.763294	0.057438	0.874814
H207	H	0.263278	-0.270446	0.229675
H208	H	0.763278	0.229554	0.729675
H209	H	0.465000	-0.345775	0.199764
H210	H	0.965000	0.154225	0.699764
H211	H	0.548204	-0.270514	0.229577
H212	H	1.048204	0.229486	0.729577
F213	F	0.338099	-0.344262	0.185698
F214	F	0.838099	0.155738	0.685698
