data_functionalizedCrystal
_audit_creation_method	'MofGen! by Chris Wilmer'
_symmetry_space_group_name_H-M	'P1'
_symmetry_Int_Tables_number	1
_symmetry_cell_setting	triclinic
loop_
_symmetry_equiv_pos_as_xyz
  x,y,z
_cell_length_a	13.635800
_cell_length_b	11.102269
_cell_length_c	21.370953
_cell_angle_alpha	90.808406
_cell_angle_beta	63.039445
_cell_angle_gamma	108.605385
loop_
_atom_site_label
_atom_site_type_symbol
_atom_site_fract_x
_atom_site_fract_y
_atom_site_fract_z
V1	V	-2.108796	-0.177200	0.219004
O2	O	-2.087302	0.007116	0.214833
O3	O	-2.096822	-0.350011	0.217508
O4	O	-2.120314	-0.175088	0.314518
O5	O	-2.063647	-0.169018	0.117151
V6	V	-2.344397	-0.155081	0.206821
O7	O	-2.252938	-0.225719	0.245727
O8	O	-2.425354	-0.106561	0.180097
O9	O	-2.244767	0.017731	0.208317
O10	O	-2.424590	-0.339396	0.210992
O11	O	-2.448244	-0.163262	0.308674
O12	O	-2.221275	-0.157193	0.111307
C13	C	-2.021142	-0.392120	0.214054
C14	C	-2.052233	-0.533399	0.213467
C15	C	-2.141707	-0.751073	0.276961
C16	C	-2.112503	-0.618328	0.277515
C17	C	-2.021176	-0.581223	0.148861
C18	C	-2.050387	-0.713967	0.148308
C19	C	-2.187123	-0.463377	0.357805
C20	C	-2.218166	-0.415557	0.422409
C21	C	-2.208271	-0.470844	0.476770
C22	C	-2.167311	-0.573949	0.466529
C23	C	-2.136257	-0.621762	0.401923
C24	C	-2.146178	-0.566479	0.347566
C25	C	-1.975762	-0.868921	0.068023
C26	C	-1.944701	-0.916735	0.003417
C27	C	-1.954586	-0.861448	-0.050951
C28	C	-1.995525	-0.758336	-0.040717
C29	C	-2.026586	-0.710521	0.023889
C30	C	-2.016705	-0.765818	0.078257
C31	C	-2.051107	-0.168986	0.337798
C32	C	-2.101247	-0.168403	0.415882
V33	V	-1.608796	-0.177200	0.219004
O34	O	-1.587302	0.007116	0.214833
O35	O	-1.596822	-0.350011	0.217508
O36	O	-1.620314	-0.175088	0.314518
O37	O	-1.563647	-0.169018	0.117151
V38	V	-1.844397	-0.155081	0.206821
O39	O	-1.752938	-0.225719	0.245727
O40	O	-1.925354	-0.106561	0.180097
O41	O	-1.744767	0.017731	0.208317
O42	O	-1.924590	-0.339396	0.210992
O43	O	-1.948244	-0.163262	0.308674
O44	O	-1.721275	-0.157193	0.111307
C45	C	-2.122153	-0.163298	0.088023
C46	C	-2.061631	-0.163875	0.009939
C47	C	-2.152119	0.059833	0.211769
C48	C	-2.110648	0.201111	0.212360
C49	C	-2.217675	-0.174488	0.456131
C50	C	-2.264797	-0.173924	0.529498
C51	C	-2.195492	-0.167283	0.562614
C52	C	-2.079053	-0.161194	0.522360
C53	C	-2.031930	-0.161749	0.448994
C54	C	-1.948725	-0.170525	-0.023166
C55	C	-1.891861	-0.171075	-0.096533
C56	C	-1.947919	-0.165001	-0.136792
C57	C	-2.060841	-0.158342	-0.103680
C58	C	-2.117696	-0.157779	-0.030314
N59	N	-1.947917	-0.233865	-0.248371
N60	N	-1.893902	-0.234402	-0.318065
C61	C	-1.776620	-0.166693	-0.357837
N62	N	-1.715386	-0.098443	-0.325282
N63	N	-1.769406	-0.097911	-0.255581
C64	C	-1.886278	-0.165609	-0.216344
C65	C	-1.602050	-0.173938	-0.470495
C66	C	-1.545185	-0.174480	-0.543865
C67	C	-1.714173	-0.161760	-0.551009
C68	C	-1.771029	-0.161205	-0.477641
C69	C	-1.714964	-0.167301	-0.437388
C70	C	-1.551107	-0.168986	0.337798
C71	C	-1.601247	-0.168403	0.415882
C72	C	-1.521142	-0.392120	0.214054
C73	C	-1.552233	-0.533399	0.213467
C74	C	-1.652119	0.059833	0.211769
C75	C	-1.610648	0.201111	0.212360
C76	C	-1.622153	-0.163298	0.088023
C77	C	-1.561631	-0.163875	0.009939
C78	C	-1.448711	-0.170501	-0.023160
C79	C	-1.391825	-0.171028	-0.096529
C80	C	-1.447865	-0.164937	-0.136797
C81	C	-1.560793	-0.158307	-0.103694
C82	C	-1.617674	-0.157771	-0.030327
C83	C	-1.521180	-0.581224	0.148869
C84	C	-1.550407	-0.713973	0.148321
C85	C	-1.641737	-0.751062	0.276975
C86	C	-1.612518	-0.618316	0.277523
C87	C	-1.595160	-0.877280	0.072543
C88	C	-1.564088	-0.925107	0.007941
C89	C	-1.454597	-0.861480	-0.050928
C90	C	-1.376153	-0.750025	-0.045197
C91	C	-1.407219	-0.702204	0.019406
C92	C	-1.516730	-0.765831	0.078273
C93	C	-1.567753	-0.455004	0.353295
C94	C	-1.598811	-0.407181	0.417899
C95	C	-1.708298	-0.470807	0.476773
C96	C	-1.786733	-0.582267	0.471049
C97	C	-1.755675	-0.630090	0.406445
C98	C	-1.646187	-0.566455	0.347571
H99	H	-1.929273	-0.900377	-0.103561
Cl100	Cl	-2.304825	-0.182834	0.414514
Cl101	Cl	-1.631233	-0.150667	-0.154326
Cl102	Cl	-1.717516	-0.857821	0.357497
Cl103	Cl	-1.445401	-0.474477	0.068342
Cl104	Cl	-1.500201	-0.267062	0.425096
H105	H	-1.819546	-0.720851	0.401789
H106	H	-1.709624	-0.152383	-0.003383
Cl107	Cl	-2.199598	-0.393887	0.289472
H108	H	-1.911348	-1.000684	-0.004916
Cl109	Cl	-1.963342	-0.938440	0.136374
Cl110	Cl	-1.430169	-0.374905	0.279252
H111	H	-1.972108	-0.512064	0.096712
H112	H	-2.059955	-0.626585	0.032226
Cl113	Cl	-2.007944	-0.688819	-0.109068
H114	H	-1.453244	-0.179892	-0.570817
H115	H	-2.102902	-0.705703	0.393584
H116	H	-2.233546	-0.431900	0.529372
Cl117	Cl	-1.378235	-0.178155	0.027447
Cl118	Cl	-1.238494	-0.670053	-0.119206
H119	H	-1.299874	-0.176426	-0.123471
Cl120	Cl	-2.411179	-0.181590	0.580089
H121	H	-1.401541	-0.165390	-0.196536
H122	H	-1.759820	-0.156820	-0.583786
Cl123	Cl	-1.878237	-0.178181	0.027434
H124	H	-2.233877	-0.166833	0.622354
H125	H	-1.862969	-0.155796	-0.450687
Cl126	Cl	-1.747336	-0.410690	0.557993
H127	H	-1.343349	-0.611464	0.024073
Cl128	Cl	-1.415538	-0.921609	-0.132141
Cl129	Cl	-1.662702	-1.065214	0.000737
H130	H	-2.022635	-0.155788	0.549335
H131	H	-2.159242	-0.618947	0.510795
H132	H	-2.251522	-0.331610	0.430743
H133	H	-1.684326	-0.929087	0.120472
Cl134	Cl	-1.924380	-0.662262	0.545064
Cl135	Cl	-1.749903	-0.179427	-0.138160
Cl136	Cl	-1.885563	-0.154117	0.398405
Cl137	Cl	-2.131313	-0.150700	-0.154290
Cl138	Cl	-2.259649	-0.149426	0.011305
Cl139	Cl	-1.531568	-0.181590	-0.419889
Cl140	Cl	-2.217478	-0.857829	0.357484
