data_functionalizedCrystal
_audit_creation_method	'MofGen! by Chris Wilmer'
_symmetry_space_group_name_H-M	'P1'
_symmetry_Int_Tables_number	1
_symmetry_cell_setting	triclinic
loop_
_symmetry_equiv_pos_as_xyz
  x,y,z
_cell_length_a	14.044220
_cell_length_b	16.109301
_cell_length_c	15.186229
_cell_angle_alpha	90.005167
_cell_angle_beta	89.997033
_cell_angle_gamma	91.674821
loop_
_atom_site_label
_atom_site_type_symbol
_atom_site_fract_x
_atom_site_fract_y
_atom_site_fract_z
O1	O	1.257643	-0.200436	-0.073232
O2	O	1.590977	0.132898	0.260101
O3	O	1.924310	0.466231	0.593435
O4	O	0.981676	-0.193203	-0.073234
O5	O	1.315010	0.140130	0.260099
O6	O	1.648343	0.473464	0.593433
O7	O	1.127241	-0.076352	-0.073224
O8	O	1.460574	0.256981	0.260109
O9	O	1.793908	0.590314	0.593443
O10	O	1.112079	-0.317286	-0.073242
O11	O	1.445412	0.016047	0.260091
O12	O	1.778745	0.349380	0.593425
O13	O	1.127231	-0.076350	0.073233
O14	O	1.460564	0.256984	0.406567
O15	O	1.793898	0.590317	0.739900
O16	O	0.981667	-0.193200	0.073223
O17	O	1.315000	0.140133	0.406557
O18	O	1.648333	0.473466	0.739890
O19	O	1.257634	-0.200433	0.073225
O20	O	1.590967	0.132900	0.406559
O21	O	1.924300	0.466234	0.739892
Zn22	Zn	1.119649	-0.196816	0.096478
Zn23	Zn	1.452982	0.136517	0.429811
Zn24	Zn	1.786315	0.469850	0.763144
Zn25	Zn	1.119661	-0.196820	-0.096486
Zn26	Zn	1.452995	0.136514	0.236847
Zn27	Zn	1.786328	0.469847	0.570181
O28	O	1.112069	-0.317284	0.073215
O29	O	1.445402	0.016050	0.406549
O30	O	1.778736	0.349383	0.739882
C31	C	1.126622	-0.045330	0.000005
C32	C	1.459955	0.288003	0.333339
C33	C	1.793289	0.621336	0.666672
C34	C	1.124781	0.047102	0.000006
C35	C	1.458114	0.380435	0.333340
C36	C	1.791447	0.713769	0.666673
C37	C	0.946358	-0.190036	-0.000005
C38	C	1.279691	0.143298	0.333328
C39	C	1.613025	0.476631	0.666661
C40	C	0.841135	-0.180592	-0.000006
C41	C	1.174468	0.152742	0.333327
C42	C	1.507802	0.486075	0.666661
C43	C	1.292952	-0.203600	-0.000005
C44	C	1.626285	0.129733	0.333328
C45	C	1.959619	0.463066	0.666662
C46	C	1.398175	-0.213044	-0.000010
C47	C	1.731508	0.120289	0.333323
C48	C	2.064841	0.453622	0.666656
C49	C	1.590831	-0.230310	-0.000011
C50	C	1.924164	0.103024	0.333323
C51	C	2.257497	0.436357	0.666656
C52	C	1.648485	-0.163330	-0.000005
C53	C	1.981818	0.170003	0.333328
C54	C	2.315151	0.503337	0.666661
C55	C	1.755685	-0.172937	-0.000006
C56	C	2.089018	0.160397	0.333328
C57	C	2.422352	0.493730	0.666661
C58	C	1.483620	-0.220704	-0.000011
C59	C	1.816954	0.112629	0.333323
C60	C	2.150287	0.445963	0.666656
C61	C	1.112688	-0.348306	-0.000016
C62	C	1.446021	-0.014972	0.333318
C63	C	1.779355	0.318361	0.666651
C64	C	1.114529	-0.440738	-0.000023
C65	C	1.447863	-0.107404	0.333311
C66	C	1.781196	0.225929	0.666644
N67	N	1.119647	-0.196814	0.228170
N68	N	1.452980	0.136519	0.561504
N69	N	1.786313	0.469853	0.894837
C70	C	1.206874	0.263266	-0.000007
C71	C	1.540207	0.596600	0.333326
C72	C	1.873541	0.929933	0.666660
C73	C	1.205137	0.350116	-0.000014
C74	C	1.538470	0.683449	0.333319
C75	C	1.871803	1.016783	0.666653
C76	C	1.032429	0.343091	-0.000012
C77	C	1.365763	0.676425	0.333321
C78	C	1.699096	1.009758	0.666655
C79	C	1.034168	0.256243	-0.000011
C80	C	1.367501	0.589577	0.333322
C81	C	1.700834	0.922910	0.666656
C82	C	1.121393	0.216333	-0.000004
C83	C	1.454726	0.549666	0.333329
C84	C	1.788060	0.883000	0.666663
C85	C	1.117917	0.390031	-0.000012
C86	C	1.451250	0.723364	0.333321
C87	C	1.784584	1.056698	0.666654
C88	C	1.116032	0.484197	-0.000020
C89	C	1.449366	0.817530	0.333313
C90	C	1.782699	1.150864	0.666647
C91	C	1.123278	0.122161	0.000002
C92	C	1.456611	0.455494	0.333336
C93	C	1.789945	0.788828	0.666669
N94	N	1.119671	-0.196816	-0.228179
N95	N	1.453004	0.136517	0.105155
N96	N	1.786337	0.469851	0.438488
C97	C	1.184125	-0.145093	0.453898
C98	C	1.517458	0.188240	0.787231
C99	C	1.850791	0.521573	1.120564
C100	C	1.184128	-0.145092	0.546087
C101	C	1.517461	0.188242	0.879421
C102	C	1.850794	0.521575	1.212754
C103	C	1.055186	-0.248539	0.546087
C104	C	1.388519	0.084795	0.879421
C105	C	1.721853	0.418128	1.212754
C106	C	1.055179	-0.248536	0.453899
C107	C	1.388512	0.084798	0.787233
C108	C	1.721846	0.418131	1.120566
C109	C	1.119654	-0.196814	0.407807
C110	C	1.452987	0.136519	0.741140
C111	C	1.786320	0.469852	1.074474
C112	C	1.119664	-0.196816	0.592185
C113	C	1.452997	0.136518	0.925518
C114	C	1.786330	0.469851	1.258851
C115	C	1.119666	-0.196814	0.692141
C116	C	1.453000	0.136519	1.025474
C117	C	1.786333	0.469852	1.358807
C118	C	1.119650	-0.196814	0.307844
C119	C	1.452983	0.136519	0.641178
C120	C	1.786317	0.469852	0.974511
H121	H	1.621980	-0.294862	-0.000016
H122	H	1.955313	0.038471	0.333317
H123	H	2.288647	0.371805	0.666650
H124	H	1.277898	0.230774	-0.000003
H125	H	1.611232	0.564108	0.333330
H126	H	1.944565	0.897441	0.666664
H127	H	1.617334	-0.098773	-0.000065
H128	H	1.950667	0.234561	0.333269
H129	H	2.284000	0.567894	0.666602
H130	H	1.274744	0.388326	-0.000018
H131	H	1.608077	0.721659	0.333315
H132	H	1.941411	1.054992	0.666648
H133	H	1.236624	-0.102975	0.583612
H134	H	1.569958	0.230359	0.916945
H135	H	1.903291	0.563692	1.250278
N136	N	0.938354	0.386137	-0.000016
N137	N	1.271688	0.719471	0.333318
N138	N	1.605021	1.052804	0.666651
H139	H	0.950222	0.448277	-0.000014
H140	H	1.283556	0.781611	0.333320
H141	H	1.616889	1.114944	0.666653
H142	H	0.900950	0.369426	0.054279
H143	H	1.234283	0.702759	0.387612
H144	H	1.567616	1.036093	0.720946
H145	H	1.002693	-0.290651	0.583625
H146	H	1.336027	0.042683	0.916959
H147	H	1.669360	0.376016	1.250292
N148	N	0.941966	0.205615	-0.000014
N149	N	1.275299	0.538948	0.333319
N150	N	1.608633	0.872281	0.666653
H151	H	0.886445	0.244074	-0.000013
H152	H	1.219779	0.577408	0.333321
H153	H	1.553112	0.910741	0.666654
H154	H	0.938925	0.169431	0.054278
H155	H	1.272258	0.502764	0.387612
H156	H	1.605591	0.836097	0.720945
N157	N	1.253660	-0.089310	0.404181
N158	N	1.586993	0.244024	0.737515
N159	N	1.920327	0.577357	1.070848
H160	H	1.294501	-0.056544	0.447372
H161	H	1.627834	0.276789	0.780706
H162	H	1.961167	0.610123	1.114039
H163	H	1.217384	-0.049845	0.365940
H164	H	1.550717	0.283488	0.699274
H165	H	1.884050	0.616821	1.032607
N166	N	0.985632	-0.304316	0.404179
N167	N	1.318965	0.029018	0.737513
N168	N	1.652299	0.362351	1.070846
H169	H	0.944792	-0.337085	0.447366
H170	H	1.278125	-0.003751	0.780699
H171	H	1.611458	0.329582	1.114032
H172	H	1.021899	-0.343778	0.365916
H173	H	1.355232	-0.010444	0.699250
H174	H	1.688565	0.322889	1.032583
