data_functionalizedCrystal
_audit_creation_method	'MofGen! by Chris Wilmer'
_symmetry_space_group_name_H-M	'P1'
_symmetry_Int_Tables_number	1
_symmetry_cell_setting	triclinic
loop_
_symmetry_equiv_pos_as_xyz
  x,y,z
_cell_length_a	18.215407
_cell_length_b	12.759393
_cell_length_c	18.215399
_cell_angle_alpha	90.021556
_cell_angle_beta	89.982632
_cell_angle_gamma	89.987730
loop_
_atom_site_label
_atom_site_type_symbol
_atom_site_fract_x
_atom_site_fract_y
_atom_site_fract_z
Zn1	Zn	1.125123	0.418349	-0.416100
Zn2	Zn	1.125053	0.594046	-0.293048
Zn3	Zn	1.002056	0.418374	-0.293053
Zn4	Zn	1.002043	0.593979	-0.416078
O5	O	1.063569	0.506187	-0.354570
O6	O	1.228098	0.441673	-0.399784
O7	O	1.108713	0.570782	-0.190064
O8	O	1.018416	0.271350	-0.309387
O9	O	1.228047	0.570758	-0.309378
O10	O	1.108833	0.271331	-0.399789
O11	O	1.018348	0.441716	-0.190068
O12	O	0.899070	0.441651	-0.309365
O13	O	1.018394	0.570642	-0.519065
O14	O	0.899061	0.570667	-0.399751
O15	O	1.108821	0.441608	-0.519082
O16	O	1.108701	0.741059	-0.309356
O17	O	1.018326	0.741009	-0.399746
C18	C	0.872363	0.506155	-0.354557
C19	C	0.790564	0.506166	-0.354569
C20	C	0.602396	0.439090	-0.401718
C21	C	0.525537	0.439099	-0.401720
C22	C	0.525494	0.573313	-0.307435
C23	C	0.602352	0.573298	-0.307429
C24	C	0.640800	0.506188	-0.354575
C25	C	0.487084	0.506212	-0.354583
C26	C	0.403751	0.506223	-0.354585
C27	C	0.724139	0.506176	-0.354572
C28	C	1.063525	0.779155	-0.354564
C29	C	1.063573	0.895931	-0.354587
C30	C	1.157751	0.895930	-0.260534
C31	C	1.204860	0.950790	-0.213519
C32	C	1.204903	1.060511	-0.213544
C33	C	1.157834	1.115375	-0.260591
C34	C	1.110726	1.060515	-0.307606
C35	C	1.110686	0.950791	-0.307574
C36	C	1.016553	1.060517	-0.401661
C37	C	1.016505	0.950795	-0.401633
C38	C	0.969484	1.115381	-0.448707
C39	C	0.922371	1.060521	-0.495720
C40	C	0.922329	0.950793	-0.495692
C41	C	0.969397	0.895935	-0.448648
C42	C	1.255522	0.506220	-0.354583
C43	C	1.337321	0.506234	-0.354589
C44	C	1.063614	0.506115	-0.546523
C45	C	1.063633	0.506084	-0.628322
C46	C	1.063633	1.232154	-0.354603
C47	C	1.063661	1.115377	-0.354646
C48	C	1.110735	0.438833	-0.816525
C49	C	1.110744	0.438802	-0.893384
C50	C	1.016583	0.573172	-0.893356
C51	C	1.016571	0.573197	-0.816498
C52	C	1.063651	0.506029	-0.778085
C53	C	1.063672	0.505973	-0.931801
C54	C	1.063681	0.505941	-1.015135
C55	C	1.063641	0.506060	-0.694746
C56	C	1.063567	0.506183	-0.163363
C57	C	1.063690	0.505918	-0.081565
H58	H	0.494271	0.384460	-0.440107
H59	H	1.243266	1.105178	-0.175264
H60	H	0.978225	0.627915	-0.785199
H61	H	0.633622	0.627938	-0.269036
C62	C	1.157702	0.775233	-0.260496
N63	N	1.157665	0.684323	-0.260465
H64	H	0.633698	0.384442	-0.440104
C65	C	0.964796	0.647051	-0.935617
N66	N	0.925789	0.702698	-0.967448
C67	C	1.256630	0.890431	-0.161768
N68	N	1.295624	0.844972	-0.122789
H69	H	0.494180	0.627952	-0.269051
C70	C	0.870600	1.120878	-0.547464
N71	N	0.831604	1.166343	-0.586436
H72	H	1.157880	1.204716	-0.260613
H73	H	0.969526	1.204722	-0.448728
C74	C	0.969359	0.775239	-0.448617
N75	N	0.969336	0.684328	-0.448595
C76	C	0.870511	0.890455	-0.547419
N77	N	0.831482	0.845013	-0.586383
C78	C	1.162518	0.364937	-0.774273
N79	N	1.201520	0.309272	-0.742451
C80	C	1.162541	0.364884	-0.935665
N81	N	1.201557	0.309205	-0.967510
