data_functionalizedCrystal
_audit_creation_method	'MofGen! by Chris Wilmer'
_symmetry_space_group_name_H-M	'P1'
_symmetry_Int_Tables_number	1
_symmetry_cell_setting	triclinic
loop_
_symmetry_equiv_pos_as_xyz
  x,y,z
_cell_length_a	15.995350
_cell_length_b	22.010155
_cell_length_c	15.995350
_cell_angle_alpha	90.002260
_cell_angle_beta	83.492375
_cell_angle_gamma	90.012060
loop_
_atom_site_label
_atom_site_type_symbol
_atom_site_fract_x
_atom_site_fract_y
_atom_site_fract_z
O1	O	1.110999	0.050471	0.107925
O2	O	1.610999	0.550471	0.607925
O3	O	0.867224	0.050483	0.121252
O4	O	1.367224	0.550483	0.621252
O5	O	0.995775	0.050476	-0.007299
O6	O	1.495775	0.550476	0.492701
O7	O	0.982448	0.050478	0.236476
O8	O	1.482448	0.550478	0.736476
O9	O	0.995737	-0.050575	-0.007299
O10	O	1.495737	0.449425	0.492701
O11	O	0.867185	-0.050568	0.121252
O12	O	1.367185	0.449432	0.621252
O13	O	1.110961	-0.050580	0.107924
O14	O	1.610961	0.449420	0.607924
Cu15	Cu	0.989069	-0.059800	0.114588
Cu16	Cu	1.489069	0.440200	0.614588
Cu17	Cu	0.989115	0.059703	0.114588
Cu18	Cu	1.489115	0.559703	0.614588
O19	O	0.982409	-0.050573	0.236476
O20	O	1.482409	0.449427	0.736476
C21	C	0.836010	-0.000041	0.120701
C22	C	1.336010	0.499959	0.620701
C23	C	0.743060	-0.000036	0.119049
C24	C	1.243060	0.499964	0.619049
N25	N	0.989043	-0.143853	0.114588
N26	N	1.489043	0.356147	0.614588
C27	C	0.405312	-0.000049	0.113117
C28	C	0.905312	0.499951	0.613117
C29	C	0.452746	-0.000275	0.021565
C30	C	0.952746	0.499725	0.521565
C31	C	0.549436	-0.000043	0.023217
C32	C	1.049436	0.499957	0.523217
C33	C	0.572873	-0.000043	0.116060
C34	C	1.072873	0.499957	0.616060
C35	C	0.531808	0.057660	0.161216
C36	C	1.031808	0.557660	0.661216
C37	C	0.435172	0.057704	0.158916
C38	C	0.935172	0.557704	0.658916
C39	C	0.434789	-0.057209	0.160808
C40	C	0.934789	0.442791	0.660808
C41	C	0.531734	-0.057968	0.160786
C42	C	1.031734	0.442032	0.660786
C43	C	0.667570	-0.000037	0.117727
C44	C	1.167570	0.499963	0.617727
C45	C	0.310614	-0.000050	0.111452
C46	C	0.810614	0.499950	0.611452
C47	C	1.039897	-0.563635	0.165392
C48	C	1.539897	-0.063635	0.665392
C49	C	1.039907	-0.627242	0.165390
C50	C	1.539907	-0.127242	0.665390
O51	O	1.083115	-0.660136	0.208580
O52	O	1.583115	-0.160136	0.708580
N53	N	0.989132	-0.659060	0.114579
N54	N	1.489132	-0.159060	0.614579
C55	C	0.938349	-0.627267	0.063760
C56	C	1.438349	-0.127267	0.563760
O57	O	0.895163	-0.660171	0.020540
O58	O	1.395163	-0.160171	0.520540
C59	C	0.938345	-0.563660	0.063758
C60	C	1.438345	-0.063660	0.563758
C61	C	0.989117	-0.531846	0.114579
C62	C	1.489117	-0.031846	0.614579
C63	C	1.090666	-0.531820	0.216208
C64	C	1.590666	-0.031820	0.716208
C65	C	1.090655	-0.468217	0.216211
C66	C	1.590655	0.031783	0.716211
C67	C	1.039875	-0.436428	0.165398
C68	C	1.539875	0.063572	0.665398
C69	C	0.989106	-0.468243	0.114582
C70	C	1.489106	0.031757	0.614582
C71	C	0.887568	-0.531868	0.012936
C72	C	1.387568	-0.031868	0.512936
C73	C	0.887568	-0.468258	0.012938
C74	C	1.387568	0.031742	0.512938
C75	C	0.938340	-0.436443	0.063758
C76	C	1.438340	0.063557	0.563758
C77	C	0.938314	-0.372851	0.063772
C78	C	1.438314	0.127149	0.563772
N79	N	0.989090	-0.341033	0.114583
N80	N	1.489090	0.158967	0.614583
C81	C	1.039870	-0.372822	0.165396
C82	C	1.539870	0.127178	0.665396
C83	C	0.938364	-0.760845	0.063767
C84	C	1.438364	-0.260845	0.563767
C85	C	0.938364	-0.824450	0.063772
C86	C	1.438364	-0.324450	0.563772
C87	C	1.039923	-0.824421	0.165402
C88	C	1.539923	-0.324421	0.665402
C89	C	1.039918	-0.760814	0.165400
C90	C	1.539918	-0.260814	0.665400
C91	C	0.989140	-0.729027	0.114578
C92	C	1.489140	-0.229027	0.614578
C93	C	1.039842	-0.239250	0.165399
C94	C	1.539842	0.260750	0.665399
C95	C	1.039823	-0.175642	0.165401
C96	C	1.539823	0.324358	0.665401
C97	C	0.938268	-0.175676	0.063769
C98	C	1.438268	0.324324	0.563769
C99	C	0.938283	-0.239279	0.063770
C100	C	1.438283	0.260721	0.563770
C101	C	0.989076	-0.271065	0.114588
C102	C	1.489076	0.228935	0.614588
O103	O	0.895131	-0.339917	0.020601
O104	O	1.395131	0.160083	0.520601
O105	O	1.083058	-0.339910	0.208601
O106	O	1.583058	0.160090	0.708601
C107	C	1.142175	-0.000055	0.108476
C108	C	1.642175	0.499945	0.608476
C109	C	1.235125	-0.000056	0.110127
C110	C	1.735125	0.499944	0.610127
C111	C	0.995205	-0.000048	-0.038494
C112	C	1.495205	0.499952	0.461506
C113	C	0.993553	-0.000045	-0.131444
C114	C	1.493553	0.499955	0.368556
N115	N	0.989148	0.143756	0.114583
N116	N	1.489148	0.643756	0.614583
C117	C	0.987621	-0.000046	-0.469192
C118	C	1.487621	0.499954	0.030808
C119	C	0.896069	0.000185	-0.421758
C120	C	1.396069	0.500185	0.078242
C121	C	0.897721	-0.000043	-0.325068
C122	C	1.397721	0.499957	0.174932
C123	C	0.990564	-0.000045	-0.301631
C124	C	1.490564	0.499955	0.198369
C125	C	1.035698	-0.057751	-0.342709
C126	C	1.535698	0.442249	0.157291
C127	C	1.033398	-0.057799	-0.439345
C128	C	1.533398	0.442201	0.060655
C129	C	1.035334	0.057114	-0.439703
C130	C	1.535334	0.557114	0.060297
C131	C	1.035312	0.057876	-0.342757
C132	C	1.535312	0.557876	0.157243
C133	C	0.992231	-0.000047	-0.206934
C134	C	1.492231	0.499953	0.293066
C135	C	0.985956	-0.000049	-0.563890
C136	C	1.485956	0.499951	-0.063890
C137	C	0.982980	-0.000047	0.267671
C138	C	1.482980	0.499953	0.767671
C139	C	0.984631	-0.000047	0.360621
C140	C	1.484631	0.499953	0.860621
H141	H	0.577849	-0.041407	-0.012278
H142	H	1.077849	0.458593	0.487722
H143	H	0.433168	0.040877	-0.014862
H144	H	0.933168	0.540877	0.485138
H145	H	0.861971	-0.041476	-0.297203
H146	H	1.361971	0.458524	0.202797
H147	H	0.434208	-0.041656	-0.015031
H148	H	0.934208	0.458344	0.484969
Br149	Br	0.869435	-0.717711	-0.005203
Br150	Br	1.369435	-0.217711	0.494797
Br151	Br	0.404679	0.129597	0.104032
Br152	Br	0.904679	0.629597	0.604032
Br153	Br	0.818656	-0.575029	-0.056038
Br154	Br	1.318656	-0.075029	0.443962
H155	H	0.896929	-0.265184	0.022399
H156	H	1.396929	0.234816	0.522399
Br157	Br	0.980773	0.129041	-0.296802
Br158	Br	1.480773	0.629041	0.203198
Br159	Br	1.108843	-0.867575	0.234360
Br160	Br	1.608843	-0.367575	0.734360
Br161	Br	0.818659	-0.425121	-0.056048
Br162	Br	1.318659	0.074879	0.443952
Br163	Br	0.983399	-0.129325	-0.295409
Br164	Br	1.483399	0.370675	0.204591
Br165	Br	0.985464	0.130013	-0.473924
Br166	Br	1.485464	0.630013	0.026076
H167	H	0.577310	0.041392	-0.012518
H168	H	1.077310	0.541392	0.487482
H169	H	0.402924	0.060323	0.226132
H170	H	0.902924	0.560323	0.726132
Br171	Br	1.145423	-0.062173	-0.493099
Br172	Br	1.645423	0.437827	0.006901
Br173	Br	0.869440	-0.867619	-0.005186
Br174	Br	1.369440	-0.367619	0.494814
Br175	Br	0.869353	-0.132522	-0.005186
Br176	Br	1.369353	0.367478	0.494814
Br177	Br	0.838586	0.068903	-0.277691
Br178	Br	1.338586	0.568903	0.222309
Br179	Br	0.835100	0.069160	-0.452640
Br180	Br	1.335100	0.569160	0.047360
H181	H	0.859623	-0.040963	-0.441352
H182	H	1.359623	0.459037	0.058648
Br183	Br	0.381854	-0.057860	0.273313
Br184	Br	0.881854	0.442140	0.773313
H185	H	1.000453	-0.100934	-0.457646
H186	H	1.500453	0.399066	0.042354
H187	H	1.103018	0.061359	-0.327395
H188	H	1.603018	0.561359	0.172605
Br189	Br	1.149385	-0.061334	-0.319171
Br190	Br	1.649385	0.438666	0.180829
Br191	Br	1.147839	0.057759	-0.492638
Br192	Br	1.647839	0.557759	0.007362
Br193	Br	1.159548	-0.425050	0.285203
Br194	Br	1.659548	0.074950	0.785203
Br195	Br	0.555375	0.061253	0.274894
Br196	Br	1.055375	0.561253	0.774894
H197	H	0.560198	0.100603	0.129853
H198	H	1.060198	0.600603	0.629853
H199	H	0.559034	-0.100656	0.127822
H200	H	1.059034	0.399344	0.627822
Br201	Br	0.400539	-0.130109	0.110919
Br202	Br	0.900539	0.369891	0.610919
H203	H	0.547098	-0.061453	0.228489
H204	H	1.047098	0.438547	0.728489
Br205	Br	1.108828	-0.717644	0.234371
Br206	Br	1.608828	-0.217644	0.734371
Br207	Br	1.108725	-0.132468	0.234385
Br208	Br	1.608725	0.367532	0.734385
H209	H	1.081203	-0.265123	0.206780
H210	H	1.581203	0.234877	0.706780
Br211	Br	1.159592	-0.574950	0.285178
Br212	Br	1.659592	-0.074950	0.785178
