data_functionalizedCrystal
_audit_creation_method	'MofGen! by Chris Wilmer'
_symmetry_space_group_name_H-M	'P1'
_symmetry_Int_Tables_number	1
_symmetry_cell_setting	triclinic
loop_
_symmetry_equiv_pos_as_xyz
  x,y,z
_cell_length_a	12.594516
_cell_length_b	16.625548
_cell_length_c	16.625539
_cell_angle_alpha	89.977655
_cell_angle_beta	90.024195
_cell_angle_gamma	89.981969
loop_
_atom_site_label
_atom_site_type_symbol
_atom_site_fract_x
_atom_site_fract_y
_atom_site_fract_z
Zn1	Zn	-0.423744	-1.232705	0.455971
Zn2	Zn	-0.601746	-1.232618	0.321147
Zn3	Zn	-0.423781	-1.097866	0.321147
Zn4	Zn	-0.601681	-1.097847	0.455933
O5	O	-0.512738	-1.165259	0.388550
O6	O	-0.447368	-1.345525	0.438102
O7	O	-0.578181	-1.214715	0.208315
O8	O	-0.274830	-1.115797	0.339047
O9	O	-0.578145	-1.345462	0.339048
O10	O	-0.274803	-1.214862	0.438101
O11	O	-0.447431	-1.115713	0.208315
O12	O	-0.447368	-0.985031	0.339011
O13	O	-0.578034	-1.115764	0.568771
O14	O	-0.578070	-0.985017	0.438038
O15	O	-0.447305	-1.214844	0.568798
O16	O	-0.750683	-1.214696	0.339012
O17	O	-0.750635	-1.115680	0.438038
C18	C	-0.512717	-0.955768	0.388521
C19	C	-0.512733	-0.866147	0.388527
C20	C	-0.512731	-0.537971	0.388552
C21	C	-0.512729	-0.629280	0.388542
C22	C	-0.512733	-0.702056	0.388539
C23	C	-0.512729	-0.793371	0.388531
C24	C	-0.789279	-1.165198	0.388538
C25	C	-0.907584	-1.165246	0.388561
C26	C	-1.047614	-1.111435	0.442394
C27	C	-0.976704	-1.184943	0.462178
C28	C	-0.976922	-1.091746	0.368812
C29	C	-1.047460	-1.238924	0.408413
C30	C	-1.047685	-1.145678	0.315013
C31	C	-0.976807	-1.219236	0.334769
C32	C	-0.235117	-1.165342	0.388578
C33	C	-0.116811	-1.165377	0.388591
C34	C	-0.512659	-1.165311	0.598859
C35	C	-0.512625	-1.165334	0.688480
C36	C	-0.512753	-0.375568	0.388571
C37	C	-0.512741	-0.465189	0.388561
C38	C	-0.512740	-1.165253	0.179059
C39	C	-0.512474	-1.165387	0.089438
C40	C	-0.512506	-1.165371	1.016656
C41	C	-0.512542	-1.165358	0.925347
C42	C	-0.512566	-1.165353	0.852571
C43	C	-0.512601	-1.165339	0.761256
H44	H	-1.078700	-1.065931	0.487941
H45	H	-1.078884	-1.129044	0.252820
Cl46	Cl	-1.095095	-1.335007	0.434333
Cl47	Cl	-0.929076	-0.995693	0.343002
H48	H	-0.945529	-1.201555	0.524389
H49	H	-0.945914	-1.264849	0.289257
