data_functionalizedCrystal
_audit_creation_method	'MofGen! by Chris Wilmer'
_symmetry_space_group_name_H-M	'P1'
_symmetry_Int_Tables_number	1
_symmetry_cell_setting	triclinic
loop_
_symmetry_equiv_pos_as_xyz
  x,y,z
_cell_length_a	12.759401
_cell_length_b	16.959454
_cell_length_c	12.759393
_cell_angle_alpha	89.971316
_cell_angle_beta	90.019802
_cell_angle_gamma	89.977979
loop_
_atom_site_label
_atom_site_type_symbol
_atom_site_fract_x
_atom_site_fract_y
_atom_site_fract_z
Zn1	Zn	1.606206	0.314663	0.594001
Zn2	Zn	2.106206	0.814663	1.094001
Zn3	Zn	1.606072	0.446862	0.418327
Zn4	Zn	2.106072	0.946862	0.918327
Zn5	Zn	1.430505	0.314699	0.418340
Zn6	Zn	1.930505	0.814699	0.918340
Zn7	Zn	1.430472	0.446801	0.593968
Zn8	Zn	1.930472	0.946801	1.093968
O9	O	1.518314	0.380756	0.506159
O10	O	2.018314	0.880756	1.006159
O11	O	1.753209	0.332209	0.570707
O12	O	2.253209	0.832209	1.070707
O13	O	1.582741	0.429371	0.271308
O14	O	2.082741	0.929371	0.771308
O15	O	1.453882	0.204083	0.441661
O16	O	1.953882	0.704083	0.941661
O17	O	1.753111	0.429335	0.441639
O18	O	2.253111	0.929335	0.941639
O19	O	1.582969	0.204057	0.570719
O20	O	2.082969	0.704057	1.070719
O21	O	1.453752	0.332271	0.271317
O22	O	1.953752	0.832271	0.771317
O23	O	1.283480	0.332212	0.441629
O24	O	1.783480	0.832212	0.941629
O25	O	1.453825	0.429232	0.740993
O26	O	1.953825	0.929232	1.240993
O27	O	1.283455	0.429267	0.570662
O28	O	1.783455	0.929267	1.070662
O29	O	1.582937	0.332150	0.741018
O30	O	2.082937	0.832150	1.241018
O31	O	1.582708	0.557465	0.441607
O32	O	2.082708	1.057465	0.941607
O33	O	1.453695	0.557420	0.570649
O34	O	1.953695	1.057420	1.070649
C35	C	1.245346	0.380738	0.506144
C36	C	1.745346	0.880738	1.006144
C37	C	1.128570	0.380749	0.506162
C38	C	1.628570	0.880749	1.006162
C39	C	0.964023	0.330285	0.573478
C40	C	1.464023	0.830285	1.073478
C41	C	1.073747	0.330269	0.573471
C42	C	1.573747	0.830269	1.073471
C43	C	1.073663	0.431253	0.438863
C44	C	1.573663	0.931253	0.938863
C45	C	0.963941	0.431272	0.438876
C46	C	1.463941	0.931272	0.938876
C47	C	1.518212	0.586122	0.506146
C48	C	2.018212	1.086122	1.006146
C49	C	1.518265	0.673979	0.506175
C50	C	2.018265	1.173979	1.006175
C51	C	1.451190	1.045461	0.573359
C52	C	1.951190	1.545461	1.073359
C53	C	1.585642	1.045448	0.439096
C54	C	2.085642	1.545448	0.939096
C55	C	1.585611	0.962902	0.439084
C56	C	2.085611	1.462902	0.939084
C57	C	1.518367	0.921632	0.506210
C58	C	2.018367	1.421632	1.006210
C59	C	1.451155	0.962908	0.573347
C60	C	1.951155	1.462908	1.073347
C61	C	1.652814	0.921620	0.371940
C62	C	2.152814	1.421620	0.871940
C63	C	1.652785	0.839069	0.371925
C64	C	2.152785	1.339069	0.871925
C65	C	1.585546	0.797797	0.439057
C66	C	2.085546	1.297797	0.939057
C67	C	1.518331	0.839078	0.506198
C68	C	2.018331	1.339078	1.006198
C69	C	1.451088	0.797808	0.573324
C70	C	1.951088	1.297808	1.073324
C71	C	1.383878	0.839088	0.640471
C72	C	1.883878	1.339088	1.140471
C73	C	1.383915	0.921636	0.640479
C74	C	1.883915	1.421636	1.140479
C75	C	1.585508	0.715249	0.439049
C76	C	2.085508	1.215249	0.939049
C77	C	1.451052	0.715255	0.573313
C78	C	1.951052	1.215255	1.073313
C79	C	1.792347	0.380775	0.506175
C80	C	2.292347	0.880775	1.006175
C81	C	1.909124	0.380783	0.506182
C82	C	2.409124	0.880783	1.006182
C83	C	1.518392	0.380680	0.780193
C84	C	2.018392	0.880680	1.280193
C85	C	1.518426	0.380648	0.896969
C86	C	2.018426	0.880648	1.396969
C87	C	1.518428	1.174588	0.506201
C88	C	2.018428	1.674588	1.006201
C89	C	1.518434	1.086731	0.506233
C90	C	2.018434	1.586731	1.006233
C91	C	1.518296	0.380775	0.233192
C92	C	2.018296	0.880775	0.733192
C93	C	1.518466	0.380584	0.116416
C94	C	2.018466	0.880584	0.616416
C95	C	1.585659	0.330089	0.951846
C96	C	2.085659	0.830089	1.451846
C97	C	1.585677	0.330055	1.061570
C98	C	2.085677	0.830055	1.561570
C99	C	1.451225	0.431145	1.061531
C100	C	1.951225	0.931145	1.561531
C101	C	1.451203	0.431174	0.951809
C102	C	1.951203	0.931174	1.451809
H103	H	1.118441	0.289149	0.628272
H104	H	1.618441	0.789149	1.128272
H105	H	0.919241	0.472398	0.384075
H106	H	1.419241	0.972398	0.884075
C107	C	1.659429	0.669845	0.365198
C108	C	2.159429	1.169845	0.865198
H109	H	1.699483	0.706247	0.325224
H110	H	2.199483	1.206247	0.825224
H111	H	1.619250	0.637682	0.319386
H112	H	2.119250	1.137682	0.819386
H113	H	1.705179	0.637604	0.405429
H114	H	2.205179	1.137604	0.905429
C115	C	1.377296	0.486726	1.121859
C116	C	1.877296	0.986726	1.621859
H117	H	1.386945	0.479475	1.195065
H118	H	1.886945	0.979475	1.695065
H119	H	1.306708	0.475160	1.103872
H120	H	1.806708	0.975160	1.603872
H121	H	1.392642	0.539843	1.103866
H122	H	1.892642	1.039843	1.603866
C123	C	1.377244	0.486789	0.891436
C124	C	1.877244	0.986789	1.391436
H125	H	1.386852	0.479563	0.818236
H126	H	1.886852	0.979563	1.318236
H127	H	1.392583	0.539896	0.909405
H128	H	1.892583	1.039896	1.409405
H129	H	1.306661	0.475203	0.909410
H130	H	1.806661	0.975203	1.409410
H131	H	1.118309	0.472357	0.384063
H132	H	1.618309	0.972357	0.884063
H133	H	1.396298	0.681658	0.627979
H134	H	1.896298	1.181658	1.127979
C135	C	1.377265	1.090859	0.647219
C136	C	1.877265	1.590859	1.147219
H137	H	1.337220	1.054455	0.687198
H138	H	1.837220	1.554455	1.187198
H139	H	1.331523	1.123109	0.607002
H140	H	1.831523	1.623109	1.107002
H141	H	1.417455	1.123014	0.693042
H142	H	1.917455	1.623014	1.193042
H143	H	0.919393	0.289174	0.628283
H144	H	1.419393	0.789174	1.128283
C145	C	1.659591	0.274509	0.891520
C146	C	2.159591	0.774509	1.391520
H147	H	1.649958	0.281771	0.818313
H148	H	2.149958	0.781771	1.318313
H149	H	1.644254	0.221395	0.909510
H150	H	2.144254	0.721395	1.409510
H151	H	1.730182	0.286083	0.909512
H152	H	2.230182	0.786083	1.409512
H153	H	1.329123	0.805476	0.695121
H154	H	1.829123	1.305476	1.195121
H155	H	1.329196	0.955253	0.695146
H156	H	1.829196	1.455253	1.195146
H157	H	1.707553	0.955228	0.317282
H158	H	2.207553	1.455228	0.817282
C159	C	1.659609	1.090842	0.365269
C160	C	2.159609	1.590842	0.865269
H161	H	1.650009	1.145917	0.374897
H162	H	2.150009	1.645917	0.874897
H163	H	1.644276	1.077356	0.294661
H164	H	2.144276	1.577356	0.794661
H165	H	1.730187	1.077270	0.380722
H166	H	2.230187	1.577270	0.880722
C167	C	1.726720	0.793669	0.298078
C168	C	2.226720	1.293669	0.798078
H169	H	1.766778	0.830072	0.258109
H170	H	2.266778	1.330072	0.758109
H171	H	1.686549	0.761503	0.252262
H172	H	2.186549	1.261503	0.752262
H173	H	1.772467	0.761430	0.338316
H174	H	2.272467	1.261430	0.838316
H175	H	1.640423	0.288884	1.106246
H176	H	2.140423	0.788884	1.606246
