data_functionalizedCrystal
_audit_creation_method	'MofGen! by Chris Wilmer'
_symmetry_space_group_name_H-M	'P1'
_symmetry_Int_Tables_number	1
_symmetry_cell_setting	triclinic
loop_
_symmetry_equiv_pos_as_xyz
  x,y,z
_cell_length_a	23.532407
_cell_length_b	23.532407
_cell_length_c	22.610064
_cell_angle_alpha	89.999397
_cell_angle_beta	89.997161
_cell_angle_gamma	82.848678
loop_
_atom_site_label
_atom_site_type_symbol
_atom_site_fract_x
_atom_site_fract_y
_atom_site_fract_z
O1	O	0.755263	0.069127	-0.049117
O2	O	0.589400	0.079130	-0.049135
O3	O	0.677333	-0.008803	-0.049114
O4	O	0.667330	0.157060	-0.049137
O5	O	0.677318	-0.008790	0.049255
O6	O	0.589385	0.079143	0.049234
O7	O	0.755248	0.069140	0.049252
Zn8	Zn	0.672314	0.074144	0.064862
Zn9	Zn	0.672334	0.074127	-0.064744
O10	O	0.667315	0.157073	0.049232
C11	C	0.568176	0.078882	0.000048
C12	C	0.504959	0.078116	0.000041
C13	C	0.677071	-0.030013	0.000072
C14	C	0.676305	-0.093230	0.000076
C15	C	0.105856	0.125350	0.000061
C16	C	0.046456	0.124638	0.000065
O17	O	0.009711	0.168424	0.000081
N18	N	0.023830	0.072362	0.000071
C19	C	0.060607	0.020794	0.000080
O20	O	0.035908	-0.023737	0.000086
C21	C	0.120006	0.021506	0.000080
C22	C	0.142629	0.073785	0.000068
C23	C	0.128479	0.177625	0.000050
C24	C	0.187876	0.178336	0.000045
C25	C	0.224649	0.126772	0.000052
C26	C	0.202025	0.074497	0.000063
C27	C	0.156783	-0.030062	0.000093
C28	C	0.216185	-0.029345	0.000094
C29	C	0.238808	0.022934	0.000082
C30	C	0.298194	0.023643	0.000065
N31	N	0.320820	0.075920	0.000059
C32	C	0.284048	0.127484	0.000052
C33	C	-0.064135	0.019302	0.000080
C34	C	-0.123533	0.018589	0.000075
C35	C	-0.137680	0.122434	0.000061
C36	C	-0.078281	0.123146	0.000062
C37	C	-0.041509	0.071578	0.000074
C38	C	0.408784	0.128974	0.000042
C39	C	0.468186	0.129680	0.000034
C40	C	0.482329	0.025836	0.000051
C41	C	0.422932	0.025129	0.000055
C42	C	0.386160	0.076702	0.000052
O43	O	0.334974	-0.020119	0.000052
O44	O	0.308755	0.172007	0.000054
C45	C	0.723539	-0.492333	0.000049
C46	C	0.722827	-0.551733	0.000044
O47	O	0.766613	-0.588478	0.000027
N48	N	0.670551	-0.574359	0.000039
C49	C	0.618983	-0.537582	0.000032
O50	O	0.574452	-0.562281	0.000027
C51	C	0.619695	-0.478182	0.000033
C52	C	0.671974	-0.455560	0.000044
C53	C	0.775814	-0.469710	0.000060
C54	C	0.776525	-0.410313	0.000065
C55	C	0.724961	-0.373540	0.000060
C56	C	0.672685	-0.396164	0.000050
C57	C	0.568127	-0.441406	0.000022
C58	C	0.568844	-0.382004	0.000021
C59	C	0.621123	-0.359381	0.000033
C60	C	0.621832	-0.299995	0.000050
N61	N	0.674109	-0.277368	0.000056
C62	C	0.725673	-0.314141	0.000061
C63	C	0.617491	-0.662324	0.000031
C64	C	0.616778	-0.721722	0.000034
C65	C	0.720623	-0.735869	0.000045
C66	C	0.721335	-0.676470	0.000046
C67	C	0.669767	-0.639698	0.000036
C68	C	0.727163	-0.189405	0.000073
C69	C	0.727869	-0.130003	0.000081
C70	C	0.624025	-0.115860	0.000067
C71	C	0.623318	-0.175257	0.000062
C72	C	0.674891	-0.212029	0.000063
O73	O	0.578070	-0.263215	0.000065
O74	O	0.770196	-0.289433	0.000058
C75	C	0.776472	0.069388	0.000069
C76	C	0.839689	0.070154	0.000071
C77	C	0.667577	0.178283	0.000045
C78	C	0.668343	0.241500	0.000036
N79	N	0.672304	0.074155	0.153314
N80	N	0.672349	0.074111	-0.153196
C81	C	0.711273	0.035196	0.561965
C82	C	0.711276	0.035192	0.623884
O83	O	0.744384	0.002076	0.655911
N84	N	0.672334	0.074115	0.654851
C85	C	0.633383	0.113041	0.623895
O86	O	0.600259	0.146147	0.655920
C87	C	0.633377	0.113042	0.561976
C88	C	0.672326	0.074120	0.531013
C89	C	0.750218	-0.003724	0.531001
C90	C	0.750215	-0.003719	0.469085
C91	C	0.711268	0.035206	0.438133
C92	C	0.672323	0.074125	0.469097
C93	C	0.594424	0.151965	0.531021
C94	C	0.594422	0.151962	0.469098
C95	C	0.633370	0.113040	0.438134
C96	C	0.633374	0.113054	0.376229
N97	N	0.672316	0.074131	0.345262
C98	C	0.711263	0.035207	0.376214
C99	C	0.633396	0.113035	0.753928
C100	C	0.633403	0.113037	0.815846
C101	C	0.711296	0.035187	0.815831
C102	C	0.711291	0.035188	0.753913
C103	C	0.672338	0.074112	0.722962
C104	C	0.711255	0.035220	0.246187
C105	C	0.711251	0.035230	0.184266
C106	C	0.633357	0.113078	0.184286
C107	C	0.633363	0.113071	0.246202
C108	C	0.672314	0.074137	0.277151
O109	O	0.600281	0.146152	0.344163
O110	O	0.744376	0.002101	0.344182
H111	H	0.378851	0.170970	0.000041
H112	H	0.781933	-0.035423	0.556197
O113	O	0.595545	0.150831	0.154122
C114	C	0.603907	0.142491	0.092832
H115	H	0.625457	0.097105	0.084379
H116	H	0.560743	0.149037	0.069301
H117	H	0.632280	0.174586	0.075256
O118	O	0.092844	0.227771	0.000015
C119	C	0.125562	0.274056	0.000021
H120	H	0.169979	0.259328	-0.018596
H121	H	0.103463	0.310161	-0.028548
H122	H	0.129701	0.290106	0.047210
O123	O	0.517326	-0.463343	-0.000098
C124	C	0.485927	-0.444502	-0.051044
H125	H	0.516517	-0.432319	-0.086643
H126	H	0.461902	-0.480347	-0.068155
H127	H	0.453971	-0.405605	-0.039531
O128	O	0.209869	0.229110	-0.000075
C129	C	0.243812	0.232621	-0.051019
H130	H	0.229936	0.202927	-0.086617
H131	H	0.238212	0.278546	-0.068133
H132	H	0.290733	0.219230	-0.039502
O133	O	-0.056403	0.173980	0.000080
C134	C	-0.101604	0.219335	0.000057
H135	H	-0.141871	0.203604	0.018680
H136	H	-0.089398	0.255861	0.028611
H137	H	-0.110093	0.235217	-0.047139
H138	H	0.743005	0.003494	0.728706
H139	H	-0.167632	0.164421	0.000059
O140	O	0.595616	0.150933	0.723892
C141	C	0.604550	0.207261	0.739040
H142	H	0.650146	0.207302	0.756051
H143	H	0.597831	0.235885	0.698326
H144	H	0.572896	0.224145	0.774991
H145	H	0.562709	0.183658	0.556223
O146	O	0.825870	-0.505484	0.000144
C147	C	0.828568	-0.540255	0.051099
H148	H	0.783379	-0.543019	0.068076
H149	H	0.850053	-0.585016	0.039646
H150	H	0.854452	-0.520847	0.086778
O151	O	0.556561	0.189831	0.439125
C152	C	0.522180	0.224170	0.479737
H153	H	0.545529	0.224690	0.523872
H154	H	0.513229	0.269699	0.461853
H155	H	0.479982	0.205889	0.486326
H156	H	-0.141947	-0.023982	0.000076
O157	O	0.490091	0.180504	-0.000056
C158	C	0.471278	0.211902	-0.051013
H159	H	0.430165	0.196613	-0.067992
H160	H	0.462767	0.259377	-0.039562
H161	H	0.505690	0.205104	-0.086690
O162	O	0.778642	-0.108001	0.000194
C163	C	0.782151	-0.074057	0.051135
H164	H	0.752467	-0.087943	0.086740
H165	H	0.828079	-0.079645	0.068240
H166	H	0.768745	-0.027138	0.039619
O167	O	0.595474	0.150900	0.276192
C168	C	0.561109	0.185266	0.235592
H169	H	0.560606	0.161926	0.191450
H170	H	0.515577	0.194176	0.253480
H171	H	0.579353	0.227485	0.229015
H172	H	0.769159	-0.219337	0.000071
H173	H	0.404512	-0.017441	0.000056
O174	O	0.749117	-0.002520	0.276309
C175	C	0.784092	0.027797	0.312111
H176	H	0.761155	0.072475	0.321402
H177	H	0.793247	0.003970	0.355646
H178	H	0.826153	0.031460	0.288238
H179	H	0.762610	-0.765821	0.000047
O180	O	0.517974	-0.024304	0.000031
C181	C	0.485275	-0.070602	0.000057
H182	H	0.440858	-0.055898	-0.018568
H183	H	0.507391	-0.106713	-0.028496
H184	H	0.481134	-0.086634	0.047253
H185	H	0.819097	-0.391900	0.000072
O186	O	0.749072	-0.002607	0.845996
C187	C	0.740728	0.005751	0.907286
H188	H	0.695331	0.027270	0.915741
H189	H	0.747305	-0.037412	0.930820
H190	H	0.772800	0.034150	0.924856
O191	O	0.134912	-0.080897	0.000137
C192	C	0.180116	-0.126249	0.000133
H193	H	0.220380	-0.110505	0.018747
H194	H	0.167911	-0.162763	0.028706
H195	H	0.188612	-0.142151	-0.047055
H196	H	0.582043	-0.085909	0.000065
H197	H	-0.034198	-0.022693	0.000084
O198	O	0.772169	-0.654592	0.000024
C199	C	0.817524	-0.699793	0.000045
H200	H	0.801793	-0.740059	-0.018577
H201	H	0.854049	-0.687586	-0.028512
H202	H	0.833407	-0.708284	0.047240
O203	O	0.251963	-0.079403	0.000024
C204	C	0.286736	-0.082115	-0.050932
H205	H	0.289494	-0.036932	-0.067926
H206	H	0.331499	-0.103590	-0.039473
H207	H	0.267334	-0.108017	-0.086600
O208	O	0.566030	-0.743761	-0.000050
C209	C	0.562509	-0.777680	-0.051007
H210	H	0.607484	-0.792726	-0.067987
H211	H	0.540026	-0.816452	-0.039556
H212	H	0.537170	-0.751290	-0.086683
H213	H	0.781929	-0.035414	0.443878
H214	H	0.601694	0.144737	0.841052
O215	O	0.567432	-0.626547	0.000108
C216	C	0.564719	-0.591776	0.051062
H217	H	0.609902	-0.589014	0.068051
H218	H	0.543240	-0.547014	0.039604
H219	H	0.538821	-0.611181	0.086734
H220	H	0.526850	-0.352066	0.000013
H221	H	0.580748	-0.193677	0.000069
O222	O	0.749108	-0.002637	0.154280
C223	C	0.783491	-0.036983	0.194882
H224	H	0.760145	-0.037509	0.239021
H225	H	0.792438	-0.082510	0.176991
H226	H	0.825690	-0.018706	0.201466
