data_functionalizedCrystal
_audit_creation_method	'MofGen! by Chris Wilmer'
_symmetry_space_group_name_H-M	'P1'
_symmetry_Int_Tables_number	1
_symmetry_cell_setting	triclinic
loop_
_symmetry_equiv_pos_as_xyz
  x,y,z
_cell_length_a	25.639239
_cell_length_b	19.077142
_cell_length_c	19.076919
_cell_angle_alpha	90.074357
_cell_angle_beta	87.731593
_cell_angle_gamma	92.265911
loop_
_atom_site_label
_atom_site_type_symbol
_atom_site_fract_x
_atom_site_fract_y
_atom_site_fract_z
Zn1	Zn	-0.252951	-1.058185	0.440433
Zn2	Zn	-0.337016	-1.062797	0.322920
Zn3	Zn	-0.245946	-0.945405	0.318223
Zn4	Zn	-0.336700	-0.940619	0.435668
O5	O	-0.293153	-1.001752	0.379311
O6	O	-0.267167	-1.157128	0.428804
O7	O	-0.322137	-1.051158	0.223966
O8	O	-0.173713	-0.960439	0.334463
O9	O	-0.328929	-1.160516	0.342468
O10	O	-0.178860	-1.043298	0.424250
O11	O	-0.255228	-0.964911	0.220515
O12	O	-0.254920	-0.846440	0.329843
O13	O	-0.328390	-0.952281	0.534631
O14	O	-0.321597	-0.842923	0.416129
O15	O	-0.266860	-1.038657	0.538132
O16	O	-0.410137	-1.046517	0.337847
O17	O	-0.409904	-0.956753	0.420683
C18	C	-0.287464	-0.819186	0.371960
C19	C	-0.285044	-0.741082	0.368832
C20	C	-0.318670	-0.702580	0.412216
C21	C	-0.316388	-0.629193	0.409280
C22	C	-0.280483	-0.594311	0.362956
C23	C	-0.246854	-0.632819	0.319570
C24	C	-0.249133	-0.706204	0.322510
C25	C	-0.269937	-0.375027	0.349357
C26	C	-0.267661	-0.301637	0.346419
C27	C	-0.337195	-0.298017	0.436130
C28	C	-0.339473	-0.371403	0.439063
C29	C	-0.305842	-0.409905	0.395680
N30	N	-0.278152	-0.519298	0.359952
N31	N	-0.308172	-0.484916	0.398687
C32	C	-0.428991	-1.001635	0.379274
C33	C	-0.487106	-1.001648	0.379284
C34	C	-0.847588	-1.048606	0.336260
C35	C	-0.902193	-1.048633	0.336270
O36	O	-0.930525	-1.088437	0.299649
N37	N	-0.929398	-1.001873	0.379362
C38	C	-0.901994	-0.955089	0.422452
O39	O	-0.930148	-0.915319	0.459107
C40	C	-0.847390	-0.955066	0.422445
C41	C	-0.820188	-1.001824	0.379345
C42	C	-0.820385	-1.095360	0.293163
C43	C	-0.765784	-1.095332	0.293152
C44	C	-0.738384	-1.048550	0.336237
C45	C	-0.765586	-1.001796	0.379333
C46	C	-0.819988	-0.908286	0.465538
C47	C	-0.765380	-0.908267	0.465528
C48	C	-0.738178	-0.955025	0.422427
C49	C	-0.683585	-0.954986	0.422407
N50	N	-0.656380	-1.001745	0.379315
C51	C	-0.683780	-1.048527	0.336230
C52	C	-1.016667	-0.955141	0.422465
C53	C	-1.071270	-0.955160	0.422470
C54	C	-1.071465	-1.048705	0.336288
C55	C	-1.016861	-1.048682	0.336281
C56	C	-0.989462	-1.001901	0.379373
C57	C	-0.569112	-1.048464	0.336209
C58	C	-0.514506	-1.048430	0.336199
C59	C	-0.514316	-0.954888	0.422383
C60	C	-0.568918	-0.954920	0.422390
C61	C	-0.596315	-1.001713	0.379301
O62	O	-0.655218	-0.915204	0.459012
O63	O	-0.655620	-1.088296	0.299588
C64	C	-0.156786	-1.001888	0.379364
C65	C	-0.098674	-1.001946	0.379387
C66	C	-0.298371	-0.994421	0.562590
C67	C	-0.300594	-0.991296	0.640693
C68	C	-0.298862	-0.185031	0.386683
C69	C	-0.301287	-0.263135	0.389803
C70	C	-0.287920	-1.009095	0.196746
C71	C	-0.285553	-1.012355	0.118649
C72	C	-0.269605	-1.034797	0.679210
C73	C	-0.271692	-1.031853	0.752595
C74	C	-0.304771	-0.985412	0.787463
C75	C	-0.335761	-0.941906	0.748941
C76	C	-0.333671	-0.944847	0.675557
C77	C	-0.314454	-0.971790	1.006743
C78	C	-0.316543	-0.968854	1.080133
C79	C	-0.252472	-1.058801	1.083782
C80	C	-0.250388	-1.061741	1.010396
C81	C	-0.281376	-1.018233	0.971880
N82	N	-0.306906	-0.982403	0.862475
N83	N	-0.279238	-1.021238	0.896870
H84	H	-0.217617	-0.604412	0.281854
C85	C	-1.100822	-0.904308	0.469139
C86	C	-1.129674	-0.860895	0.427514
C87	C	-1.156896	-0.814037	0.470486
H88	H	-1.123841	-0.929864	0.500876
H89	H	-1.076694	-0.876404	0.494782
H90	H	-1.153799	-0.888796	0.401883
H91	H	-1.106668	-0.835324	0.395778
H92	H	-1.132768	-0.786133	0.496128
H93	H	-1.179912	-0.839599	0.502221
H94	H	-1.176471	-0.784572	0.442249
H95	H	-0.368712	-0.399799	0.476784
C96	C	-0.348187	-0.924630	0.964981
C97	C	-0.400902	-0.939166	0.983413
C98	C	-0.431992	-0.895734	0.944950
H99	H	-0.339466	-0.876924	0.975089
H100	H	-0.342243	-0.933024	0.916273
H101	H	-0.406843	-0.930766	1.032110
H102	H	-0.409639	-0.986863	0.973303
H103	H	-0.426048	-0.904128	0.896242
H104	H	-0.423267	-0.848031	0.955061
H105	H	-0.467763	-0.905595	0.957447
H106	H	-0.491998	-0.916797	0.457460
C107	C	-0.735565	-0.857436	0.512200
C108	C	-0.701719	-0.814013	0.470566
C109	C	-0.674242	-0.767185	0.513535
H110	H	-0.759528	-0.829529	0.537880
H111	H	-0.715910	-0.883036	0.543905
H112	H	-0.721372	-0.788415	0.438874
H113	H	-0.677745	-0.841901	0.444887
H114	H	-0.654588	-0.792785	0.545240
H115	H	-0.698209	-0.739283	0.539213
H116	H	-0.651271	-0.737722	0.485294
H117	H	-0.994362	-0.917041	0.457554
H118	H	-0.743639	-1.133408	0.258058
C119	C	-1.101136	-1.099642	0.289561
C120	C	-1.090362	-1.168516	0.307733
C121	C	-1.117673	-1.215465	0.264702
H122	H	-1.137566	-1.093082	0.295686
H123	H	-1.090532	-1.091336	0.241915
H124	H	-1.100970	-1.176819	0.355368
H125	H	-1.053938	-1.175099	0.301605
H126	H	-1.107068	-1.207159	0.217055
H127	H	-1.154101	-1.208899	0.270830
H128	H	-1.110363	-1.262201	0.277021
C129	C	-0.849420	-0.857492	0.512414
C130	C	-0.813727	-0.816540	0.550155
C131	C	-0.840820	-0.769745	0.593354
H132	H	-0.869037	-0.827910	0.484366
H133	H	-0.872387	-0.883115	0.544176
H134	H	-0.790769	-0.790919	0.518397
H135	H	-0.794108	-0.846102	0.578216
H136	H	-0.863787	-0.795368	0.625116
H137	H	-0.860436	-0.740169	0.565301
H138	H	-0.816607	-0.741958	0.618971
H139	H	-0.347909	-0.730975	0.449936
C140	C	-0.367413	-0.897713	0.633772
C141	C	-0.420127	-0.912265	0.652205
C142	C	-0.451225	-0.868866	0.613719
H143	H	-0.358705	-0.849999	0.643860
H144	H	-0.361464	-0.906126	0.585068
H145	H	-0.426072	-0.903847	0.700897
H146	H	-0.428851	-0.959971	0.642115
H147	H	-0.445277	-0.877279	0.565015
H148	H	-0.442513	-0.821155	0.623810
H149	H	-0.486995	-0.878739	0.626216
H150	H	-0.591413	-1.086570	0.301123
H151	H	-0.591067	-0.916848	0.457489
C152	C	-0.237973	-1.078963	0.794439
C153	C	-0.204409	-1.037518	0.834955
C154	C	-0.173329	-1.080890	0.873501
H155	H	-0.259677	-1.108427	0.824357
H156	H	-0.217945	-1.107027	0.763180
H157	H	-0.224435	-1.009466	0.866212
H158	H	-0.182694	-1.008056	0.805055
H159	H	-0.153301	-1.108955	0.842241
H160	H	-0.195037	-1.110352	0.903414
H161	H	-0.150549	-1.052776	0.900990
H162	H	-0.343771	-0.597847	0.444608
C163	C	-0.218846	-1.105949	1.125723
C164	C	-0.227744	-1.093423	1.197452
C165	C	-0.196769	-1.136835	1.236108
H166	H	-0.227595	-1.153661	1.115683
H167	H	-0.183045	-1.096170	1.113334
H168	H	-0.263537	-1.103206	1.209836
H169	H	-0.218992	-1.045719	1.207512
H170	H	-0.160968	-1.127057	1.223719
H171	H	-0.205520	-1.184545	1.226063
H172	H	-0.202798	-1.128338	1.284780
C173	C	-0.373642	-0.256089	0.483204
C174	C	-0.363954	-0.184355	0.470731
C175	C	-0.397514	-0.145710	0.514092
H176	H	-0.408857	-0.268413	0.473358
H177	H	-0.367755	-0.266203	0.530930
H178	H	-0.369845	-0.174245	0.423015
H179	H	-0.328745	-0.172010	0.480580
H180	H	-0.391627	-0.155824	0.561819
H181	H	-0.432727	-0.158039	0.504243
H182	H	-0.390942	-0.097034	0.505640
H183	H	-0.238417	-0.273238	0.308700
H184	H	-0.842688	-1.133460	0.258078
H185	H	-0.221749	-0.737552	0.287185
C186	C	-0.233397	-0.416699	0.302174
C187	C	-0.201477	-0.370441	0.260965
C188	C	-0.167812	-0.408807	0.217485
H189	H	-0.212255	-0.444275	0.330182
H190	H	-0.253360	-0.446520	0.272614
H191	H	-0.181515	-0.340632	0.290522
H192	H	-0.222605	-0.342864	0.232943
H193	H	-0.187775	-0.438628	0.187926
H194	H	-0.146673	-0.436382	0.245499
H195	H	-0.146153	-0.377427	0.189515
C196	C	-0.233637	-1.085243	0.641484
C197	C	-0.206934	-1.122694	0.690926
C198	C	-0.173789	-1.169164	0.656202
H199	H	-0.253718	-1.117050	0.614084
H200	H	-0.209177	-1.059548	0.611798
H201	H	-0.231391	-1.148388	0.720600
H202	H	-0.186843	-1.090906	0.718329
H203	H	-0.149329	-1.143468	0.626515
H204	H	-0.193874	-1.200966	0.628802
H205	H	-0.155663	-1.194575	0.689742
H206	H	-0.492359	-1.086506	0.301099
H207	H	-0.994716	-1.086757	0.301185
H208	H	-0.223453	-1.099561	0.982012
H209	H	-0.343481	-0.931033	1.108520
C210	C	-0.371607	-0.891366	0.786753
C211	C	-0.357539	-0.822568	0.766117
C212	C	-0.390546	-0.775992	0.800939
H213	H	-0.406730	-0.902002	0.775151
H214	H	-0.368410	-0.895797	0.835979
H215	H	-0.360741	-0.818140	0.716901
H216	H	-0.322422	-0.811910	0.777720
H217	H	-0.387349	-0.780423	0.850166
H218	H	-0.425667	-0.786635	0.789334
H219	H	-0.381002	-0.729307	0.786947
