data_functionalizedCrystal
_audit_creation_method	'MofGen! by Chris Wilmer'
_symmetry_space_group_name_H-M	'P1'
_symmetry_Int_Tables_number	1
_symmetry_cell_setting	triclinic
loop_
_symmetry_equiv_pos_as_xyz
  x,y,z
_cell_length_a	16.109301
_cell_length_b	16.109301
_cell_length_c	15.186229
_cell_angle_alpha	89.994833
_cell_angle_beta	89.999362
_cell_angle_gamma	83.461481
loop_
_atom_site_label
_atom_site_type_symbol
_atom_site_fract_x
_atom_site_fract_y
_atom_site_fract_z
O1	O	1.103131	0.106866	-0.073176
O2	O	0.861069	0.120165	-0.073190
O3	O	0.988749	-0.007515	-0.073174
O4	O	0.975450	0.234547	-0.073192
O5	O	0.988741	-0.007517	0.073284
O6	O	0.861060	0.120164	0.073267
O7	O	1.103122	0.106864	0.073282
Zn8	Zn	0.982090	0.113514	0.096528
Zn9	Zn	0.982101	0.113516	-0.096436
O10	O	0.975441	0.234545	0.073265
C11	C	0.830090	0.119626	0.000037
C12	C	0.737794	0.118011	0.000032
C13	C	0.515522	0.190018	0.000036
C14	C	0.428801	0.188494	0.000042
C15	C	0.448676	0.037006	0.000050
C16	C	0.535394	0.038530	0.000051
C17	C	0.568815	0.115039	0.000039
C18	C	0.395376	0.111990	0.000045
C19	C	0.301350	0.110337	0.000051
C20	C	0.662847	0.116693	0.000035
C21	C	0.988206	-0.038491	0.000056
C22	C	0.986591	-0.130786	0.000057
C23	C	1.058599	-0.353059	0.000047
C24	C	1.057075	-0.439779	0.000040
C25	C	0.905586	-0.419905	0.000034
C26	C	0.907111	-0.333186	0.000035
C27	C	0.983620	-0.299766	0.000046
C28	C	0.980571	-0.473205	0.000038
C29	C	0.978918	-0.567231	0.000030
C30	C	0.985273	-0.205734	0.000052
C31	C	1.134101	0.107404	0.000053
C32	C	1.226397	0.109019	0.000052
C33	C	0.975984	0.265521	0.000034
C34	C	0.977600	0.357816	0.000027
N35	N	0.982088	0.113511	0.228220
N36	N	0.982109	0.113512	-0.228129
C37	C	1.038644	0.056994	0.453950
C38	C	1.038647	0.056992	0.546140
C39	C	0.925547	0.170032	0.546135
C40	C	0.925541	0.170030	0.453947
C41	C	0.982094	0.113511	0.407857
C42	C	0.982103	0.113512	0.592235
C43	C	0.982105	0.113510	0.692191
C44	C	0.982091	0.113512	0.307894
H45	H	0.542730	0.252317	0.000034
C46	C	0.863346	0.232207	0.596834
C47	C	0.863394	0.232263	0.698237
C48	C	0.801193	0.294442	0.748933
C49	C	0.738945	0.356565	0.698225
C50	C	0.738895	0.356512	0.596817
C51	C	0.801096	0.294333	0.546121
H52	H	0.909475	0.186273	0.735778
H53	H	0.801230	0.294481	0.824002
H54	H	0.692900	0.402593	0.735754
H55	H	0.692813	0.402501	0.559275
H56	H	0.801059	0.294294	0.471051
C57	C	1.100845	-0.005181	0.403251
C58	C	1.100846	-0.005189	0.301848
C59	C	1.163047	-0.067368	0.251152
C60	C	1.225246	-0.129539	0.301860
C61	C	1.225248	-0.129534	0.403268
C62	C	1.163047	-0.067355	0.453964
H63	H	1.054800	0.040836	0.264307
H64	H	1.163045	-0.067371	0.176083
H65	H	1.271291	-0.175568	0.264332
H66	H	1.271294	-0.175559	0.440810
H67	H	1.163049	-0.067352	0.529034
H68	H	0.879487	0.216053	0.416415
H69	H	0.385413	0.249550	0.000041
C70	C	1.142756	-0.316294	0.000049
C71	C	1.164640	-0.259420	0.076102
C72	C	1.248799	-0.222658	0.076100
C73	C	1.311074	-0.242771	0.000046
C74	C	1.289192	-0.299649	-0.076012
C75	C	1.205033	-0.336410	-0.076011
H76	H	1.118538	-0.244529	0.132406
H77	H	1.264997	-0.180554	0.132404
H78	H	1.373374	-0.215558	0.000045
H79	H	1.335293	-0.314540	-0.132317
H80	H	1.188834	-0.378515	-0.132314
H81	H	0.421454	-0.025285	0.000065
H82	H	0.578788	-0.022530	0.000056
C83	C	1.139553	-0.498402	0.000043
C84	C	1.223706	-0.461637	0.000053
C85	C	1.306188	-0.520259	0.000055
C86	C	1.304518	-0.615648	0.000047
C87	C	1.220362	-0.652418	0.000037
C88	C	1.137880	-0.593795	0.000035
H89	H	1.224945	-0.391020	0.000060
H90	H	1.368486	-0.493039	0.000062
H91	H	1.365577	-0.659044	0.000048
H92	H	1.219123	-0.723034	0.000030
H93	H	1.075582	-0.621015	0.000028
C94	C	0.821430	-0.456670	0.000024
C95	C	0.819747	-0.552056	0.000023
C96	C	0.735589	-0.588819	0.000012
C97	C	0.653112	-0.530195	0.000003
C98	C	0.654792	-0.434803	0.000004
C99	C	0.738950	-0.398040	0.000015
H100	H	0.880804	-0.595458	0.000029
H101	H	0.734346	-0.659435	0.000011
H102	H	0.590813	-0.557409	-0.000005
H103	H	0.593735	-0.391401	-0.000002
H104	H	0.740193	-0.327424	0.000016
H105	H	0.846050	-0.289792	0.000032
H106	H	1.084694	0.010969	0.583667
