data_functionalizedCrystal
_audit_creation_method	'MofGen! by Chris Wilmer'
_symmetry_space_group_name_H-M	'P1'
_symmetry_Int_Tables_number	1
_symmetry_cell_setting	triclinic
loop_
_symmetry_equiv_pos_as_xyz
  x,y,z
_cell_length_a	16.992694
_cell_length_b	10.723023
_cell_length_c	16.053802
_cell_angle_alpha	92.591082
_cell_angle_beta	87.249047
_cell_angle_gamma	87.567885
loop_
_atom_site_label
_atom_site_type_symbol
_atom_site_fract_x
_atom_site_fract_y
_atom_site_fract_z
O1	O	1.045091	0.259813	-0.069321
O2	O	0.816791	0.256907	-0.069346
O3	O	0.936207	0.077238	-0.069330
O4	O	0.925675	0.439483	-0.069338
O5	O	0.929634	0.087084	0.069528
O6	O	0.810218	0.266753	0.069512
O7	O	1.038518	0.269659	0.069537
Zn8	Zn	0.923324	0.269769	0.091571
Zn9	Zn	0.931985	0.256797	-0.091380
O10	O	0.919102	0.449329	0.069520
C11	C	0.784272	0.258094	0.000080
C12	C	0.697169	0.246945	0.000070
C13	C	0.932155	0.035595	0.000098
C14	C	0.929862	-0.103157	0.000095
C15	C	0.647507	0.354505	0.000069
C16	C	0.565663	0.344024	0.000080
C17	C	0.533483	0.225982	0.000088
C18	C	0.583152	0.118414	0.000092
C19	C	0.664993	0.128896	0.000086
C20	C	0.289651	0.182535	0.000111
C21	C	0.207803	0.172060	0.000115
C22	C	0.190320	0.397672	0.000104
C23	C	0.272164	0.408144	0.000094
C24	C	0.321825	0.300577	0.000102
N25	N	0.449827	0.215265	0.000097
N26	N	0.405480	0.311294	0.000099
C27	C	0.932245	-0.170111	-0.071838
C28	C	0.929875	-0.313519	-0.071843
C29	C	1.071037	0.268472	0.000109
C30	C	1.158141	0.279620	0.000113
C31	C	0.923155	0.490971	0.000090
C32	C	0.925448	0.629723	0.000088
N33	N	0.917420	0.278623	0.216430
N34	N	0.937896	0.247934	-0.216240
C35	C	0.968250	0.202204	0.260131
C36	C	0.964127	0.208409	0.347538
C37	C	0.909176	0.291041	0.391241
C38	C	0.858341	0.367463	0.347534
C39	C	0.862460	0.361250	0.260130
C40	C	0.891180	0.318143	0.652648
C41	C	0.887065	0.324353	0.740059
C42	C	0.992851	0.165297	0.740056
C43	C	0.996970	0.159097	0.652650
C44	C	0.946131	0.235514	0.608951
N45	N	0.904962	0.297389	0.480584
N46	N	0.950342	0.229159	0.519609
H47	H	0.673700	0.450628	0.000062
F48	F	0.342494	0.068050	0.000120
F49	F	0.548901	-0.007217	0.000106
F50	F	0.306406	0.533781	0.000081
F51	F	0.137462	0.512145	0.000097
F52	F	1.055454	0.071154	0.606139
F53	F	0.937218	-0.106274	-0.152333
F54	F	0.828577	0.412309	0.786567
F55	F	1.018226	0.127075	0.394048
F56	F	1.026740	0.114261	0.213627
H57	H	0.926062	-0.152003	0.061677
H58	H	1.034241	0.103081	0.775644
F59	F	0.837076	0.399475	0.606147
F60	F	0.799853	0.455400	0.394048
H61	H	0.821068	0.423477	0.224549
F62	F	0.922791	-0.295056	0.080591
F63	F	0.512812	0.458505	0.000075
H64	H	0.181606	0.075931	0.000120
F65	F	0.932543	-0.388750	-0.152343
F66	F	0.717847	0.014416	0.000091
