data_functionalizedCrystal
_audit_creation_method	'MofGen! by Chris Wilmer'
_symmetry_space_group_name_H-M	'P1'
_symmetry_Int_Tables_number	1
_symmetry_cell_setting	triclinic
loop_
_symmetry_equiv_pos_as_xyz
  x,y,z
_cell_length_a	10.686220
_cell_length_b	18.050590
_cell_length_c	18.050582
_cell_angle_alpha	89.976663
_cell_angle_beta	94.355462
_cell_angle_gamma	94.400502
loop_
_atom_site_label
_atom_site_type_symbol
_atom_site_fract_x
_atom_site_fract_y
_atom_site_fract_z
Zn1	Zn	1.929029	-0.208485	-0.332919
Zn2	Zn	1.928913	-0.332674	-0.208733
Zn3	Zn	1.718037	-0.218037	-0.218258
Zn4	Zn	1.717984	-0.342181	-0.342393
O5	O	1.823491	-0.275344	-0.275576
O6	O	2.105589	-0.216983	-0.308495
O7	O	1.900913	-0.317486	-0.106073
O8	O	1.746096	-0.112842	-0.233490
O9	O	2.105503	-0.308224	-0.217255
O10	O	1.901111	-0.105825	-0.317731
O11	O	1.745983	-0.233263	-0.113071
O12	O	1.541454	-0.242481	-0.242676
O13	O	1.746006	-0.324427	-0.445060
O14	O	1.541416	-0.333689	-0.333878
O15	O	1.901060	-0.226202	-0.438100
O16	O	1.900862	-0.437863	-0.226442
O17	O	1.745893	-0.444847	-0.324641
C18	C	1.495651	-0.290153	-0.290339
C19	C	1.355400	-0.296507	-0.296672
C20	C	1.823394	-0.468301	-0.275551
C21	C	1.823467	-0.550843	-0.275560
C22	C	1.907915	-0.746461	-0.222220
C23	C	1.938728	-0.794406	-0.288610
C24	C	1.823539	-0.701970	-0.275586
C25	C	1.792854	-0.801101	-0.209220
C26	C	1.823611	-0.847952	-0.275605
C27	C	1.854412	-0.748826	-0.342009
C28	C	1.708484	-0.755519	-0.262576
C29	C	1.739254	-0.803444	-0.329015
C30	C	1.823501	-0.617874	-0.275574
C31	C	1.823648	-0.932047	-0.275625
C32	C	2.152610	-0.260478	-0.260756
C33	C	2.292862	-0.254143	-0.254440
C34	C	1.823540	-0.275309	-0.469279
C35	C	1.823561	-0.275294	-0.551824
C36	C	1.823622	-0.081633	-0.275616
C37	C	1.823678	0.000916	-0.275633
C38	C	1.739307	-0.328638	-0.755057
C39	C	1.854434	-0.341586	-0.799257
C40	C	1.823623	-0.275235	-0.702952
C41	C	1.708560	-0.262263	-0.805831
C42	C	1.823673	-0.275179	-0.848935
C43	C	1.938810	-0.288215	-0.746061
C44	C	1.792859	-0.208864	-0.752635
C45	C	1.908065	-0.221783	-0.796809
C46	C	1.823593	-0.275269	-0.618855
C47	C	1.823717	-0.275144	-0.933029
C48	C	1.823514	-0.275322	-0.082623
C49	C	1.823737	-0.275117	-0.000067
H50	H	1.979292	-0.721561	-0.177132
F51	F	1.363120	-0.200383	-0.200845
H52	H	1.979472	-0.176594	-0.815126
F53	F	2.066060	-0.302616	-0.712090
F54	F	1.285135	-0.350277	-0.350263
F55	F	1.758765	-0.135555	-0.725788
H56	H	1.611182	-0.738246	-0.251536
H57	H	2.036058	-0.811662	-0.299628
H58	H	1.611232	-0.251314	-0.831914
H59	H	1.880298	-0.726008	-0.398196
H60	H	1.667931	-0.828203	-0.374202
F61	F	1.646196	-0.387733	-0.730925
F62	F	1.758891	-0.831052	-0.135852
H63	H	1.880484	-0.397690	-0.819780
