data_functionalizedCrystal
_audit_creation_method	'MofGen! by Chris Wilmer'
_symmetry_space_group_name_H-M	'P1'
_symmetry_Int_Tables_number	1
_symmetry_cell_setting	triclinic
loop_
_symmetry_equiv_pos_as_xyz
  x,y,z
_cell_length_a	15.995292
_cell_length_b	27.732048
_cell_length_c	14.472310
_cell_angle_alpha	89.993924
_cell_angle_beta	89.985801
_cell_angle_gamma	83.055635
loop_
_atom_site_label
_atom_site_type_symbol
_atom_site_fract_x
_atom_site_fract_y
_atom_site_fract_z
O1	O	1.110222	0.062168	-0.076876
O2	O	0.866341	0.069891	-0.076874
O3	O	0.995856	-0.004336	-0.076857
O4	O	0.980707	0.136394	-0.076892
O5	O	0.995823	-0.004332	0.076825
O6	O	0.866307	0.069895	0.076808
O7	O	1.110189	0.062172	0.076806
Cu8	Cu	0.988245	0.066034	0.090839
Cu9	Cu	0.988285	0.066029	-0.090907
O10	O	0.980674	0.136398	0.076790
C11	C	0.835133	0.069579	-0.000032
C12	C	0.742192	0.068636	-0.000031
C13	C	0.404498	0.065172	-0.000040
C14	C	0.427117	0.118746	-0.000397
C15	C	0.523780	0.119765	-0.000047
C16	C	0.572032	0.066891	-0.000036
C17	C	0.543258	0.040108	0.087728
C18	C	0.446475	0.039463	0.087797
C19	C	0.446672	0.038365	-0.086968
C20	C	0.543139	0.040350	-0.088124
C21	C	0.666715	0.067859	-0.000030
C22	C	0.309815	0.064201	-0.000039
C23	C	0.995521	-0.022342	-0.000014
C24	C	0.994564	-0.076001	-0.000006
C25	C	1.065071	-0.414520	-0.000054
C26	C	1.061518	-0.616195	-0.000067
O27	O	1.125992	-0.647180	-0.000108
N28	N	0.984721	-0.635641	-0.000066
C29	C	0.908806	-0.604664	-0.000067
O30	O	0.843404	-0.625831	-0.000075
C31	C	0.912360	-0.402991	-0.000061
C32	C	0.989162	-0.383548	-0.000053
C33	C	1.141867	-0.395077	-0.000048
C34	C	1.142754	-0.344662	-0.000039
C35	C	1.066845	-0.313689	-0.000038
C36	C	0.990049	-0.333132	-0.000045
C37	C	0.836446	-0.372015	-0.000069
C38	C	0.837342	-0.321594	-0.000069
C39	C	0.914144	-0.302151	-0.000062
C40	C	0.915028	-0.251744	-0.000035
N41	N	0.991825	-0.232298	-0.000036
C42	C	1.067734	-0.263271	-0.000038
C43	C	0.906946	-0.710546	-0.000068
C44	C	0.906057	-0.760964	-0.000068
C45	C	1.058770	-0.772492	-0.000070
C46	C	1.059657	-0.722072	-0.000064
C47	C	0.983743	-0.691100	-0.000070
C48	C	1.069592	-0.157394	-0.000020
C49	C	1.070473	-0.106973	-0.000008
C50	C	0.917761	-0.095450	-0.000011
C51	C	0.916880	-0.145867	-0.000018
C52	C	0.992802	-0.176838	-0.000026
O53	O	0.850589	-0.220730	-0.000004
O54	O	1.133127	-0.242094	-0.000050
C55	C	1.064183	-0.464936	-0.000063
C56	C	0.987387	-0.484379	-0.000069
C57	C	0.911479	-0.453407	-0.000068
C58	C	0.986499	-0.534797	-0.000069
C59	C	1.062407	-0.565770	-0.000071
C60	C	1.139205	-0.546324	-0.000072
C61	C	1.140092	-0.495909	-0.000064
C62	C	0.834682	-0.472852	-0.000066
C63	C	0.833800	-0.523269	-0.000073
C64	C	0.909709	-0.554241	-0.000075
C65	C	1.141397	0.062484	-0.000038
C66	C	1.234338	0.063426	-0.000045
C67	C	0.981008	0.154404	-0.000056
C68	C	0.981966	0.208063	-0.000070
N69	N	0.988224	0.066037	0.218670
N70	N	0.988313	0.066022	-0.218738
C71	C	0.988283	0.066027	0.592762
C72	C	0.918753	0.105611	0.553587
C73	C	0.918911	0.105755	0.446499
C74	C	0.988253	0.066032	0.407171
C75	C	1.075478	0.077037	0.446003
C76	C	1.075086	0.077318	0.553125
C77	C	0.971370	0.015320	0.553304
C78	C	0.969362	0.015659	0.446176
C79	C	0.988242	0.066034	0.302282
C80	C	0.988301	0.066026	0.697650
H81	H	0.418142	0.055108	-0.153487
H82	H	1.128407	0.049624	0.579037
Cl83	Cl	0.573829	0.068828	0.188558
H84	H	0.575629	0.001200	0.090999
Cl85	Cl	0.820327	-0.170310	-0.000010
H86	H	0.398868	0.139395	-0.063337
Cl87	Cl	0.404675	0.068109	0.189071
Cl88	Cl	0.571480	0.070440	-0.188370
H89	H	1.022083	-0.014137	0.578637
H90	H	0.433189	-0.001070	-0.087553
Cl91	Cl	1.099226	0.133480	0.404558
H92	H	0.772866	-0.447639	-0.000067
Cl93	Cl	0.594807	-0.019238	-0.096294
Cl94	Cl	1.165039	-0.196321	-0.000028
H95	H	1.133017	-0.091146	0.000001
Cl96	Cl	1.239311	-0.320227	-0.000056
H97	H	0.542548	0.140737	-0.062962
Cl98	Cl	1.157230	0.033708	0.406674
Cl99	Cl	1.098250	0.134412	0.591675
H100	H	0.855958	-0.070224	-0.000006
Cl101	Cl	1.156212	-0.697636	-0.000055
Cl102	Cl	0.818761	0.095666	0.405962
H103	H	0.909182	0.004735	0.580375
H104	H	1.203684	-0.420291	-0.000052
H105	H	0.905202	0.007306	0.420797
H106	H	0.397819	0.139284	0.062179
Cl107	Cl	0.818285	0.095651	0.593383
Cl108	Cl	0.424789	-0.021180	0.094019
Cl109	Cl	0.935097	0.163382	0.595097
Cl110	Cl	1.236649	-0.471474	-0.000062
Cl111	Cl	1.042557	-0.031951	0.404865
Cl112	Cl	1.154197	-0.811437	-0.000077
Cl113	Cl	0.809502	-0.785400	-0.000060
H114	H	0.845124	-0.685332	-0.000073
Cl115	Cl	0.739889	-0.396445	-0.000084
H116	H	0.775522	-0.296378	-0.000076
Cl117	Cl	1.234632	-0.585271	-0.000070
H118	H	0.929644	0.143384	0.420855
Cl119	Cl	0.737239	-0.547704	-0.000079
Cl120	Cl	0.551758	0.152346	0.097241
