data_functionalizedCrystal
_audit_creation_method	'MofGen! by Chris Wilmer'
_symmetry_space_group_name_H-M	'P1'
_symmetry_Int_Tables_number	1
_symmetry_cell_setting	triclinic
loop_
_symmetry_equiv_pos_as_xyz
  x,y,z
_cell_length_a	12.759399
_cell_length_b	11.169417
_cell_length_c	11.169409
_cell_angle_alpha	90.022388
_cell_angle_beta	89.965848
_cell_angle_gamma	89.986662
loop_
_atom_site_label
_atom_site_type_symbol
_atom_site_fract_x
_atom_site_fract_y
_atom_site_fract_z
Zn1	Zn	-0.418232	-1.834931	-0.678585
Zn2	Zn	-0.593957	-1.834801	-0.477896
Zn3	Zn	-0.418287	-1.634215	-0.477913
Zn4	Zn	-0.593864	-1.634208	-0.678534
O5	O	-0.506085	-1.734539	-0.578232
O6	O	-0.441558	-2.002864	-0.651978
O7	O	-0.570717	-1.808141	-0.309948
O8	O	-0.271259	-1.660897	-0.504562
O9	O	-0.570663	-2.002768	-0.504532
O10	O	-0.271218	-1.808363	-0.651995
O11	O	-0.441653	-1.660771	-0.309961
O12	O	-0.441562	-1.466264	-0.504512
O13	O	-0.570503	-1.660886	-0.846491
O14	O	-0.570557	-1.466259	-0.651908
O15	O	-0.441467	-1.808356	-0.846529
O16	O	-0.740966	-1.808135	-0.504482
O17	O	-0.740897	-1.660760	-0.651890
C18	C	-0.506056	-1.422714	-0.578207
C19	C	-0.506069	-1.289314	-0.578225
C20	C	-0.779052	-1.734465	-0.578205
C21	C	-0.895829	-1.734544	-0.578233
C22	C	-0.950692	-1.811369	-0.501565
C23	C	-1.060416	-1.811446	-0.501605
C24	C	-1.060405	-1.657862	-0.654986
C25	C	-0.950683	-1.657791	-0.654950
C26	C	-1.210301	-1.953107	-0.458896
C27	C	-1.265167	-2.029922	-0.382209
C28	C	-1.229633	-2.048383	-0.265107
C29	C	-1.139235	-1.990012	-0.224667
C30	C	-1.084374	-1.913187	-0.301348
C31	C	-1.119906	-1.894749	-0.418467
C32	C	-0.800796	-1.516129	-0.697647
C33	C	-0.745933	-1.439298	-0.774322
C34	C	-0.781465	-1.420825	-0.891427
C35	C	-0.871867	-1.479175	-0.931862
C36	C	-0.926730	-1.556006	-0.855187
C37	C	-0.891190	-1.574482	-0.738083
C38	C	-0.232052	-1.734645	-0.578286
C39	C	-0.115275	-1.734691	-0.578309
C40	C	-0.505969	-1.734635	-0.891275
C41	C	-0.505919	-1.734676	-1.024675
C42	C	-0.506104	-1.047581	-0.578250
C43	C	-0.506086	-1.180981	-0.578238
C44	C	-0.506125	-1.734512	-0.266408
C45	C	-0.505879	-1.734703	-0.133008
H46	H	-0.906033	-1.873867	-0.439099
O47	O	-0.986863	-1.850266	-0.257741
H48	H	-0.919255	-1.876708	-0.314472
H49	H	-0.736786	-1.358259	-0.953854
O50	O	-1.248656	-1.933188	-0.585193
H51	H	-1.249793	-2.019867	-0.633807
O52	O	-1.362660	-2.092890	-0.425821
H53	H	-1.378143	-2.067170	-0.520145
H54	H	-1.105080	-1.595371	-0.717444
O55	O	-1.024231	-1.618957	-0.898795
H56	H	-1.039722	-1.593215	-0.993111
H57	H	-1.110316	-2.005040	-0.129306
H58	H	-0.672318	-1.391793	-0.741393
H59	H	-0.900797	-1.464134	-1.027219
O60	O	-1.288795	-2.131249	-0.182396
H61	H	-1.357615	-2.168742	-0.230190
O62	O	-0.762477	-1.536054	-0.571332
H63	H	-0.690409	-1.482554	-0.556090
