data_functionalizedCrystal
_audit_creation_method	'MofGen! by Chris Wilmer'
_symmetry_space_group_name_H-M	'P1'
_symmetry_Int_Tables_number	1
_symmetry_cell_setting	triclinic
loop_
_symmetry_equiv_pos_as_xyz
  x,y,z
_cell_length_a	14.519731
_cell_length_b	10.540514
_cell_length_c	12.996460
_cell_angle_alpha	89.997025
_cell_angle_beta	89.994327
_cell_angle_gamma	84.102006
loop_
_atom_site_label
_atom_site_type_symbol
_atom_site_fract_x
_atom_site_fract_y
_atom_site_fract_z
O1	O	1.224743	0.166531	-0.085562
O2	O	1.558076	0.499864	0.247772
O3	O	1.891410	0.833197	0.581105
O4	O	0.956373	0.186098	-0.085562
O5	O	1.289706	0.519432	0.247771
O6	O	1.623040	0.852765	0.581104
O7	O	1.096693	-0.008456	-0.085563
O8	O	1.430026	0.324877	0.247770
O9	O	1.763359	0.658211	0.581103
O10	O	1.084423	0.361085	-0.085561
O11	O	1.417756	0.694418	0.247773
O12	O	1.751090	1.027752	0.581106
O13	O	1.096678	-0.008467	0.085570
O14	O	1.430011	0.324867	0.418904
O15	O	1.763345	0.658200	0.752237
O16	O	0.956358	0.186087	0.085571
O17	O	1.289691	0.519421	0.418905
O18	O	1.623025	0.852754	0.752238
O19	O	1.224728	0.166520	0.085572
O20	O	1.558061	0.499853	0.418905
O21	O	1.891395	0.833187	0.752239
Cu22	Cu	1.090542	0.176303	0.101198
Cu23	Cu	1.423875	0.509636	0.434531
Cu24	Cu	1.757208	0.842969	0.767864
Cu25	Cu	1.090559	0.176316	-0.101188
Cu26	Cu	1.423893	0.509649	0.232145
Cu27	Cu	1.757226	0.842982	0.565479
O28	O	1.084408	0.361074	0.085573
O29	O	1.417742	0.694408	0.418906
O30	O	1.751075	1.027741	0.752240
C31	C	0.922001	0.185176	0.000004
C32	C	1.255334	0.518509	0.333338
C33	C	1.588668	0.851843	0.666671
C34	C	0.819606	0.182429	0.000004
C35	C	1.152940	0.515762	0.333337
C36	C	1.486273	0.849095	0.666670
C37	C	1.095770	-0.055756	0.000001
C38	C	1.429103	0.277578	0.333334
C39	C	1.762437	0.610911	0.666668
C40	C	1.093032	-0.196678	-0.000007
C41	C	1.426365	0.136656	0.333327
C42	C	1.759699	0.469989	0.666660
C43	C	0.736450	0.180196	-0.000000
C44	C	1.069784	0.513529	0.333333
C45	C	1.403117	0.846863	0.666666
C46	C	0.632127	0.177407	-0.000001
C47	C	0.965460	0.510740	0.333332
C48	C	1.298793	0.844073	0.666666
C49	C	0.548976	0.175193	-0.000001
C50	C	0.882309	0.508526	0.333333
C51	C	1.215642	0.841859	0.666666
C52	C	0.444646	0.172404	-0.000003
C53	C	0.777979	0.505737	0.333330
C54	C	1.111312	0.839070	0.666664
C55	C	1.193387	-0.268397	-0.000004
C56	C	1.526720	0.064936	0.333330
C57	C	1.860054	0.398269	0.666663
C58	C	1.190572	-0.414982	0.000392
C59	C	1.523906	-0.081649	0.333725
C60	C	1.857239	0.251685	0.667058
C61	C	1.038446	-0.388468	0.097537
C62	C	1.371779	-0.055135	0.430870
C63	C	1.705112	0.278199	0.764204
C64	C	1.041972	-0.241964	0.097612
C65	C	1.375305	0.091369	0.430945
C66	C	1.708638	0.424702	0.764279
C67	C	1.040503	-0.241538	-0.097006
C68	C	1.373837	0.091795	0.236327
C69	C	1.707170	0.425128	0.569661
C70	C	1.039535	-0.388507	-0.098281
C71	C	1.372869	-0.055174	0.235052
C72	C	1.706202	0.278159	0.568386
C73	C	1.259100	0.167442	0.000003
C74	C	1.592433	0.500776	0.333336
C75	C	1.925767	0.834109	0.666670
C76	C	1.361495	0.170190	-0.000003
C77	C	1.694828	0.503523	0.333330
C78	C	2.028161	0.836856	0.666664
C79	C	1.085331	0.408374	0.000006
C80	C	1.418664	0.741707	0.333340
C81	C	1.751998	1.075041	0.666673
C82	C	1.088069	0.549296	0.000007
C83	C	1.421402	0.882629	0.333341
C84	C	1.754736	1.215963	0.666674
N85	N	1.090536	0.176293	0.243545
N86	N	1.423869	0.509626	0.576878
N87	N	1.757203	0.842960	0.910211
N88	N	1.090572	0.176315	-0.243535
N89	N	1.423905	0.509649	0.089798
N90	N	1.757239	0.842982	0.423132
C91	C	1.090558	0.176317	0.663359
C92	C	1.423891	0.509650	0.996692
C93	C	1.757225	0.842983	1.330026
C94	C	1.090549	0.176314	0.546554
C95	C	1.423883	0.509648	0.879887
C96	C	1.757216	0.842981	1.213221
C97	C	1.090548	0.176306	0.453456
C98	C	1.423881	0.509639	0.786789
C99	C	1.757214	0.842973	1.120122
C100	C	1.090538	0.176302	0.336643
C101	C	1.423871	0.509635	0.669976
C102	C	1.757204	0.842968	1.003310
H103	H	1.229603	-0.458037	-0.069505
H104	H	1.562937	-0.124704	0.263828
H105	H	1.896270	0.208629	0.597162
H106	H	1.233524	-0.238489	0.069782
H107	H	1.566857	0.094844	0.403115
H108	H	1.900190	0.428177	0.736449
H109	H	0.968253	-0.193214	0.101771
H110	H	1.301587	0.140120	0.435104
H111	H	1.634920	0.473453	0.768438
H112	H	1.072480	-0.431373	0.170397
H113	H	1.405813	-0.098040	0.503730
H114	H	1.739147	0.235293	0.837063
Cl115	Cl	1.256254	-0.224974	-0.107974
Cl116	Cl	1.589588	0.108360	0.225359
Cl117	Cl	1.922921	0.441693	0.558692
Cl118	Cl	1.250553	-0.480032	0.108972
Cl119	Cl	1.583886	-0.146699	0.442305
Cl120	Cl	1.917219	0.186635	0.775638
H121	H	1.078201	-0.214109	0.170797
H122	H	1.411535	0.119225	0.504130
H123	H	1.744868	0.452558	0.837463
Cl124	Cl	0.922208	-0.421741	0.102717
Cl125	Cl	1.255542	-0.088407	0.436050
Cl126	Cl	1.588875	0.244926	0.769384
H127	H	1.073914	-0.210375	-0.170954
H128	H	1.407247	0.122958	0.162379
H129	H	1.740581	0.456291	0.495712
H130	H	1.075800	-0.429866	-0.170435
H131	H	1.409134	-0.096533	0.162898
H132	H	1.742467	0.236800	0.496232
Cl133	Cl	0.924216	-0.424816	-0.107897
Cl134	Cl	1.257550	-0.091483	0.225436
Cl135	Cl	1.590883	0.241851	0.558770
H136	H	0.966476	-0.193550	-0.097939
H137	H	1.299810	0.139784	0.235394
H138	H	1.633143	0.473117	0.568727
