data_functionalizedCrystal
_audit_creation_method	'MofGen! by Chris Wilmer'
_symmetry_space_group_name_H-M	'P1'
_symmetry_Int_Tables_number	1
_symmetry_cell_setting	triclinic
loop_
_symmetry_equiv_pos_as_xyz
  x,y,z
_cell_length_a	27.440280
_cell_length_b	14.395555
_cell_length_c	14.395555
_cell_angle_alpha	60.000749
_cell_angle_beta	89.995994
_cell_angle_gamma	59.995703
loop_
_atom_site_label
_atom_site_type_symbol
_atom_site_fract_x
_atom_site_fract_y
_atom_site_fract_z
Zr1	Zr	0.469513	1.016699	-0.121951
O2	O	0.391699	1.210503	-0.270272
O3	O	0.493366	0.822901	-0.076480
O4	O	0.493369	1.016688	-0.270276
O5	O	0.391694	1.016723	0.076391
O6	O	0.573571	1.016673	-0.270282
O7	O	0.391695	1.016716	-0.076476
O8	O	0.573565	0.670024	0.076384
O9	O	0.391701	1.363372	-0.270274
O10	O	0.563395	0.902600	-0.057094
O11	O	0.503540	0.902616	0.056993
O12	O	0.503545	1.130775	-0.171177
O13	O	0.443691	1.130792	-0.057089
Zr14	Zr	0.597425	1.016686	0.121846
Zr15	Zr	0.597426	1.016675	-0.121960
Zr16	Zr	0.469512	1.016710	0.121855
Zr17	Zr	0.469517	1.260508	-0.121954
Zr18	Zr	0.597421	0.772877	0.121850
O19	O	0.573573	1.210485	0.076376
O20	O	0.573574	1.210469	-0.270285
O21	O	0.391697	1.210518	0.076388
O22	O	0.675240	0.822883	0.270167
O23	O	0.675241	0.822867	-0.076493
O24	O	0.493364	0.822917	0.270180
O25	O	0.675244	1.016663	-0.076496
O26	O	0.573569	1.016698	0.270171
O27	O	0.493367	1.016712	0.270177
O28	O	0.675244	1.016670	0.076371
O29	O	0.493375	1.363353	-0.270281
O30	O	0.573564	0.670032	0.270177
O31	O	0.675237	0.670013	0.270170
O32	O	0.675238	0.670005	0.076377
O33	O	0.391700	1.363381	-0.076481
O34	O	0.493374	1.363362	-0.076488
O35	O	0.563394	0.902610	0.171072
O36	O	0.623248	0.902594	0.056985
O37	O	0.563398	1.130769	-0.057098
O38	O	0.503544	1.130786	0.056990
C39	C	0.533464	0.711725	-0.000048
C40	C	0.533463	0.608221	-0.000046
C41	C	0.500830	0.547638	0.062163
C42	C	0.477178	0.561894	-0.045110
C43	C	0.557100	0.409569	0.107195
C44	C	0.509779	0.623904	-0.107383
C45	C	0.589731	0.471516	0.045000
C46	C	0.566094	0.485819	-0.062338
C47	C	0.373470	1.016723	-0.000041
C48	C	0.319167	1.016733	-0.000037
C49	C	-0.017530	1.016660	-0.084270
C50	C	-0.068548	1.016650	-0.084270
O51	O	-0.094923	1.016598	-0.155869
N52	N	-0.094066	1.016657	-0.000056
C53	C	-0.068560	1.016659	0.084171
O54	O	-0.094950	1.016662	0.155803
C55	C	-0.017541	1.016659	0.084176
C56	C	0.007971	1.016666	-0.000051
C57	C	0.007982	1.016665	-0.168489
C58	C	0.058996	1.016677	-0.168489
C59	C	0.084497	1.016683	-0.084270
C60	C	0.058985	1.016678	-0.000051
C61	C	0.007967	1.016652	0.168407
C62	C	0.058990	1.016651	0.168404
C63	C	0.084502	1.016658	0.084178
C64	C	0.135500	1.016696	0.084167
N65	N	0.161018	1.016689	-0.000047
C66	C	0.135517	1.016683	-0.084266
C67	C	-0.175704	1.016657	0.084157
C68	C	-0.226725	1.016666	0.084149
C69	C	-0.226708	1.016655	-0.084292
C70	C	-0.175689	1.016655	-0.084288
C71	C	-0.150186	1.016650	-0.000058
C72	C	0.242649	1.016709	-0.084261
C73	C	0.293666	1.016726	-0.084256
C74	C	0.293647	1.016730	0.084187
C75	C	0.242633	1.016720	0.084180
C76	C	0.217136	1.016705	-0.000049
O77	O	0.161908	1.016743	0.155732
O78	O	0.161917	1.016663	-0.155877
C79	C	0.693469	1.016663	-0.000063
C80	C	0.747771	1.016653	-0.000067
C81	C	0.533470	1.016679	-0.305016
C82	C	0.533471	1.016674	-0.408518
C83	C	0.533474	1.321661	-0.000057
C84	C	0.533476	1.425164	-0.000059
C85	C	0.566107	0.892263	-0.406904
C86	C	0.509827	0.954464	-0.499922
C87	C	0.589736	0.954478	-0.499927
C88	C	0.477159	1.078876	-0.500173
C89	C	0.557108	1.078873	-0.500164
C90	C	0.500795	1.141165	-0.593200
C91	C	0.533468	1.016707	0.304911
C92	C	0.533468	1.016711	0.408413
C93	C	0.693464	0.711695	-0.000059
C94	C	0.747765	0.608181	-0.000061
C95	C	0.533463	0.711738	0.304916
C96	C	0.533461	0.608240	0.408419
C97	C	0.693463	0.711709	0.304905
C98	C	0.747763	0.608200	0.408404
C99	C	0.373476	1.321677	-0.305009
C100	C	0.319175	1.425186	-0.408509
C101	C	0.373475	1.321691	-0.000046
C102	C	0.319174	1.425204	-0.000044
C103	C	0.533475	1.321647	-0.305020
C104	C	0.533477	1.425146	-0.408524
C105	C	0.742022	0.559574	-0.059620
C106	C	0.793039	0.462325	-0.059645
C107	C	0.849797	0.413680	-0.000103
C108	C	0.855539	0.462297	0.059458
C109	C	0.804523	0.559551	0.059475
C110	C	0.804512	0.559583	0.397457
C111	C	0.855538	0.462339	0.494696
C112	C	0.849814	0.413707	0.602882
C113	C	0.793059	0.462334	0.613828
C114	C	0.742034	0.559583	0.516590
C115	C	0.262427	1.473815	-0.397561
C116	C	0.211401	1.571089	-0.494801
C117	C	0.217125	1.619726	-0.602987
C118	C	0.273880	1.571093	-0.613933
C119	C	0.324904	1.473827	-0.516694
C120	C	0.324916	1.473822	0.059505
C121	C	0.273900	1.571098	0.059503
C122	C	0.217141	1.619746	-0.000042
C123	C	0.211400	1.571124	-0.059598
C124	C	0.262416	1.473857	-0.059602
C125	C	0.500824	0.547661	0.406808
C126	C	0.557104	0.409553	0.499824
C127	C	0.477197	0.561901	0.499834
C128	C	0.589774	0.471433	0.500072
C129	C	0.509827	0.623854	0.500068
C130	C	0.566140	0.485756	0.593102
H131	H	0.593690	0.458868	-0.115024
C132	C	-0.020061	1.016648	-0.261130
H133	H	-0.054098	1.016635	-0.249081
H134	H	-0.031681	1.092840	-0.333829
H135	H	0.008300	0.940437	-0.257622
C136	C	0.412917	0.612159	0.501066
H137	H	0.389783	0.633250	0.435684
H138	H	0.413403	0.545860	0.567655
H139	H	0.395902	0.688396	0.500591
H140	H	0.165180	1.610749	-0.108078
H141	H	0.637301	0.434343	0.083137
H142	H	0.175606	1.698947	-0.000029
C143	C	0.148977	1.624565	-0.482747
H144	H	0.119405	1.689472	-0.556147
H145	H	0.144504	1.554746	-0.442344
H146	H	0.144511	1.662492	-0.442324
H147	H	0.473269	0.574747	0.327052
H148	H	0.577084	0.317961	0.197891
H149	H	0.371127	1.434220	0.108002
H150	H	-0.247480	1.016648	-0.152866
C151	C	0.256092	1.420371	-0.125094
H152	H	0.214981	1.463271	-0.160541
H153	H	0.274694	1.436289	-0.181455
H154	H	0.274688	1.328552	-0.073679
C155	C	0.905944	0.306725	0.709835
H156	H	0.940559	0.284732	0.687810
H157	H	0.905956	0.338588	0.753839
H158	H	0.905950	0.230836	0.753827
H159	H	0.891333	0.334489	-0.000126
C160	C	0.482810	0.883453	-0.501191
H161	H	0.448468	0.942645	-0.567077
H162	H	0.511445	0.810896	-0.502162
H163	H	0.471841	0.853025	-0.435112
H164	H	0.637322	0.901872	-0.500829
H165	H	0.278586	1.610669	0.108006
C166	C	0.679613	0.613047	0.528640
H167	H	0.650039	0.677936	0.455240
H168	H	0.675146	0.543218	0.569059
H169	H	0.675140	0.650992	0.569048
H170	H	0.371110	1.434234	-0.525622
H171	H	0.695811	0.599180	-0.108120
H172	H	0.577100	0.317929	0.500751
C173	C	0.786712	0.408850	-0.125151
H174	H	0.745602	0.451737	-0.160588
H175	H	0.805308	0.424788	-0.181521
H176	H	0.805316	0.317027	-0.073742
C177	C	0.256121	1.420333	-0.278567
H178	H	0.294634	1.355431	-0.222211
H179	H	0.234927	1.490154	-0.270036
H180	H	0.234917	1.382401	-0.270037
C181	C	0.280172	1.624584	-0.732938
H182	H	0.321277	1.581701	-0.725544
H183	H	0.261558	1.608647	-0.773335
H184	H	0.261568	1.716407	-0.773349
H185	H	0.429552	1.131425	-0.499349
H186	H	0.901758	0.422676	0.107934
H187	H	0.788407	0.422724	0.701926
H188	H	0.809207	0.599115	0.107982
C189	C	0.654085	0.420917	0.498956
H190	H	0.653689	0.487419	0.432719
H191	H	0.677323	0.399022	0.564697
H192	H	0.670915	0.345153	0.498739
C193	C	0.160996	1.726710	-0.709943
H194	H	0.172529	1.748723	-0.775948
H195	H	0.137915	1.694833	-0.709935
H196	H	0.137921	1.802590	-0.709934
C197	C	0.917960	0.408854	0.482636
H198	H	0.914057	0.451733	0.404276
H199	H	0.939168	0.424796	0.518077
H200	H	0.939161	0.317030	0.518099
C201	C	0.463461	1.283390	-0.700777
H202	H	0.423509	1.327377	-0.701442
H203	H	0.479907	1.327893	-0.700874
H204	H	0.463924	1.282635	-0.766388
C205	C	0.584139	1.149830	-0.498836
H206	H	0.624141	1.105484	-0.497836
H207	H	0.561364	1.237760	-0.564896
H208	H	0.583605	1.149990	-0.432930
C209	C	0.810820	0.613064	0.278464
H210	H	0.851929	0.570181	0.285887
H211	H	0.792220	0.597123	0.238049
H212	H	0.792215	0.704887	0.238055
H213	H	0.314435	1.016736	-0.152848
H214	H	0.593781	0.458724	0.672728
C215	C	0.482798	0.747671	0.498741
H216	H	0.442797	0.780583	0.497745
H217	H	0.505575	0.726122	0.564800
H218	H	0.483331	0.812718	0.432834
H219	H	0.473195	0.574871	0.114692
H220	H	0.314417	1.016741	0.152755
C221	C	0.087061	1.016662	-0.261125
H222	H	0.121098	1.016672	-0.249078
H223	H	0.098688	0.940459	-0.257623
H224	H	0.058711	1.092862	-0.333831
H225	H	-0.154944	1.016663	0.152745
C226	C	0.412905	0.612127	-0.096599
H227	H	0.409614	0.611698	-0.162059
H228	H	0.403477	0.556577	-0.042016
H229	H	0.385971	0.699116	-0.117504
C230	C	-0.147625	1.016644	-0.176926
H231	H	-0.170122	1.016632	-0.227076
H232	H	-0.147706	1.092835	-0.218528
H233	H	-0.107734	0.940432	-0.142322
C234	C	0.482700	0.747598	-0.229963
H235	H	0.482841	0.813078	-0.229207
H236	H	0.505705	0.726144	-0.274259
H237	H	0.442840	0.779900	-0.262040
C238	C	-0.254786	1.016672	0.176791
H239	H	-0.232285	1.016669	0.226948
H240	H	-0.294679	1.092863	0.142203
H241	H	-0.254693	0.940461	0.218397
H242	H	0.221896	1.016695	-0.152847
H243	H	0.079753	1.016643	0.236998
C244	C	-0.020086	1.016639	0.261058
H245	H	-0.054128	1.016645	0.249004
H246	H	0.008267	0.940441	0.333753
H247	H	-0.031715	1.092844	0.257562
C248	C	0.603328	0.750156	-0.299153
H249	H	0.586436	0.706161	-0.298372
H250	H	0.643137	0.705518	-0.298955
H251	H	0.603359	0.751126	-0.233651
C252	C	0.214562	1.016736	0.176814
H253	H	0.237059	1.016741	0.226971
H254	H	0.174669	1.092926	0.142218
H255	H	0.214656	0.940523	0.218423
