data_functionalizedCrystal
_audit_creation_method	'MofGen! by Chris Wilmer'
_symmetry_space_group_name_H-M	'P1'
_symmetry_Int_Tables_number	1
_symmetry_cell_setting	triclinic
loop_
_symmetry_equiv_pos_as_xyz
  x,y,z
_cell_length_a	14.044220
_cell_length_b	14.519709
_cell_length_c	13.596369
_cell_angle_alpha	89.998664
_cell_angle_beta	89.998669
_cell_angle_gamma	88.434511
loop_
_atom_site_label
_atom_site_type_symbol
_atom_site_fract_x
_atom_site_fract_y
_atom_site_fract_z
O1	O	-1.258086	-0.222362	0.081691
O2	O	-0.758086	0.277638	0.581691
O3	O	-0.982103	-0.214338	0.081716
O4	O	-0.482103	0.285662	0.581716
O5	O	-1.127412	-0.084702	0.081694
O6	O	-0.627412	0.415298	0.581694
O7	O	-1.112778	-0.351999	0.081713
O8	O	-0.612778	0.148001	0.581713
O9	O	-1.127394	-0.084708	-0.081889
O10	O	-0.627394	0.415292	0.418111
O11	O	-0.982086	-0.214345	-0.081867
O12	O	-0.482086	0.285655	0.418133
O13	O	-1.258068	-0.222369	-0.081892
O14	O	-0.758068	0.277631	0.418108
Zn15	Zn	-1.120074	-0.218358	-0.107852
Zn16	Zn	-0.620074	0.281642	0.392148
Zn17	Zn	-1.120098	-0.218349	0.107676
Zn18	Zn	-0.620098	0.281651	0.607676
O19	O	-1.112760	-0.352005	-0.081870
O20	O	-0.612760	0.147995	0.418130
C21	C	-1.126721	-0.050290	-0.000098
C22	C	-0.626721	0.449710	0.499902
C23	C	-1.124677	0.052256	-0.000098
C24	C	-0.624677	0.552256	0.499902
C25	C	-0.946774	-0.210829	-0.000073
C26	C	-0.446774	0.289171	0.499927
C27	C	-0.841531	-0.200352	-0.000064
C28	C	-0.341531	0.299648	0.499936
C29	C	-1.293398	-0.225878	-0.000101
C30	C	-0.793398	0.274122	0.499899
C31	C	-1.398641	-0.236355	-0.000104
C32	C	-0.898641	0.263645	0.499896
C33	C	-0.648837	-0.181197	-0.000084
C34	C	-0.148837	0.318803	0.499916
C35	C	-0.591329	-0.255505	-0.000083
C36	C	-0.091329	0.244495	0.499917
C37	C	-0.484108	-0.244848	-0.000095
C38	C	0.015892	0.255152	0.499905
C39	C	-0.756068	-0.191854	-0.000073
C40	C	-0.256068	0.308146	0.499927
C41	C	-1.113451	-0.386417	-0.000076
C42	C	-0.613451	0.113583	0.499924
C43	C	-1.115494	-0.488963	-0.000070
C44	C	-0.615494	0.011037	0.499930
N45	N	-1.120065	-0.218363	-0.254944
N46	N	-0.620065	0.281637	0.245056
C47	C	-1.117153	0.427758	-0.000072
C48	C	-0.617153	0.927758	0.499928
C49	C	-1.119243	0.323282	-0.000079
C50	C	-0.619243	0.823282	0.499921
C51	C	-1.120915	0.240010	-0.000086
C52	C	-0.620915	0.740010	0.499914
C53	C	-1.123005	0.135527	-0.000092
C54	C	-0.623005	0.635527	0.499908
C55	C	-1.120070	-0.218366	-0.343942
C56	C	-0.620070	0.281634	0.156058
C57	C	-1.120079	-0.218360	-0.455593
C58	C	-0.620079	0.281640	0.044407
C59	C	-1.120091	-0.218351	-0.544583
C60	C	-0.620091	0.281649	-0.044583
C61	C	-1.120102	-0.218346	-0.656242
C62	C	-0.620102	0.281654	-0.156242
N63	N	-1.120114	-0.218337	0.254767
N64	N	-0.620114	0.281663	0.754767
H65	H	-0.622622	-0.327127	-0.000073
H66	H	-0.122622	0.172873	0.499927
Br67	Br	-0.596683	-0.061830	-0.000098
Br68	Br	-0.096683	0.438170	0.499902
