data_functionalizedCrystal
_audit_creation_method	'MofGen! by Chris Wilmer'
_symmetry_space_group_name_H-M	'P1'
_symmetry_Int_Tables_number	1
_symmetry_cell_setting	triclinic
loop_
_symmetry_equiv_pos_as_xyz
  x,y,z
_cell_length_a	10.489741
_cell_length_b	10.654541
_cell_length_c	8.965430
_cell_angle_alpha	89.997498
_cell_angle_beta	89.999293
_cell_angle_gamma	95.488449
loop_
_atom_site_label
_atom_site_type_symbol
_atom_site_fract_x
_atom_site_fract_y
_atom_site_fract_z
O1	O	0.179138	-1.667928	0.123993
O2	O	0.196211	-1.302456	0.124006
O3	O	0.002072	-1.493508	0.123990
O4	O	0.373276	-1.476876	0.124008
O5	O	0.002085	-1.493492	-0.124089
O6	O	0.196223	-1.302440	-0.124073
O7	O	0.179151	-1.667911	-0.124086
Cu8	Cu	0.187688	-1.485174	-0.146731
Cu9	Cu	0.187673	-1.485193	0.146651
O10	O	0.373289	-1.476860	-0.124070
C11	C	0.194964	-1.255650	-0.000032
C12	C	0.191216	-1.116205	-0.000027
C13	C	-0.045452	-1.492244	-0.000048
C14	C	-0.187080	-1.488486	-0.000046
C15	C	0.180397	-1.714718	-0.000045
C16	C	0.184146	-1.854163	-0.000040
C17	C	-0.255160	-1.366925	-0.000030
C18	C	-0.347305	-1.424341	-0.122348
C19	C	-0.347292	-1.424386	0.122238
C20	C	-0.277359	-1.545952	-0.122464
C21	C	-0.277337	-1.545980	0.122232
C22	C	-0.369454	-1.603484	-0.000116
C23	C	0.420814	-1.478124	-0.000029
C24	C	0.562441	-1.481882	-0.000022
N25	N	0.187698	-1.485170	-0.353080
C26	C	0.423360	-1.088342	0.000003
C27	C	0.537667	-1.008902	0.000024
C28	C	0.534137	-0.877882	0.000025
C29	C	0.416288	-0.826301	0.000001
C30	C	0.301982	-0.905742	-0.000020
C31	C	0.305524	-1.036763	-0.000017
C32	C	0.069840	-0.933604	-0.000061
C33	C	0.073367	-1.064624	-0.000052
C34	C	-0.048009	-0.882024	-0.000085
C35	C	-0.162318	-0.961465	-0.000096
C36	C	-0.158783	-1.092492	-0.000095
C37	C	-0.040939	-1.144065	-0.000073
C38	C	0.277451	-1.396787	-0.450379
C39	C	0.303206	-1.510503	-0.549795
C40	C	0.161955	-1.371503	-0.549791
C41	C	0.213511	-1.598943	-0.450308
C42	C	0.072209	-1.459868	-0.450295
C43	C	0.097916	-1.573665	-0.549667
N44	N	0.187653	-1.485208	0.353000
H45	H	-0.205460	-1.266979	-0.000150
H46	H	0.353422	-1.322115	-0.406784
H47	H	-0.378236	-1.372942	0.225658
Br48	Br	-0.451917	-1.770215	-0.000224
H49	H	-0.378286	-1.372899	-0.225756
Br50	Br	0.689266	-0.770064	0.000033
H51	H	0.235382	-1.695107	-0.406793
H52	H	-0.246547	-1.597335	-0.225991
H53	H	0.413424	-0.719617	-0.000016
Br54	Br	0.465954	-1.546221	-0.622639
H55	H	0.426246	-1.195024	0.000035
Br56	Br	0.697597	-1.078908	0.000052
H57	H	-0.050875	-0.775340	-0.000092
Br58	Br	-0.028630	-1.698397	-0.621884
H59	H	-0.258261	-0.919457	-0.000114
H60	H	-0.251866	-1.157166	-0.000118
Br61	Br	-0.036133	-1.321877	-0.000058
H62	H	-0.025407	-1.438406	-0.406556
H63	H	0.140201	-1.275361	-0.593494
Br64	Br	-0.225641	-1.631651	0.294594
