data_functionalizedCrystal
_audit_creation_method	'MofGen! by Chris Wilmer'
_symmetry_space_group_name_H-M	'P1'
_symmetry_Int_Tables_number	1
_symmetry_cell_setting	triclinic
loop_
_symmetry_equiv_pos_as_xyz
  x,y,z
_cell_length_a	9.065215
_cell_length_b	9.065215
_cell_length_c	8.140239
_cell_angle_alpha	89.997429
_cell_angle_beta	90.001981
_cell_angle_gamma	94.985269
loop_
_atom_site_label
_atom_site_type_symbol
_atom_site_fract_x
_atom_site_fract_y
_atom_site_fract_z
O1	O	-1.960398	0.216336	-0.136583
O2	O	-1.460398	0.716336	0.363417
O3	O	-1.531112	0.234086	-0.136592
O4	O	-1.031112	0.734086	0.363408
O5	O	-1.754631	0.010568	-0.136580
O6	O	-1.254631	0.510568	0.363420
O7	O	-1.736880	0.439854	-0.136594
O8	O	-1.236880	0.939854	0.363406
O9	O	-1.754618	0.010565	0.136647
O10	O	-1.254618	0.510565	0.636647
O11	O	-1.531100	0.234084	0.136635
O12	O	-1.031100	0.734084	0.636635
O13	O	-1.960385	0.216333	0.136644
O14	O	-1.460385	0.716333	0.636644
Zn15	Zn	-1.745741	0.225208	0.180021
Zn16	Zn	-1.245741	0.725208	0.680021
Zn17	Zn	-1.745757	0.225211	-0.179968
Zn18	Zn	-1.245757	0.725211	0.320032
O19	O	-1.736867	0.439851	0.136633
O20	O	-1.236867	0.939851	0.636633
C21	C	-1.476120	0.232380	0.000021
C22	C	-0.976120	0.732380	0.500021
C23	C	-1.312277	0.227282	0.000017
C24	C	-0.812277	0.727282	0.500017
C25	C	-1.752919	-0.044420	0.000032
C26	C	-1.252919	0.455580	0.500032
C27	C	-1.747821	-0.208263	0.000027
C28	C	-1.247821	0.291737	0.500027
C29	C	-1.015378	0.218039	0.000027
C30	C	-0.515378	0.718039	0.500027
C31	C	-1.179221	0.223137	0.000017
C32	C	-0.679221	0.723137	0.500017
C33	C	-1.738578	0.494839	0.000017
C34	C	-1.238578	0.994839	0.500017
C35	C	-1.743676	0.658682	0.000012
C36	C	-1.243676	1.158682	0.500012
N37	N	-1.745740	0.225205	0.425703
N38	N	-1.245740	0.725205	0.925703
N39	N	-1.745769	0.225203	-0.425650
N40	N	-1.245769	0.725203	0.074350
