data_functionalizedCrystal
_audit_creation_method	'MofGen! by Chris Wilmer'
_symmetry_space_group_name_H-M	'P1'
_symmetry_Int_Tables_number	1
_symmetry_cell_setting	triclinic
loop_
_symmetry_equiv_pos_as_xyz
  x,y,z
_cell_length_a	19.077105
_cell_length_b	18.101395
_cell_length_c	19.077174
_cell_angle_alpha	92.274090
_cell_angle_beta	85.483752
_cell_angle_gamma	87.727498
loop_
_atom_site_label
_atom_site_type_symbol
_atom_site_fract_x
_atom_site_fract_y
_atom_site_fract_z
Zn1	Zn	1.093667	-0.359826	-0.441848
Zn2	Zn	1.593667	0.140174	0.058152
Zn3	Zn	1.088839	-0.478484	-0.323961
Zn4	Zn	1.588839	0.021516	0.176039
Zn5	Zn	0.971053	-0.349474	-0.319245
Zn6	Zn	1.471053	0.150526	0.180755
Zn7	Zn	0.975733	-0.478436	-0.437079
Zn8	Zn	1.475733	0.021564	0.062921
O9	O	1.032323	-0.416555	-0.380533
O10	O	1.532323	0.083445	0.119467
O11	O	1.191676	-0.379919	-0.430179
O12	O	1.691676	0.120081	0.069821
O13	O	1.069236	-0.457058	-0.224686
O14	O	1.569236	0.042942	0.275314
O15	O	0.987380	-0.247218	-0.335530
O16	O	1.487380	0.252782	0.164470
O17	O	1.188129	-0.467097	-0.343568
O18	O	1.688129	0.032903	0.156432
O19	O	1.077464	-0.254824	-0.425606
O20	O	1.577464	0.245176	0.074394
O21	O	0.982699	-0.362276	-0.221221
O22	O	1.482699	0.137724	0.278779
O23	O	0.873024	-0.362229	-0.330906
O24	O	1.373024	0.137771	0.169094
O25	O	0.995356	-0.467014	-0.536361
O26	O	1.495356	0.032986	-0.036361
O27	O	0.876463	-0.456976	-0.417479
O28	O	1.376463	0.043024	0.082521
O29	O	1.082002	-0.379872	-0.539865
O30	O	1.582002	0.120128	-0.039865
O31	O	1.073774	-0.582107	-0.338945
O32	O	1.573774	-0.082107	0.161055
O33	O	0.990675	-0.582071	-0.422052
O34	O	1.490675	-0.082071	0.077948
C35	C	0.849165	-0.408474	-0.373164
C36	C	1.349165	0.091526	0.126836
C37	C	0.770810	-0.405036	-0.370028
C38	C	1.270810	0.094964	0.129972
C39	C	1.032228	-0.608961	-0.380509
C40	C	1.532228	-0.108961	0.119491
C41	C	1.032253	-0.691276	-0.380524
C42	C	1.532253	-0.191276	0.119476
C43	C	0.735804	-0.452818	-0.413557
C44	C	1.235804	0.047182	0.086443
C45	C	0.662181	-0.449578	-0.410614
C46	C	1.162181	0.050422	0.089386
C47	C	0.623565	-0.398558	-0.364137
C48	C	1.123565	0.101442	0.135863
C49	C	0.658576	-0.350770	-0.320606
C50	C	1.158576	0.149230	0.179394
C51	C	0.732197	-0.354007	-0.323554
C52	C	1.232197	0.145993	0.176446
C53	C	0.403185	-0.383575	-0.350501
C54	C	0.903185	0.116425	0.149499
C55	C	0.329559	-0.380343	-0.347555
C56	C	0.829559	0.119657	0.152445
C57	C	0.333169	-0.479150	-0.437564
C58	C	0.833169	0.020850	0.062436
C59	C	0.406792	-0.482386	-0.440504
C60	C	0.906792	0.017614	0.059496
C61	C	0.441796	-0.434596	-0.396976
C62	C	0.941796	0.065404	0.103024
N63	N	0.548310	-0.395246	-0.361126
N64	N	1.048310	0.104754	0.138874
N65	N	0.517050	-0.437904	-0.399991
N66	N	1.017050	0.062096	0.100009
C67	C	1.032409	-0.990376	-0.380568
C68	C	1.532409	-0.490376	0.119432
C69	C	0.980257	-0.959071	-0.432998
C70	C	1.480257	-0.459071	0.067002
C71	C	0.979992	-0.873434	-0.432816
C72	C	1.479992	-0.373434	0.067184
C73	C	1.032331	-0.841989	-0.380547
C74	C	1.532331	-0.341989	0.119453
C75	C	1.009238	-0.868986	-0.305444
C76	C	1.509238	-0.368986	0.194556
C77	C	1.008901	-0.954630	-0.305757
C78	C	1.508901	-0.454630	0.194243
C79	C	1.107747	-0.962841	-0.402593
C80	C	1.607747	-0.462841	0.097407
C81	C	1.107374	-0.877242	-0.404205
C82	C	1.607374	-0.377242	0.095795
C83	C	1.032289	-0.758127	-0.380531
C84	C	1.532289	-0.258127	0.119469
C85	C	1.032450	-1.074237	-0.380580
C86	C	1.532450	-0.574237	0.119420
C87	C	1.216197	-0.424668	-0.387932
C88	C	1.716197	0.075332	0.112068
C89	C	1.294553	-0.428125	-0.391085
C90	C	1.794553	0.071875	0.108915
C91	C	1.039740	-0.424592	-0.564407
C92	C	1.539740	0.075408	-0.064407
C93	C	1.042900	-0.428018	-0.642763
C94	C	1.542900	0.071982	-0.142763
C95	C	1.032439	-0.223400	-0.380574
C96	C	1.532439	0.276600	0.119426
C97	C	1.032488	-0.141088	-0.380591
C98	C	1.532488	0.358912	0.119409
C99	C	0.999332	-0.380279	-0.677771
C100	C	1.499332	0.119721	-0.177771
C101	C	1.002299	-0.383504	-0.751394
C102	C	1.502299	0.116496	-0.251394
C103	C	1.048838	-0.434463	-0.790009
C104	C	1.548838	0.065537	-0.290009
C105	C	1.092408	-0.482206	-0.754997
C106	C	1.592408	0.017794	-0.254997
C107	C	1.089437	-0.478985	-0.681374
C108	C	1.589437	0.021015	-0.181374
C109	C	1.062551	-0.449392	-1.010391
C110	C	1.562551	0.050608	-0.510391
C111	C	1.065521	-0.452608	-1.084019
C112	C	1.565521	0.047392	-0.584019
C113	C	0.975410	-0.353906	-1.080411
C114	C	1.475410	0.146094	-0.580411
C115	C	0.972446	-0.350686	-1.006787
C116	C	1.472446	0.149314	-0.506787
C117	C	1.016013	-0.398432	-0.971781
C118	C	1.516013	0.101568	-0.471781
N119	N	1.051873	-0.437758	-0.865265
N120	N	1.551873	0.062242	-0.365265
N121	N	1.012974	-0.395140	-0.896527
N122	N	1.512974	0.104860	-0.396527
C123	C	1.024976	-0.408497	-0.197376
C124	C	1.524976	0.091503	0.302624
C125	C	1.021952	-0.404870	-0.119026
C126	C	1.521952	0.095130	0.380974
H127	H	0.767240	-0.494367	-0.451401
H128	H	1.267240	0.005633	0.048599
H129	H	0.760698	-0.315094	-0.288111
H130	H	1.260698	0.184906	0.211889
C131	C	0.449264	-0.538515	-0.491629
C132	C	0.949264	-0.038515	0.008371
N133	N	0.481254	-0.580796	-0.530134
N134	N	0.981254	-0.080796	-0.030134
H135	H	0.298119	-0.338788	-0.309713
H136	H	0.798119	0.161212	0.190287
C137	C	0.294658	-0.531711	-0.485447
C138	C	0.794658	-0.031711	0.014553
N139	N	0.265652	-0.571299	-0.521518
N140	N	0.765652	-0.071299	-0.021518
C141	C	1.137369	-0.531498	-0.642867
C142	C	1.637369	-0.031498	-0.142867
N143	N	1.173473	-0.571053	-0.613864
N144	N	1.673473	-0.071053	-0.113864
H145	H	0.966818	-0.344633	-0.779894
H146	H	1.466818	0.155367	-0.279894
H147	H	0.994786	-0.855347	-0.488411
H148	H	1.494786	-0.355347	0.011589
C149	C	1.162967	-0.848662	-0.356697
C150	C	1.662967	-0.348662	0.143303
N151	N	1.204839	-0.827137	-0.320907
N152	N	1.704839	-0.327137	0.179093
H153	H	0.924210	-0.850022	-0.417991
H154	H	1.424210	-0.350022	0.082009
C155	C	0.616095	-0.294645	-0.269483
C156	C	1.116095	0.205355	0.230517
N157	N	0.584100	-0.252373	-0.230975
N158	N	1.084100	0.247627	0.269025
H159	H	0.633682	-0.488488	-0.446060
H160	H	1.133682	0.011512	0.053940
C161	C	0.441681	-0.331008	-0.302613
C162	C	0.941681	0.168992	0.197387
N163	N	0.470678	-0.291413	-0.266541
N164	N	0.970678	0.208587	0.233459
H165	H	1.146638	-0.983124	-0.364444
H166	H	1.646638	-0.483124	0.135556
C167	C	1.130845	-0.853854	-0.478880
C168	C	1.630845	-0.353854	0.021120
N169	N	1.148526	-0.836223	-0.535122
N170	N	1.648526	-0.336223	-0.035122
C171	C	1.000078	-0.990861	-0.508339
C172	C	1.500078	-0.490861	-0.008339
N173	N	1.015007	-1.014813	-0.565087
N174	N	1.515007	-0.514813	-0.065087
C175	C	0.905358	-0.984214	-0.413197
C176	C	1.405358	-0.484214	0.086803
N177	N	0.848943	-1.003150	-0.398280
N178	N	1.348943	-0.503150	0.101720
H179	H	0.953741	-0.971563	-0.287447
H180	H	1.453741	-0.471563	0.212553
C181	C	0.948134	-0.324219	-0.635300
C182	C	1.448134	0.175781	-0.135300
N183	N	0.909568	-0.281996	-0.603314
N184	N	1.409568	0.218004	-0.103314
H185	H	1.045077	-0.975164	-0.265200
H186	H	1.545077	-0.475164	0.234800
C187	C	1.058757	-0.841258	-0.251052
C188	C	1.558757	-0.341258	0.248948
N189	N	1.096054	-0.820370	-0.210084
N190	N	1.596054	-0.320370	0.289916
C191	C	0.935480	-0.835920	-0.280351
C192	C	1.435480	-0.335920	0.219649
N193	N	0.879923	-0.811017	-0.261456
N194	N	1.379923	-0.311017	0.238544
C195	C	0.921248	-0.294628	-0.964316
C196	C	1.421248	0.205372	-0.464316
N197	N	0.882685	-0.252403	-0.932326
N198	N	1.382685	0.247597	-0.432326
H199	H	1.128220	-0.987539	-0.456582
H200	H	1.628220	-0.487539	0.043418
H201	H	0.939939	-0.315034	-1.108921
H202	H	1.439939	0.184966	-0.608921
C203	C	1.116717	-0.508672	-1.126494
C204	C	1.616717	-0.008672	-0.626494
N205	N	1.155276	-0.550898	-1.158486
N206	N	1.655276	-0.050898	-0.658486
C207	C	1.110517	-0.501875	-0.971895
C208	C	1.610517	-0.001875	-0.471895
N209	N	1.146661	-0.541393	-0.942899
N210	N	1.646661	-0.041393	-0.442899
H211	H	1.130298	-0.523702	-0.786443
H212	H	1.630298	-0.023702	-0.286443
