data_functionalizedCrystal
_audit_creation_method	'MofGen! by Chris Wilmer'
_symmetry_space_group_name_H-M	'P1'
_symmetry_Int_Tables_number	1
_symmetry_cell_setting	triclinic
loop_
_symmetry_equiv_pos_as_xyz
  x,y,z
_cell_length_a	15.944499
_cell_length_b	23.532357
_cell_length_c	14.421503
_cell_angle_alpha	89.998741
_cell_angle_beta	89.989779
_cell_angle_gamma	83.152950
loop_
_atom_site_label
_atom_site_type_symbol
_atom_site_fract_x
_atom_site_fract_y
_atom_site_fract_z
O1	O	1.113919	0.073304	-0.077179
O2	O	0.869285	0.082390	-0.077170
O3	O	0.999001	-0.005059	-0.077155
O4	O	0.984203	0.160753	-0.077193
O5	O	0.998979	-0.005046	0.077068
O6	O	0.869263	0.082403	0.077054
O7	O	1.113898	0.073317	0.077045
Cu8	Cu	0.991579	0.077861	0.091131
Cu9	Cu	0.991604	0.077846	-0.091256
O10	O	0.984182	0.160766	0.077030
C11	C	0.837982	0.082025	-0.000057
C12	C	0.744744	0.080909	-0.000052
C13	C	0.452766	0.131715	-0.000078
C14	C	0.514036	0.105299	-0.076114
C15	C	0.409143	0.076857	-0.000073
C16	C	0.514000	0.105297	0.075939
C17	C	0.574034	0.078851	-0.000061
C18	C	0.469184	0.050426	-0.076172
C19	C	0.469142	0.050431	0.075949
C20	C	0.530394	0.023975	-0.000106
C21	C	0.314152	0.075710	-0.000080
C22	C	0.669023	0.079994	-0.000060
C23	C	0.998620	-0.026271	-0.000041
C24	C	0.997507	-0.089493	-0.000032
C25	C	0.990533	-0.481538	-0.084149
C26	C	0.989475	-0.540941	-0.084154
O27	O	0.988909	-0.571666	-0.155650
N28	N	0.988938	-0.570647	-0.000088
C29	C	0.989451	-0.540946	0.083989
O30	O	0.988897	-0.571668	0.155493
C31	C	0.990503	-0.481543	0.083993
C32	C	0.991048	-0.451841	-0.000079
C33	C	0.991076	-0.451836	-0.168214
C34	C	0.992136	-0.392436	-0.168208
C35	C	0.992651	-0.362740	-0.084138
C36	C	0.992107	-0.392442	-0.000073
C37	C	0.991010	-0.451843	0.168069
C38	C	0.992062	-0.392436	0.168066
C39	C	0.992606	-0.362734	0.083994
C40	C	0.993682	-0.303346	0.084003
N41	N	0.994219	-0.273640	-0.000063
C42	C	0.993703	-0.303337	-0.084134
C43	C	0.987241	-0.665696	0.083973
C44	C	0.986195	-0.725098	0.083970
C45	C	0.986217	-0.725089	-0.084173
C46	C	0.987269	-0.665686	-0.084169
C47	C	0.987777	-0.635990	-0.000093
C48	C	0.995929	-0.178594	-0.084115
C49	C	0.996992	-0.119190	-0.084102
C50	C	0.996965	-0.119204	0.084040
C51	C	0.995907	-0.178603	0.084028
C52	C	0.995386	-0.208297	-0.000058
O53	O	0.994245	-0.272583	0.155462
O54	O	0.994246	-0.272607	-0.155626
C55	C	1.145200	0.073682	-0.000070
C56	C	1.238439	0.074797	-0.000081
C57	C	0.984563	0.181977	-0.000086
C58	C	0.985675	0.245200	-0.000101
N59	N	0.991567	0.077871	0.219412
N60	N	0.991622	0.077831	-0.219537
C61	C	0.931576	0.118290	0.469059
C62	C	1.007382	0.129337	0.530856
C63	C	0.991587	0.077858	0.408574
C64	C	0.915801	0.066824	0.530871
C65	C	0.991600	0.077846	0.591295
C66	C	1.067431	0.088931	0.469010
C67	C	0.975801	0.026395	0.469019
C68	C	1.051662	0.037421	0.530788
C69	C	0.991579	0.077866	0.303313
C70	C	0.991618	0.077837	0.696554
H71	H	0.997437	-0.095009	-0.152567
H72	H	0.990654	-0.476008	-0.236678
H73	H	0.962412	-0.017106	0.441836
H74	H	0.987658	-0.641521	0.152442
H75	H	1.131542	0.098310	0.441951
H76	H	0.533865	0.128514	0.140218
C77	C	0.992726	-0.359771	-0.260694
N78	N	0.993166	-0.335171	-0.330360
C79	C	1.025431	0.188123	0.567561
N80	N	1.039020	0.232402	0.595207
C81	C	0.442217	0.019121	0.162809
N82	N	0.421932	-0.004457	0.228240
C83	C	0.407197	0.193217	-0.000194
N84	N	0.372873	0.239539	-0.000286
C85	C	0.540934	0.136640	-0.162961
N86	N	0.561194	0.160251	-0.228368
H87	H	0.880877	0.152509	0.441956
C88	C	0.995316	-0.211277	0.176510
N89	N	0.994862	-0.235883	0.246170
H90	H	1.102472	0.003221	0.557721
H91	H	0.851704	0.057497	0.558046
C92	C	0.995370	-0.211250	-0.176614
N93	N	0.994958	-0.235846	-0.246283
H94	H	0.987711	-0.641507	-0.152628
H95	H	0.985765	-0.749278	0.152429
C96	C	0.442481	0.019102	-0.163113
N97	N	0.422365	-0.004488	-0.228598
H98	H	0.563968	-0.021592	-0.000136
C99	C	0.985641	-0.757766	-0.176653
N100	N	0.985206	-0.782380	-0.246304
H101	H	0.990568	-0.476016	0.236529
H102	H	0.992463	-0.368259	0.236532
H103	H	0.997389	-0.095015	0.152488
