data_functionalizedCrystal
_audit_creation_method	'MofGen! by Chris Wilmer'
_symmetry_space_group_name_H-M	'P1'
_symmetry_Int_Tables_number	1
_symmetry_cell_setting	triclinic
loop_
_symmetry_equiv_pos_as_xyz
  x,y,z
_cell_length_a	21.295419
_cell_length_b	21.295417
_cell_length_c	19.805399
_cell_angle_alpha	89.970204
_cell_angle_beta	89.981377
_cell_angle_gamma	90.044503
loop_
_atom_site_label
_atom_site_type_symbol
_atom_site_fract_x
_atom_site_fract_y
_atom_site_fract_z
Zn1	Zn	0.962322	-0.250375	-0.382692
Zn2	Zn	1.295656	0.082958	-0.049359
Zn3	Zn	1.628989	0.416291	0.283974
Zn4	Zn	0.962237	-0.355644	-0.269500
Zn5	Zn	1.295570	-0.022311	0.063834
Zn6	Zn	1.628904	0.311023	0.397167
Zn7	Zn	0.857056	-0.250420	-0.269519
Zn8	Zn	1.190390	0.082914	0.063815
Zn9	Zn	1.523723	0.416247	0.397148
Zn10	Zn	0.857016	-0.355638	-0.382648
Zn11	Zn	1.190350	-0.022304	-0.049315
Zn12	Zn	1.523683	0.311029	0.284018
O13	O	0.909658	-0.303019	-0.326090
O14	O	1.242991	0.030314	0.007244
O15	O	1.576325	0.363648	0.340577
O16	O	1.050400	-0.264323	-0.367687
O17	O	1.383734	0.069010	-0.034354
O18	O	1.717067	0.402343	0.298979
O19	O	0.948266	-0.341707	-0.174785
O20	O	1.281599	-0.008374	0.158548
O21	O	1.614932	0.324960	0.491881
O22	O	0.871073	-0.162324	-0.284558
O23	O	1.204406	0.171009	0.048776
O24	O	1.537739	0.504342	0.382109
O25	O	1.050338	-0.341664	-0.284525
O26	O	1.383671	-0.008330	0.048808
O27	O	1.717004	0.325003	0.382141
O28	O	0.948411	-0.162292	-0.367706
O29	O	1.281744	0.171042	-0.034373
O30	O	1.615078	0.504375	0.298961
O31	O	0.870990	-0.264399	-0.174800
O32	O	1.204323	0.068934	0.158534
O33	O	1.537657	0.402267	0.491867
O34	O	0.768962	-0.264393	-0.284515
O35	O	1.102295	0.068940	0.048818
O36	O	1.435628	0.402274	0.382152
O37	O	0.871004	-0.341653	-0.477371
O38	O	1.204338	-0.008320	-0.144037
O39	O	1.537671	0.325014	0.189296
O40	O	0.768932	-0.341696	-0.367631
O41	O	1.102266	-0.008363	-0.034298
O42	O	1.435599	0.324970	0.299036
O43	O	0.948372	-0.264317	-0.477403
O44	O	1.281706	0.069016	-0.144070
O45	O	1.615039	0.402349	0.189264
O46	O	0.948227	-0.443733	-0.284483
O47	O	1.281560	-0.110399	0.048851
O48	O	1.614894	0.222934	0.382184
O49	O	0.870922	-0.443728	-0.367612
O50	O	1.204255	-0.110395	-0.034279
O51	O	1.537588	0.222939	0.299054
C52	C	0.746106	-0.303049	-0.326071
C53	C	1.079440	0.030284	0.007263
C54	C	1.412773	0.363617	0.340596
C55	C	0.676138	-0.303077	-0.326079
C56	C	1.009472	0.030256	0.007255
C57	C	1.342805	0.363589	0.340588
C58	C	0.643327	-0.262872	-0.369448
C59	C	0.976660	0.070461	-0.036115
C60	C	1.309993	0.403795	0.297219
C61	C	0.577584	-0.262855	-0.369451
C62	C	0.910918	0.070478	-0.036117
C63	C	1.244251	0.403812	0.297216
C64	C	0.544656	-0.303055	-0.326091
C65	C	0.877989	0.030278	0.007242
C66	C	1.211322	0.363612	0.340576
C67	C	0.577475	-0.343263	-0.282713
C68	C	0.910809	-0.009930	0.050620
C69	C	1.244142	0.323404	0.383954
C70	C	0.643217	-0.343274	-0.282707
C71	C	0.976550	-0.009941	0.050626
C72	C	1.309883	0.323392	0.383960
N73	N	0.441382	-0.358133	-0.320802
N74	N	0.774715	-0.024800	0.012531
N75	N	1.108048	0.308534	0.345865
N76	N	0.378930	-0.358120	-0.320812
N77	N	0.712264	-0.024787	0.012521
N78	N	1.045597	0.308546	0.345855
C79	C	0.346581	-0.303022	-0.326106
C80	C	0.679914	0.030311	0.007227
C81	C	1.013248	0.363644	0.340561
N82	N	0.379043	-0.247936	-0.331403
N83	N	0.712376	0.085397	0.001931
N84	N	1.045709	0.418731	0.335264
N85	N	0.441500	-0.247949	-0.331397
N86	N	0.774833	0.085384	0.001937
N87	N	1.108167	0.418717	0.335270
C88	C	0.473370	-0.303047	-0.326092
C89	C	0.806704	0.030287	0.007241
C90	C	1.140037	0.363620	0.340574
C91	C	0.242484	-0.262795	-0.369480
C92	C	0.575817	0.070538	-0.036147
C93	C	0.909151	0.403871	0.297186
C94	C	0.176740	-0.262777	-0.369478
C95	C	0.510074	0.070556	-0.036145
C96	C	0.843407	0.403889	0.297188
C97	C	0.176633	-0.343191	-0.282744
C98	C	0.509966	-0.009857	0.050589
C99	C	0.843299	0.323476	0.383922
C100	C	0.242375	-0.343203	-0.282743
C101	C	0.575708	-0.009870	0.050590
C102	C	0.909042	0.323464	0.383924
C103	C	0.275297	-0.303006	-0.326115
C104	C	0.608630	0.030327	0.007219
C105	C	0.941964	0.363660	0.340552
C106	C	0.909578	-0.466571	-0.326055
C107	C	1.242911	-0.133237	0.007278
C108	C	1.576244	0.200096	0.340611
C109	C	0.909601	-0.536539	-0.326063
C110	C	1.242934	-0.203206	0.007270
C111	C	1.576268	0.130128	0.340603
C112	C	0.949848	-0.569331	-0.369390
C113	C	1.283182	-0.235998	-0.036056
C114	C	1.616515	0.097335	0.297277
C115	C	0.949870	-0.635074	-0.369406
C116	C	1.283204	-0.301740	-0.036073
C117	C	1.616537	0.031593	0.297260
C118	C	0.909652	-0.668021	-0.326085
C119	C	1.242985	-0.334688	0.007249
C120	C	1.576319	-0.001355	0.340582
C121	C	0.869397	-0.635221	-0.282755
C122	C	1.202731	-0.301888	0.050578
C123	C	1.536064	0.031446	0.383911
C124	C	0.869372	-0.569480	-0.282745
C125	C	1.202705	-0.236146	0.050589
C126	C	1.536038	0.097187	0.383922
N127	N	0.904898	-0.771284	-0.266849
N128	N	1.238232	-0.437950	0.066484
N129	N	1.571565	-0.104617	0.399818
N130	N	0.904926	-0.833735	-0.266861
N131	N	1.238260	-0.500402	0.066472
N132	N	1.571593	-0.167069	0.399806
C133	C	0.909726	-0.866096	-0.326115
C134	C	1.243059	-0.532763	0.007218
C135	C	1.576392	-0.199429	0.340551
N136	N	0.914508	-0.833646	-0.385358
N137	N	1.247842	-0.500313	-0.052025
N138	N	1.581175	-0.166980	0.281308
N139	N	0.914484	-0.771189	-0.385345
N140	N	1.247817	-0.437856	-0.052012
N141	N	1.581150	-0.104522	0.281321
C142	C	0.909675	-0.739307	-0.326092
C143	C	1.243008	-0.405973	0.007242
C144	C	1.576342	-0.072640	0.340575
C145	C	0.949999	-0.970174	-0.369463
C146	C	1.283332	-0.636841	-0.036130
C147	C	1.616666	-0.303507	0.297203
C148	C	0.950017	-1.035918	-0.369481
C149	C	1.283350	-0.702584	-0.036148
C150	C	1.616683	-0.369251	0.297186
C151	C	0.869547	-1.036064	-0.282824
C152	C	1.202880	-0.702730	0.050509
C153	C	1.536214	-0.369397	0.383842
C154	C	0.869526	-0.970321	-0.282812
C155	C	1.202859	-0.636988	0.050521
C156	C	1.536192	-0.303654	0.383854
C157	C	0.909755	-0.937380	-0.326131
C158	C	1.243089	-0.604047	0.007202
C159	C	1.576422	-0.270714	0.340536
C160	C	1.073848	-0.302989	-0.326109
C161	C	1.407182	0.030344	0.007224
C162	C	1.740515	0.363677	0.340558
C163	C	1.143816	-0.302977	-0.326117
C164	C	1.477150	0.030357	0.007216
C165	C	1.810483	0.363690	0.340549
C166	C	0.909693	-0.302979	-0.502632
C167	C	1.243027	0.030354	-0.169299
C168	C	1.576360	0.363687	0.164034
C169	C	0.909708	-0.302963	-0.577864
C170	C	1.243042	0.030371	-0.244531
C171	C	1.576375	0.363704	0.088802
C172	C	0.909756	-0.138829	-0.326139
C173	C	1.243089	0.194505	0.007194
C174	C	1.576422	0.527838	0.340528
C175	C	0.909797	-0.068861	-0.326160
C176	C	1.243131	0.264473	0.007173
C177	C	1.576464	0.597806	0.340507
C178	C	0.949995	-0.262692	-0.613227
C179	C	1.283328	0.070642	-0.279893
C180	C	1.616661	0.403975	0.053440
C181	C	0.950001	-0.262674	-0.683915
C182	C	1.283335	0.070660	-0.350582
C183	C	1.616668	0.403993	-0.017248
C184	C	0.909724	-0.302930	-0.719240
C185	C	1.243057	0.030404	-0.385907
C186	C	1.576391	0.363737	-0.052573
C187	C	0.869433	-0.343202	-0.683873
C188	C	1.202767	-0.009869	-0.350540
C189	C	1.536100	0.323464	-0.017206
C190	C	0.869424	-0.343217	-0.613186
C191	C	1.202757	-0.009884	-0.279853
C192	C	1.536091	0.323450	0.053481
C193	C	0.869469	-0.343144	-0.968947
C194	C	1.202802	-0.009810	-0.635613
C195	C	1.536135	0.323523	-0.302280
C196	C	0.869482	-0.343127	-1.039639
C197	C	1.202816	-0.009794	-0.706305
C198	C	1.536149	0.323539	-0.372972
C199	C	0.950046	-0.262600	-1.039676
C200	C	1.283379	0.070733	-0.706342
C201	C	1.616713	0.404066	-0.373009
C202	C	0.950037	-0.262615	-0.968988
C203	C	1.283370	0.070718	-0.635655
C204	C	1.616703	0.404052	-0.302322
C205	C	0.909744	-0.302885	-0.933628
C206	C	1.243077	0.030449	-0.600294
C207	C	1.576411	0.363782	-0.266961
C208	C	0.909737	-0.302903	-0.856979
C209	C	1.243070	0.030430	-0.523646
C210	C	1.576403	0.363763	-0.190312
C211	C	0.909734	-0.302915	-0.795887
C212	C	1.243067	0.030418	-0.462554
C213	C	1.576401	0.363752	-0.129221
C214	C	0.909659	-0.303013	-0.150234
C215	C	1.242992	0.030320	0.183100
C216	C	1.576326	0.363653	0.516433
C217	C	0.909766	-0.302853	-0.075002
C218	C	1.243099	0.030481	0.258331
C219	C	1.576433	0.363814	0.591665
H220	H	0.269091	-0.375945	-0.247429
H221	H	0.602424	-0.042612	0.085904
H222	H	0.935757	0.290721	0.419237
H223	H	0.269290	-0.230060	-0.404792
H224	H	0.602624	0.103273	-0.071459
H225	H	0.935957	0.436606	0.261875
C226	C	0.994362	-0.218294	-1.078579
C227	C	1.327695	0.115039	-0.745246
C228	C	1.661028	0.448372	-0.411912
N229	N	1.027739	-0.184924	-1.107880
N230	N	1.361072	0.148410	-0.774546
N231	N	1.694406	0.481743	-0.441213
C232	C	0.679537	-0.218646	-0.417150
C233	C	1.012870	0.114687	-0.083816
C234	C	1.346203	0.448021	0.249517
N235	N	0.706811	-0.185332	-0.453076
N236	N	1.040145	0.148001	-0.119743
N237	N	1.373478	0.481335	0.213590
C238	C	0.140648	-0.218545	-0.417190
C239	C	0.473981	0.114788	-0.083857
C240	C	0.807314	0.448122	0.249477
N241	N	0.113462	-0.185229	-0.453128
N242	N	0.446796	0.148104	-0.119795
N243	N	0.780129	0.481438	0.213538
C244	C	0.994303	-0.218405	-0.574375
C245	C	1.327636	0.114928	-0.241042
C246	C	1.660970	0.448261	0.092291
N247	N	1.027675	-0.185045	-0.545115
N248	N	1.361009	0.148288	-0.211781
N249	N	1.694342	0.481621	0.121552
C250	C	0.994105	-0.533100	-0.417038
C251	C	1.327439	-0.199767	-0.083704
C252	C	1.660772	0.133566	0.249629
N253	N	1.027442	-0.505810	-0.452925
N254	N	1.360775	-0.172476	-0.119591
N255	N	1.694109	0.160857	0.213742
C256	C	0.994150	-0.671153	-0.417067
C257	C	1.327483	-0.337819	-0.083734
C258	C	1.660816	-0.004486	0.249599
N259	N	1.027502	-0.698326	-0.452965
N260	N	1.360836	-0.364992	-0.119631
N261	N	1.694169	-0.031659	0.213702
C262	C	0.825297	-1.072302	-0.235179
C263	C	1.158631	-0.738969	0.098154
C264	C	1.491964	-0.405635	0.431488
N265	N	0.791964	-1.099600	-0.199295
N266	N	1.125297	-0.766267	0.134038
N267	N	1.458630	-0.432934	0.467371
H268	H	0.982837	-0.229836	-0.940230
H269	H	1.316170	0.103497	-0.606897
H270	H	1.649503	0.436830	-0.273564
C271	C	0.541484	-0.218628	-0.417166
C272	C	0.874818	0.114705	-0.083833
C273	C	1.208151	0.448039	0.249500
N274	N	0.514296	-0.185318	-0.453108
N275	N	0.847629	0.148016	-0.119774
N276	N	1.180962	0.481349	0.213559
C277	C	0.541253	-0.387483	-0.235018
C278	C	0.874586	-0.054150	0.098316
C279	C	1.207919	0.279183	0.431649
N280	N	0.513970	-0.420790	-0.199091
N281	N	0.847303	-0.087457	0.134243
N282	N	1.180637	0.245877	0.467576
H283	H	0.836650	-0.662051	-0.247484
H284	H	1.169983	-0.328718	0.085849
H285	H	1.503317	0.004616	0.419182
C286	C	0.140415	-0.387411	-0.235047
C287	C	0.473749	-0.054077	0.098286
C288	C	0.807082	0.279256	0.431619
N289	N	0.113133	-0.420717	-0.199120
N290	N	0.446466	-0.087384	0.134214
N291	N	0.779800	0.245949	0.467547
C292	C	0.825247	-0.934248	-0.235153
C293	C	1.158580	-0.600915	0.098180
C294	C	1.491913	-0.267581	0.431513
N295	N	0.791889	-0.907078	-0.199259
N296	N	1.125223	-0.573745	0.134075
N297	N	1.458556	-0.240411	0.467408
C298	C	0.994321	-0.218373	-0.722810
C299	C	1.327654	0.114960	-0.389477
C300	C	1.660987	0.448293	-0.056143
N301	N	1.027704	-0.185005	-0.752105
N302	N	1.361037	0.148329	-0.418772
N303	N	1.694370	0.481662	-0.085439
H304	H	0.836597	-0.542780	-0.247463
H305	H	1.169930	-0.209446	0.085871
H306	H	1.503264	0.123887	0.419204
H307	H	0.982791	-1.062616	-0.404765
H308	H	1.316124	-0.729283	-0.071432
H309	H	1.649457	-0.395950	0.261901
C310	C	0.994243	-0.933937	-0.417123
C311	C	1.327576	-0.600603	-0.083790
C312	C	1.660910	-0.267270	0.249544
N313	N	1.027566	-0.906645	-0.453023
N314	N	1.360900	-0.573311	-0.119690
N315	N	1.694233	-0.239978	0.213644
H316	H	0.836681	-0.375910	-1.068398
H317	H	1.170015	-0.042577	-0.735065
H318	H	1.503348	0.290757	-0.401732
H319	H	0.836669	-0.375943	-0.940164
H320	H	1.170002	-0.042610	-0.606831
H321	H	1.503336	0.290724	-0.273498
H322	H	0.836612	-0.376003	-0.584395
H323	H	1.169946	-0.042670	-0.251062
H324	H	1.503279	0.290663	0.082272
C325	C	0.679310	-0.387508	-0.234998
C326	C	1.012644	-0.054175	0.098335
C327	C	1.345977	0.279158	0.431669
N328	N	0.706497	-0.420828	-0.199065
N329	N	1.039831	-0.087494	0.134269
N330	N	1.373164	0.245839	0.467602
C331	C	0.825122	-0.387478	-0.722733
C332	C	1.158455	-0.054145	-0.389400
C333	C	1.491788	0.279188	-0.056067
N334	N	0.791745	-0.420828	-0.752002
N335	N	1.125078	-0.087495	-0.418669
N336	N	1.458412	0.245839	-0.085335
