data_functionalizedCrystal
_audit_creation_method	'MofGen! by Chris Wilmer'
_symmetry_space_group_name_H-M	'P1'
_symmetry_Int_Tables_number	1
_symmetry_cell_setting	triclinic
loop_
_symmetry_equiv_pos_as_xyz
  x,y,z
_cell_length_a	27.435584
_cell_length_b	27.434948
_cell_length_c	27.431174
_cell_angle_alpha	60.005483
_cell_angle_beta	60.011353
_cell_angle_gamma	59.993028
loop_
_atom_site_label
_atom_site_type_symbol
_atom_site_fract_x
_atom_site_fract_y
_atom_site_fract_z
O1	O	0.067437	-0.712144	0.595551
O2	O	0.567437	-0.212144	1.095551
O3	O	0.025356	-0.554453	0.479848
O4	O	0.525356	-0.054453	0.979848
O5	O	0.125206	-0.654236	0.479781
O6	O	0.625206	-0.154236	0.979781
O7	O	-0.032412	-0.612361	0.595618
O8	O	0.467588	-0.112361	1.095618
O9	O	0.158328	-0.621117	0.512835
O10	O	0.658328	-0.121117	1.012835
O11	O	0.058479	-0.521333	0.512902
O12	O	0.558479	-0.021333	1.012902
O13	O	0.100560	-0.679025	0.628605
O14	O	0.600560	-0.179025	1.128605
Zn15	Zn	0.084778	-0.594921	0.576001
Zn16	Zn	0.584778	-0.094921	1.076001
Zn17	Zn	0.041138	-0.638557	0.532452
Zn18	Zn	0.541138	-0.138557	1.032452
O19	O	0.000710	-0.579241	0.628672
O20	O	0.500710	-0.079241	1.128672
N21	N	0.114563	-0.565144	0.605726
N22	N	0.614563	-0.065144	1.105726
N23	N	0.011358	-0.668338	0.502727
N24	N	0.511358	-0.168338	1.002727
C25	C	0.156385	-0.523520	0.904506
C26	C	0.656385	-0.023520	1.404506
C27	C	0.413419	-0.523497	0.647322
C28	C	0.913419	-0.023497	1.147322
C29	C	0.156253	-0.523488	0.647384
C30	C	0.656253	-0.023488	1.147384
C31	C	0.156238	-0.266354	0.647407
C32	C	0.656238	0.233646	1.147407
C33	C	0.197637	-0.390463	0.688753
C34	C	0.697637	0.109537	1.188753
C35	C	0.197646	-0.482126	0.688741
C36	C	0.697646	0.017874	1.188741
C37	C	0.220575	-0.459215	0.711654
C38	C	0.720575	0.040785	1.211654
C39	C	0.320555	-0.441991	0.659023
C40	C	0.820555	0.058009	1.159023
C41	C	0.383051	-0.462825	0.638179
C42	C	0.883051	0.037175	1.138179
C43	C	0.383069	-0.563942	0.676737
C44	C	0.883069	-0.063942	1.176737
C45	C	0.320575	-0.543107	0.697583
C46	C	0.820575	-0.043107	1.197583
C47	C	0.212704	-0.359206	0.627313
C48	C	0.712704	0.140794	1.127313
C49	C	0.191849	-0.296705	0.606496
C50	C	0.691849	0.203295	1.106496
C51	C	0.140866	-0.296722	0.708562
C52	C	0.640866	0.203278	1.208562
C53	C	0.161721	-0.359223	0.729379
C54	C	0.661721	0.140777	1.229379
C55	C	0.136200	-0.467030	0.703858
C56	C	0.636200	0.032970	1.203858
C57	C	0.115361	-0.487857	0.683021
C58	C	0.615361	0.012143	1.183021
C59	C	0.217408	-0.538877	0.631968
C60	C	0.717408	-0.038877	1.131968
C61	C	0.238249	-0.518050	0.652796
C62	C	0.738249	-0.018050	1.152796
C63	C	0.136259	-0.467047	0.811668
C64	C	0.636259	0.032953	1.311668
C65	C	0.115461	-0.487892	0.874167
C66	C	0.615461	0.012108	1.374167
C67	C	0.217537	-0.538923	0.874131
C68	C	0.717537	-0.038923	1.374131
C69	C	0.238333	-0.518080	0.811631
C70	C	0.738333	-0.018080	1.311631
C71	C	0.197693	-0.482140	0.780401
C72	C	0.697693	0.017860	1.280401
C73	C	0.289320	-0.482131	0.688723
C74	C	0.789320	0.017869	1.188723
C75	C	0.132699	-0.546027	0.973247
C76	C	0.632699	-0.046027	1.473247
C77	C	0.482158	-0.545613	0.624075
C78	C	0.982158	-0.045613	1.124075
C79	C	0.132521	-0.546006	0.624886
C80	C	0.632521	-0.046006	1.124886
C81	C	0.132917	-0.197607	0.625310
C82	C	0.632917	0.302393	1.125310
C83	C	-0.098217	-0.686189	0.484419
C84	C	0.401783	-0.186189	0.984419
C85	C	-0.006438	-0.686322	0.392891
C86	C	0.493562	-0.186322	0.892891
C87	C	-0.006621	-0.777944	0.484592
C88	C	0.493379	-0.277944	0.984592
C89	C	-0.006606	-0.686315	0.484649
C90	C	0.493394	-0.186315	0.984649
C91	C	-0.029470	-0.709193	0.461638
C92	C	0.470530	-0.209193	0.961638
N93	N	0.538410	-0.565162	0.605628
N94	N	1.038410	-0.065162	1.105628
O95	O	0.742647	-0.575135	0.458625
O96	O	1.242647	-0.075135	0.958625
O97	O	0.742821	-0.691181	0.616169
O98	O	1.242821	-0.191181	1.116169
O99	O	0.742757	-0.690917	0.516248
O100	O	1.242757	-0.190917	1.016248
O101	O	0.742711	-0.575399	0.558546
O102	O	1.242711	-0.075399	1.058546
O103	O	0.643472	-0.657878	0.549405
O104	O	1.143472	-0.157878	1.049405
O105	O	0.643536	-0.658142	0.649326
O106	O	1.143536	-0.158142	1.149326
O107	O	0.643362	-0.542096	0.491782
O108	O	1.143362	-0.042096	0.991782
Zn109	Zn	0.627685	-0.594873	0.575818
Zn110	Zn	1.127685	-0.094873	1.075818
Zn111	Zn	0.758498	-0.638404	0.532133
Zn112	Zn	1.258498	-0.138404	1.032133
O113	O	0.643426	-0.542360	0.591702
O114	O	1.143426	-0.042360	1.091702
N115	N	0.847774	-0.668115	0.502317
N116	N	1.347774	-0.168115	1.002317
N117	N	0.114542	-0.141354	0.605766
N118	N	0.614542	0.358646	1.105766
O119	O	-0.032397	0.062987	0.595660
O120	O	0.467603	0.562987	1.095660
O121	O	0.125155	0.062987	0.479633
O122	O	0.625155	0.562987	0.979633
O123	O	0.025219	0.062974	0.479910
O124	O	0.525219	0.562974	0.979910
O125	O	0.067539	0.063001	0.595383
O126	O	0.567539	0.563001	1.095383
O127	O	0.058343	-0.036320	0.513009
O128	O	0.558343	0.463680	1.013009
O129	O	0.158279	-0.036306	0.512732
O130	O	0.658279	0.463694	1.012732
O131	O	0.000728	-0.036306	0.628759
O132	O	0.500728	0.463694	1.128759
Zn133	Zn	0.084763	-0.052071	0.576000
Zn134	Zn	0.584763	0.447929	1.076000
Zn135	Zn	0.041120	0.078752	0.532392
Zn136	Zn	0.541120	0.578752	1.032392
O137	O	0.100664	-0.036292	0.628482
O138	O	0.600664	0.463708	1.128482
N139	N	0.011333	0.168036	0.502628
N140	N	0.511333	0.668036	1.002628
N141	N	0.114782	-0.565197	1.029501
N142	N	0.614782	-0.065197	1.529501
O143	O	0.104681	-0.712124	1.233827
O144	O	0.604681	-0.212124	1.733827
O145	O	-0.011334	-0.554523	1.233839
O146	O	0.488666	-0.054523	1.733839
O147	O	-0.011066	-0.654443	1.233797
O148	O	0.488934	-0.154443	1.733797
O149	O	0.104414	-0.612204	1.233869
O150	O	0.604414	-0.112204	1.733869
O151	O	0.022028	-0.621336	1.134509
O152	O	0.522028	-0.121336	1.634509
O153	O	0.021760	-0.521417	1.134551
O154	O	0.521760	-0.021417	1.634551
O155	O	0.137775	-0.679018	1.134539
O156	O	0.637775	-0.179018	1.634539
Zn157	Zn	0.085022	-0.594961	1.118780
Zn158	Zn	0.585022	-0.094961	1.618780
Zn159	Zn	0.041420	-0.638580	1.249597
Zn160	Zn	0.541420	-0.138580	1.749597
O161	O	0.137508	-0.579098	1.134580
O162	O	0.637508	-0.079098	1.634580
N163	N	0.011658	-0.668350	1.338876
N164	N	0.511658	-0.168350	1.838876
C165	C	0.037974	-0.518023	0.480435
C166	C	0.537974	-0.018023	0.980435
C167	C	0.161625	-0.641592	0.480351
C168	C	0.661625	-0.141592	0.980351
C169	C	0.087941	-0.715455	0.628017
C170	C	0.587941	-0.215455	1.128017
C171	C	-0.035710	-0.591885	0.628101
C172	C	0.464290	-0.091885	1.128101
C173	C	0.693199	-0.690642	0.652596
C174	C	1.193199	-0.190642	1.152596
C175	C	0.693122	-0.690315	0.528855
C176	C	1.193122	-0.190315	1.028855
C177	C	0.692981	-0.542634	0.455356
C178	C	1.192981	-0.042634	0.955356
C179	C	0.693062	-0.542961	0.579095
C180	C	1.193062	-0.042961	1.079095
C181	C	0.161524	0.013463	0.480164
C182	C	0.661524	0.513463	0.980164
C183	C	0.037807	0.013324	0.480547
C184	C	0.537807	0.513324	0.980547
C185	C	-0.035683	0.013341	0.628188
C186	C	0.464317	0.513341	1.128188
C187	C	0.088076	0.013357	0.627845
C188	C	0.588076	0.513357	1.127845
C189	C	-0.010764	-0.518114	1.184196
C190	C	0.489236	-0.018114	1.684196
C191	C	-0.010426	-0.641846	1.184125
C192	C	0.489574	-0.141846	1.684125
C193	C	0.137205	-0.715426	1.184182
C194	C	0.637205	-0.215426	1.684182
C195	C	0.136875	-0.591687	1.184231
C196	C	0.636875	-0.091687	1.684231
H197	H	0.065433	-0.475593	0.899616
H198	H	0.565433	0.024407	1.399616
O199	O	0.027364	-0.464010	0.437023
O200	O	0.527364	0.035990	0.937023
C201	C	0.078656	-0.463880	0.385542
C202	C	0.578656	0.036120	0.885542
H203	H	0.119666	-0.499190	0.398647
H204	H	0.619666	0.000810	0.898647
H205	H	0.083935	-0.418070	0.363254
H206	H	0.583935	0.081930	0.863254
H207	H	0.073842	-0.474273	0.353099
H208	H	0.573842	0.025727	0.853099
H209	H	0.096930	-0.760753	0.664356
H210	H	0.596930	-0.260753	1.164356
H211	H	0.028745	0.013321	0.444270
H212	H	0.528745	0.513321	0.944270
H213	H	0.206895	-0.650521	0.443974
H214	H	0.706895	-0.150521	0.943974
O215	O	-0.089707	0.013379	0.671569
O216	O	0.410293	0.513379	1.171569
C217	C	-0.126867	0.013360	0.650090
C218	C	0.373133	0.513360	1.150090
H219	H	-0.110708	0.032142	0.599237
H220	H	0.389292	0.532142	1.099237
H221	H	-0.174685	0.042198	0.668384
H222	H	0.325315	0.542198	1.168384
H223	H	-0.125256	-0.034276	0.665279
H224	H	0.374744	0.465724	1.165279
H225	H	0.241946	-0.384640	0.594232
H226	H	0.741946	0.115360	1.094232
O227	O	0.693152	-0.734093	0.706597
O228	O	1.193152	-0.234093	1.206597
C229	C	0.641766	-0.750165	0.733029
C230	C	1.141766	-0.250165	1.233029
H231	H	0.605790	-0.711831	0.713309
H232	H	1.105790	-0.211831	1.213309
H233	H	0.624543	-0.760045	0.783268
H234	H	1.124543	-0.260045	1.283268
H235	H	0.653413	-0.791612	0.723884
H236	H	1.153413	-0.291612	1.223884
H237	H	-0.047187	-0.472851	1.184199
H238	H	0.452813	0.027149	1.684199
O239	O	-0.089740	-0.581133	0.671444
O240	O	0.410260	-0.081133	1.171444
C241	C	-0.126839	-0.522474	0.649852
C242	C	0.373161	-0.022474	1.149852
H243	H	-0.098087	-0.494128	0.611514
H244	H	0.401913	0.005872	1.111514
H245	H	-0.155440	-0.502481	0.687315
H246	H	0.344560	-0.002481	1.187315
H247	H	-0.156987	-0.523379	0.633269
H248	H	0.343013	-0.023379	1.133269
O249	O	0.180102	-0.580804	1.184221
O250	O	0.680102	-0.080804	1.684221
C251	C	0.158354	-0.522122	1.184249
C252	C	0.658354	-0.022122	1.684249
H253	H	0.120031	-0.493866	1.165446
H254	H	0.620031	0.006134	1.665446
H255	H	0.195741	-0.502044	1.155435
H256	H	0.695741	-0.002044	1.655435
H257	H	0.141704	-0.523001	1.231888
H258	H	0.641704	-0.023001	1.731888
H259	H	0.693140	-0.726605	0.519802
H260	H	1.193140	-0.226605	1.019802
H261	H	0.692924	-0.506199	0.410112
H262	H	1.192924	-0.006199	0.910112
H263	H	0.103160	-0.437777	0.786243
H264	H	0.603160	0.062223	1.286243
H265	H	0.693053	-0.506675	0.588146
H266	H	1.193053	-0.006675	1.088146
H267	H	0.295144	-0.575796	0.721768
H268	H	0.795144	-0.075796	1.221768
H269	H	0.206679	0.013739	0.443646
H270	H	0.706679	0.513739	0.943646
O271	O	0.098990	0.013328	0.671072
O272	O	0.598990	0.513328	1.171072
C273	C	0.157669	0.013343	0.649320
C274	C	0.657669	0.513343	1.149320
H275	H	0.185901	-0.005450	0.610993
H276	H	0.685901	0.494550	1.110993
H277	H	0.177773	-0.015489	0.686705
H278	H	0.677773	0.484511	1.186705
H279	H	0.156785	0.060978	0.632672
H280	H	0.656785	0.560978	1.132672
H281	H	0.173631	-0.760687	1.184171
H282	H	0.673631	-0.260687	1.684171
O283	O	0.257097	-0.573840	0.904371
O284	O	0.757097	-0.073840	1.404371
C285	C	0.315779	-0.582672	0.863369
C286	C	0.815779	-0.082672	1.363369
H287	H	0.315643	-0.575686	0.818824
H288	H	0.815643	-0.075686	1.318824
H289	H	0.345473	-0.630072	0.881410
H290	H	0.845473	-0.130072	1.381410
H291	H	0.333675	-0.549402	0.856719
H292	H	0.833675	-0.049402	1.356719
O293	O	0.298001	-0.532638	0.781194
O294	O	0.798001	-0.032638	1.281194
C295	C	0.313087	-0.480125	0.745057
C296	C	0.813087	0.019875	1.245057
H297	H	0.271890	-0.440852	0.735710
H298	H	0.771890	0.059148	1.235710
H299	H	0.349314	-0.485712	0.701101
H300	H	0.849314	0.014288	1.201101
H301	H	0.330256	-0.471349	0.769138
H302	H	0.830256	0.028651	1.269138
O303	O	-0.053616	-0.652692	1.184022
O304	O	0.446384	-0.152692	1.684022
C305	C	-0.031872	-0.711378	1.184006
C306	C	0.468128	-0.211378	1.684006
H307	H	0.018979	-0.727108	1.165252
H308	H	0.518979	-0.227108	1.665252
H309	H	-0.050014	-0.712215	1.155128
H310	H	0.449986	-0.212215	1.655128
H311	H	-0.046997	-0.742267	1.231625
H312	H	0.453003	-0.242267	1.731625
H313	H	0.065328	-0.475552	0.695316
H314	H	0.565328	0.024448	1.195316
O315	O	0.096677	-0.432116	0.738743
O316	O	0.596677	0.067884	1.238743
C317	C	0.037975	-0.423269	0.747623
C318	C	0.537975	0.076731	1.247623
H319	H	0.038069	-0.430242	0.709943
H320	H	0.538069	0.069758	1.209943
H321	H	0.008298	-0.375869	0.747964
H322	H	0.508298	0.124131	1.247964
H323	H	0.020092	-0.456539	0.792142
H324	H	0.520092	0.043461	1.292142
H325	H	0.288283	-0.530335	0.640482
H326	H	0.788283	-0.030335	1.140482
O327	O	0.256933	-0.573749	0.597040
O328	O	0.756933	-0.073749	1.097040
C329	C	0.315633	-0.582619	0.588187
C330	C	0.815633	-0.082619	1.088187
H331	H	0.315520	-0.544942	0.595175
H332	H	0.815520	-0.044942	1.095175
H333	H	0.345287	-0.582940	0.540782
H334	H	0.845287	-0.082940	1.040782
H335	H	0.333559	-0.627145	0.621441
H336	H	0.833559	-0.127145	1.121441
H337	H	0.408481	-0.430137	0.613993
H338	H	0.908481	0.069863	1.113993
O339	O	0.413371	-0.623177	0.685301
O340	O	0.913371	-0.123177	1.185301
C341	C	0.398097	-0.642257	0.657224
C342	C	0.898097	-0.142257	1.157224
H343	H	0.352709	-0.610562	0.651917
H344	H	0.852709	-0.110562	1.151917
H345	H	0.395978	-0.689278	0.685664
H346	H	0.895978	-0.189278	1.185664
H347	H	0.433252	-0.642359	0.611388
H348	H	0.933252	-0.142359	1.111388
O349	O	0.290261	-0.382736	0.650313
O350	O	0.790261	0.117264	1.150313
C351	C	0.305494	-0.350491	0.588605
C352	C	0.805494	0.149509	1.088605
H353	H	0.350865	-0.377801	0.563989
H354	H	0.850865	0.122199	1.063989
H355	H	0.307630	-0.306433	0.580348
H356	H	0.807630	0.193567	1.080348
H357	H	0.270306	-0.341164	0.571581
H358	H	0.770306	0.158836	1.071581
O359	O	0.206380	-0.266311	0.546816
O360	O	0.706380	0.233689	1.046816
C361	C	0.153852	-0.230145	0.531733
C362	C	0.653852	0.269855	1.031733
H363	H	0.116322	-0.248986	0.566971
H364	H	0.616322	0.251014	1.066971
H365	H	0.162066	-0.229424	0.486362
H366	H	0.662066	0.270576	0.986362
H367	H	0.140693	-0.182780	0.529667
H368	H	0.640693	0.317220	1.029667
O369	O	0.105967	-0.266465	0.748105
O370	O	0.605967	0.233535	1.248105
C371	C	0.097164	-0.307455	0.806800
C372	C	0.597164	0.192545	1.306800
H373	H	0.104151	-0.352008	0.806688
H374	H	0.604151	0.147992	1.306688
H375	H	0.049775	-0.289404	0.836487
H376	H	0.549775	0.210596	1.336487
H377	H	0.130446	-0.314100	0.824686
H378	H	0.630446	0.185900	1.324686
H379	H	0.149444	-0.384673	0.779411
H380	H	0.649444	0.115327	1.279411
