data_functionalizedCrystal
_audit_creation_method	'MofGen! by Chris Wilmer'
_symmetry_space_group_name_H-M	'P1'
_symmetry_Int_Tables_number	1
_symmetry_cell_setting	triclinic
loop_
_symmetry_equiv_pos_as_xyz
  x,y,z
_cell_length_a	15.944551
_cell_length_b	10.654541
_cell_length_c	9.730217
_cell_angle_alpha	90.000068
_cell_angle_beta	89.995798
_cell_angle_gamma	96.008667
loop_
_atom_site_label
_atom_site_type_symbol
_atom_site_fract_x
_atom_site_fract_y
_atom_site_fract_z
O1	O	0.117965	-1.666312	-0.114251
O2	O	0.129208	-1.300688	-0.114263
O3	O	0.001369	-1.493484	-0.114245
O4	O	0.245804	-1.473516	-0.114270
O5	O	0.001368	-1.493478	0.114335
O6	O	0.129206	-1.300682	0.114317
O7	O	0.117964	-1.666306	0.114329
Zn8	Zn	0.123585	-1.483493	0.150615
Zn9	Zn	0.123587	-1.483501	-0.150549
O10	O	0.245802	-1.473510	0.114310
C11	C	0.128382	-1.253897	0.000025
C12	C	0.125914	-1.114486	0.000021
C13	C	-0.029930	-1.492652	0.000046
C14	C	-0.123190	-1.490167	0.000046
C15	C	0.118790	-1.713097	0.000037
C16	C	0.121258	-1.852508	0.000033
C17	C	-0.338772	-1.364722	0.000023
C18	C	-0.399453	-1.422972	0.112729
C19	C	-0.293942	-1.485671	0.000036
C20	C	-0.399436	-1.423006	-0.112633
C21	C	-0.458880	-1.481319	0.000019
C22	C	-0.353395	-1.543954	0.112834
C23	C	-0.353371	-1.543971	-0.112629
C24	C	-0.414034	-1.602309	0.000104
C25	C	-0.198925	-1.488175	0.000046
C26	C	-0.553896	-1.478825	0.000019
C27	C	0.277102	-1.474342	0.000017
C28	C	0.370362	-1.476827	0.000007
N29	N	0.123584	-1.483497	0.356151
C30	C	0.278779	-1.084537	-0.000012
C31	C	0.354048	-1.004069	-0.000034
C32	C	0.351724	-0.873081	-0.000035
C33	C	0.274122	-0.822560	-0.000010
C34	C	0.198852	-0.903028	0.000012
C35	C	0.201185	-1.034017	0.000009
C36	C	0.045989	-0.932976	0.000055
C37	C	0.048311	-1.063965	0.000046
C38	C	-0.031613	-0.882455	0.000080
C39	C	-0.106885	-0.962924	0.000092
C40	C	-0.104557	-1.093919	0.000091
C41	C	-0.026958	-1.144433	0.000068
N42	N	0.123582	-1.483507	-0.356086
C43	C	0.010416	-1.654288	0.356159
C44	C	-0.046165	-1.739691	0.428102
C45	C	-0.046166	-1.739704	0.571982
C46	C	0.010420	-1.654302	0.643921
C47	C	0.067001	-1.568898	0.571978
C48	C	0.066997	-1.568897	0.428095
C49	C	0.180163	-1.398103	0.571971
C50	C	0.180169	-1.398094	0.428091
C51	C	0.236748	-1.312700	0.643910
C52	C	0.293335	-1.227301	0.571967
C53	C	0.293334	-1.227292	0.428078
C54	C	0.236750	-1.312691	0.356147
H55	H	-0.306045	-1.264329	0.000132
H56	H	0.413015	-0.807563	-0.000043
H57	H	0.236747	-1.312696	0.238993
H58	H	-0.446611	-1.702790	0.000171
H59	H	-0.419858	-1.371813	0.208009
H60	H	-0.333109	-1.595065	0.208223
H61	H	0.280679	-1.191193	-0.000042
H62	H	-0.332944	-1.595086	-0.207914
H63	H	-0.419808	-1.371836	-0.207924
H64	H	0.417231	-1.045218	-0.000051
H65	H	0.272236	-0.715901	0.000005
H66	H	-0.033501	-0.775797	0.000086
H67	H	-0.170062	-0.921778	0.000111
H68	H	-0.165851	-1.159430	0.000114
H69	H	-0.025055	-1.251088	0.000051
H70	H	0.010418	-1.654296	0.239004
H71	H	-0.092242	-1.809243	0.630559
H72	H	0.236742	-1.312709	0.761065
H73	H	-0.092238	-1.809224	0.369517
H74	H	0.339399	-1.157766	0.630549
H75	H	0.010409	-1.654307	0.761076
H76	H	0.339406	-1.157742	0.369509
