data_functionalizedCrystal
_audit_creation_method	'MofGen! by Chris Wilmer'
_symmetry_space_group_name_H-M	'P1'
_symmetry_Int_Tables_number	1
_symmetry_cell_setting	triclinic
loop_
_symmetry_equiv_pos_as_xyz
  x,y,z
_cell_length_a	8.559649
_cell_length_b	9.798715
_cell_length_c	8.634740
_cell_angle_alpha	89.998824
_cell_angle_beta	94.825514
_cell_angle_gamma	90.003078
loop_
_atom_site_label
_atom_site_type_symbol
_atom_site_fract_x
_atom_site_fract_y
_atom_site_fract_z
O1	O	2.112216	0.113469	0.051378
O2	O	1.659053	0.113475	-0.026832
O3	O	1.864183	0.113469	0.234209
O4	O	1.907086	0.113475	-0.209663
O5	O	1.864166	-0.113513	0.234208
O6	O	1.659036	-0.113507	-0.026833
O7	O	2.112199	-0.113513	0.051378
Zn8	Zn	1.885615	-0.149548	0.012273
Zn9	Zn	1.885637	0.149510	0.012273
O10	O	1.907069	-0.113507	-0.209663
C11	C	1.600427	-0.000015	-0.032760
C12	C	1.425763	-0.000013	-0.050402
N13	N	1.885611	-0.353648	0.012275
C14	C	1.971957	-0.578582	0.122120
C15	C	1.971936	-0.421419	0.122116
C16	C	2.170825	-0.000019	0.057305
C17	C	2.345489	-0.000013	0.074948
C18	C	1.854456	-0.000020	0.290508
C19	C	1.825478	-0.000013	0.458259
N20	N	1.885652	0.353610	0.012285
C21	C	1.916796	-0.000015	-0.265962
C22	C	1.945774	-0.000013	-0.433714
H23	H	1.410386	-0.000008	0.195763
Cl24	Cl	1.771551	-0.556392	-0.132917
H25	H	1.700309	-0.000003	0.494113
Cl26	Cl	2.139019	-0.000008	0.510946
H27	H	1.811711	-0.411951	-0.081760
Cl28	Cl	1.325566	0.000003	-0.236947
Cl29	Cl	2.086078	-0.668577	0.267309
H30	H	2.045819	-0.363108	0.216155
