data_functionalizedCrystal
_audit_creation_method	'MofGen! by Chris Wilmer'
_symmetry_space_group_name_H-M	'P1'
_symmetry_Int_Tables_number	1
_symmetry_cell_setting	triclinic
loop_
_symmetry_equiv_pos_as_xyz
  x,y,z
_cell_length_a	19.188930
_cell_length_b	9.065218
_cell_length_c	18.266242
_cell_angle_alpha	90.005697
_cell_angle_beta	89.990385
_cell_angle_gamma	95.919667
loop_
_atom_site_label
_atom_site_type_symbol
_atom_site_fract_x
_atom_site_fract_y
_atom_site_fract_z
O1	O	0.102370	-1.956852	-0.060893
O2	O	0.602370	-1.456852	0.439107
O3	O	0.110767	-1.527276	-0.060894
O4	O	0.610767	-1.027276	0.439106
O5	O	0.005009	-1.754461	-0.060879
O6	O	0.505009	-1.254461	0.439121
O7	O	0.208128	-1.729668	-0.060908
O8	O	0.708128	-1.229668	0.439092
O9	O	0.005007	-1.754437	0.060883
O10	O	0.505007	-1.254437	0.560883
O11	O	0.110764	-1.527252	0.060868
O12	O	0.610764	-1.027252	0.560868
O13	O	0.102367	-1.956828	0.060869
O14	O	0.602367	-1.456828	0.560869
Zn15	Zn	0.106565	-1.742036	0.080201
Zn16	Zn	0.606565	-1.242036	0.580201
Zn17	Zn	0.106569	-1.742068	-0.080226
Zn18	Zn	0.606569	-1.242068	0.419774
O19	O	0.208125	-1.729643	0.060854
O20	O	0.708125	-1.229643	0.560854
C21	C	0.109959	-1.472305	-0.000013
C22	C	0.609959	-0.972305	0.499987
C23	C	0.107546	-1.308546	-0.000013
C24	C	0.607546	-0.808546	0.499987
C25	C	-0.021009	-1.753646	0.000004
C26	C	0.478991	-1.253646	0.500004
C27	C	-0.098533	-1.751236	0.000010
C28	C	0.401467	-1.251236	0.500010
C29	C	0.103176	-2.011799	-0.000013
C30	C	0.603176	-1.511799	0.499987
C31	C	0.105589	-2.175558	-0.000018
C32	C	0.605589	-1.675558	0.499982
C33	C	-0.142421	-1.884540	0.000014
C34	C	0.357579	-1.384540	0.500014
C35	C	-0.215262	-1.882276	0.000003
C36	C	0.284738	-1.382276	0.500003
C37	C	-0.244212	-1.746699	0.000002
C38	C	0.255788	-1.246699	0.500002
C39	C	-0.200314	-1.613377	-0.000007
C40	C	0.299686	-1.113377	0.499993
C41	C	-0.127474	-1.615646	-0.000002
C42	C	0.372526	-1.115646	0.499998
N43	N	-0.353023	-1.643059	0.041439
N44	N	0.146977	-1.143059	0.541439
N45	N	-0.422218	-1.640914	0.041436
N46	N	0.077782	-1.140914	0.541436
C47	C	-0.463674	-1.739858	-0.000013
C48	C	0.036326	-1.239858	0.499987
N49	N	-0.433321	-1.841051	-0.041451
N50	N	0.066679	-1.341051	0.458549
N51	N	-0.364120	-1.843201	-0.041445
N52	N	0.135880	-1.343201	0.458555
C53	C	-0.323194	-1.744225	-0.000004
C54	C	0.176806	-1.244225	0.499996
C55	C	-0.586546	-1.870716	-0.000023
C56	C	-0.086546	-1.370716	0.499977
C57	C	-0.659388	-1.868446	-0.000039
C58	C	-0.159388	-1.368446	0.499961
C59	C	-0.644438	-1.599544	-0.000041
C60	C	-0.144438	-1.099544	0.499959
C61	C	-0.571598	-1.601818	-0.000032
C62	C	-0.071598	-1.101818	0.499968
C63	C	-0.542656	-1.737408	-0.000020
C64	C	-0.042656	-1.237408	0.499980
C65	C	0.234144	-1.730458	-0.000031
C66	C	0.734144	-1.230458	0.499969
C67	C	0.311667	-1.732869	-0.000042
C68	C	0.811667	-1.232869	0.499958
N69	N	0.106563	-1.742025	0.189688
N70	N	0.606563	-1.242025	0.689688
N71	N	0.106566	-1.742091	-0.189713
N72	N	0.606566	-1.242091	0.310287
C73	C	0.059750	-1.842691	0.771972
C74	C	0.559750	-1.342691	1.271972
C75	C	0.059751	-1.842693	0.695327
C76	C	0.559751	-1.342693	1.195327
C77	C	0.106563	-1.742070	0.657000
C78	C	0.606563	-1.242070	1.157000
C79	C	0.153388	-1.641462	0.695325
C80	C	0.653388	-1.141462	1.195325
C81	C	0.153390	-1.641473	0.771969
C82	C	0.653390	-1.141473	1.271969
N83	N	0.114596	-1.611467	0.536673
N84	N	0.614596	-1.111467	1.036673
N85	N	0.114590	-1.611461	0.463864
N86	N	0.614590	-1.111461	0.963864
C87	C	0.106561	-1.742033	0.426078
C88	C	0.606561	-1.242033	0.926078
N89	N	0.098524	-1.872616	0.463850
N90	N	0.598524	-1.372616	0.963850
N91	N	0.098526	-1.872620	0.536665
N92	N	0.598526	-1.372620	1.036665
C93	C	0.106566	-1.742047	0.573893
C94	C	0.606566	-1.242047	1.073893
C95	C	0.059744	-1.842643	0.304655
C96	C	0.559744	-1.342643	0.804655
C97	C	0.059750	-1.842647	0.228009
C98	C	0.559750	-1.342647	0.728009
C99	C	0.153383	-1.641404	0.228009
C100	C	0.653383	-1.141404	0.728009
C101	C	0.153380	-1.641413	0.304654
C102	C	0.653380	-1.141413	0.804654
C103	C	0.106557	-1.742031	0.342972
C104	C	0.606557	-1.242031	0.842972
H105	H	-0.118862	-1.994948	0.000022
H106	H	0.381138	-1.494948	0.500022
C107	C	-0.523318	-1.455170	-0.000033
C108	C	-0.023318	-0.955170	0.499967
N109	N	-0.486954	-1.344708	-0.000036
N110	N	0.013046	-0.844708	0.499964
C111	C	-0.707666	-2.015100	-0.000031
C112	C	-0.207666	-1.515100	0.499969
N113	N	-0.744030	-2.125563	-0.000021
N114	N	-0.244030	-1.625563	0.499979
C115	C	0.008233	-1.953354	0.814118
C116	C	0.508233	-1.453354	1.314118
N117	N	-0.030574	-2.036699	0.845864
N118	N	0.469426	-1.536699	1.345864
H119	H	-0.668009	-1.489155	-0.000046
H120	H	-0.168009	-0.989155	0.499954
C121	C	-0.232160	-1.464243	-0.000003
C122	C	0.267840	-0.964243	0.499997
N123	N	-0.256147	-1.351910	0.000000
N124	N	0.243853	-0.851910	0.500000
H125	H	0.191514	-1.559551	0.803166
H126	H	0.691514	-1.059551	1.303166
H127	H	0.021629	-1.924575	0.196812
H128	H	0.521629	-1.424575	0.696812
H129	H	0.021627	-1.924616	0.664125
H130	H	0.521627	-1.424616	1.164125
H131	H	0.191501	-1.559480	0.196804
H132	H	0.691501	-1.059480	0.696804
C133	C	0.204876	-1.530728	0.346802
C134	C	0.704876	-1.030728	0.846802
N135	N	0.243664	-1.447356	0.378548
N136	N	0.743664	-0.947356	0.878548
C137	C	0.204880	-1.530774	0.653164
C138	C	0.704880	-1.030774	1.153164
N139	N	0.243666	-1.447403	0.621409
N140	N	0.743666	-0.947403	1.121409
H141	H	0.021619	-1.924577	0.335856
H142	H	0.521619	-1.424577	0.835856
H143	H	-0.251003	-1.990832	0.000003
H144	H	0.248997	-1.490832	0.500003
C145	C	-0.079195	-1.468993	-0.000005
C146	C	0.420805	-0.968993	0.499995
N147	N	-0.042830	-1.358533	-0.000005
N148	N	0.457170	-0.858533	0.499995
H149	H	-0.562980	-1.981122	-0.000016
H150	H	-0.062980	-1.481122	0.499984
