data_functionalizedCrystal
_audit_creation_method	'MofGen! by Chris Wilmer'
_symmetry_space_group_name_H-M	'P1'
_symmetry_Int_Tables_number	1
_symmetry_cell_setting	triclinic
loop_
_symmetry_equiv_pos_as_xyz
  x,y,z
_cell_length_a	10.723024
_cell_length_b	9.065218
_cell_length_c	7.540329
_cell_angle_alpha	90.005135
_cell_angle_beta	89.997572
_cell_angle_gamma	95.258089
loop_
_atom_site_label
_atom_site_type_symbol
_atom_site_fract_x
_atom_site_fract_y
_atom_site_fract_z
O1	O	0.182985	-1.959359	-0.147568
O2	O	0.197994	-1.529989	-0.147551
O3	O	0.008954	-1.754578	-0.147554
O4	O	0.372026	-1.734770	-0.147566
O5	O	0.008951	-1.754565	0.147411
O6	O	0.197992	-1.529976	0.147414
O7	O	0.182983	-1.959346	0.147397
Cu8	Cu	0.190487	-1.744660	0.174338
Cu9	Cu	0.190490	-1.744675	-0.174493
O10	O	0.372023	-1.734757	0.147399
C11	C	0.196550	-1.475004	-0.000067
C12	C	0.192237	-1.311186	-0.000060
C13	C	-0.037553	-1.753130	-0.000073
C14	C	-0.176125	-1.748817	-0.000079
C15	C	-0.250597	-1.874486	-0.000087
C16	C	-0.393818	-1.870031	-0.000093
C17	C	0.418530	-1.736205	-0.000085
C18	C	0.557102	-1.740518	-0.000091
N19	N	0.190484	-1.744659	0.419686
C20	C	0.184426	-1.014331	-0.000081
C21	C	0.188739	-1.178149	-0.000066
N22	N	0.190483	-1.744688	-0.419841
H23	H	-0.208324	-1.985372	-0.000080
Cl24	Cl	-0.344108	-1.574404	-0.000067
H25	H	-0.218397	-1.637930	-0.000087
Cl26	Cl	-0.492616	-2.036139	-0.000089
