data_functionalizedCrystal
_audit_creation_method	'MofGen! by Chris Wilmer'
_symmetry_space_group_name_H-M	'P1'
_symmetry_Int_Tables_number	1
_symmetry_cell_setting	triclinic
loop_
_symmetry_equiv_pos_as_xyz
  x,y,z
_cell_length_a	17.077404
_cell_length_b	19.077068
_cell_length_c	19.077174
_cell_angle_alpha	94.657148
_cell_angle_beta	87.684591
_cell_angle_gamma	92.327269
loop_
_atom_site_label
_atom_site_type_symbol
_atom_site_fract_x
_atom_site_fract_y
_atom_site_fract_z
Zn1	Zn	1.205069	-0.296674	-0.409853
Zn2	Zn	1.538402	0.036660	-0.076519
Zn3	Zn	1.871736	0.369993	0.256814
Zn4	Zn	1.194834	-0.409828	-0.296696
Zn5	Zn	1.528167	-0.076495	0.036637
Zn6	Zn	1.861501	0.256838	0.369971
Zn7	Zn	1.068740	-0.291960	-0.291981
Zn8	Zn	1.402073	0.041373	0.041352
Zn9	Zn	1.735406	0.374707	0.374685
Zn10	Zn	1.068687	-0.414524	-0.414541
Zn11	Zn	1.402021	-0.081191	-0.081208
Zn12	Zn	1.735354	0.252142	0.252126
O13	O	1.134333	-0.353247	-0.353268
O14	O	1.467666	-0.019913	-0.019934
O15	O	1.800999	0.313420	0.313399
O16	O	1.313558	-0.311692	-0.394853
O17	O	1.646892	0.021642	-0.061520
O18	O	1.980225	0.354975	0.271814
O19	O	1.173846	-0.390255	-0.197423
O20	O	1.507179	-0.056922	0.135911
O21	O	1.840512	0.276412	0.469244
O22	O	1.091129	-0.193936	-0.303682
O23	O	1.424463	0.139397	0.029651
O24	O	1.757796	0.472731	0.362985
O25	O	1.306039	-0.394826	-0.311718
O26	O	1.639372	-0.061493	0.021616
O27	O	1.972705	0.271841	0.354949
O28	O	1.191290	-0.197399	-0.390282
O29	O	1.524623	0.135934	-0.056948
O30	O	1.857957	0.469267	0.276385
O31	O	1.081205	-0.303657	-0.193959
O32	O	1.414538	0.029676	0.139374
O33	O	1.747871	0.363009	0.472708
O34	O	0.958886	-0.308211	-0.308228
O35	O	1.292219	0.025123	0.025105
O36	O	1.625552	0.358456	0.358438
O37	O	1.091040	-0.402829	-0.512567
O38	O	1.424374	-0.069496	-0.179234
O39	O	1.757707	0.263838	0.154100
O40	O	0.958847	-0.398258	-0.398272
O41	O	1.292181	-0.064925	-0.064939
O42	O	1.625514	0.268408	0.268394
O43	O	1.191239	-0.316245	-0.509123
O44	O	1.524573	0.017088	-0.175789
O45	O	1.857906	0.350422	0.157544
O46	O	1.173795	-0.509101	-0.316264
O47	O	1.507128	-0.175767	0.017070
O48	O	1.840462	0.157566	0.350403
O49	O	1.081116	-0.512551	-0.402844
O50	O	1.414449	-0.179217	-0.069510
O51	O	1.747782	0.154116	0.263823
C52	C	0.930384	-0.353233	-0.353248
C53	C	1.263718	-0.019900	-0.019914
C54	C	1.597051	0.313434	0.313419
C55	C	0.843134	-0.353245	-0.353257
C56	C	1.176468	-0.019912	-0.019923
C57	C	1.509801	0.313422	0.313410
C58	C	0.802139	-0.400198	-0.400073
C59	C	1.135472	-0.066864	-0.066740
C60	C	1.468805	0.266469	0.266594
C61	C	0.720159	-0.400200	-0.400084
C62	C	1.053492	-0.066866	-0.066751
C63	C	1.386825	0.266467	0.266582
C64	C	0.679176	-0.353252	-0.353275
C65	C	1.012509	-0.019918	-0.019942
C66	C	1.345842	0.313415	0.313391
C67	C	0.720177	-0.306294	-0.306457
C68	C	1.053510	0.027040	0.026876
C69	C	1.386844	0.360373	0.360210
C70	C	0.802156	-0.306289	-0.306450
C71	C	1.135489	0.027044	0.026884
C72	C	1.468823	0.360378	0.360217
C73	C	0.549307	-0.306308	-0.306474
C74	C	0.882641	0.027025	0.026859
C75	C	1.215974	0.360358	0.360192
C76	C	0.467323	-0.306314	-0.306481
C77	C	0.800656	0.027019	0.026853
C78	C	1.133989	0.360353	0.360186
C79	C	0.467310	-0.400219	-0.400109
C80	C	0.800643	-0.066886	-0.066776
C81	C	1.133977	0.266448	0.266557
C82	C	0.549289	-0.400214	-0.400102
C83	C	0.882622	-0.066881	-0.066768
C84	C	1.215956	0.266452	0.266565
C85	C	0.590285	-0.353257	-0.353282
C86	C	0.923618	-0.019924	-0.019949
C87	C	1.256951	0.313410	0.313384
C88	C	1.126361	-0.536405	-0.360589
C89	C	1.459694	-0.203072	-0.027256
C90	C	1.793028	0.130262	0.306077
C91	C	1.123024	-0.614762	-0.363745
C92	C	1.456357	-0.281428	-0.030412
C93	C	1.789690	0.051905	0.302921
C94	C	1.169749	-0.649756	-0.320188
C95	C	1.503083	-0.316423	0.013146
C96	C	1.836416	0.016911	0.346479
C97	C	1.166615	-0.723381	-0.323160
C98	C	1.499948	-0.390047	0.010173
C99	C	1.833282	-0.056714	0.343507
C100	C	1.116751	-0.762010	-0.369687
C101	C	1.450084	-0.428677	-0.036354
C102	C	1.783417	-0.095343	0.296980
C103	C	1.070023	-0.727011	-0.413249
C104	C	1.403356	-0.393678	-0.079916
C105	C	1.736690	-0.060344	0.253417
C106	C	1.073162	-0.653387	-0.410280
C107	C	1.406495	-0.320054	-0.076947
C108	C	1.739828	0.013279	0.256387
C109	C	1.102188	-0.982396	-0.383400
C110	C	1.435521	-0.649062	-0.050067
C111	C	1.768855	-0.315729	0.283266
C112	C	1.099051	-1.056024	-0.386365
C113	C	1.432384	-0.722691	-0.053032
C114	C	1.765718	-0.389357	0.280302
C115	C	1.195645	-1.052389	-0.296276
C116	C	1.528978	-0.719055	0.037057
C117	C	1.862311	-0.385722	0.370390
C118	C	1.198776	-0.978764	-0.293308
C119	C	1.532109	-0.645431	0.040025
C120	C	1.865442	-0.312097	0.373359
C121	C	1.152051	-0.943771	-0.336873
C122	C	1.485385	-0.610438	-0.003540
C123	C	1.818718	-0.277105	0.329794
N124	N	1.113544	-0.837266	-0.372725
N125	N	1.446877	-0.503933	-0.039391
N126	N	1.780211	-0.170600	0.293942
N127	N	1.155263	-0.868516	-0.333838
N128	N	1.488596	-0.535183	-0.000505
N129	N	1.821929	-0.201850	0.332828
C130	C	1.339077	-0.353261	-0.353288
C131	C	1.672410	-0.019927	-0.019955
C132	C	2.005744	0.313406	0.313378
C133	C	1.426327	-0.353267	-0.353297
C134	C	1.759660	-0.019933	-0.019964
C135	C	2.092994	0.313400	0.313370
C136	C	1.142276	-0.360587	-0.537138
C137	C	1.475609	-0.027253	-0.203805
C138	C	1.808942	0.306080	0.129528
C139	C	1.145661	-0.363714	-0.615493
C140	C	1.478994	-0.030381	-0.282160
C141	C	1.812327	0.302952	0.051174
C142	C	1.142357	-0.169374	-0.345933
C143	C	1.475691	0.163960	-0.012600
C144	C	1.809024	0.497293	0.320734
C145	C	1.145777	-0.091018	-0.342807
C146	C	1.479110	0.242315	-0.009474
C147	C	1.812444	0.575649	0.323859
C148	C	1.099020	-0.320098	-0.650500
C149	C	1.432353	0.013235	-0.317167
C150	C	1.765687	0.346569	0.016166
C151	C	1.102197	-0.323043	-0.724123
C152	C	1.435530	0.010290	-0.390790
C153	C	1.768864	0.343624	-0.057456
C154	C	1.152020	-0.369601	-0.762737
C155	C	1.485353	-0.036268	-0.429404
C156	C	1.818686	0.297066	-0.096070
C157	C	1.198662	-0.413222	-0.727725
C158	C	1.531996	-0.079889	-0.394391
C159	C	1.865329	0.253444	-0.061058
C160	C	1.195480	-0.410280	-0.654103
C161	C	1.528814	-0.076947	-0.320770
C162	C	1.862147	0.256386	0.012563
C163	C	1.166704	-0.383237	-0.983115
C164	C	1.500037	-0.049904	-0.649781
C165	C	1.833371	0.283429	-0.316448
C166	C	1.169884	-0.386174	-1.056741
C167	C	1.503217	-0.052841	-0.723408
C168	C	1.836551	0.280493	-0.390074
C169	C	1.073418	-0.295995	-1.053134
C170	C	1.406751	0.037338	-0.719801
C171	C	1.740084	0.370671	-0.386468
C172	C	1.070244	-0.293055	-0.979512
C173	C	1.403577	0.040278	-0.646178
C174	C	1.736910	0.373612	-0.312845
C175	C	1.116883	-0.336679	-0.944506
C176	C	1.450216	-0.003345	-0.611173
C177	C	1.783550	0.329988	-0.277839
N178	N	1.155270	-0.372611	-0.837991
N179	N	1.488604	-0.039277	-0.504658
N180	N	1.821937	0.294056	-0.171325
N181	N	1.113628	-0.333672	-0.869253
N182	N	1.446961	-0.000339	-0.535920
N183	N	1.780294	0.332995	-0.202586
C184	C	1.126468	-0.345884	-0.170111
C185	C	1.459801	-0.012551	0.163223
C186	C	1.793134	0.320782	0.496556
C187	C	1.123243	-0.342558	-0.091748
C188	C	1.456577	-0.009224	0.241585
C189	C	1.789910	0.324109	0.574918
H190	H	0.433957	-0.268077	-0.268373
H191	H	0.767290	0.065257	0.064961
H192	H	1.100624	0.398590	0.398294
O193	O	1.021957	-0.247757	-0.941967
O194	O	1.355290	0.085577	-0.608633
O195	O	1.688623	0.418910	-0.275300
C196	C	1.066794	-0.200540	-0.897556
C197	C	1.400127	0.132793	-0.564223
C198	C	1.733461	0.466126	-0.230890
H199	H	1.129766	-0.197073	-0.919578
H200	H	1.463099	0.136260	-0.586244
H201	H	1.796432	0.469594	-0.252911
H202	H	1.040733	-0.146254	-0.894550
H203	H	1.374066	0.187079	-0.561217
H204	H	1.707400	0.520413	-0.227883
H205	H	1.066140	-0.220112	-0.842631
H206	H	1.399473	0.113221	-0.509298
H207	H	1.732807	0.446554	-0.175965
H208	H	0.582684	-0.268065	-0.268355
H209	H	0.916017	0.065269	0.064978
H210	H	1.249351	0.398602	0.398312
H211	H	1.029426	-0.758469	-0.451136
H212	H	1.362759	-0.425135	-0.117802
H213	H	1.696092	-0.091802	0.215531
H214	H	1.233686	-1.080888	-0.260809
H215	H	1.567020	-0.747554	0.072524
H216	H	1.900353	-0.414221	0.405858
O217	O	0.680447	-0.260718	-0.260891
O218	O	1.013780	0.072615	0.072442
O219	O	1.347114	0.405948	0.405775
C220	C	0.696746	-0.273218	-0.191215
C221	C	1.030079	0.060115	0.142118
C222	C	1.363412	0.393449	0.475452
H223	H	0.755025	-0.300249	-0.190786
H224	H	1.088359	0.033084	0.142548
H225	H	1.421692	0.366418	0.475881
H226	H	0.700393	-0.221032	-0.157654
H227	H	1.033726	0.112301	0.175680
H228	H	1.367060	0.445635	0.509013
H229	H	0.648000	-0.308479	-0.168864
H230	H	0.981333	0.024855	0.164470
H231	H	1.314667	0.358188	0.497803
O232	O	1.247167	-0.458411	-0.765154
O233	O	1.580500	-0.125078	-0.431821
O234	O	1.913834	0.208255	-0.098488
C235	C	1.325299	-0.442281	-0.746568
C236	C	1.658633	-0.108948	-0.413235
C237	C	1.991966	0.224385	-0.079902
H238	H	1.325798	-0.413048	-0.692034
H239	H	1.659132	-0.079715	-0.358700
H240	H	1.992465	0.253619	-0.025367
H241	H	1.358168	-0.493061	-0.746082
H242	H	1.691501	-0.159727	-0.412748
H243	H	2.024835	0.173606	-0.079415
H244	H	1.355112	-0.407694	-0.786560
H245	H	1.688445	-0.074361	-0.453226
H246	H	2.021778	0.258973	-0.119893
H247	H	1.210459	-0.424088	-1.088179
H248	H	1.543792	-0.090755	-0.754846
H249	H	1.877126	0.242578	-0.421512
O250	O	1.056758	-0.948325	-0.425610
O251	O	1.390091	-0.614991	-0.092276
O252	O	1.723425	-0.281658	0.241057
C253	C	1.006161	-0.904201	-0.383715
C254	C	1.339495	-0.570868	-0.050382
C255	C	1.672828	-0.237535	0.282952
H256	H	1.032061	-0.891044	-0.329871
H257	H	1.365395	-0.557710	0.003462
H258	H	1.698728	-0.224377	0.336795
H259	H	0.999062	-0.853570	-0.410332
H260	H	1.332396	-0.520237	-0.076998
H261	H	1.665729	-0.186903	0.256335
H262	H	0.946448	-0.932309	-0.377065
H263	H	1.279781	-0.598976	-0.043732
H264	H	1.613115	-0.265643	0.289602
H265	H	0.686784	-0.438434	-0.438206
H266	H	1.020117	-0.105101	-0.104873
H267	H	1.353450	0.228233	0.228460
O268	O	1.050735	-0.274795	-0.612960
O269	O	1.384068	0.058539	-0.279626
O270	O	1.717401	0.391872	0.053707
C271	C	1.095567	-0.227573	-0.568550
C272	C	1.428900	0.105760	-0.235217
C273	C	1.762233	0.439093	0.098117
H274	H	1.158541	-0.224108	-0.590566
H275	H	1.491874	0.109226	-0.257233
H276	H	1.825207	0.442559	0.076101
H277	H	1.069505	-0.173287	-0.565553
H278	H	1.402838	0.160046	-0.232219
H279	H	1.736172	0.493379	0.101114
H280	H	1.094906	-0.247139	-0.513622
H281	H	1.428240	0.086194	-0.180289
H282	H	1.761573	0.419528	0.153045
H283	H	0.433928	-0.438451	-0.438233
H284	H	0.767261	-0.105118	-0.104900
H285	H	1.100594	0.228215	0.228433
H286	H	1.064214	-0.287529	-0.752623
H287	H	1.397548	0.045805	-0.419289
H288	H	1.730881	0.379138	-0.085956
H289	H	0.582655	-0.438447	-0.438214
H290	H	0.915988	-0.105114	-0.104881
H291	H	1.249322	0.228219	0.228453
H292	H	1.035446	-0.260480	-1.081644
H293	H	1.368779	0.072853	-0.748311
H294	H	1.702112	0.406186	-0.414977
H295	H	1.233466	-0.445792	-0.625601
H296	H	1.566800	-0.112459	-0.292268
H297	H	1.900133	0.220874	0.041065
H298	H	0.835534	-0.268052	-0.268330
H299	H	1.168867	0.065282	0.065003
H300	H	1.502201	0.398615	0.398336
O301	O	1.247176	-0.941319	-0.248020
O302	O	1.580509	-0.607985	0.085313
O303	O	1.913842	-0.274652	0.418646
C304	C	1.226271	-0.956534	-0.178472
C305	C	1.559604	-0.623201	0.154861
C306	C	1.892937	-0.289867	0.488195
H307	H	1.193749	-1.009951	-0.179141
H308	H	1.527082	-0.676618	0.154192
H309	H	1.860415	-0.343285	0.487525
H310	H	1.281484	-0.957769	-0.147013
H311	H	1.614817	-0.624436	0.186320
H312	H	1.948151	-0.291102	0.519654
H313	H	1.186677	-0.914187	-0.153023
H314	H	1.520010	-0.580853	0.180311
H315	H	1.853344	-0.247520	0.513644
O316	O	0.841827	-0.445829	-0.445612
O317	O	1.175160	-0.112496	-0.112278
O318	O	1.508494	0.220838	0.221055
C319	C	0.788058	-0.487281	-0.486924
C320	C	1.121392	-0.153948	-0.153591
C321	C	1.454725	0.179386	0.179743
H322	H	0.730985	-0.458512	-0.488261
H323	H	1.064318	-0.125179	-0.154928
H324	H	1.397652	0.208154	0.178406
H325	H	0.813824	-0.497101	-0.542756
H326	H	1.147157	-0.163768	-0.209423
H327	H	1.480491	0.169566	0.123910
H328	H	0.775888	-0.539748	-0.463163
H329	H	1.109222	-0.206415	-0.129829
H330	H	1.442555	0.126918	0.203504
O331	O	1.218255	-0.612342	-0.274971
O332	O	1.551588	-0.279009	0.058363
O333	O	1.884922	0.054324	0.391696
C334	C	1.258809	-0.659020	-0.237151
C335	C	1.592142	-0.325687	0.096182
C336	C	1.925476	0.007646	0.429515
H337	H	1.260512	-0.712639	-0.268146
H338	H	1.593846	-0.379306	0.065188
H339	H	1.927179	-0.045972	0.398521
H340	H	1.321249	-0.637408	-0.228821
H341	H	1.654582	-0.304075	0.104513
H342	H	1.987916	0.029258	0.437846
H343	H	1.227461	-0.664759	-0.183907
H344	H	1.560794	-0.331426	0.149426
H345	H	1.894127	0.001908	0.482760
H346	H	1.035114	-0.624896	-0.445750
H347	H	1.368447	-0.291563	-0.112417
H348	H	1.701781	0.041771	0.220917
H349	H	1.204664	-0.751869	-0.287690
H350	H	1.537997	-0.418536	0.045643
H351	H	1.871330	-0.085203	0.378977
O352	O	1.050598	-1.093444	-0.431631
O353	O	1.383931	-0.760110	-0.098297
O354	O	1.717264	-0.426777	0.235036
C355	C	1.010018	-1.046772	-0.469436
C356	C	1.343351	-0.713438	-0.136102
C357	C	1.676684	-0.380105	0.197231
H358	H	1.044510	-0.994363	-0.469786
H359	H	1.377844	-0.661029	-0.136452
H360	H	1.711177	-0.327696	0.196881
H361	H	1.003096	-1.070247	-0.525828
H362	H	1.336430	-0.736913	-0.192494
H363	H	1.669763	-0.403580	0.140839
H364	H	0.949634	-1.037965	-0.443266
H365	H	1.282967	-0.704632	-0.109933
H366	H	1.616301	-0.371298	0.223401
O367	O	1.212096	-0.425629	-0.949226
O368	O	1.545429	-0.092296	-0.615893
O369	O	1.878763	0.241037	-0.282559
C370	C	1.256742	-0.467358	-0.999098
C371	C	1.590076	-0.134025	-0.665764
C372	C	1.923409	0.199308	-0.332431
H373	H	1.262979	-0.440579	-1.050427
H374	H	1.596312	-0.107246	-0.717093
H375	H	1.929645	0.226087	-0.383760
H376	H	1.317346	-0.474025	-0.978136
H377	H	1.650679	-0.140692	-0.644803
H378	H	1.984013	0.192642	-0.311469
H379	H	1.226006	-0.521213	-1.009058
H380	H	1.559340	-0.187879	-0.675724
H381	H	1.892673	0.145454	-0.342391
