data_functionalizedCrystal
_audit_creation_method	'MofGen! by Chris Wilmer'
_symmetry_space_group_name_H-M	'P1'
_symmetry_Int_Tables_number	1
_symmetry_cell_setting	triclinic
loop_
_symmetry_equiv_pos_as_xyz
  x,y,z
_cell_length_a	19.288864
_cell_length_b	10.868271
_cell_length_c	19.288857
_cell_angle_alpha	90.007284
_cell_angle_beta	83.134677
_cell_angle_gamma	90.018163
loop_
_atom_site_label
_atom_site_type_symbol
_atom_site_fract_x
_atom_site_fract_y
_atom_site_fract_z
O1	O	0.921346	0.102723	0.086648
O2	O	0.719085	0.102639	0.098337
O3	O	0.826062	0.102669	-0.008638
O4	O	0.814368	0.102693	0.193623
O5	O	0.826054	-0.101976	-0.008642
O6	O	0.719076	-0.102005	0.098333
O7	O	0.921337	-0.101922	0.086644
Zn8	Zn	0.820205	-0.134456	0.092488
Zn9	Zn	0.820217	0.135173	0.092493
O10	O	0.814359	-0.101951	0.193619
C11	C	0.693204	0.000306	0.097959
C12	C	0.616100	0.000274	0.096830
N13	N	0.820202	-0.318470	0.092484
C14	C	0.571402	0.000301	0.159598
C15	C	0.498955	0.000314	0.158537
C16	C	0.471209	0.000325	0.094705
C17	C	0.515917	0.000291	0.031929
C18	C	0.588363	0.000266	0.032991
C19	C	0.362952	0.072057	0.044527
C20	C	0.290507	0.072090	0.043467
C21	C	0.247764	0.000399	0.091425
C22	C	0.277472	-0.071309	0.140455
C23	C	0.349918	-0.071335	0.141518
C24	C	0.392656	0.000353	0.093546
C25	C	0.124510	0.000439	0.153048
C26	C	0.052062	0.000445	0.151984
C27	C	0.069026	0.000435	0.025374
C28	C	0.141472	0.000416	0.026439
C29	C	0.169210	0.000425	0.090278
C30	C	0.820213	-0.569476	0.092492
C31	C	0.820205	-0.429798	0.092490
C32	C	0.947218	0.000414	0.087022
C33	C	1.024321	0.000454	0.088151
C34	C	0.825683	0.000345	-0.034516
C35	C	0.824556	0.000341	-0.111620
N36	N	0.820225	0.319187	0.092492
C37	C	0.824035	0.111893	-0.147829
C38	C	0.822966	0.111901	-0.220275
C39	C	0.822432	0.000352	-0.256511
C40	C	0.822950	-0.111215	-0.220294
C41	C	0.824011	-0.111220	-0.147848
C42	C	0.861430	-0.085085	-0.376745
C43	C	0.860373	-0.085075	-0.449189
C44	C	0.819155	0.000365	-0.479957
C45	C	0.779003	0.085815	-0.438273
C46	C	0.780064	0.085809	-0.365827
C47	C	0.821281	0.000346	-0.335066
C48	C	0.817474	0.111933	-0.594720
C49	C	0.816401	0.111938	-0.667167
C50	C	0.816391	-0.111182	-0.667185
C51	C	0.817457	-0.111182	-0.594739
C52	C	0.818002	0.000378	-0.558511
C53	C	0.814739	0.000375	0.219498
C54	C	0.815866	0.000387	0.296602
H55	H	0.593981	0.000310	0.211581
Br56	Br	0.031379	0.000429	-0.061258
H57	H	0.817888	-0.202020	-0.565258
H58	H	0.147095	0.000428	0.205029
H59	H	0.894994	-0.154670	-0.351700
H60	H	0.015669	0.000460	0.203100
Br61	Br	0.824770	0.263296	-0.098665
Br62	Br	0.822217	-0.262604	-0.269469
H63	H	0.397749	0.130443	0.005472
H64	H	0.374103	-0.129726	0.181437
Br65	Br	0.815685	0.263343	-0.716307
Br66	Br	0.438282	0.000343	0.243729
H67	H	0.893070	-0.154649	-0.483124
H68	H	0.493322	0.000317	-0.020044
H69	H	0.822537	0.202743	-0.249761
H70	H	0.815952	-0.202007	-0.696688
H71	H	0.824433	-0.202062	-0.118367
H72	H	0.242672	-0.129687	0.179507
H73	H	0.177867	0.000401	-0.024674
H74	H	0.266325	0.130484	0.003547
Br75	Br	0.818209	0.263333	-0.545549
Br76	Br	0.649029	0.000226	-0.052201
H77	H	0.747370	0.155383	-0.331890
H78	H	0.745439	0.155388	-0.463322
