data_functionalizedCrystal
_audit_creation_method	'MofGen! by Chris Wilmer'
_symmetry_space_group_name_H-M	'P1'
_symmetry_Int_Tables_number	1
_symmetry_cell_setting	triclinic
loop_
_symmetry_equiv_pos_as_xyz
  x,y,z
_cell_length_a	14.971482
_cell_length_b	16.109304
_cell_length_c	13.448316
_cell_angle_alpha	89.996206
_cell_angle_beta	89.993798
_cell_angle_gamma	83.537623
loop_
_atom_site_label
_atom_site_type_symbol
_atom_site_fract_x
_atom_site_fract_y
_atom_site_fract_z
O1	O	1.186794	0.108333	-0.082673
O2	O	1.686794	0.608333	0.417327
O3	O	0.926375	0.121311	-0.082677
O4	O	1.426375	0.621311	0.417323
O5	O	1.063737	-0.006200	-0.082675
O6	O	1.563737	0.493800	0.417325
O7	O	1.049432	0.235844	-0.082674
O8	O	1.549432	0.735844	0.417326
O9	O	1.063720	-0.006208	0.082709
O10	O	1.563720	0.493792	0.582709
O11	O	0.926358	0.121303	0.082707
O12	O	1.426358	0.621303	0.582707
O13	O	1.186777	0.108325	0.082711
O14	O	1.686777	0.608325	0.582711
Cu15	Cu	1.056566	0.114814	0.097810
Cu16	Cu	1.556566	0.614814	0.597810
Cu17	Cu	1.056586	0.114823	-0.097776
Cu18	Cu	1.556586	0.614823	0.402224
O19	O	1.049415	0.235836	0.082710
O20	O	1.549415	0.735836	0.582710
C21	C	0.893043	0.120727	0.000015
C22	C	1.393043	0.620727	0.500015
C23	C	0.793748	0.118990	0.000013
C24	C	1.293748	0.618990	0.500013
C25	C	0.747095	0.118167	0.090165
C26	C	1.247095	0.618167	0.590165
C27	C	0.653799	0.116521	0.090166
C28	C	1.153799	0.616521	0.590166
C29	C	0.607157	0.115704	0.000014
C30	C	1.107157	0.615704	0.500014
C31	C	0.653816	0.116524	-0.090145
C32	C	1.153816	0.616524	0.409855
C33	C	0.747112	0.118164	-0.090145
C34	C	1.247112	0.618164	0.409855
C35	C	0.459359	0.113108	-0.090138
C36	C	0.959359	0.613108	0.409862
C37	C	0.366057	0.111469	-0.090139
C38	C	0.866057	0.611469	0.409861
C39	C	0.366047	0.111465	0.090172
C40	C	0.866047	0.611465	0.590172
C41	C	0.459342	0.113105	0.090172
C42	C	0.959342	0.613105	0.590172
C43	C	0.505995	0.113927	0.000013
C44	C	1.005995	0.613927	0.500013
C45	C	1.063149	-0.037179	0.000015
C46	C	1.563149	0.462821	0.500015
C47	C	1.061410	-0.129477	0.000008
C48	C	1.561410	0.370523	0.500008
C49	C	1.057403	-0.341815	-0.090139
C50	C	1.557403	0.158185	0.409861
C51	C	1.055761	-0.428537	-0.090138
C52	C	1.555761	0.071463	0.409862
C53	C	1.055747	-0.428543	0.090172
C54	C	1.555747	0.071457	0.590172
C55	C	1.057382	-0.341821	0.090170
C56	C	1.557382	0.158179	0.590170
C57	C	1.058215	-0.298460	0.000011
C58	C	1.558215	0.201540	0.500011
C59	C	1.054938	-0.471904	0.000014
C60	C	1.554938	0.028096	0.500014
C61	C	1.053157	-0.565932	0.000016
C62	C	1.553157	-0.065932	0.500016
C63	C	1.059993	-0.204426	0.000009
C64	C	1.559993	0.295574	0.500009
C65	C	1.220110	0.108909	0.000018
C66	C	1.720110	0.608909	0.500018
C67	C	1.319404	0.110647	0.000013
C68	C	1.819404	0.610647	0.500013
C69	C	1.050003	0.266816	0.000018
C70	C	1.550003	0.766816	0.500018
C71	C	1.051742	0.359113	0.000018
C72	C	1.551742	0.859113	0.500018
N73	N	1.056558	0.114806	0.235374
N74	N	1.556558	0.614806	0.735374
N75	N	1.056601	0.114823	-0.235340
N76	N	1.556601	0.614823	0.264660
C77	C	1.117401	0.058368	0.287415
C78	C	1.617401	0.558368	0.787415
C79	C	1.117407	0.058367	0.391519
C80	C	1.617407	0.558367	0.891519
C81	C	1.056573	0.114810	0.443579
C82	C	1.556573	0.614810	0.943579
C83	C	0.995724	0.171251	0.391531
C84	C	1.495724	0.671251	0.891531
C85	C	0.995714	0.171247	0.287429
C86	C	1.495714	0.671247	0.787429
C87	C	0.995748	0.171257	0.608511
C88	C	1.495748	0.671257	1.108511
C89	C	0.995758	0.171262	0.712619
C90	C	1.495758	0.671262	1.212619
C91	C	1.117441	0.058377	0.712600
C92	C	1.617441	0.558377	1.212600
C93	C	1.117431	0.058373	0.608499
C94	C	1.617431	0.558373	1.108499
C95	C	1.056583	0.114815	0.556458
C96	C	1.556583	0.614815	1.056458
H97	H	0.497315	0.113775	0.163582
H98	H	0.997315	0.613775	0.663582
H99	H	0.328083	0.110804	-0.163548
H100	H	0.828083	0.610804	0.336452
H101	H	1.166985	0.012419	0.754978
H102	H	1.666985	0.512419	1.254978
F103	F	1.182181	-0.001694	0.553092
F104	F	1.682181	0.498306	1.053092
H105	H	0.946220	0.217223	0.755001
H106	H	1.446220	0.717223	1.255001
F107	F	0.796763	0.119036	-0.186097
F108	F	1.296763	0.619036	0.313903
H109	H	0.497341	0.113777	-0.163556
H110	H	0.997341	0.613777	0.336444
F111	F	1.058286	-0.295669	-0.186094
F112	F	1.558286	0.204331	0.313906
H113	H	0.946196	0.217216	0.566142
H114	H	1.446196	0.717216	1.066142
H115	H	1.058038	-0.306520	0.163586
H116	H	1.558038	0.193480	0.663586
F117	F	0.930974	0.231319	0.446938
F118	F	1.430974	0.731319	0.946938
F119	F	1.054860	-0.474698	0.186120
F120	F	1.554860	0.025302	0.686120
F121	F	0.930954	0.231315	0.232045
F122	F	1.430954	0.731315	0.732045
H123	H	1.055098	-0.463832	-0.163548
H124	H	1.555098	0.036168	0.336452
H125	H	1.166942	0.012409	0.245035
H126	H	1.666942	0.512409	0.745035
F127	F	0.604177	0.115629	-0.186092
F128	F	1.104177	0.615629	0.313908
H129	H	1.166949	0.012410	0.433890
H130	H	1.666949	0.512410	0.933890
F131	F	0.796726	0.119042	0.186118
F132	F	1.296726	0.619042	0.686118
F133	F	0.316394	0.110590	0.186127
F134	F	0.816394	0.610590	0.686127
F135	F	0.604150	0.115657	0.186118
F136	F	1.104150	0.615657	0.686118
