data_functionalizedCrystal
_audit_creation_method	'MofGen! by Chris Wilmer'
_symmetry_space_group_name_H-M	'P1'
_symmetry_Int_Tables_number	1
_symmetry_cell_setting	triclinic
loop_
_symmetry_equiv_pos_as_xyz
  x,y,z
_cell_length_a	17.638686
_cell_length_b	16.625545
_cell_length_c	17.640968
_cell_angle_alpha	78.769372
_cell_angle_beta	65.692372
_cell_angle_gamma	78.792475
loop_
_atom_site_label
_atom_site_type_symbol
_atom_site_fract_x
_atom_site_fract_y
_atom_site_fract_z
Zn1	Zn	1.354048	-0.452153	-0.720214
Zn2	Zn	1.854048	0.047847	-0.220214
Zn3	Zn	1.326075	-0.609645	-0.582385
Zn4	Zn	1.826075	-0.109645	-0.082385
Zn5	Zn	1.188375	-0.452115	-0.554609
Zn6	Zn	1.688375	0.047885	-0.054609
Zn7	Zn	1.216192	-0.564219	-0.692352
Zn8	Zn	1.716192	-0.064219	-0.192352
O9	O	1.271172	-0.519533	-0.637390
O10	O	1.771172	-0.019533	-0.137390
O11	O	1.465658	-0.492072	-0.725216
O12	O	1.965658	0.007928	-0.225216
O13	O	1.284460	-0.607743	-0.463373
O14	O	1.784460	-0.107743	0.036627
O15	O	1.210417	-0.339294	-0.576613
O16	O	1.710417	0.160706	-0.076613
O17	O	1.445106	-0.607780	-0.623954
O18	O	1.945106	-0.107780	-0.123954
O19	O	1.332136	-0.339322	-0.698282
O20	O	1.832136	0.160678	-0.198282
O21	O	1.183292	-0.492007	-0.442966
O22	O	1.683292	0.007993	0.057034
O23	O	1.076744	-0.447959	-0.549596
O24	O	1.576744	0.052041	-0.049596
O25	O	1.257828	-0.530358	-0.811376
O26	O	1.757828	-0.030358	-0.311376
O27	O	1.097181	-0.530321	-0.650795
O28	O	1.597181	-0.030321	-0.150795
O29	O	1.359109	-0.448024	-0.831846
O30	O	1.859109	0.051976	-0.331846
O31	O	1.311434	-0.716445	-0.596937
O32	O	1.811434	-0.216445	-0.096937
O33	O	1.230703	-0.683071	-0.677729
O34	O	1.730703	-0.183071	-0.177729
C35	C	1.057061	-0.484207	-0.594158
C36	C	1.557061	0.015793	-0.094158
C37	C	0.965467	-0.469110	-0.575683
C38	C	1.465467	0.030890	-0.075683
C39	C	0.717456	-0.634361	-0.777952
C40	C	1.217456	-0.134361	-0.277952
C41	C	0.631386	-0.620172	-0.760571
C42	C	1.131386	-0.120172	-0.260571
C43	C	0.610104	-0.534222	-0.655355
C44	C	1.110104	-0.034222	-0.155355
C45	C	0.696174	-0.548407	-0.672724
C46	C	1.196174	-0.048407	-0.172724
C47	C	0.749844	-0.598477	-0.734024
C48	C	1.249844	-0.098477	-0.234024
C49	C	0.728561	-0.512522	-0.628797
C50	C	1.228561	-0.012522	-0.128797
C51	C	0.814624	-0.526703	-0.646168
C52	C	1.314624	-0.026703	-0.146168
C53	C	0.868300	-0.576768	-0.707467
C54	C	1.368300	-0.076768	-0.207467
C55	C	0.835907	-0.612657	-0.751395
C56	C	1.335907	-0.112657	-0.251395
C57	C	0.674891	-0.462448	-0.567502
C58	C	1.174891	0.037552	-0.067502
C59	C	0.707278	-0.426564	-0.523574
C60	C	1.207278	0.073436	-0.023574
C61	C	0.793342	-0.440749	-0.540941
C62	C	1.293342	0.059251	-0.040941
C63	C	0.847017	-0.490814	-0.602239
C64	C	1.347017	0.009186	-0.102239
C65	C	0.825735	-0.404860	-0.497012
C66	C	1.325735	0.095140	0.002988
C67	C	0.911797	-0.419041	-0.514383
C68	C	1.411797	0.080959	-0.014383
C69	C	0.933080	-0.504995	-0.619611
C70	C	1.433080	-0.004995	-0.119611
C71	C	1.271078	-0.729013	-0.637346
C72	C	1.771078	-0.229013	-0.137346
C73	C	1.271118	-0.818638	-0.637370
C74	C	1.771118	-0.318638	-0.137370
C75	C	1.271153	-0.891423	-0.637393
C76	C	1.771153	-0.391423	-0.137393
C77	C	1.271205	-0.982736	-0.637421
C78	C	1.771205	-0.482736	-0.137421
C79	C	1.271250	-1.055518	-0.637440
C80	C	1.771250	-0.555518	-0.137440
C81	C	1.271300	-1.146837	-0.637466
C82	C	1.771300	-0.646837	-0.137466
C83	C	1.486120	-0.554998	-0.680791
C84	C	1.986120	-0.054998	-0.180791
C85	C	1.577717	-0.570111	-0.699286
C86	C	2.077717	-0.070111	-0.199286
C87	C	1.314692	-0.484128	-0.852350
C88	C	1.814692	0.015872	-0.352350
C89	C	1.333237	-0.469040	-0.943954
C90	C	1.833237	0.030960	-0.443954
C91	C	1.271294	-0.309235	-0.637457
C92	C	1.771294	0.190765	-0.137457
C93	C	1.271345	-0.219619	-0.637485
C94	C	1.771345	0.280381	-0.137485
C95	C	1.130602	-0.633765	-1.191943
C96	C	1.630602	-0.133765	-0.691943
C97	C	1.148045	-0.619581	-1.278021
C98	C	1.648045	-0.119581	-0.778021
C99	C	1.253501	-0.533854	-1.299325
C100	C	1.753501	-0.033854	-0.799325
C101	C	1.236063	-0.548028	-1.213245
C102	C	1.736063	-0.048028	-0.713245
C103	C	1.174614	-0.597985	-1.159561
C104	C	1.674614	-0.097985	-0.659561
C105	C	1.280075	-0.512248	-1.180864
C106	C	1.780075	-0.012248	-0.680864
C107	C	1.262642	-0.526424	-1.094793
C108	C	1.762642	-0.026424	-0.594793
C109	C	1.201197	-0.576381	-1.041103
C110	C	1.701197	-0.076381	-0.541103
C111	C	1.157180	-0.612162	-1.073490
C112	C	1.657180	-0.112162	-0.573490
C113	C	1.341529	-0.462296	-1.234551
C114	C	1.841529	0.037704	-0.734551
C115	C	1.385541	-0.426515	-1.202169
C116	C	1.885541	0.073485	-0.702169
C117	C	1.368104	-0.440687	-1.116096
C118	C	1.868104	0.059313	-0.616096
C119	C	1.306658	-0.490644	-1.062406
C120	C	1.806658	0.009356	-0.562406
C121	C	1.412120	-0.404907	-1.083709
C122	C	1.912120	0.095093	-0.583709
C123	C	1.394687	-0.419083	-0.997638
C124	C	1.894687	0.080917	-0.497638
C125	C	1.289225	-0.504820	-0.976335
C126	C	1.789225	-0.004820	-0.476335
C127	C	1.227870	-0.554750	-0.423276
C128	C	1.727870	-0.054750	0.076724
C129	C	1.209484	-0.569637	-0.331705
C130	C	1.709484	-0.069637	0.168295
H131	H	0.663569	-0.385795	-0.473666
H132	H	1.163569	0.114205	0.026334
H133	H	1.430525	-0.389946	-0.971273
H134	H	1.930525	0.110054	-0.471273
H135	H	1.239167	-0.545478	-0.932618
H136	H	1.739167	-0.045478	-0.432618
N137	N	1.451819	-0.372638	-1.260073
N138	N	1.951819	0.127362	-0.760073
H139	H	1.456186	-0.369086	-1.319514
H140	H	1.956186	0.130914	-0.819514
H141	H	1.435973	-0.315417	-1.242457
H142	H	1.935973	0.184583	-0.742457
H143	H	0.938378	-0.588308	-0.721614
H144	H	1.438378	-0.088308	-0.221614
N145	N	0.596454	-0.658891	-0.807946
N146	N	1.096454	-0.158891	-0.307946
H147	H	0.533789	-0.642312	-0.787641
H148	H	1.033789	-0.142312	-0.287641
H149	H	0.623425	-0.639212	-0.869866
H150	H	1.123425	-0.139212	-0.369866
N151	N	0.990972	-0.559010	-0.685718
N152	N	1.490972	-0.059010	-0.185718
H153	H	0.987936	-0.534415	-0.741608
H154	H	1.487936	-0.034415	-0.241608
H155	H	1.050376	-0.562528	-0.689979
H156	H	1.550376	-0.062528	-0.189979
H157	H	1.080543	-0.674423	-1.148225
H158	H	1.580543	-0.174423	-0.648225
H159	H	1.187007	-0.587926	-0.971020
H160	H	1.687007	-0.087926	-0.471020
H161	H	0.566395	-0.493453	-0.605447
H162	H	1.066395	0.006547	-0.105447
H163	H	1.355723	-0.450757	-1.304635
H164	H	1.855723	0.049243	-0.804635
N165	N	0.893801	-0.666671	-0.817503
N166	N	1.393801	-0.166671	-0.317503
H167	H	0.860226	-0.687259	-0.842694
H168	H	1.360226	-0.187259	-0.342694
H169	H	0.937255	-0.633503	-0.862911
H170	H	1.437255	-0.133503	-0.362911
N171	N	0.775350	-0.688372	-0.844062
N172	N	1.275350	-0.188372	-0.344062
H173	H	0.804246	-0.737092	-0.817699
H174	H	1.304246	-0.237092	-0.317699
H175	H	0.741720	-0.708899	-0.869230
H176	H	1.241720	-0.208899	-0.369230
N177	N	0.582064	-0.447142	-0.548760
N178	N	1.082064	0.052858	-0.048760
H179	H	0.572793	-0.419679	-0.601139
H180	H	1.072793	0.080321	-0.101139
H181	H	0.558281	-0.501549	-0.529295
H182	H	1.058281	-0.001549	-0.029295
H183	H	0.782025	-0.364087	-0.447108
H184	H	1.282025	0.135913	0.052892
H185	H	1.112201	-0.648721	-1.304381
H186	H	1.612201	-0.148721	-0.804381
H187	H	1.303536	-0.493181	-1.343046
H188	H	1.803536	0.006819	-0.843046
H189	H	0.938168	-0.389813	-0.478619
H190	H	1.438168	0.110187	0.021381
H191	H	1.462158	-0.364238	-1.127433
H192	H	1.962158	0.135762	-0.627433
N193	N	1.090898	-0.666039	-1.015577
N194	N	1.590898	-0.166039	-0.515577
H195	H	1.065656	-0.686554	-1.049148
H196	H	1.565656	-0.186554	-0.549148
H197	H	1.117191	-0.714767	-0.986627
H198	H	1.617191	-0.214767	-0.486627
