data_functionalizedCrystal
_audit_creation_method	'MofGen! by Chris Wilmer'
_symmetry_space_group_name_H-M	'P1'
_symmetry_Int_Tables_number	1
_symmetry_cell_setting	triclinic
loop_
_symmetry_equiv_pos_as_xyz
  x,y,z
_cell_length_a	13.032721
_cell_length_b	12.759401
_cell_length_c	12.759393
_cell_angle_alpha	89.979062
_cell_angle_beta	82.850774
_cell_angle_gamma	82.794169
loop_
_atom_site_label
_atom_site_type_symbol
_atom_site_fract_x
_atom_site_fract_y
_atom_site_fract_z
Zn1	Zn	-0.415945	-1.553113	0.647098
Zn2	Zn	-0.082612	-1.219779	0.980432
Zn3	Zn	0.250721	-0.886446	1.313765
Zn4	Zn	-0.590725	-1.530669	0.493722
Zn5	Zn	-0.257392	-1.197336	0.827055
Zn6	Zn	0.075942	-0.864002	1.160388
Zn7	Zn	-0.416001	-1.377404	0.471441
Zn8	Zn	-0.082668	-1.044071	0.804774
Zn9	Zn	0.250666	-0.710738	1.138107
Zn10	Zn	-0.590652	-1.355078	0.669350
Zn11	Zn	-0.257319	-1.021744	1.002683
Zn12	Zn	0.076015	-0.688411	1.336016
O13	O	-0.503331	-1.454066	0.570403
O14	O	-0.169997	-1.120733	0.903736
O15	O	0.163336	-0.787399	1.237069
O16	O	-0.439137	-1.697156	0.626765
O17	O	-0.105804	-1.363822	0.960098
O18	O	0.227529	-1.030489	1.293432
O19	O	-0.567601	-1.510289	0.343752
O20	O	-0.234268	-1.176956	0.677085
O21	O	0.099066	-0.843622	1.010418
O22	O	-0.269756	-1.419449	0.476105
O23	O	0.063578	-1.086116	0.809438
O24	O	0.396911	-0.752783	1.142772
O25	O	-0.567547	-1.680666	0.514080
O26	O	-0.234214	-1.347333	0.847413
O27	O	0.099119	-1.013999	1.180747
O28	O	-0.269715	-1.548541	0.605160
O29	O	0.063619	-1.215208	0.938493
O30	O	0.396952	-0.881875	1.271827
O31	O	-0.439232	-1.397686	0.327382
O32	O	-0.105899	-1.064353	0.660715
O33	O	0.227434	-0.731020	0.994049
O34	O	-0.439161	-1.227423	0.497681
O35	O	-0.105828	-0.894089	0.831014
O36	O	0.227505	-0.560756	1.164348
O37	O	-0.567423	-1.381397	0.813412
O38	O	-0.234089	-1.048063	1.146746
O39	O	0.099244	-0.714730	1.480079
O40	O	-0.567477	-1.211019	0.643084
O41	O	-0.234143	-0.877686	0.976417
O42	O	0.099190	-0.544353	1.309751
O43	O	-0.439067	-1.526892	0.797064
O44	O	-0.105733	-1.193559	1.130398
O45	O	0.227600	-0.860225	1.463731
O46	O	-0.736953	-1.488640	0.535656
O47	O	-0.403620	-1.155306	0.868990
O48	O	-0.070286	-0.821973	1.202323
O49	O	-0.736899	-1.359634	0.664689
O50	O	-0.403566	-1.026300	0.998023
O51	O	-0.070233	-0.692967	1.331356
C52	C	-0.503318	-1.181100	0.570380
C53	C	-0.169985	-0.847767	0.903713
C54	C	0.163349	-0.514434	1.237047
C55	C	-0.503338	-1.064321	0.570399
C56	C	-0.170004	-0.730988	0.903732
C57	C	0.163329	-0.397654	1.237065
C58	C	-0.774844	-1.419307	0.605028
C59	C	-0.441511	-1.085974	0.938361
C60	C	-0.108177	-0.752640	1.271695
C61	C	-0.890999	-1.404533	0.619876
C62	C	-0.557665	-1.071200	0.953209
C63	C	-0.224332	-0.737866	1.286543
C64	C	-0.503230	-1.454157	0.844423
C65	C	-0.169897	-1.120824	1.177757
C66	C	0.163436	-0.787491	1.511090
C67	C	-0.503188	-1.454196	0.961194
C68	C	-0.169854	-1.120863	1.294528
C69	C	0.163479	-0.787530	1.627861
C70	C	-0.942776	-1.461832	0.562700
C71	C	-0.609443	-1.128499	0.896034
C72	C	-0.276109	-0.795166	1.229367
C73	C	-1.062828	-1.446564	0.578045
C74	C	-0.729494	-1.113231	0.911379
C75	C	-0.396161	-0.779898	1.244712
C76	C	-0.230757	-1.488989	0.535665
C77	C	0.102576	-1.155656	0.868998
C78	C	0.435910	-0.822323	1.202332
C79	C	-0.114602	-1.503872	0.520862
C80	C	0.218731	-1.170538	0.854195
C81	C	0.552064	-0.837205	1.187528
C82	C	-0.503344	-1.728097	0.570426
C83	C	-0.170011	-1.394764	0.903759
C84	C	0.163322	-1.061431	1.237092
C85	C	-0.503350	-1.844873	0.570436
C86	C	-0.170017	-1.511540	0.903769
C87	C	0.163317	-1.178207	1.237102
C88	C	-0.570253	-1.000932	0.646017
C89	C	-0.236920	-0.667599	0.979350
C90	C	0.096414	-0.334266	1.312684
C91	C	-0.570257	-0.891208	0.646038
C92	C	-0.236924	-0.557874	0.979372
C93	C	0.096410	-0.224541	1.312705
C94	C	-0.436427	-0.908271	0.494813
C95	C	-0.103094	-0.574937	0.828147
C96	C	0.230239	-0.241604	1.161480
C97	C	-0.436419	-1.017994	0.494797
C98	C	-0.103085	-0.684660	0.828131
C99	C	0.230248	-0.351327	1.161464
C100	C	-0.503355	-1.454045	0.297438
C101	C	-0.170022	-1.120712	0.630772
C102	C	0.163311	-0.787378	0.964105
C103	C	-0.503104	-1.454247	0.180630
C104	C	-0.169770	-1.120914	0.513963
C105	C	0.163563	-0.787580	0.847297
C106	C	-0.436342	-1.529962	1.007544
C107	C	-0.103009	-1.196629	1.340878
C108	C	0.230325	-0.863296	1.674211
C109	C	-0.436297	-1.529986	1.117263
C110	C	-0.102964	-1.196652	1.450596
C111	C	0.230370	-0.863319	1.783929
C112	C	-0.569952	-1.378473	1.134273
C113	C	-0.236619	-1.045140	1.467606
C114	C	0.096714	-0.711807	1.800940
C115	C	-0.569991	-1.378446	1.024556
C116	C	-0.236658	-1.045113	1.357889
C117	C	0.096675	-0.711780	1.691222
H118	H	-0.898229	-1.522197	0.502394
H119	H	-0.564896	-1.188863	0.835727
H120	H	-0.231562	-0.855530	1.169060
H121	H	-0.381946	-0.870537	0.433260
H122	H	-0.048613	-0.537204	0.766594
H123	H	0.284721	-0.203870	1.099927
H124	H	-1.070058	-1.564240	0.460551
H125	H	-0.736725	-1.230906	0.793884
H126	H	-0.403391	-0.897573	1.127218
Cl127	Cl	-0.654381	-0.811523	0.741108
Cl128	Cl	-0.321048	-0.478190	1.074441
Cl129	Cl	0.012285	-0.144857	1.407775
H130	H	-0.624740	-1.038649	0.707579
H131	H	-0.291407	-0.705315	1.040912
H132	H	0.041927	-0.371982	1.374245
Cl133	Cl	-0.959770	-1.311345	0.713000
Cl134	Cl	-0.626437	-0.978011	1.046333
Cl135	Cl	-0.293104	-0.644678	1.379666
Cl136	Cl	-1.131596	-1.353372	0.671173
Cl137	Cl	-0.798262	-1.020038	1.004506
Cl138	Cl	-0.464929	-0.686705	1.337840
H139	H	-0.381922	-1.069608	0.433219
H140	H	-0.048588	-0.736275	0.766552
H141	H	0.284745	-0.402941	1.099885
Cl142	Cl	-0.352356	-1.625187	0.927893
Cl143	Cl	-0.019023	-1.291854	1.261227
Cl144	Cl	0.314310	-0.958520	1.594560
H145	H	-0.381863	-1.591680	1.154995
H146	H	-0.048529	-1.258347	1.488328
H147	H	0.284804	-0.925014	1.821662
Cl148	Cl	-0.653935	-1.283255	1.213934
Cl149	Cl	-0.320602	-0.949922	1.547268
Cl150	Cl	0.012732	-0.616588	1.880601
H151	H	-0.624424	-1.316741	0.986817
H152	H	-0.291091	-0.983408	1.320151
H153	H	0.042242	-0.650074	1.653484
