data_functionalizedCrystal
_audit_creation_method	'MofGen! by Chris Wilmer'
_symmetry_space_group_name_H-M	'P1'
_symmetry_Int_Tables_number	1
_symmetry_cell_setting	triclinic
loop_
_symmetry_equiv_pos_as_xyz
  x,y,z
_cell_length_a	14.853567
_cell_length_b	10.723024
_cell_length_c	13.930277
_cell_angle_alpha	89.994160
_cell_angle_beta	89.996364
_cell_angle_gamma	95.948600
loop_
_atom_site_label
_atom_site_type_symbol
_atom_site_fract_x
_atom_site_fract_y
_atom_site_fract_z
O1	O	1.197229	-0.162899	-0.079762
O2	O	0.934872	-0.182306	-0.079778
O3	O	1.072102	0.009035	-0.079766
O4	O	1.059999	-0.354240	-0.079774
O5	O	1.072082	0.009006	0.079896
O6	O	0.934852	-0.182335	0.079884
O7	O	1.197209	-0.162928	0.079900
Zn8	Zn	1.066027	-0.172636	0.105241
Zn9	Zn	1.066054	-0.172598	-0.105120
O10	O	1.059979	-0.354269	0.079888
C11	C	0.901269	-0.181441	0.000051
C12	C	0.801171	-0.178806	0.000044
C13	C	1.071211	0.055511	0.000063
C14	C	1.068576	0.194039	0.000060
N15	N	1.066016	-0.172662	0.248807
C16	C	0.387978	-0.054006	0.000069
C17	C	0.367897	-0.281324	0.000063
C18	C	0.461944	-0.283802	0.000060
C19	C	0.519013	-0.171380	0.000060
C20	C	0.482034	-0.056481	0.000063
C21	C	0.498930	-0.398699	0.000047
C22	C	0.592982	-0.401181	0.000043
C23	C	0.650052	-0.288758	0.000049
C24	C	0.613068	-0.173854	0.000054
C25	C	0.670137	-0.061433	0.000053
C26	C	0.633155	0.053473	0.000064
C27	C	0.539104	0.055942	0.000069
C28	C	0.744103	-0.291228	0.000044
C29	C	0.764192	-0.063907	0.000047
C30	C	1.230812	-0.163793	0.000069
C31	C	1.330910	-0.166428	0.000069
C32	C	1.060870	-0.400745	0.000056
C33	C	1.063505	-0.539273	0.000053
C34	C	1.145363	0.269798	0.000063
C35	C	1.142641	0.412974	0.000060
N36	N	1.066072	-0.172562	-0.248686
C37	C	1.121210	-0.248396	0.701068
C38	C	1.010925	-0.096748	0.701054
C39	C	1.010912	-0.096769	0.600559
C40	C	1.066049	-0.172602	0.550313
C41	C	1.121200	-0.248416	0.600563
C42	C	0.955769	-0.020947	0.550301
C43	C	0.955754	-0.020963	0.449799
C44	C	1.010887	-0.096804	0.399552
C45	C	1.066039	-0.172622	0.449808
C46	C	1.121176	-0.248456	0.399563
C47	C	1.176325	-0.324281	0.449817
C48	C	1.176333	-0.324257	0.550316
C49	C	1.010878	-0.096828	0.299053
C50	C	1.121166	-0.248476	0.299058
H51	H	0.679632	0.145006	0.000058
H52	H	0.910848	0.040778	0.408890
N53	N	0.978823	0.248516	0.000066
H54	H	0.927953	0.178288	0.000067
H55	H	0.974275	0.301902	-0.059123
N56	N	0.896287	0.060815	0.604494
H57	H	0.861347	0.108841	0.557411
H58	H	0.935210	0.121724	0.646186
N59	N	0.348089	0.069916	0.000089
H60	H	0.309512	0.076027	-0.059091
H61	H	0.398562	0.140687	0.000126
N62	N	1.180642	-0.330260	0.244864
H63	H	1.141766	-0.391243	0.203180
H64	H	1.215568	-0.378203	0.292010
N65	N	1.235797	-0.406059	0.395613
H66	H	1.196918	-0.467036	0.353927
H67	H	1.270728	-0.454010	0.442750
H68	H	0.321427	-0.372852	0.000055
H69	H	1.221234	-0.385987	0.591242
N70	N	1.180684	-0.330183	0.755262
H71	H	1.172325	-0.318671	0.826553
H72	H	1.246097	-0.305699	0.737682
H73	H	0.966041	-0.035000	0.741970
H74	H	0.965980	-0.035089	0.258140
H75	H	0.810652	0.027642	0.000051
H76	H	0.452459	-0.490226	0.000037
N77	N	0.499207	0.179858	0.000083
H78	H	0.460635	0.185959	-0.059102
H79	H	0.549673	0.250637	0.000124
N80	N	1.229718	0.499198	0.000072
H81	H	1.232307	0.553865	-0.059115
H82	H	1.282854	0.447568	0.000114
H83	H	1.213118	0.228661	0.000073
H84	H	0.997766	0.395637	0.000057
H85	H	0.623084	-0.494744	0.000034
H86	H	0.774209	-0.384782	0.000037
