data_functionalizedCrystal
_audit_creation_method	'MofGen! by Chris Wilmer'
_symmetry_space_group_name_H-M	'P1'
_symmetry_Int_Tables_number	1
_symmetry_cell_setting	triclinic
loop_
_symmetry_equiv_pos_as_xyz
  x,y,z
_cell_length_a	12.827893
_cell_length_b	16.120507
_cell_length_c	12.827885
_cell_angle_alpha	92.861764
_cell_angle_beta	90.019272
_cell_angle_gamma	87.066230
loop_
_atom_site_label
_atom_site_type_symbol
_atom_site_fract_x
_atom_site_fract_y
_atom_site_fract_z
Zn1	Zn	1.576443	0.331868	0.611880
Zn2	Zn	1.567419	0.471303	0.445976
Zn3	Zn	1.401682	0.331908	0.437156
Zn4	Zn	1.392755	0.471241	0.620672
O5	O	1.484575	0.401580	0.528921
O6	O	1.721481	0.350373	0.589884
O7	O	1.545392	0.452855	0.298573
O8	O	1.432377	0.215237	0.452962
O9	O	1.714851	0.452816	0.467995
O10	O	1.560773	0.215207	0.581331
O11	O	1.423626	0.350442	0.292092
O12	O	1.254262	0.350382	0.461488
O13	O	1.417163	0.452710	0.765739
O14	O	1.247704	0.452750	0.596317
O15	O	1.552117	0.350313	0.759279
O16	O	1.536736	0.587961	0.476521
O17	O	1.408412	0.587915	0.604870
C18	C	1.213066	0.401564	0.528900
C19	C	1.096912	0.401577	0.528917
C20	C	1.041904	0.452311	0.595542
C21	C	0.921853	0.452326	0.595561
C22	C	1.470655	0.618188	0.542629
C23	C	1.464795	0.710854	0.548529
C24	C	1.515066	0.921799	0.498479
C25	C	1.454117	0.880511	0.559311
C26	C	1.460060	0.786105	0.553310
C27	C	1.509124	1.016213	0.504478
C28	C	1.757144	0.401597	0.528943
C29	C	1.873296	0.401604	0.528952
C30	C	1.484651	0.401500	0.801486
C31	C	1.484683	0.401466	0.917637
C32	C	1.498537	1.184126	0.515166
C33	C	1.504384	1.091460	0.509264
C34	C	1.484563	0.401600	0.257412
C35	C	1.484748	0.401399	0.141247
C36	C	1.551471	0.350787	0.966225
C37	C	1.551506	0.350750	1.086273
H38	H	1.083688	0.495732	0.652571
H39	H	1.608620	0.307422	0.918947
H40	H	1.427569	0.444793	1.099458
H41	H	0.874560	0.495763	0.652598
H42	H	1.608688	0.307365	1.128070
H43	H	1.055128	0.358150	0.471896
Cl44	Cl	0.946300	0.334542	0.440873
Cl45	Cl	1.366658	0.935398	0.646673
Cl46	Cl	1.602512	0.866911	0.411115
H47	H	1.427524	0.444822	0.964914
