data_functionalizedCrystal
_audit_creation_method	'MofGen! by Chris Wilmer'
_symmetry_space_group_name_H-M	'P1'
_symmetry_Int_Tables_number	1
_symmetry_cell_setting	triclinic
loop_
_symmetry_equiv_pos_as_xyz
  x,y,z
_cell_length_a	14.395555
_cell_length_b	31.640172
_cell_length_c	14.395555
_cell_angle_alpha	89.993580
_cell_angle_beta	120.001333
_cell_angle_gamma	60.005475
loop_
_atom_site_label
_atom_site_type_symbol
_atom_site_fract_x
_atom_site_fract_y
_atom_site_fract_z
Zr1	Zr	1.016662	-0.055427	-0.894980
O2	O	1.210458	-0.122917	-0.746647
O3	O	0.822866	-0.034738	-0.940448
O4	O	1.016638	-0.122907	-0.940451
O5	O	1.016706	0.034801	-0.746646
O6	O	1.016618	-0.122900	-1.093331
O7	O	1.016687	-0.034748	-0.746644
O8	O	0.669997	0.034819	-1.093326
O9	O	1.363328	-0.122918	-0.746652
O10	O	0.902563	-0.025909	-1.073937
O11	O	0.902592	0.025988	-0.959846
O12	O	1.130733	-0.077819	-0.959850
O13	O	1.130761	-0.025921	-0.845758
Zr14	Zr	1.016662	0.055505	-1.138810
Zr15	Zr	1.016631	-0.055417	-1.138807
Zr16	Zr	1.016693	0.055494	-0.894983
Zr17	Zr	1.260471	-0.055429	-0.894987
Zr18	Zr	0.772853	0.055507	-1.138803
O19	O	1.210458	0.034815	-1.093342
O20	O	1.210414	-0.122901	-1.093337
O21	O	1.210502	0.034799	-0.746652
O22	O	0.822866	0.122994	-1.287143
O23	O	0.822822	-0.034722	-1.287138
O24	O	0.822910	0.122979	-0.940453
O25	O	1.016618	-0.034723	-1.287144
O26	O	1.016686	0.122984	-1.093339
O27	O	1.016706	0.122977	-0.940459
O28	O	1.016637	0.034825	-1.287146
O29	O	1.363303	-0.122909	-0.940461
O30	O	0.670021	0.122986	-1.093329
O31	O	0.669996	0.122995	-1.287138
O32	O	0.669972	0.034827	-1.287136
O33	O	1.363352	-0.034750	-0.746655
O34	O	1.363327	-0.034741	-0.940464
O35	O	0.902591	0.077897	-1.073941
O36	O	0.902563	0.025999	-1.188032
O37	O	1.130732	-0.025911	-1.073944
O38	O	1.130761	0.025987	-0.959853
C39	C	0.711694	0.000041	-1.016886
C40	C	0.608190	0.000042	-1.016883
C41	C	0.547614	0.028340	-0.954679
C42	C	0.561863	-0.020467	-0.909593
C43	C	0.409546	0.048834	-1.061941
C44	C	0.623865	-0.048795	-0.971734
C45	C	0.471486	0.020542	-1.124142
C46	C	0.485781	-0.028295	-1.079083
C47	C	1.016624	-0.138707	-1.016891
C48	C	1.016611	-0.185796	-1.016889
C49	C	1.135777	-0.504928	-0.957353
C50	C	1.135799	-0.681923	-0.957354
O51	O	1.237092	-0.727854	-0.906748
N52	N	1.016698	-0.676957	-1.016905
C53	C	0.897582	-0.627737	-1.076465
O54	O	0.796280	-0.627574	-1.127126
C55	C	0.897561	-0.450743	-1.076470
C56	C	1.016670	-0.455713	-1.016906
C57	C	1.254876	-0.509896	-0.897795
C58	C	1.254869	-0.465649	-0.897790
C59	C	1.135763	-0.416435	-0.957343
C60	C	1.016663	-0.411467	-1.016901
C61	C	0.778447	-0.401524	-1.136036
C62	C	0.778452	-0.357275	-1.136034
C63	C	0.897561	-0.362245	-1.076471
C64	C	0.897550	-0.318006	-1.076449
N65	N	1.016651	-0.322972	-1.016899
C66	C	1.135758	-0.372186	-0.957346
C67	C	0.897602	-0.720664	-1.076457
C68	C	0.897607	-0.764912	-1.076454
C69	C	1.135825	-0.819095	-0.957345
C70	C	1.135818	-0.774845	-0.957341
C71	C	1.016703	-0.725630	-1.016906
C72	C	1.135734	-0.279264	-0.957340
C73	C	1.135717	-0.235011	-0.957336
C74	C	0.897500	-0.180832	-1.076450
C75	C	0.897517	-0.225080	-1.076449
C76	C	1.016645	-0.274298	-1.016892
O77	O	0.796310	-0.272060	-1.127040
O78	O	1.237045	-0.372338	-0.906713
C79	C	1.135784	-0.549174	-0.957358
C80	C	1.016684	-0.544206	-1.016916
C81	C	0.897578	-0.494991	-1.076469
C82	C	1.016689	-0.588454	-1.016913
C83	C	1.135795	-0.637669	-0.957360
C84	C	1.254897	-0.642635	-0.897809
C85	C	1.254890	-0.598389	-0.897805
C86	C	0.778476	-0.490025	-1.136019
C87	C	0.778493	-0.534274	-1.136018
C88	C	0.897599	-0.583489	-1.076465
C89	C	1.321630	0.000037	-1.016904
C90	C	1.425134	0.000036	-1.016907
C91	C	1.016701	0.000025	-0.711905
C92	C	1.016714	0.000020	-0.608394
C93	C	1.016700	0.138785	-1.016899
C94	C	1.016713	0.185874	-1.016901
C95	C	1.141127	-0.028280	-0.485597
C96	C	1.078931	-0.048787	-0.454758
C97	C	1.078921	0.020520	-0.454803
C98	C	0.954517	-0.020515	-0.578919
C99	C	0.954525	0.048819	-0.578960
C100	C	0.892237	0.028324	-0.548194
C101	C	1.016644	0.000047	-0.321875
C102	C	1.016692	0.000036	-0.425354
C103	C	0.711655	0.000055	-1.321876
C104	C	0.608138	0.000060	-1.425384
C105	C	0.711732	0.138787	-1.016890
C106	C	0.608242	0.185876	-1.016889
C107	C	0.711693	0.138800	-1.321880
C108	C	0.608190	0.185895	-1.425389
C109	C	1.321631	-0.138723	-0.711910
C110	C	1.425134	-0.185817	-0.608401
C111	C	1.321669	0.000023	-0.711914
C112	C	1.425186	0.000018	-0.608407
C113	C	1.321592	-0.138709	-1.016900
C114	C	1.425082	-0.185799	-1.016902
C115	C	0.559642	0.235090	-1.076444
C116	C	0.462415	0.279341	-1.076438
C117	C	0.413784	0.274375	-1.016883
C118	C	0.462394	0.225156	-0.957320
C119	C	0.559625	0.180907	-0.957320
C120	C	0.559568	0.180921	-1.533563
C121	C	0.462329	0.225167	-1.630830
C122	C	0.413707	0.274386	-1.619921
C123	C	0.462338	0.279359	-1.511736
C124	C	0.559582	0.235114	-1.414471
C125	C	1.473768	-0.180843	-0.500227
C126	C	1.571037	-0.225089	-0.402960
C127	C	1.619664	-0.274309	-0.413869
C128	C	1.571027	-0.279282	-0.522054
C129	C	1.473766	-0.235036	-0.619319
C130	C	1.473682	-0.180817	-1.076468
C131	C	1.570910	-0.225059	-1.076492
C132	C	1.619541	-0.274282	-1.016942
C133	C	1.570932	-0.279262	-0.957373
C134	C	1.473699	-0.235021	-0.957357
C135	C	0.547574	0.028350	-1.548182
C136	C	0.409468	0.048850	-1.579041
C137	C	0.561853	-0.020459	-1.578950
C138	C	0.471332	0.020588	-1.454879
C139	C	0.623791	-0.048748	-1.454791
C140	C	0.485694	-0.028261	-1.485576
H141	H	0.574853	0.052236	-0.902004
Br142	Br	0.396348	0.218405	-1.777638
Br143	Br	1.637021	-0.218328	-0.256152
H144	H	0.458674	-0.052198	-1.459917
Br145	Br	0.396379	0.218427	-0.876501
H146	H	0.901996	0.090072	-0.632476
H147	H	0.599083	-0.037797	-1.632427
Br148	Br	1.407704	-0.114020	-1.157296
Br149	Br	0.716809	0.068182	-0.590835
H150	H	0.422848	0.319413	-1.124945
H151	H	0.599054	-0.037812	-0.818894
Br152	Br	0.776570	-0.117499	-1.365550
Br153	Br	1.166612	0.049405	-0.365620
Br154	Br	0.281826	0.334434	-1.016894
Br155	Br	0.735952	-0.758159	-1.157270
H156	H	0.599157	0.239171	-1.326395
H157	H	0.422735	0.319440	-1.502871
H158	H	0.599226	0.239143	-1.124941
H159	H	1.698860	-0.310332	-0.334661
Br160	Br	0.625566	0.114118	-0.876491
H161	H	0.599142	0.140847	-1.542467
Br162	Br	0.281731	0.334429	-1.751936
Br163	Br	0.409528	0.049470	-1.275282
Br164	Br	0.776463	-0.117608	-0.908064
H165	H	1.246324	-0.052247	-0.460155
H166	H	1.434180	-0.140770	-0.491323
Br167	Br	1.637033	-0.346084	-0.536840
Br168	Br	0.256869	0.117612	-1.125440
Br169	Br	1.297471	-0.781597	-0.876506
H170	H	0.574649	0.052322	-1.573626
Br171	Br	1.297409	-0.346052	-0.876512
H172	H	1.434170	-0.239093	-0.707396
Br173	Br	1.636865	-0.218287	-1.157336
Br174	Br	1.751503	-0.334319	-1.016974
H175	H	1.610543	-0.319346	-0.908889
H176	H	1.434140	-0.239085	-0.908845
H177	H	0.901964	-0.037893	-0.632278
Br178	Br	0.256737	0.117615	-1.668273
H179	H	0.458824	-0.052262	-1.131685
Br180	Br	1.297376	-0.241761	-0.876482
H181	H	1.351860	-0.469703	-0.849293
H182	H	0.433926	0.037970	-1.401538
H183	H	1.351872	-0.549966	-0.849300
H184	H	1.232806	-0.859174	-0.908849
H185	H	0.681455	-0.397467	-1.184541
Br186	Br	0.735930	-0.653873	-1.157278
H187	H	0.681452	-0.317202	-1.184541
H188	H	0.800527	-0.140754	-1.124933
Br189	Br	1.416547	-0.605143	-0.816952
Br190	Br	0.735868	-0.218336	-1.157271
H191	H	1.351878	-0.682714	-0.849313
H192	H	0.681492	-0.530218	-1.184518
H193	H	1.131505	-0.090049	-0.401239
Br194	Br	0.616815	-0.423237	-1.216829
