data_functionalizedCrystal
_audit_creation_method	'MofGen! by Chris Wilmer'
_symmetry_space_group_name_H-M	'P1'
_symmetry_Int_Tables_number	1
_symmetry_cell_setting	triclinic
loop_
_symmetry_equiv_pos_as_xyz
  x,y,z
_cell_length_a	13.033293
_cell_length_b	13.033429
_cell_length_c	12.759400
_cell_angle_alpha	97.215477
_cell_angle_beta	82.815387
_cell_angle_gamma	90.866667
loop_
_atom_site_label
_atom_site_type_symbol
_atom_site_fract_x
_atom_site_fract_y
_atom_site_fract_z
Zn1	Zn	1.498541	-0.781535	0.127233
Zn2	Zn	1.520277	-0.609557	0.322142
Zn3	Zn	1.348385	-0.587700	0.171197
Zn4	Zn	1.326542	-0.759607	0.327611
O5	O	1.423436	-0.684600	0.237046
O6	O	1.645344	-0.777046	0.132400
O7	O	1.515713	-0.462741	0.318229
O8	O	1.368348	-0.613442	0.018334
O9	O	1.661313	-0.650695	0.275599
O10	O	1.478667	-0.755852	-0.013966
O11	O	1.389425	-0.446682	0.207330
O12	O	1.201568	-0.592179	0.212633
O13	O	1.331120	-0.906432	0.284920
O14	O	1.185520	-0.718478	0.327551
O15	O	1.457487	-0.922543	0.137703
O16	O	1.494533	-0.629432	0.469898
O17	O	1.352196	-0.739673	0.473917
C18	C	1.156227	-0.650578	0.275457
C19	C	1.041911	-0.636048	0.291912
C20	C	1.389442	-0.952847	0.207018
C21	C	1.374956	-1.067158	0.194222
C22	C	1.416017	-1.244211	0.230176
C23	C	1.430989	-1.126064	0.243396
C24	C	0.983031	-0.692183	0.228484
C25	C	0.864879	-0.677167	0.245490
C26	C	1.691688	-0.718755	0.198485
C27	C	1.806001	-0.733309	0.182053
C28	C	1.423378	-0.684570	0.510024
C29	C	1.423443	-0.684604	0.626788
C30	C	1.457357	-0.417403	0.266873
C31	C	1.472043	-0.303118	0.279344
C32	C	1.423520	-0.684655	-0.037005
C33	C	1.423555	-0.684679	-0.153790
C34	C	1.497621	-0.627284	0.679505
C35	C	1.497680	-0.627324	0.789216
C36	C	1.349373	-0.742006	0.793486
C37	C	1.349320	-0.741971	0.683775
C38	C	1.583242	-0.561069	0.677041
C39	C	1.583301	-0.561109	0.786752
H40	H	1.490048	-1.089035	0.295276
H41	H	1.288926	-0.788656	0.640852
N42	N	1.337775	-1.293250	0.161473
H43	H	1.338160	-1.370698	0.161780
H44	H	1.266685	-1.265158	0.190491
H45	H	1.315906	-1.104187	0.142330
N46	N	1.550271	-1.254075	0.348061
H47	H	1.549850	-1.176623	0.347793
H48	H	1.531910	-1.270772	0.423314
N49	N	1.678725	-0.611721	0.813108
H50	H	1.717495	-0.560125	0.859336
H51	H	1.657721	-0.672789	0.852465
N52	N	1.568525	-0.452010	0.842139
H53	H	1.503717	-0.448354	0.894917
H54	H	1.630134	-0.431358	0.880821
N55	N	1.032108	-0.770590	0.139890
H56	H	1.109554	-0.770213	0.140309
H57	H	1.004082	-0.841642	0.150842
H58	H	0.843058	-0.792485	0.115151
N59	N	0.815806	-0.598765	0.334097
H60	H	0.738359	-0.599148	0.333683
H61	H	0.832510	-0.617005	0.404706
H62	H	1.004849	-0.576870	0.358802
N63	N	1.269430	-0.803878	0.854951
H64	H	1.280720	-0.795205	0.932451
H65	H	1.198017	-0.778456	0.848203
H66	H	1.660153	-0.592593	0.633346
N67	N	1.558216	-0.456007	0.648671
H68	H	1.546165	-0.405268	0.715658
H69	H	1.617913	-0.431543	0.599587
