data_functionalizedCrystal
_audit_creation_method	'MofGen! by Chris Wilmer'
_symmetry_space_group_name_H-M	'P1'
_symmetry_Int_Tables_number	1
_symmetry_cell_setting	triclinic
loop_
_symmetry_equiv_pos_as_xyz
  x,y,z
_cell_length_a	11.026607
_cell_length_b	14.853567
_cell_length_c	10.065875
_cell_angle_alpha	98.805381
_cell_angle_beta	79.302338
_cell_angle_gamma	96.110474
loop_
_atom_site_label
_atom_site_type_symbol
_atom_site_fract_x
_atom_site_fract_y
_atom_site_fract_z
O1	O	1.628533	0.367252	-0.113466
O2	O	1.275155	0.324252	-0.113471
O3	O	1.461284	0.216045	-0.113472
O4	O	1.442404	0.475459	-0.113464
O5	O	1.425792	0.236785	0.113517
O6	O	1.239663	0.344992	0.113518
O7	O	1.593041	0.387992	0.113524
Zn8	Zn	1.410717	0.369785	0.149560
Zn9	Zn	1.457479	0.342459	-0.149507
O10	O	1.406912	0.496199	0.113525
C11	C	1.212185	0.326689	0.000023
C12	C	1.077432	0.303041	0.000021
C13	C	1.442683	0.192688	0.000018
C14	C	1.440122	0.092190	0.000007
C15	C	1.003736	0.368337	0.000022
C16	C	0.864461	0.343897	0.000019
C17	C	1.318718	-0.339931	0.000031
C18	C	1.539843	-0.325531	0.000034
C19	C	1.542254	-0.231109	0.000026
C20	C	1.432895	-0.191094	0.000022
C21	C	1.321126	-0.245500	0.000027
C22	C	1.654020	-0.176694	0.000035
C23	C	1.656436	-0.082266	0.000029
C24	C	1.547077	-0.042250	0.000016
C25	C	1.435303	-0.096663	0.000019
C26	C	1.325944	-0.056648	0.000015
C27	C	1.214170	-0.111060	0.000008
C28	C	1.211767	-0.205484	0.000014
C29	C	1.549480	0.052174	0.000010
C30	C	1.328352	0.037783	0.000011
C31	C	1.656012	0.385555	0.000027
C32	C	1.790767	0.409202	0.000020
C33	C	1.425514	0.519556	0.000031
C34	C	1.428077	0.620053	0.000034
N35	N	1.378812	0.388434	0.353666
N36	N	1.489394	0.323804	-0.353613
C37	C	1.446371	0.348941	0.421444
C38	C	1.421825	0.363303	0.578612
H39	H	0.824456	0.269894	-0.000018
H40	H	1.743051	-0.209281	0.000051
N41	N	1.024451	0.205021	0.000011
H42	H	1.039537	0.181656	0.084155
H43	H	0.932485	0.201524	-0.000042
N44	N	1.776993	-0.023593	0.000018
H45	H	1.796077	0.008209	-0.084133
H46	H	1.769692	0.023548	0.084212
N47	N	1.590082	0.264925	0.569141
H48	H	1.653237	0.302641	0.509842
H49	H	1.631699	0.240552	0.636050
H50	H	1.345804	0.407746	0.636933
N51	N	1.278114	0.447300	0.430910
H52	H	1.274851	0.449213	0.532237
H53	H	1.296351	0.511283	0.406008
N54	N	1.096227	-0.067882	0.000031
H55	H	1.105456	-0.036706	-0.084106
H56	H	1.025104	-0.116715	0.000084
N57	N	1.056731	0.466353	0.000013
H58	H	0.988416	0.506570	0.000012
H59	H	1.095497	0.486690	0.084162
N60	N	0.843765	0.507221	0.000012
H61	H	0.828681	0.530583	-0.084135
H62	H	0.802349	0.545900	0.084210
H63	H	1.640484	0.096473	0.000025
N64	N	1.547030	0.290041	0.344200
H65	H	1.550283	0.288119	0.242874
H66	H	1.629368	0.316540	0.369069
N67	N	1.210401	0.080939	-0.000004
H68	H	1.139235	0.032140	-0.000009
H69	H	1.193420	0.127492	0.084144
H70	H	1.120766	-0.249794	0.000010
H71	H	1.227715	-0.384238	0.000020
H72	H	1.628875	-0.358117	0.000048
