data_functionalizedCrystal
_audit_creation_method	'MofGen! by Chris Wilmer'
_symmetry_space_group_name_H-M	'P1'
_symmetry_Int_Tables_number	1
_symmetry_cell_setting	triclinic
loop_
_symmetry_equiv_pos_as_xyz
  x,y,z
_cell_length_a	9.065215
_cell_length_b	15.186229
_cell_length_c	9.065218
_cell_angle_alpha	89.998095
_cell_angle_beta	85.015325
_cell_angle_gamma	89.997386
loop_
_atom_site_label
_atom_site_type_symbol
_atom_site_fract_x
_atom_site_fract_y
_atom_site_fract_z
O1	O	-1.960402	0.073210	-0.216336
O2	O	-1.460402	0.573210	0.283664
O3	O	-1.531116	0.073215	-0.234086
O4	O	-1.031116	0.573215	0.265914
O5	O	-1.754632	0.073211	-0.010569
O6	O	-1.254632	0.573211	0.489431
O7	O	-1.736886	0.073214	-0.439854
O8	O	-1.236886	0.573214	0.060146
O9	O	-1.754617	-0.073247	-0.010565
O10	O	-1.254617	0.426753	0.489435
O11	O	-1.531101	-0.073243	-0.234083
O12	O	-1.031101	0.426757	0.265917
O13	O	-1.960386	-0.073247	-0.216332
O14	O	-1.460386	0.426753	0.283668
Zn15	Zn	-1.745741	-0.096498	-0.225207
Zn16	Zn	-1.245741	0.403502	0.274793
Zn17	Zn	-1.745761	0.096466	-0.225212
Zn18	Zn	-1.245761	0.596466	0.274788
O19	O	-1.736870	-0.073243	-0.439850
O20	O	-1.236870	0.426757	0.060150
C21	C	-1.476122	-0.000013	-0.232380
C22	C	-0.976122	0.499987	0.267620
C23	C	-1.312279	-0.000011	-0.227282
C24	C	-0.812279	0.499989	0.272718
N25	N	-1.745738	-0.228191	-0.225203
N26	N	-1.245738	0.271809	0.274797
C27	C	-1.844746	-0.453915	-0.126264
C28	C	-1.344746	0.046085	0.373736
C29	C	-1.844750	-0.546105	-0.126260
C30	C	-1.344750	-0.046105	0.373740
C31	C	-1.646758	-0.546110	-0.324148
C32	C	-1.146758	-0.046110	0.175852
C33	C	-1.646747	-0.453922	-0.324143
C34	C	-1.146747	0.046078	0.175857
C35	C	-1.745749	-0.407827	-0.225203
C36	C	-1.245749	0.092173	0.274797
C37	C	-1.745765	-0.592205	-0.225204
C38	C	-1.245765	-0.092205	0.274796
C39	C	-1.745769	-0.692161	-0.225201
C40	C	-1.245769	-0.192161	0.274799
C41	C	-1.745744	-0.307865	-0.225203
C42	C	-1.245744	0.192135	0.274797
C43	C	-1.015381	-0.000017	-0.218039
C44	C	-0.515381	0.499983	0.281961
C45	C	-1.179224	-0.000011	-0.223136
C46	C	-0.679224	0.499989	0.276864
C47	C	-1.752919	-0.000017	0.044420
C48	C	-1.252919	0.499983	0.544420
C49	C	-1.747819	-0.000012	0.208263
C50	C	-1.247819	0.499988	0.708263
N51	N	-1.745776	0.228158	-0.225204
N52	N	-1.245776	0.728158	0.274796
C53	C	-1.738584	-0.000014	-0.494838
C54	C	-1.238584	0.499986	0.005162
C55	C	-1.743683	-0.000012	-0.658681
C56	C	-1.243683	0.499988	-0.158681
H57	H	-1.925358	-0.416387	-0.045699
H58	H	-1.425358	0.083613	0.454301
H59	H	-1.566125	-0.416395	-0.404712
H60	H	-1.066125	0.083605	0.095288
H61	H	-1.925360	-0.583628	-0.045694
H62	H	-1.425360	-0.083628	0.454306
C63	C	-1.537878	-0.596818	-0.432987
C64	C	-1.037878	-0.096818	0.067013
H65	H	-1.552072	-0.658323	-0.418832
H66	H	-1.052072	-0.158323	0.081168
H67	H	-1.439186	-0.581720	-0.415599
H68	H	-0.939186	-0.081720	0.084401
H69	H	-1.555229	-0.581701	-0.531691
H70	H	-1.055229	-0.081701	-0.031691
