data_functionalizedCrystal
_audit_creation_method	'MofGen! by Chris Wilmer'
_symmetry_space_group_name_H-M	'P1'
_symmetry_Int_Tables_number	1
_symmetry_cell_setting	triclinic
loop_
_symmetry_equiv_pos_as_xyz
  x,y,z
_cell_length_a	14.971482
_cell_length_b	9.065215
_cell_length_c	13.448316
_cell_angle_alpha	89.994392
_cell_angle_beta	89.993798
_cell_angle_gamma	84.313653
loop_
_atom_site_label
_atom_site_type_symbol
_atom_site_fract_x
_atom_site_fract_y
_atom_site_fract_z
O1	O	1.188381	0.192236	-0.082677
O2	O	0.928152	0.215265	-0.082681
O3	O	1.063647	-0.011002	-0.082675
O4	O	1.052886	0.418502	-0.082684
O5	O	1.063629	-0.011016	0.082709
O6	O	0.928134	0.215251	0.082702
O7	O	1.188364	0.192222	0.082707
Cu8	Cu	1.058247	0.203735	0.097805
Cu9	Cu	1.058268	0.203752	-0.097780
O10	O	1.052869	0.418488	0.082700
C11	C	0.894811	0.214229	0.000010
C12	C	0.795491	0.211146	0.000008
C13	C	0.748826	0.209686	0.090160
C14	C	0.655505	0.206765	0.090161
C15	C	0.608851	0.205315	0.000009
C16	C	0.655523	0.206770	-0.090149
C17	C	0.748842	0.209680	-0.090150
C18	C	0.461016	0.200708	-0.090143
C19	C	0.367690	0.197801	-0.090143
C20	C	0.367679	0.197793	0.090168
C21	C	0.460998	0.200703	0.090168
C22	C	0.507663	0.202161	0.000008
C23	C	1.062604	-0.065974	0.000016
C24	C	1.059514	-0.229755	0.000013
C25	C	1.221705	0.193257	0.000013
C26	C	1.321025	0.196341	0.000009
C27	C	1.053911	0.473461	0.000007
C28	C	1.057001	0.637241	0.000004
N29	N	1.058240	0.203723	0.235370
N30	N	1.058283	0.203752	-0.235344
C31	C	1.118256	0.103573	0.287413
C32	C	1.118261	0.103572	0.391516
C33	C	1.058254	0.203728	0.443574
C34	C	0.998232	0.303883	0.391524
C35	C	0.998222	0.303876	0.287422
C36	C	0.998257	0.303893	0.608504
C37	C	0.998267	0.303902	0.712612
C38	C	1.118296	0.103589	0.712598
C39	C	1.118286	0.103582	0.608496
C40	C	1.058264	0.203738	0.556453
H41	H	0.499008	0.201896	-0.163560
C42	C	0.768561	0.337330	-0.243834
C43	C	0.800143	0.211299	-0.189245
H44	H	0.800237	0.338327	-0.305009
H45	H	0.706316	0.335378	-0.256737
H46	H	0.777727	0.423758	-0.206780
H47	H	0.790971	0.124870	-0.226296
H48	H	0.862402	0.213237	-0.176344
C49	C	1.135781	-0.097471	0.491733
C50	C	1.184130	-0.006870	0.551407
H51	H	1.176397	-0.165762	0.456525
H52	H	1.098015	-0.150266	0.532454
H53	H	1.100151	-0.037827	0.445735
H54	H	1.219756	-0.066514	0.597410
H55	H	1.221912	0.045929	0.510682
H56	H	1.167124	0.022020	0.245034
C57	C	0.879621	0.501916	0.618970
C58	C	0.932284	0.413994	0.551296
H59	H	0.838901	0.569895	0.583649
H60	H	0.846953	0.440424	0.659582
H61	H	0.917295	0.555078	0.659563
H62	H	0.894610	0.360823	0.510707
H63	H	0.964955	0.475494	0.510666
H64	H	1.167167	0.022038	0.754978
C65	C	0.879589	0.501890	0.297887
C66	C	0.932255	0.413970	0.230212
H67	H	0.838865	0.569861	0.262566
H68	H	0.846926	0.440394	0.338502
H69	H	0.917262	0.555059	0.338477
H70	H	0.894583	0.360792	0.189626
H71	H	0.964920	0.475474	0.189580
H72	H	1.167130	0.022022	0.433890
C73	C	0.664866	0.207081	0.268387
C74	C	0.604210	0.205175	0.189259
H75	H	0.633196	0.206109	0.329568
H76	H	0.707391	0.122255	0.264645
H77	H	0.695136	0.294189	0.264619
H78	H	0.573945	0.118061	0.193023
H79	H	0.561670	0.290009	0.193003
H80	H	0.329706	0.196621	-0.163553
H81	H	0.786804	0.210879	0.163572
C82	C	0.224631	0.193270	0.170241
C83	C	0.316391	0.196155	0.189274
H84	H	0.192968	0.192248	0.231423
H85	H	0.203209	0.278760	0.133211
H86	H	0.215487	0.106827	0.133192
H87	H	0.325536	0.282604	0.226316
H88	H	0.337820	0.110657	0.226319
H89	H	0.498981	0.201893	0.163577
H90	H	0.949402	0.385458	0.754993
C91	C	0.541556	0.330241	-0.194753
C92	C	0.604241	0.205182	-0.189247
H93	H	0.509903	0.329266	-0.255937
H94	H	0.500413	0.328944	-0.141068
H95	H	0.571845	0.417329	-0.191007
H96	H	0.573951	0.118093	-0.192987
H97	H	0.645390	0.206466	-0.242947
H98	H	0.949368	0.385427	0.433915
