data_functionalizedCrystal
_audit_creation_method	'MofGen! by Chris Wilmer'
_symmetry_space_group_name_H-M	'P1'
_symmetry_Int_Tables_number	1
_symmetry_cell_setting	triclinic
loop_
_symmetry_equiv_pos_as_xyz
  x,y,z
_cell_length_a	13.032831
_cell_length_b	16.959454
_cell_length_c	13.034356
_cell_angle_alpha	97.208019
_cell_angle_beta	105.184960
_cell_angle_gamma	82.825094
loop_
_atom_site_label
_atom_site_type_symbol
_atom_site_fract_x
_atom_site_fract_y
_atom_site_fract_z
Zn1	Zn	1.700172	-0.400712	0.806468
Zn2	Zn	2.200172	0.099288	1.306468
Zn3	Zn	1.677480	-0.547793	0.628847
Zn4	Zn	2.177480	-0.047793	1.128847
Zn5	Zn	1.499977	-0.400719	0.606350
Zn6	Zn	1.999977	0.099281	1.106350
Zn7	Zn	1.522511	-0.517930	0.783898
Zn8	Zn	2.022511	-0.017930	1.283898
O9	O	1.600035	-0.466789	0.706391
O10	O	2.100035	0.033211	1.206391
O11	O	1.845799	-0.432717	0.801767
O12	O	2.345799	0.067283	1.301767
O13	O	1.635006	-0.540784	0.477224
O14	O	2.135006	-0.040784	0.977224
O15	O	1.526600	-0.290110	0.632927
O16	O	2.026600	0.209890	1.132927
O17	O	1.829127	-0.540777	0.671270
O18	O	2.329127	-0.040777	1.171270
O19	O	1.673682	-0.290105	0.779952
O20	O	2.173682	0.209895	1.279952
O21	O	1.504596	-0.432729	0.460695
O22	O	2.004596	0.067271	0.960695
O23	O	1.354329	-0.403772	0.611042
O24	O	1.854329	0.096228	1.111042
O25	O	1.565006	-0.489881	0.935532
O26	O	2.065006	0.010119	1.435532
O27	O	1.370885	-0.489887	0.741486
O28	O	1.870885	0.010113	1.241486
O29	O	1.695533	-0.403761	0.952113
O30	O	2.195533	0.096239	1.452113
O31	O	1.656857	-0.654439	0.649385
O32	O	2.156857	-0.154439	1.149385
O33	O	1.543002	-0.632499	0.763300
O34	O	2.043002	-0.132499	1.263300
C35	C	1.324067	-0.443591	0.671374
C36	C	1.824067	0.056409	1.171374
C37	C	1.206010	-0.433683	0.656419
C38	C	1.706010	0.066317	1.156419
C39	C	1.161583	-0.471959	0.714196
C40	C	1.661583	0.028041	1.214196
C41	C	1.039565	-0.461721	0.698741
C42	C	1.539565	0.038279	1.198741
C43	C	1.599944	-0.672149	0.706362
C44	C	2.099944	-0.172149	1.206362
C45	C	1.600006	-0.760008	0.706397
C46	C	2.100006	-0.260008	1.206397
C47	C	1.540849	-1.120102	0.765712
C48	C	2.040849	-0.620102	1.265712
C49	C	1.659531	-1.142888	0.647216
C50	C	2.159531	-0.642888	1.147216
C51	C	1.659493	-1.060340	0.647201
C52	C	2.159493	-0.560340	1.147201
C53	C	1.600130	-1.007669	0.706442
C54	C	2.100130	-0.507669	1.206442
C55	C	1.540806	-1.037546	0.765697
C56	C	2.040806	-0.537546	1.265697
C57	C	1.718808	-1.030457	0.587939
C58	C	2.218808	-0.530457	1.087939
C59	C	1.718771	-0.947904	0.587921
C60	C	2.218771	-0.447904	1.087921
C61	C	1.659413	-0.895231	0.647168
C62	C	2.159413	-0.395231	1.147168
C63	C	1.600087	-0.925112	0.706427
C64	C	2.100087	-0.425112	1.206427
C65	C	1.540725	-0.872441	0.765667
C66	C	2.040725	-0.372441	1.265667
C67	C	1.481404	-0.902321	0.824932
C68	C	1.981404	-0.402321	1.324932
C69	C	1.481448	-0.984873	0.824944
C70	C	1.981448	-0.484873	1.324944
C71	C	1.659369	-0.812679	0.647156
C72	C	2.159369	-0.312679	1.147156
C73	C	1.540682	-0.789885	0.765652
C74	C	2.040682	-0.289885	1.265652
C75	C	1.877081	-0.490078	0.741545
C76	C	2.377081	0.009922	1.241545
C77	C	1.995141	-0.500002	0.756526
C78	C	2.495141	-0.000002	1.256526
C79	C	1.635314	-0.443489	0.983440
C80	C	2.135314	0.056511	1.483440
C81	C	1.650348	-0.433560	1.101502
C82	C	2.150348	0.066440	1.601502
C83	C	1.600159	-0.260627	0.706447
C84	C	2.100159	0.239373	1.206447
C85	C	1.600211	-0.172773	0.706471
C86	C	2.100211	0.327227	1.206471
C87	C	1.564954	-0.489946	0.430427
C88	C	2.064954	0.010054	0.930427
C89	C	1.550126	-0.499669	0.312392
C90	C	2.050126	0.000331	0.812392
C91	C	1.608004	-0.461486	1.267957
C92	C	2.108004	0.038514	1.767957
C93	C	1.592463	-0.471748	1.145934
C94	C	2.092463	0.028252	1.645934
H95	H	1.153712	-0.393330	0.595517
H96	H	1.653712	0.106670	1.095517
O97	O	1.064403	-0.553449	0.837220
O98	O	1.564403	-0.053449	1.337220
H99	H	1.040814	-0.615237	0.816197
H100	H	1.540814	-0.115237	1.316197
O101	O	1.511555	-0.525102	1.076682
O102	O	2.011555	-0.025102	1.576682
H103	H	1.532403	-0.586899	1.100193
H104	H	2.032403	-0.086899	1.600193
H105	H	1.711412	-0.393272	1.153793
H106	H	2.211412	0.106728	1.653793
O107	O	1.723561	-1.199683	0.583318
O108	O	2.223561	-0.699683	1.083318
H109	H	1.809225	-1.189242	0.612182
H110	H	2.309225	-0.689242	1.112182
O111	O	1.476640	-0.733075	0.829534
O112	O	1.976640	-0.233075	1.329534
H113	H	1.435392	-0.767723	0.870732
H114	H	1.935392	-0.267723	1.370732
O115	O	1.469241	-0.553034	1.243135
O116	O	1.969241	-0.053034	1.743135
H117	H	1.469721	-0.552714	1.158160
H118	H	1.969721	-0.052714	1.658160
H119	H	1.213881	-0.512306	0.775107
H120	H	1.713881	-0.012306	1.275107
H121	H	1.433065	-0.859427	0.873161
H122	H	1.933065	-0.359427	1.373161
H123	H	1.669064	-0.421203	1.320253
H124	H	2.169064	0.078797	1.820253
H125	H	0.987271	-0.421365	0.637834
H126	H	1.487271	0.078635	1.137834
O127	O	1.782766	-0.915678	0.524020
O128	O	2.282766	-0.415678	1.024020
H129	H	1.754020	-0.937035	0.438339
H130	H	2.254020	-0.437035	0.938339
O131	O	1.417447	-1.017098	0.888838
O132	O	1.917447	-0.517098	1.388838
H133	H	1.427435	-1.083350	0.878878
H134	H	1.927435	-0.583350	1.378878
H135	H	1.492555	-1.144434	0.813967
H136	H	1.992555	-0.644434	1.313967
H137	H	1.767129	-1.073347	0.539700
H138	H	2.267129	-0.573347	1.039700
H139	H	1.707661	-0.788355	0.598898
H140	H	2.207661	-0.288355	1.098898
