data_functionalizedCrystal
_audit_creation_method	'MofGen! by Chris Wilmer'
_symmetry_space_group_name_H-M	'P1'
_symmetry_Int_Tables_number	1
_symmetry_cell_setting	triclinic
loop_
_symmetry_equiv_pos_as_xyz
  x,y,z
_cell_length_a	12.759401
_cell_length_b	17.640968
_cell_length_c	12.759400
_cell_angle_alpha	78.769511
_cell_angle_beta	90.013728
_cell_angle_gamma	78.778116
loop_
_atom_site_label
_atom_site_type_symbol
_atom_site_fract_x
_atom_site_fract_y
_atom_site_fract_z
Zn1	Zn	1.726334	-0.446893	-0.298196
Zn2	Zn	1.690714	-0.314717	-0.509417
Zn3	Zn	1.515125	-0.314732	-0.333746
Zn4	Zn	1.550617	-0.446864	-0.473838
O5	O	1.620698	-0.380802	-0.403799
O6	O	1.868632	-0.429366	-0.326227
O7	O	1.637660	-0.204106	-0.515882
O8	O	1.543196	-0.332281	-0.182004
O9	O	1.842461	-0.332257	-0.481410
O10	O	1.698371	-0.429380	-0.155886
O11	O	1.508656	-0.204116	-0.386817
O12	O	1.372811	-0.332253	-0.352317
O13	O	1.603688	-0.557482	-0.420771
O14	O	1.398887	-0.429330	-0.455243
O15	O	1.732786	-0.557503	-0.291728
O16	O	1.672076	-0.332229	-0.651723
O17	O	1.569148	-0.429316	-0.625584
C18	C	1.347727	-0.380791	-0.403778
C19	C	1.230954	-0.380805	-0.403789
C20	C	1.189733	-0.431448	-0.323090
C21	C	1.080011	-0.431453	-0.323109
C22	C	1.052739	-0.330169	-0.484534
C23	C	1.162459	-0.330161	-0.484510
C24	C	1.258229	-0.482091	-0.242369
C25	C	1.217009	-0.532739	-0.161665
C26	C	1.107287	-0.532744	-0.161684
C27	C	1.038784	-0.482101	-0.242407
C28	C	1.676169	-0.586975	-0.348315
C29	C	1.699808	-0.674834	-0.324671
C30	C	1.441520	-0.963735	-0.582849
C31	C	1.463754	-1.046292	-0.560618
C32	C	1.598173	-1.046304	-0.426256
C33	C	1.575946	-0.963745	-0.448472
C34	C	1.497619	-0.922468	-0.526770
C35	C	1.632046	-0.922478	-0.392393
C36	C	1.609824	-0.839927	-0.414612
C37	C	1.531503	-0.798643	-0.492908
C38	C	1.475398	-0.839916	-0.548988
C39	C	1.710378	-0.963757	-0.314101
C40	C	1.766477	-0.922489	-0.258023
C41	C	1.744251	-0.839937	-0.280235
C42	C	1.665930	-0.798653	-0.358532
C43	C	1.800357	-0.798663	-0.224155
C44	C	1.778135	-0.716112	-0.246373
C45	C	1.643709	-0.716102	-0.380750
C46	C	1.894734	-0.380813	-0.403822
C47	C	2.011512	-0.380818	-0.403831
C48	C	1.620631	-0.380785	-0.676771
C49	C	1.620706	-0.380805	-0.793542
C50	C	1.565502	-0.175430	-0.458992
C51	C	1.542067	-0.087572	-0.482340
C52	C	1.674390	-0.330307	-0.861965
C53	C	1.674461	-0.330331	-0.971683
C54	C	1.567155	-0.431353	-0.944544
C55	C	1.567091	-0.431332	-0.834828
C56	C	1.728004	-0.279779	-0.820680
C57	C	1.781692	-0.229277	-0.889105
C58	C	1.781763	-0.229301	-0.998822
C59	C	1.728146	-0.279828	-1.040115
C60	C	1.620798	-0.380835	-0.129757
C61	C	1.620841	-0.380850	-0.012976
H62	H	0.996956	-0.288940	-0.550256
Cl63	Cl	1.499752	-0.494865	-0.996458
H64	H	1.196021	-0.288923	-0.550222
Cl65	Cl	1.545229	-0.664203	-0.479174
Cl66	Cl	1.849265	-0.165821	-1.084836
Cl67	Cl	1.499603	-0.494818	-0.748804
H68	H	1.728219	-0.279850	-1.129454
Cl69	Cl	1.849103	-0.165769	-0.837192
Cl70	Cl	1.393216	-1.098169	-0.631123
H71	H	1.272790	-0.573965	-0.095938
Cl72	Cl	1.396168	-0.482092	-0.242343
H73	H	1.073727	-0.573978	-0.095965
Cl74	Cl	1.503571	-0.694863	-0.520847
Cl75	Cl	0.900843	-0.482102	-0.242419
Cl76	Cl	1.738316	-1.067537	-0.286174
H77	H	1.411591	-0.806306	-0.612721
H78	H	1.377713	-0.930125	-0.646582
H79	H	1.661950	-1.079924	-0.362509
H80	H	1.864137	-0.832284	-0.160412
H81	H	1.830254	-0.956109	-0.194275
Cl82	Cl	1.848665	-0.664229	-0.175877
Cl83	Cl	1.728272	-0.279966	-0.682692
