data_functionalizedCrystal
_audit_creation_method	'MofGen! by Chris Wilmer'
_symmetry_space_group_name_H-M	'P1'
_symmetry_Int_Tables_number	1
_symmetry_cell_setting	triclinic
loop_
_symmetry_equiv_pos_as_xyz
  x,y,z
_cell_length_a	17.019383
_cell_length_b	17.019448
_cell_length_c	12.996460
_cell_angle_alpha	86.131304
_cell_angle_beta	93.881559
_cell_angle_gamma	83.664893
loop_
_atom_site_label
_atom_site_type_symbol
_atom_site_fract_x
_atom_site_fract_y
_atom_site_fract_z
O1	O	1.046562	0.100556	0.169310
O2	O	0.816886	0.113358	0.147848
O3	O	0.938124	-0.007878	0.169302
O4	O	0.925324	0.221793	0.147857
O5	O	0.938111	-0.007885	-0.001833
O6	O	0.816873	0.113352	-0.023286
O7	O	1.046549	0.100550	-0.001824
Cu8	Cu	0.931710	0.106950	-0.028181
Cu9	Cu	0.931725	0.106958	0.174205
O10	O	0.925312	0.221786	-0.023277
C11	C	0.787491	0.112867	0.059723
C12	C	0.699924	0.111405	0.052102
C13	C	0.658784	0.110723	0.141799
C14	C	0.576503	0.109362	0.134621
C15	C	0.535364	0.108677	0.037746
C16	C	0.576510	0.109360	-0.051958
C17	C	0.658788	0.110727	-0.044780
C18	C	0.286936	0.104554	0.011406
C19	C	0.204652	0.103184	0.004235
C20	C	0.204650	0.103188	0.190814
C21	C	0.286931	0.104550	0.197984
C22	C	0.328069	0.105238	0.108280
C23	C	0.451261	0.107282	0.030408
C24	C	0.412170	0.106638	0.115619
C25	C	0.937629	-0.037269	0.086292
C26	C	0.936166	-0.124835	0.093913
C27	C	0.927961	-0.620099	0.141814
C28	C	0.929328	-0.537821	0.134631
C29	C	0.929999	-0.496701	0.037754
C30	C	0.929310	-0.537864	-0.051946
C31	C	0.927948	-0.620142	-0.044762
C32	C	0.934115	-0.248277	0.011397
C33	C	0.935475	-0.165993	0.004220
C34	C	0.935494	-0.165955	0.190798
C35	C	0.934128	-0.248234	0.197973
C36	C	0.933443	-0.289391	0.108273
C37	C	0.931394	-0.412599	0.030410
C38	C	0.932054	-0.373492	0.115619
C39	C	1.075944	0.101041	0.086304
C40	C	1.163512	0.102503	0.093932
C41	C	0.925806	0.251177	0.059734
C42	C	0.927270	0.338743	0.052120
N43	N	0.931706	0.106944	-0.170528
C44	C	0.931724	0.106959	-0.590342
C45	C	0.931717	0.106957	-0.473537
C46	C	0.931715	0.106952	-0.380439
C47	C	0.931707	0.106949	-0.263626
N48	N	0.931736	0.106958	0.316553
H49	H	0.417757	0.106722	-0.048468
H50	H	0.931938	-0.379109	-0.048468
H51	H	0.692273	0.111279	0.220685
C52	C	0.331740	0.105265	0.303073
C53	C	0.412604	0.106588	0.290162
C54	C	0.453908	0.107235	0.386948
H55	H	0.312291	0.151009	0.335708
H56	H	0.324364	0.059049	0.344847
H57	H	0.419975	0.152800	0.248404
H58	H	0.432076	0.060848	0.257544
H59	H	0.446532	0.061019	0.428722
H60	H	0.434452	0.152980	0.419576
H61	H	0.508779	0.108126	0.378202
C62	C	0.933320	-0.292746	0.303228
C63	C	0.865854	-0.263777	0.351024
C64	C	0.865103	-0.304749	0.447999
H65	H	0.932380	-0.347654	0.294830
H66	H	0.979515	-0.285267	0.344995
H67	H	0.819671	-0.271263	0.309267
H68	H	0.866780	-0.208875	0.359449
H69	H	0.911298	-0.297270	0.489767
H70	H	0.864165	-0.359655	0.439591
H71	H	0.819332	-0.285095	0.480445
H72	H	0.692283	0.111286	-0.117821
C73	C	0.927350	-0.664848	0.246947
C74	C	0.994387	-0.721035	0.263315
C75	C	0.993846	-0.762274	0.360151
H76	H	0.927996	-0.628639	0.299427
H77	H	0.880862	-0.690933	0.249045
H78	H	1.040863	-0.694951	0.261227
H79	H	0.993755	-0.757261	0.210860
H80	H	0.947358	-0.788358	0.362249
H81	H	0.994491	-0.726058	0.412623
H82	H	1.039326	-0.800406	0.371266
H83	H	0.935997	-0.132512	-0.074676
C84	C	0.930032	-0.493271	0.232130
C85	C	0.929127	-0.546889	0.318505
C86	C	0.929765	-0.505878	0.408341
H87	H	0.976530	-0.467228	0.237959
H88	H	0.884568	-0.455130	0.228655
H89	H	0.974586	-0.585016	0.321980
H90	H	0.882632	-0.572935	0.312711
H91	H	0.884301	-0.467737	0.404866
H92	H	0.976263	-0.479836	0.414159
H93	H	0.929143	-0.542250	0.466956
C94	C	0.929871	-0.493152	-0.157114
C95	C	0.862806	-0.437000	-0.173476
C96	C	0.863286	-0.395802	-0.270351
H97	H	0.976324	-0.467038	-0.159303
H98	H	0.929222	-0.529415	-0.209546
H99	H	0.863462	-0.400743	-0.121058
H100	H	0.816342	-0.463094	-0.171308
H101	H	0.862637	-0.432065	-0.322784
H102	H	0.909742	-0.369693	-0.272531
H103	H	0.817780	-0.357704	-0.281469
H104	H	0.927385	-0.653652	-0.117800
H105	H	0.936052	-0.132436	0.263826
H106	H	0.543011	0.108807	0.207662
C107	C	0.933326	-0.292806	-0.086113
C108	C	0.934180	-0.239179	-0.172490
C109	C	0.933441	-0.280172	-0.262339
H110	H	0.978760	-0.330961	-0.082740
H111	H	0.886799	-0.318828	-0.091851
H112	H	0.980702	-0.213170	-0.166753
H113	H	0.888749	-0.201023	-0.175897
H114	H	0.886914	-0.306194	-0.268077
H115	H	0.978876	-0.318326	-0.258955
H116	H	0.934013	-0.243791	-0.320957
H117	H	0.171147	0.102629	0.263846
C118	C	0.160121	0.102484	-0.101049
C119	C	0.213755	0.103400	-0.178076
C120	C	0.172761	0.102763	-0.275070
H121	H	0.134083	0.055984	-0.103272
H122	H	0.121976	0.147944	-0.112380
H123	H	0.251886	0.057945	-0.166749
H124	H	0.239795	0.149897	-0.175887
H125	H	0.134616	0.148223	-0.286400
H126	H	0.146724	0.056263	-0.277282
H127	H	0.209144	0.103392	-0.327345
C128	C	0.331618	0.105452	-0.085962
C129	C	0.369898	0.174076	-0.094105
C130	C	0.411064	0.174932	-0.183796
H131	H	0.369832	0.060062	-0.082532
H132	H	0.295354	0.104886	-0.144717
H133	H	0.406159	0.174635	-0.035365
H134	H	0.331702	0.219477	-0.097552
H135	H	0.374800	0.174366	-0.242551
H136	H	0.449273	0.129540	-0.180359
H137	H	0.437036	0.221496	-0.189338
H138	H	0.543008	0.108807	-0.130836
H139	H	0.445668	0.107200	0.194494
H140	H	0.931512	-0.406976	0.194496
