data_functionalizedCrystal
_audit_creation_method	'MofGen! by Chris Wilmer'
_symmetry_space_group_name_H-M	'P1'
_symmetry_Int_Tables_number	1
_symmetry_cell_setting	triclinic
loop_
_symmetry_equiv_pos_as_xyz
  x,y,z
_cell_length_a	15.995350
_cell_length_b	27.732048
_cell_length_c	15.072220
_cell_angle_alpha	89.993868
_cell_angle_beta	89.991149
_cell_angle_gamma	83.067515
loop_
_atom_site_label
_atom_site_type_symbol
_atom_site_fract_x
_atom_site_fract_y
_atom_site_fract_z
O1	O	1.110190	0.062301	-0.073717
O2	O	0.866315	0.069995	-0.073737
O3	O	0.995827	-0.004216	-0.073709
O4	O	0.980678	0.136512	-0.073744
O5	O	0.995795	-0.004212	0.073856
O6	O	0.866283	0.069999	0.073828
O7	O	1.110158	0.062305	0.073848
Zn8	Zn	0.988215	0.066153	0.097267
Zn9	Zn	0.988257	0.066148	-0.097156
O10	O	0.980646	0.136516	0.073821
C11	C	0.835108	0.069679	0.000044
C12	C	0.742170	0.068726	0.000037
C13	C	0.404467	0.065301	0.000056
C14	C	0.452585	0.012449	0.000399
C15	C	0.549263	0.013403	0.000060
C16	C	0.572006	0.067000	0.000047
C17	C	0.530599	0.093065	-0.084223
C18	C	0.433981	0.091738	-0.084287
C19	C	0.433592	0.092834	0.083522
C20	C	0.530537	0.092822	0.084630
C21	C	0.666691	0.067962	0.000039
C22	C	0.309782	0.064340	0.000058
C23	C	0.995493	-0.022222	0.000076
C24	C	0.994535	-0.075881	0.000083
C25	C	1.065040	-0.414392	0.000043
C26	C	1.061487	-0.616067	0.000030
O27	O	1.125959	-0.647045	-0.000004
N28	N	0.984692	-0.635522	0.000025
C29	C	0.908780	-0.604555	0.000017
O30	O	0.843380	-0.625730	0.000003
C31	C	0.912334	-0.402881	0.000023
C32	C	0.989134	-0.383429	0.000037
C33	C	1.141834	-0.394940	0.000056
C34	C	1.142721	-0.344524	0.000064
C35	C	1.066815	-0.313561	0.000059
C36	C	0.990021	-0.333013	0.000045
C37	C	0.836422	-0.371914	0.000009
C38	C	0.837317	-0.321493	0.000008
C39	C	0.914117	-0.302041	0.000023
C40	C	0.915002	-0.251634	0.000048
N41	N	0.991797	-0.232179	0.000053
C42	C	1.067703	-0.263142	0.000059
C43	C	0.906920	-0.710437	0.000015
C44	C	0.906031	-0.760855	0.000015
C45	C	1.058739	-0.772364	0.000027
C46	C	1.059627	-0.721945	0.000033
C47	C	0.983715	-0.690982	0.000021
C48	C	1.069561	-0.157265	0.000076
C49	C	1.070442	-0.106844	0.000088
C50	C	0.917734	-0.095340	0.000072
C51	C	0.916853	-0.145756	0.000065
C52	C	0.992773	-0.176718	0.000064
O53	O	0.850565	-0.220628	0.000072
O54	O	1.133094	-0.241958	0.000053
C55	C	1.064153	-0.464808	0.000035
C56	C	0.987359	-0.484260	0.000022
C57	C	0.911452	-0.453297	0.000016
C58	C	0.986470	-0.534679	0.000022
C59	C	1.062377	-0.565642	0.000027
C60	C	1.139172	-0.546187	0.000032
C61	C	1.140059	-0.495771	0.000040
C62	C	0.834657	-0.472752	0.000011
C63	C	0.833776	-0.523168	0.000004
C64	C	0.909683	-0.554132	0.000009
C65	C	1.141364	0.062621	0.000066
C66	C	1.234302	0.063575	0.000066
C67	C	0.980980	0.154523	0.000034
C68	C	0.981938	0.208182	0.000021
N69	N	0.988193	0.066156	0.229956
N70	N	0.988287	0.066140	-0.229845
C71	C	0.988256	0.066146	0.589158
C72	C	0.918727	0.105721	0.551536
C73	C	0.918884	0.105866	0.448710
C74	C	0.988224	0.066151	0.410954
C75	C	1.075446	0.077167	0.448249
C76	C	1.075056	0.077448	0.551106
C77	C	0.971342	0.015437	0.551269
C78	C	0.969333	0.015775	0.448405
C79	C	0.988211	0.066153	0.310240
C80	C	0.988274	0.066145	0.689871
H81	H	0.401231	0.130541	-0.088120
N82	N	0.837383	0.097800	0.417249
N83	N	0.807588	0.059585	0.437192
H84	H	0.749970	0.053953	0.415044
H85	H	0.401326	0.131802	0.084083
H86	H	0.558086	0.073794	0.146972
N87	N	0.893304	0.002165	0.583825
N88	N	0.826031	0.028625	0.568033
H89	H	0.770910	0.019257	0.591021
N90	N	1.147102	-0.188894	0.000074
N91	N	1.163669	-0.218308	-0.062128
H92	H	1.218432	-0.240647	-0.062125
H93	H	1.202598	-0.479938	0.000051
H94	H	1.200977	-0.571406	0.000040
N95	N	0.566489	0.070367	-0.162909
N96	N	0.603308	0.094439	-0.217432
H97	H	0.628654	0.078409	-0.273007
N98	N	0.547681	0.142462	-0.088157
N99	N	0.590667	0.159045	-0.028756
H100	H	0.602732	0.193932	-0.031531
N101	N	0.888845	0.005293	0.417828
N102	N	0.845511	0.034788	0.368633
H103	H	0.788665	0.027387	0.347032
H104	H	1.120545	-0.797583	0.000032
H105	H	1.090825	0.113727	0.422472
H106	H	1.016735	-0.015055	0.422708
N107	N	1.148902	-0.086984	0.000110
N108	N	1.216668	-0.114639	0.000114
H109	H	1.272080	-0.100614	0.000129
H110	H	1.122164	-0.706111	0.000044
N111	N	0.827574	-0.780713	0.000021
N112	N	0.759811	-0.753056	0.000018
H113	H	0.704397	-0.767079	0.000019
H114	H	0.577401	-0.007228	-0.060444
N115	N	0.549223	0.141844	0.091027
N116	N	0.587806	0.155065	0.157116
H117	H	0.601023	0.189684	0.161630
N118	N	1.093856	0.123841	0.581203
N119	N	1.096959	0.132438	0.662467
H120	H	1.110232	0.165205	0.683721
H121	H	0.434323	-0.008675	0.060832
N122	N	0.428348	-0.013933	-0.074978
N123	N	0.375791	0.006021	-0.128948
H124	H	0.358672	-0.012610	-0.182185
H125	H	1.022054	-0.014014	0.575598
H126	H	0.413266	0.075558	0.147396
N127	N	0.411316	0.067890	-0.163293
N128	N	0.361248	0.089956	-0.217391
H129	H	0.345243	0.073112	-0.273190
N130	N	0.829372	-0.678812	0.000029
N131	N	0.812815	-0.649400	0.062235
H132	H	0.758047	-0.627066	0.062250
H133	H	0.853661	0.099266	0.576294
N134	N	1.221179	-0.324666	0.000075
N135	N	1.288940	-0.352326	0.000076
H136	H	1.344356	-0.338305	0.000081
N137	N	0.757964	-0.391767	-0.000008
N138	N	0.690204	-0.364107	-0.000022
H139	H	0.634787	-0.378127	-0.000037
N140	N	0.757117	-0.441127	0.000029
N141	N	0.740561	-0.411719	0.062241
H142	H	0.685793	-0.389385	0.062260
H143	H	0.577944	-0.007086	0.060468
N144	N	1.219385	-0.426556	0.000056
N145	N	1.287938	-0.409172	0.000064
H146	H	1.342715	-0.431498	0.000069
H147	H	0.854317	-0.161595	0.000078
N148	N	0.759765	-0.289873	-0.000015
N149	N	0.691206	-0.307252	-0.000033
H150	H	0.636434	-0.284921	-0.000050
H151	H	0.771232	-0.539001	-0.000000
N152	N	0.840209	-0.063700	0.000074
N153	N	0.841022	-0.018685	0.000078
H154	H	0.786270	0.003663	0.000075
H155	H	0.929308	0.143139	0.577366
H156	H	0.929616	0.143496	0.424088
N157	N	1.141866	0.042661	0.582318
N158	N	1.188637	0.018255	0.528132
H159	H	1.235824	-0.006312	0.550171
N160	N	1.141863	0.041965	0.417566
N161	N	1.125614	0.008287	0.367749
H162	H	1.172519	-0.016576	0.346078
