data_functionalizedCrystal
_audit_creation_method	'MofGen! by Chris Wilmer'
_symmetry_space_group_name_H-M	'P1'
_symmetry_Int_Tables_number	1
_symmetry_cell_setting	triclinic
loop_
_symmetry_equiv_pos_as_xyz
  x,y,z
_cell_length_a	13.033293
_cell_length_b	13.897448
_cell_length_c	13.034356
_cell_angle_alpha	82.789070
_cell_angle_beta	76.646206
_cell_angle_gamma	97.187372
loop_
_atom_site_label
_atom_site_type_symbol
_atom_site_fract_x
_atom_site_fract_y
_atom_site_fract_z
Zn1	Zn	1.700362	-0.090187	-0.807222
Zn2	Zn	2.200362	0.409813	-0.307222
Zn3	Zn	1.677674	-0.274998	-0.629583
Zn4	Zn	2.177674	0.225002	-0.129583
Zn5	Zn	1.500147	-0.137156	-0.607013
Zn6	Zn	2.000147	0.362844	-0.107013
Zn7	Zn	1.522689	-0.274907	-0.784565
Zn8	Zn	2.022689	0.225093	-0.284565
O9	O	1.600218	-0.194312	-0.707096
O10	O	2.100218	0.305688	-0.207096
O11	O	1.846005	-0.095084	-0.802585
O12	O	2.346005	0.404916	-0.302585
O13	O	1.635196	-0.276407	-0.477940
O14	O	2.135196	0.223593	0.022060
O15	O	1.526767	0.004068	-0.633607
O16	O	2.026767	0.504068	-0.133607
O17	O	1.829337	-0.230864	-0.672075
O18	O	2.329337	0.269136	-0.172075
O19	O	1.673864	0.038575	-0.780700
O20	O	2.173864	0.538575	-0.280700
O21	O	1.504767	-0.175135	-0.461358
O22	O	2.004767	0.324865	0.038642
O23	O	1.354484	-0.175047	-0.611638
O24	O	1.854484	0.324953	-0.111638
O25	O	1.565186	-0.230709	-0.936219
O26	O	2.065186	0.269291	-0.436219
O27	O	1.371046	-0.276252	-0.742085
O28	O	1.871046	0.223748	-0.242085
O29	O	1.695722	-0.094996	-0.952865
O30	O	2.195722	0.405004	-0.452865
O31	O	1.657054	-0.409979	-0.650105
O32	O	2.157054	0.090021	-0.150105
O33	O	1.543187	-0.409912	-0.763970
O34	O	2.043187	0.090088	-0.263970
C35	C	1.324221	-0.230737	-0.671954
C36	C	1.824221	0.269263	-0.171954
C37	C	1.206151	-0.246340	-0.656946
C38	C	1.706151	0.253660	-0.156946
C39	C	1.161772	-0.186193	-0.714928
C40	C	1.661772	0.313807	-0.214928
C41	C	1.039741	-0.202318	-0.699418
C42	C	1.539741	0.297682	-0.199418
C43	C	1.600137	-0.444941	-0.707055
C44	C	2.100137	0.055059	-0.207055
C45	C	1.600203	-0.552143	-0.707085
C46	C	2.100203	-0.052143	-0.207085
C47	C	1.600323	-0.748415	-0.707166
C48	C	2.100323	-0.248415	-0.207166
C49	C	1.600254	-0.639195	-0.707124
C50	C	2.100254	-0.139195	-0.207124
C51	C	1.877293	-0.157745	-0.742375
C52	C	2.377293	0.342255	-0.242375
C53	C	1.995366	-0.142162	-0.757409
C54	C	2.495366	0.357838	-0.257409
C55	C	1.635500	-0.157603	-0.984162
C56	C	2.135500	0.342397	-0.484162
C57	C	1.650534	-0.141960	-1.102232
C58	C	2.150534	0.358040	-0.602232
C59	C	1.600332	0.057302	-0.707163
C60	C	2.100332	0.557302	-0.207163
C61	C	1.600380	0.164525	-0.707192
C62	C	2.100380	0.664525	-0.207192
C63	C	1.608187	-0.185972	-1.268666
C64	C	2.108187	0.314028	-0.768666
C65	C	1.592645	-0.202141	-1.146634
C66	C	2.092645	0.297859	-0.646634
C67	C	1.565135	-0.230800	-0.431114
C68	C	2.065135	0.269200	0.068886
C69	C	1.550306	-0.246144	-0.313072
C70	C	2.050306	0.253856	0.186928
H71	H	1.047708	-0.078722	-0.818532
H72	H	1.547708	0.421278	-0.318532
H73	H	1.489249	-0.309633	-1.260747
H74	H	1.989249	0.190367	-0.760747
O75	O	1.136821	-0.330360	-0.575968
O76	O	1.636821	0.169640	-0.075968
H77	H	1.160344	-0.400914	-0.596710
H78	H	1.660344	0.099086	-0.096710
O79	O	1.731416	-0.057848	-1.171521
O80	O	2.231416	0.442152	-0.671521
H81	H	1.730923	-0.058337	-1.256494
H82	H	2.230923	0.441663	-0.756494
O83	O	1.689075	-0.101869	-1.337952
O84	O	2.189075	0.398131	-0.837952
H85	H	1.668200	-0.031364	-1.314404
H86	H	2.168200	0.468636	-0.814404
O87	O	1.511740	-0.286237	-1.077348
O88	O	2.011740	0.213763	-0.577348
H89	H	1.552853	-0.335700	-1.032833
H90	H	2.052853	0.164300	-0.532833
O91	O	1.231098	-0.102164	-0.795897
O92	O	1.731098	0.397836	-0.295897
H93	H	1.316067	-0.102689	-0.795378
H94	H	1.816067	0.397311	-0.295378
H95	H	0.987396	-0.265752	-0.638287
H96	H	1.487396	0.234248	-0.138287
