data_functionalizedCrystal
_audit_creation_method	'MofGen! by Chris Wilmer'
_symmetry_space_group_name_H-M	'P1'
_symmetry_Int_Tables_number	1
_symmetry_cell_setting	triclinic
loop_
_symmetry_equiv_pos_as_xyz
  x,y,z
_cell_length_a	18.050589
_cell_length_b	12.594517
_cell_length_c	12.594509
_cell_angle_alpha	90.007751
_cell_angle_beta	89.972304
_cell_angle_gamma	89.978138
loop_
_atom_site_label
_atom_site_type_symbol
_atom_site_fract_x
_atom_site_fract_y
_atom_site_fract_z
Zn1	Zn	-0.295763	-1.627177	-0.601478
Zn2	Zn	-0.419967	-1.627030	-0.423501
Zn3	Zn	-0.295782	-1.449181	-0.423549
Zn4	Zn	-0.419902	-1.449125	-0.601474
O5	O	-0.357853	-1.538128	-0.512501
O6	O	-0.312259	-1.776103	-0.577851
O7	O	-0.403528	-1.603400	-0.274562
O8	O	-0.191855	-1.472877	-0.447174
O9	O	-0.403511	-1.775995	-0.447092
O10	O	-0.191841	-1.603650	-0.577898
O11	O	-0.312290	-1.472735	-0.274597
O12	O	-0.312227	-1.300228	-0.447169
O13	O	-0.403400	-1.472782	-0.750420
O14	O	-0.403418	-1.300187	-0.577890
O15	O	-0.312196	-1.603596	-0.750424
O16	O	-0.523883	-1.603346	-0.447088
O17	O	-0.523835	-1.472640	-0.577843
C18	C	-0.357818	-1.261587	-0.512535
C19	C	-0.357820	-1.143282	-0.512575
C20	C	-0.407514	-1.074037	-0.583541
C21	C	-0.339800	-1.003249	-0.609722
C22	C	-0.425585	-1.003271	-0.486383
C23	C	-0.290070	-1.074052	-0.538807
C24	C	-0.375901	-1.074080	-0.415423
C25	C	-0.308140	-1.003324	-0.441568
C26	C	-0.550806	-1.538000	-0.512483
C27	C	-0.633351	-1.538042	-0.512511
C28	C	-0.832803	-1.467034	-0.583591
C29	C	-0.882246	-1.441086	-0.486472
C30	C	-0.784482	-1.538147	-0.512525
C31	C	-0.882120	-1.564147	-0.609655
C32	C	-0.930467	-1.538246	-0.512547
C33	C	-0.832838	-1.512147	-0.415355
C34	C	-0.832707	-1.635254	-0.538603
C35	C	-0.882128	-1.609342	-0.441417
C36	C	-0.700383	-1.538087	-0.512514
C37	C	-1.014563	-1.538306	-0.512547
C38	C	-0.164148	-1.538286	-0.512542
C39	C	-0.081602	-1.538353	-0.512559
C40	C	-0.357788	-1.538199	-0.790122
C41	C	-0.357761	-1.538230	-0.908427
C42	C	-0.357883	-0.815749	-0.512483
C43	C	-0.357878	-0.934054	-0.512518
C44	C	-0.407339	-1.467103	-0.977679
C45	C	-0.425491	-1.564218	-1.048446
C46	C	-0.339563	-1.441191	-1.048459
C47	C	-0.375949	-1.635396	-0.977637
C48	C	-0.289989	-1.512303	-0.977643
C49	C	-0.308116	-1.609485	-1.048379
C50	C	-0.357865	-1.538118	-0.235960
C51	C	-0.357683	-1.538294	-0.117655
H52	H	-0.266091	-0.972470	-0.381530
H53	H	-0.903768	-1.586099	-0.691788
Cl54	Cl	-0.316219	-0.955212	-0.736531
H55	H	-0.904023	-1.359012	-0.464435
H56	H	-0.391193	-1.105215	-0.333311
H57	H	-0.482868	-0.972174	-0.464257
H58	H	-0.232726	-1.490311	-0.946519
Cl59	Cl	-0.472278	-1.121980	-0.676300
H60	H	-0.811279	-1.490100	-0.333199
H61	H	-0.232770	-1.105013	-0.561029
Cl62	Cl	-0.799361	-1.374055	-0.676248
Cl63	Cl	-0.915358	-1.702259	-0.348543
H64	H	-0.810933	-1.717309	-0.560686
Cl65	Cl	-0.513925	-1.598130	-1.096466
H66	H	-0.449330	-1.407000	-0.946636
H67	H	-0.391374	-1.717511	-0.946658
H68	H	-0.266157	-1.669732	-1.079226
Cl69	Cl	-0.315848	-1.314449	-1.096490
