data_functionalizedCrystal
_audit_creation_method	'MofGen! by Chris Wilmer'
_symmetry_space_group_name_H-M	'P1'
_symmetry_Int_Tables_number	1
_symmetry_cell_setting	triclinic
loop_
_symmetry_equiv_pos_as_xyz
  x,y,z
_cell_length_a	15.944493
_cell_length_b	15.944499
_cell_length_c	15.072220
_cell_angle_alpha	89.984913
_cell_angle_beta	90.006610
_cell_angle_gamma	96.523674
loop_
_atom_site_label
_atom_site_type_symbol
_atom_site_fract_x
_atom_site_fract_y
_atom_site_fract_z
O1	O	-0.108123	1.114539	-0.073847
O2	O	-0.121525	0.869981	-0.073838
O3	O	0.007456	0.998964	-0.073824
O4	O	-0.237103	0.985556	-0.073860
O5	O	0.007449	0.998932	0.073741
O6	O	-0.121532	0.869949	0.073727
O7	O	-0.108130	1.114507	0.073718
Zn8	Zn	-0.114832	0.992223	0.097152
Zn9	Zn	-0.114822	0.992265	-0.097271
O10	O	-0.237110	0.985524	0.073705
C11	C	-0.120979	0.838670	-0.000054
C12	C	-0.119334	0.745422	-0.000050
C13	C	-0.194269	0.453871	-0.000074
C14	C	-0.155312	0.514924	-0.072828
C15	C	-0.113358	0.409787	-0.000070
C16	C	-0.155298	0.514878	0.072660
C17	C	-0.116299	0.574695	-0.000059
C18	C	-0.074379	0.469612	-0.072883
C19	C	-0.074376	0.469560	0.072670
C20	C	-0.035361	0.530595	-0.000101
C21	C	-0.111666	0.314787	-0.000077
C22	C	-0.117984	0.669694	-0.000058
C23	C	-0.268401	0.986088	-0.000082
C24	C	-0.361650	0.987731	-0.000097
C25	C	-0.597424	0.911809	-0.000065
C26	C	-0.647990	0.952767	-0.072820
C27	C	-0.532370	0.990775	-0.000076
C28	C	-0.647954	0.952753	0.072668
C29	C	-0.697279	0.993710	-0.000052
C30	C	-0.581708	1.031712	-0.072891
C31	C	-0.581669	1.031687	0.072662
C32	C	-0.632203	1.072703	-0.000111
C33	C	-0.437370	0.989082	-0.000091
C34	C	-0.792276	0.995409	-0.000044
C35	C	0.038747	0.998400	-0.000039
C36	C	0.131995	0.996757	-0.000031
C37	C	-0.108675	1.145818	-0.000067
C38	C	-0.110320	1.239066	-0.000077
N39	N	-0.114838	0.992200	0.229841
N40	N	-0.114810	0.992294	-0.229960
C41	C	-0.114819	0.992263	0.589042
C42	C	-0.183603	0.923015	0.551428
C43	C	-0.183854	0.923174	0.448602
C44	C	-0.114829	0.992231	0.410838
C45	C	-0.133960	1.079873	0.448123
C46	C	-0.134449	1.079485	0.550981
C47	C	-0.026700	0.974651	0.551156
C48	C	-0.027288	0.972640	0.448293
C49	C	-0.114832	0.992219	0.310125
C50	C	-0.114817	0.992282	0.689756
H51	H	-0.040185	0.449437	0.134189
H52	H	-0.249246	0.934419	0.423978
C53	C	0.055425	0.575452	-0.000141
C54	C	0.115616	0.561087	-0.077159
C55	C	0.206400	0.605945	-0.077204
C56	C	0.236994	0.665169	-0.000230
C57	C	0.176802	0.679537	0.076794
C58	C	0.086018	0.634678	0.076839
H59	H	0.092970	0.517243	-0.134145
H60	H	0.250958	0.595309	-0.134222
H61	H	0.304197	0.698376	-0.000263
H62	H	0.199448	0.723380	0.133779
H63	H	0.041460	0.645315	0.133857
C64	C	-0.201545	0.541972	0.155752
C65	C	-0.294552	0.507703	0.171703
C66	C	-0.340805	0.534793	0.254790
C67	C	-0.294051	0.596150	0.321927
C68	C	-0.201039	0.630422	0.305978
C69	C	-0.154785	0.603333	0.222891
H70	H	-0.329167	0.462280	0.122003
H71	H	-0.409659	0.509422	0.266596
H72	H	-0.328291	0.616203	0.383433
H73	H	-0.166424	0.675846	0.355678
H74	H	-0.085931	0.628703	0.211085
C75	C	0.042456	1.042863	0.584019
C76	C	0.116595	1.017628	0.639703
C77	C	0.185743	1.085841	0.672570
C78	C	0.180752	1.179291	0.649753
C79	C	0.106609	1.204531	0.594065
C80	C	0.037461	1.136317	0.561198
H81	H	0.120293	0.948447	0.656597
H82	H	0.240629	1.067157	0.713794
H83	H	0.231939	1.229787	0.674083
H84	H	0.102911	1.273712	0.577172
H85	H	-0.017424	1.155002	0.519974
H86	H	-0.040186	0.449653	-0.134459
C87	C	-0.542498	1.076688	0.155743
C88	C	-0.446370	1.084000	0.170469
C89	C	-0.407186	1.128997	0.253552
C90	C	-0.464131	1.166682	0.321908
C91	C	-0.560264	1.159371	0.307183
C92	C	-0.599448	1.114374	0.224101
H93	H	-0.404211	1.056103	0.119866
H94	H	-0.336022	1.134409	0.264451
H95	H	-0.435125	1.199991	0.383410
H96	H	-0.602423	1.187268	0.357787
H97	H	-0.670613	1.108962	0.213202
C98	C	-0.576318	0.819923	-0.000158
C99	C	-0.606220	0.760537	-0.077236
C100	C	-0.585112	0.668655	-0.077334
C101	C	-0.534102	0.636158	-0.000355
C102	C	-0.504197	0.695545	0.076729
C103	C	-0.525305	0.787427	0.076827
H104	H	-0.643983	0.784592	-0.134226
H105	H	-0.607250	0.624693	-0.134397
H106	H	-0.518477	0.568141	-0.000427
H107	H	-0.466434	0.671489	0.133719
H108	H	-0.503167	0.831389	0.133890
H109	H	-0.552888	1.065051	-0.134472
H110	H	-0.261416	0.420527	-0.000155
H111	H	-0.189534	0.535028	-0.134341
C112	C	-0.653089	1.164661	-0.000163
C113	C	-0.581317	1.237950	-0.000946
C114	C	-0.602205	1.329906	-0.001004
C115	C	-0.694865	1.348573	-0.000278
C116	C	-0.766643	1.275281	0.000505
C117	C	-0.745755	1.183325	0.000563
H118	H	-0.512719	1.224134	-0.001483
H119	H	-0.549069	1.384161	-0.001584
H120	H	-0.710328	1.416644	-0.000321
H121	H	-0.835241	1.289097	0.001042
H122	H	-0.798890	1.129070	0.001143
C123	C	-0.687115	0.907736	-0.155912
C124	C	-0.630295	0.868690	-0.223388
C125	C	-0.669417	0.823653	-0.306476
C126	C	-0.765360	0.817661	-0.322088
C127	C	-0.822187	0.856708	-0.254611
C128	C	-0.783064	0.901745	-0.171522
H129	H	-0.559267	0.873125	-0.211832
H130	H	-0.627350	0.794748	-0.356427
H131	H	-0.794321	0.784321	-0.383595
H132	H	-0.893214	0.852273	-0.266166
H133	H	-0.825131	0.930650	-0.121571
C134	C	-0.168424	0.834733	0.584892
C135	C	-0.236678	0.782072	0.639998
C136	C	-0.221475	0.693794	0.673471
C137	C	-0.138019	0.658177	0.651838
C138	C	-0.069759	0.710839	0.596730
C139	C	-0.084962	0.799117	0.563257
H140	H	-0.298462	0.808437	0.656014
H141	H	-0.272005	0.654811	0.714266
H142	H	-0.126765	0.592829	0.676617
H143	H	-0.007975	0.684474	0.580714
H144	H	-0.034432	0.838100	0.522462
C145	C	-0.007666	0.885546	0.415376
C146	C	-0.070808	0.832442	0.354773
C147	C	-0.051188	0.745348	0.321850
C148	C	0.031575	0.711359	0.349531
C149	C	0.094723	0.764464	0.410137
C150	C	0.075103	0.851558	0.443060
H151	H	-0.132079	0.857601	0.334279
H152	H	-0.097935	0.706036	0.276985
H153	H	0.046099	0.646887	0.325159
H154	H	0.155994	0.739304	0.430631
H155	H	0.121850	0.890870	0.487926
C156	C	-0.687034	0.907670	0.155769
C157	C	-0.677269	0.813875	0.171731
C158	C	-0.716347	0.768784	0.254826
C159	C	-0.765190	0.817489	0.321959
C160	C	-0.774957	0.911289	0.305999
C161	C	-0.735879	0.956379	0.222904
H162	H	-0.641111	0.777816	0.122033
H163	H	-0.709116	0.699347	0.266640
H164	H	-0.794117	0.784110	0.383471
H165	H	-0.811115	0.947347	0.355697
H166	H	-0.743109	1.025817	0.211090
H167	H	-0.172457	0.858028	0.423396
H168	H	-0.248626	0.934105	0.577256
C169	C	0.045104	1.036349	0.413575
C170	C	0.025911	1.107599	0.350327
C171	C	0.098302	1.171317	0.315610
C172	C	0.189886	1.163784	0.344142
C173	C	0.209083	1.092531	0.407393
C174	C	0.136692	1.028813	0.442110
H175	H	-0.041888	1.113178	0.329203
H176	H	0.084091	1.224063	0.268787
H177	H	0.243474	1.210951	0.318442
H178	H	0.276883	1.086952	0.428517
H179	H	0.150904	0.976067	0.488934
C180	C	-0.221266	1.100447	0.583372
C181	C	-0.289668	1.117424	0.515648
C182	C	-0.376488	1.138384	0.548034
C183	C	-0.394905	1.142367	0.648144
C184	C	-0.326501	1.125390	0.715875
C185	C	-0.239681	1.104430	0.683489
H186	H	-0.276036	1.114475	0.441535
H187	H	-0.427125	1.150951	0.497895
H188	H	-0.459174	1.157883	0.672119
H189	H	-0.340133	1.128338	0.789988
H190	H	-0.189044	1.091862	0.733628
H191	H	-0.086325	1.132623	0.575860
C192	C	-0.068087	1.151154	0.415073
C193	C	0.025957	1.149402	0.437349
C194	C	0.091831	1.220681	0.404296
C195	C	0.063661	1.293713	0.348968
C196	C	-0.030388	1.295468	0.326689
C197	C	-0.096262	1.224189	0.359741
H198	H	0.046815	1.095337	0.478309
H199	H	0.161453	1.219381	0.420789
H200	H	0.112424	1.346478	0.324500
H201	H	-0.051246	1.349533	0.285729
H202	H	-0.165884	1.225489	0.343248
H203	H	-0.197492	1.095766	0.422344
H204	H	-0.008301	0.912131	0.577152
