data_functionalizedCrystal
_audit_creation_method	'MofGen! by Chris Wilmer'
_symmetry_space_group_name_H-M	'P1'
_symmetry_Int_Tables_number	1
_symmetry_cell_setting	triclinic
loop_
_symmetry_equiv_pos_as_xyz
  x,y,z
_cell_length_a	27.732064
_cell_length_b	26.809956
_cell_length_c	27.731996
_cell_angle_alpha	90.001656
_cell_angle_beta	82.635407
_cell_angle_gamma	90.001122
loop_
_atom_site_label
_atom_site_type_symbol
_atom_site_fract_x
_atom_site_fract_y
_atom_site_fract_z
O1	O	0.640915	0.041397	0.057550
O2	O	1.140915	0.541397	0.557550
O3	O	0.500121	0.041418	0.066287
O4	O	1.000121	0.541418	0.566287
O5	O	0.574904	0.041396	-0.008480
O6	O	1.074904	0.541396	0.491520
O7	O	0.566132	0.041419	0.132317
O8	O	1.066132	0.541419	0.632317
O9	O	0.574890	-0.041563	-0.008468
O10	O	1.074890	0.458437	0.491532
O11	O	0.500107	-0.041541	0.066299
O12	O	1.000107	0.458459	0.566299
O13	O	0.640901	-0.041562	0.057561
O14	O	1.140901	0.458438	0.557561
Zn15	Zn	0.570502	-0.054723	0.061932
Zn16	Zn	1.070502	0.445277	0.561932
Zn17	Zn	0.570520	0.054579	0.061917
Zn18	Zn	1.070520	0.554579	0.561917
O19	O	0.566118	-0.041540	0.132328
O20	O	1.066118	0.458460	0.632328
C21	C	0.482107	-0.000059	0.066108
C22	C	0.982107	0.499941	0.566108
C23	C	0.428453	-0.000051	0.065552
C24	C	0.928453	0.499949	0.565552
N25	N	0.570492	-0.129319	0.061942
N26	N	1.070492	0.370681	0.561942
C27	C	0.051389	-0.000087	0.017584
C28	C	0.551389	0.499913	0.517584
C29	C	0.253049	-0.000074	0.019630
C30	C	0.753049	0.499926	0.519630
O31	O	0.284309	-0.000099	-0.017592
O32	O	0.784309	0.499901	0.482408
N33	N	0.272168	-0.000064	0.063966
N34	N	0.772168	0.499936	0.563966
C35	C	0.240869	-0.000062	0.107793
C36	C	0.740869	0.499938	0.607793
O37	O	0.261758	-0.000058	0.145549
O38	O	0.761758	0.499942	0.645549
C39	C	0.039210	-0.000078	0.105746
C40	C	0.539210	0.499922	0.605746
C41	C	0.020094	-0.000083	0.061407
C42	C	0.520094	0.499917	0.561407
C43	C	0.032272	-0.000092	-0.026751
C44	C	0.532272	0.499908	0.473249
C45	C	-0.018140	-0.000093	-0.027262
C46	C	0.481860	0.499907	0.472738
C47	C	-0.049435	-0.000088	0.016562
C48	C	0.450565	0.499912	0.516562
C49	C	-0.030318	-0.000083	0.060896
C50	C	0.469682	0.499917	0.560896
C51	C	0.007912	-0.000079	0.149572
C52	C	0.507912	0.499921	0.649572
C53	C	-0.042506	-0.000085	0.149057
C54	C	0.457494	0.499915	0.649057
C55	C	-0.061622	-0.000089	0.104718
C56	C	0.438378	0.499911	0.604718
C57	C	-0.112026	-0.000080	0.104209
C58	C	0.387974	0.499920	0.604209
N59	N	-0.131145	-0.000089	0.059873
N60	N	0.368855	0.499911	0.559873
C61	C	-0.099849	-0.000093	0.016050
C62	C	0.400151	0.499907	0.516050
C63	C	0.346743	-0.000052	0.108864
C64	C	0.846743	0.499948	0.608864
C65	C	0.397158	-0.000047	0.109376
C66	C	0.897158	0.499953	0.609376
C67	C	0.409334	-0.000060	0.021213
C68	C	0.909334	0.499940	0.521213
C69	C	0.358919	-0.000061	0.020702
C70	C	0.858919	0.499939	0.520702
C71	C	0.327624	-0.000061	0.064529
C72	C	0.827624	0.499939	0.564529
C73	C	-0.205719	-0.000094	0.014980
C74	C	0.294281	0.499906	0.514980
C75	C	-0.256136	-0.000093	0.014473
C76	C	0.243864	0.499907	0.514473
C77	C	-0.268308	-0.000082	0.102635
C78	C	0.231692	0.499918	0.602635
C79	C	-0.217895	-0.000081	0.103142
C80	C	0.282105	0.499919	0.603142
C81	C	-0.186601	-0.000089	0.059311
C82	C	0.313399	0.499911	0.559311
O83	O	-0.143313	-0.000061	0.141411
O84	O	0.356687	0.499939	0.641411
O85	O	-0.120748	-0.000108	-0.021702
O86	O	0.379252	0.499892	0.478298
C87	C	0.101801	-0.000087	0.018095
C88	C	0.601801	0.499913	0.518095
C89	C	0.120918	-0.000082	0.062430
C90	C	0.620918	0.499918	0.562430
C91	C	0.089623	-0.000077	0.106253
C92	C	0.589623	0.499923	0.606253
C93	C	0.171332	-0.000077	0.062941
C94	C	0.671332	0.499923	0.562941
C95	C	0.202628	-0.000081	0.019118
C96	C	0.702628	0.499919	0.519118
C97	C	0.183508	-0.000090	-0.025218
C98	C	0.683508	0.499910	0.474782
C99	C	0.133096	-0.000091	-0.025729
C100	C	0.633096	0.499909	0.474271
C101	C	0.108742	-0.000068	0.150589
C102	C	0.608742	0.499932	0.650589
C103	C	0.159154	-0.000067	0.151096
C104	C	0.659154	0.499933	0.651096
C105	C	0.190450	-0.000071	0.107273
C106	C	0.690450	0.499929	0.607273
C107	C	0.603630	-0.473955	0.028818
C108	C	1.103630	0.026045	0.528818
C109	C	0.603641	-0.682833	0.028811
C110	C	1.103641	-0.182833	0.528811
O111	O	0.631796	-0.709845	0.000651
O112	O	1.131796	-0.209845	0.500651
N113	N	0.570523	-0.708946	0.061906
N114	N	1.070523	-0.208946	0.561906
C115	C	0.537397	-0.682837	0.095004
C116	C	1.037397	-0.182837	0.595004
O117	O	0.509225	-0.709841	0.123150
O118	O	1.009225	-0.209841	0.623150
C119	C	0.537384	-0.473960	0.095008
C120	C	1.037384	0.026040	0.595008
C121	C	0.570508	-0.447850	0.061914
C122	C	1.070508	0.052150	0.561914
C123	C	0.636751	-0.447844	-0.004274
C124	C	1.136751	0.052156	0.495726
C125	C	0.636749	-0.395628	-0.004270
C126	C	1.136749	0.104372	0.495730
C127	C	0.603627	-0.369522	0.028826
C128	C	1.103627	0.130478	0.528826
C129	C	0.570506	-0.395633	0.061918
C130	C	1.070506	0.104367	0.561918
C131	C	0.504256	-0.447852	0.128103
C132	C	1.004256	0.052148	0.628103
C133	C	0.504255	-0.395630	0.128101
C134	C	1.004255	0.104370	0.628101
C135	C	0.537379	-0.369519	0.095006
C136	C	1.037379	0.130481	0.595006
C137	C	0.537382	-0.317312	0.095018
C138	C	1.037382	0.182688	0.595018
N139	N	0.570501	-0.291198	0.061922
N140	N	1.070501	0.208802	0.561922
C141	C	0.603623	-0.317303	0.028826
C142	C	1.103623	0.182697	0.528826
C143	C	0.537407	-0.792500	0.094999
C144	C	1.037407	-0.292500	0.594999
C145	C	0.537411	-0.844719	0.094999
C146	C	1.037411	-0.344719	0.594999
C147	C	0.603655	-0.844711	0.028805
C148	C	1.103655	-0.344711	0.528805
C149	C	0.603653	-0.792491	0.028808
C150	C	1.103653	-0.292491	0.528808
C151	C	0.570526	-0.766387	0.061904
C152	C	1.070526	-0.266387	0.561904
C153	C	0.603618	-0.207645	0.028837
C154	C	1.103618	0.292355	0.528837
C155	C	0.603615	-0.155425	0.028846
C156	C	1.103615	0.344575	0.528846
C157	C	0.537370	-0.155437	0.095037
C158	C	1.037370	0.344563	0.595037
C159	C	0.537374	-0.207653	0.095031
C160	C	1.037374	0.292347	0.595031
C161	C	0.570500	-0.233756	0.061927
C162	C	1.070500	0.266244	0.561927
O163	O	0.509239	-0.290267	0.123159
O164	O	1.009239	0.209733	0.623159
O165	O	0.631784	-0.290290	0.000677
O166	O	1.131784	0.209710	0.500677
C167	C	0.603631	-0.526171	0.028814
C168	C	1.103631	-0.026171	0.528814
C169	C	0.570510	-0.552282	0.061906
C170	C	1.070510	-0.052282	0.561906
C171	C	0.537388	-0.526177	0.095002
C172	C	1.037388	-0.026177	0.595002
C173	C	0.570514	-0.604501	0.061906
C174	C	1.070514	-0.104501	0.561906
C175	C	0.603637	-0.630606	0.028810
C176	C	1.103637	-0.130606	0.528810
C177	C	0.636755	-0.604493	-0.004286
C178	C	1.136755	-0.104493	0.495714
C179	C	0.636753	-0.552277	-0.004282
C180	C	1.136753	-0.052277	0.495718
C181	C	0.504270	-0.552290	0.128097
C182	C	1.004270	-0.052290	0.628097
C183	C	0.504274	-0.604507	0.128091
C184	C	1.004274	-0.104507	0.628091
C185	C	0.537397	-0.630612	0.094995
C186	C	1.037397	-0.130612	0.594995
C187	C	0.658915	-0.000084	0.057740
C188	C	1.158915	0.499916	0.557740
C189	C	0.712569	-0.000089	0.058296
C190	C	1.212569	0.499911	0.558296
C191	C	0.574717	-0.000085	-0.026481
C192	C	1.074717	0.499915	0.473519
C193	C	0.574174	-0.000090	-0.080138
C194	C	1.074174	0.499910	0.419862
N195	N	0.570533	0.129175	0.061903
N196	N	1.070533	0.629175	0.561903
C197	C	0.570767	0.045156	-0.412860
C198	C	1.070767	0.545156	0.087140
C199	C	0.568706	0.045165	-0.614519
C200	C	1.068706	0.545165	-0.114519
O201	O	0.568425	0.083624	-0.640595
O202	O	1.068425	0.583624	-0.140595
N203	N	0.568442	-0.000056	-0.639730
N204	N	1.068442	0.499944	-0.139730
C205	C	0.568691	-0.045282	-0.614523
C206	C	1.068691	0.454718	-0.114523
O207	O	0.568414	-0.083744	-0.640592
O208	O	1.068414	0.416256	-0.140592
C209	C	0.570748	-0.045290	-0.412865
C210	C	1.070748	0.454710	0.087135
C211	C	0.571017	-0.000067	-0.387657
C212	C	1.071017	0.499933	0.112343
C213	C	0.571035	0.090376	-0.387653
C214	C	1.071035	0.590376	0.112347
C215	C	0.571553	0.090373	-0.337242
C216	C	1.071553	0.590373	0.162758
C217	C	0.571803	0.045150	-0.312038
C218	C	1.071803	0.545150	0.187962
C219	C	0.571535	-0.000069	-0.337246
C220	C	1.071535	0.499931	0.162754
C221	C	0.570993	-0.090516	-0.387658
C222	C	1.070993	0.409484	0.112342
C223	C	0.571506	-0.090514	-0.337240
C224	C	1.071506	0.409486	0.162760
C225	C	0.571775	-0.045290	-0.312032
C226	C	1.071775	0.454710	0.187968
C227	C	0.572302	-0.045295	-0.261631
C228	C	1.072302	0.454705	0.238369
N229	N	0.572566	-0.000074	-0.236420
N230	N	1.072566	0.499926	0.263580
C231	C	0.572316	0.045148	-0.261624
C232	C	1.072316	0.545148	0.238376
C233	C	0.567611	-0.045274	-0.720396
C234	C	1.067611	0.454726	-0.220396
C235	C	0.567098	-0.045272	-0.770810
C236	C	1.067098	0.454728	-0.270810
C237	C	0.567112	0.045175	-0.770803
C238	C	1.067112	0.545175	-0.270803
C239	C	0.567629	0.045172	-0.720388
C240	C	1.067629	0.545172	-0.220388
C241	C	0.567875	-0.000053	-0.695185
C242	C	1.067875	0.499947	-0.195185
C243	C	0.573404	0.045139	-0.155757
C244	C	1.073404	0.545139	0.344243
C245	C	0.573924	0.045133	-0.105341
C246	C	1.073924	0.545133	0.394659
C247	C	0.573907	-0.045314	-0.105353
C248	C	1.073907	0.454686	0.394647
C249	C	0.573390	-0.045308	-0.155764
C250	C	1.073390	0.454692	0.344236
C251	C	0.573137	-0.000077	-0.180964
C252	C	1.073137	0.499923	0.319036
O253	O	0.572578	-0.083734	-0.235523
O254	O	1.072578	0.416266	0.264477
O255	O	0.572582	0.083605	-0.235544
O256	O	1.072582	0.583605	0.264456
C257	C	0.570249	0.045159	-0.463272
C258	C	1.070249	0.545159	0.036728
C259	C	0.569981	-0.000061	-0.488479
C260	C	1.069981	0.499939	0.011521
C261	C	0.570231	-0.045284	-0.463276
C262	C	1.070231	0.454716	0.036724
C263	C	0.569467	-0.000059	-0.538894
C264	C	1.069467	0.499941	-0.038894
C265	C	0.569218	0.045163	-0.564097
C266	C	1.069218	0.545163	-0.064097
C267	C	0.569481	0.090384	-0.538886
C268	C	1.069481	0.590384	-0.038886
C269	C	0.569999	0.090381	-0.488475
C270	C	1.069999	0.590381	0.011525
C271	C	0.569967	-0.090504	-0.488487
C272	C	1.069967	0.409496	0.011513
C273	C	0.569450	-0.090498	-0.538898
C274	C	1.069450	0.409502	-0.038898
C275	C	0.569200	-0.045275	-0.564102
C276	C	1.069200	0.454725	-0.064102
C277	C	0.566305	-0.000058	0.150330
C278	C	1.066305	0.499942	0.650330
C279	C	0.566848	-0.000049	0.203986
C280	C	1.066848	0.499951	0.703986
H281	H	-0.271697	-0.000095	-0.021635
H282	H	0.228303	0.499905	0.478365
H283	H	0.477284	-0.469104	0.155051
H284	H	0.977284	0.030896	0.655051
H285	H	0.477302	-0.625762	0.155045
H286	H	0.977302	-0.125762	0.655045
H287	H	0.208998	-0.000091	-0.060900
H288	H	0.708998	0.499909	0.439100
Cl289	Cl	-0.081845	-0.000086	0.204157
Cl290	Cl	0.418155	0.499914	0.704157
H291	H	-0.202330	-0.000077	0.139246
H292	H	0.297670	0.499923	0.639246
H293	H	0.510403	-0.134174	0.121985
H294	H	1.010403	0.365826	0.621985
Cl295	Cl	0.566795	0.102026	-0.802496
Cl296	Cl	1.066795	0.602026	-0.302496
H297	H	0.663723	-0.469095	-0.031227
H298	H	1.163723	0.030905	0.468773
Cl299	Cl	0.645260	-0.122602	-0.012761
Cl300	Cl	1.145260	0.377398	0.487239
H301	H	0.477297	-0.531039	0.155048
H302	H	0.977297	-0.031039	0.655048
H303	H	0.510406	-0.228913	0.121984
H304	H	1.010406	0.271087	0.621984
H305	H	0.570830	0.127204	-0.408168
H306	H	1.070830	0.627204	0.091832
H307	H	0.412717	-0.000036	0.145480
H308	H	0.912717	0.499964	0.645480
H309	H	0.630625	-0.865975	0.001858
H310	H	1.130625	-0.365975	0.501858
H311	H	0.570171	-0.127331	-0.467971
H312	H	1.070171	0.372669	0.032029
Cl313	Cl	0.567918	-0.102135	-0.688719
Cl314	Cl	1.067918	0.397865	-0.188719
Cl315	Cl	0.334893	-0.000069	-0.035040
Cl316	Cl	0.834893	0.499931	0.464960
Cl317	Cl	0.678395	-0.637321	-0.045891
Cl318	Cl	1.178395	-0.137321	0.454109
H319	H	-0.180245	-0.000100	-0.020712
H320	H	0.319755	0.499900	0.479288
H321	H	0.573176	-0.082132	-0.176290
H322	H	1.073176	0.417868	0.323710
H323	H	0.321266	-0.000051	0.144555
H324	H	0.821266	0.499949	0.644555
H325	H	0.574144	0.081961	-0.084820
H326	H	1.074144	0.581961	0.415180
Cl327	Cl	0.570336	0.147237	-0.456793
Cl328	Cl	1.070336	0.647237	0.043207
Cl329	Cl	0.645263	-0.240452	-0.012779
Cl330	Cl	1.145263	0.259548	0.487221
H331	H	0.574113	-0.082133	-0.084823
H332	H	1.074113	0.417867	0.415177
Cl333	Cl	0.109073	-0.000094	-0.081471
Cl334	Cl	0.609073	0.499906	0.418529
Cl335	Cl	0.678396	-0.519459	-0.045889
Cl336	Cl	1.178396	-0.019459	0.454111
Cl337	Cl	0.569169	0.147235	-0.570581
Cl338	Cl	1.069169	0.647235	-0.070581
H339	H	0.573196	0.081970	-0.176269
H340	H	1.073196	0.581970	0.323731
H341	H	0.571770	0.127199	-0.316722
H342	H	1.071770	0.627199	0.183278
H343	H	0.663720	-0.374371	-0.031220
H344	H	1.163720	0.125629	0.468780
H345	H	0.630625	-0.771235	0.001860
H346	H	1.130625	-0.271235	0.501860
Cl347	Cl	0.495774	-0.877539	0.136611
Cl348	Cl	0.995774	-0.377539	0.636611
Cl349	Cl	0.448686	-0.000065	-0.033879
Cl350	Cl	0.948686	0.499935	0.466121
Cl351	Cl	0.462605	-0.362816	0.169709
Cl352	Cl	0.962605	0.137184	0.669709
H353	H	0.510430	-0.771250	0.121951
H354	H	1.010430	-0.271250	0.621951
Cl355	Cl	0.567965	0.102027	-0.688704
Cl356	Cl	1.067965	0.602027	-0.188704
Cl357	Cl	0.566770	-0.102127	-0.802495
Cl358	Cl	1.066770	0.397873	-0.302495
H359	H	-0.033699	-0.000098	-0.063367
H360	H	0.466301	0.499902	0.436633
Cl361	Cl	0.071607	-0.000098	-0.081851
Cl362	Cl	0.571607	0.499902	0.418149
H363	H	0.023467	-0.000073	0.185677
H364	H	0.523467	0.499927	0.685677
Cl365	Cl	0.570652	-0.147372	-0.419335
Cl366	Cl	1.070652	0.352628	0.080665
Cl367	Cl	0.571816	-0.147373	-0.305559
Cl368	Cl	1.071816	0.352627	0.194441
Cl369	Cl	0.569115	-0.147357	-0.570582
Cl370	Cl	1.069115	0.352643	-0.070582
H371	H	0.174713	-0.000060	0.187204
H372	H	0.674713	0.499940	0.687204
Cl373	Cl	-0.307660	-0.000075	0.157724
Cl374	Cl	0.192340	0.499925	0.657724
H375	H	0.083265	-0.000065	0.186276
H376	H	0.583265	0.499935	0.686276
