data_functionalizedCrystal
_audit_creation_method	'MofGen! by Chris Wilmer'
_symmetry_space_group_name_H-M	'P1'
_symmetry_Int_Tables_number	1
_symmetry_cell_setting	triclinic
loop_
_symmetry_equiv_pos_as_xyz
  x,y,z
_cell_length_a	19.121102
_cell_length_b	19.120786
_cell_length_c	18.101390
_cell_angle_alpha	87.524889
_cell_angle_beta	87.541727
_cell_angle_gamma	89.915559
loop_
_atom_site_label
_atom_site_type_symbol
_atom_site_fract_x
_atom_site_fract_y
_atom_site_fract_z
Zn1	Zn	1.059863	-0.324890	-0.451720
Zn2	Zn	1.393196	0.008443	-0.118387
Zn3	Zn	1.726529	0.341776	0.214947
Zn4	Zn	1.054773	-0.442145	-0.322370
Zn5	Zn	1.388106	-0.108812	0.010963
Zn6	Zn	1.721439	0.224522	0.344296
Zn7	Zn	0.942625	-0.319913	-0.322850
Zn8	Zn	1.275958	0.013420	0.010484
Zn9	Zn	1.609291	0.346754	0.343817
Zn10	Zn	0.937592	-0.437088	-0.441134
Zn11	Zn	1.270925	-0.103755	-0.107800
Zn12	Zn	1.604258	0.229579	0.225533
O13	O	0.998713	-0.381009	-0.384518
O14	O	1.332046	-0.047676	-0.051185
O15	O	1.665380	0.285658	0.282148
O16	O	1.157293	-0.344644	-0.438791
O17	O	1.490626	-0.011310	-0.105458
O18	O	1.823959	0.322023	0.227875
O19	O	1.039872	-0.425964	-0.218798
O20	O	1.373206	-0.092631	0.114535
O21	O	1.706539	0.240703	0.447868
O22	O	0.962413	-0.222464	-0.344576
O23	O	1.295746	0.110870	-0.011243
O24	O	1.629080	0.444203	0.322091
O25	O	1.153553	-0.430790	-0.343759
O26	O	1.486886	-0.097457	-0.010425
O27	O	1.820220	0.235876	0.322908
O28	O	1.048547	-0.226120	-0.439256
O29	O	1.381880	0.107213	-0.105923
O30	O	1.715214	0.440546	0.227410
O31	O	0.957477	-0.336161	-0.219151
O32	O	1.290811	-0.002827	0.114183
O33	O	1.624144	0.330506	0.447516
O34	O	0.843852	-0.331257	-0.334311
O35	O	1.177185	0.002076	-0.000977
O36	O	1.510518	0.335409	0.332356
O37	O	0.953835	-0.422171	-0.546173
O38	O	1.287168	-0.088838	-0.212840
O39	O	1.620502	0.244495	0.120493
O40	O	0.840154	-0.417345	-0.421213
O41	O	1.173487	-0.084012	-0.087880
O42	O	1.506821	0.249322	0.245453
O43	O	1.043667	-0.339740	-0.553951
O44	O	1.377000	-0.006407	-0.220618
O45	O	1.710334	0.326927	0.112715
O46	O	1.034992	-0.539584	-0.333493
O47	O	1.368325	-0.206251	-0.000160
O48	O	1.701659	0.127083	0.333173
O49	O	0.948900	-0.535869	-0.420748
O50	O	1.282233	-0.202535	-0.087415
O51	O	1.615566	0.130798	0.245918
C52	C	0.816565	-0.373213	-0.376666
C53	C	1.149899	-0.039879	-0.043332
C54	C	1.483232	0.293454	0.290001
C55	C	0.738641	-0.369894	-0.373323
C56	C	1.071974	-0.036561	-0.039990
C57	C	1.405308	0.296772	0.293344
C58	C	0.990866	-0.563166	-0.375937
C59	C	1.324200	-0.229832	-0.042604
C60	C	1.657533	0.103501	0.290730
C61	C	0.987574	-0.641096	-0.372293
C62	C	1.320907	-0.307763	-0.038960
C63	C	1.654240	0.025571	0.294373
C64	C	0.700122	-0.413225	-0.416920
C65	C	1.033456	-0.079891	-0.083587
C66	C	1.366789	0.253442	0.249746
C67	C	0.626905	-0.410097	-0.413784
C68	C	0.960238	-0.076764	-0.080450
C69	C	1.293571	0.256569	0.252883
C70	C	0.592207	-0.363643	-0.367045
C71	C	0.925540	-0.030310	-0.033711
C72	C	1.258873	0.303024	0.299622
C73	C	0.630731	-0.320308	-0.323446
C74	C	0.964064	0.013025	0.009888
C75	C	1.297397	0.346358	0.343221
C76	C	0.703947	-0.323432	-0.326587
C77	C	1.037281	0.009901	0.006746
C78	C	1.370614	0.343234	0.340080
C79	C	0.371236	-0.351961	-0.355304
C80	C	0.704569	-0.018628	-0.021971
C81	C	1.037902	0.314706	0.311363
C82	C	0.298014	-0.348842	-0.352165
C83	C	0.631347	-0.015508	-0.018831
C84	C	0.964681	0.317825	0.314502
C85	C	0.294193	-0.438630	-0.442504
C86	C	0.627526	-0.105297	-0.109171
C87	C	0.960859	0.228037	0.224163
C88	C	0.367411	-0.441753	-0.445638
C89	C	0.700744	-0.108420	-0.112304
C90	C	1.034077	0.224914	0.221029
C91	C	0.405929	-0.398416	-0.402041
C92	C	0.739262	-0.065082	-0.068708
C93	C	1.072595	0.268251	0.264625
C94	C	0.517366	-0.360447	-0.363836
C95	C	0.850700	-0.027114	-0.030502
C96	C	1.184033	0.306220	0.302831
C97	C	0.480768	-0.401609	-0.405255
C98	C	0.814101	-0.068275	-0.071922
C99	C	1.147434	0.265058	0.261412
C100	C	1.030839	-0.679550	-0.419913
C101	C	1.364172	-0.346216	-0.086580
C102	C	1.697505	-0.012883	0.246753
C103	C	1.027742	-0.752773	-0.416491
C104	C	1.361076	-0.419440	-0.083158
C105	C	1.694409	-0.086106	0.250176
C106	C	0.981383	-0.787542	-0.365444
C107	C	1.314717	-0.454208	-0.032111
C108	C	1.648050	-0.120875	0.301223
C109	C	0.938114	-0.749083	-0.317822
C110	C	1.271447	-0.415749	0.015512
C111	C	1.604780	-0.082416	0.348845
C112	C	0.941207	-0.675860	-0.321248
C113	C	1.274540	-0.342527	0.012085
C114	C	1.607874	-0.009194	0.345418
C115	C	0.969798	-1.008533	-0.352633
C116	C	1.303131	-0.675200	-0.019300
C117	C	1.636464	-0.341867	0.314033
C118	C	0.966709	-1.081761	-0.349209
C119	C	1.300042	-0.748428	-0.015875
C120	C	1.633376	-0.415094	0.317458
C121	C	1.056337	-1.085447	-0.447879
C122	C	1.389670	-0.752113	-0.114546
C123	C	1.723004	-0.418780	0.218787
C124	C	1.059429	-1.012223	-0.451298
C125	C	1.392763	-0.678889	-0.117965
C126	C	1.726096	-0.345556	0.215368
C127	C	1.016157	-0.973770	-0.403679
C128	C	1.349490	-0.640437	-0.070345
C129	C	1.682824	-0.307103	0.262988
C130	C	0.978219	-0.862388	-0.361943
C131	C	1.311552	-0.529055	-0.028610
C132	C	1.644885	-0.195721	0.304724
C133	C	1.019319	-0.898925	-0.407184
C134	C	1.352652	-0.565592	-0.073851
C135	C	1.685985	-0.232258	0.259483
C136	C	1.181572	-0.388836	-0.392402
C137	C	1.514905	-0.055503	-0.059069
C138	C	1.848238	0.277830	0.274264
C139	C	1.259495	-0.392172	-0.395762
C140	C	1.592829	-0.058838	-0.062429
C141	C	1.926162	0.274495	0.270905
C142	C	0.998757	-0.380947	-0.577685
C143	C	1.332091	-0.047614	-0.244352
C144	C	1.665424	0.285720	0.088981
C145	C	0.998776	-0.380920	-0.660001
C146	C	1.332109	-0.047587	-0.326668
C147	C	1.665443	0.285746	0.006665
C148	C	1.006609	-0.198142	-0.393151
C149	C	1.339942	0.135191	-0.059817
C150	C	1.673276	0.468525	0.273516
C151	C	1.009974	-0.120215	-0.396829
C152	C	1.343307	0.213118	-0.063496
C153	C	1.676641	0.546452	0.269838
C154	C	0.998816	-0.380878	-0.959096
C155	C	1.332149	-0.047545	-0.625763
C156	C	1.665483	0.285788	-0.292430
C157	C	1.055506	-0.329213	-0.932663
C158	C	1.388839	0.004120	-0.599330
C159	C	1.722173	0.337454	-0.265997
C160	C	1.055345	-0.329005	-0.847047
C161	C	1.388678	0.004328	-0.513714
C162	C	1.722012	0.337661	-0.180381
C163	C	0.998797	-0.380899	-0.810712
C164	C	1.332130	-0.047566	-0.477378
C165	C	1.665463	0.285768	-0.144045
C166	C	0.925795	-0.357670	-0.839552
C167	C	1.259129	-0.024336	-0.506219
C168	C	1.592462	0.308997	-0.172885
C169	C	0.926138	-0.357279	-0.925230
C170	C	1.259472	-0.023946	-0.591897
C171	C	1.592805	0.309388	-0.258563
C172	C	1.014471	-0.455884	-0.924834
C173	C	1.347804	-0.122551	-0.591501
C174	C	1.681137	0.210783	-0.258168
C175	C	1.016108	-0.455575	-0.839272
C176	C	1.349441	-0.122241	-0.505938
C177	C	1.682774	0.211092	-0.172605
C178	C	0.998781	-0.380912	-0.726851
C179	C	1.332115	-0.047579	-0.393518
C180	C	1.665448	0.285755	-0.060184
C181	C	0.998826	-0.380863	-1.042957
C182	C	1.332160	-0.047530	-0.709624
C183	C	1.665493	0.285803	-0.376290
C184	C	0.998711	-0.381022	-0.192107
C185	C	1.332044	-0.047689	0.141226
C186	C	1.665378	0.285644	0.474559
C187	C	0.998836	-0.380857	-0.109807
C188	C	1.332170	-0.047524	0.223527
C189	C	1.665503	0.285810	0.556860
H190	H	0.595546	-0.445382	-0.449285
H191	H	0.928879	-0.112049	-0.115951
H192	H	1.262212	0.221285	0.217382
H193	H	0.882633	-0.393101	-0.942370
H194	H	1.215966	-0.059768	-0.609037
H195	H	1.549299	0.273566	-0.275704
O196	O	1.083553	-0.483081	-0.955324
O197	O	1.416886	-0.149747	-0.621991
O198	O	1.750219	0.183586	-0.288658
H199	H	1.126206	-0.447130	-0.941706
H200	H	1.459539	-0.113797	-0.608373
H201	H	1.792873	0.219536	-0.275040
H202	H	0.928955	-1.110067	-0.307640
H203	H	1.262288	-0.776734	0.025694
H204	H	1.595621	-0.443401	0.359027
O205	O	0.479926	-0.310359	-0.313419
O206	O	0.813259	0.022974	0.019914
O207	O	1.146592	0.356308	0.353248
H208	H	0.496334	-0.255941	-0.329401
H209	H	0.829668	0.077393	0.003933
H210	H	1.163001	0.410726	0.337266
H211	H	0.882547	-0.394003	-0.815594
H212	H	1.215880	-0.060670	-0.482261
H213	H	1.549214	0.272663	-0.148927
O214	O	0.260572	-0.298744	-0.301752
O215	O	0.593905	0.034589	0.031581
O216	O	0.927239	0.367923	0.364915
H217	H	0.276976	-0.244326	-0.317742
H218	H	0.610309	0.089007	0.015591
H219	H	0.943643	0.422340	0.348925
O220	O	0.907307	-0.285695	-0.813582
O221	O	1.240640	0.047638	-0.480249
O222	O	1.573974	0.380972	-0.146916
H223	H	0.949993	-0.266349	-0.780144
H224	H	1.283326	0.066984	-0.446811
H225	H	1.616659	0.400318	-0.113478
H226	H	0.262824	-0.473912	-0.477998
H227	H	0.596157	-0.140579	-0.144665
H228	H	0.929491	0.192755	0.188668
O229	O	0.928234	-0.899896	-0.306874
O230	O	1.261568	-0.566563	0.026459
O231	O	1.594901	-0.233230	0.359793
H232	H	0.891141	-0.931749	-0.336884
H233	H	1.224475	-0.598416	-0.003550
H234	H	1.557808	-0.265082	0.329783
H235	H	1.069814	-0.473034	-0.820588
H236	H	1.403148	-0.139701	-0.487255
H237	H	1.736481	0.193633	-0.153922
O238	O	1.041958	-0.255485	-0.822633
O239	O	1.375292	0.077848	-0.489300
O240	O	1.708625	0.411182	-0.155967
H241	H	0.990436	-0.237225	-0.841897
H242	H	1.323769	0.096108	-0.508564
H243	H	1.657103	0.429441	-0.175231
H244	H	0.934565	-0.977231	-0.313858
H245	H	1.267898	-0.643898	0.019475
H246	H	1.601232	-0.310564	0.352809
H247	H	0.977568	-0.496393	-0.814285
H248	H	1.310901	-0.163059	-0.480952
H249	H	1.644234	0.170274	-0.147619
H250	H	1.109922	-0.343976	-0.955045
H251	H	1.443256	-0.010643	-0.621712
H252	H	1.776589	0.322691	-0.288379
O253	O	1.127181	-0.348740	-0.821548
O254	O	1.460514	-0.015407	-0.488215
O255	O	1.793848	0.317926	-0.154882
H256	H	1.162350	-0.358516	-0.870399
H257	H	1.495684	-0.025183	-0.537065
H258	H	1.829017	0.308150	-0.203732
O259	O	0.959733	-0.506934	-0.946894
O260	O	1.293067	-0.173600	-0.613560
O261	O	1.626400	0.159733	-0.280227
H262	H	0.921559	-0.479066	-0.982086
H263	H	1.254893	-0.145732	-0.648753
H264	H	1.588226	0.187601	-0.315420
H265	H	1.045538	-0.274024	-0.956238
H266	H	1.378871	0.059309	-0.622905
H267	H	1.712204	0.392643	-0.289572
H268	H	0.900364	-0.777397	-0.276261
H269	H	1.233698	-0.444063	0.057072
H270	H	1.567031	-0.110730	0.390405
O271	O	1.109453	-0.974723	-0.506333
O272	O	1.442786	-0.641389	-0.173000
O273	O	1.776120	-0.308056	0.160334
H274	H	1.139024	-1.013765	-0.538867
H275	H	1.472357	-0.680431	-0.205534
H276	H	1.805691	-0.347098	0.127800
H277	H	0.728368	-0.451055	-0.454978
H278	H	1.061701	-0.117722	-0.121644
H279	H	1.395034	0.215612	0.211689
O280	O	0.404836	-0.491851	-0.496055
O281	O	0.738169	-0.158517	-0.162722
O282	O	1.071503	0.174816	0.170611
H283	H	0.365750	-0.521451	-0.525852
H284	H	0.699084	-0.188118	-0.192518
H285	H	1.032417	0.145215	0.140815
H286	H	0.912498	-0.302356	-0.947081
H287	H	1.245832	0.030977	-0.613748
H288	H	1.579165	0.364310	-0.280415
H289	H	0.402588	-0.316678	-0.319799
H290	H	0.735921	0.016655	0.013534
H291	H	1.069255	0.349989	0.346868
O292	O	0.593311	-0.270220	-0.273013
O293	O	0.926645	0.063114	0.060320
O294	O	1.259978	0.396447	0.393654
H295	H	0.535927	-0.275338	-0.278139
H296	H	0.869260	0.057996	0.055194
H297	H	1.202594	0.391329	0.388528
H298	H	1.068592	-0.651246	-0.461478
H299	H	1.401925	-0.317913	-0.128145
H300	H	1.735259	0.015420	0.205189
H301	H	0.905975	-0.644552	-0.282472
H302	H	1.239308	-0.311218	0.050861
H303	H	1.572642	0.022115	0.384195
O304	O	1.069327	-0.861431	-0.462235
O305	O	1.402660	-0.528098	-0.128902
O306	O	1.735993	-0.194764	0.204432
H307	H	1.039343	-0.826725	-0.500093
H308	H	1.372677	-0.493392	-0.166759
H309	H	1.706010	-0.160058	0.166574
O310	O	0.745498	-0.276707	-0.279556
O311	O	1.078831	0.056626	0.053778
O312	O	1.412164	0.389960	0.387111
H313	H	0.709071	-0.243886	-0.246519
H314	H	1.042404	0.089448	0.086814
H315	H	1.375738	0.422781	0.420147
O316	O	0.518193	-0.451699	-0.455676
O317	O	0.851526	-0.118366	-0.122343
O318	O	1.184860	0.214967	0.210990
H319	H	0.550006	-0.488754	-0.422224
H320	H	0.883340	-0.155421	-0.088891
H321	H	1.216673	0.177912	0.244443
O322	O	1.074407	-0.794251	-0.467851
O323	O	1.407740	-0.460918	-0.134518
O324	O	1.741074	-0.127584	0.198815
H325	H	1.107169	-0.757773	-0.503916
H326	H	1.440502	-0.424440	-0.170583
H327	H	1.773835	-0.091107	0.162750
O328	O	1.102997	-1.126918	-0.499250
O329	O	1.436331	-0.793585	-0.165917
O330	O	1.769664	-0.460251	0.167416
H331	H	1.093054	-1.183675	-0.488301
H332	H	1.426388	-0.850342	-0.154967
H333	H	1.759721	-0.517008	0.178366
