data_functionalizedCrystal
_audit_creation_method	'MofGen! by Chris Wilmer'
_symmetry_space_group_name_H-M	'P1'
_symmetry_Int_Tables_number	1
_symmetry_cell_setting	triclinic
loop_
_symmetry_equiv_pos_as_xyz
  x,y,z
_cell_length_a	19.288864
_cell_length_b	19.288865
_cell_length_c	17.766277
_cell_angle_alpha	89.989546
_cell_angle_beta	89.976755
_cell_angle_gamma	83.136245
loop_
_atom_site_label
_atom_site_type_symbol
_atom_site_fract_x
_atom_site_fract_y
_atom_site_fract_z
O1	O	-0.921353	-0.086648	0.062844
O2	O	-0.719093	-0.098336	0.062794
O3	O	-0.826067	0.008638	0.062806
O4	O	-0.814379	-0.193622	0.062832
O5	O	-0.826048	0.008641	-0.062383
O6	O	-0.719074	-0.098333	-0.062395
O7	O	-0.921334	-0.086645	-0.062344
Cu8	Cu	-0.820202	-0.092489	-0.073800
Cu9	Cu	-0.820225	-0.092492	0.074250
O10	O	-0.814359	-0.193619	-0.062356
C11	C	-0.693207	-0.097959	0.000193
C12	C	-0.616103	-0.096830	0.000173
C13	C	-0.825682	0.034516	0.000209
C14	C	-0.824553	0.111620	0.000202
C15	C	-0.947220	-0.087022	0.000258
C16	C	-1.024324	-0.088151	0.000283
C17	C	-0.814745	-0.219497	0.000242
C18	C	-0.815874	-0.296601	0.000254
C19	C	-0.571407	-0.159598	0.000193
C20	C	-0.498960	-0.158537	0.000201
C21	C	-0.471212	-0.094705	0.000205
C22	C	-0.515918	-0.031929	0.000180
C23	C	-0.588364	-0.032991	0.000164
C24	C	-0.362957	-0.044527	0.044082
C25	C	-0.290512	-0.043467	0.044103
C26	C	-0.247767	-0.091425	0.000250
C27	C	-0.277473	-0.140455	-0.043614
C28	C	-0.349918	-0.141518	-0.043630
C29	C	-0.392658	-0.093546	0.000221
C30	C	-0.124514	-0.153047	0.000278
C31	C	-0.052066	-0.151984	0.000281
C32	C	-0.069026	-0.025374	0.000267
C33	C	-0.141473	-0.026439	0.000256
C34	C	-0.169212	-0.090278	0.000265
N35	N	-0.820191	-0.092486	-0.177931
C36	C	-0.887321	0.156316	0.000214
C37	C	-0.886260	0.228763	0.000226
C38	C	-0.822428	0.256511	0.000210
C39	C	-0.759652	0.211805	0.000203
C40	C	-0.760714	0.139359	0.000198
C41	C	-0.772241	0.364799	-0.043653
C42	C	-0.771182	0.437244	-0.043654
C43	C	-0.819148	0.479956	0.000226
C44	C	-0.868186	0.450217	0.044097
C45	C	-0.869249	0.377772	0.044093
C46	C	-0.821269	0.335065	0.000215
C47	C	-0.880770	0.603209	0.000252
C48	C	-0.879707	0.675657	0.000268
C49	C	-0.753097	0.658697	0.000238
C50	C	-0.754162	0.586250	0.000229
C51	C	-0.818001	0.558511	0.000232
C52	C	-0.862179	-0.134509	-0.217294
C53	C	-0.862190	-0.134507	-0.296096
C54	C	-0.820200	-0.092490	-0.335531
C55	C	-0.778210	-0.050457	-0.296158
C56	C	-0.778206	-0.050455	-0.217358
C57	C	-0.757588	-0.090733	-0.460407
C58	C	-0.757591	-0.090740	-0.539206
C59	C	-0.820215	-0.092492	-0.578577
C60	C	-0.882836	-0.094251	-0.539141
C61	C	-0.882832	-0.094249	-0.460341
C62	C	-0.820201	-0.092487	-0.420977
C63	C	-0.862218	-0.134516	-0.703387
C64	C	-0.862230	-0.134509	-0.782190
C65	C	-0.778244	-0.050463	-0.782251
C66	C	-0.778238	-0.050466	-0.703449
C67	C	-0.820224	-0.092496	-0.664022
N68	N	-0.820241	-0.092490	0.178380
H69	H	-0.462561	-0.209652	0.000216
H70	H	-0.242670	-0.179507	-0.079324
H71	H	-0.397755	-0.005472	0.079797
N72	N	-0.486000	0.036922	0.000188
H73	H	-0.502288	0.064412	-0.046227
H74	H	-0.433328	0.028017	0.000233
N75	N	-0.686462	0.538036	0.000211
H76	H	-0.645862	0.566605	0.000203
H77	H	-0.684138	0.507618	-0.046200
H78	H	-0.930822	0.712049	0.000282
N79	N	-0.919927	0.496276	0.091427
H80	H	-0.968979	0.490220	0.075057
H81	H	-0.911751	0.546661	0.084756
N82	N	-0.907470	-0.179844	-0.338563
H83	H	-0.901099	-0.173468	-0.394465
H84	H	-0.958030	-0.166000	-0.324771
H85	H	-0.744013	-0.016234	-0.185308
H86	H	-0.177866	0.024674	0.000244
H87	H	-0.933821	-0.095680	-0.428234
N88	N	-0.258473	0.009412	0.091408
H89	H	-0.270247	0.002764	0.146134
H90	H	-0.277628	0.058071	0.074955
N91	N	-0.949620	0.573283	0.000257
H92	H	-0.977120	0.589581	0.046673
H93	H	-0.940707	0.520611	0.000217
H94	H	-0.733180	0.330028	-0.079389
H95	H	-0.624756	0.018124	0.000148
N96	N	-0.381961	-0.194392	-0.090938
H97	H	-0.343893	-0.224614	-0.118719
H98	H	-0.415421	-0.169268	-0.128408
H99	H	-0.707679	0.234401	0.000192
H100	H	-0.147101	-0.205028	0.000274
H101	H	-0.933830	-0.095682	-0.571196
N102	N	-0.684244	0.688608	0.000213
H103	H	-0.656760	0.672282	0.046611
H104	H	-0.693147	0.741280	0.000188
H105	H	-0.731249	0.461451	-0.079371
N106	N	-0.693012	0.091146	0.000186
H107	H	-0.652411	0.119713	0.000181
H108	H	-0.690688	0.060729	-0.046227
N109	N	-0.601326	-0.228449	0.000208
H110	H	-0.562013	-0.268051	0.000224
H111	H	-0.630990	-0.231654	-0.046205
N112	N	-0.907500	-0.179843	-0.660855
H113	H	-0.934106	-0.206462	-0.697752
H114	H	-0.941547	-0.149473	-0.628146
N115	N	-0.003854	-0.219687	0.000243
H116	H	-0.032423	-0.260286	0.000230
H117	H	0.026575	-0.222036	0.046639
N118	N	-0.956172	0.126397	0.000219
H119	H	-0.995774	0.165710	0.000229
H120	H	-0.959381	0.096700	0.046627
H121	H	-0.896369	-0.168731	-0.185197
N122	N	-0.907516	-0.179829	-0.824665
H123	H	-0.941608	-0.149495	-0.857344
H124	H	-0.934071	-0.206452	-0.787692
N125	N	-0.732960	-0.005136	-0.824773
H126	H	-0.739335	-0.011512	-0.880666
H127	H	-0.682401	-0.018987	-0.811023
N128	N	-0.732950	-0.005141	-0.660986
H129	H	-0.706350	0.021478	-0.697923
H130	H	-0.698897	-0.035512	-0.628301
H131	H	-0.706600	-0.089311	-0.571309
N132	N	-0.690040	-0.088839	-0.417945
H133	H	-0.650371	-0.087731	-0.454882
H134	H	-0.680984	-0.131800	-0.385244
H135	H	-0.744023	-0.016245	-0.328271
H136	H	-0.046435	0.026600	0.000317
H137	H	-0.909176	0.353561	0.079815
N138	N	-0.953962	0.276984	0.000240
H139	H	-0.994563	0.248418	0.000243
H140	H	-0.956264	0.307419	-0.046168
