data_functionalizedCrystal
_audit_creation_method	'MofGen! by Chris Wilmer'
_symmetry_space_group_name_H-M	'P1'
_symmetry_Int_Tables_number	1
_symmetry_cell_setting	triclinic
loop_
_symmetry_equiv_pos_as_xyz
  x,y,z
_cell_length_a	10.654550
_cell_length_b	14.971482
_cell_length_c	13.448316
_cell_angle_alpha	89.993798
_cell_angle_beta	89.994587
_cell_angle_gamma	84.048756
loop_
_atom_site_label
_atom_site_type_symbol
_atom_site_fract_x
_atom_site_fract_y
_atom_site_fract_z
O1	O	0.163637	1.187840	-0.082676
O2	O	0.663637	1.687840	0.417324
O3	O	0.183240	0.927546	-0.082681
O4	O	0.683240	1.427546	0.417319
O5	O	-0.009365	1.063678	-0.082675
O6	O	0.490635	1.563678	0.417325
O7	O	0.356242	1.051708	-0.082682
O8	O	0.856242	1.551708	0.417318
O9	O	-0.009377	1.063660	0.082709
O10	O	0.490623	1.563660	0.582709
O11	O	0.183228	0.927529	0.082703
O12	O	0.683228	1.427529	0.582703
O13	O	0.163625	1.187823	0.082707
O14	O	0.663625	1.687823	0.582707
Cu15	Cu	0.173426	1.057674	0.097806
Cu16	Cu	0.673426	1.557674	0.597806
Cu17	Cu	0.173440	1.057694	-0.097780
Cu18	Cu	0.673440	1.557694	0.402220
O19	O	0.356230	1.051691	0.082701
O20	O	0.856230	1.551691	0.582701
C21	C	0.182359	0.894208	0.000010
C22	C	0.682359	1.394208	0.500010
C23	C	0.179734	0.794896	0.000009
C24	C	0.679734	1.294896	0.500009
C25	C	0.178491	0.748235	0.090160
C26	C	0.678491	1.248235	0.590160
C27	C	0.176005	0.654923	0.090162
C28	C	0.676005	1.154923	0.590162
C29	C	0.174770	0.608273	0.000010
C30	C	0.674770	1.108273	0.500010
C31	C	0.176009	0.654941	-0.090149
C32	C	0.676009	1.154941	0.409851
C33	C	0.178487	0.748252	-0.090149
C34	C	0.678487	1.248252	0.409851
C35	C	0.170849	0.460451	-0.090142
C36	C	0.670849	0.960451	0.409858
C37	C	0.168374	0.367133	-0.090143
C38	C	0.668374	0.867133	0.409857
C39	C	0.168367	0.367122	0.090168
C40	C	0.668367	0.867122	0.590168
C41	C	0.170845	0.460433	0.090168
C42	C	0.670845	0.960433	0.590168
C43	C	0.172086	0.507094	0.000009
C44	C	0.672086	1.007094	0.500009
C45	C	-0.056159	1.062790	0.000016
C46	C	0.443841	1.562790	0.500016
C47	C	-0.195574	1.060161	0.000012
C48	C	0.304426	1.560161	0.500012
C49	C	-0.275921	1.140313	0.000017
C50	C	0.224079	1.640313	0.500017
C51	C	-0.406916	1.137837	0.000010
C52	C	0.093084	1.637837	0.500010
C53	C	-0.377203	0.975050	-0.000002
C54	C	0.122797	1.475050	0.499998
C55	C	-0.246211	0.977526	-0.000002
C56	C	0.253789	1.477526	0.499998
C57	C	-0.225285	1.222947	0.000031
C58	C	0.274715	1.722947	0.500031
C59	C	-0.305633	1.303106	0.000037
C60	C	0.194367	1.803106	0.500037
C61	C	-0.436627	1.300630	0.000030
C62	C	0.063373	1.800630	0.500030
C63	C	-0.487273	1.217995	0.000017
C64	C	0.012727	1.717995	0.500017
C65	C	0.403025	1.052578	0.000008
C66	C	0.903025	1.552578	0.500008
C67	C	0.542440	1.055208	0.000005
C68	C	1.042440	1.555208	0.500005
C69	C	0.164507	1.221161	0.000014
C70	C	0.664507	1.721161	0.500014
C71	C	0.167132	1.320472	0.000009
C72	C	0.667132	1.820472	0.500009
N73	N	0.173415	1.057666	0.235370
N74	N	0.673415	1.557666	0.735370
N75	N	0.173440	1.057709	-0.235344
N76	N	0.673440	1.557709	0.264656
C77	C	0.088165	1.117964	0.287413
C78	C	0.588165	1.617964	0.787413
C79	C	0.088163	1.117970	0.391517
C80	C	0.588163	1.617970	0.891517
C81	C	0.173420	1.057681	0.443575
C82	C	0.673420	1.557681	0.943575
C83	C	0.258674	0.997376	0.391525
C84	C	0.758674	1.497376	0.891525
C85	C	0.258669	0.997367	0.287423
C86	C	0.758669	1.497367	0.787423
C87	C	0.258683	0.997401	0.608505
C88	C	0.758683	1.497401	1.108505
C89	C	0.258691	0.997411	0.712613
C90	C	0.758691	1.497411	1.212613
C91	C	0.088178	1.118004	0.712598
C92	C	0.588178	1.618004	1.212598
C93	C	0.088172	1.117995	0.608497
C94	C	0.588172	1.617995	1.108497
C95	C	0.173428	1.057691	0.556454
C96	C	0.673428	1.557691	1.056454
H97	H	0.171860	0.498439	-0.163560
H98	H	0.671860	0.998439	0.336440
H99	H	0.328088	0.948283	0.433916
H100	H	0.828088	1.448283	0.933916
C101	C	0.172204	0.511747	0.189340
C102	C	0.672204	1.011747	0.689340
N103	N	0.173224	0.550396	0.264037
N104	N	0.673224	1.050396	0.764037
H105	H	-0.118624	1.224972	0.000040
H106	H	0.381376	1.724972	0.500040
C107	C	0.179856	0.799578	-0.189323
C108	C	0.679856	1.299578	0.310677
N109	N	0.180885	0.838236	-0.264024
N110	N	0.680885	1.338236	0.235976
H111	H	0.167370	0.329153	-0.163552
H112	H	0.667370	0.829153	0.336448
H113	H	0.328087	0.948265	0.245051
H114	H	0.828087	1.448265	0.745051
H115	H	-0.264388	1.370384	0.000022
H116	H	0.235612	1.870384	0.500022
C117	C	-0.525007	1.388805	0.000036
C118	C	-0.025007	1.888805	0.500036
N119	N	-0.591572	1.455221	0.000048
N120	N	-0.091572	1.955221	0.500048
C121	C	0.179848	0.799542	0.189336
C122	C	0.679848	1.299542	0.689336
N123	N	0.180864	0.838184	0.264039
N124	N	0.680864	1.338184	0.764039
C125	C	0.166993	0.315794	0.189344
C126	C	0.666993	0.815794	0.689344
N127	N	0.165961	0.277130	0.264041
N128	N	0.665961	0.777130	0.764041
H129	H	-0.418450	0.907772	-0.000011
H130	H	0.081550	1.407772	0.499989
H131	H	0.174995	0.616951	-0.163552
H132	H	0.674995	1.116951	0.336448
C133	C	-0.157825	0.889355	0.000001
C134	C	0.342175	1.389355	0.500001
N135	N	-0.091251	0.822942	0.000002
N136	N	0.408749	1.322942	0.500002
H137	H	0.018744	1.167062	0.245034
H138	H	0.518744	1.667062	0.745034
C139	C	-0.005649	1.184281	0.448759
C140	C	0.494351	1.684281	0.948759
N141	N	-0.076325	1.234221	0.491874
N142	N	0.423675	1.734221	0.991874
C143	C	-0.631372	1.215276	0.000004
C144	C	-0.131372	1.715276	0.500004
N145	N	-0.739907	1.213230	-0.000002
N146	N	-0.239907	1.713230	0.499998
C147	C	-0.005610	1.184335	0.769847
C148	C	0.494390	1.684335	1.269847
N149	N	-0.076246	1.234296	0.812972
N150	N	0.423754	1.734296	1.312972
C151	C	0.352470	0.931085	0.769875
C152	C	0.852470	1.431085	1.269875
N153	N	0.423104	0.881126	0.813005
N154	N	0.923104	1.381126	1.313005
H155	H	0.018756	1.167091	0.566111
H156	H	0.518756	1.667091	1.066111
H157	H	0.328104	0.948292	0.566135
H158	H	0.828104	1.448292	1.066135
H159	H	0.174972	0.616938	0.163572
H160	H	0.674972	1.116938	0.663572
