data_functionalizedCrystal
_audit_creation_method	'MofGen! by Chris Wilmer'
_symmetry_space_group_name_H-M	'P1'
_symmetry_Int_Tables_number	1
_symmetry_cell_setting	triclinic
loop_
_symmetry_equiv_pos_as_xyz
  x,y,z
_cell_length_a	6.817900
_cell_length_b	9.582860
_cell_length_c	11.168143
_cell_angle_alpha	91.014339
_cell_angle_beta	108.508824
_cell_angle_gamma	111.206767
loop_
_atom_site_label
_atom_site_type_symbol
_atom_site_fract_x
_atom_site_fract_y
_atom_site_fract_z
V1	V	-4.124189	-0.207079	-0.393468
V2	V	-3.624189	0.292921	0.106532
O3	O	-4.068783	0.009926	-0.386216
O4	O	-3.568783	0.509926	0.113784
O5	O	-4.114534	-0.410580	-0.390548
O6	O	-3.614534	0.089420	0.109452
O7	O	-4.100261	-0.203905	-0.565177
O8	O	-3.600261	0.296095	-0.065177
O9	O	-4.083155	-0.198180	-0.210378
O10	O	-3.583155	0.301820	0.289622
V11	V	-4.599625	-0.181122	-0.371597
V12	V	-4.099625	0.318878	0.128403
O13	O	-4.403186	-0.264020	-0.441444
O14	O	-3.903186	0.235980	0.058556
O15	O	-4.770826	-0.124181	-0.323620
O16	O	-4.270826	0.375819	0.176380
O17	O	-4.386074	0.022379	-0.374517
O18	O	-3.886074	0.522379	0.125483
O19	O	-4.772428	-0.398128	-0.378849
O20	O	-4.272428	0.101872	0.121151
O21	O	-4.758056	-0.190022	-0.554687
O22	O	-4.258056	0.309978	-0.054687
O23	O	-4.400346	-0.184296	-0.199887
O24	O	-3.900346	0.315704	0.300113
C25	C	-3.968168	-0.460189	-0.384282
C26	C	-3.468168	0.039811	0.115718
C27	C	-4.041724	-0.626553	-0.383039
C28	C	-3.541724	-0.126553	0.116961
C29	C	-3.949961	-0.196552	-0.607037
C30	C	-3.449961	0.303448	-0.107037
C31	C	-4.011937	-0.195303	-0.747409
C32	C	-3.511937	0.304697	-0.247409
C33	C	-4.169430	-0.323695	-0.972059
C34	C	-3.669430	0.176305	-0.472059
C35	C	-4.105376	-0.324989	-0.826978
C36	C	-3.605376	0.175011	-0.326978
C37	C	-4.195782	0.071980	-0.380780
C38	C	-3.695782	0.571980	0.119220
C39	C	-4.101466	0.238343	-0.382031
C40	C	-3.601466	0.738343	0.117969
C41	C	-4.213989	-0.191654	-0.158021
C42	C	-3.713989	0.308346	0.341979
C43	C	-4.131250	-0.192895	-0.017648
C44	C	-3.631250	0.307105	0.482352
H45	H	-4.249529	-0.434719	-1.040436
H46	H	-3.749529	0.065281	-0.540436
H47	H	-4.137966	-0.436974	-0.787708
H48	H	-3.637966	0.063026	-0.287708
F49	F	-3.969354	-0.048921	-0.798725
F50	F	-3.469354	0.451079	-0.298725
F51	F	-4.026527	-0.047772	-0.928278
F52	F	-3.526527	0.452228	-0.428278
