data_functionalizedCrystal
_audit_creation_method	'MofGen! by Chris Wilmer'
_symmetry_space_group_name_H-M	'P1'
_symmetry_Int_Tables_number	1
_symmetry_cell_setting	triclinic
loop_
_symmetry_equiv_pos_as_xyz
  x,y,z
_cell_length_a	19.288865
_cell_length_b	10.868271
_cell_length_c	11.792254
_cell_angle_alpha	89.996975
_cell_angle_beta	83.667422
_cell_angle_gamma	90.002883
loop_
_atom_site_label
_atom_site_type_symbol
_atom_site_fract_x
_atom_site_fract_y
_atom_site_fract_z
O1	O	0.922157	0.102268	0.141574
O2	O	1.422157	0.602268	0.641574
O3	O	0.720005	0.102279	0.160673
O4	O	1.220005	0.602279	0.660673
O5	O	0.825982	0.102279	-0.014120
O6	O	1.325982	0.602279	0.485880
O7	O	0.816180	0.102268	0.316368
O8	O	1.316180	0.602268	0.816368
O9	O	0.825972	-0.102366	-0.014115
O10	O	1.325972	0.397634	0.485885
O11	O	0.719995	-0.102366	0.160679
O12	O	1.219995	0.397634	0.660679
O13	O	0.922147	-0.102376	0.141580
O14	O	1.422147	0.397624	0.641580
Zn15	Zn	0.821070	-0.134863	0.151130
Zn16	Zn	1.321070	0.365137	0.651130
Zn17	Zn	0.821082	0.134765	0.151123
Zn18	Zn	1.321082	0.634765	0.651123
O19	O	0.816170	-0.102377	0.316373
O20	O	1.316170	0.397623	0.816373
C21	C	0.694120	-0.000042	0.160062
C22	C	1.194120	0.499958	0.660062
C23	C	0.617006	-0.000038	0.158217
C24	C	1.117006	0.499962	0.658217
N25	N	0.821066	-0.318877	0.151135
N26	N	1.321066	0.181123	0.651135
C27	C	0.948032	-0.000053	0.142192
C28	C	1.448032	0.499947	0.642192
C29	C	1.025146	-0.000049	0.144036
C30	C	1.525146	0.499951	0.644036
C31	C	0.825360	-0.000039	-0.056399
C32	C	1.325360	0.499961	0.443601
C33	C	0.823511	-0.000027	-0.182384
C34	C	1.323511	0.499973	0.317616
C35	C	1.069257	-0.000035	0.041475
C36	C	1.569257	0.499965	0.541475
C37	C	1.141714	-0.000042	0.043209
C38	C	1.641714	0.499958	0.543209
C39	C	1.170057	-0.000039	0.147508
C40	C	1.670057	0.499961	0.647508
C41	C	1.125936	-0.000060	0.250083
C42	C	1.625936	0.499940	0.750083
C43	C	1.053481	-0.000065	0.248347
C44	C	1.553481	0.499935	0.748347
C45	C	1.278805	0.071662	0.229498
C46	C	1.778805	0.571662	0.729498
C47	C	1.351259	0.071674	0.231230
C48	C	1.851259	0.571674	0.731230
C49	C	1.393533	-0.000029	0.152867
C50	C	1.893533	0.499971	0.652867
C51	C	1.363345	-0.071728	0.072754
C52	C	1.863345	0.428272	0.572754
C53	C	1.290889	-0.071734	0.071018
C54	C	1.790889	0.428266	0.571018
C55	C	1.248621	-0.000034	0.149402
C56	C	1.748621	0.499966	0.649402
C57	C	1.516210	-0.000024	0.052179
C58	C	2.016210	0.499976	0.552179
C59	C	1.588668	-0.000039	0.053916
C60	C	2.088668	0.499961	0.553916
C61	C	1.572889	-0.000044	0.260793
C62	C	2.072889	0.499956	0.760793
C63	C	1.500433	-0.000042	0.259053
C64	C	2.000433	0.499958	0.759053
C65	C	1.472098	-0.000026	0.154742
C66	C	1.972098	0.499974	0.654742
C67	C	0.821071	-0.430215	0.151135
C68	C	1.321071	0.069785	0.651135
C69	C	0.821081	-0.569892	0.151124
C70	C	1.321081	-0.069892	0.651124
N71	N	0.821091	0.318779	0.151109
N72	N	1.321091	0.818779	0.651109
C73	C	0.816792	-0.000056	0.358652
C74	C	1.316792	0.499944	0.858652
C75	C	0.818641	-0.000060	0.484637
C76	C	1.318641	0.499940	0.984637
C77	C	0.820142	-0.000053	0.586951
C78	C	1.320142	0.499947	1.086951
C79	C	0.822020	-0.000039	0.715309
C80	C	1.322020	0.499961	1.215309
H81	H	1.177636	-0.000027	-0.040311
H82	H	1.677636	0.499973	0.459689
N83	N	1.383809	0.149020	0.317628
N84	N	1.883809	0.649020	0.817628
H85	H	1.365112	0.122245	0.397179
H86	H	1.865112	0.622245	0.897179
H87	H	1.436119	0.138130	0.306739
H88	H	1.936119	0.638130	0.806739
N89	N	1.156497	-0.000043	0.362582
N90	N	1.656497	0.499957	0.862582
H91	H	1.140441	-0.075908	0.407503
H92	H	1.640441	0.424092	0.907503
H93	H	1.209086	0.000016	0.348029
H94	H	1.709086	0.500016	0.848029
N95	N	1.636249	-0.000043	-0.056709
N96	N	2.136249	0.499957	0.443291
H97	H	1.607302	-0.000034	-0.123047
H98	H	2.107302	0.499966	0.376953
H99	H	1.666661	0.075818	-0.060495
H100	H	2.166661	0.575818	0.439505
N101	N	1.603448	-0.000055	0.373291
N102	N	2.103448	0.499945	0.873291
H103	H	1.656042	-0.000053	0.358830
H104	H	2.156042	0.499947	0.858830
H105	H	1.587341	0.075806	0.418157
H106	H	2.087341	0.575806	0.918157
N107	N	1.452850	-0.000131	0.369673
N108	N	1.952850	0.499869	0.869673
H109	H	1.481798	-0.000157	0.436011
H110	H	1.981798	0.499843	0.936011
H111	H	1.422423	0.075704	0.373508
H112	H	1.922423	0.575704	0.873508
H113	H	1.017565	-0.000077	0.331867
H114	H	1.517565	0.499923	0.831867
H115	H	1.244390	0.130049	0.293319
H116	H	1.744390	0.630049	0.793319
H117	H	1.046192	-0.000026	-0.043462
H118	H	1.546192	0.499974	0.456538
H119	H	1.266313	-0.130116	0.005789
H120	H	1.766313	0.369884	0.505789
H121	H	1.397763	-0.130109	0.008938
H122	H	1.897763	0.369891	0.508938
H123	H	1.493139	-0.000017	-0.032757
H124	H	1.993139	0.499983	0.467243
