data_functionalizedCrystal
_audit_creation_method	'MofGen! by Chris Wilmer'
_symmetry_space_group_name_H-M	'P1'
_symmetry_Int_Tables_number	1
_symmetry_cell_setting	triclinic
loop_
_symmetry_equiv_pos_as_xyz
  x,y,z
_cell_length_a	12.594517
_cell_length_b	12.594516
_cell_length_c	19.076919
_cell_angle_alpha	87.722761
_cell_angle_beta	87.712330
_cell_angle_gamma	90.016010
loop_
_atom_site_label
_atom_site_type_symbol
_atom_site_fract_x
_atom_site_fract_y
_atom_site_fract_z
Zn1	Zn	1.603055	-0.447939	0.397856
Zn2	Zn	1.610107	-0.618783	0.280172
Zn3	Zn	1.432220	-0.440819	0.280187
Zn4	Zn	1.425042	-0.625875	0.397842
O5	O	1.517606	-0.533354	0.339014
O6	O	1.752936	-0.470613	0.382244
O7	O	1.592466	-0.589228	0.181684
O8	O	1.454934	-0.292819	0.295808
O9	O	1.758118	-0.596131	0.295783
O10	O	1.580446	-0.298049	0.382259
O11	O	1.461772	-0.458479	0.181695
O12	O	1.282322	-0.465356	0.295795
O13	O	1.442700	-0.608219	0.496334
O14	O	1.277048	-0.601315	0.382236
O15	O	1.573485	-0.477490	0.496344
O16	O	1.585506	-0.768668	0.295769
O17	O	1.449539	-0.773879	0.382221
C18	C	1.241065	-0.533333	0.339016
C19	C	1.122758	-0.533351	0.339033
C20	C	0.979909	-0.607423	0.385961
C21	C	1.054589	-0.629419	0.321727
C22	C	1.049651	-0.511402	0.403260
C23	C	0.986656	-0.555429	0.274745
C24	C	0.981708	-0.437369	0.356321
C25	C	1.056359	-0.459326	0.292043
C26	C	1.517537	-0.809894	0.339007
C27	C	1.517603	-0.928201	0.339028
C28	C	1.443645	-1.000325	0.386016
C29	C	1.421620	-1.067279	0.321796
C30	C	1.539724	-1.072046	0.403259
C31	C	1.495528	-0.993595	0.274774
C32	C	1.613675	-0.998358	0.356281
C33	C	1.591689	-1.065278	0.292016
C34	C	1.795227	-0.533375	0.339013
C35	C	1.913532	-0.533384	0.339013
C36	C	1.506505	-0.544439	0.522590
C37	C	1.501775	-0.549163	0.600819
C38	C	1.517704	-0.255734	0.339037
C39	C	1.517745	-0.137429	0.339046
C40	C	1.528724	-0.522235	0.156153
C41	C	1.533661	-0.517211	0.077924
C42	C	1.567642	-0.483322	0.637578
C43	C	1.563184	-0.487757	0.711082
C44	C	1.492864	-0.558039	0.747827
C45	C	1.426990	-0.623883	0.711063
C46	C	1.431443	-0.619442	0.637560
C47	C	1.472240	-0.578614	0.967657
C48	C	1.467794	-0.583052	1.041166
C49	C	1.603988	-0.446924	1.041179
C50	C	1.608439	-0.442494	0.967675
C51	C	1.542561	-0.508334	0.930918
N52	N	1.488308	-0.562576	0.822960
N53	N	1.547112	-0.503791	0.855786
H54	H	0.958987	-0.574107	0.220405
C55	C	1.048481	-0.563970	0.525654
C56	C	1.087179	-0.486311	0.476595
H57	H	1.071643	-0.548480	0.570929
H58	H	1.074526	-0.631647	0.513044
H59	H	0.973025	-0.564434	0.526270
H60	H	1.162635	-0.485851	0.475976
H61	H	1.061139	-0.418616	0.489209
H62	H	0.946439	-0.670092	0.425606
C63	C	1.258609	-0.996426	0.421347
C64	C	1.359081	-0.961678	0.439579
H65	H	1.206403	-0.972559	0.454410
H66	H	1.257654	-1.071841	0.421428
H67	H	1.243625	-0.968428	0.375840
H68	H	1.374068	-0.989683	0.485084
H69	H	1.360038	-0.886248	0.439506
H70	H	1.616823	-0.434145	0.741008
H71	H	1.340440	-1.097611	0.307218
C72	C	1.069448	-0.398043	0.171207
C73	C	1.101303	-0.374782	0.238399
H74	H	1.097204	-0.345856	0.138089
H75	H	0.994072	-0.397987	0.170643
H76	H	1.095483	-0.466057	0.159316
H77	H	1.075261	-0.306772	0.250292
H78	H	1.176695	-0.374827	0.238965
C79	C	0.970075	-0.304968	0.443427
C80	C	0.938489	-0.327812	0.376103
H81	H	0.943384	-0.237335	0.455646
H82	H	1.045448	-0.304340	0.443999
H83	H	0.942797	-0.357731	0.476298
H84	H	0.965774	-0.275053	0.343231
H85	H	0.863100	-0.328432	0.375526
C86	C	1.470317	-0.836298	0.202098
C87	C	1.470210	-0.947432	0.201434
H88	H	1.454677	-0.807800	0.156823
H89	H	1.538287	-0.812146	0.214416
H90	H	1.418044	-0.813579	0.235498
H91	H	1.522489	-0.970151	0.168037
H92	H	1.402231	-0.971593	0.189107
H93	H	1.654296	-1.093694	0.252242
H94	H	1.624908	-0.426095	0.607665
C95	C	1.746166	-0.997088	0.443309
C96	C	1.723234	-0.957404	0.376000
H97	H	1.813801	-0.971796	0.455489
H98	H	1.746834	-1.072529	0.443879
H99	H	1.693422	-0.973834	0.476209
H100	H	1.775975	-0.980665	0.343100
H101	H	1.722575	-0.881947	0.375425
C102	C	1.487286	-1.085695	0.525680
C103	C	1.564915	-1.118390	0.476577
H104	H	1.502838	-1.114299	0.570944
H105	H	1.419607	-1.110297	0.513109
H106	H	1.486781	-1.010314	0.526294
H107	H	1.565415	-1.193771	0.475959
H108	H	1.632613	-1.093793	0.489151
C109	C	1.407142	-0.772050	0.793706
C110	C	1.349692	-0.701139	0.751451
H111	H	1.359420	-0.819750	0.818635
H112	H	1.445723	-0.733473	0.826116
H113	H	1.455234	-0.811030	0.765021
H114	H	1.301605	-0.662153	0.780137
H115	H	1.311093	-0.739720	0.719037
C116	C	1.418581	-0.632254	0.854983
C117	C	1.399835	-0.650991	0.927259
H118	H	1.373875	-0.676936	0.830042
H119	H	1.490810	-0.647110	0.842940
H120	H	1.403753	-0.560009	0.842949
H121	H	1.414671	-0.723234	0.939294
H122	H	1.327589	-0.636142	0.939307
C123	C	1.654527	-0.268066	1.063820
C124	C	1.676391	-0.374546	1.081582
H125	H	1.699231	-0.223381	1.088760
H126	H	1.582297	-0.253221	1.075869
H127	H	1.667243	-0.255380	1.014784
H128	H	1.663667	-0.387235	1.130618
H129	H	1.748637	-0.389397	1.069538
C130	C	1.628220	-0.294291	0.885061
C131	C	1.685706	-0.365190	0.927302
H132	H	1.675918	-0.246560	0.860138
H133	H	1.580111	-0.255352	0.913749
H134	H	1.589657	-0.332880	0.852638
H135	H	1.724263	-0.326601	0.959728
H136	H	1.733833	-0.404132	0.898612
C137	C	1.333600	-0.717156	1.033773
C138	C	1.390487	-0.660307	1.081557
H139	H	1.285875	-0.764843	1.058711
H140	H	1.381689	-0.756144	1.005102
H141	H	1.294641	-0.669033	1.005107
H142	H	1.429453	-0.708430	1.110220
H143	H	1.342392	-0.621317	1.110241
H144	H	1.086567	-0.710603	0.307092
C145	C	1.296405	-0.754472	0.644925
C146	C	1.359058	-0.691835	0.597152
H147	H	1.251724	-0.799171	0.619978
H148	H	1.253960	-0.709832	0.673590
H149	H	1.341044	-0.796907	0.673598
H150	H	1.314419	-0.649394	0.568483
H151	H	1.401506	-0.736480	0.568475
