data_functionalizedCrystal
_audit_creation_method	'MofGen! by Chris Wilmer'
_symmetry_space_group_name_H-M	'P1'
_symmetry_Int_Tables_number	1
_symmetry_cell_setting	triclinic
loop_
_symmetry_equiv_pos_as_xyz
  x,y,z
_cell_length_a	10.723023
_cell_length_b	19.188924
_cell_length_c	9.798715
_cell_angle_alpha	89.994789
_cell_angle_beta	89.996770
_cell_angle_gamma	83.804756
loop_
_atom_site_label
_atom_site_type_symbol
_atom_site_fract_x
_atom_site_fract_y
_atom_site_fract_z
O1	O	1.655151	0.097920	-0.113484
O2	O	1.291803	0.107293	-0.113490
O3	O	1.483967	0.001019	-0.113471
O4	O	1.462987	0.204194	-0.113504
O5	O	1.483953	0.001018	0.113511
O6	O	1.291789	0.107293	0.113492
O7	O	1.655137	0.097919	0.113498
Zn8	Zn	1.473461	0.102606	0.149533
Zn9	Zn	1.473479	0.102607	-0.149526
O10	O	1.462973	0.204194	0.113479
C11	C	1.245311	0.106611	-0.000000
C12	C	1.106799	0.104571	-0.000002
C13	C	0.901902	0.101552	-0.117585
C14	C	1.045061	0.103661	-0.117586
C15	C	1.483282	-0.024997	0.000021
C16	C	1.481247	-0.102515	0.000025
C17	C	1.480305	-0.138920	-0.123703
C18	C	1.478375	-0.211755	-0.123714
C19	C	1.477412	-0.248184	0.000011
C20	C	1.478347	-0.211770	0.123756
C21	C	1.480265	-0.138935	0.123763
N22	N	1.545403	-0.367406	0.092098
N23	N	1.543584	-0.436596	0.092083
C24	C	1.471632	-0.467631	-0.000002
N25	N	1.401583	-0.426863	-0.092092
N26	N	1.403408	-0.357667	-0.092081
C27	C	1.475332	-0.327161	0.000018
C28	C	1.468596	-0.583012	-0.123750
C29	C	1.466658	-0.655848	-0.123755
C30	C	1.466643	-0.655863	0.123718
C31	C	1.468568	-0.583027	0.123719
C32	C	1.469550	-0.546607	-0.000018
C33	C	1.701629	0.098602	0.000005
C34	C	1.840141	0.100642	-0.000002
C35	C	1.463658	0.230210	-0.000017
C36	C	1.465693	0.307728	-0.000029
N37	N	1.473457	0.102606	0.353633
N38	N	1.473493	0.102602	-0.353625
C39	C	1.554145	0.057787	0.421418
C40	C	1.554165	0.057785	0.578581
H41	H	1.098172	0.104448	-0.218253
C42	C	1.481362	-0.098859	-0.259815
C43	C	1.589426	-0.116279	-0.361898
C44	C	1.590477	-0.076218	-0.498010
C45	C	1.483463	-0.018736	-0.532040
C46	C	1.375390	-0.001313	-0.429954
C47	C	1.374340	-0.041375	-0.293842
H48	H	1.668652	-0.158833	-0.336709
H49	H	1.670479	-0.089115	-0.573581
H50	H	1.484240	0.010920	-0.632799
H51	H	1.296165	0.041240	-0.455143
H52	H	1.294337	-0.028477	-0.218271
C53	C	1.647495	0.005945	0.657319
C54	C	1.598685	-0.047541	0.755652
C55	C	1.692018	-0.099382	0.834393
C56	C	1.834161	-0.097739	0.814801
C57	C	1.882978	-0.044252	0.716464
C58	C	1.789645	0.007590	0.637723
H59	H	1.493455	-0.048759	0.770159
H60	H	1.655879	-0.138977	0.907189
H61	H	1.903251	-0.136115	0.873090
H62	H	1.988208	-0.043033	0.701956
H63	H	1.825784	0.047185	0.564927
C64	C	0.911875	0.101699	0.136001
C65	C	0.908597	0.040917	0.238114
C66	C	0.980327	0.041973	0.374122
C67	C	1.055335	0.103812	0.408016
C68	C	1.058615	0.164599	0.305900
C69	C	0.986885	0.163542	0.169892
H70	H	0.853069	-0.004864	0.213025
H71	H	0.977898	-0.003025	0.449714
H72	H	1.108433	0.104594	0.508697
H73	H	1.114143	0.210380	0.330989
H74	H	0.989314	0.208541	0.094300
H75	H	1.053694	0.103792	0.100670
C76	C	1.469666	-0.542943	-0.259855
C77	C	1.468613	-0.582991	-0.395961
C78	C	1.469685	-0.542924	-0.532066
C79	C	1.471810	-0.462810	-0.532066
C80	C	1.472863	-0.422758	-0.395955
C81	C	1.471791	-0.462824	-0.259850
H82	H	1.467040	-0.642300	-0.395966
H83	H	1.468905	-0.572574	-0.632825
H84	H	1.472603	-0.433150	-0.632819
H85	H	1.474436	-0.363448	-0.395950
H86	H	1.472570	-0.433175	-0.159091
H87	H	1.465850	-0.685522	0.224457
C88	C	1.647456	0.005949	0.342651
C89	C	1.647189	0.005958	0.185495
C90	C	1.740503	-0.045883	0.106734
C91	C	1.834085	-0.097732	0.185129
C92	C	1.834355	-0.097742	0.342294
C93	C	1.741041	-0.045902	0.421055
H94	H	1.577911	0.044341	0.127455
H95	H	1.740302	-0.045875	-0.009610
H96	H	1.903161	-0.136107	0.126825
H97	H	1.903633	-0.136125	0.400334
H98	H	1.741242	-0.045910	0.537399
C99	C	1.380160	0.154444	0.567645
C100	C	1.238010	0.152408	0.586362
C101	C	1.144677	0.204250	0.507621
C102	C	1.193494	0.258127	0.410163
C103	C	1.335651	0.260165	0.391442
C104	C	1.428984	0.208324	0.470183
H105	H	1.201867	0.112522	0.658510
H106	H	1.039443	0.202741	0.521480
H107	H	1.124404	0.296504	0.351874
H108	H	1.371794	0.300051	0.319295
H109	H	1.534218	0.209833	0.456324
H110	H	1.481027	-0.109295	0.224520
C111	C	1.477346	-0.251815	-0.259820
C112	C	1.585956	-0.249211	-0.361880
C113	C	1.584930	-0.289269	-0.497984
C114	C	1.475294	-0.331931	-0.532027
C115	C	1.366676	-0.334537	-0.429965
C116	C	1.367702	-0.294479	-0.293861
H117	H	1.667123	-0.217628	-0.336681
H118	H	1.665337	-0.287340	-0.573537
H119	H	1.474534	-0.361585	-0.632780
H120	H	1.285509	-0.366120	-0.455164
H121	H	1.287295	-0.296408	-0.218308
H122	H	0.848793	0.100765	-0.218251
H123	H	1.477560	-0.241435	0.224494
H124	H	1.465885	-0.685487	-0.224514
H125	H	1.469346	-0.553387	0.224473
H126	H	1.404387	0.140972	0.411950
