data_functionalizedCrystal
_audit_creation_method	'MofGen! by Chris Wilmer'
_symmetry_space_group_name_H-M	'P1'
_symmetry_Int_Tables_number	1
_symmetry_cell_setting	triclinic
loop_
_symmetry_equiv_pos_as_xyz
  x,y,z
_cell_length_a	18.215407
_cell_length_b	12.759400
_cell_length_c	18.215399
_cell_angle_alpha	89.973045
_cell_angle_beta	89.983176
_cell_angle_gamma	90.015132
loop_
_atom_site_label
_atom_site_type_symbol
_atom_site_fract_x
_atom_site_fract_y
_atom_site_fract_z
Zn1	Zn	1.125102	-0.418240	-0.416133
Zn2	Zn	1.625102	0.081760	0.083867
Zn3	Zn	1.125039	-0.593944	-0.293074
Zn4	Zn	1.625039	-0.093944	0.206926
Zn5	Zn	1.002041	-0.418281	-0.293081
Zn6	Zn	1.502041	0.081719	0.206919
Zn7	Zn	1.002023	-0.593878	-0.416099
Zn8	Zn	1.502023	-0.093878	0.083901
O9	O	1.063551	-0.506086	-0.354597
O10	O	1.563551	-0.006086	0.145403
O11	O	1.228078	-0.441557	-0.399821
O12	O	1.728078	0.058443	0.100179
O13	O	1.108704	-0.570687	-0.190091
O14	O	1.608704	-0.070687	0.309909
O15	O	1.018400	-0.271255	-0.309421
O16	O	1.518400	0.228745	0.190579
O17	O	1.228032	-0.570647	-0.309410
O18	O	1.728032	-0.070647	0.190590
O19	O	1.108812	-0.271224	-0.399827
O20	O	1.608812	0.228776	0.100173
O21	O	1.018339	-0.441628	-0.190096
O22	O	1.518339	0.058372	0.309904
O23	O	0.899055	-0.441565	-0.309388
O24	O	1.399055	0.058435	0.190612
O25	O	1.018368	-0.570534	-0.519088
O26	O	1.518368	-0.070534	-0.019088
O27	O	0.899041	-0.570575	-0.399769
O28	O	1.399041	-0.070575	0.100231
O29	O	1.108794	-0.441493	-0.519113
O30	O	1.608794	0.058507	-0.019113
O31	O	1.108686	-0.740957	-0.309377
O32	O	1.608686	-0.240957	0.190623
O33	O	1.018307	-0.740908	-0.399763
O34	O	1.518307	-0.240908	0.100237
C35	C	0.872345	-0.506068	-0.354576
C36	C	1.372345	-0.006068	0.145424
C37	C	0.790546	-0.506086	-0.354584
C38	C	1.290546	-0.006086	0.145416
C39	C	0.602364	-0.573367	-0.401587
C40	C	1.102364	-0.073367	0.098413
C41	C	0.525506	-0.573370	-0.401596
C42	C	1.025506	-0.073370	0.098404
C43	C	0.525490	-0.438824	-0.307623
C44	C	1.025490	0.061176	0.192377
C45	C	0.602348	-0.438816	-0.307618
C46	C	1.102348	0.061184	0.192382
C47	C	0.640783	-0.506094	-0.354599
C48	C	1.140783	-0.006094	0.145401
C49	C	0.487067	-0.506105	-0.354613
C50	C	0.987067	-0.006105	0.145387
C51	C	0.403733	-0.506108	-0.354623
C52	C	0.903733	-0.006108	0.145377
C53	C	0.724122	-0.506089	-0.354590
C54	C	1.224122	-0.006089	0.145410
C55	C	1.063508	-0.779053	-0.354582
C56	C	1.563508	-0.279053	0.145418
C57	C	1.063556	-0.895830	-0.354600
C58	C	1.563556	-0.395830	0.145400
C59	C	1.110669	-0.950682	-0.307588
C60	C	1.610669	-0.450682	0.192412
C61	C	1.110714	-1.060406	-0.307610
C62	C	1.610714	-0.560406	0.192390
C63	C	1.016527	-1.060416	-0.401659
C64	C	1.516527	-0.560416	0.098341
C65	C	1.016487	-0.950694	-0.401639
C66	C	1.516487	-0.450694	0.098361
C67	C	1.157739	-0.895818	-0.260548
C68	C	1.657739	-0.395818	0.239452
C69	C	1.204855	-0.950671	-0.213532
C70	C	1.704855	-0.450671	0.286468
C71	C	1.204900	-1.060395	-0.213554
C72	C	1.704900	-0.560395	0.286446
C73	C	1.157829	-1.115266	-0.260593
C74	C	1.657829	-0.615266	0.239407
C75	C	1.255504	-0.506105	-0.354618
C76	C	1.755504	-0.006105	0.145382
C77	C	1.337303	-0.506113	-0.354628
C78	C	1.837303	-0.006113	0.145372
C79	C	1.063586	-0.506002	-0.546550
C80	C	1.563586	-0.006002	-0.046550
C81	C	1.063601	-0.505966	-0.628349
C82	C	1.563601	-0.005966	-0.128349
C83	C	1.063615	-0.232053	-0.354628
C84	C	1.563615	0.267947	0.145372
C85	C	1.063642	-0.115276	-0.354642
C86	C	1.563642	0.384724	0.145358
C87	C	1.016587	-0.438720	-0.816546
C88	C	1.516587	0.061280	-0.316546
C89	C	1.016600	-0.438699	-0.893405
C90	C	1.516600	0.061301	-0.393405
C91	C	1.110703	-0.573087	-0.893389
C92	C	1.610703	-0.073087	-0.393389
C93	C	1.110686	-0.573113	-0.816532
C94	C	1.610686	-0.073113	-0.316532
C95	C	1.063629	-0.505923	-0.778112
C96	C	1.563629	-0.005923	-0.278112
C97	C	1.063659	-0.505876	-0.931829
C98	C	1.563659	-0.005876	-0.431829
C99	C	1.063673	-0.505854	-1.015162
C100	C	1.563673	-0.005854	-0.515162
C101	C	1.063614	-0.505947	-0.694773
C102	C	1.563614	-0.005947	-0.194773
C103	C	1.063559	-0.506094	-0.163391
C104	C	1.563559	-0.006094	0.336609
C105	C	1.063687	-0.505833	-0.081592
C106	C	1.563687	-0.005833	0.418408
H107	H	0.494187	-0.384051	-0.269372
H108	H	0.994187	0.115949	0.230628
H109	H	0.633656	-0.628146	-0.439843
H110	H	1.133656	-0.128146	0.060157
H111	H	1.148995	-0.627842	-0.785238
H112	H	1.648995	-0.127842	-0.285238
H113	H	0.494229	-0.628149	-0.439859
H114	H	0.994229	-0.128149	0.060141
H115	H	0.633629	-0.384028	-0.269355
H116	H	1.133629	0.115972	0.230645
C117	C	1.157826	-0.776690	-0.260442
C118	C	1.657826	-0.276690	0.239558
C119	C	1.209142	-0.740379	-0.209199
C120	C	1.709142	-0.240379	0.290801
C121	C	1.209248	-0.630645	-0.209087
C122	C	1.709248	-0.130645	0.290913
H123	H	1.110375	-0.751809	-0.247645
H124	H	1.610375	-0.251809	0.252355
H125	H	1.170553	-0.751763	-0.307926
H126	H	1.670553	-0.251763	0.192074
H127	H	1.196411	-0.765295	-0.161725
H128	H	1.696411	-0.265295	0.338275
H129	H	1.256601	-0.765231	-0.221984
H130	H	1.756601	-0.265231	0.278016
H131	H	1.221975	-0.605719	-0.256571
H132	H	1.721975	-0.105719	0.243429
H133	H	1.161794	-0.605775	-0.196292
H134	H	1.661794	-0.105775	0.303708
H135	H	1.244070	-0.605995	-0.174325
H136	H	1.744070	-0.105995	0.325675
H137	H	1.243183	-0.905988	-0.175238
H138	H	1.743183	-0.405988	0.324762
C139	C	1.161825	-0.646139	-0.934971
C140	C	1.661825	-0.146139	-0.434971
C141	C	1.203005	-0.705018	-0.884859
C142	C	1.703005	-0.205018	-0.384859
C143	C	1.250102	-0.772332	-0.923135
C144	C	1.750102	-0.272332	-0.423135
H145	H	1.193970	-0.606055	-0.964964
H146	H	1.693970	-0.106055	-0.464964
H147	H	1.133688	-0.691961	-0.964929
H148	H	1.633688	-0.191961	-0.464929
H149	H	1.231139	-0.659201	-0.854914
H150	H	1.731139	-0.159201	-0.354914
H151	H	1.170879	-0.745123	-0.854865
H152	H	1.670879	-0.245123	-0.354865
H153	H	1.221966	-0.818155	-0.953094
H154	H	1.721966	-0.318155	-0.453094
H155	H	1.282243	-0.732240	-0.953126
H156	H	1.782243	-0.232240	-0.453126
H157	H	1.278044	-0.812297	-0.889141
H158	H	1.778044	-0.312297	-0.389141
C159	C	1.256082	-1.119761	-0.162433
C160	C	1.756082	-0.619761	0.337567
C161	C	1.297279	-1.048225	-0.121223
C162	C	1.797279	-0.548225	0.378777
C163	C	1.344428	-1.102872	-0.074112
C164	C	1.844428	-0.602872	0.425888
H165	H	1.288215	-1.162500	-0.190537
H166	H	1.788215	-0.662500	0.309463
H167	H	1.227982	-1.162609	-0.130311
H168	H	1.727982	-0.662609	0.369689
H169	H	1.325378	-1.005395	-0.153341
H170	H	1.825378	-0.505395	0.346659
H171	H	1.265166	-1.005484	-0.093104
H172	H	1.765166	-0.505484	0.406896
H173	H	1.316327	-1.145719	-0.041991
H174	H	1.816327	-0.645719	0.458009
H175	H	1.376555	-1.145609	-0.102222
H176	H	1.876555	-0.645609	0.397778
H177	H	1.372381	-1.054343	-0.046141
H178	H	1.872381	-0.554343	0.453859
C179	C	1.158037	-1.234396	-0.260627
C180	C	1.658037	-0.734396	0.239373
C181	C	1.228110	-1.270594	-0.279456
C182	C	1.728110	-0.770594	0.220544
C183	C	1.228330	-1.380327	-0.279483
C184	C	1.728330	-0.880327	0.220517
H185	H	1.123311	-1.259352	-0.295368
H186	H	1.623311	-0.759352	0.204632
H187	H	1.145391	-1.259325	-0.213121
H188	H	1.645391	-0.759325	0.286879
H189	H	1.240748	-1.245676	-0.326954
H190	H	1.740748	-0.745676	0.173046
H191	H	1.262848	-1.245667	-0.244721
H192	H	1.762848	-0.745667	0.255279
H193	H	1.215683	-1.405256	-0.231977
H194	H	1.715683	-0.905256	0.268023
H195	H	1.193601	-1.405272	-0.314224
H196	H	1.693601	-0.905272	0.185776
H197	H	1.275874	-1.404901	-0.292251
H198	H	1.775874	-0.904901	0.207749
C199	C	0.965448	-1.120177	-0.452642
C200	C	1.465448	-0.620177	0.047358
C201	C	0.975554	-1.228008	-0.442581
C202	C	1.475554	-0.728008	0.057419
C203	C	0.928502	-1.283090	-0.489526
C204	C	1.428502	-0.783090	0.010474
H205	H	0.976133	-1.102262	-0.502126
H206	H	1.476133	-0.602262	-0.002126
H207	H	0.915985	-1.102323	-0.441815
H208	H	1.415985	-0.602323	0.058185
H209	H	1.025005	-1.245855	-0.453414
H210	H	1.525005	-0.745855	0.046586
H211	H	0.964863	-1.245954	-0.393107
H212	H	1.464863	-0.745954	0.106893
H213	H	0.879040	-1.265236	-0.478699
H214	H	1.379040	-0.765236	0.021301
H215	H	0.939191	-1.265166	-0.539007
H216	H	1.439191	-0.765166	-0.039007
H217	H	0.935348	-1.356258	-0.482702
H218	H	1.435348	-0.856258	0.017298
C219	C	0.965261	-0.891321	-0.452714
C220	C	1.465261	-0.391321	0.047286
C221	C	0.924032	-0.962850	-0.493898
C222	C	1.424032	-0.462850	0.006102
C223	C	0.876834	-0.908194	-0.540954
C224	C	1.376834	-0.408194	-0.040954
H225	H	0.993303	-0.848455	-0.484858
H226	H	1.493303	-0.348455	0.015142
H227	H	0.933156	-0.848601	-0.424547
H228	H	1.433156	-0.348601	0.075453
H229	H	0.956134	-1.005553	-0.522062
H230	H	1.456134	-0.505553	-0.022062
H231	H	0.895975	-1.005719	-0.461773
H232	H	1.395975	-0.505719	0.038227
H233	H	0.844729	-0.865474	-0.512788
H234	H	1.344729	-0.365474	-0.012788
H235	H	0.904882	-0.865330	-0.573094
H236	H	1.404882	-0.365330	-0.073094
H237	H	0.848850	-0.956718	-0.568899
H238	H	1.348850	-0.456718	-0.068899
H239	H	0.978270	-0.384010	-0.785267
H240	H	1.478270	0.115990	-0.285267
H241	H	0.978293	-0.383976	-0.924694
H242	H	1.478293	0.116024	-0.424694
