data_functionalizedCrystal
_audit_creation_method	'MofGen! by Chris Wilmer'
_symmetry_space_group_name_H-M	'P1'
_symmetry_Int_Tables_number	1
_symmetry_cell_setting	triclinic
loop_
_symmetry_equiv_pos_as_xyz
  x,y,z
_cell_length_a	18.101398
_cell_length_b	17.640280
_cell_length_c	17.640968
_cell_angle_alpha	65.682561
_cell_angle_beta	101.230909
_cell_angle_gamma	101.205395
loop_
_atom_site_label
_atom_site_type_symbol
_atom_site_fract_x
_atom_site_fract_y
_atom_site_fract_z
Zn1	Zn	1.252274	0.233936	0.399838
Zn2	Zn	1.252213	0.399605	0.234199
Zn3	Zn	1.107606	0.261814	0.262023
Zn4	Zn	1.149239	0.371695	0.371967
O5	O	1.190333	0.316763	0.317007
O6	O	1.355905	0.255926	0.377885
O7	O	1.215582	0.404674	0.122557
O8	O	1.109399	0.142797	0.303613
O9	O	1.355861	0.377642	0.256191
O10	O	1.215685	0.122316	0.404865
O11	O	1.109340	0.303439	0.142999
O12	O	1.009490	0.276376	0.276587
O13	O	1.180355	0.330074	0.490996
O14	O	1.040077	0.357106	0.357363
O15	O	1.256055	0.228863	0.511473
O16	O	1.255951	0.511221	0.229166
O17	O	1.180296	0.490716	0.330383
C18	C	1.222658	0.530866	0.273749
C19	C	1.236559	0.622455	0.255271
C20	C	0.997911	0.316738	0.316970
C21	C	0.915598	0.316743	0.316970
C22	C	1.222856	0.273246	0.531975
C23	C	1.236715	0.254701	0.623582
C24	C	0.616525	0.316781	0.317029
C25	C	0.628580	0.265607	0.266582
C26	C	0.714183	0.265833	0.266277
C27	C	0.764899	0.316761	0.317000
C28	C	0.743342	0.408363	0.275743
C29	C	0.657576	0.408097	0.275374
C30	C	0.657984	0.277077	0.408730
C31	C	0.743270	0.275240	0.408644
C32	C	0.848754	0.316755	0.316984
C33	C	0.532670	0.316793	0.317042
C34	C	1.383507	0.316788	0.317043
C35	C	1.465826	0.316799	0.317059
C36	C	1.157905	0.101820	0.360451
C37	C	1.144086	0.010224	0.378965
C38	C	1.085081	0.870498	0.457684
C39	C	1.098140	0.956565	0.440294
C40	C	1.176994	0.977830	0.335003
C41	C	1.163945	0.891762	0.352387
C42	C	1.117986	0.838103	0.413727
C43	C	1.196851	0.859368	0.308430
C44	C	1.183799	0.773308	0.325809
C45	C	1.137841	0.719644	0.387145
C46	C	1.104934	0.752044	0.431106
C47	C	1.242804	0.913029	0.247086
C48	C	1.275710	0.880635	0.203129
C49	C	1.262663	0.794573	0.220512
C50	C	1.216705	0.740909	0.281848
C51	C	1.295569	0.762173	0.176551
C52	C	1.282517	0.676114	0.193930
C53	C	1.203653	0.654849	0.299227
C54	C	1.157970	0.360051	0.102886
C55	C	1.144220	0.378363	0.011327
C56	C	1.085262	0.457194	0.871558
C57	C	1.098299	0.439758	0.957639
C58	C	1.177118	0.334376	0.978949
C59	C	1.164085	0.351800	0.892869
C60	C	1.118157	0.413210	0.839180
C61	C	1.196980	0.307817	0.860491
C62	C	1.183951	0.325243	0.774418
C63	C	1.138027	0.386652	0.720723
C64	C	1.105128	0.430636	0.753107
C65	C	1.242912	0.246411	0.914180
C66	C	1.275807	0.202428	0.881802
C67	C	1.262774	0.219849	0.795728
C68	C	1.216849	0.281259	0.742034
C69	C	1.295672	0.175865	0.763344
C70	C	1.282643	0.193291	0.677271
C71	C	1.203820	0.298684	0.655960
H72	H	0.727722	0.198457	0.294149
H73	H	1.067708	0.480623	0.709393
H74	H	1.214411	1.021531	0.285057
H75	H	0.777878	0.448275	0.310568
H76	H	1.067517	0.708350	0.481062
H77	H	1.127423	0.400842	0.650636
H78	H	1.253432	0.983103	0.232940
H79	H	1.313127	0.924336	0.153183
H80	H	1.332982	0.805877	0.126602
H81	H	0.778738	0.308390	0.449662
H82	H	0.630759	0.439704	0.207816
H83	H	1.309311	0.649739	0.158135
H84	H	1.166400	0.348671	0.612247
H85	H	1.071509	0.475579	0.983996
H86	H	1.309428	0.157474	0.650909
H87	H	1.047842	0.507180	0.827845
H88	H	1.127208	0.649571	0.401288
H89	H	1.214515	0.284378	1.022674
H90	H	1.253521	0.232227	0.984266
H91	H	0.599501	0.293023	0.199399
H92	H	0.756643	0.207744	0.439435
H93	H	1.313204	0.152430	0.925527
H94	H	0.630252	0.210519	0.442863
H95	H	1.047663	0.826804	0.507640
H96	H	1.166235	0.611156	0.349183
H97	H	1.333073	0.125871	0.807069
H98	H	1.071351	0.982933	0.476104
H99	H	0.650991	0.448461	0.309563
H100	H	0.651922	0.314135	0.446533
H101	H	0.600453	0.198067	0.294330
H102	H	0.727075	0.293490	0.198684
H103	H	0.758104	0.440156	0.208808
