data_functionalizedCrystal
_audit_creation_method	'MofGen! by Chris Wilmer'
_symmetry_space_group_name_H-M	'P1'
_symmetry_Int_Tables_number	1
_symmetry_cell_setting	triclinic
loop_
_symmetry_equiv_pos_as_xyz
  x,y,z
_cell_length_a	10.654546
_cell_length_b	9.730223
_cell_length_c	14.971486
_cell_angle_alpha	89.998455
_cell_angle_beta	84.048826
_cell_angle_gamma	89.992180
loop_
_atom_site_label
_atom_site_type_symbol
_atom_site_fract_x
_atom_site_fract_y
_atom_site_fract_z
O1	O	-1.666489	0.114533	-0.125613
O2	O	-1.300881	0.114483	-0.137585
O3	O	-1.493484	0.114500	-0.001452
O4	O	-1.473886	0.114517	-0.261746
O5	O	-1.493482	-0.114080	-0.001456
O6	O	-1.300879	-0.114097	-0.137589
O7	O	-1.666487	-0.114047	-0.125616
Zn8	Zn	-1.483683	-0.150364	-0.131603
Zn9	Zn	-1.483686	0.150800	-0.131598
O10	O	-1.473884	-0.114063	-0.261749
C11	C	-1.254092	0.000186	-0.136709
C12	C	-1.114676	0.000167	-0.134080
N13	N	-1.483690	-0.355900	-0.131606
C14	C	-1.034331	0.000186	-0.214233
C15	C	-0.903336	0.000200	-0.211758
C16	C	-0.933046	0.000180	-0.048971
C17	C	-1.064038	0.000157	-0.051447
C18	C	-1.017177	0.000204	-0.308217
C19	C	-0.886183	0.000217	-0.305742
C20	C	-1.568996	-0.427819	-0.071346
C21	C	-1.568993	-0.571702	-0.071336
C22	C	-1.398373	-0.571735	-0.191851
C23	C	-1.398371	-0.427854	-0.191857
C24	C	-1.667506	-0.427801	-0.001770
C25	C	-1.667503	-0.571684	-0.001760
C26	C	-0.713276	0.000233	-0.126495
C27	C	-0.852690	0.000204	-0.129130
C28	C	-1.492607	0.000210	0.031876
C29	C	-1.489980	0.000211	0.131187
N30	N	-1.483688	0.356337	-0.131589
C31	C	-1.474761	0.000229	-0.295077
C32	C	-1.477388	0.000237	-0.394388
C33	C	-1.603129	0.000225	0.187798
C34	C	-1.600654	0.000239	0.281110
C35	C	-1.485028	0.000228	0.317811
C36	C	-1.371870	0.000218	0.261193
C37	C	-1.374347	0.000214	0.167882
C38	C	-1.366716	0.000222	0.455684
C39	C	-1.364239	0.000223	0.549001
C40	C	-1.593023	0.000247	0.568912
C41	C	-1.595500	0.000243	0.475601
C42	C	-1.482341	0.000230	0.418989
H43	H	-0.891800	0.000193	0.018307
C44	C	-1.790369	-0.367473	-0.031195
C45	C	-1.785761	-0.273965	-0.114456
C46	C	-1.908620	-0.213633	-0.143883
C47	C	-2.036088	-0.246809	-0.090049
C48	C	-2.040700	-0.340321	-0.006782
C49	C	-1.917841	-0.400654	0.022645
H50	H	-1.691398	-0.249402	-0.154312
H51	H	-1.905205	-0.144408	-0.205523
H52	H	-2.127036	-0.202147	-0.111832
H53	H	-2.135064	-0.364884	0.033074
H54	H	-1.921256	-0.469878	0.084285
C55	C	-1.639527	-0.375038	0.091101
C56	C	-1.736511	-0.284035	0.146941
C57	C	-1.708530	-0.231272	0.239808
C58	C	-1.583566	-0.269512	0.276836
C59	C	-1.486574	-0.360519	0.220995
C60	C	-1.514554	-0.413282	0.128127
H61	H	-1.829024	-0.255724	0.119531
H62	H	-1.780331	-0.163903	0.281145
H63	H	-1.562853	-0.230453	0.345582
H64	H	-1.394060	-0.388831	0.248404
H65	H	-1.442753	-0.480652	0.086790
C66	C	-1.242244	0.000207	0.393407
C67	C	-1.147530	0.118886	0.398016
C68	C	-1.023062	0.118865	0.335738
C69	C	-0.993309	0.000163	0.268853
C70	C	-1.088025	-0.118525	0.264242
C71	C	-1.212493	-0.118503	0.326519
H72	H	-1.169553	0.206764	0.447531
H73	H	-0.952947	0.206726	0.339152
H74	H	-0.901170	0.000147	0.222752
H75	H	-1.066002	-0.206403	0.214727
H76	H	-1.282608	-0.206365	0.323105
H77	H	-1.129452	0.000121	0.013822
C78	C	-1.056282	-0.129022	-0.357872
C79	C	-0.955459	-0.233184	-0.395397
C80	C	-0.994565	-0.362407	-0.445050
C81	C	-1.134494	-0.387468	-0.457178
C82	C	-1.235326	-0.283303	-0.419652
C83	C	-1.196220	-0.154080	-0.369999
H84	H	-0.851867	-0.214635	-0.386420
H85	H	-0.919922	-0.439516	-0.472829
H86	H	-1.163442	-0.483126	-0.493934
H87	H	-1.338918	-0.301852	-0.428629
H88	H	-1.270863	-0.076971	-0.342220
H89	H	-1.052513	0.098896	-0.338141
H90	H	-1.270086	0.000192	0.578879
H91	H	-0.840206	-0.098469	-0.334147
H92	H	-1.763850	-0.610720	-0.017084
C93	C	-0.829282	0.129462	-0.353564
C94	C	-0.915760	0.233645	-0.394611
C95	C	-0.858861	0.362887	-0.442427
C96	C	-0.715482	0.387946	-0.449194
C97	C	-0.628995	0.283760	-0.408145
C98	C	-0.685894	0.154518	-0.360330
H99	H	-1.021906	0.215097	-0.389603
H100	H	-0.922885	0.440012	-0.472814
H101	H	-0.673361	0.483618	-0.484590
H102	H	-0.522849	0.302307	-0.413154
H103	H	-0.621870	0.077393	-0.329943
H104	H	-1.637687	-0.616308	0.063209
H105	H	-1.328897	-0.369300	-0.240916
H106	H	-1.328908	-0.630335	-0.240905
H107	H	-1.697285	0.000226	0.157924
H108	H	-1.692791	0.000248	0.327200
H109	H	-1.689652	0.000242	0.445723
H110	H	-1.685161	0.000262	0.615010
H111	H	-1.277726	0.000217	0.291082
H112	H	-1.282209	0.000202	0.121790
