data_functionalizedCrystal
_audit_creation_method	'MofGen! by Chris Wilmer'
_symmetry_space_group_name_H-M	'P1'
_symmetry_Int_Tables_number	1
_symmetry_cell_setting	triclinic
loop_
_symmetry_equiv_pos_as_xyz
  x,y,z
_cell_length_a	11.169417
_cell_length_b	16.120531
_cell_length_c	11.169409
_cell_angle_alpha	87.142764
_cell_angle_beta	89.980176
_cell_angle_gamma	87.066981
loop_
_atom_site_label
_atom_site_type_symbol
_atom_site_fract_x
_atom_site_fract_y
_atom_site_fract_z
Zn1	Zn	1.810559	0.331818	-0.702676
Zn2	Zn	2.143893	0.665152	-0.369343
Zn3	Zn	2.477226	0.998485	-0.036009
Zn4	Zn	1.800194	0.471261	-0.512135
Zn5	Zn	2.133527	0.804595	-0.178802
Zn6	Zn	2.466860	1.137928	0.154532
Zn7	Zn	1.609842	0.331869	-0.502014
Zn8	Zn	1.943175	0.665202	-0.168681
Zn9	Zn	2.276508	0.998536	0.164652
Zn10	Zn	1.599603	0.471193	-0.712775
Zn11	Zn	1.932936	0.804527	-0.379441
Zn12	Zn	2.266269	1.137860	-0.046108
O13	O	1.705049	0.401535	-0.607400
O14	O	2.038383	0.734869	-0.274067
O15	O	2.371716	1.068202	0.059267
O16	O	1.977133	0.350323	-0.677410
O17	O	2.310467	0.683656	-0.344076
O18	O	2.643800	1.016989	-0.010743
O19	O	1.774890	0.452820	-0.342846
O20	O	2.108223	0.786154	-0.009513
O21	O	2.441557	1.119487	0.323821
O22	O	1.645090	0.215197	-0.520171
O23	O	1.978424	0.548531	-0.186837
O24	O	2.311757	0.881864	0.146496
O25	O	1.969518	0.452771	-0.537420
O26	O	2.302851	0.786104	-0.204086
O27	O	2.636185	1.119438	0.129247
O28	O	1.792557	0.215160	-0.667596
O29	O	2.125890	0.548493	-0.334263
O30	O	2.459223	0.881827	-0.000929
O31	O	1.635039	0.350409	-0.335411
O32	O	1.968372	0.683743	-0.002077
O33	O	2.301706	1.017076	0.331256
O34	O	1.440534	0.350344	-0.529963
O35	O	1.773867	0.683677	-0.196629
O36	O	2.107201	1.017010	0.136704
O37	O	1.627640	0.452655	-0.879381
O38	O	1.960973	0.785989	-0.546048
O39	O	2.294306	1.119322	-0.212715
O40	O	1.433012	0.452705	-0.684808
O41	O	1.766345	0.786038	-0.351474
O42	O	2.099678	1.119371	-0.018141
O43	O	1.782629	0.350257	-0.871962
O44	O	2.115962	0.683590	-0.538629
O45	O	2.449295	1.016924	-0.205295
O46	O	1.764962	0.587917	-0.547212
O47	O	2.098295	0.921251	-0.213879
O48	O	2.431628	1.254584	0.119455
O49	O	1.617588	0.587867	-0.694621
O50	O	1.950922	0.921201	-0.361288
O51	O	2.284255	1.254534	-0.027955
C52	C	1.393226	0.401523	-0.607384
C53	C	1.726559	0.734856	-0.274050
C54	C	2.059892	1.068190	0.059283
C55	C	1.259824	0.401538	-0.607407
C56	C	1.593158	0.734871	-0.274073
C57	C	1.926491	1.068204	0.059260
C58	C	1.689072	0.618142	-0.623137
C59	C	2.022405	0.951476	-0.289804
C60	C	2.355738	1.284809	0.043530
C61	C	1.682346	0.710808	-0.629909
C62	C	2.015680	1.044141	-0.296576
C63	C	2.349013	1.377474	0.036757
C64	C	1.670074	0.880468	-0.642299
C65	C	2.003408	1.213802	-0.308965
C66	C	2.336741	1.547135	0.024368
C67	C	1.740069	0.921762	-0.572433
C68	C	2.073403	1.255096	-0.239100
C69	C	2.406736	1.588429	0.094233
C70	C	1.733241	1.016167	-0.579327
C71	C	2.066575	1.349501	-0.245994
C72	C	2.399908	1.682834	0.087340
C73	C	1.676901	0.786055	-0.635407
C74	C	2.010234	1.119388	-0.302073
C75	C	2.343568	1.452721	0.031260
C76	C	2.018091	0.401549	-0.607417
C77	C	2.351424	0.734882	-0.274084
C78	C	2.684757	1.068215	0.059250
C79	C	2.151490	0.401554	-0.607424
C80	C	2.484824	0.734888	-0.274091
C81	C	2.818157	1.068221	0.059242
C82	C	1.705148	0.401443	-0.920436
C83	C	2.038482	0.734776	-0.587103
C84	C	2.371815	1.068110	-0.253769
C85	C	1.705190	0.401403	-1.053833
C86	C	2.038524	0.734737	-0.720500
C87	C	2.371857	1.068070	-0.387166
C88	C	1.721079	1.184083	-0.591606
C89	C	2.054412	1.517416	-0.258273
C90	C	2.387746	1.850750	0.075061
C91	C	1.727801	1.091418	-0.584819
C92	C	2.061134	1.424751	-0.251486
C93	C	2.394468	1.758084	0.081848
C94	C	1.705024	0.401568	-0.295578
C95	C	2.038358	0.734901	0.037756
C96	C	2.371691	1.068234	0.371089
C97	C	1.705232	0.401372	-0.162164
C98	C	2.038565	0.734705	0.171169
C99	C	2.371898	1.068039	0.504503
H100	H	1.805121	0.886215	-0.507442
H101	H	2.138455	1.219548	-0.174109
H102	H	2.471788	1.552881	0.159225
H103	H	1.605026	0.916013	-0.707283
H104	H	1.938359	1.249347	-0.373950
H105	H	2.271693	1.582680	-0.040616
