data_functionalizedCrystal
_audit_creation_method	'MofGen! by Chris Wilmer'
_symmetry_space_group_name_H-M	'P1'
_symmetry_Int_Tables_number	1
_symmetry_cell_setting	triclinic
loop_
_symmetry_equiv_pos_as_xyz
  x,y,z
_cell_length_a	26.374263
_cell_length_b	26.373608
_cell_length_c	26.370205
_cell_angle_alpha	60.005297
_cell_angle_beta	60.010839
_cell_angle_gamma	59.993700
loop_
_atom_site_label
_atom_site_type_symbol
_atom_site_fract_x
_atom_site_fract_y
_atom_site_fract_z
O1	O	0.070152	-0.740800	0.619517
O2	O	0.570152	-0.240800	1.119517
O3	O	0.026377	-0.576764	0.499159
O4	O	0.526377	-0.076764	0.999159
O5	O	0.130245	-0.680560	0.499088
O6	O	0.630245	-0.180560	0.999088
O7	O	-0.033715	-0.637003	0.619589
O8	O	0.466285	-0.137003	1.119589
O9	O	0.164701	-0.646107	0.533470
O10	O	0.664701	-0.146107	1.033470
O11	O	0.060833	-0.542310	0.533541
O12	O	0.560833	-0.042310	1.033541
O13	O	0.104608	-0.706346	0.653899
O14	O	0.604608	-0.206346	1.153899
Cu15	Cu	0.085867	-0.621182	0.596859
Cu16	Cu	0.585867	-0.121182	1.096859
Cu17	Cu	0.045119	-0.661927	0.556199
Cu18	Cu	0.545119	-0.161927	1.056199
O19	O	0.000741	-0.602549	0.653971
O20	O	0.500741	-0.102549	1.153971
N21	N	0.114528	-0.592529	0.625461
N22	N	0.614528	-0.092529	1.125461
N23	N	0.016463	-0.690587	0.527598
N24	N	0.516463	-0.190587	1.027598
C25	C	0.181428	-0.355400	0.692330
C26	C	0.681428	0.144600	1.192330
C27	C	0.181530	-0.525690	0.862573
C28	C	0.681530	-0.025690	1.362573
C29	C	0.181440	-0.525667	0.692313
C30	C	0.681440	-0.025667	1.192313
C31	C	0.351736	-0.525673	0.692271
C32	C	0.851736	-0.025673	1.192271
C33	C	0.200174	-0.411588	0.711047
C34	C	0.700174	0.088412	1.211047
C35	C	0.200232	-0.506954	0.806384
C36	C	0.700232	-0.006954	1.306384
C37	C	0.295546	-0.506943	0.711016
C38	C	0.795546	-0.006943	1.211016
C39	C	0.200182	-0.506940	0.711037
C40	C	0.700182	-0.006940	1.211037
C41	C	0.157567	-0.283881	0.668507
C42	C	0.657567	0.216119	1.168507
C43	C	0.157587	-0.549500	0.668479
C44	C	0.657587	-0.049500	1.168479
C45	C	0.224035	-0.483107	0.734871
C46	C	0.724035	0.016893	1.234871
C47	C	0.455739	-0.507754	0.637520
C48	C	0.955739	-0.007754	1.137520
C49	C	0.520749	-0.529425	0.615835
C50	C	1.020749	-0.029425	1.115835
C51	C	0.520768	-0.634611	0.655947
C52	C	1.020768	-0.134611	1.155947
C53	C	0.455759	-0.612939	0.677633
C54	C	0.955759	-0.112939	1.177633
C55	C	0.173240	-0.251367	0.604595
C56	C	0.673240	0.248633	1.104595
C57	C	0.151546	-0.186351	0.582941
C58	C	0.651546	0.313649	1.082941
C59	C	0.098512	-0.186369	0.689113
C60	C	0.598512	0.313631	1.189113
C61	C	0.120206	-0.251385	0.710768
C62	C	0.620206	0.248615	1.210768
C63	C	0.093669	-0.533798	0.684205
C64	C	0.593669	-0.033798	1.184205
C65	C	0.071992	-0.555464	0.662532
C66	C	0.571992	-0.055464	1.162532
C67	C	0.178144	-0.608536	0.609422
C68	C	0.678144	-0.108536	1.109422
C69	C	0.199825	-0.586869	0.631088
C70	C	0.699825	-0.086869	1.131088
C71	C	0.093821	-0.533842	0.966616
C72	C	0.593821	-0.033842	1.466616
C73	C	0.072187	-0.555526	1.031630
C74	C	0.572187	-0.055526	1.531630
C75	C	0.178370	-0.608608	1.031591
C76	C	0.678370	-0.108608	1.531591
C77	C	0.200004	-0.586926	0.966576
C78	C	0.700004	-0.086926	1.466576
C79	C	0.157728	-0.549541	0.934090
C80	C	0.657728	-0.049541	1.434090
C81	C	0.423247	-0.549509	0.668416
C82	C	0.923247	-0.049509	1.168416
C83	C	-0.097522	-0.709158	0.508557
C84	C	0.402478	-0.209158	1.008557
C85	C	-0.002050	-0.709295	0.413344
C86	C	0.497950	-0.209295	0.913344
C87	C	-0.002241	-0.804604	0.508735
C88	C	0.497759	-0.304604	1.008735
C89	C	-0.002225	-0.709288	0.508793
C90	C	0.497775	-0.209288	1.008793
C91	C	-0.026009	-0.733087	0.484858
C92	C	0.473991	-0.233087	0.984858
N93	N	0.552340	-0.592538	0.625346
N94	N	1.052340	-0.092538	1.125346
O95	O	0.750867	-0.598274	0.477076
O96	O	1.250867	-0.098274	0.977076
O97	O	0.751048	-0.718989	0.640960
O98	O	1.251048	-0.218989	1.140960
O99	O	0.750981	-0.718715	0.537020
O100	O	1.250981	-0.218715	1.037020
O101	O	0.750934	-0.598547	0.581017
O102	O	1.250934	-0.098547	1.081017
O103	O	0.647701	-0.684348	0.571512
O104	O	1.147701	-0.184348	1.071512
O105	O	0.647768	-0.684622	0.675452
O106	O	1.147768	-0.184622	1.175452
O107	O	0.647587	-0.563907	0.511569
O108	O	1.147587	-0.063907	1.011569
Cu109	Cu	0.638247	-0.621127	0.596660
Cu110	Cu	1.138247	-0.121127	1.096660
Cu111	Cu	0.760388	-0.661769	0.555869
Cu112	Cu	1.260388	-0.161769	1.055869
O113	O	0.647654	-0.564181	0.615509
O114	O	1.147654	-0.064181	1.115509
N115	N	0.846295	-0.690358	0.527176
N116	N	1.346295	-0.190358	1.027176
N117	N	0.114503	-0.154778	0.625499
N118	N	0.614503	0.345222	1.125499
O119	O	-0.033701	0.043855	0.619632
O120	O	0.466299	0.543855	1.119632
O121	O	0.130190	0.043858	0.498933
O122	O	0.630190	0.543858	0.998933
O123	O	0.026233	0.043841	0.499224
O124	O	0.526233	0.543841	0.999224
O125	O	0.070257	0.043872	0.619341
O126	O	0.570257	0.543872	1.119341
O127	O	0.060690	-0.059448	0.533654
O128	O	0.560690	0.440552	1.033654
O129	O	0.164647	-0.059431	0.533363
O130	O	0.664647	0.440569	1.033363
O131	O	0.000756	-0.059434	0.654062
O132	O	0.500756	0.440566	1.154062
Cu133	Cu	0.085848	-0.068863	0.596857
Cu134	Cu	0.585848	0.431137	1.096857
Cu135	Cu	0.045099	0.053287	0.556138
Cu136	Cu	0.545099	0.553287	1.056138
O137	O	0.104714	-0.059417	0.653771
O138	O	0.604714	0.440583	1.153771
N139	N	0.016435	0.139202	0.527497
N140	N	0.516435	0.639202	1.027497
N141	N	0.114760	-0.592585	1.063190
N142	N	0.614760	-0.092585	1.563190
O143	O	0.108896	-0.740779	1.261808
O144	O	0.608896	-0.240779	1.761808
O145	O	-0.011787	-0.576838	1.261822
O146	O	0.488213	-0.076838	1.761822
O147	O	-0.011509	-0.680779	1.261780
O148	O	0.488491	-0.180779	1.761780
O149	O	0.108618	-0.636838	1.261850
O150	O	0.608618	-0.136838	1.761850
O151	O	0.022916	-0.646341	1.158496
O152	O	0.522916	-0.146341	1.658496
O153	O	0.022638	-0.542399	1.158538
O154	O	0.522638	-0.042399	1.658538
O155	O	0.143321	-0.706341	1.158524
O156	O	0.643321	-0.206341	1.658524
Cu157	Cu	0.086123	-0.621225	1.149100
Cu158	Cu	0.586123	-0.121225	1.649100
Cu159	Cu	0.045411	-0.661953	1.271246
Cu160	Cu	0.545411	-0.161953	1.771246
O161	O	0.143044	-0.602399	1.158566
O162	O	0.643044	-0.102399	1.658566
N163	N	0.016774	-0.690600	1.357156
N164	N	0.516774	-0.190600	1.857156
C165	C	0.039504	-0.538867	0.499769
C166	C	0.539504	-0.038867	0.999769
C167	C	0.168130	-0.667407	0.499680
C168	C	0.668130	-0.167407	0.999680
C169	C	0.091482	-0.744243	0.653289
C170	C	0.591482	-0.244243	1.153289
C171	C	-0.037145	-0.615703	0.653378
C172	C	0.462855	-0.115703	1.153378
C173	C	0.699429	-0.718429	0.678853
C174	C	1.199429	-0.218429	1.178853
C175	C	0.699348	-0.718091	0.550135
C176	C	1.199348	-0.218091	1.050135
C177	C	0.699202	-0.564465	0.473677
C178	C	1.199202	-0.064465	0.973677
C179	C	0.699287	-0.564805	0.602393
C180	C	1.199287	-0.064805	1.102393
C181	C	0.168023	-0.007659	0.499484
C182	C	0.668023	0.492341	0.999484
C183	C	0.039327	-0.007807	0.499887
C184	C	0.539327	0.492193	0.999887
C185	C	-0.037119	-0.007789	0.653468
C186	C	0.462881	0.492211	1.153468
C187	C	0.091620	-0.007770	0.653109
C188	C	0.591620	0.492230	1.153109
C189	C	-0.011194	-0.538964	1.210181
C190	C	0.488806	-0.038964	1.710181
C191	C	-0.010843	-0.667676	1.210109
C192	C	0.489157	-0.167676	1.710109
C193	C	0.142729	-0.744214	1.210165
C194	C	0.642729	-0.244214	1.710165
C195	C	0.142386	-0.615494	1.210214
C196	C	0.642386	-0.115494	1.710214
H197	H	0.059391	-0.503396	0.940172
H198	H	0.559391	-0.003396	1.440172
H199	H	0.029900	-0.007810	0.462151
H200	H	0.529900	0.492190	0.962151
O201	O	0.699353	-0.519845	0.613667
O202	O	1.199353	-0.019845	1.113667
C203	C	0.752876	-0.541209	0.628236
C204	C	1.252876	-0.041209	1.128236
H205	H	0.770752	-0.594148	0.646049
H206	H	1.270752	-0.094148	1.146049
H207	H	0.740862	-0.523269	0.665608
H208	H	1.240862	-0.023269	1.165608
H209	H	0.790293	-0.523485	0.584832
H210	H	1.290293	-0.023485	1.084832
H211	H	-0.084239	-0.606419	0.691217
H212	H	0.415761	-0.106419	1.191217
H213	H	-0.084187	-0.007791	0.691362
H214	H	0.415813	0.492209	1.191362
O215	O	0.699573	-0.763719	0.734950
O216	O	1.199573	-0.263719	1.234950
C217	C	0.753099	-0.816021	0.726732
C218	C	1.253099	-0.316021	1.226732
H219	H	0.770901	-0.815312	0.677175
H220	H	1.270901	-0.315312	1.177175
H221	H	0.741117	-0.860147	0.760755
H222	H	1.241117	-0.360147	1.260755
H223	H	0.790558	-0.814896	0.735622
H224	H	1.290558	-0.314896	1.235622
H225	H	-0.048566	-0.677061	1.210046
H226	H	0.451434	-0.177061	1.710046
O227	O	0.224005	-0.007239	0.454084
O228	O	0.724005	0.492761	0.954084
C229	C	0.215508	0.046371	0.401927
C230	C	0.715508	0.546371	0.901927
H231	H	0.165930	0.064004	0.402770
H232	H	0.665930	0.564004	0.902770
H233	H	0.249496	0.034564	0.357698
H234	H	0.749496	0.534564	0.857698
H235	H	0.224225	0.083895	0.403135
H236	H	0.724225	0.583895	0.903135
H237	H	0.101045	-0.007760	0.690842
H238	H	0.601045	0.492240	1.190842
H239	H	0.699142	-0.526565	0.426612
H240	H	1.199142	-0.026565	0.926612
H241	H	-0.049082	-0.491880	1.210184
H242	H	0.450918	0.008120	1.710184
H243	H	0.180620	-0.791296	1.210154
H244	H	0.680620	-0.291296	1.710154
H245	H	0.180125	-0.606093	1.210228
H246	H	0.680125	-0.106093	1.710228
O247	O	0.699339	-0.763051	0.538814
O248	O	1.199339	-0.263051	1.038814
C249	C	0.699302	-0.740433	0.477771
C250	C	1.199302	-0.240433	0.977771
H251	H	0.679707	-0.687534	0.461449
H252	H	1.179707	-0.187534	0.961449
H253	H	0.669326	-0.759361	0.476886
H254	H	1.169326	-0.259361	0.976886
H255	H	0.748840	-0.756114	0.445618
H256	H	1.248840	-0.256114	0.945618
H257	H	0.212798	-0.639038	1.058038
H258	H	0.712798	-0.139038	1.558038
O259	O	0.010091	-0.540290	1.063152
O260	O	0.510091	-0.040290	1.563152
C261	C	-0.016920	-0.562527	1.047281
C262	C	0.483080	-0.062527	1.547281
H263	H	0.013886	-0.568894	1.000071
H264	H	0.513886	-0.068894	1.500071
H265	H	-0.064746	-0.527677	1.045071
H266	H	0.435254	-0.027677	1.545071
H267	H	-0.021741	-0.608990	1.083864
H268	H	0.478259	-0.108990	1.583864
O269	O	0.262101	-0.602285	0.935051
O270	O	0.762101	-0.102285	1.435051
C271	C	0.289115	-0.667404	0.950909
C272	C	0.789115	-0.167404	1.450909
H273	H	0.258311	-0.690162	0.998116
H274	H	0.758311	-0.190162	1.498116
H275	H	0.336941	-0.682601	0.953120
H276	H	0.836941	-0.182601	1.453120
H277	H	0.293937	-0.682106	0.914318
H278	H	0.793937	-0.182106	1.414318
O279	O	0.052614	-0.497405	0.720428
O280	O	0.552614	0.002595	1.220428
C281	C	0.014996	-0.442882	0.687619
C282	C	0.514996	0.057118	1.187619
H283	H	0.040079	-0.433838	0.635603
H284	H	0.540079	0.066162	1.135603
H285	H	0.005168	-0.401931	0.699255
H286	H	0.505168	0.098069	1.199255
H287	H	-0.030677	-0.448787	0.701467
H288	H	0.469323	0.051213	1.201467
O289	O	0.009917	-0.540326	0.677829
O290	O	0.509917	-0.040326	1.177829
C291	C	-0.005768	-0.594957	0.710557
C292	C	0.494232	-0.094957	1.210557
H293	H	0.037080	-0.635801	0.698809
H294	H	0.537080	-0.135801	1.198809
H295	H	-0.043479	-0.589141	0.696732
H296	H	0.456521	-0.089141	1.196732
H297	H	-0.023590	-0.604106	0.762592
H298	H	0.476410	-0.104106	1.262592
O299	O	0.219206	-0.644746	0.573013
O300	O	0.719206	-0.144746	1.073013
C301	C	0.256777	-0.611915	0.518496
C302	C	0.756777	-0.111915	1.018496
H303	H	0.231660	-0.559901	0.509470
H304	H	0.731660	-0.059901	1.009470
H305	H	0.266593	-0.623537	0.477539
H306	H	0.766593	-0.123537	0.977539
H307	H	0.302460	-0.625757	0.524393
H308	H	0.802460	-0.125757	1.024393
O309	O	0.261908	-0.602010	0.615744
O310	O	0.761908	-0.102010	1.115744
C311	C	0.277589	-0.547377	0.583038
C312	C	0.777589	-0.047377	1.083038
H313	H	0.240916	-0.508320	0.561055
H314	H	0.740916	-0.008320	1.061055
H315	H	0.324771	-0.555933	0.545139
H316	H	0.824771	-0.055933	1.045139
H317	H	0.279760	-0.533701	0.616470
H318	H	0.779760	-0.033701	1.116470
O319	O	0.224262	-0.678487	0.454476
O320	O	0.724262	-0.178487	0.954476
C321	C	0.216101	-0.671513	0.402147
C322	C	0.716101	-0.171513	0.902147
H323	H	0.170608	-0.678335	0.417097
H324	H	0.670608	-0.178335	0.917097
H325	H	0.256366	-0.707600	0.379994
H326	H	0.756366	-0.207600	0.879994
H327	H	0.214732	-0.622969	0.367035
H328	H	0.714732	-0.122969	0.867035
H329	H	0.547237	-0.686258	0.663446
H330	H	1.047237	-0.186258	1.163446
O331	O	0.424231	-0.653517	0.707543
O332	O	0.924231	-0.153517	1.207543
C333	C	0.440121	-0.683968	0.667752
C334	C	0.940121	-0.183968	1.167752
H335	H	0.457964	-0.654360	0.617425
H336	H	0.957964	-0.154360	1.117425
H337	H	0.397371	-0.691282	0.675436
H338	H	0.897371	-0.191282	1.175436
H339	H	0.477875	-0.730884	0.678220
H340	H	0.977875	-0.230884	1.178220
O341	O	0.552221	-0.488776	0.585807
O342	O	1.052221	0.011224	1.085807
C343	C	0.509585	-0.428145	0.582335
C344	C	1.009585	0.071855	1.082335
H345	H	0.463236	-0.425609	0.586609
H346	H	0.963236	0.074391	1.086609
H347	H	0.528350	-0.393789	0.535867
H348	H	1.028350	0.106211	1.035867
H349	H	0.502694	-0.416008	0.621721
H350	H	1.002694	0.083992	1.121721
H351	H	0.429268	-0.456103	0.630015
H352	H	0.929268	0.043897	1.130015
H353	H	0.203661	-0.277820	0.570179
H354	H	0.703661	0.222180	1.070179
H355	H	0.100832	-0.791364	0.691090
H356	H	0.600832	-0.291364	1.191090
H357	H	0.164306	-0.159876	0.530897
H358	H	0.664306	0.340124	1.030897
H359	H	0.068098	-0.159910	0.723527
H360	H	0.568098	0.340090	1.223527
H361	H	0.030155	-0.491745	0.461969
H362	H	0.530155	0.008255	0.961969
O363	O	0.104946	-0.282872	0.772873
O364	O	0.604946	0.217128	1.272873
C365	C	0.067303	-0.240245	0.805526
C366	C	0.567303	0.259755	1.305526
H367	H	0.075582	-0.193896	0.774522
H368	H	0.575582	0.306104	1.274522
H369	H	0.079507	-0.259034	0.848907
H370	H	0.579507	0.240966	1.348907
H371	H	0.016381	-0.233334	0.819553
H372	H	0.516381	0.266666	1.319553
