data_functionalizedCrystal
_audit_creation_method	'MofGen! by Chris Wilmer'
_symmetry_space_group_name_H-M	'P1'
_symmetry_Int_Tables_number	1
_symmetry_cell_setting	triclinic
loop_
_symmetry_equiv_pos_as_xyz
  x,y,z
_cell_length_a	12.759401
_cell_length_b	25.639239
_cell_length_c	12.759393
_cell_angle_alpha	90.037052
_cell_angle_beta	90.018496
_cell_angle_gamma	90.038847
loop_
_atom_site_label
_atom_site_type_symbol
_atom_site_fract_x
_atom_site_fract_y
_atom_site_fract_z
Zn1	Zn	1.606080	-0.208118	0.593941
Zn2	Zn	1.605901	-0.295564	0.418245
Zn3	Zn	1.430382	-0.208145	0.418281
Zn4	Zn	1.430297	-0.295524	0.593886
O5	O	1.518165	-0.251838	0.506088
O6	O	1.753078	-0.219723	0.570643
O7	O	1.582579	-0.283996	0.271228
O8	O	1.453799	-0.134976	0.441621
O9	O	1.752946	-0.283970	0.441559
O10	O	1.582884	-0.134956	0.570678
O11	O	1.453626	-0.219770	0.271255
O12	O	1.283350	-0.219731	0.441567
O13	O	1.453655	-0.283901	0.740914
O14	O	1.283288	-0.283928	0.570584
O15	O	1.582802	-0.219684	0.740955
O16	O	1.582496	-0.368724	0.441505
O17	O	1.453481	-0.368695	0.570549
C18	C	1.245198	-0.251828	0.506074
C19	C	1.128421	-0.251837	0.506093
C20	C	1.517989	-0.387680	0.506040
C21	C	1.518009	-0.445795	0.506055
C22	C	1.073554	-0.285318	0.573160
C23	C	0.963830	-0.285324	0.573172
C24	C	0.963850	-0.218368	0.439039
C25	C	1.073572	-0.218359	0.439033
C26	C	1.128404	-0.318796	0.640220
C27	C	1.073536	-0.352280	0.707292
C28	C	0.963812	-0.352286	0.707303
C29	C	0.908955	-0.318809	0.640242
C30	C	1.585519	-0.806160	0.439010
C31	C	1.585560	-0.860765	0.439024
O32	O	1.642775	-0.889004	0.381967
N33	N	1.518350	-0.888077	0.506158
C34	C	1.451103	-0.860782	0.573289
O35	O	1.393940	-0.889027	0.630394
C36	C	1.451068	-0.806179	0.573280
C37	C	1.518275	-0.778869	0.506134
C38	C	1.652721	-0.778851	0.371870
C39	C	1.652678	-0.724250	0.371855
C40	C	1.585434	-0.696959	0.438980
C41	C	1.518232	-0.724269	0.506119
C42	C	1.383827	-0.778885	0.640416
C43	C	1.383799	-0.724278	0.640401
C44	C	1.451005	-0.696968	0.573256
C45	C	1.450946	-0.642377	0.573228
N46	N	1.518155	-0.615065	0.506094
C47	C	1.585399	-0.642356	0.438970
C48	C	1.451182	-0.975453	0.573306
C49	C	1.451210	-1.030055	0.573311
C50	C	1.585669	-1.030034	0.439046
C51	C	1.585634	-0.975430	0.439037
C52	C	1.518391	-0.948140	0.506172
C53	C	1.585305	-0.527691	0.438943
C54	C	1.585253	-0.473086	0.438930
C55	C	1.450799	-0.473111	0.573198
C56	C	1.450846	-0.527712	0.573207
C57	C	1.518108	-0.555000	0.506076
O58	O	1.393762	-0.614103	0.630258
O59	O	1.642562	-0.614104	0.381885
C60	C	1.792198	-0.251848	0.506103
C61	C	1.908975	-0.251852	0.506109
C62	C	1.518239	-0.251785	0.780122
C63	C	1.518270	-0.251763	0.896898
C64	C	1.518371	-0.115465	0.506159
C65	C	1.518459	-0.057351	0.506190
C66	C	1.518152	-0.251853	0.233121
C67	C	1.518325	-0.251728	0.116345
C68	C	1.585526	-0.218322	0.951783
C69	C	1.585551	-0.218303	1.061507
C70	C	1.451061	-0.285170	1.061452
C71	C	1.451032	-0.285186	0.951730
C72	C	1.652765	-0.184898	0.896952
C73	C	1.720027	-0.151455	0.951837
C74	C	1.720052	-0.151436	1.061561
C75	C	1.652815	-0.184860	1.116400
H76	H	1.217746	-0.318795	0.640216
O77	O	1.785482	-0.118933	1.114715
C78	C	1.918834	-0.052590	1.103183
C79	C	1.844799	-0.089381	1.042859
H80	H	1.966795	-0.028681	1.045114
H81	H	1.973813	-0.076565	1.154513
H82	H	1.870639	-0.025262	1.154595
H83	H	1.892908	-0.116717	0.991391
H84	H	1.789817	-0.065374	0.991596
O85	O	0.910351	-0.384760	0.772423
C86	C	0.741312	-0.414470	0.831840
C87	C	0.801723	-0.377656	0.758059
H88	H	0.653476	-0.408748	0.820236
H89	H	0.762852	-0.405339	0.916612
H90	H	0.762896	-0.456611	0.813240
H91	H	0.780171	-0.335503	0.776564
H92	H	0.780177	-0.386832	0.673309
O93	O	0.910403	-0.185905	0.373923
C94	C	0.741376	-0.156232	0.314516
C95	C	0.801772	-0.193028	0.388302
H96	H	0.653538	-0.161970	0.326131
H97	H	0.762834	-0.165366	0.229744
H98	H	0.763056	-0.114085	0.333099
H99	H	0.780124	-0.235186	0.369813
H100	H	0.780309	-0.183849	0.473052
O101	O	1.385689	-0.317731	0.898570
C102	C	1.252298	-0.384054	0.910085
C103	C	1.326254	-0.347228	0.970419
H104	H	1.204210	-0.407904	0.968148
H105	H	1.300454	-0.411432	0.858741
H106	H	1.197424	-0.360057	0.858687
H107	H	1.381143	-0.371183	1.021873
H108	H	1.278033	-0.319849	1.021696
O109	O	1.385858	-0.317624	1.114882
C110	C	1.326268	-0.347216	1.283893
C111	C	1.400176	-0.310442	1.223517
H112	H	1.337802	-0.341414	1.371734
H113	H	1.344651	-0.389390	1.262367
H114	H	1.241569	-0.338041	1.262263
H115	H	1.484900	-0.319569	1.245114
H116	H	1.381702	-0.268279	1.245048
H117	H	1.652828	-0.184836	1.205745
O118	O	1.126834	-0.185897	0.373728
C119	C	1.160336	-0.160397	0.195109
C120	C	1.099967	-0.197201	0.268945
H121	H	1.138620	-0.169515	0.110378
H122	H	1.248189	-0.166146	0.206539
H123	H	1.138834	-0.118251	0.213761
H124	H	1.121381	-0.239360	0.250339
H125	H	1.012128	-0.191406	0.257501
O126	O	1.126703	-0.384869	0.772383
C127	C	1.160244	-0.473834	0.823014
C128	C	1.099953	-0.436986	0.749245
H129	H	1.138655	-0.515979	0.804319
H130	H	1.138694	-0.464746	0.907782
H131	H	1.248085	-0.468053	0.811505
H132	H	1.012098	-0.442747	0.760661
H133	H	1.121589	-0.446083	0.664504
H134	H	0.819611	-0.318813	0.640266
H135	H	1.639981	-0.450852	0.384249
H136	H	1.640078	-0.549903	0.384280
H137	H	1.707407	-0.702018	0.317183
O138	O	1.718078	-0.805275	0.306559
C139	C	1.851467	-0.799473	0.173418
C140	C	1.777488	-0.769488	0.247326
H141	H	1.899535	-0.770552	0.125525
H142	H	1.803329	-0.825064	0.118369
H143	H	1.906358	-0.825008	0.221707
H144	H	1.722582	-0.743925	0.199122
H145	H	1.825691	-0.743930	0.302378
H146	H	1.640360	-0.953198	0.384362
O147	O	1.650890	-1.056545	0.373728
C148	C	1.702098	-1.073342	0.195111
C149	C	1.628160	-1.043281	0.268935
H150	H	1.683763	-1.062621	0.110371
H151	H	1.690540	-1.117059	0.206617
H152	H	1.786791	-1.062572	0.213704
H153	H	1.543439	-1.054008	0.250387
H154	H	1.639809	-0.999571	0.257416
H155	H	1.396474	-1.052286	0.627977
O156	O	1.385749	-0.949026	0.638549
C157	C	1.252432	-0.954821	0.771763
C158	C	1.326460	-0.984810	0.697910
H159	H	1.204493	-0.983740	0.819791
H160	H	1.197431	-0.929317	0.723529
H161	H	1.300630	-0.929199	0.826697
H162	H	1.278346	-1.010461	0.642961
H163	H	1.381463	-1.010281	0.746210
H164	H	1.329095	-0.801111	0.695088
H165	H	1.329043	-0.702061	0.695074
H166	H	1.396125	-0.549949	0.627886
O167	O	1.385582	-0.446515	0.638368
C168	C	1.325914	-0.362398	0.697803
C169	C	1.399836	-0.392455	0.623955
H170	H	1.337397	-0.318685	0.686160
H171	H	1.344334	-0.373051	0.782560
H172	H	1.241222	-0.373211	0.679305
H173	H	1.484552	-0.381657	0.642359
H174	H	1.381326	-0.381799	0.539220
O175	O	1.785298	-0.119034	0.898409
C176	C	1.844811	-0.089399	0.729401
C177	C	1.770859	-0.126153	0.789773
H178	H	1.833147	-0.095135	0.641559
H179	H	1.929543	-0.098580	0.750896
H180	H	1.826438	-0.047242	0.751065
H181	H	1.789137	-0.168322	0.768142
H182	H	1.686149	-0.116928	0.768273
H183	H	1.652754	-0.184911	0.807609
