data_functionalizedCrystal
_audit_creation_method	'MofGen! by Chris Wilmer'
_symmetry_space_group_name_H-M	'P1'
_symmetry_Int_Tables_number	1
_symmetry_cell_setting	triclinic
loop_
_symmetry_equiv_pos_as_xyz
  x,y,z
_cell_length_a	21.395362
_cell_length_b	19.077068
_cell_length_c	21.395355
_cell_angle_alpha	92.279051
_cell_angle_beta	89.956060
_cell_angle_gamma	92.343691
loop_
_atom_site_label
_atom_site_type_symbol
_atom_site_fract_x
_atom_site_fract_y
_atom_site_fract_z
Zn1	Zn	0.947861	-0.279990	-0.364586
Zn2	Zn	0.943561	-0.397672	-0.264012
Zn3	Zn	0.843074	-0.280023	-0.259789
Zn4	Zn	0.838842	-0.397686	-0.368717
O5	O	0.893334	-0.338843	-0.314276
O6	O	1.034969	-0.295581	-0.351283
O7	O	0.930203	-0.382073	-0.175774
O8	O	0.860546	-0.181525	-0.270194
O9	O	1.031810	-0.382041	-0.277392
O10	O	0.937532	-0.181501	-0.347188
O11	O	0.856376	-0.295637	-0.172671
O12	O	0.754834	-0.295651	-0.274200
O13	O	0.853331	-0.382066	-0.455847
O14	O	0.751725	-0.382098	-0.354229
O15	O	0.933427	-0.295595	-0.452812
O16	O	0.926098	-0.496167	-0.281398
O17	O	0.849162	-0.496177	-0.358324
C18	C	0.730545	-0.338880	-0.314205
C19	C	0.660903	-0.338913	-0.314190
C20	C	0.626585	-0.383985	-0.355803
C21	C	0.561150	-0.383968	-0.355830
C22	C	0.530036	-0.338886	-0.314233
C23	C	0.564362	-0.293804	-0.272617
C24	C	0.629796	-0.293818	-0.272595
C25	C	0.426513	-0.333216	-0.257626
C26	C	0.361081	-0.333207	-0.257647
C27	C	0.328216	-0.338840	-0.314301
C28	C	0.360792	-0.344496	-0.370937
C29	C	0.426226	-0.344510	-0.370915
C30	C	0.459084	-0.338866	-0.314253
C31	C	0.222946	-0.383896	-0.355947
C32	C	0.157511	-0.383874	-0.355976
C33	C	0.160724	-0.293714	-0.272756
C34	C	0.226158	-0.293732	-0.272734
C35	C	0.257266	-0.338827	-0.314328
C36	C	0.886721	-0.521710	-0.320781
C37	C	0.883949	-0.599942	-0.323585
C38	C	0.922735	-0.636666	-0.284884
C39	C	0.920132	-0.710173	-0.287525
C40	C	0.878739	-0.746954	-0.328864
C41	C	0.839952	-0.710224	-0.367570
C42	C	0.842559	-0.636719	-0.364931
C43	C	0.866647	-0.966795	-0.341049
C44	C	0.864041	-1.040305	-0.343683
C45	C	0.944222	-1.040249	-0.263639
C46	C	0.946823	-0.966742	-0.261002
C47	C	0.908038	-0.930019	-0.299709
N48	N	0.876076	-0.822090	-0.331564
N49	N	0.910705	-0.854884	-0.297013
C50	C	1.056759	-0.338806	-0.314348
C51	C	1.126401	-0.338790	-0.314379
C52	C	0.893387	-0.338828	-0.477699
C53	C	0.893409	-0.338822	-0.547340
C54	C	0.899990	-0.155261	-0.307759
C55	C	0.902827	-0.077030	-0.304982
C56	C	0.935113	-0.293795	-0.578474
C57	C	0.935114	-0.293765	-0.643908
C58	C	0.893416	-0.338774	-0.678207
C59	C	0.851704	-0.383805	-0.647065
C60	C	0.851700	-0.383829	-0.581632
C61	C	0.886177	-0.402150	-0.784134
C62	C	0.886184	-0.402127	-0.849566
C63	C	0.893422	-0.338700	-0.880025
C64	C	0.900666	-0.275294	-0.845043
C65	C	0.900663	-0.275318	-0.779610
C66	C	0.893414	-0.338753	-0.749158
C67	C	0.935129	-0.293636	-0.982110
C68	C	0.935125	-0.293605	-1.047545
C69	C	0.851718	-0.383651	-1.050701
C70	C	0.851719	-0.383676	-0.985267
C71	C	0.893428	-0.338670	-0.950975
C72	C	0.893320	-0.338806	-0.151487
C73	C	0.893426	-0.338614	-0.081839
H74	H	0.254101	-0.257033	-0.238845
C75	C	0.836860	-0.944161	-0.446291
C76	C	0.824003	-0.926440	-0.383588
H77	H	0.810526	-0.919250	-0.472552
H78	H	0.879374	-0.932047	-0.455082
H79	H	0.829388	-0.993205	-0.453765
H80	H	0.831479	-0.877397	-0.376113
H81	H	0.781479	-0.938550	-0.374794
H82	H	0.980528	-0.936796	-0.227340
H83	H	0.956438	-0.606724	-0.251219
H84	H	0.817737	-0.420495	-0.556283
C85	C	0.160911	-0.473009	-0.438217
C86	C	0.119785	-0.433425	-0.401718
H87	H	0.137619	-0.503604	-0.466453
H88	H	0.187579	-0.442394	-0.461133
H89	H	0.185419	-0.499886	-0.411815
H90	H	0.095280	-0.406544	-0.428120
H91	H	0.093106	-0.464044	-0.378801
C92	C	1.001595	-0.792590	-0.282012
C93	C	0.962870	-0.750476	-0.245037
H94	H	1.028015	-0.817448	-0.255796
H95	H	0.976574	-0.825063	-0.306955
H96	H	1.026466	-0.763816	-0.308356
H97	H	0.937996	-0.779250	-0.218697
H98	H	0.987894	-0.717998	-0.220084
C99	C	0.975841	-1.152902	-0.232152
C100	C	0.986864	-1.080616	-0.221105
H101	H	1.002174	-1.177821	-0.205896
H102	H	0.933327	-1.165006	-0.223355
H103	H	0.984559	-1.164902	-0.274696
H104	H	0.978141	-1.068615	-0.178562
H105	H	1.029388	-1.068508	-0.229897
C106	C	0.285482	-0.386448	-0.189322
C107	C	0.325281	-0.327000	-0.195391
H108	H	0.263386	-0.382619	-0.150884
H109	H	0.256545	-0.389799	-0.223058
H110	H	0.309525	-0.427242	-0.189897
H111	H	0.301237	-0.286206	-0.194821
H112	H	0.354221	-0.323642	-0.161646
C113	C	0.170476	-0.204596	-0.190500
C114	C	0.126531	-0.244154	-0.227033
H115	H	0.149364	-0.173995	-0.162276
H116	H	0.194847	-0.235227	-0.167570
H117	H	0.197015	-0.177727	-0.216880
H118	H	0.099996	-0.271027	-0.200653
H119	H	0.102150	-0.213519	-0.249965
C120	C	0.763042	-0.644153	-0.444315
C121	C	0.799925	-0.596349	-0.407474
H122	H	0.736722	-0.619229	-0.470579
H123	H	0.789315	-0.672776	-0.469339
H124	H	0.738068	-0.672867	-0.418012
H125	H	0.824903	-0.567638	-0.433778
H126	H	0.773650	-0.567713	-0.382448
C127	C	0.800348	-0.822927	-0.407150
C128	C	0.794450	-0.750652	-0.413009
H129	H	0.772252	-0.847882	-0.435200
H130	H	0.842010	-0.834914	-0.416805
H131	H	0.790771	-0.834999	-0.365471
H132	H	0.804032	-0.738579	-0.454687
H133	H	0.752779	-0.738660	-0.403358
C134	C	0.420225	-0.322083	-0.145640
C135	C	0.462633	-0.327035	-0.195345
H136	H	0.442524	-0.318274	-0.107193
H137	H	0.396191	-0.281748	-0.149774
H138	H	0.393204	-0.362875	-0.146241
H139	H	0.489651	-0.286241	-0.194747
H140	H	0.486678	-0.367374	-0.191210
H141	H	0.539024	-0.257097	-0.238749
H142	H	0.657737	-0.257112	-0.238708
H143	H	0.969075	-0.257146	-0.550557
C144	C	1.017570	-0.204774	-0.634223
C145	C	0.980962	-0.244272	-0.678140
H146	H	1.045877	-0.174224	-0.655357
H147	H	0.991250	-0.177861	-0.607724
H148	H	1.040418	-0.235453	-0.609811
H149	H	0.958110	-0.213593	-0.702549
H150	H	1.007285	-0.271186	-0.704651
C151	C	0.859949	-0.162004	-0.755376
C152	C	0.908614	-0.205625	-0.741157
H153	H	0.864855	-0.118980	-0.731634
H154	H	0.860994	-0.152911	-0.798699
H155	H	0.820994	-0.184535	-0.745430
H156	H	0.947570	-0.183096	-0.751108
H157	H	0.907576	-0.214717	-0.697825
C158	C	0.852369	-1.122946	-0.430910
C159	C	0.818542	-1.080742	-0.389126
H160	H	0.824280	-1.147913	-0.458958
H161	H	0.880668	-1.094225	-0.453881
H162	H	0.875094	-1.155330	-0.408226
H163	H	0.795821	-1.048354	-0.411810
H164	H	0.790233	-1.109465	-0.366153
H165	H	0.817761	-0.420292	-1.078627
H166	H	0.817751	-0.420450	-0.674995
H167	H	0.906561	-0.223645	-0.869841
H168	H	0.248275	-0.420611	-0.389819
C169	C	1.017567	-0.204620	-0.985560
C170	C	0.980967	-0.244158	-0.944411
H171	H	1.045861	-0.174072	-0.962286
H172	H	1.040423	-0.235269	-1.012194
H173	H	0.991236	-0.177697	-1.010100
H174	H	1.007297	-0.271085	-0.919874
H175	H	0.958109	-0.213506	-0.917766
C176	C	0.947266	-0.198888	-1.117740
C177	C	0.980966	-0.244098	-1.081766
H178	H	0.975567	-0.168321	-1.138862
H179	H	0.922437	-0.225686	-1.147530
H180	H	0.920944	-0.171988	-1.091221
H181	H	1.007285	-0.271002	-1.108286
H182	H	1.005805	-0.217297	-1.051973
H183	H	0.817763	-0.420347	-0.959918
C184	C	0.871854	-0.527497	-0.847465
C185	C	0.878221	-0.471821	-0.888015
H186	H	0.866934	-0.570523	-0.871201
H187	H	0.908136	-0.528416	-0.822003
H188	H	0.836168	-0.521315	-0.821695
H189	H	0.913910	-0.478001	-0.913781
H190	H	0.841935	-0.470903	-0.913487
C191	C	0.930788	-0.481041	-0.713418
C192	C	0.878200	-0.471891	-0.750685
H193	H	0.925854	-0.524098	-0.692774
H194	H	0.967074	-0.481934	-0.738995
H195	H	0.935094	-0.443302	-0.683203
H196	H	0.873898	-0.509628	-0.780903
H197	H	0.841905	-0.471004	-0.725105
H198	H	0.533203	-0.420671	-0.389719
C199	C	0.616831	-0.473103	-0.438063
C200	C	0.660777	-0.433546	-0.401529
H201	H	0.637943	-0.503695	-0.466295
H202	H	0.590299	-0.499974	-0.411688
H203	H	0.592455	-0.442464	-0.460990
H204	H	0.685151	-0.464185	-0.378598
H205	H	0.687320	-0.406674	-0.427907
H206	H	0.334036	-0.349081	-0.417070
C207	C	0.419377	-0.355655	-0.482901
C208	C	0.462034	-0.350716	-0.433165
H209	H	0.441486	-0.359480	-0.521331
H210	H	0.392377	-0.395977	-0.478782
H211	H	0.395347	-0.314851	-0.482324
H212	H	0.486062	-0.391522	-0.433739
H213	H	0.489046	-0.310390	-0.437285
