data_functionalizedCrystal
_audit_creation_method	'MofGen! by Chris Wilmer'
_symmetry_space_group_name_H-M	'P1'
_symmetry_Int_Tables_number	1
_symmetry_cell_setting	triclinic
loop_
_symmetry_equiv_pos_as_xyz
  x,y,z
_cell_length_a	11.169417
_cell_length_b	10.686285
_cell_length_c	10.686551
_cell_angle_alpha	80.915481
_cell_angle_beta	85.606327
_cell_angle_gamma	85.632710
loop_
_atom_site_label
_atom_site_type_symbol
_atom_site_fract_x
_atom_site_fract_y
_atom_site_fract_z
Zn1	Zn	1.917381	-0.450141	-0.678937
Zn2	Zn	1.917284	-0.678721	-0.450435
Zn3	Zn	1.702372	-0.466497	-0.466707
Zn4	Zn	1.730979	-0.662340	-0.662645
O5	O	1.817004	-0.564425	-0.564681
O6	O	2.085319	-0.480473	-0.648634
O7	O	1.876762	-0.664270	-0.274963
O8	O	1.718961	-0.286705	-0.508488
O9	O	2.085247	-0.648410	-0.480754
O10	O	1.876928	-0.274688	-0.664413
O11	O	1.718867	-0.508350	-0.286918
O12	O	1.538216	-0.492466	-0.492690
O13	O	1.767719	-0.620491	-0.842436
O14	O	1.559233	-0.636351	-0.636645
O15	O	1.904667	-0.464589	-0.854406
O16	O	1.904502	-0.854171	-0.464957
O17	O	1.767624	-0.842136	-0.620867
C18	C	1.505177	-0.564407	-0.564666
C19	C	1.371780	-0.564428	-0.564688
C20	C	1.839191	-0.894207	-0.539406
C21	C	1.848796	-1.035285	-0.528635
C22	C	2.130049	-0.564444	-0.564697
C23	C	2.263450	-0.564452	-0.564703
C24	C	1.839395	-0.538889	-0.895766
C25	C	1.848936	-0.528006	-1.036855
C26	C	1.794764	-0.233354	-0.590083
C27	C	1.785287	-0.092271	-0.600907
C28	C	1.794763	-0.589771	-0.234891
C29	C	1.785430	-0.600295	-0.093830
H30	H	1.723568	-1.033130	-0.671024
H31	H	1.910510	-1.094435	-0.458506
H32	H	1.723763	-0.670513	-1.034671
H33	H	1.910616	-0.457793	-1.096020
