data_functionalizedCrystal
_audit_creation_method	'MofGen! by Chris Wilmer'
_symmetry_space_group_name_H-M	'P1'
_symmetry_Int_Tables_number	1
_symmetry_cell_setting	triclinic
loop_
_symmetry_equiv_pos_as_xyz
  x,y,z
_cell_length_a	10.967926
_cell_length_b	19.288857
_cell_length_c	17.766277
_cell_angle_alpha	89.991474
_cell_angle_beta	102.119897
_cell_angle_gamma	83.940252
loop_
_atom_site_label
_atom_site_type_symbol
_atom_site_fract_x
_atom_site_fract_y
_atom_site_fract_z
O1	O	1.655082	0.097406	0.152091
O2	O	1.291748	0.106733	0.104959
O3	O	1.483919	0.001007	0.129896
O4	O	1.462911	0.203132	0.127153
O5	O	1.483885	0.001002	0.255080
O6	O	1.291714	0.106728	0.230143
O7	O	1.655048	0.097400	0.277275
Cu8	Cu	1.473378	0.102064	0.265139
Cu9	Cu	1.473418	0.102070	0.117094
O10	O	1.462878	0.203127	0.252337
C11	C	1.245247	0.106052	0.161521
C12	C	1.106741	0.104023	0.143554
C13	C	1.483227	-0.024876	0.192402
C14	C	1.481203	-0.101993	0.192141
C15	C	1.480277	-0.138207	0.123781
C16	C	1.478357	-0.210666	0.123526
C17	C	1.477389	-0.246909	0.191639
C18	C	1.478308	-0.210686	0.260008
C19	C	1.480215	-0.138228	0.260259
C20	C	1.547436	-0.366688	0.253000
C21	C	1.545536	-0.439145	0.252748
C22	C	1.471501	-0.470393	0.190867
C23	C	1.399381	-0.429177	0.129228
C24	C	1.401288	-0.356719	0.129479
C25	C	1.475320	-0.325478	0.191374
C26	C	1.468491	-0.585175	0.122225
C27	C	1.466563	-0.657634	0.121972
C28	C	1.466527	-0.657654	0.258458
C29	C	1.468442	-0.585196	0.258707
C30	C	1.469430	-0.548961	0.190589
C31	C	1.044973	0.103116	0.200393
C32	C	0.901820	0.101018	0.181825
C33	C	1.701549	0.098082	0.220711
C34	C	1.840055	0.100111	0.238672
C35	C	1.463569	0.229010	0.189830
C36	C	1.465593	0.306127	0.190086
N37	N	1.473359	0.102059	0.369267
N38	N	1.473447	0.102070	0.012968
C39	C	1.558480	0.055266	0.419700
C40	C	1.558487	0.055263	0.498502
C41	C	1.473386	0.102064	0.526871
C42	C	1.388249	0.148860	0.476427
C43	C	1.388236	0.148857	0.397625
C44	C	1.456678	0.165244	0.649536
C45	C	1.456700	0.165247	0.728338
C46	C	1.473419	0.102073	0.769922
C47	C	1.490142	0.038892	0.732698
C48	C	1.490129	0.038889	0.653896
C49	C	1.473390	0.102072	0.612317
C50	C	1.558552	0.055273	0.905802
C51	C	1.558551	0.055269	0.984605
C52	C	1.388318	0.148872	0.962528
C53	C	1.388314	0.148870	0.883726
C54	C	1.473437	0.102072	0.855368
H55	H	1.481077	-0.108709	0.068313
Br56	Br	1.674069	-0.008246	1.053054
Br57	Br	1.434112	0.250991	0.593125
Br58	Br	1.272792	0.212379	0.815275
Br59	Br	1.512812	-0.046852	0.603377
Br60	Br	1.272743	0.212372	0.514922
H61	H	0.893148	0.100884	0.301085
H62	H	1.477595	-0.240156	0.067856
H63	H	1.053643	0.103246	0.081146
Br64	Br	1.647955	-0.324289	0.336977
Br65	Br	1.272809	0.212381	1.001020
Br66	Br	1.298893	-0.471575	0.045242
H67	H	1.627789	0.017159	0.396614
H68	H	1.477516	-0.240200	0.315465
Br69	Br	1.674016	-0.008247	0.566958
H70	H	1.465729	-0.687163	0.313915
H71	H	1.342563	-0.323163	0.079292
Br72	Br	1.674071	-0.008241	0.867314
Br73	Br	1.512849	-0.046851	0.789124
Br74	Br	1.469694	-0.536044	0.351486
Br75	Br	1.469824	-0.535994	0.029782
Br76	Br	1.133462	0.104404	0.304416
Br77	Br	0.813339	0.099717	0.077799
Br78	Br	1.434019	0.250991	0.778850
Br79	Br	1.465292	-0.706782	0.029187
Br80	Br	1.272705	0.212365	0.329174
H81	H	1.604265	-0.472698	0.302935
H82	H	1.480964	-0.108743	0.315927
