data_functionalizedCrystal
_audit_creation_method	'MofGen! by Chris Wilmer'
_symmetry_space_group_name_H-M	'P1'
_symmetry_Int_Tables_number	1
_symmetry_cell_setting	triclinic
loop_
_symmetry_equiv_pos_as_xyz
  x,y,z
_cell_length_a	12.759401
_cell_length_b	12.594516
_cell_length_c	12.759393
_cell_angle_alpha	90.028918
_cell_angle_beta	90.019802
_cell_angle_gamma	90.017258
loop_
_atom_site_label
_atom_site_type_symbol
_atom_site_fract_x
_atom_site_fract_y
_atom_site_fract_z
Zn1	Zn	1.606241	-0.423717	0.594000
Zn2	Zn	1.606121	-0.601733	0.418325
Zn3	Zn	1.430540	-0.423766	0.418338
Zn4	Zn	1.430521	-0.601651	0.593965
O5	O	1.518356	-0.512716	0.506157
O6	O	1.753246	-0.447345	0.570705
O7	O	1.582788	-0.578180	0.271305
O8	O	1.453905	-0.274813	0.441660
O9	O	1.753158	-0.578132	0.441637
O10	O	1.582992	-0.274777	0.570718
O11	O	1.453789	-0.447428	0.271315
O12	O	1.283516	-0.447349	0.441627
O13	O	1.453873	-0.577992	0.740991
O14	O	1.283502	-0.578040	0.570659
O15	O	1.582974	-0.447265	0.741016
O16	O	1.582770	-0.750668	0.441604
O17	O	1.453757	-0.750607	0.570646
C18	C	1.245388	-0.512692	0.506142
C19	C	1.128612	-0.512707	0.506160
C20	C	0.964059	-0.444753	0.573477
C21	C	1.073783	-0.444732	0.573469
C22	C	1.073711	-0.580714	0.438861
C23	C	0.963989	-0.580739	0.438874
C24	C	1.518277	-0.789257	0.506143
C25	C	1.518339	-0.907563	0.506172
C26	C	1.448226	-1.047585	0.576322
C27	C	1.544008	-0.976675	0.602094
C28	C	1.422567	-0.976902	0.480447
C29	C	1.614343	-1.047438	0.532032
C30	C	1.492838	-1.047671	0.410340
C31	C	1.588686	-0.976792	0.436075
C32	C	1.792389	-0.512742	0.506173
C33	C	1.909166	-0.512753	0.506180
C34	C	1.518434	-0.512614	0.780191
C35	C	1.518468	-0.512571	0.896967
C36	C	1.518464	-0.235096	0.506195
C37	C	1.518510	-0.116790	0.506211
C38	C	1.518338	-0.512741	0.233190
C39	C	1.518508	-0.512485	0.116414
C40	C	1.585696	-0.444490	0.951844
C41	C	1.585713	-0.444444	1.061568
C42	C	1.451273	-0.580569	1.061529
C43	C	1.451251	-0.580608	0.951807
H44	H	1.118472	-0.389361	0.628270
C45	C	1.659674	-0.369569	1.121933
H46	H	1.650058	-0.379282	1.195135
H47	H	1.730251	-0.385172	1.103956
H48	H	1.644328	-0.298053	1.103960
H49	H	1.396549	-0.635965	1.106193
H50	H	1.565656	-0.945493	0.683153
H51	H	1.396498	-0.636047	0.907125
H52	H	1.640426	-0.389086	0.907197
H53	H	1.695433	-1.078295	0.553900
C54	C	1.134019	-0.655482	0.364819
H55	H	1.207228	-0.645721	0.374441
H56	H	1.116043	-0.727021	0.380073
H57	H	1.116002	-0.639813	0.294255
C58	C	0.903602	-0.655540	0.364842
H59	H	0.951965	-0.696016	0.324744
H60	H	0.860814	-0.701973	0.404959
H61	H	0.860782	-0.614771	0.319136
C62	C	0.903752	-0.369982	0.647515
H63	H	0.830543	-0.379726	0.637880
H64	H	0.921766	-0.385640	0.718077
H65	H	0.921734	-0.298440	0.632251
C66	C	1.368138	-1.089591	0.656497
H67	H	1.386496	-1.065279	0.724570
H68	H	1.300214	-1.064406	0.638881
H69	H	1.368317	-1.165015	0.655517
C70	C	1.668967	-0.935054	0.355960
H71	H	1.736998	-0.959334	0.374420
H72	H	1.651372	-0.960436	0.288076
H73	H	1.668072	-0.859630	0.355978
C74	C	1.463562	-1.089840	0.300872
H75	H	1.519680	-1.131286	0.274046
H76	H	1.402342	-1.132478	0.305838
H77	H	1.450610	-1.031763	0.255190
C78	C	1.313065	-0.935004	0.451049
H79	H	1.263280	-0.959246	0.500956
H80	H	1.313974	-0.859587	0.450634
H81	H	1.294377	-0.960344	0.383436
