data_functionalizedCrystal
_audit_creation_method	'MofGen! by Chris Wilmer'
_symmetry_space_group_name_H-M	'P1'
_symmetry_Int_Tables_number	1
_symmetry_cell_setting	triclinic
loop_
_symmetry_equiv_pos_as_xyz
  x,y,z
_cell_length_a	14.971486
_cell_length_b	14.519709
_cell_length_c	14.048226
_cell_angle_alpha	89.999235
_cell_angle_beta	90.003819
_cell_angle_gamma	83.647137
loop_
_atom_site_label
_atom_site_type_symbol
_atom_site_fract_x
_atom_site_fract_y
_atom_site_fract_z
O1	O	0.117249	1.223798	0.079037
O2	O	0.617249	1.723798	0.579037
O3	O	0.131057	0.955313	0.079066
O4	O	0.631057	1.455313	0.579066
O5	O	-0.006043	1.096752	0.079044
O6	O	0.493957	1.596752	0.579044
O7	O	0.254349	1.082359	0.079059
O8	O	0.754349	1.582359	0.579059
O9	O	-0.006044	1.096738	-0.079277
O10	O	0.493956	1.596738	0.420723
O11	O	0.131056	0.955299	-0.079255
O12	O	0.631056	1.455299	0.420745
O13	O	0.117248	1.223785	-0.079284
O14	O	0.617248	1.723785	0.420716
Zn15	Zn	0.124152	1.089540	-0.104407
Zn16	Zn	0.624152	1.589540	0.395593
Zn17	Zn	0.124153	1.089558	0.104189
Zn18	Zn	0.624153	1.589558	0.604189
O19	O	0.254348	1.082346	-0.079262
O20	O	0.754348	1.582346	0.420738
C21	C	-0.039369	1.096101	-0.000116
C22	C	0.460631	1.596101	0.499884
C23	C	-0.138667	1.094172	-0.000115
C24	C	0.361333	1.594172	0.499885
C25	C	0.130413	0.920947	-0.000091
C26	C	0.630413	1.420947	0.499909
C27	C	0.128485	0.818567	-0.000080
C28	C	0.628485	1.318567	0.499920
C29	C	-0.195845	1.177264	-0.000125
C30	C	0.304155	1.677264	0.499875
C31	C	-0.289146	1.175446	-0.000115
C32	C	0.210854	1.675446	0.499885
C33	C	-0.325266	1.090536	-0.000102
C34	C	0.174734	1.590536	0.499898
C35	C	-0.268080	1.007438	-0.000090
C36	C	0.231920	1.507438	0.499910
C37	C	-0.174781	1.009257	-0.000093
C38	C	0.325219	1.509257	0.499907
C39	C	-0.462545	1.003653	-0.000086
C40	C	0.037455	1.503653	0.499914
C41	C	-0.555850	1.001834	-0.000085
C42	C	-0.055850	1.501834	0.499915
C43	C	-0.576909	1.169842	-0.000108
C44	C	-0.076909	1.669842	0.499892
C45	C	-0.483610	1.171661	-0.000111
C46	C	0.016390	1.671661	0.499889
C47	C	-0.426431	1.088563	-0.000100
C48	C	0.073569	1.588563	0.499900
C49	C	0.121386	0.443675	-0.000123
C50	C	0.621386	0.943675	0.499877
C51	C	0.123357	0.547982	-0.000111
C52	C	0.623357	1.047982	0.499889
C53	C	0.124935	0.631118	-0.000101
C54	C	0.624935	1.131118	0.499899
C55	C	0.126907	0.735431	-0.000090
C56	C	0.626907	1.235431	0.499910
C57	C	0.287674	1.082996	-0.000100
C58	C	0.787674	1.582996	0.499900
C59	C	0.386972	1.084925	-0.000094
C60	C	0.886972	1.584925	0.499906
C61	C	0.117892	1.258151	-0.000125
C62	C	0.617892	1.758151	0.499875
C63	C	0.119820	1.360531	-0.000130
C64	C	0.619820	1.860531	0.499870
N65	N	0.124150	1.089534	-0.246767
N66	N	0.624150	1.589534	0.253233
C67	C	0.178523	1.145523	-0.296584
C68	C	0.678523	1.645523	0.203416
C69	C	0.178519	1.145535	-0.396242
C70	C	0.678519	1.645535	0.103758
C71	C	0.124147	1.089553	-0.446081
C72	C	0.624147	1.589553	0.053919
C73	C	0.069768	1.033562	-0.396257
C74	C	0.569768	1.533562	0.103743
C75	C	0.069767	1.033556	-0.296601
C76	C	0.569767	1.533556	0.203399
C77	C	0.069774	1.033577	-0.603971
C78	C	0.569774	1.533577	-0.103971
C79	C	0.069775	1.033582	-0.703634
C80	C	0.569775	1.533582	-0.203634
C81	C	0.178525	1.145556	-0.703612
C82	C	0.678525	1.645556	-0.203612
C83	C	0.178525	1.145550	-0.603956
C84	C	0.678525	1.645550	-0.103956
C85	C	0.124147	1.089558	-0.554139
C86	C	0.624147	1.589558	-0.054139
N87	N	0.124148	1.089570	0.246549
N88	N	0.624148	1.589570	0.746549
H89	H	-0.166444	1.246407	-0.000141
H90	H	0.333556	1.746407	0.499859
H91	H	-0.335698	1.243107	-0.000125
H92	H	0.164302	1.743107	0.499875
H93	H	-0.454205	1.240802	-0.000128
H94	H	0.045795	1.740802	0.499872
Cl95	Cl	-0.648791	1.274308	-0.000117
Cl96	Cl	-0.148791	1.774308	0.499883
Cl97	Cl	0.246882	1.215904	-0.233939
Cl98	Cl	0.746882	1.715904	0.266061
H99	H	0.025492	0.987964	-0.256041
H100	H	0.525492	1.487964	0.243959
H101	H	-0.128227	0.941595	-0.000085
H102	H	0.371773	1.441595	0.499915
Cl103	Cl	-0.313488	0.900693	-0.000062
Cl104	Cl	0.186512	1.400693	0.499938
H105	H	0.025492	0.987985	-0.436843
H106	H	0.525492	1.487985	0.063157
Cl107	Cl	0.001415	0.963209	-0.766287
Cl108	Cl	0.501415	1.463209	-0.266287
Cl109	Cl	0.246901	1.215907	-0.541303
Cl110	Cl	0.746901	1.715907	-0.041303
Cl111	Cl	0.246878	1.215922	-0.458865
Cl112	Cl	0.746878	1.715922	0.041135
Cl113	Cl	0.001398	0.963200	-0.541345
Cl114	Cl	0.501398	1.463200	-0.041345
Cl115	Cl	-0.601257	0.895088	-0.000070
Cl116	Cl	-0.101257	1.395088	0.499930
Cl117	Cl	-0.390663	0.899185	-0.000072
Cl118	Cl	0.109337	1.399185	0.499928
H119	H	0.222805	1.191144	-0.744178
H120	H	0.722805	1.691144	-0.244178
