data_functionalizedCrystal
_audit_creation_method	'MofGen! by Chris Wilmer'
_symmetry_space_group_name_H-M	'P1'
_symmetry_Int_Tables_number	1
_symmetry_cell_setting	triclinic
loop_
_symmetry_equiv_pos_as_xyz
  x,y,z
_cell_length_a	17.699083
_cell_length_b	10.723024
_cell_length_c	16.176319
_cell_angle_alpha	89.994397
_cell_angle_beta	89.998611
_cell_angle_gamma	83.875442
loop_
_atom_site_label
_atom_site_type_symbol
_atom_site_fract_x
_atom_site_fract_y
_atom_site_fract_z
O1	O	1.005074	0.157797	-0.068628
O2	O	0.784825	0.178327	-0.068655
O3	O	0.900030	-0.013601	-0.068638
O4	O	0.889869	0.349725	-0.068646
O5	O	0.900014	-0.013613	0.068855
O6	O	0.784809	0.178315	0.068838
O7	O	1.005058	0.157785	0.068865
Cu8	Cu	0.894932	0.168049	0.081406
Cu9	Cu	0.894951	0.168063	-0.081196
O10	O	0.889853	0.349713	0.068848
C11	C	0.756616	0.177585	0.000088
C12	C	0.672584	0.175378	0.000078
C13	C	0.624673	0.288036	0.000076
C14	C	0.545717	0.285955	0.000086
C15	C	0.514672	0.171215	0.000093
C16	C	0.562589	0.058549	0.000098
C17	C	0.641544	0.060631	0.000093
C18	C	0.244173	0.050148	0.000118
C19	C	0.165212	0.048075	0.000121
C20	C	0.148346	0.275473	0.000112
C21	C	0.227301	0.277555	0.000107
C22	C	0.275210	0.164889	0.000116
C23	C	0.360824	0.167147	0.000106
C24	C	0.429060	0.168956	0.000097
C25	C	0.899283	-0.060094	0.000107
C26	C	0.897070	-0.198610	0.000104
C27	C	0.961533	-0.274698	0.000111
C28	C	0.959248	-0.417863	0.000108
C29	C	1.033268	0.158527	0.000120
C30	C	1.117300	0.160734	0.000125
C31	C	0.890601	0.396206	0.000100
C32	C	0.892813	0.534723	0.000098
N33	N	0.894924	0.168038	0.195771
N34	N	0.894965	0.168064	-0.195561
C35	C	0.945953	0.083087	0.239042
C36	C	0.945957	0.083085	0.325590
C37	C	0.894935	0.168042	0.368863
C38	C	0.843901	0.252997	0.325586
C39	C	0.843894	0.252992	0.239040
C40	C	0.843927	0.253021	0.674614
C41	C	0.843940	0.253022	0.761165
C42	C	0.945989	0.083115	0.761163
C43	C	0.945983	0.083109	0.674618
C44	C	0.894946	0.168059	0.631348
C45	C	0.894942	0.168058	0.537503
C46	C	0.894943	0.168050	0.462706
H47	H	0.252572	0.370988	0.000098
H48	H	0.802389	0.322207	0.796397
H49	H	1.018413	-0.233851	0.000123
H50	H	0.802373	0.322192	0.639390
H51	H	0.987531	0.013933	0.639387
N52	N	1.032352	-0.504451	0.000124
H53	H	1.020358	-0.594448	0.000123
H54	H	1.062815	-0.488349	-0.050841
H55	H	0.802355	0.322167	0.360824
H56	H	0.837625	-0.399906	0.000098
N57	N	0.658158	0.411790	0.000072
H58	H	0.690537	0.417728	-0.050900
H59	H	0.615783	0.482771	0.000106
N60	N	0.821718	-0.252690	0.000093
H61	H	0.817831	-0.306022	-0.050877
H62	H	0.817866	-0.305978	0.051094
H63	H	0.987503	0.013910	0.203815
H64	H	0.802341	0.322166	0.203809
H65	H	0.987507	0.013911	0.360821
N66	N	0.529107	-0.065207	0.000097
H67	H	0.571441	-0.136260	0.000099
H68	H	0.496714	-0.071031	0.051068
N69	N	1.001036	-0.008514	0.807836
H70	H	0.971839	-0.063712	0.843752
H71	H	1.033345	-0.062242	0.767236
N72	N	0.494041	0.407464	0.000178
H73	H	0.525688	0.480466	0.000198
H74	H	0.460870	0.411650	-0.050759
H75	H	0.680552	-0.031107	0.000094
N76	N	0.295830	-0.071374	0.000116
H77	H	0.328964	-0.075580	-0.050854
H78	H	0.328917	-0.075527	0.051117
N79	N	0.096682	0.397007	0.000115
H80	H	0.063542	0.401227	-0.050849
H81	H	0.063601	0.401147	0.051122
H82	H	0.139939	-0.045366	0.000127
