data_functionalizedCrystal
_audit_creation_method	'MofGen! by Chris Wilmer'
_symmetry_space_group_name_H-M	'P1'
_symmetry_Int_Tables_number	1
_symmetry_cell_setting	triclinic
loop_
_symmetry_equiv_pos_as_xyz
  x,y,z
_cell_length_a	27.732048
_cell_length_b	19.188930
_cell_length_c	17.666332
_cell_angle_alpha	90.011603
_cell_angle_beta	90.003861
_cell_angle_gamma	82.893719
loop_
_atom_site_label
_atom_site_type_symbol
_atom_site_fract_x
_atom_site_fract_y
_atom_site_fract_z
O1	O	-0.641184	-0.083079	-0.062859
O2	O	-0.141184	0.416921	0.437141
O3	O	-0.500430	-0.095711	-0.062883
O4	O	-0.000430	0.404289	0.437117
O5	O	-0.574869	0.012286	-0.062856
O6	O	-0.074869	0.512286	0.437144
O7	O	-0.566745	-0.191077	-0.062887
O8	O	-0.066745	0.308923	0.437113
O9	O	-0.574856	0.012292	0.063041
O10	O	-0.074856	0.512292	0.563041
O11	O	-0.500417	-0.095706	0.063014
O12	O	-0.000417	0.404294	0.563014
O13	O	-0.641171	-0.083074	0.063038
O14	O	-0.141171	0.416926	0.563038
Cu15	Cu	-0.570793	-0.089389	0.074521
Cu16	Cu	-0.070793	0.410611	0.574521
Cu17	Cu	-0.570808	-0.089396	-0.074367
Cu18	Cu	-0.070808	0.410604	0.425633
O19	O	-0.566732	-0.191071	0.063010
O20	O	-0.066732	0.308929	0.563010
C21	C	-0.482415	-0.095443	0.000062
C22	C	0.017585	0.404557	0.500062
C23	C	-0.428758	-0.094645	0.000054
C24	C	0.071242	0.405355	0.500054
C25	C	-0.659186	-0.083341	0.000090
C26	C	-0.159186	0.416659	0.500090
C27	C	-0.712843	-0.084140	0.000094
C28	C	-0.212843	0.415860	0.500094
C29	C	-0.574599	0.038299	0.000095
C30	C	-0.074599	0.538299	0.500095
C31	C	-0.573810	0.115798	0.000101
C32	C	-0.073810	0.615798	0.500101
C33	C	-0.090123	-0.153438	0.000078
C34	C	0.409877	0.346562	0.500078
C35	C	0.111546	-0.150475	0.000085
C36	C	0.611546	0.349525	0.500085
O37	O	0.142637	-0.204237	0.000109
O38	O	0.642637	0.295763	0.500109
N39	N	0.130866	-0.086437	0.000093
N40	N	0.630866	0.413563	0.500093
C41	C	0.099764	-0.023135	0.000105
C42	C	0.599764	0.476865	0.500105
O43	O	0.120824	0.031401	0.000120
O44	O	0.620824	0.531401	0.500120
C45	C	-0.101903	-0.026098	0.000103
C46	C	0.398097	0.473902	0.500103
C47	C	-0.121220	-0.090140	0.000087
C48	C	0.378780	0.409860	0.500087
C49	C	-0.109440	-0.217475	0.000062
C50	C	0.390560	0.282525	0.500062
C51	C	-0.159854	-0.218215	0.000056
C52	C	0.340146	0.281785	0.500056
C53	C	-0.190951	-0.154917	0.000066
C54	C	0.309049	0.345083	0.500066
C55	C	-0.171634	-0.090880	0.000081
C56	C	0.328366	0.409120	0.500081
C57	C	-0.133003	0.037203	0.000120
C58	C	0.366997	0.537203	0.500120
C59	C	-0.183423	0.036457	0.000121
C60	C	0.316577	0.536457	0.500121
C61	C	-0.202740	-0.027586	0.000105
C62	C	0.297260	0.472414	0.500105
C63	C	-0.253145	-0.028323	0.000084
C64	C	0.246855	0.471677	0.500084
N65	N	-0.272465	-0.092361	0.000076
N66	N	0.227535	0.407639	0.500076
C67	C	-0.241368	-0.155658	0.000067
C68	C	0.258632	0.344342	0.500067
C69	C	0.205643	-0.021584	0.000104
C70	C	0.705643	0.478416	0.500104
C71	C	0.256060	-0.020843	0.000103
C72	C	0.756060	0.479157	0.500103
C73	C	0.267838	-0.148183	0.000085
C74	C	0.767838	0.351817	0.500085
C75	C	0.217420	-0.148923	0.000080
C76	C	0.717420	0.351077	0.500080
C77	C	0.186324	-0.085622	0.000096
C78	C	0.686324	0.414378	0.500096
C79	C	-0.347242	-0.157208	0.000054
C80	C	0.152758	0.342792	0.500054
C81	C	-0.397661	-0.157942	0.000044
C82	C	0.102339	0.342058	0.500044
C83	C	-0.409435	-0.030602	0.000067
C84	C	0.090565	0.469398	0.500067
C85	C	-0.359020	-0.029867	0.000072
C86	C	0.140980	0.470133	0.500072
C87	C	-0.327924	-0.093176	0.000068
C88	C	0.172076	0.406824	0.500068
O89	O	-0.284265	0.025410	0.000068
O90	O	0.215735	0.525410	0.500068
O91	O	-0.262437	-0.210187	0.000068
O92	O	0.237563	0.289813	0.500068
C93	C	-0.039708	-0.152698	0.000084
C94	C	0.460292	0.347302	0.500084
C95	C	-0.020391	-0.088661	0.000099
C96	C	0.479609	0.411339	0.500099
C97	C	-0.051489	-0.025363	0.000108
C98	C	0.448511	0.474637	0.500108
C99	C	0.030025	-0.087920	0.000098
C100	C	0.530025	0.412080	0.500098
C101	C	0.061122	-0.151217	0.000089
C102	C	0.561122	0.348783	0.500089
C103	C	0.041803	-0.215255	0.000080
C104	C	0.541803	0.284745	0.500080
C105	C	-0.008611	-0.215995	0.000074
C106	C	0.491389	0.284005	0.500074
C107	C	-0.032169	0.038675	0.000116
C108	C	0.467831	0.538675	0.500116
C109	C	0.018246	0.039409	0.000122
C110	C	0.518246	0.539409	0.500122
C111	C	0.049343	-0.023888	0.000112
C112	C	0.549343	0.476112	0.500112
C113	C	-0.567002	-0.217083	0.000058
C114	C	-0.067002	0.282917	0.500058
C115	C	-0.567791	-0.294583	0.000047
C116	C	-0.067791	0.205417	0.500047
N117	N	-0.570786	-0.089384	0.179240
N118	N	-0.070786	0.410616	0.679240
C119	C	-0.617488	0.161001	0.000112
C120	C	-0.117488	0.661001	0.500112
C121	C	-0.616746	0.233820	0.000100
C122	C	-0.116746	0.733820	0.500100
C123	C	-0.572323	0.261433	0.000092
C124	C	-0.072323	0.761433	0.500092
C125	C	-0.528639	0.216220	0.000077
C126	C	-0.028639	0.716220	0.500077
C127	C	-0.529382	0.143403	0.000081
C128	C	-0.029382	0.643403	0.500081
N129	N	-0.538363	0.369223	0.042931
N130	N	-0.038363	0.869223	0.542931
N131	N	-0.537660	0.438397	0.042928
N132	N	-0.037660	0.938397	0.542928
C133	C	-0.570081	0.480827	0.000076
C134	C	-0.070081	0.980827	0.500076
N135	N	-0.603240	0.451471	-0.042764
N136	N	-0.103240	0.951471	0.457236
N137	N	-0.603944	0.382291	-0.042757
N138	N	-0.103944	0.882291	0.457243
C139	C	-0.571512	0.340390	0.000086
C140	C	-0.071512	0.840390	0.500086
C141	C	-0.612959	0.604989	0.000073
C142	C	-0.112959	1.104989	0.500073
C143	C	-0.612215	0.677809	0.000056
C144	C	-0.112215	1.177809	0.500056
C145	C	-0.524106	0.660208	0.000040
C146	C	-0.024106	1.160208	0.500040
C147	C	-0.524851	0.587390	0.000049
C148	C	-0.024851	1.087390	0.500049
C149	C	-0.569279	0.559785	0.000069
C150	C	-0.069279	1.059785	0.500069
N151	N	-0.570819	-0.089395	-0.179086
N152	N	-0.070819	0.410605	0.320914
C153	C	-0.603758	-0.041586	0.218862
C154	C	-0.103758	0.458414	0.718862
C155	C	-0.603761	-0.041582	0.298110
C156	C	-0.103761	0.458418	0.798110
C157	C	-0.570796	-0.089389	0.337733
C158	C	-0.070796	0.410611	0.837733
C159	C	-0.537817	-0.137191	0.298101
C160	C	-0.037817	0.362809	0.798101
C161	C	-0.537812	-0.137188	0.218855
C162	C	-0.037812	0.362812	0.718855
N163	N	-0.564512	-0.151237	0.462141
N164	N	-0.064512	0.348763	0.962141
N165	N	-0.564520	-0.151237	0.537422
N166	N	-0.064520	0.348763	1.037422
C167	C	-0.570808	-0.089399	0.576497
C168	C	-0.070808	0.410601	1.076497
N169	N	-0.577098	-0.027558	0.537447
N170	N	-0.077098	0.472442	1.037447
N171	N	-0.577093	-0.027559	0.462160
N172	N	-0.077093	0.472441	0.962160
C173	C	-0.570797	-0.089397	0.423662
C174	C	-0.070797	0.410603	0.923662
C175	C	-0.603786	-0.041593	0.702048
C176	C	-0.103786	0.458407	1.202048
C177	C	-0.603785	-0.041589	0.781297
C178	C	-0.103785	0.458411	1.281297
C179	C	-0.537844	-0.137203	0.781286
C180	C	-0.037844	0.362797	1.281286
C181	C	-0.537842	-0.137202	0.702039
C182	C	-0.037842	0.362798	1.202039
C183	C	-0.570816	-0.089397	0.662424
C184	C	-0.070816	0.410603	1.162424
H185	H	-0.413385	-0.210095	0.000031
H186	H	0.086615	0.289905	0.500031
F187	F	-0.638878	0.009291	0.823467
F188	F	-0.138878	0.509291	1.323467
H189	H	-0.493813	0.106598	0.000072
H190	H	0.006187	0.606598	0.500072
F191	F	-0.442539	0.036760	0.000078
F192	F	0.057461	0.536760	0.500078
H193	H	0.293166	-0.199722	0.000077
H194	H	0.793166	0.300278	0.500077
F195	F	-0.502732	-0.188068	0.340271
F196	F	-0.002732	0.311932	0.840271
F197	F	-0.314154	-0.224588	0.000050
F198	F	0.185846	0.275412	0.500050
F199	F	-0.029163	-0.284158	0.000057
F200	F	0.470837	0.215842	0.500057
F201	F	0.074908	-0.282620	0.000066
F202	F	0.574908	0.217380	0.500066
F203	F	-0.076350	-0.284850	0.000052
F204	F	0.423650	0.215150	0.500052
H205	H	-0.653664	0.138530	0.000126
H206	H	-0.153664	0.638530	0.500126
F207	F	0.038797	0.107577	0.000129
F208	F	0.538797	0.607577	0.500129
H209	H	-0.652316	0.270631	0.000106
H210	H	-0.152316	0.770631	0.500106
F211	F	-0.216516	0.103833	0.000140
F212	F	0.283484	0.603833	0.500140
F213	F	0.276612	0.047320	0.000103
F214	F	0.776612	0.547320	0.500103
H215	H	-0.630606	-0.002659	0.186610
H216	H	-0.130606	0.497341	0.686610
F217	F	-0.476828	0.689591	0.000028
F218	F	0.023172	1.189591	0.500028
F219	F	-0.481361	0.245609	0.000063
F220	F	0.018639	0.745609	0.500063
H221	H	-0.489283	0.550585	0.000045
H222	H	0.010717	1.050585	0.500045
H223	H	-0.175576	-0.270364	0.000043
H224	H	0.324424	0.229636	0.500043
F225	F	-0.638856	0.009294	0.340285
F226	F	-0.138856	0.509294	0.840285
F227	F	-0.660241	0.575607	0.000098
F228	F	-0.160241	1.075607	0.500098
F229	F	-0.065259	0.106048	0.000128
F230	F	0.434741	0.606048	0.500128
F231	F	-0.658706	0.725918	0.000063
F232	F	-0.158706	1.225918	0.500063
H233	H	0.201697	-0.201072	0.000071
H234	H	0.701697	0.298928	0.500071
H235	H	0.180328	0.029967	0.000117
H236	H	0.680328	0.529967	0.500117
H237	H	-0.510961	-0.176112	0.186594
H238	H	-0.010961	0.323888	0.686594
H239	H	-0.511001	-0.176126	0.813547
H240	H	-0.011001	0.323874	1.313547
F241	F	-0.112457	0.105367	0.000126
F242	F	0.387543	0.605367	0.500126
F243	F	-0.338461	0.038293	0.000090
F244	F	0.161539	0.538293	0.500090
F245	F	-0.638877	0.009287	0.659886
F246	F	-0.138877	0.509287	1.159886
F247	F	-0.502751	-0.188078	0.659867
F248	F	-0.002751	0.311922	1.159867
