data_functionalizedCrystal
_audit_creation_method	'MofGen! by Chris Wilmer'
_symmetry_space_group_name_H-M	'P1'
_symmetry_Int_Tables_number	1
_symmetry_cell_setting	triclinic
loop_
_symmetry_equiv_pos_as_xyz
  x,y,z
_cell_length_a	10.654550
_cell_length_b	10.540510
_cell_length_c	9.130313
_cell_angle_alpha	89.997956
_cell_angle_beta	89.999724
_cell_angle_gamma	84.499121
loop_
_atom_site_label
_atom_site_type_symbol
_atom_site_fract_x
_atom_site_fract_y
_atom_site_fract_z
O1	O	1.667883	0.178303	-0.121681
O2	O	1.302409	0.195291	-0.121707
O3	O	1.493504	0.002085	-0.121693
O4	O	1.476789	0.371509	-0.121695
O5	O	1.493491	0.002079	0.121906
O6	O	1.302396	0.195285	0.121892
O7	O	1.667870	0.178297	0.121918
Cu8	Cu	1.485132	0.186791	0.144147
Cu9	Cu	1.485147	0.186797	-0.143937
O10	O	1.476775	0.371503	0.121903
C11	C	1.255604	0.194040	0.000089
C12	C	1.116160	0.190309	0.000078
C13	C	1.492252	-0.045221	0.000103
C14	C	1.488525	-0.186170	0.000094
C15	C	1.036702	0.304065	0.000082
C16	C	0.905681	0.300551	0.000107
C17	C	0.933587	0.069514	0.000120
C18	C	1.064606	0.073029	0.000105
C19	C	1.621278	-0.403673	0.000661
C20	C	1.625253	-0.257079	0.000105
C21	C	1.418541	-0.230900	-0.139015
C22	C	1.415534	-0.377660	-0.139124
C23	C	1.412672	-0.377474	0.137893
C24	C	1.419157	-0.231135	0.139725
C25	C	1.714675	0.179547	0.000118
C26	C	1.854119	0.183279	0.000119
C27	C	1.478028	0.418809	0.000104
C28	C	1.481754	0.559758	0.000103
N29	N	1.485130	0.186785	0.346770
N30	N	1.485159	0.186793	-0.346559
C31	C	1.569776	0.101270	0.423428
C32	C	1.569788	0.101270	0.576765
C33	C	1.400504	0.272312	0.576772
C34	C	1.400487	0.272305	0.423438
H35	H	0.840991	0.393183	0.000113
H36	H	1.674540	-0.445650	0.100424
H37	H	1.674244	-0.447195	-0.098529
H38	H	1.078673	0.399561	0.000071
C39	C	1.698682	-0.219461	-0.133205
C40	C	1.739638	-0.328789	-0.213563
C41	C	1.807270	-0.294184	-0.336395
H42	H	1.769601	-0.178207	-0.102369
H43	H	1.645843	-0.163090	-0.192871
H44	H	1.792475	-0.385138	-0.153908
H45	H	1.668746	-0.370056	-0.244435
H46	H	1.754431	-0.237814	-0.396062
H47	H	1.878183	-0.252930	-0.305545
H48	H	1.835058	-0.368355	-0.390940
H49	H	1.310015	-0.399587	0.138823
C50	C	1.150675	-0.050625	0.000025
C51	C	1.077487	-0.154085	0.000000
C52	C	1.156730	-0.268008	-0.000087
H53	H	1.202398	-0.054233	0.084946
H54	H	1.202342	-0.054123	-0.084962
H55	H	1.025843	-0.150589	0.084979
H56	H	1.025767	-0.150520	-0.084914
H57	H	1.208396	-0.271506	-0.085074
H58	H	1.208449	-0.271603	0.084835
H59	H	1.107084	-0.338219	-0.000118
H60	H	1.331592	0.341942	0.639210
H61	H	0.891595	-0.025971	0.000150
C62	C	1.698297	-0.218223	0.133157
C63	C	1.739242	-0.326831	0.214775
C64	C	1.806525	-0.291093	0.337363
H65	H	1.645273	-0.161455	0.192125
H66	H	1.769207	-0.177093	0.101974
H67	H	1.668342	-0.367941	0.245959
H68	H	1.792282	-0.383612	0.155849
H69	H	1.877436	-0.249962	0.306180
H70	H	1.753494	-0.234323	0.396320
H71	H	1.834325	-0.364778	0.392749
C72	C	1.308527	0.365299	0.340462
C73	C	1.234433	0.440225	0.440419
C74	C	1.149719	0.525907	0.364036
H75	H	1.255725	0.319279	0.280656
H76	H	1.354131	0.418635	0.280662
H77	H	1.188832	0.386895	0.500194
H78	H	1.287200	0.486271	0.500228
H79	H	1.195323	0.579244	0.304236
H80	H	1.096926	0.479877	0.304232
H81	H	1.099444	0.576762	0.431845
H82	H	1.638695	0.031633	0.361008
H83	H	1.317884	-0.183475	-0.144195
H84	H	1.463372	-0.417890	-0.243103
H85	H	1.313270	-0.400618	-0.145434
C86	C	1.483154	-0.189598	-0.277101
C87	C	1.397641	-0.109781	-0.359751
C88	C	1.457129	-0.071698	-0.486951
H89	H	1.511485	-0.262591	-0.333347
H90	H	1.553178	-0.144889	-0.251071
H91	H	1.327640	-0.154489	-0.385784
H92	H	1.369305	-0.036770	-0.303549
H93	H	1.527153	-0.026989	-0.460920
H94	H	1.485458	-0.144698	-0.543183
H95	H	1.399122	-0.017530	-0.543037
H96	H	1.456117	-0.419674	0.243338
C97	C	1.487150	-0.193271	0.276993
C98	C	1.527875	-0.302764	0.357191
C99	C	1.590536	-0.267929	0.483635
H100	H	1.431302	-0.138678	0.335229
H101	H	1.557900	-0.149977	0.250123
H102	H	1.457135	-0.346039	0.384064
H103	H	1.583739	-0.357371	0.299000
H104	H	1.661286	-0.224635	0.456765
H105	H	1.534680	-0.213334	0.541858
H106	H	1.618186	-0.342215	0.538058
H107	H	1.319334	-0.182033	0.148118
H108	H	1.638712	0.031635	0.639176
