data_functionalizedCrystal
_audit_creation_method	'MofGen! by Chris Wilmer'
_symmetry_space_group_name_H-M	'P1'
_symmetry_Int_Tables_number	1
_symmetry_cell_setting	triclinic
loop_
_symmetry_equiv_pos_as_xyz
  x,y,z
_cell_length_a	18.215407
_cell_length_b	16.959454
_cell_length_c	18.215399
_cell_angle_alpha	89.976304
_cell_angle_beta	89.980167
_cell_angle_gamma	90.020523
loop_
_atom_site_label
_atom_site_type_symbol
_atom_site_fract_x
_atom_site_fract_y
_atom_site_fract_z
Zn1	Zn	1.125097	-0.314680	-0.416138
Zn2	Zn	1.625097	0.185320	0.083862
Zn3	Zn	1.125015	-0.446866	-0.293080
Zn4	Zn	1.625015	0.053134	0.206920
Zn5	Zn	1.002029	-0.314706	-0.293085
Zn6	Zn	1.502029	0.185294	0.206915
Zn7	Zn	1.002005	-0.446822	-0.416105
Zn8	Zn	1.502005	0.053178	0.083895
O9	O	1.063537	-0.380768	-0.354602
O10	O	1.563537	0.119232	0.145398
O11	O	1.228070	-0.332222	-0.399825
O12	O	1.728070	0.167778	0.100175
O13	O	1.108677	-0.429364	-0.190097
O14	O	1.608677	0.070636	0.309903
O15	O	1.018398	-0.204092	-0.309424
O16	O	1.518398	0.295908	0.190576
O17	O	1.228010	-0.429339	-0.309416
O18	O	1.728010	0.070661	0.190584
O19	O	1.108815	-0.204073	-0.399830
O20	O	1.608815	0.295927	0.100170
O21	O	1.018319	-0.332267	-0.190100
O22	O	1.518319	0.167733	0.309900
O23	O	0.899042	-0.332224	-0.309392
O24	O	1.399042	0.167776	0.190608
O25	O	1.018358	-0.429264	-0.519094
O26	O	1.518358	0.070736	-0.019094
O27	O	0.899024	-0.429289	-0.399775
O28	O	1.399024	0.070711	0.100225
O29	O	1.108792	-0.332180	-0.519118
O30	O	1.608792	0.167820	-0.019118
O31	O	1.108654	-0.557471	-0.309385
O32	O	1.608654	-0.057471	0.190615
O33	O	1.018279	-0.557438	-0.399770
O34	O	1.518279	-0.057438	0.100230
C35	C	0.872330	-0.380755	-0.354581
C36	C	1.372330	0.119245	0.145419
C37	C	0.790531	-0.380768	-0.354589
C38	C	1.290531	0.119232	0.145411
C39	C	1.063475	-0.586135	-0.354590
C40	C	1.563475	-0.086135	0.145410
C41	C	1.063516	-0.673991	-0.354609
C42	C	1.563516	-0.173991	0.145391
C43	C	0.602348	-0.431389	-0.401593
C44	C	1.102348	0.068611	0.098407
C45	C	0.525489	-0.431392	-0.401602
C46	C	1.025489	0.068608	0.098398
C47	C	0.525478	-0.330162	-0.307628
C48	C	1.025478	0.169838	0.192372
C49	C	0.602335	-0.330156	-0.307623
C50	C	1.102335	0.169844	0.192377
C51	C	0.640768	-0.380774	-0.354604
C52	C	1.140768	0.119226	0.145396
C53	C	0.487052	-0.380782	-0.354618
C54	C	0.987052	0.119218	0.145382
C55	C	0.403718	-0.380785	-0.354628
C56	C	0.903718	0.119215	0.145372
C57	C	0.724107	-0.380771	-0.354596
C58	C	1.224107	0.119229	0.145404
C59	C	1.016547	-1.045480	-0.401661
C60	C	1.516547	-0.545480	0.098339
C61	C	1.110731	-1.045454	-0.307618
C62	C	1.610731	-0.545454	0.192382
C63	C	1.110706	-0.962908	-0.307611
C64	C	1.610706	-0.462908	0.192389
C65	C	1.063599	-0.921644	-0.354629
C66	C	1.563599	-0.421644	0.145371
C67	C	1.016518	-0.962926	-0.401654
C68	C	1.516518	-0.462926	0.098346
C69	C	1.157781	-0.921619	-0.260582
C70	C	1.657781	-0.421619	0.239418
C71	C	1.157756	-0.839068	-0.260573
C72	C	1.657756	-0.339068	0.239427
C73	C	1.110653	-0.797803	-0.307595
C74	C	1.610653	-0.297803	0.192405
C75	C	1.063570	-0.839091	-0.354622
C76	C	1.563570	-0.339091	0.145378
C77	C	1.016464	-0.797827	-0.401640
C78	C	1.516464	-0.297827	0.098360
C79	C	0.969384	-0.839113	-0.448672
C80	C	1.469384	-0.339113	0.051328
C81	C	0.969414	-0.921661	-0.448676
C82	C	1.469414	-0.421661	0.051324
C83	C	1.110623	-0.715255	-0.307591
C84	C	1.610623	-0.215255	0.192409
C85	C	1.016435	-0.715273	-0.401634
C86	C	1.516435	-0.215273	0.098366
C87	C	1.255489	-0.380783	-0.354624
C88	C	1.755489	0.119217	0.145376
C89	C	1.337288	-0.380789	-0.354633
C90	C	1.837288	0.119211	0.145367
C91	C	1.063581	-0.380714	-0.546555
C92	C	1.563581	0.119286	-0.046555
C93	C	1.063601	-0.380691	-0.628354
C94	C	1.563601	0.119309	-0.128354
C95	C	1.063619	-0.174600	-0.354631
C96	C	1.563619	0.325400	0.145369
C97	C	1.063653	-0.086744	-0.354643
C98	C	1.563653	0.413256	0.145357
C99	C	1.110707	-0.330092	-0.816562
C100	C	1.610707	0.169908	-0.316562
C101	C	1.110716	-0.330069	-0.893420
C102	C	1.610716	0.169931	-0.393420
C103	C	1.016546	-0.431167	-0.893384
C104	C	1.516546	0.068833	-0.393384
C105	C	1.016534	-0.431186	-0.816527
C106	C	1.516534	0.068814	-0.316527
C107	C	1.063619	-0.380649	-0.778118
C108	C	1.563619	0.119351	-0.278118
C109	C	1.063639	-0.380608	-0.931834
C110	C	1.563639	0.119392	-0.431834
C111	C	1.063649	-0.380583	-1.015168
C112	C	1.563649	0.119417	-0.515168
C113	C	1.063609	-0.380672	-0.694779
C114	C	1.563609	0.119328	-0.194779
C115	C	1.063534	-0.380766	-0.163396
C116	C	1.563534	0.119234	0.336604
C117	C	1.063658	-0.380566	-0.081597
C118	C	1.563658	0.119434	0.418403
H119	H	0.633638	-0.472604	-0.439850
H120	H	1.133638	0.027396	0.060150
C121	C	0.965369	-0.670333	-0.452656
C122	C	1.465369	-0.170333	0.047344
C123	C	0.975428	-0.589203	-0.442597
C124	C	1.475428	-0.089203	0.057403
C125	C	0.928406	-0.547781	-0.489593
C126	C	1.428406	-0.047781	0.010407
H127	H	0.915903	-0.683814	-0.441890
H128	H	1.415903	-0.183814	0.058110
H129	H	0.976125	-0.683779	-0.502130
H130	H	1.476125	-0.183779	-0.002130
H131	H	0.964666	-0.575763	-0.393135
H132	H	1.464666	-0.075763	0.106865
H133	H	1.024884	-0.575699	-0.453368
H134	H	1.524884	-0.075699	0.046632
H135	H	0.939163	-0.561226	-0.539067
H136	H	1.439163	-0.061226	-0.039067
H137	H	0.878944	-0.561268	-0.478823
H138	H	1.378944	-0.061268	0.021177
H139	H	0.935230	-0.492730	-0.482780
H140	H	1.435230	0.007270	0.017220
H141	H	0.931084	-0.955284	-0.486966
H142	H	1.431084	-0.455284	0.013034
C143	C	0.483881	-0.275127	-0.256588
C144	C	0.983881	0.224873	0.243412
C145	C	0.533981	-0.230784	-0.215450
C146	C	1.033981	0.269216	0.284550
C147	C	0.495691	-0.180072	-0.168428
C148	C	0.995691	0.319928	0.331572
H149	H	0.453876	-0.305237	-0.224412
H150	H	0.953876	0.194763	0.275588
H151	H	0.453934	-0.240685	-0.284777
H152	H	0.953934	0.259315	0.215223
H153	H	0.563915	-0.265223	-0.187263
H154	H	1.063915	0.234777	0.312737
H155	H	0.563987	-0.200659	-0.247606
H156	H	1.063987	0.299341	0.252394
H157	H	0.465745	-0.145629	-0.196618
H158	H	0.965745	0.354371	0.303382
H159	H	0.465688	-0.210188	-0.136258
H160	H	0.965688	0.289812	0.363742
H161	H	0.529678	-0.149974	-0.140516
H162	H	1.029678	0.350026	0.359484
H163	H	1.149058	-0.288899	-0.924718
H164	H	1.649058	0.211101	-0.424718
H165	H	0.633617	-0.288934	-0.269359
H166	H	1.133617	0.211066	0.230641
H167	H	0.978214	-0.472314	-0.924667
H168	H	1.478214	0.027686	-0.424667
H169	H	0.494211	-0.472606	-0.439866
H170	H	0.994211	0.027394	0.060134
H171	H	1.148950	-0.681644	-0.269295
H172	H	1.648950	-0.181644	0.230705
H173	H	0.978184	-0.472355	-0.785225
H174	H	1.478184	0.027645	-0.285225
H175	H	0.931026	-0.805506	-0.486951
H176	H	1.431026	-0.305506	0.013049
H177	H	0.978218	-1.079098	-0.439955
H178	H	1.478218	-0.579098	0.060045
H179	H	1.149079	-1.079055	-0.269334
H180	H	1.649079	-0.579055	0.230666
C181	C	1.208818	-0.966561	-0.209541
C182	C	1.708818	-0.466561	0.290459
C183	C	1.198747	-1.047690	-0.219597
C184	C	1.698747	-0.547690	0.280403
C185	C	1.245725	-1.089119	-0.172562
C186	C	1.745725	-0.589119	0.327438
H187	H	1.198044	-0.953125	-0.160078
H188	H	1.698044	-0.453125	0.339922
H189	H	1.258296	-0.953076	-0.220288
H190	H	1.758296	-0.453076	0.279712
H191	H	1.149280	-1.061169	-0.208845
H192	H	1.649280	-0.561169	0.291155
H193	H	1.209526	-1.061150	-0.269050
H194	H	1.709526	-0.561150	0.230950
H195	H	1.295204	-1.075634	-0.183310
H196	H	1.795204	-0.575634	0.316690
H197	H	1.234948	-1.075675	-0.123103
H198	H	1.734948	-0.575675	0.376897
H199	H	1.238904	-1.144168	-0.179384
H200	H	1.738904	-0.644168	0.320616
C201	C	1.161728	-0.275086	-0.774899
C202	C	1.661728	0.224914	-0.274899
C203	C	1.145717	-0.196875	-0.793594
C204	C	1.645717	0.303125	-0.293594
C205	C	1.192695	-0.146178	-0.755225
C206	C	1.692695	0.353822	-0.255225
H207	H	1.211200	-0.286544	-0.787472
H208	H	1.711200	0.213456	-0.287472
H209	H	1.154974	-0.282282	-0.723612
H210	H	1.654974	0.217718	-0.223612
H211	H	1.152477	-0.189683	-0.844870
H212	H	1.652477	0.310317	-0.344870
H213	H	1.096254	-0.185392	-0.781019
H214	H	1.596254	0.314608	-0.281019
H215	H	1.185941	-0.153374	-0.703938
H216	H	1.685941	0.346626	-0.203938
H217	H	1.242164	-0.157644	-0.767801
H218	H	1.742164	0.342356	-0.267801
H219	H	1.181833	-0.093106	-0.767899
H220	H	1.681833	0.406894	-0.267899
C221	C	1.208955	-0.794390	-0.209491
C222	C	1.708955	-0.294390	0.290509
C223	C	1.250227	-0.848197	-0.168330
C224	C	1.750227	-0.348197	0.331670
C225	C	1.297408	-0.807067	-0.121275
C226	C	1.797408	-0.307067	0.378725
H227	H	1.180897	-0.762220	-0.177331
H228	H	1.680897	-0.262220	0.322669
H229	H	1.241033	-0.762169	-0.237657
H230	H	1.741033	-0.262169	0.262343
H231	H	1.218153	-0.880404	-0.140166
H232	H	1.718153	-0.380404	0.359834
H233	H	1.278300	-0.880369	-0.200470
H234	H	1.778300	-0.380369	0.299530
H235	H	1.329486	-0.774846	-0.149442
H236	H	1.829486	-0.274846	0.350558
H237	H	1.269344	-0.774898	-0.089121
H238	H	1.769344	-0.274898	0.410879
H239	H	1.325421	-0.843568	-0.093347
H240	H	1.825421	-0.343568	0.406653
