data_functionalizedCrystal
_audit_creation_method	'MofGen! by Chris Wilmer'
_symmetry_space_group_name_H-M	'P1'
_symmetry_Int_Tables_number	1
_symmetry_cell_setting	triclinic
loop_
_symmetry_equiv_pos_as_xyz
  x,y,z
_cell_length_a	10.723024
_cell_length_b	15.995350
_cell_length_c	9.198806
_cell_angle_alpha	89.999047
_cell_angle_beta	89.996352
_cell_angle_gamma	83.980122
loop_
_atom_site_label
_atom_site_type_symbol
_atom_site_fract_x
_atom_site_fract_y
_atom_site_fract_z
O1	O	1.655690	0.117435	-0.120875
O2	O	1.292394	0.128675	-0.120879
O3	O	1.483973	0.001224	-0.120876
O4	O	1.464111	0.244886	-0.120879
O5	O	1.483957	0.001224	0.120909
O6	O	1.292379	0.128675	0.120906
O7	O	1.655674	0.117434	0.120910
Cu8	Cu	1.474025	0.123055	0.142985
Cu9	Cu	1.474043	0.123055	-0.142954
O10	O	1.464096	0.244885	0.120906
C11	C	1.245897	0.127857	0.000013
C12	C	1.107374	0.125410	0.000011
C13	C	1.031482	0.196725	0.000009
C14	C	0.888310	0.194197	0.000007
C15	C	1.483144	-0.029975	0.000014
C16	C	1.480682	-0.122940	0.000006
C17	C	1.471842	-0.460738	0.000011
C18	C	1.335403	-0.414088	-0.000533
C19	C	1.337865	-0.317383	0.000012
C20	C	1.476227	-0.293152	0.000007
C21	C	1.543515	-0.333843	0.138077
C22	C	1.540087	-0.430499	0.138192
C23	C	1.542923	-0.430840	-0.136763
C24	C	1.542891	-0.333895	-0.138587
C25	C	1.478712	-0.198441	0.000010
C26	C	1.469360	-0.555450	0.000017
C27	C	1.702171	0.118252	0.000015
C28	C	1.840694	0.120700	0.000007
C29	C	1.464924	0.276085	0.000013
C30	C	1.467386	0.369049	0.000012
N31	N	1.474022	0.123054	0.344099
N32	N	1.474056	0.123049	-0.344068
C33	C	1.554463	0.069305	0.416297
C34	C	1.554482	0.069302	0.583709
H35	H	1.066355	0.062483	-0.000026
Cl36	Cl	1.660823	-0.001743	0.679562
Cl37	Cl	1.660493	-0.001930	0.320389
Cl38	Cl	1.700456	-0.311135	0.146009
H39	H	0.905898	0.059646	-0.000001
Cl40	Cl	1.256200	-0.273967	-0.152794
Cl41	Cl	1.367703	0.194096	0.440008
Cl42	Cl	1.698233	-0.478986	-0.138205
Cl43	Cl	1.094801	0.293884	0.000012
Cl44	Cl	0.787635	0.288460	-0.000007
Cl45	Cl	1.698673	-0.309280	-0.151474
H46	H	1.493695	-0.306929	-0.240727
H47	H	1.405188	0.169072	0.593854
H48	H	1.281105	-0.433994	0.097926
Cl49	Cl	1.251209	-0.443180	-0.153402
H50	H	1.284604	-0.289825	0.099153
Cl51	Cl	1.464306	-0.459194	0.297538
Cl52	Cl	1.694738	-0.479403	0.147880
H53	H	1.496767	-0.305731	0.240826
H54	H	1.498321	-0.451636	-0.241411
