data_functionalizedCrystal
_audit_creation_method	'MofGen! by Chris Wilmer'
_symmetry_space_group_name_H-M	'P1'
_symmetry_Int_Tables_number	1
_symmetry_cell_setting	triclinic
loop_
_symmetry_equiv_pos_as_xyz
  x,y,z
_cell_length_a	11.026607
_cell_length_b	10.868271
_cell_length_c	11.026607
_cell_angle_alpha	89.997040
_cell_angle_beta	71.413983
_cell_angle_gamma	90.003487
loop_
_atom_site_label
_atom_site_type_symbol
_atom_site_fract_x
_atom_site_fract_y
_atom_site_fract_z
O1	O	1.726733	0.102319	-0.533624
O2	O	2.226733	0.602319	-0.033624
O3	O	1.360153	0.102321	-0.472861
O4	O	1.860153	0.602321	0.027139
O5	O	1.513061	0.102316	-0.319952
O6	O	2.013061	0.602316	0.180048
O7	O	1.573825	0.102325	-0.686532
O8	O	2.073825	0.602325	-0.186532
O9	O	1.513044	-0.102329	-0.319941
O10	O	2.013044	0.397671	0.180059
O11	O	1.360135	-0.102323	-0.472850
O12	O	1.860135	0.397677	0.027150
O13	O	1.726715	-0.102325	-0.533613
O14	O	2.226715	0.397675	-0.033613
Zn15	Zn	1.543423	-0.134816	-0.503230
Zn16	Zn	2.043423	0.365184	-0.003230
Zn17	Zn	1.543446	0.134812	-0.503244
Zn18	Zn	2.043446	0.634812	-0.003244
O19	O	1.573807	-0.102320	-0.686521
O20	O	2.073807	0.397680	-0.186521
C21	C	1.312485	-0.000001	-0.461645
C22	C	1.812485	0.499999	0.038355
C23	C	1.170471	-0.000000	-0.428228
C24	C	1.670471	0.500000	0.071772
N25	N	1.543416	-0.318830	-0.503221
N26	N	2.043416	0.181170	-0.003221
C27	C	1.116821	0.000003	-0.520498
C28	C	1.616821	0.500003	-0.020498
C29	C	0.970043	0.000004	-0.485962
C30	C	1.470043	0.500004	0.014038
C31	C	1.543439	-0.569836	-0.503240
C32	C	2.043439	-0.069836	-0.003240
C33	C	1.543423	-0.430159	-0.503232
C34	C	2.043423	0.069841	-0.003232
C35	C	1.774384	-0.000001	-0.544828
C36	C	2.274384	0.499999	-0.044828
C37	C	1.916398	0.000007	-0.578245
C38	C	2.416398	0.500007	-0.078245
C39	C	1.501843	-0.000005	-0.272287
C40	C	2.001843	0.499995	0.227713
C41	C	1.468426	-0.000000	-0.130273
C42	C	1.968426	0.500000	0.369727
N43	N	1.543461	0.318826	-0.503245
N44	N	2.043461	0.818826	-0.003245
C45	C	1.585026	0.000003	-0.734187
C46	C	2.085026	0.500003	-0.234187
C47	C	1.618443	0.000007	-0.876200
C48	C	2.118443	0.500007	-0.376200
C49	C	1.560695	0.000001	-0.076624
C50	C	2.060695	0.500001	0.423376
C51	C	1.526160	0.000006	0.070155
C52	C	2.026160	0.500006	0.570155
H53	H	1.179555	-0.000002	-0.625061
H54	H	1.679555	0.499998	-0.125061
C55	C	1.759714	0.000005	0.039062
C56	C	2.259714	0.500005	0.539062
N57	N	1.866118	0.000001	-0.024763
N58	N	2.366118	0.500001	0.475237
C59	C	1.327162	-0.000001	-0.045529
C60	C	1.827162	0.499999	0.454471
N61	N	1.220759	-0.000006	0.018299
N62	N	1.720759	0.499994	0.518299
H63	H	1.107738	0.000029	-0.323666
H64	H	1.607738	0.500029	0.176334
H65	H	0.907314	0.000033	-0.381393
H66	H	1.407314	0.500033	0.118607
C67	C	1.701959	-0.000009	-0.161368
C68	C	2.201959	0.499991	0.338632
N69	N	1.808362	-0.000021	-0.225196
N70	N	2.308362	0.499979	0.274804
C71	C	1.001135	0.000011	-0.719517
C72	C	1.501135	0.500011	-0.219517
N73	N	1.064960	0.000017	-0.825921
N74	N	1.564960	0.500017	-0.325921
C75	C	1.384889	0.000005	0.154894
C76	C	1.884889	0.500005	0.654894
N77	N	1.278487	0.000000	0.218722
N78	N	1.778487	0.500000	0.718722
