data_functionalizedCrystal
_audit_creation_method	'MofGen! by Chris Wilmer'
_symmetry_space_group_name_H-M	'P1'
_symmetry_Int_Tables_number	1
_symmetry_cell_setting	triclinic
loop_
_symmetry_equiv_pos_as_xyz
  x,y,z
_cell_length_a	14.519709
_cell_length_b	14.519731
_cell_length_c	10.868271
_cell_angle_alpha	89.995592
_cell_angle_beta	89.998940
_cell_angle_gamma	96.315501
loop_
_atom_site_label
_atom_site_type_symbol
_atom_site_fract_x
_atom_site_fract_y
_atom_site_fract_z
O1	O	-0.120985	1.223855	-0.102307
O2	O	0.212348	1.557188	0.231026
O3	O	0.545681	1.890522	0.564359
O4	O	-0.135201	0.955381	-0.102307
O5	O	0.198132	1.288714	0.231026
O6	O	0.531465	1.622048	0.564359
O7	O	0.006145	1.096736	-0.102319
O8	O	0.339478	1.430070	0.231015
O9	O	0.672811	1.763403	0.564348
O10	O	-0.262331	1.082500	-0.102296
O11	O	0.071002	1.415833	0.231037
O12	O	0.404335	1.749166	0.564371
O13	O	0.006150	1.096725	0.102326
O14	O	0.339483	1.430058	0.435659
O15	O	0.672817	1.763391	0.768993
O16	O	-0.135196	0.955369	0.102337
O17	O	0.198137	1.288703	0.435671
O18	O	0.531471	1.622036	0.769004
O19	O	-0.120980	1.223843	0.102337
O20	O	0.212354	1.557177	0.435671
O21	O	0.545687	1.890510	0.769004
Zn22	Zn	-0.128087	1.089604	0.134829
Zn23	Zn	0.205246	1.422938	0.468162
Zn24	Zn	0.538580	1.756271	0.801496
Zn25	Zn	-0.128094	1.089620	-0.134799
Zn26	Zn	0.205239	1.422953	0.198534
Zn27	Zn	0.538572	1.756286	0.531868
O28	O	-0.262326	1.082488	0.102349
O29	O	0.071008	1.415821	0.435682
O30	O	0.404341	1.749155	0.769015
C31	C	-0.134532	0.921016	0.000015
C32	C	0.198801	1.254349	0.333348
C33	C	0.532134	1.587682	0.666681
C34	C	-0.132536	0.818635	0.000014
C35	C	0.200797	1.151969	0.333347
C36	C	0.534130	1.485302	0.666681
C37	C	-0.130915	0.735491	0.000009
C38	C	0.202419	1.068825	0.333342
C39	C	0.535752	1.402158	0.666675
C40	C	-0.128888	0.631182	0.000008
C41	C	0.204445	0.964516	0.333342
C42	C	0.537779	1.297849	0.666675
C43	C	-0.127280	0.548043	0.000008
C44	C	0.206054	0.881377	0.333341
C45	C	0.539387	1.214710	0.666675
C46	C	-0.125253	0.443728	0.000005
C47	C	0.208080	0.777061	0.333339
C48	C	0.541414	1.110395	0.666672
C49	C	-0.296688	1.083157	0.000029
C50	C	0.036645	1.416491	0.333362
C51	C	0.369978	1.749824	0.666696
C52	C	-0.399070	1.085146	0.000037
C53	C	-0.065736	1.418479	0.333371
C54	C	0.267597	1.751812	0.666704
C55	C	-0.773966	1.092465	-0.000012
C56	C	-0.440633	1.425798	0.333322
C57	C	-0.107299	1.759132	0.666655
C58	C	-0.669658	1.090432	0.000002
C59	C	-0.336325	1.423766	0.333336
C60	C	-0.002991	1.757099	0.666669
C61	C	-0.586521	1.088806	0.000014
C62	C	-0.253188	1.422139	0.333347
C63	C	0.080145	1.755472	0.666681
C64	C	-0.482207	1.086773	0.000026
C65	C	-0.148873	1.420106	0.333359
C66	C	0.184460	1.753439	0.666692
C67	C	0.040507	1.096067	-0.000002
C68	C	0.373840	1.429400	0.333332
C69	C	0.707174	1.762734	0.666665
C70	C	0.142889	1.094079	-0.000018
C71	C	0.476222	1.427412	0.333315
C72	C	0.809555	1.760745	0.666649
C73	C	-0.121649	1.258209	0.000012
C74	C	0.211685	1.591542	0.333346
C75	C	0.545018	1.924875	0.666679
C76	C	-0.123645	1.360589	0.000005
C77	C	0.209689	1.693922	0.333339
C78	C	0.543022	2.027256	0.666672
N79	N	-0.128081	1.089601	0.318843
N80	N	0.205252	1.422934	0.652176
N81	N	0.538585	1.756267	0.985510
N82	N	-0.128092	1.089631	-0.318813
N83	N	0.205241	1.422964	0.014520
N84	N	0.538574	1.756298	0.347853
C85	C	-0.128092	1.089615	0.569849
C86	C	0.205241	1.422948	0.903182
C87	C	0.538574	1.756282	1.236516
C88	C	-0.128089	1.089604	0.430172
C89	C	0.205244	1.422937	0.763505
C90	C	0.538578	1.756271	1.096838
