data_functionalizedCrystal
_audit_creation_method	'MofGen! by Chris Wilmer'
_symmetry_space_group_name_H-M	'P1'
_symmetry_Int_Tables_number	1
_symmetry_cell_setting	triclinic
loop_
_symmetry_equiv_pos_as_xyz
  x,y,z
_cell_length_a	6.817900
_cell_length_b	9.109307
_cell_length_c	10.943624
_cell_angle_alpha	97.376200
_cell_angle_beta	108.838799
_cell_angle_gamma	111.764999
loop_
_atom_site_label
_atom_site_type_symbol
_atom_site_fract_x
_atom_site_fract_y
_atom_site_fract_z
V1	V	-4.147508	-0.225312	-0.427519
O2	O	-4.071659	0.010871	-0.393684
O3	O	-4.156928	-0.446798	-0.449309
O4	O	-4.124976	-0.221827	-0.602699
O5	O	-4.103833	-0.215658	-0.239232
V6	V	-4.620292	-0.197064	-0.401996
O7	O	-4.432324	-0.287276	-0.483505
O8	O	-4.785674	-0.135100	-0.346009
O9	O	-4.387666	0.024422	-0.380205
O10	O	-4.813538	-0.433247	-0.435831
O11	O	-4.781364	-0.206719	-0.590282
O12	O	-4.419618	-0.200549	-0.226815
C13	C	-4.015158	-0.500793	-0.448942
C14	C	-4.104319	-0.681860	-0.467925
C15	C	-3.974398	-0.213817	-0.644604
C16	C	-4.037641	-0.212433	-0.787977
C17	C	-3.881147	-0.203114	-0.864092
C18	C	-4.090158	-0.341438	-0.985410
C19	C	-3.941346	-0.071659	-0.922128
C20	C	-4.245882	-0.350887	-0.907433
C21	C	-4.096972	-0.080986	-0.844114
C22	C	-4.306126	-0.219349	-0.965407
C23	C	-4.192780	0.078408	-0.380570
C24	C	-4.082859	0.259474	-0.361595
C25	C	-4.233539	-0.208564	-0.184904
C26	C	-4.149532	-0.209940	-0.041529
H27	H	-4.190888	-0.770169	-0.573518
O28	O	-3.642522	-0.194269	-0.805550
H29	H	-3.516176	-0.079486	-0.812136
O30	O	-4.544998	-0.228596	-1.023795
H31	H	-4.616867	-0.235292	-0.945875
O32	O	-4.087238	-0.487277	-1.066441
H33	H	-3.911337	-0.480287	-1.025598
O34	O	-4.415659	-0.507390	-0.897582
H35	H	-4.366970	-0.507246	-0.790481
O36	O	-4.099795	0.064863	-0.763047
H37	H	-3.972560	0.180572	-0.767863
H38	H	-3.813234	0.046322	-0.929817
O39	O	-3.968187	-0.623578	-0.221725
H40	H	-4.065524	-0.551177	-0.213382
