data_functionalizedCrystal
_audit_creation_method	'MofGen! by Chris Wilmer'
_symmetry_space_group_name_H-M	'P1'
_symmetry_Int_Tables_number	1
_symmetry_cell_setting	triclinic
loop_
_symmetry_equiv_pos_as_xyz
  x,y,z
_cell_length_a	19.121414
_cell_length_b	19.120786
_cell_length_c	19.121242
_cell_angle_alpha	89.925866
_cell_angle_beta	90.121862
_cell_angle_gamma	95.006361
loop_
_atom_site_label
_atom_site_type_symbol
_atom_site_fract_x
_atom_site_fract_y
_atom_site_fract_z
Zn1	Zn	1.077614	-0.248194	0.340649
Zn2	Zn	1.067536	-0.360890	0.218817
Zn3	Zn	0.955370	-0.248644	0.228398
Zn4	Zn	0.954896	-0.370849	0.340595
O5	O	1.013854	-0.307144	0.282115
O6	O	1.174577	-0.258788	0.320500
O7	O	1.048637	-0.342021	0.122146
O8	O	0.976003	-0.150278	0.247320
O9	O	1.167172	-0.341585	0.230991
O10	O	1.065815	-0.149947	0.329790
O11	O	0.966230	-0.259554	0.129185
O12	O	0.857008	-0.269211	0.247269
O13	O	0.975195	-0.358558	0.438544
O14	O	0.856660	-0.358994	0.329699
O15	O	1.065355	-0.268444	0.438583
O16	O	1.048177	-0.460518	0.230939
O17	O	0.965422	-0.467834	0.320409
C18	C	0.831346	-0.315232	0.289518
C19	C	0.753268	-0.318710	0.292701
C20	C	0.716754	-0.273534	0.251356
C21	C	0.643391	-0.276808	0.254346
C22	C	0.606545	-0.325255	0.298686
C23	C	0.643064	-0.370436	0.340033
C24	C	0.716425	-0.367165	0.337039
C25	C	0.385033	-0.337475	0.309868
C26	C	0.311667	-0.340741	0.312861
C27	C	0.311999	-0.247114	0.227173
C28	C	0.385362	-0.243844	0.224185
C29	C	0.421875	-0.289028	0.265529
C30	C	0.531556	-0.328601	0.301746
C31	C	0.496861	-0.285685	0.262466
C32	C	1.005674	-0.489666	0.274643
C33	C	1.002240	-0.567747	0.271468
C34	C	1.047355	-0.604201	0.312951
C35	C	1.044125	-0.677567	0.309969
C36	C	0.995784	-0.714478	0.265498
C37	C	0.950664	-0.678020	0.224013
C38	C	0.953891	-0.604655	0.227000
C39	C	0.983701	-0.936003	0.254334
C40	C	0.980479	-1.009373	0.251349
C41	C	1.073939	-1.008915	0.337306
C42	C	1.077165	-0.935549	0.340285
C43	C	1.032043	-0.899097	0.298803
C44	C	0.992483	-0.789470	0.262447
C45	C	1.035340	-0.824107	0.301858
C46	C	1.197075	-0.299025	0.274683
C47	C	1.275153	-0.295565	0.271516
C48	C	1.021346	-0.314562	0.464669
C49	C	1.024539	-0.317722	0.542463
C50	C	1.022086	-0.123910	0.289630
C51	C	1.025594	-0.045826	0.292833
C52	C	1.006434	-0.299703	0.100271
C53	C	1.003386	-0.296338	0.022480
C54	C	1.044785	-0.337787	0.982262
C55	C	1.041775	-0.334813	0.909167
C56	C	0.997370	-0.290387	0.876292
C57	C	0.955966	-0.248937	0.916516
C58	C	0.958973	-0.251915	0.989609
C59	C	0.986142	-0.279250	0.655780
C60	C	0.983140	-0.276274	0.582681
C61	C	1.068948	-0.362152	0.575337
C62	C	1.071954	-0.365123	0.648433
C63	C	1.030548	-0.323675	0.688650
C64	C	0.994294	-0.287344	0.801577
C65	C	1.033621	-0.326722	0.763363
H66	H	0.746154	-0.403952	0.370707
H67	H	0.613057	-0.409885	0.376133
H68	H	1.108114	-0.401300	0.675194
H69	H	0.414753	-0.374267	0.343534
H70	H	0.415357	-0.204398	0.188074
H71	H	0.526865	-0.246242	0.226362
H72	H	0.917153	-0.574976	0.193221
H73	H	1.074698	-0.794052	0.338069
H74	H	1.110674	-1.038602	0.371079
H75	H	1.075478	-0.368574	0.876424
H76	H	0.501548	-0.368046	0.337848
H77	H	1.086723	-0.574152	0.349160
H78	H	0.946981	-0.240092	0.555917
H79	H	0.953125	-0.819531	0.226237
H80	H	1.080949	-0.373960	1.009023
H81	H	1.102658	-0.395896	0.542584
H82	H	0.946962	-0.906330	0.220556
H83	H	1.116528	-0.905497	0.376496
H84	H	1.080868	-0.707244	0.343743
H85	H	0.941110	-1.039424	0.215136
H86	H	0.281669	-0.380192	0.348973
H87	H	0.911301	-0.708079	0.187808
H88	H	0.952425	-0.245502	0.688517
H89	H	0.919807	-0.212767	0.889744
H90	H	0.925262	-0.218162	1.022355
H91	H	1.069774	-0.362895	0.790133
H92	H	0.958139	-0.251171	0.774802
H93	H	0.746750	-0.234078	0.215255
H94	H	0.613664	-0.240024	0.220674
H95	H	0.282263	-0.210329	0.193512
