data_functionalizedCrystal
_audit_creation_method	'MofGen! by Chris Wilmer'
_symmetry_space_group_name_H-M	'P1'
_symmetry_Int_Tables_number	1
_symmetry_cell_setting	triclinic
loop_
_symmetry_equiv_pos_as_xyz
  x,y,z
_cell_length_a	11.792240
_cell_length_b	11.792241
_cell_length_c	10.268362
_cell_angle_alpha	90.000374
_cell_angle_beta	90.014630
_cell_angle_gamma	84.193417
loop_
_atom_site_label
_atom_site_type_symbol
_atom_site_fract_x
_atom_site_fract_y
_atom_site_fract_z
O1	O	-0.155569	-1.506909	-0.108203
O2	O	0.094431	-1.256909	0.141797
O3	O	0.344431	-1.006909	0.391797
O4	O	0.594431	-0.756909	0.641797
O5	O	-0.171602	-1.176568	-0.108236
O6	O	0.078398	-0.926568	0.141764
O7	O	0.328398	-0.676568	0.391764
O8	O	0.578398	-0.426568	0.641764
O9	O	0.001585	-1.349755	-0.108179
O10	O	0.251585	-1.099755	0.141821
O11	O	0.501585	-0.849755	0.391821
O12	O	0.751585	-0.599755	0.641821
O13	O	-0.328756	-1.333722	-0.108260
O14	O	-0.078756	-1.083722	0.141740
O15	O	0.171244	-0.833722	0.391740
O16	O	0.421244	-0.583722	0.641740
O17	O	0.001593	-1.349740	0.108421
O18	O	0.251593	-1.099740	0.358421
O19	O	0.501593	-0.849740	0.608421
O20	O	0.751593	-0.599740	0.858421
O21	O	-0.171594	-1.176553	0.108364
O22	O	0.078406	-0.926553	0.358364
O23	O	0.328406	-0.676553	0.608364
O24	O	0.578406	-0.426553	0.858364
O25	O	-0.155561	-1.506894	0.108398
O26	O	0.094439	-1.256894	0.358398
O27	O	0.344439	-1.006894	0.608398
O28	O	0.594439	-0.756894	0.858398
Cu29	Cu	-0.163577	-1.341722	0.128158
Cu30	Cu	0.086423	-1.091722	0.378158
Cu31	Cu	0.336423	-0.841722	0.628158
Cu32	Cu	0.586423	-0.591722	0.878158
Cu33	Cu	-0.163586	-1.341740	-0.127997
Cu34	Cu	0.086414	-1.091740	0.122003
Cu35	Cu	0.336414	-0.841740	0.372003
Cu36	Cu	0.586414	-0.591740	0.622003
O37	O	-0.328748	-1.333707	0.108341
O38	O	-0.078748	-1.083707	0.358341
O39	O	0.171252	-0.833707	0.608341
O40	O	0.421252	-0.583707	0.858341
C41	C	0.043880	-1.348740	0.000128
C42	C	0.293880	-1.098740	0.250128
C43	C	0.543880	-0.848740	0.500128
C44	C	0.793880	-0.598740	0.750128
C45	C	0.169894	-1.345726	0.000150
C46	C	0.419894	-1.095726	0.250150
C47	C	0.669894	-0.845726	0.500150
C48	C	0.919894	-0.595726	0.750150
C49	C	-0.170591	-1.134269	0.000060
C50	C	0.079409	-0.884269	0.250060
C51	C	0.329409	-0.634269	0.500060
C52	C	0.579409	-0.384269	0.750060
C53	C	-0.167576	-1.008255	0.000050
C54	C	0.082424	-0.758255	0.250050
C55	C	0.332424	-0.508255	0.500050
C56	C	0.582424	-0.258255	0.750050
C57	C	-0.156572	-1.549192	0.000098
C58	C	0.093428	-1.299192	0.250098
C59	C	0.343428	-1.049192	0.500098
C60	C	0.593428	-0.799192	0.750098
C61	C	-0.159587	-1.675206	0.000100
C62	C	0.090413	-1.425206	0.250100
C63	C	0.340413	-1.175206	0.500100
C64	C	0.590413	-0.925206	0.750100
C65	C	0.400606	-1.340183	0.000170
C66	C	0.650606	-1.090183	0.250170
C67	C	0.900606	-0.840183	0.500170
C68	C	1.150606	-0.590183	0.750170
C69	C	0.272221	-1.343262	0.000159
C70	C	0.522221	-1.093262	0.250159
C71	C	0.772221	-0.843262	0.500159
C72	C	1.022221	-0.593262	0.750159
C73	C	0.628957	-1.334721	0.000076
C74	C	0.878957	-1.084721	0.250076
C75	C	1.128957	-0.834721	0.500076
C76	C	1.378957	-0.584721	0.750076
C77	C	0.502943	-1.337736	0.000184
C78	C	0.752943	-1.087736	0.250184
C79	C	1.002943	-0.837736	0.500184
C80	C	1.252943	-0.587736	0.750184
N81	N	-0.163571	-1.341717	0.308324
N82	N	0.086429	-1.091717	0.558324
N83	N	0.336429	-0.841717	0.808324
N84	N	0.586429	-0.591717	1.058324
C85	C	-0.162034	-0.777543	0.000088
C86	C	0.087966	-0.527543	0.250088
C87	C	0.337966	-0.277543	0.500088
C88	C	0.587966	-0.027543	0.750088
C89	C	-0.165113	-0.905928	0.000067
C90	C	0.084887	-0.655928	0.250067
C91	C	0.334887	-0.405928	0.500067
C92	C	0.584887	-0.155928	0.750067
N93	N	-0.163584	-1.341753	-0.308163
N94	N	0.086416	-1.091753	-0.058163
N95	N	0.336416	-0.841753	0.191837
N96	N	0.586416	-0.591753	0.441837
C97	C	-0.163584	-1.341734	0.573995
C98	C	0.086416	-1.091734	0.823995
C99	C	0.336416	-0.841734	1.073995
C100	C	0.586416	-0.591734	1.323995
C101	C	-0.163580	-1.341721	0.426157
C102	C	0.086420	-1.091721	0.676157
C103	C	0.336420	-0.841721	0.926157
C104	C	0.586420	-0.591721	1.176157
