data_functionalizedCrystal
_audit_creation_method	'MofGen! by Chris Wilmer'
_symmetry_space_group_name_H-M	'P1'
_symmetry_Int_Tables_number	1
_symmetry_cell_setting	triclinic
loop_
_symmetry_equiv_pos_as_xyz
  x,y,z
_cell_length_a	12.811457
_cell_length_b	10.654551
_cell_length_c	11.295483
_cell_angle_alpha	94.137679
_cell_angle_beta	91.289320
_cell_angle_gamma	84.263213
loop_
_atom_site_label
_atom_site_type_symbol
_atom_site_fract_x
_atom_site_fract_y
_atom_site_fract_z
O1	O	1.390272	0.173489	0.051122
O2	O	1.087142	0.189102	0.018385
O3	O	1.245676	-0.001416	0.035505
O4	O	1.231738	0.364007	0.034001
O5	O	1.231752	0.015291	0.232052
O6	O	1.073218	0.205809	0.214932
O7	O	1.376347	0.190197	0.247669
Cu8	Cu	1.223511	0.199529	0.249247
Cu9	Cu	1.239978	0.179770	0.016807
O10	O	1.217814	0.380715	0.230548
C11	C	1.041365	0.196069	0.112466
C12	C	0.925711	0.191921	0.099975
C13	C	0.693201	0.202321	0.290804
C14	C	0.584533	0.198424	0.279073
C15	C	0.599704	0.180222	0.064786
C16	C	0.708372	0.184119	0.076516
C17	C	0.755117	0.195170	0.189529
C18	C	0.863786	0.199076	0.201258
C19	C	0.878956	0.180865	-0.013029
C20	C	0.770288	0.176968	-0.024759
C21	C	1.237690	-0.039865	0.133666
C22	C	1.234628	-0.179321	0.133327
C23	C	1.240782	-0.253945	0.026036
C24	C	1.237895	-0.384977	0.025730
C25	C	1.222705	-0.366747	0.240015
C26	C	1.225584	-0.235717	0.240320
C27	C	1.249826	-0.197549	-0.080956
C28	C	1.255981	-0.272175	-0.188256
C29	C	1.253094	-0.403206	-0.188562
C30	C	1.244052	-0.459612	-0.081569
C31	C	1.422124	0.183230	0.153585
C32	C	1.537780	0.187376	0.166068
C33	C	1.225799	0.419163	0.132386
C34	C	1.228862	0.558618	0.132717
N35	N	1.211936	0.213425	0.412733
N36	N	1.251561	0.165864	-0.146678
C37	C	1.334882	0.065759	0.675300
C38	C	1.326142	0.076270	0.799020
C39	C	1.185713	0.244950	0.783894
C40	C	1.194453	0.234439	0.660175
C41	C	1.269041	0.144842	0.605882
C42	C	1.277785	0.134339	0.482160
C43	C	1.137351	0.303012	0.467037
C44	C	1.128611	0.313523	0.590757
H45	H	1.252180	-0.090858	-0.080719
N46	N	1.397164	-0.009016	0.873896
H47	H	1.445742	-0.067362	0.820724
H48	H	1.439932	0.044135	0.930220
N49	N	1.048174	0.410155	0.649331
H50	H	1.062340	0.497646	0.629166
H51	H	0.975695	0.392645	0.619802
N52	N	0.914206	0.210984	0.323145
H53	H	0.992442	0.212371	0.315213
H54	H	0.884014	0.291964	0.367038
N55	N	1.105258	0.341565	0.842462
H56	H	1.109712	0.336213	0.931370
H57	H	1.119455	0.429015	0.822216
H58	H	0.561628	0.171203	-0.027223
H59	H	0.534124	0.204253	0.361542
H60	H	1.083742	0.367411	0.410502
N61	N	1.259738	-0.483695	-0.304285
H62	H	1.256539	-0.575260	-0.288249
H63	H	1.199101	-0.455519	-0.357988
H64	H	0.732214	0.167964	-0.116770
N65	N	0.743625	0.214260	0.412686
H66	H	0.687911	0.218206	0.475066
H67	H	0.796265	0.138587	0.423075
H68	H	0.929380	0.175050	-0.095494
N69	N	1.265635	-0.211333	-0.303661
H70	H	1.266504	-0.116999	-0.287192
H71	H	1.332884	-0.247432	-0.343609
H72	H	1.241687	-0.566305	-0.081829
N73	N	1.212968	-0.427580	0.355410
H74	H	1.212084	-0.521912	0.338937
H75	H	1.274622	-0.409941	0.409203
N76	N	1.218941	-0.155217	0.356036
H77	H	1.212782	-0.210825	0.423770
H78	H	1.284264	-0.109701	0.367794
N79	N	1.358232	0.037712	0.423597
H80	H	1.398613	-0.010794	0.486351
H81	H	1.321579	-0.022773	0.367922
H82	H	1.395621	-0.007186	0.631095
