data_functionalizedCrystal
_audit_creation_method	'MofGen! by Chris Wilmer'
_symmetry_space_group_name_H-M	'P1'
_symmetry_Int_Tables_number	1
_symmetry_cell_setting	triclinic
loop_
_symmetry_equiv_pos_as_xyz
  x,y,z
_cell_length_a	10.654554
_cell_length_b	19.188930
_cell_length_c	9.730223
_cell_angle_alpha	89.993564
_cell_angle_beta	89.999614
_cell_angle_gamma	83.815812
loop_
_atom_site_label
_atom_site_type_symbol
_atom_site_fract_x
_atom_site_fract_y
_atom_site_fract_z
O1	O	1.665755	0.098075	-0.114313
O2	O	1.300080	0.107414	-0.114316
O3	O	1.493470	0.001158	-0.114288
O4	O	1.472365	0.204331	-0.114342
O5	O	1.493468	0.001160	0.114292
O6	O	1.300078	0.107416	0.114264
O7	O	1.665753	0.098077	0.114267
Zn8	Zn	1.482915	0.102747	0.150557
Zn9	Zn	1.482918	0.102744	-0.150607
O10	O	1.472363	0.204333	0.114238
C11	C	1.253295	0.106729	-0.000026
C12	C	1.113896	0.104675	-0.000026
C13	C	1.492786	-0.024857	0.000006
C14	C	1.490734	-0.102374	0.000018
C15	C	0.932740	0.038251	-0.000020
C16	C	1.063720	0.040180	-0.000011
C17	C	1.033083	0.167244	-0.000037
C18	C	0.902105	0.165315	-0.000037
C19	C	0.882572	-0.026247	-0.000019
C20	C	0.963376	-0.088817	-0.000005
C21	C	1.094357	-0.086888	0.000004
C22	C	1.144533	-0.022389	0.000000
C23	C	1.604209	-0.146555	0.000026
C24	C	1.602282	-0.219392	0.000004
C25	C	1.486872	-0.248044	0.000002
C26	C	1.373382	-0.203854	-0.000014
C27	C	1.375313	-0.131019	-0.000005
N28	N	1.398655	-0.356626	0.077791
N29	N	1.396829	-0.425816	0.077786
C30	C	1.481048	-0.467491	-0.000026
N31	N	1.567182	-0.437362	-0.077816
N32	N	1.569013	-0.368165	-0.077805
C33	C	1.484766	-0.327020	-0.000008
C34	C	1.592441	-0.590650	-0.000045
C35	C	1.590509	-0.663487	-0.000075
C36	C	1.361607	-0.647947	-0.000079
C37	C	1.363542	-0.575112	-0.000062
C38	C	1.478963	-0.546467	-0.000038
C39	C	1.712537	0.098762	-0.000026
C40	C	1.851937	0.100816	-0.000035
C41	C	1.473047	0.230348	-0.000059
C42	C	1.475099	0.307865	-0.000079
N43	N	1.482922	0.102749	0.356094
N44	N	1.482921	0.102736	-0.356143
C45	C	1.568577	0.055715	0.428032
C46	C	1.568574	0.055707	0.571915
C47	C	1.397257	0.149773	0.571908
C48	C	1.397255	0.149777	0.428028
C49	C	1.654244	0.008687	0.356098
C50	C	1.739907	-0.038350	0.428037
C51	C	1.739904	-0.038359	0.571920
C52	C	1.654238	0.008670	0.643864
H53	H	0.922513	-0.141330	-0.000014
H54	H	0.775922	-0.027825	-0.000030
H55	H	1.160144	-0.137835	0.000028
H56	H	1.809645	-0.076663	0.630491
H57	H	1.251188	-0.020823	0.000021
H58	H	1.694689	-0.255370	0.000004
O59	O	1.313929	0.195370	0.358079
C60	C	1.236694	0.157577	0.274834
H61	H	1.234887	0.102503	0.318203
H62	H	1.136723	0.185543	0.273197
H63	H	1.276014	0.154124	0.165790
O64	O	1.081763	0.229911	0.000188
C65	C	1.040419	0.268102	0.118542
H66	H	1.013374	0.230403	0.201301
H67	H	1.119610	0.298188	0.158264
H68	H	0.954842	0.306596	0.091766
H69	H	1.654234	0.008655	0.761023
O70	O	1.253427	-0.532090	-0.000116
C71	C	1.279877	-0.461661	-0.000073
H72	H	1.378500	-0.458387	-0.043343
H73	H	1.207522	-0.429013	-0.066436
H74	H	1.274998	-0.440633	0.109590
O75	O	0.823476	0.226041	-0.000239
C76	C	0.746817	0.228731	-0.118639
H77	H	0.740504	0.173282	-0.158095
H78	H	0.648226	0.254257	-0.092017
H79	H	0.789729	0.260830	-0.201543
O80	O	1.716358	-0.118767	-0.000207
C81	C	1.785527	-0.141299	-0.118570
H82	H	1.718033	-0.156766	-0.201319
H83	H	1.838719	-0.096924	-0.158301
H84	H	1.855760	-0.188425	-0.091804
H85	H	1.654257	0.008691	0.238941
O86	O	1.261353	-0.231766	-0.000197
C87	C	1.253379	-0.273410	-0.118599
H88	H	1.352459	-0.291063	-0.158063
H89	H	1.203584	-0.321342	-0.091979
H90	H	1.197648	-0.241501	-0.201498
H91	H	1.682918	-0.699459	-0.000077
H92	H	1.282905	-0.095046	-0.000011
O93	O	1.249607	-0.675887	-0.000026
C94	C	1.272232	-0.749648	-0.000076
H95	H	1.370323	-0.766277	0.043205
H96	H	1.198402	-0.772375	0.066274
H97	H	1.266267	-0.769936	-0.109743
H98	H	1.686424	-0.567326	-0.000032
O99	O	1.313880	0.195386	0.641731
C100	C	1.189637	0.183404	0.606555
H101	H	1.189337	0.127503	0.567005
H102	H	1.126577	0.191102	0.701180
H103	H	1.152532	0.221915	0.523040
H104	H	1.809646	-0.076644	0.369453
