data_functionalizedCrystal
_audit_creation_method	'MofGen! by Chris Wilmer'
_symmetry_space_group_name_H-M	'P1'
_symmetry_Int_Tables_number	1
_symmetry_cell_setting	triclinic
loop_
_symmetry_equiv_pos_as_xyz
  x,y,z
_cell_length_a	14.853563
_cell_length_b	14.853567
_cell_length_c	13.330367
_cell_angle_alpha	89.999156
_cell_angle_beta	90.007342
_cell_angle_gamma	96.365933
loop_
_atom_site_label
_atom_site_type_symbol
_atom_site_fract_x
_atom_site_fract_y
_atom_site_fract_z
O1	O	-1.196371	0.117685	-0.083410
O2	O	-0.696371	0.617685	0.416590
O3	O	-0.933911	0.131711	-0.083412
O4	O	-0.433911	0.631711	0.416588
O5	O	-1.072152	-0.006532	-0.083414
O6	O	-0.572152	0.493468	0.416586
O7	O	-1.058130	0.255928	-0.083408
O8	O	-0.558130	0.755928	0.416592
O9	O	-1.072132	-0.006535	0.083433
O10	O	-0.572132	0.493465	0.583433
O11	O	-0.933891	0.131708	0.083435
O12	O	-0.433891	0.631708	0.583435
O13	O	-1.196351	0.117682	0.083437
O14	O	-0.696351	0.617682	0.583437
Cu15	Cu	-1.065119	0.124695	0.098671
Cu16	Cu	-0.565119	0.624695	0.598671
Cu17	Cu	-1.065143	0.124698	-0.098645
Cu18	Cu	-0.565143	0.624698	0.401355
O19	O	-1.058110	0.255925	0.083439
O20	O	-0.558110	0.755925	0.583439
C21	C	-0.900312	0.131074	0.000011
C22	C	-0.400312	0.631074	0.500011
C23	C	-0.800228	0.129172	0.000010
C24	C	-0.300228	0.629172	0.500010
C25	C	-0.753219	0.128282	-0.090942
C26	C	-0.253219	0.628282	0.409058
C27	C	-0.753196	0.128268	0.090961
C28	C	-0.253196	0.628268	0.590961
C29	C	-0.659162	0.126475	0.090964
C30	C	-0.159162	0.626475	0.590964
C31	C	-0.612153	0.125585	0.000012
C32	C	-0.112153	0.625585	0.500012
C33	C	-0.659177	0.126487	-0.090943
C34	C	-0.159177	0.626487	0.409057
C35	C	-0.612132	0.125564	0.181916
C36	C	-0.112132	0.625564	0.681916
C37	C	-0.518093	0.123771	0.181922
C38	C	-0.018093	0.623771	0.681922
C39	C	-0.471081	0.122887	0.090969
C40	C	0.028919	0.622887	0.590969
C41	C	-0.518111	0.123790	0.000011
C42	C	-0.018111	0.623790	0.500011
C43	C	-0.471102	0.122900	-0.090941
C44	C	0.028898	0.622900	0.409059
C45	C	-0.518130	0.123809	-0.181900
C46	C	-0.018130	0.623809	0.318100
C47	C	-0.612166	0.125603	-0.181896
C48	C	-0.112166	0.625603	0.318104
C49	C	-0.377045	0.121093	0.090964
C50	C	0.122955	0.621093	0.590964
C51	C	-0.377060	0.121105	-0.090942
C52	C	0.122940	0.621105	0.409058
C53	C	-1.071507	-0.040122	0.000007
C54	C	-0.571507	0.459878	0.500007
C55	C	-1.069603	-0.140206	-0.000002
C56	C	-0.569603	0.359794	0.499998
C57	C	-0.979437	-0.552738	0.000016
C58	C	-0.479437	-0.052738	0.500016
C59	C	-1.143670	-0.574022	0.000018
C60	C	-0.643670	-0.074022	0.500018
C61	C	-1.145460	-0.479988	0.000012
C62	C	-0.645460	0.020012	0.500012
C63	C	-1.064237	-0.422325	0.000010
C64	C	-0.564237	0.077675	0.500010
C65	C	-0.981224	-0.458695	0.000014
C66	C	-0.481224	0.041305	0.500014
C67	C	-1.228471	-0.443610	0.000018
C68	C	-0.728471	0.056390	0.500018
C69	C	-1.230265	-0.349571	0.000013
C70	C	-0.730265	0.150429	0.500013
C71	C	-1.149041	-0.291906	0.000004
C72	C	-0.649041	0.208094	0.500004
C73	C	-1.066025	-0.328282	0.000007
C74	C	-0.566025	0.171718	0.500007
C75	C	-0.984802	-0.270619	0.000005
C76	C	-0.484802	0.229381	0.500005
C77	C	-0.901785	-0.306993	0.000000
C78	C	-0.401785	0.193007	0.500000
C79	C	-0.900001	-0.401030	0.000004
C80	C	-0.400001	0.098970	0.500004
C81	C	-1.150825	-0.197869	0.000000
C82	C	-0.650825	0.302131	0.500000
C83	C	-0.986590	-0.176576	0.000002
C84	C	-0.486590	0.323424	0.500002
C85	C	-0.229950	0.118314	0.000013
C86	C	0.270050	0.618314	0.500013
C87	C	-0.330036	0.120203	0.000013
C88	C	0.169964	0.620203	0.500013
C89	C	-1.058756	0.289515	0.000016
C90	C	-0.558756	0.789515	0.500016
C91	C	-1.060660	0.389599	0.000018
C92	C	-0.560660	0.889599	0.500018
N93	N	-1.065109	0.124692	0.237452
N94	N	-0.565109	0.624692	0.737452
N95	N	-1.065160	0.124694	-0.237427
N96	N	-0.565160	0.624694	0.262573
C97	C	-1.003927	0.185888	0.710076
C98	C	-0.503927	0.685888	1.210076
C99	C	-1.126383	0.063502	0.710042
C100	C	-0.626383	0.563502	1.210042
C101	C	-1.126373	0.063499	0.605024
C102	C	-0.626373	0.563499	1.105024
C103	C	-1.065140	0.124693	0.552527
C104	C	-0.565140	0.624693	1.052527
C105	C	-1.003917	0.185889	0.605048
C106	C	-0.503917	0.685889	1.105048
C107	C	-1.187600	0.002310	0.552495
C108	C	-0.687600	0.502310	1.052495
C109	C	-1.187593	0.002305	0.447470
C110	C	-0.687593	0.502305	0.947470
C111	C	-1.126355	0.063495	0.394971
C112	C	-0.626355	0.563495	0.894971
C113	C	-1.065130	0.124693	0.447499
C114	C	-0.565130	0.624693	0.947499
C115	C	-1.003897	0.185887	0.395001
C116	C	-0.503897	0.685887	0.895001
C117	C	-0.942666	0.247082	0.447527
C118	C	-0.442666	0.747082	0.947527
C119	C	-0.942679	0.247079	0.552549
C120	C	-0.442679	0.747079	1.052549
C121	C	-1.126342	0.063498	0.289949
C122	C	-0.626342	0.563498	0.789949
C123	C	-1.003886	0.185888	0.289973
C124	C	-0.503886	0.685888	0.789973
H125	H	-0.338759	0.120361	0.165022
H126	H	0.161241	0.620361	0.665022
C127	C	-1.193686	-0.003807	0.232175
C128	C	-0.693686	0.496193	0.732175
H129	H	-1.230154	-0.040253	0.278482
H130	H	-0.730154	0.459747	0.778482
H131	H	-1.231244	0.028693	0.191191
H132	H	-0.731244	0.528693	0.691191
H133	H	-1.161204	-0.041403	0.191221
H134	H	-0.661204	0.458597	0.691221
H135	H	-0.920447	-0.129632	-0.000004
H136	H	-0.420447	0.370368	0.499996
C137	C	-0.812446	-0.243558	-0.000004
C138	C	-0.312446	0.256442	0.499996
H139	H	-0.825406	-0.182346	-0.000008
H140	H	-0.325406	0.317654	0.499992
H141	H	-0.778399	-0.254593	0.058176
H142	H	-0.278399	0.245407	0.558176
H143	H	-0.778423	-0.254591	-0.058198
H144	H	-0.278423	0.245409	0.441802
H145	H	-1.176241	0.013684	0.752789
H146	H	-0.676241	0.513684	1.252789
H147	H	-1.218417	-0.168257	0.000010
H148	H	-0.718417	0.331743	0.500010
H149	H	-0.892828	0.296902	0.595322
H150	H	-0.392828	0.796902	1.095322
H151	H	-0.832412	-0.430655	0.000002
H152	H	-0.332412	0.069345	0.500002
C153	C	-0.466370	0.122783	0.281970
C154	C	0.033630	0.622783	0.781970
H155	H	-0.507835	0.123577	0.336136
H156	H	-0.007835	0.623577	0.836136
H157	H	-0.436492	0.069556	0.285752
H158	H	0.063508	0.569556	0.785752
H159	H	-0.422878	0.174625	0.285751
H160	H	0.077122	0.674625	0.785751
H161	H	-1.237459	-0.047508	0.595241
H162	H	-0.737459	0.452492	1.095241
H163	H	-0.650415	0.126281	0.255964
H164	H	-0.150415	0.626281	0.755964
H165	H	-1.294598	-0.490566	0.000029
H166	H	-0.794598	0.009434	0.500029
H167	H	-0.338792	0.120385	-0.165007
H168	H	0.161208	0.620385	0.334993
C169	C	-0.466413	0.122830	-0.281941
C170	C	0.033587	0.622830	0.218059
H171	H	-0.403674	0.121634	-0.268907
H172	H	0.096326	0.621634	0.231093
H173	H	-0.488640	0.070599	-0.319323
H174	H	0.011360	0.570599	0.180677
H175	H	-0.475007	0.175668	-0.319302
H176	H	0.024993	0.675668	0.180698
C177	C	-0.663899	0.126589	-0.281938
C178	C	-0.163899	0.626589	0.218062
H179	H	-0.726637	0.127772	-0.268909
H180	H	-0.226637	0.627772	0.231091
H181	H	-0.641687	0.178826	-0.319312
H182	H	-0.141687	0.678826	0.180688
H183	H	-0.655302	0.073756	-0.319306
H184	H	-0.155302	0.573756	0.180694
H185	H	-0.954071	0.235710	0.752845
H186	H	-0.454071	0.735710	1.252845
H187	H	-1.237450	-0.047523	0.404710
H188	H	-0.737450	0.452477	0.904710
H189	H	-0.791513	0.129026	-0.164998
H190	H	-0.291513	0.629026	0.335002
C191	C	-0.804903	0.129248	0.190999
C192	C	-0.304903	0.629248	0.690999
H193	H	-0.867642	0.130451	0.177973
H194	H	-0.367642	0.630451	0.677973
H195	H	-0.796299	0.076423	0.228370
H196	H	-0.296299	0.576423	0.728370
H197	H	-0.782676	0.181492	0.228369
H198	H	-0.282676	0.681492	0.728369
H199	H	-0.911846	-0.582358	0.000009
H200	H	-0.411846	-0.082358	0.500009
C201	C	-1.233007	-0.637447	0.000022
C202	C	-0.733007	-0.137447	0.500022
H203	H	-1.220053	-0.698662	0.000020
H204	H	-0.720053	-0.198662	0.500020
H205	H	-1.267036	-0.626406	0.058203
H206	H	-0.767036	-0.126406	0.558203
H207	H	-1.267044	-0.626414	-0.058171
H208	H	-0.767044	-0.126414	0.441829
C209	C	-1.321578	-0.309567	0.000005
C210	C	-0.821578	0.190433	0.500005
H211	H	-1.369693	-0.357378	-0.000001
H212	H	-0.869693	0.142622	0.499999
H213	H	-1.325688	-0.273318	0.058181
H214	H	-0.825688	0.226682	0.558181
H215	H	-1.325691	-0.273333	-0.058192
H216	H	-0.825691	0.226667	0.441808
H217	H	-0.892813	0.296910	0.404772
H218	H	-0.392813	0.796910	0.904772
C219	C	-0.936530	0.253204	0.232234
C220	C	-0.436530	0.753204	0.732234
H221	H	-0.900074	0.289650	0.278560
H222	H	-0.400074	0.789650	0.778560
H223	H	-0.898963	0.220708	0.191270
H224	H	-0.398963	0.720708	0.691270
H225	H	-0.969008	0.290799	0.191262
H226	H	-0.469008	0.790799	0.691262
