data_functionalizedCrystal
_audit_creation_method	'MofGen! by Chris Wilmer'
_symmetry_space_group_name_H-M	'P1'
_symmetry_Int_Tables_number	1
_symmetry_cell_setting	triclinic
loop_
_symmetry_equiv_pos_as_xyz
  x,y,z
_cell_length_a	19.188930
_cell_length_b	19.188930
_cell_length_c	13.101039
_cell_angle_alpha	93.345801
_cell_angle_beta	86.639939
_cell_angle_gamma	83.144779
loop_
_atom_site_label
_atom_site_type_symbol
_atom_site_fract_x
_atom_site_fract_y
_atom_site_fract_z
O1	O	0.930013	0.083287	-0.085556
O2	O	0.726699	0.095024	-0.085488
O3	O	0.834222	-0.012499	-0.085504
O4	O	0.822489	0.190810	-0.085540
O5	O	0.826507	-0.004772	0.084927
O6	O	0.718984	0.102752	0.084943
O7	O	0.922298	0.091014	0.084875
Zn8	Zn	0.819416	0.098110	0.111969
Zn9	Zn	0.829581	0.087929	-0.112582
O10	O	0.814775	0.198538	0.084891
C11	C	0.696830	0.098508	-0.000263
C12	C	0.619324	0.097369	-0.000236
C13	C	0.574401	0.160458	-0.000263
C14	C	0.501578	0.159386	-0.000274
C15	C	0.473682	0.095220	-0.000279
C16	C	0.518614	0.032122	-0.000246
C17	C	0.591435	0.033197	-0.000224
N18	N	0.368329	0.043542	-0.058316
N19	N	0.299151	0.042525	-0.058339
C20	C	0.254276	0.091979	-0.000341
N21	N	0.281191	0.142498	0.057668
N22	N	0.350375	0.143516	0.057686
C23	C	0.394720	0.094048	-0.000301
C24	C	0.130389	0.153911	-0.000379
C25	C	0.057565	0.152836	-0.000383
C26	C	0.074603	0.025570	-0.000365
C27	C	0.147425	0.026647	-0.000350
C28	C	0.175314	0.090819	-0.000362
C29	C	0.829985	-0.034646	-0.000285
C30	C	0.828843	-0.112151	-0.000276
C31	C	0.891935	-0.157075	-0.000293
C32	C	0.890864	-0.229900	-0.000309
C33	C	0.826697	-0.257795	-0.000288
C34	C	0.763597	-0.212861	-0.000277
C35	C	0.764671	-0.140039	-0.000271
N36	N	0.775024	-0.363170	0.057730
N37	N	0.774008	-0.432349	0.057727
C38	C	0.823460	-0.477205	-0.000307
N39	N	0.873975	-0.450270	-0.058325
N40	N	0.874992	-0.381085	-0.058317
C41	C	0.825526	-0.336758	-0.000295
C42	C	0.885395	-0.601095	-0.000343
C43	C	0.884321	-0.673921	-0.000365
C44	C	0.757052	-0.656880	-0.000323
C45	C	0.758128	-0.584056	-0.000311
C46	C	0.822301	-0.556168	-0.000316
C47	C	0.952167	0.087530	-0.000352
C48	C	1.029673	0.088669	-0.000386
C49	C	0.819012	0.220685	-0.000330
C50	C	0.820154	0.298189	-0.000346
N51	N	0.812484	0.105058	0.265218
N52	N	0.836518	0.080975	-0.265831
C53	C	0.803053	0.114517	0.474262
C54	C	0.845947	0.071518	0.525131
C55	C	0.840699	0.076781	0.641451
C56	C	0.808300	0.109255	0.357933
H57	H	0.464995	0.210763	-0.000294
Br58	Br	0.669967	-0.694731	-0.000305
Br59	Br	0.676513	-0.250718	-0.000262
H60	H	0.153097	0.206164	-0.000373
H61	H	0.706752	-0.547477	-0.000292
Br62	Br	-0.003405	0.238466	-0.000411
Br63	Br	0.480756	-0.054961	-0.000241
H64	H	0.762393	0.155280	0.518066
H65	H	0.886611	0.030753	0.481323
H66	H	0.713292	-0.103460	-0.000258
H67	H	0.628012	-0.018180	-0.000203
H68	H	0.597103	0.212712	-0.000275
H69	H	0.937648	-0.578388	-0.000351
H70	H	0.051893	-0.026679	-0.000432
H71	H	0.184003	-0.024728	-0.000333
H72	H	0.944190	-0.134374	-0.000300
H73	H	0.942243	-0.266485	-0.000326
H74	H	0.935701	-0.710499	-0.000384
