data_functionalizedCrystal
_audit_creation_method	'MofGen! by Chris Wilmer'
_symmetry_space_group_name_H-M	'P1'
_symmetry_Int_Tables_number	1
_symmetry_cell_setting	triclinic
loop_
_symmetry_equiv_pos_as_xyz
  x,y,z
_cell_length_a	13.032721
_cell_length_b	12.759401
_cell_length_c	12.759393
_cell_angle_alpha	89.981504
_cell_angle_beta	82.851972
_cell_angle_gamma	82.795696
loop_
_atom_site_label
_atom_site_type_symbol
_atom_site_fract_x
_atom_site_fract_y
_atom_site_fract_z
Zn1	Zn	-0.415970	-1.553098	0.647064
Zn2	Zn	-0.590752	-1.530656	0.493688
Zn3	Zn	-0.416025	-1.377393	0.471410
Zn4	Zn	-0.590671	-1.355063	0.669319
O5	O	-0.503355	-1.454052	0.570370
O6	O	-0.439166	-1.697140	0.626728
O7	O	-0.567631	-1.510279	0.343719
O8	O	-0.269780	-1.419437	0.476074
O9	O	-0.567577	-1.680653	0.514043
O10	O	-0.269740	-1.548527	0.605126
O11	O	-0.439259	-1.397677	0.327352
O12	O	-0.439181	-1.227411	0.497654
O13	O	-0.567440	-1.381379	0.813381
O14	O	-0.567493	-1.211005	0.643057
O15	O	-0.439088	-1.526875	0.797030
O16	O	-0.736978	-1.488626	0.535623
O17	O	-0.736919	-1.359619	0.664659
C18	C	-0.503335	-1.181087	0.570354
C19	C	-0.503352	-1.064309	0.570375
C20	C	-0.774866	-1.419293	0.604997
C21	C	-0.891020	-1.404519	0.619845
C22	C	-0.503249	-1.454139	0.844390
C23	C	-0.503204	-1.454176	0.961161
C24	C	-0.942800	-1.461819	0.562668
C25	C	-1.062851	-1.446551	0.578013
C26	C	-0.230782	-1.488976	0.535632
C27	C	-0.114628	-1.503859	0.520829
C28	C	-0.503375	-1.728083	0.570388
C29	C	-0.503383	-1.844859	0.570395
C30	C	-0.570271	-1.000918	0.645989
C31	C	-0.570285	-0.891192	0.646002
C32	C	-0.436457	-0.908258	0.494778
C33	C	-0.436439	-1.017982	0.494770
C34	C	-0.647539	-0.991064	0.733294
C35	C	-0.647552	-0.881338	0.733307
C36	C	-0.503384	-1.454036	0.297407
C37	C	-0.503135	-1.454240	0.180599
C38	C	-0.436365	-1.529946	1.007510
C39	C	-0.436327	-1.529976	1.117230
C40	C	-0.569977	-1.378462	1.134243
C41	C	-0.570009	-1.378429	1.024525
C42	C	-0.359206	-1.617424	0.997689
C43	C	-0.359168	-1.617454	1.107409
H44	H	-0.898256	-1.522184	0.502360
H45	H	-0.935567	-1.344163	0.680160
O46	O	-1.055636	-1.583822	0.440933
H47	H	-1.076438	-1.663641	0.461673
O48	O	-0.618937	-1.034220	0.837466
H49	H	-0.604937	-0.968330	0.888470
H50	H	-0.724379	-1.015259	0.713815
O51	O	-0.364316	-0.858274	0.413221
H52	H	-0.311216	-0.815080	0.453554
O53	O	-0.642091	-1.296693	0.974536
H54	H	-0.630884	-1.309386	0.887596
O55	O	-0.257309	-1.591930	1.139527
H56	H	-0.203333	-1.578379	1.067825
H57	H	-0.380844	-1.696054	1.139953
H58	H	-0.618663	-0.851032	0.806972
O59	O	-0.252007	-1.602292	0.944587
H60	H	-0.257226	-1.529470	0.896919
H61	H	-1.107394	-1.386190	0.638333
O62	O	-0.364275	-1.086357	0.413206
H63	H	-0.317765	-1.035705	0.360626
H64	H	-0.728468	-0.841202	0.721700
O65	O	-0.642030	-1.296765	1.202582
H66	H	-0.630782	-1.309517	1.286664
O67	O	-0.397616	-1.714871	0.957490
H68	H	-0.417951	-1.766564	1.024908
