data_functionalizedCrystal
_audit_creation_method	'MofGen! by Chris Wilmer'
_symmetry_space_group_name_H-M	'P1'
_symmetry_Int_Tables_number	1
_symmetry_cell_setting	triclinic
loop_
_symmetry_equiv_pos_as_xyz
  x,y,z
_cell_length_a	14.472311
_cell_length_b	16.992694
_cell_length_c	16.974813
_cell_angle_alpha	92.975366
_cell_angle_beta	86.337154
_cell_angle_gamma	89.999197
loop_
_atom_site_label
_atom_site_type_symbol
_atom_site_fract_x
_atom_site_fract_y
_atom_site_fract_z
O1	O	-0.089260	-1.040211	0.167654
O2	O	-0.089149	-0.811928	0.165815
O3	O	-0.080622	-0.932433	0.052033
O4	O	-0.097787	-0.919706	0.281436
O5	O	0.073061	-0.932422	0.052020
O6	O	0.064534	-0.811917	0.165802
O7	O	0.064423	-1.040200	0.167642
Cu8	Cu	0.078511	-0.926058	0.166721
Cu9	Cu	-0.103237	-0.926070	0.166736
O10	O	0.055896	-0.919695	0.281424
C11	C	-0.012134	-0.782712	0.163442
C12	C	-0.011617	-0.695676	0.156383
N13	N	0.206343	-0.926054	0.166710
N14	N	-0.231068	-0.926080	0.166740
C15	C	0.394842	-0.926063	0.166721
C16	C	0.438605	-0.990558	0.105861
C17	C	0.545679	-0.990791	0.106049
C18	C	0.580432	-0.926071	0.166730
C19	C	0.535278	-0.943512	0.250436
C20	C	0.428184	-0.943970	0.250079
C21	C	0.435978	-0.843933	0.144605
C22	C	0.543243	-0.844491	0.142771
C23	C	0.685320	-0.926075	0.166740
C24	C	0.289954	-0.926061	0.166716
C25	C	-0.001577	-0.931944	0.022537
C26	C	0.004991	-0.930491	-0.065332
C27	C	-0.012594	-1.069416	0.170014
C28	C	-0.013117	-1.156452	0.177074
C29	C	-0.016713	-0.645362	0.224499
C30	C	-0.016203	-0.563582	0.217861
C31	C	-0.010605	-0.532118	0.143106
C32	C	-0.005506	-0.582439	0.074985
C33	C	-0.006008	-0.664217	0.081624
C34	C	-0.008521	-0.288550	0.115591
C35	C	-0.008021	-0.206766	0.108958
C36	C	-0.018718	-0.187915	0.251834
C37	C	-0.019226	-0.269696	0.258466
C38	C	-0.014122	-0.320009	0.190345
N39	N	-0.010087	-0.448527	0.136319
N40	N	-0.014633	-0.403599	0.197133
C41	C	-0.075695	-0.929817	-0.106601
C42	C	-0.069521	-0.928447	-0.189163
C43	C	0.017340	-0.927758	-0.230454
C44	C	0.098033	-0.928430	-0.189179
C45	C	0.091858	-0.929794	-0.106618
C46	C	0.044792	-0.923673	-0.477376
C47	C	0.050961	-0.922311	-0.559942
C48	C	-0.116594	-0.922327	-0.559921
C49	C	-0.122761	-0.923696	-0.477359
C50	C	-0.042069	-0.924363	-0.436090
N51	N	0.023654	-0.926360	-0.314846
N52	N	-0.048383	-0.925755	-0.351700
C53	C	-0.023152	-0.920184	0.310919
C54	C	-0.029726	-0.921637	0.398788
H55	H	0.576617	-0.980469	0.044003
H56	H	0.168757	-0.927864	-0.222804
H57	H	0.157561	-0.930332	-0.073017
Cl58	Cl	-0.170960	-0.927601	-0.241042
Cl59	Cl	-0.231963	-0.924564	-0.425456
H60	H	-0.146427	-0.930382	-0.072988
Cl61	Cl	0.589627	-0.824028	0.047667
Cl62	Cl	0.391707	-0.769840	0.213027
Cl63	Cl	0.579784	-0.766967	0.206132
Cl64	Cl	0.000402	-0.727469	-0.004012
H65	H	-0.023795	-0.295307	0.319339
H66	H	-0.022871	-0.146942	0.307294
H67	H	-0.182289	-0.921781	-0.593531
H68	H	0.121697	-0.921746	-0.593559
Cl69	Cl	-0.000962	-0.167213	0.014973
H70	H	0.417489	-0.980420	0.043624
Cl71	Cl	0.146235	-0.924500	-0.425505
Cl72	Cl	-0.002106	-0.351790	0.029952
H73	H	0.410588	-1.051169	0.120377
H74	H	0.401803	-1.003853	0.268730
Cl75	Cl	0.583554	-1.084902	0.128754
H76	H	-0.020354	-0.522620	0.273328
Cl77	Cl	0.574505	-1.034909	0.279719
H78	H	-0.021273	-0.670973	0.285372
Cl79	Cl	0.001539	-0.542884	-0.018993
H80	H	0.398742	-0.898630	0.296886
H81	H	0.557241	-0.897769	0.297045
H82	H	0.413459	-0.827068	0.084573
