data_functionalizedCrystal
_audit_creation_method	'MofGen! by Chris Wilmer'
_symmetry_space_group_name_H-M	'P1'
_symmetry_Int_Tables_number	1
_symmetry_cell_setting	triclinic
loop_
_symmetry_equiv_pos_as_xyz
  x,y,z
_cell_length_a	17.077404
_cell_length_b	16.120484
_cell_length_c	16.120339
_cell_angle_alpha	89.785998
_cell_angle_beta	92.864510
_cell_angle_gamma	92.925780
loop_
_atom_site_label
_atom_site_type_symbol
_atom_site_fract_x
_atom_site_fract_y
_atom_site_fract_z
Zn1	Zn	1.162271	-0.306898	-0.486961
Zn2	Zn	1.161459	-0.453100	-0.354947
Zn3	Zn	1.037261	-0.314067	-0.347919
Zn4	Zn	1.023996	-0.445913	-0.493958
O5	O	1.096247	-0.379994	-0.420946
O6	O	1.272009	-0.326300	-0.469462
O7	O	1.150196	-0.440665	-0.237649
O8	O	1.059735	-0.196751	-0.360493
O9	O	1.271412	-0.433714	-0.372472
O10	O	1.151580	-0.191484	-0.462647
O11	O	1.058948	-0.338518	-0.232485
O12	O	0.925655	-0.331549	-0.367278
O13	O	1.037126	-0.421464	-0.609396
O14	O	0.915909	-0.428415	-0.474573
O15	O	1.138717	-0.319330	-0.604255
O16	O	1.137332	-0.568511	-0.379257
O17	O	1.036339	-0.563231	-0.481388
C18	C	0.892301	-0.379981	-0.420922
C19	C	0.805050	-0.379994	-0.420933
C20	C	1.085328	-0.596042	-0.431862
C21	C	1.080728	-0.688467	-0.436560
C22	C	0.759005	-0.430517	-0.476720
C23	C	0.677024	-0.430518	-0.476734
C24	C	0.641089	-0.380000	-0.420955
C25	C	0.687140	-0.329471	-0.365166
C26	C	0.769119	-0.329466	-0.365157
C27	C	0.516268	-0.329486	-0.365186
C28	C	0.434283	-0.329492	-0.365194
C29	C	0.424172	-0.430538	-0.476763
C30	C	0.506152	-0.430533	-0.476754
C31	C	0.552197	-0.380005	-0.420963
C32	C	1.072333	-0.857687	-0.445154
C33	C	1.120300	-0.901460	-0.396752
C34	C	1.115629	-0.995620	-0.401533
C35	C	1.077003	-0.763519	-0.440374
C36	C	1.300989	-0.380009	-0.420971
C37	C	1.388238	-0.380015	-0.420981
C38	C	1.086532	-0.368796	-0.637842
C39	C	1.082393	-0.364023	-0.730270
C40	C	1.107228	-0.163102	-0.410006
C41	C	1.111907	-0.070676	-0.405343
C42	C	1.105971	-0.391090	-0.204891
C43	C	1.110275	-0.395627	-0.112452
C44	C	1.074532	-0.355744	0.100482
C45	C	1.118133	-0.403905	0.056791
C46	C	1.113760	-0.399298	-0.037384
C47	C	1.078905	-0.360349	0.194666
H48	H	0.788257	-0.471658	-0.522139
Cl49	Cl	1.189116	-0.850143	-0.327224
H50	H	1.027762	-0.890926	-0.490180
Cl51	Cl	0.574152	-0.265964	-0.295048
H52	H	1.033921	-0.311056	0.067160
Cl53	Cl	0.619142	-0.494036	-0.546869
Cl54	Cl	0.551326	-0.494049	-0.546871
Cl55	Cl	0.366288	-0.494047	-0.546911
H56	H	0.405027	-0.288345	-0.319784
H57	H	0.657875	-0.288334	-0.319753
H58	H	1.158747	-0.448597	0.090115
H59	H	0.806608	-0.288320	-0.319733
