data_functionalizedCrystal
_audit_creation_method	'MofGen! by Chris Wilmer'
_symmetry_space_group_name_H-M	'P1'
_symmetry_Int_Tables_number	1
_symmetry_cell_setting	triclinic
loop_
_symmetry_equiv_pos_as_xyz
  x,y,z
_cell_length_a	6.394989
_cell_length_b	19.288864
_cell_length_c	17.766277
_cell_angle_alpha	90.023209
_cell_angle_beta	90.003244
_cell_angle_gamma	84.816979
loop_
_atom_site_label
_atom_site_type_symbol
_atom_site_fract_x
_atom_site_fract_y
_atom_site_fract_z
O1	O	-0.260546	-0.923905	-0.062832
O2	O	-0.295693	-0.721989	-0.062780
O3	O	0.025971	-0.825813	-0.062807
O4	O	-0.582211	-0.820081	-0.062804
O5	O	0.025988	-0.825794	0.062382
O6	O	-0.295677	-0.721970	0.062409
O7	O	-0.260530	-0.923886	0.062357
Cu8	Cu	-0.278102	-0.822926	0.073814
Cu9	Cu	-0.278121	-0.822948	-0.074236
O10	O	-0.582195	-0.820062	0.062384
C11	C	-0.294554	-0.696092	-0.000179
C12	C	-0.291159	-0.618955	-0.000159
C13	C	-0.261669	-0.949783	-0.000246
C14	C	-0.265064	-1.026920	-0.000270
N15	N	-0.278087	-0.822915	0.177944
C16	C	0.103790	-0.824670	-0.000215
C17	C	0.339993	-0.821206	-0.000215
N18	N	-0.278120	-0.822964	-0.178367
C19	C	-0.479898	-0.576107	-0.000170
C20	C	-0.476708	-0.503629	-0.000178
C21	C	-0.284770	-0.474001	-0.000191
C22	C	-0.096007	-0.516859	-0.000175
C23	C	-0.099202	-0.589335	-0.000160
C24	C	-0.133891	-0.364268	-0.044076
C25	C	-0.130704	-0.291792	-0.044096
C26	C	-0.274908	-0.250459	-0.000236
C27	C	-0.422335	-0.281609	0.043634
C28	C	-0.425530	-0.354086	0.043650
C29	C	-0.281284	-0.395413	-0.000207
C30	C	-0.460201	-0.129022	-0.000255
C31	C	-0.457004	-0.056542	-0.000259
C32	C	-0.076297	-0.069774	-0.000264
C33	C	-0.079500	-0.142252	-0.000252
C34	C	-0.271458	-0.171871	-0.000252
C35	C	-0.135724	-0.868905	0.217319
C36	C	-0.135714	-0.868909	0.296121
C37	C	-0.278104	-0.822930	0.335545
C38	C	-0.420478	-0.776932	0.296160
C39	C	-0.420470	-0.776925	0.217360
C40	C	-0.468405	-0.815495	0.460385
C41	C	-0.468416	-0.815508	0.539184
C42	C	-0.278129	-0.822949	0.578591
C43	C	-0.087822	-0.830393	0.539190
C44	C	-0.087814	-0.830386	0.460389
C45	C	-0.278128	-0.822933	0.420990
C46	C	-0.135743	-0.868945	0.703412
C47	C	-0.135731	-0.868944	0.782215
C48	C	-0.420513	-0.776971	0.782253
C49	C	-0.420507	-0.776969	0.703451
C50	C	-0.278125	-0.822959	0.664035
H51	H	-0.636205	-0.600218	-0.000171
H52	H	0.074192	-0.177139	-0.000248
H53	H	-0.610704	-0.021656	-0.000264
H54	H	-0.630407	-0.468735	-0.000185
O55	O	-0.558545	-0.732274	0.820622
C56	C	-0.447017	-0.688443	0.866214
H57	H	-0.283372	-0.714678	0.878012
H58	H	-0.534283	-0.678220	0.921629
H59	H	-0.433213	-0.636989	0.835871
O60	O	-0.568793	-0.384236	0.086337
C61	C	-0.695434	-0.332219	0.125033
H62	H	-0.607928	-0.283511	0.130318
H63	H	-0.733155	-0.351851	0.183559
H64	H	-0.847619	-0.319232	0.092515
H65	H	-0.536441	-0.739523	0.671390
H66	H	-0.019783	-0.906351	0.185229
O67	O	-0.646842	-0.157685	-0.000214
C68	C	-0.812750	-0.104321	-0.000236
H69	H	-0.754666	-0.054584	0.023456
H70	H	-0.946793	-0.120617	0.036115
H71	H	-0.870950	-0.094608	-0.060295
H72	H	-0.019780	-0.906360	0.328186
O73	O	0.002284	-0.913651	0.820550
C74	C	-0.109261	-0.957483	0.866093
H75	H	-0.272903	-0.931245	0.877906
H76	H	-0.022005	-0.967713	0.921503
H77	H	-0.123073	-1.008934	0.835699
H78	H	0.079983	-0.045652	-0.000320
H79	H	-0.623370	-0.809424	0.428306
O80	O	0.012699	-0.261651	-0.086727
C81	C	0.139282	-0.313671	-0.125440
H82	H	0.136742	-0.365308	-0.094412
H83	H	0.307351	-0.298540	-0.128273
H84	H	0.076115	-0.319230	-0.184937
O85	O	-0.653454	-0.808241	0.577338
C86	C	-0.821405	-0.801678	0.525661
H87	H	-0.763774	-0.782087	0.469504
H88	H	-0.951679	-0.763094	0.548447
H89	H	-0.884573	-0.854545	0.517246
O90	O	0.090496	-0.488115	-0.000057
C91	C	0.205546	-0.509824	0.064773
H92	H	0.093302	-0.525850	0.110097
H93	H	0.293993	-0.465148	0.086521
H94	H	0.322376	-0.556027	0.050124
H95	H	-0.016458	-0.397916	-0.079796
H96	H	-0.539759	-0.247957	0.079350
H97	H	0.054497	-0.624223	-0.000151
O98	O	-0.558511	-0.732239	0.334537
C99	C	-0.446983	-0.688411	0.380135
H100	H	-0.283339	-0.714648	0.391930
H101	H	-0.534250	-0.678193	0.435550
H102	H	-0.433177	-0.636955	0.349797
H103	H	0.067140	-0.836445	0.428312
O104	O	0.097004	-0.837498	0.577488
C105	C	0.113403	-0.778410	0.623113
H106	H	0.008919	-0.732565	0.599391
H107	H	0.283393	-0.765007	0.624011
H108	H	0.061162	-0.789876	0.682829
O109	O	0.002778	-0.913637	0.665234
C110	C	0.128419	-0.954237	0.716890
H111	H	0.130558	-0.925746	0.773076
H112	H	0.295299	-0.963373	0.694121
H113	H	0.061000	-1.006423	0.725242
O114	O	-0.558980	-0.732227	0.179224
C115	C	-0.684618	-0.691630	0.230914
H116	H	-0.686764	-0.720126	0.287072
H117	H	-0.851497	-0.682490	0.208146
H118	H	-0.617193	-0.639446	0.239321
