data_functionalizedCrystal
_audit_creation_method	'MofGen! by Chris Wilmer'
_symmetry_space_group_name_H-M	'P1'
_symmetry_Int_Tables_number	1
_symmetry_cell_setting	triclinic
loop_
_symmetry_equiv_pos_as_xyz
  x,y,z
_cell_length_a	10.654550
_cell_length_b	27.732048
_cell_length_c	9.730223
_cell_angle_alpha	89.990670
_cell_angle_beta	89.999957
_cell_angle_gamma	83.563793
loop_
_atom_site_label
_atom_site_type_symbol
_atom_site_fract_x
_atom_site_fract_y
_atom_site_fract_z
O1	O	1.664985	0.067886	-0.114204
O2	O	1.299235	0.074354	-0.114231
O3	O	1.493469	0.000794	-0.114191
O4	O	1.470751	0.141446	-0.114245
O5	O	1.493457	0.000792	0.114389
O6	O	1.299223	0.074352	0.114349
O7	O	1.664973	0.067884	0.114376
Zn8	Zn	1.482096	0.071117	0.150654
Zn9	Zn	1.482112	0.071120	-0.150509
O10	O	1.470738	0.141444	0.114335
C11	C	1.252451	0.073878	0.000056
C12	C	1.113067	0.072457	0.000047
C13	C	1.492986	-0.017217	0.000103
C14	C	1.491550	-0.070881	0.000114
C15	C	1.031761	0.115768	0.000034
C16	C	0.900796	0.114430	0.000059
C17	C	0.932457	0.026466	0.000103
C18	C	1.063419	0.027805	0.000088
C19	C	1.597290	-0.409038	0.000052
C20	C	1.591962	-0.610730	0.000032
O21	O	1.688653	-0.641384	-0.000021
N22	N	1.476789	-0.630571	0.000025
C23	C	1.362940	-0.599986	0.000014
O24	O	1.264855	-0.621490	-0.000007
C25	C	1.368269	-0.398294	0.000023
C26	C	1.483449	-0.378456	0.000044
C27	C	1.712461	-0.389199	0.000071
C28	C	1.713792	-0.338779	0.000084
C29	C	1.599951	-0.308197	0.000076
C30	C	1.484780	-0.328036	0.000057
C31	C	1.254421	-0.367709	0.000002
C32	C	1.255764	-0.317284	0.000001
C33	C	1.370944	-0.297446	0.000022
C34	C	1.372271	-0.247034	0.000062
N35	N	1.487444	-0.227193	0.000069
C36	C	1.601284	-0.257774	0.000076
C37	C	1.360150	-0.705877	0.000011
C38	C	1.358817	-0.756300	0.000011
C39	C	1.587840	-0.767041	0.000027
C40	C	1.589171	-0.716617	0.000037
C41	C	1.475323	-0.686036	0.000018
C42	C	1.604070	-0.151888	0.000104
C43	C	1.605391	-0.101463	0.000122
C44	C	1.376369	-0.090726	0.000098
C45	C	1.375047	-0.141147	0.000088
C46	C	1.488908	-0.171727	0.000086
O47	O	1.275631	-0.216352	0.000100
O48	O	1.699354	-0.236261	0.000067
C49	C	1.595959	-0.459458	0.000039
C50	C	1.480788	-0.479296	0.000020
C51	C	1.366947	-0.448715	0.000012
C52	C	1.479455	-0.529719	0.000020
C53	C	1.593296	-0.560301	0.000027
C54	C	1.708469	-0.540460	0.000034
C55	C	1.709799	-0.490040	0.000046
C56	C	1.251774	-0.468556	0.000005
C57	C	1.250453	-0.518976	-0.000005
C58	C	1.364293	-0.549558	0.000002
C59	C	1.711757	0.068360	0.000086
C60	C	1.851141	0.069781	0.000086
C61	C	1.471221	0.159455	0.000039
C62	C	1.472657	0.213118	0.000018
N63	N	1.482094	0.071115	0.356191
N64	N	1.482124	0.071118	-0.356046
C65	C	1.568130	0.038557	0.428135
C66	C	1.568142	0.038557	0.572018
C67	C	1.396079	0.103678	0.572000
C68	C	1.396062	0.103675	0.428120
H69	H	1.072179	0.152126	0.000011
H70	H	1.129623	-0.007466	0.000102
H71	H	1.638180	0.012044	0.369573
H72	H	0.834601	0.149698	0.000051
C73	C	1.833690	-0.574106	0.000031
H74	H	1.816388	-0.606976	0.000010
H75	H	1.880967	-0.568061	0.079742
H76	H	1.880954	-0.568045	-0.079690
C77	C	1.126543	-0.434922	0.000012
H78	H	1.057768	-0.453965	0.000017
H79	H	1.122287	-0.415019	-0.079689
H80	H	1.122300	-0.415039	0.079742
C81	C	1.301429	0.139494	0.348970
H82	H	1.313736	0.134825	0.252979
H83	H	1.314439	0.171801	0.372525
H84	H	1.217725	0.133944	0.372560
C85	C	0.877839	-0.022647	0.000130
H86	H	0.788198	-0.017242	0.000122
H87	H	0.905811	-0.040500	0.079845
H88	H	0.905802	-0.040496	-0.079587
C89	C	1.662779	0.002744	0.651157
H90	H	1.650462	0.007403	0.747149
H91	H	1.746476	0.008293	0.627565
H92	H	1.649763	-0.029565	0.627593
C93	C	1.732094	-0.079644	0.000137
H94	H	1.799699	-0.105082	0.000124
H95	H	1.737377	-0.060203	0.079850
H96	H	1.737378	-0.060192	-0.079581
H97	H	1.267435	-0.680982	-0.000004
C98	C	1.729314	-0.185519	0.000113
H99	H	1.798087	-0.166476	0.000139
H100	H	1.733577	-0.205408	-0.079598
H101	H	1.733551	-0.205416	0.079834
H102	H	1.807584	-0.322632	0.000095
H103	H	1.326035	0.130189	0.630579
H104	H	1.805169	-0.414094	0.000072
C105	C	1.232122	-0.778119	0.000004
H106	H	1.247621	-0.812529	0.000014
H107	H	1.185298	-0.767641	-0.079711
H108	H	1.185290	-0.767651	0.079721
H109	H	1.283683	-0.065817	0.000097
H110	H	1.680533	-0.791950	0.000034
C111	C	1.130527	-0.283647	-0.000014
H112	H	1.061747	-0.302687	-0.000017
H113	H	1.126289	-0.263747	-0.079720
H114	H	1.126276	-0.263761	0.079712
C115	C	1.715868	-0.694800	0.000047
H116	H	1.783470	-0.720239	0.000045
H117	H	1.721151	-0.675356	0.079755
H118	H	1.721157	-0.675352	-0.079677
H119	H	1.156652	-0.535123	-0.000011
H120	H	1.160629	-0.383852	-0.000023
C121	C	1.836499	-0.468224	0.000055
H122	H	1.904098	-0.493664	0.000046
H123	H	1.841789	-0.448782	0.079766
H124	H	1.841787	-0.448774	-0.079666
C125	C	1.248353	-0.162970	0.000061
H126	H	1.180746	-0.137533	0.000050
H127	H	1.243056	-0.182427	0.079756
H128	H	1.243088	-0.182405	-0.079676
