data_functionalizedCrystal
_audit_creation_method	'MofGen! by Chris Wilmer'
_symmetry_space_group_name_H-M	'P1'
_symmetry_Int_Tables_number	1
_symmetry_cell_setting	triclinic
loop_
_symmetry_equiv_pos_as_xyz
  x,y,z
_cell_length_a	11.792241
_cell_length_b	17.038272
_cell_length_c	10.868271
_cell_angle_alpha	89.994627
_cell_angle_beta	89.999893
_cell_angle_gamma	87.652486
loop_
_atom_site_label
_atom_site_type_symbol
_atom_site_fract_x
_atom_site_fract_y
_atom_site_fract_z
O1	O	1.516303	0.107207	-0.102203
O2	O	1.186930	0.118256	-0.102232
O3	O	1.349659	-0.001093	-0.102208
O4	O	1.353574	0.226555	-0.102227
O5	O	1.349644	-0.001097	0.102436
O6	O	1.186915	0.118251	0.102412
O7	O	1.516288	0.107202	0.102441
Zn8	Zn	1.351599	0.112726	0.134919
Zn9	Zn	1.351618	0.112732	-0.134710
O10	O	1.353559	0.226551	0.102417
C11	C	1.144571	0.117559	0.000086
C12	C	1.018375	0.115482	0.000076
C13	C	0.787328	0.111662	0.000111
C14	C	0.915899	0.113785	0.000092
C15	C	1.346090	-0.030239	0.000114
C16	C	1.335466	-0.117079	0.000112
C17	C	1.433006	-0.166762	0.000122
C18	C	1.423017	-0.248357	0.000110
C19	C	1.315487	-0.280267	0.000096
C20	C	1.217940	-0.230577	0.000083
C21	C	1.227930	-0.148984	0.000086
C22	C	1.280194	-0.526181	0.000076
C23	C	1.270211	-0.607780	0.000076
C24	C	1.475289	-0.625554	0.000101
C25	C	1.485270	-0.543958	0.000112
C26	C	1.387723	-0.494276	0.000092
C27	C	1.305274	-0.363669	0.000087
C28	C	1.397937	-0.410875	0.000092
C29	C	1.558647	0.107899	0.000120
C30	C	1.684843	0.109976	0.000122
C31	C	1.357127	0.255697	0.000093
C32	C	1.367751	0.342537	0.000086
N33	N	1.351594	0.112721	0.318933
N34	N	1.351632	0.112731	-0.318724
C35	C	1.351612	0.112730	0.569939
C36	C	1.351599	0.112728	0.430261
H37	H	1.520568	-0.140788	0.000141
O38	O	1.154223	-0.642195	0.000071
H39	H	1.163669	-0.707279	0.000092
O40	O	1.528226	-0.301940	0.000140
H41	H	1.579333	-0.290529	-0.083251
O42	O	1.174988	-0.472599	0.000086
H43	H	1.098541	-0.508499	0.000098
O44	O	1.580498	-0.679137	0.000114
H45	H	1.555492	-0.741235	0.000101
H46	H	1.130387	-0.256565	0.000064
H47	H	1.485487	-0.384890	0.000076
O48	O	1.601248	-0.509540	0.000097
H49	H	1.667398	-0.557797	0.000083
H50	H	1.148503	-0.108532	0.000078
O51	O	1.189299	-0.398092	0.000099
H52	H	1.179850	-0.434842	-0.083305
