data_functionalizedCrystal
_audit_creation_method	'MofGen! by Chris Wilmer'
_symmetry_space_group_name_H-M	'P1'
_symmetry_Int_Tables_number	1
_symmetry_cell_setting	triclinic
loop_
_symmetry_equiv_pos_as_xyz
  x,y,z
_cell_length_a	21.395364
_cell_length_b	18.050590
_cell_length_c	21.395356
_cell_angle_alpha	90.027706
_cell_angle_beta	90.016491
_cell_angle_gamma	90.033504
loop_
_atom_site_label
_atom_site_type_symbol
_atom_site_fract_x
_atom_site_fract_y
_atom_site_fract_z
Zn1	Zn	0.957862	-0.295378	0.354264
Zn2	Zn	1.457862	0.204622	0.854264
Zn3	Zn	0.957802	-0.419571	0.249487
Zn4	Zn	1.457802	0.080429	0.749487
Zn5	Zn	0.853092	-0.295432	0.249500
Zn6	Zn	1.353092	0.204568	0.749500
Zn7	Zn	0.853069	-0.419563	0.354227
Zn8	Zn	1.353069	0.080437	0.854227
O9	O	0.905456	-0.357486	0.301870
O10	O	1.405456	0.142514	0.801870
O11	O	1.045532	-0.311834	0.340374
O12	O	1.545532	0.188166	0.840374
O13	O	0.943896	-0.403129	0.161811
O14	O	1.443896	0.096871	0.661811
O15	O	0.867025	-0.191500	0.263418
O16	O	1.367025	0.308500	0.763418
O17	O	1.045488	-0.403077	0.263396
O18	O	1.545488	0.096923	0.763396
O19	O	0.943999	-0.191461	0.340387
O20	O	1.443999	0.308539	0.840387
O21	O	0.866966	-0.311925	0.161821
O22	O	1.366966	0.188075	0.661821
O23	O	0.765411	-0.311917	0.263383
O24	O	1.265411	0.188083	0.763383
O25	O	0.866985	-0.403064	0.441910
O26	O	1.366985	0.096936	0.941910
O27	O	0.765394	-0.403116	0.340325
O28	O	1.265394	0.096884	0.840325
O29	O	0.943977	-0.311826	0.441937
O30	O	1.443977	0.188174	0.941937
O31	O	0.943874	-0.523495	0.263360
O32	O	1.443874	-0.023495	0.763360
O33	O	0.866927	-0.523489	0.340312
O34	O	1.366927	-0.023489	0.840312
C35	C	0.742669	-0.357522	0.301852
C36	C	1.242669	0.142478	0.801852
C37	C	0.673027	-0.357556	0.301859
C38	C	1.173027	0.142444	0.801859
C39	C	0.640360	-0.310123	0.342004
C40	C	1.140360	0.189877	0.842004
C41	C	0.574924	-0.310103	0.342007
C42	C	1.074924	0.189897	0.842007
C43	C	0.542159	-0.357529	0.301871
C44	C	1.042159	0.142471	0.801871
C45	C	0.574834	-0.404966	0.261718
C46	C	1.074834	0.095034	0.761718
C47	C	0.640269	-0.404979	0.261712
C48	C	1.140269	0.095021	0.761712
C49	C	0.438447	-0.424411	0.296834
C50	C	0.938447	0.075589	0.796834
C51	C	0.373014	-0.424399	0.296844
C52	C	0.873014	0.075601	0.796844
C53	C	0.340338	-0.357489	0.301885
C54	C	0.840338	0.142511	0.801885
C55	C	0.373103	-0.290588	0.306929
C56	C	0.873103	0.209412	0.806929
C57	C	0.438537	-0.290601	0.306923
C58	C	0.938537	0.209399	0.806923
C59	C	0.471207	-0.357520	0.301872
C60	C	0.971207	0.142480	0.801872
C61	C	0.236718	-0.310030	0.342034
C62	C	0.736718	0.189970	0.842034
C63	C	0.171282	-0.310009	0.342032
C64	C	0.671282	0.189991	0.842032
C65	C	0.171193	-0.404878	0.261747
C66	C	0.671193	0.095122	0.761747
C67	C	0.236628	-0.404893	0.261746
C68	C	0.736628	0.095107	0.761746
C69	C	0.269387	-0.357470	0.301893
C70	C	0.769387	0.142530	0.801893
C71	C	0.905408	-0.550438	0.301845
C72	C	1.405408	-0.050438	0.801845
C73	C	0.905445	-0.632984	0.301855
C74	C	1.405445	-0.132984	0.801855
C75	C	0.947376	-0.832411	0.260067
C76	C	1.447376	-0.332411	0.760067
C77	C	0.962677	-0.881739	0.317251
C78	C	1.462677	-0.381739	0.817251
C79	C	0.905480	-0.784114	0.301880
C80	C	1.405480	-0.284114	0.801880
C81	C	0.890242	-0.881867	0.244722
C82	C	1.390242	-0.381867	0.744722
C83	C	0.905516	-0.930099	0.301899
C84	C	1.405516	-0.430099	0.801899
C85	C	0.920812	-0.832356	0.359094
C86	C	1.420812	-0.332356	0.859094
C87	C	0.848350	-0.832479	0.286526
C88	C	1.348350	-0.332479	0.786526
C89	C	0.863630	-0.881786	0.343750
C90	C	1.363630	-0.381786	0.843750
C91	C	0.905461	-0.700016	0.301868
C92	C	1.405461	-0.200016	0.801868
C93	C	0.905535	-1.014196	0.301917
C94	C	1.405535	-0.514196	0.801917
C95	C	1.068879	-0.357450	0.301888
C96	C	1.568879	0.142550	0.801888
C97	C	1.138521	-0.357435	0.301895
C98	C	1.638521	0.142565	0.801895
C99	C	0.905485	-0.357438	0.465293
C100	C	1.405485	0.142562	0.965293
C101	C	0.905498	-0.357418	0.534934
C102	C	1.405498	0.142582	1.034934
C103	C	0.905522	-0.163781	0.301908
C104	C	1.405522	0.336219	0.801908
C105	C	0.905549	-0.081235	0.301925
C106	C	1.405549	0.418765	0.801925
C107	C	0.905463	-0.357480	0.139082
C108	C	1.405463	0.142520	0.639082
C109	C	0.905572	-0.357291	0.069441
C110	C	1.405572	0.142709	0.569441
C111	C	0.945646	-0.309792	1.036745
C112	C	1.445646	0.190208	1.536745
C113	C	0.945641	-0.309810	0.971310
C114	C	1.445641	0.190190	1.471310
C115	C	0.905551	-0.357319	0.938573
C116	C	1.405551	0.142681	1.438573
C117	C	0.865475	-0.404828	0.971276
C118	C	1.365475	0.095172	1.471276
C119	C	0.865485	-0.404814	1.036710
C120	C	1.365485	0.095186	1.536710
C121	C	0.849083	-0.363218	0.834897
C122	C	1.349083	0.136782	1.334897
C123	C	0.849072	-0.363227	0.769464
C124	C	1.349072	0.136773	1.269464
C125	C	0.905519	-0.357367	0.736752
C126	C	1.405519	0.142633	1.236752
C127	C	0.961980	-0.351482	0.769481
C128	C	1.461980	0.148518	1.269481
C129	C	0.961990	-0.351468	0.834915
C130	C	1.461990	0.148532	1.334915
C131	C	0.905536	-0.357340	0.867620
C132	C	1.405536	0.142660	1.367620
C133	C	0.945591	-0.309884	0.633104
C134	C	1.445591	0.190116	1.133104
C135	C	0.945587	-0.309907	0.567667
C136	C	1.445587	0.190093	1.067667
C137	C	0.865415	-0.404921	0.567634
C138	C	1.365415	0.095079	1.067634
C139	C	0.865425	-0.404902	0.633070
C140	C	1.365425	0.095098	1.133070
C141	C	0.905512	-0.357380	0.665800
C142	C	1.405512	0.142620	1.165800
H143	H	0.667028	-0.271506	0.374694
H144	H	1.167028	0.228494	0.874694
H145	H	1.007945	-0.346708	0.742848
H146	H	1.507945	0.153292	1.242848
Cl147	Cl	0.331831	-0.508502	0.290513
Cl148	Cl	0.831831	-0.008502	0.790513
H149	H	0.465047	-0.478901	0.292728
H150	H	0.965047	0.021099	0.792728
H151	H	0.548153	-0.443580	0.229039
H152	H	1.048153	0.056420	0.729039
Cl153	Cl	0.681339	-0.464612	0.211239
Cl154	Cl	1.181339	0.035388	0.711239
Cl155	Cl	0.773751	-0.799046	0.266434
Cl156	Cl	1.273751	-0.299046	0.766434
H157	H	0.982817	-0.810731	0.224743
H158	H	1.482817	-0.310731	0.724743
Cl159	Cl	0.808953	-0.915051	0.398416
Cl160	Cl	1.308953	-0.415051	0.898416
Cl161	Cl	0.995974	-0.250131	0.674254
Cl162	Cl	1.495974	0.249869	1.174254
Cl163	Cl	1.037296	-0.915134	0.337331
Cl164	Cl	1.537296	-0.415134	0.837331
H165	H	0.263392	-0.271411	0.374720
H166	H	0.763392	0.228589	0.874720
H167	H	0.144516	-0.443494	0.229067
H168	H	0.644516	0.056506	0.729067
Cl169	Cl	0.815078	-0.464556	0.930122
Cl170	Cl	1.315078	0.035444	1.430122
H171	H	0.933667	-0.810700	0.407481
H172	H	1.433667	-0.310700	0.907481
H173	H	0.263227	-0.443521	0.229058
H174	H	0.763227	0.056479	0.729058
Cl175	Cl	0.130213	-0.250370	0.392502
Cl176	Cl	0.630213	0.249630	0.892502
Cl177	Cl	0.533848	-0.250468	0.392478
Cl178	Cl	1.033848	0.249532	0.892478
Cl179	Cl	0.479725	-0.206502	0.313260
Cl180	Cl	0.979725	0.293498	0.813260
Cl181	Cl	0.870320	-0.915445	0.170081
Cl182	Cl	1.370320	-0.415445	0.670081
H183	H	0.346500	-0.236103	0.311034
H184	H	0.846500	0.263897	0.811034
Cl185	Cl	0.995974	-0.250193	0.526563
Cl186	Cl	1.495974	0.249807	1.026563
H187	H	0.978291	-0.271099	1.063391
H188	H	1.478291	0.228901	1.563391
H189	H	0.978273	-0.271128	0.944684
H190	H	1.478273	0.228872	1.444684
H191	H	1.007963	-0.346679	0.861561
H192	H	1.507963	0.153321	1.361561
Cl193	Cl	0.815023	-0.464656	0.526485
Cl194	Cl	1.315023	0.035344	1.026485
Cl195	Cl	0.815042	-0.464617	0.674175
Cl196	Cl	1.315042	0.035383	1.174175
Cl197	Cl	0.778093	-0.370617	0.728325
Cl198	Cl	1.278093	0.129383	1.228325
H199	H	0.832852	-0.443494	1.063331
H200	H	1.332852	0.056506	1.563331
Cl201	Cl	0.778113	-0.370575	0.876013
Cl202	Cl	1.278113	0.129425	1.376013
