data_functionalizedCrystal
_audit_creation_method	'MofGen! by Chris Wilmer'
_symmetry_space_group_name_H-M	'P1'
_symmetry_Int_Tables_number	1
_symmetry_cell_setting	triclinic
loop_
_symmetry_equiv_pos_as_xyz
  x,y,z
_cell_length_a	21.395362
_cell_length_b	18.101397
_cell_length_c	21.395355
_cell_angle_alpha	90.019934
_cell_angle_beta	90.043940
_cell_angle_gamma	90.036343
loop_
_atom_site_label
_atom_site_type_symbol
_atom_site_fract_x
_atom_site_fract_y
_atom_site_fract_z
Zn1	Zn	0.957904	-0.294601	0.354579
Zn2	Zn	1.457904	0.205399	0.854579
Zn3	Zn	0.957825	-0.418425	0.249799
Zn4	Zn	1.457825	0.081575	0.749799
Zn5	Zn	0.853119	-0.294636	0.249781
Zn6	Zn	1.353119	0.205364	0.749781
Zn7	Zn	0.853107	-0.418440	0.354504
Zn8	Zn	1.353107	0.081560	0.854504
O9	O	0.905489	-0.356526	0.302166
O10	O	1.405489	0.143474	0.802166
O11	O	1.045572	-0.311006	0.340720
O12	O	1.545572	0.188994	0.840720
O13	O	0.943908	-0.402012	0.162119
O14	O	1.443908	0.097988	0.662119
O15	O	0.867057	-0.190998	0.263706
O16	O	1.367057	0.309002	0.763706
O17	O	1.045514	-0.401979	0.263738
O18	O	1.545514	0.098021	0.763738
O19	O	0.944042	-0.190973	0.340701
O20	O	1.444042	0.309027	0.840701
O21	O	0.866981	-0.311065	0.162105
O22	O	1.366981	0.188935	0.662105
O23	O	0.765439	-0.311080	0.263633
O24	O	1.265439	0.188920	0.763633
O25	O	0.867036	-0.402005	0.442192
O26	O	1.367036	0.097995	0.942192
O27	O	0.765431	-0.402038	0.340573
O28	O	1.265431	0.097962	0.840573
O29	O	0.944030	-0.311021	0.442247
O30	O	1.444030	0.188979	0.942247
O31	O	0.943896	-0.522060	0.263665
O32	O	1.443896	-0.022060	0.763665
O33	O	0.866960	-0.522071	0.340591
O34	O	1.366960	-0.022071	0.840591
C35	C	0.742701	-0.356565	0.302093
C36	C	1.242701	0.143435	0.802093
C37	C	0.673060	-0.356599	0.302077
C38	C	1.173060	0.143401	0.802077
C39	C	0.905435	-0.548936	0.302136
C40	C	1.405435	-0.048936	0.802136
C41	C	0.905470	-0.631250	0.302144
C42	C	1.405470	-0.131250	0.802144
C43	C	0.640359	-0.404024	0.342080
C44	C	1.140359	0.095976	0.842080
C45	C	0.574923	-0.404006	0.342107
C46	C	1.074923	0.095994	0.842107
C47	C	0.542192	-0.356571	0.302122
C48	C	1.042192	0.143429	0.802122
C49	C	0.574901	-0.309137	0.262116
C50	C	1.074901	0.190863	0.762116
C51	C	0.640335	-0.309151	0.262094
C52	C	1.140335	0.190849	0.762094
C53	C	0.438466	-0.350605	0.245717
C54	C	0.938466	0.149395	0.745717
C55	C	0.373033	-0.350596	0.245738
C56	C	0.873033	0.149404	0.745738
C57	C	0.340371	-0.356522	0.302191
C58	C	0.840371	0.143478	0.802191
C59	C	0.373150	-0.362474	0.358624
C60	C	0.873150	0.137526	0.858624
C61	C	0.438584	-0.362488	0.358602
C62	C	0.938584	0.137512	0.858602
C63	C	0.471239	-0.356550	0.302142
C64	C	0.971239	0.143450	0.802142
C65	C	0.236717	-0.403930	0.342227
C66	C	0.736717	0.096070	0.842227
C67	C	0.171280	-0.403907	0.342256
C68	C	0.671280	0.096093	0.842256
C69	C	0.171259	-0.309042	0.262259
C70	C	0.671259	0.190958	0.762259
C71	C	0.236695	-0.309061	0.262236
C72	C	0.736695	0.190939	0.762236
C73	C	0.269420	-0.356509	0.302219
C74	C	0.769420	0.143491	0.802219
C75	C	0.905550	-0.930341	0.302201
C76	C	1.405550	-0.430341	0.802201
C77	C	0.953821	-0.898978	0.253671
C78	C	1.453821	-0.398978	0.753671
C79	C	0.953988	-0.813359	0.253797
C80	C	1.453988	-0.313359	0.753797
C81	C	0.905510	-0.781959	0.302172
C82	C	1.405510	-0.281959	0.802172
C83	C	0.923415	-0.812974	0.368221
C84	C	1.423415	-0.312974	0.868221
C85	C	0.923789	-0.898619	0.367956
C86	C	1.423789	-0.398619	0.867956
C87	C	0.839245	-0.898868	0.285253
C88	C	1.339245	-0.398868	0.785253
C89	C	0.839572	-0.813218	0.283779
C90	C	1.339572	-0.313218	0.783779
C91	C	0.905486	-0.698099	0.302159
C92	C	1.405486	-0.198099	0.802159
C93	C	0.905575	-1.014201	0.302217
C94	C	1.405575	-0.514201	0.802217
C95	C	1.068912	-0.356487	0.302239
C96	C	1.568912	0.143513	0.802239
C97	C	1.138553	-0.356470	0.302271
C98	C	1.638553	0.143530	0.802271
C99	C	0.905541	-0.356511	0.465589
C100	C	1.405541	0.143489	0.965589
C101	C	0.905563	-0.356504	0.535231
C102	C	1.405563	0.143496	1.035231
C103	C	0.905560	-0.163364	0.302210
C104	C	1.405560	0.336636	0.802210
C105	C	0.905590	-0.081050	0.302229
C106	C	1.405590	0.418950	0.802229
C107	C	0.905473	-0.356487	0.139378
C108	C	1.405473	0.143513	0.639378
C109	C	0.905572	-0.356285	0.069737
C110	C	1.405572	0.143715	0.569737
C111	C	0.945652	-0.309127	0.567974
C112	C	1.445652	0.190873	1.067974
C113	C	0.945651	-0.309095	0.633409
C114	C	1.445651	0.190905	1.133409
C115	C	0.905568	-0.356454	0.666099
C116	C	1.405568	0.143546	1.166099
C117	C	0.865471	-0.403834	0.633348
C118	C	1.365471	0.096166	1.133348
C119	C	0.865469	-0.403859	0.567914
C120	C	1.365469	0.096141	1.067914
C121	C	0.900602	-0.423137	0.769761
C122	C	1.400602	0.076863	1.269761
C123	C	0.900609	-0.423113	0.835194
C124	C	1.400609	0.076887	1.335194
C125	C	0.905572	-0.356375	0.867920
C126	C	1.405572	0.143625	1.367920
C127	C	0.910541	-0.289660	0.835204
C128	C	1.410541	0.210340	1.335204
C129	C	0.910539	-0.289685	0.769770
C130	C	1.410539	0.210315	1.269770
C131	C	0.905566	-0.356431	0.737051
C132	C	1.405566	0.143569	1.237051
C133	C	0.945662	-0.308960	0.971615
C134	C	1.445662	0.191040	1.471615
C135	C	0.945657	-0.308927	1.037052
C136	C	1.445657	0.191073	1.537052
C137	C	0.865480	-0.403672	1.036990
C138	C	1.365480	0.096328	1.536990
C139	C	0.865482	-0.403699	0.971555
C140	C	1.365482	0.096301	1.471555
C141	C	0.905576	-0.356344	0.938871
C142	C	1.405576	0.143656	1.438871
H143	H	0.666999	-0.442659	0.374638
H144	H	1.166999	0.057341	0.874638
H145	H	0.914583	-0.235316	0.861848
H146	H	1.414583	0.264684	1.361848
H147	H	0.801671	-0.791852	0.316535
H148	H	1.301671	-0.291852	0.816535
Cl149	Cl	0.815083	-0.463203	1.078080
Cl150	Cl	1.315083	0.036797	1.578080
Cl151	Cl	0.996040	-0.249516	0.674580
Cl152	Cl	1.496040	0.250484	1.174580
H153	H	0.832841	-0.442283	0.944895
H154	H	1.332841	0.057717	1.444895
Cl155	Cl	0.870790	-0.781582	0.425551
Cl156	Cl	1.370790	-0.281582	0.925551
Cl157	Cl	0.277860	-0.463573	0.392494
Cl158	Cl	0.777860	0.036427	0.892494
Cl159	Cl	0.894368	-0.506983	0.876316
Cl160	Cl	1.394368	-0.006983	1.376316
H161	H	0.346558	-0.367299	0.404594
H162	H	0.846558	0.132701	0.904594
Cl163	Cl	0.533754	-0.249500	0.211851
Cl164	Cl	1.033754	0.250500	0.711851
Cl165	Cl	0.996053	-0.249590	0.526889
Cl166	Cl	1.496053	0.250410	1.026889
H167	H	0.144656	-0.442524	0.374835
H168	H	0.644656	0.057476	0.874835
H169	H	0.978306	-0.270396	0.945003
H170	H	1.478306	0.229604	1.445003
H171	H	0.832833	-0.442392	0.659968
H172	H	1.332833	0.057608	1.159968
Cl173	Cl	0.894381	-0.507045	0.728628
Cl174	Cl	1.394381	-0.007045	1.228628
H175	H	0.832820	-0.442439	0.541255
H176	H	1.332820	0.057561	1.041255
Cl177	Cl	1.029238	-0.932097	0.270786
Cl178	Cl	1.529238	-0.432097	0.770786
Cl179	Cl	0.331832	-0.343113	0.174794
Cl180	Cl	0.831832	0.156887	0.674794
Cl181	Cl	0.533804	-0.463630	0.392400
Cl182	Cl	1.033804	0.036370	0.892400
H183	H	0.890171	-0.919365	0.405362
H184	H	1.390171	-0.419365	0.905362
Cl185	Cl	1.029817	-0.781615	0.271117
Cl186	Cl	1.529817	-0.281615	0.771117
Cl187	Cl	0.997406	-0.779753	0.390757
Cl188	Cl	1.497406	-0.279753	0.890757
Cl189	Cl	0.996069	-0.249373	1.078215
Cl190	Cl	1.496069	0.250627	1.578215
Cl191	Cl	0.277807	-0.249440	0.211942
Cl192	Cl	0.777807	0.250560	0.711942
Cl193	Cl	0.479790	-0.369965	0.429543
Cl194	Cl	0.979790	0.130035	0.929543
H195	H	0.822957	-0.920524	0.237924
H196	H	1.322957	-0.420524	0.737924
H197	H	0.144610	-0.270415	0.229705
H198	H	0.644610	0.229585	0.729705
H199	H	0.465054	-0.345775	0.199743
H200	H	0.965054	0.154225	0.699743
Cl201	Cl	0.681447	-0.249527	0.211801
Cl202	Cl	1.181447	0.250473	0.711801
Cl203	Cl	0.916780	-0.205819	0.728644
Cl204	Cl	1.416780	0.294181	1.228644
H205	H	0.942753	-0.919614	0.204551
H206	H	1.442753	-0.419614	0.704551
H207	H	0.942785	-0.792391	0.204823
H208	H	1.442785	-0.292391	0.704823
H209	H	0.826071	-0.792953	0.235172
H210	H	1.326071	-0.292953	0.735172
Cl211	Cl	0.998617	-0.929356	0.390115
Cl212	Cl	1.498617	-0.429356	0.890115
H213	H	0.803279	-0.919153	0.320599
H214	H	1.303279	-0.419153	0.820599
