data_functionalizedCrystal
_audit_creation_method	'MofGen! by Chris Wilmer'
_symmetry_space_group_name_H-M	'P1'
_symmetry_Int_Tables_number	1
_symmetry_cell_setting	triclinic
loop_
_symmetry_equiv_pos_as_xyz
  x,y,z
_cell_length_a	20.299480
_cell_length_b	20.298645
_cell_length_c	20.294903
_cell_angle_alpha	60.007695
_cell_angle_beta	60.015306
_cell_angle_gamma	59.991039
loop_
_atom_site_label
_atom_site_type_symbol
_atom_site_fract_x
_atom_site_fract_y
_atom_site_fract_z
O1	O	0.091305	-0.962534	0.804873
O2	O	0.034397	-0.749399	0.648508
O3	O	0.169355	-0.884263	0.648401
O4	O	-0.043654	-0.827670	0.804979
O5	O	0.214132	-0.839502	0.693072
O6	O	0.079173	-0.704639	0.693178
O7	O	0.136081	-0.917774	0.849544
Zn8	Zn	0.114736	-0.804099	0.778453
Zn9	Zn	0.055742	-0.863073	0.719598
O10	O	0.001122	-0.782910	0.849650
N11	N	0.155000	-0.763857	0.818624
N12	N	0.015485	-0.903322	0.679427
C13	C	0.179343	-0.615641	0.842971
C14	C	0.179443	-0.739552	0.966834
C15	C	0.303264	-0.739536	0.842917
C16	C	0.179356	-0.739528	0.842952
C17	C	0.210353	-0.708565	0.873918
C18	C	-0.132622	-0.927446	0.654695
C19	C	-0.008595	-0.927622	0.530981
C20	C	-0.008820	-1.051459	0.654914
C21	C	-0.008800	-0.927618	0.654995
C22	C	-0.039709	-0.958538	0.623897
N23	N	0.376268	-0.763873	0.818558
O24	O	0.652281	-0.777347	0.619856
O25	O	0.652556	-0.934198	0.832777
O26	O	0.652445	-0.933836	0.697731
O27	O	0.652392	-0.777709	0.754902
O28	O	0.518259	-0.889182	0.742556
O29	O	0.518369	-0.889544	0.877602
O30	O	0.518095	-0.732693	0.664680
Zn31	Zn	0.496927	-0.804029	0.778258
Zn32	Zn	0.673724	-0.862862	0.719200
O33	O	0.518205	-0.733055	0.799726
N34	N	0.794383	-0.903019	0.678891
N35	N	0.154981	-0.542636	0.818657
O36	O	-0.043628	-0.266455	0.805024
O37	O	0.169291	-0.266451	0.648191
O38	O	0.034217	-0.266468	0.648577
O39	O	0.091446	-0.266438	0.804638
O40	O	0.078998	-0.400670	0.693303
O41	O	0.214071	-0.400653	0.692918
O42	O	0.001152	-0.400657	0.849750
Zn43	Zn	0.114722	-0.421963	0.778435
Zn44	Zn	0.055722	-0.245145	0.719506
O45	O	0.136226	-0.400640	0.849364
N46	N	0.015453	-0.124472	0.679286
N47	N	0.155155	-0.763898	1.039838
O48	O	0.141555	-0.962488	1.315987
O49	O	-0.015254	-0.749480	1.316022
O50	O	-0.014890	-0.884527	1.315962
O51	O	0.141192	-0.827441	1.316047
O52	O	0.029815	-0.839777	1.181768
O53	O	0.029452	-0.704730	1.181828
O54	O	0.186261	-0.917739	1.181793
Zn55	Zn	0.114954	-0.804130	1.160504
Zn56	Zn	0.056053	-0.863089	1.337311
O57	O	0.185897	-0.782692	1.181853
N58	N	0.015850	-0.903330	1.457977
C59	C	0.051451	-0.700162	0.649301
C60	C	0.218580	-0.867175	0.649169
C61	C	0.119026	-0.967011	0.848750
C62	C	-0.048103	-0.799998	0.848882
C63	C	0.585495	-0.933471	0.882014
C64	C	0.585361	-0.933023	0.714775
C65	C	0.585151	-0.733419	0.615444
C66	C	0.585291	-0.733869	0.782682
C67	C	0.218449	-0.333386	0.648902
C68	C	0.051232	-0.333573	0.649435
C69	C	-0.048061	-0.333556	0.848984
C70	C	0.119212	-0.333537	0.848507
C71	C	-0.014496	-0.700269	1.248929
C72	C	-0.014037	-0.867500	1.248828
C73	C	0.185503	-0.966949	1.248886
C74	C	0.185054	-0.799709	1.248957
H75	H	0.279759	-0.879241	0.599998
C76	C	0.135760	-0.333530	0.914746
C77	C	0.069553	-0.333529	0.997515
C78	C	0.086101	-0.333522	1.063754
C79	C	0.168855	-0.333517	1.047224
C80	C	0.235068	-0.333518	0.964452
C81	C	0.218520	-0.333525	0.898213
H82	H	0.008288	-0.333533	1.009754
H83	H	0.037085	-0.333521	1.125027
H84	H	0.181105	-0.333512	1.096258
H85	H	0.296332	-0.333514	0.952212
H86	H	0.267535	-0.333525	0.836939
H87	H	0.131184	-1.028235	0.897860
H88	H	0.585383	-0.982069	0.702538
H89	H	0.038975	-0.333574	0.600406
C90	C	0.585596	-0.999998	0.964624
C91	C	0.585658	-1.082647	0.980735
C92	C	0.585759	-1.149174	1.063345
C93	C	0.585799	-1.133051	1.129843
C94	C	0.585737	-1.050398	1.113734
C95	C	0.585636	-0.983871	1.031124
H96	H	0.585629	-1.094586	0.931508
H97	H	0.585805	-1.210360	1.075270
H98	H	0.585873	-1.182298	1.190996
H99	H	0.585766	-1.038459	1.162962
H100	H	0.585590	-0.922685	1.019199
H101	H	-0.109285	-0.787936	0.898049
C102	C	-0.081008	-0.617626	1.248942
C103	C	-0.064891	-0.551138	1.248978
C104	C	-0.131404	-0.468495	1.248990
C105	C	-0.214032	-0.452340	1.248966
C106	C	-0.230152	-0.518830	1.248930
C107	C	-0.163640	-0.601473	1.248918
H108	H	-0.003722	-0.563095	1.248995
H109	H	-0.119470	-0.419275	1.249017
H110	H	-0.263268	-0.391163	1.248976
H111	H	-0.291322	-0.506873	1.248913
H112	H	-0.175574	-0.650694	1.248891
H113	H	-0.063051	-0.879692	1.248749
C114	C	0.251303	-0.783218	1.248978
C115	C	0.286040	-0.835462	1.318665
C116	C	0.352289	-0.818971	1.318686
C117	C	0.383801	-0.750236	1.249020
C118	C	0.349065	-0.697988	1.179328
C119	C	0.282816	-0.714479	1.179307
H120	H	0.262713	-0.886348	1.370240
H121	H	0.378003	-0.857649	1.370277
H122	H	0.432843	-0.738029	1.249036
H123	H	0.372392	-0.647102	1.127752
H124	H	0.257101	-0.675801	1.127716
H125	H	0.585062	-0.684173	0.554297
H126	H	-0.109209	-0.333558	0.898221
H127	H	0.234736	-1.028122	1.248866
C128	C	0.300882	-0.332876	0.582213
C129	C	0.353084	-0.402313	0.547137
C130	C	0.435517	-0.401802	0.480448
C131	C	0.465747	-0.331855	0.448834
C132	C	0.413544	-0.262413	0.483910
C133	C	0.331111	-0.262924	0.550599
H134	H	0.330706	-0.454096	0.570540
H135	H	0.474161	-0.453208	0.454483
H136	H	0.526769	-0.331478	0.399467
H137	H	0.435922	-0.210630	0.460508
H138	H	0.292467	-0.211518	0.576565
C139	C	0.585266	-0.667606	0.799203
C140	C	0.585347	-0.684129	0.881944
C141	C	0.585322	-0.617867	0.898466
C142	C	0.585217	-0.535082	0.832247
C143	C	0.585137	-0.518555	0.749500
C144	C	0.585161	-0.584818	0.732979
H145	H	0.585424	-0.745415	0.930969
H146	H	0.585382	-0.630101	0.959720
H147	H	0.585199	-0.486031	0.844477
H148	H	0.585059	-0.457270	0.700476
H149	H	0.585102	-0.572583	0.671724
H150	H	0.039295	-0.638935	0.600193
