data_functionalizedCrystal
_audit_creation_method	'MofGen! by Chris Wilmer'
_symmetry_space_group_name_H-M	'P1'
_symmetry_Int_Tables_number	1
_symmetry_cell_setting	triclinic
loop_
_symmetry_equiv_pos_as_xyz
  x,y,z
_cell_length_a	11.026607
_cell_length_b	17.038272
_cell_length_c	9.482900
_cell_angle_alpha	100.012096
_cell_angle_beta	78.636152
_cell_angle_gamma	99.848786
loop_
_atom_site_label
_atom_site_type_symbol
_atom_site_fract_x
_atom_site_fract_y
_atom_site_fract_z
O1	O	1.662374	0.322506	-0.120910
O2	O	1.305163	0.284676	-0.120910
O3	O	1.481644	0.189477	-0.120899
O4	O	1.485893	0.417705	-0.120922
O5	O	1.445807	0.208914	0.120891
O6	O	1.269325	0.304112	0.120880
O7	O	1.626537	0.341943	0.120880
Cu8	Cu	1.444659	0.324802	0.142957
Cu9	Cu	1.487041	0.301816	-0.142988
O10	O	1.450056	0.437141	0.120868
C11	C	1.241313	0.287415	-0.000015
C12	C	1.104451	0.266610	-0.000015
C13	C	1.036577	0.324055	-0.000022
C14	C	0.895123	0.302554	-0.000021
C15	C	1.459863	0.169523	-0.000004
C16	C	1.448341	0.081107	-0.000004
C17	C	1.554125	0.045899	-0.000003
C18	C	1.543294	-0.037179	-0.000016
C19	C	1.426676	-0.085048	-0.000021
C20	C	1.320885	-0.049835	-0.000027
C21	C	1.331719	0.033241	-0.000024
C22	C	1.388403	-0.336201	-0.000041
C23	C	1.377576	-0.419281	-0.000040
C24	C	1.599987	-0.406621	-0.000032
C25	C	1.610809	-0.323543	-0.000020
C26	C	1.505019	-0.288338	-0.000034
C27	C	1.415602	-0.169967	-0.000031
C28	C	1.516096	-0.203421	-0.000034
C29	C	1.690388	0.339203	-0.000018
C30	C	1.827251	0.360008	-0.000028
C31	C	1.471837	0.457095	-0.000030
C32	C	1.483360	0.545511	-0.000039
N33	N	1.414859	0.340969	0.344075
N34	N	1.516850	0.285644	-0.344106
C35	C	1.478242	0.306580	0.416279
C36	C	1.453458	0.320039	0.583695
H37	H	1.083189	0.389155	-0.000020
C38	C	1.192608	-0.102487	-0.000029
H39	H	1.201302	-0.157006	-0.000014
H40	H	1.161185	-0.098248	-0.084344
H41	H	1.136198	-0.084693	0.084301
H42	H	1.589463	0.246231	0.593775
H43	H	0.848520	0.237447	-0.000052
C44	C	1.316745	0.394192	0.427982
H45	H	1.280181	0.414014	0.360973
H46	H	1.355831	0.438151	0.487362
H47	H	1.253666	0.363233	0.487360
C48	C	1.355338	0.373264	0.667596
H49	H	1.318775	0.393086	0.600586
H50	H	1.394425	0.417223	0.726976
H51	H	1.292259	0.342305	0.726973
C52	C	1.576335	0.253343	0.332365
H53	H	1.580129	0.251284	0.230851
H54	H	1.553606	0.200504	0.357249
H55	H	1.655799	0.275408	0.357215
C56	C	1.041499	0.178664	-0.000006
H57	H	1.102424	0.145412	0.000008
H58	H	1.004117	0.161380	-0.084320
H59	H	0.979129	0.174940	0.084326
C60	C	1.739084	-0.270890	-0.000005
H61	H	1.730382	-0.216369	0.000015
H62	H	1.795510	-0.288673	-0.084316
H63	H	1.770487	-0.275133	0.084330
H64	H	1.629434	-0.065841	-0.000012
H65	H	0.873856	0.425112	-0.000025
H66	H	1.649086	0.084868	0.000010
H67	H	1.686115	-0.435294	-0.000024
C68	C	1.249295	-0.471938	-0.000071
H69	H	1.187844	-0.439075	-0.000096
H70	H	1.227937	-0.497837	0.084242
H71	H	1.252967	-0.511380	-0.084404
H72	H	1.302261	-0.307547	-0.000052
C73	C	1.215357	0.071970	-0.000022
H74	H	1.144350	0.031566	-0.000013
H75	H	1.227459	0.097341	-0.084339
H76	H	1.202461	0.110890	0.084307
H77	H	1.320650	-0.208950	-0.000032
H78	H	1.611051	-0.164446	-0.000063
