data_functionalizedCrystal
_audit_creation_method	'MofGen! by Chris Wilmer'
_symmetry_space_group_name_H-M	'P1'
_symmetry_Int_Tables_number	1
_symmetry_cell_setting	triclinic
loop_
_symmetry_equiv_pos_as_xyz
  x,y,z
_cell_length_a	12.759401
_cell_length_b	12.594516
_cell_length_c	12.759393
_cell_angle_alpha	90.029124
_cell_angle_beta	90.018496
_cell_angle_gamma	90.016214
loop_
_atom_site_label
_atom_site_type_symbol
_atom_site_fract_x
_atom_site_fract_y
_atom_site_fract_z
Zn1	Zn	1.606246	-0.423675	0.593999
Zn2	Zn	1.606136	-0.601694	0.418327
Zn3	Zn	1.430547	-0.423730	0.418339
Zn4	Zn	1.430532	-0.601612	0.593968
O5	O	1.518365	-0.512678	0.506158
O6	O	1.753252	-0.447300	0.570704
O7	O	1.582804	-0.578144	0.271307
O8	O	1.453907	-0.274777	0.441658
O9	O	1.753171	-0.578090	0.441638
O10	O	1.582991	-0.274736	0.570715
O11	O	1.453800	-0.447395	0.271316
O12	O	1.283524	-0.447316	0.441628
O13	O	1.453880	-0.577951	0.740993
O14	O	1.283513	-0.578005	0.570663
O15	O	1.582976	-0.447221	0.741016
O16	O	1.582789	-0.750629	0.441608
O17	O	1.453774	-0.750569	0.570651
C18	C	1.245398	-0.512658	0.506144
C19	C	1.128621	-0.512676	0.506163
C20	C	1.073781	-0.580834	0.573240
C21	C	0.964057	-0.580848	0.573251
C22	C	0.964023	-0.444541	0.439099
C23	C	1.073745	-0.444523	0.439094
C24	C	1.128657	-0.648987	0.640308
C25	C	1.073816	-0.717152	0.707390
C26	C	0.964092	-0.717165	0.707402
C27	C	0.909209	-0.649014	0.640331
C28	C	1.518296	-0.789219	0.506148
C29	C	1.518363	-0.907524	0.506179
C30	C	1.448185	-0.976783	0.576316
C31	C	1.422585	-1.047654	0.480449
C32	C	1.544058	-1.047453	0.602062
C33	C	1.492713	-0.976836	0.410261
C34	C	1.614230	-0.976629	0.531938
C35	C	1.588667	-1.047468	0.436006
C36	C	1.792398	-0.512698	0.506173
C37	C	1.909175	-0.512707	0.506179
C38	C	1.518439	-0.512570	0.780192
C39	C	1.518470	-0.512525	0.896968
C40	C	1.518463	-0.235057	0.506192
C41	C	1.518505	-0.116752	0.506206
C42	C	1.518352	-0.512708	0.233191
C43	C	1.518525	-0.512454	0.116415
C44	C	1.585700	-0.444447	0.951844
C45	C	1.585725	-0.444409	1.061568
C46	C	1.451288	-0.580534	1.061531
C47	C	1.451258	-0.580567	0.951809
C48	C	1.652912	-0.376405	0.897003
C49	C	1.720147	-0.308323	0.951879
C50	C	1.720172	-0.308284	1.061603
C51	C	1.652962	-0.376328	1.116451
H52	H	0.919444	-0.772661	0.762030
C53	C	1.853059	-0.173741	1.050613
C54	C	1.794074	-0.233450	1.121924
H55	H	1.898691	-0.127548	1.087853
H56	H	1.807291	-0.133035	1.007824
H57	H	1.893212	-0.220148	1.007809
H58	H	1.753915	-0.187043	1.164723
H59	H	1.839848	-0.274159	1.164730
H60	H	1.652975	-0.376279	1.205796
H61	H	1.565734	-1.078472	0.683138
C62	C	1.241930	-0.383976	0.379530
C63	C	1.134036	-0.369603	0.365363
H64	H	1.279149	-0.337715	0.334016
H65	H	1.259890	-0.455460	0.364029
H66	H	1.259924	-0.368482	0.450150
H67	H	1.116040	-0.385105	0.294744
H68	H	1.116068	-0.298102	0.380856
C69	C	1.750239	-0.970052	0.661859
C70	C	1.723559	-0.934472	0.561382
H71	H	1.817731	-0.944017	0.680045
H72	H	1.750932	-1.045458	0.662710
H73	H	1.700153	-0.944792	0.710967
H74	H	1.773641	-0.959739	0.512272
H75	H	1.722874	-0.859050	0.560523
H76	H	1.774861	-0.252918	0.907214
H77	H	1.396567	-0.635932	1.106198
H78	H	1.341578	-1.078874	0.458684
C79	C	1.726069	-0.302344	0.739843
C80	C	1.652882	-0.376442	0.776394
H81	H	1.726044	-0.302366	0.665385
H82	H	1.793855	-0.320758	0.764663
H83	H	1.707929	-0.233650	0.764682
H84	H	1.671026	-0.445137	0.751562
H85	H	1.585081	-0.358034	0.751563
H86	H	1.470943	-0.945945	0.329163
C87	C	1.242028	-0.777660	0.766937
C88	C	1.134140	-0.792059	0.781113
H89	H	1.279265	-0.823911	0.812449
H90	H	1.260022	-0.706171	0.782434
H91	H	1.259967	-0.793152	0.696316
H92	H	1.116200	-0.776560	0.851733
H93	H	1.116138	-0.863565	0.765623
H94	H	1.396498	-0.635985	0.907128
C95	C	0.840592	-0.429617	0.297801
C96	C	0.903702	-0.369644	0.365364
H97	H	0.803360	-0.383380	0.252272
H98	H	0.792229	-0.470199	0.337752
H99	H	0.883391	-0.475935	0.257545
H100	H	0.860902	-0.323332	0.405625
H101	H	0.952071	-0.329044	0.325408
C102	C	1.285785	-0.675976	0.540302
C103	C	1.249266	-0.648975	0.640298
H104	H	1.360244	-0.675975	0.540298
H105	H	1.260955	-0.625633	0.490774
H106	H	1.260937	-0.744643	0.522030
H107	H	1.274109	-0.580305	0.658568
H108	H	1.274108	-0.699320	0.689842
C109	C	0.752048	-0.723190	0.713439
C110	C	0.788597	-0.648991	0.640380
H111	H	0.677589	-0.723170	0.713471
H112	H	0.776934	-0.704867	0.781245
H113	H	0.776821	-0.791858	0.695136
H114	H	0.763830	-0.580321	0.658688
H115	H	0.763700	-0.667308	0.572560
H116	H	1.648075	-1.078309	0.376636
C117	C	1.267662	-0.970731	0.629045
C118	C	1.367931	-0.934871	0.656268
H119	H	1.218117	-0.944848	0.678398
H120	H	1.266724	-1.046141	0.629166
H121	H	1.250137	-0.945507	0.561113
H122	H	1.385459	-0.960101	0.724197
H123	H	1.368872	-0.859445	0.656158
