data_functionalizedCrystal
_audit_creation_method	'MofGen! by Chris Wilmer'
_symmetry_space_group_name_H-M	'P1'
_symmetry_Int_Tables_number	1
_symmetry_cell_setting	triclinic
loop_
_symmetry_equiv_pos_as_xyz
  x,y,z
_cell_length_a	13.033291
_cell_length_b	11.169416
_cell_length_c	11.169409
_cell_angle_alpha	90.030874
_cell_angle_beta	82.788658
_cell_angle_gamma	82.819239
loop_
_atom_site_label
_atom_site_type_symbol
_atom_site_fract_x
_atom_site_fract_y
_atom_site_fract_z
Zn1	Zn	1.597832	0.244857	-0.912092
Zn2	Zn	2.097832	0.744857	-0.412092
Zn3	Zn	1.597736	0.445611	-0.711400
Zn4	Zn	2.097736	0.945611	-0.211400
Zn5	Zn	1.423056	0.270397	-0.685881
Zn6	Zn	1.923056	0.770397	-0.185881
Zn7	Zn	1.423063	0.470966	-0.886514
Zn8	Zn	1.923063	0.970966	-0.386514
O9	O	1.510422	0.357958	-0.798972
O10	O	2.010422	0.857958	-0.298972
O11	O	1.744065	0.250187	-0.906853
O12	O	2.244065	0.750187	-0.406853
O13	O	1.574521	0.422446	-0.540058
O14	O	2.074521	0.922446	-0.040058
O15	O	1.446278	0.099054	-0.715913
O16	O	1.946278	0.599054	-0.215913
O17	O	1.743995	0.397681	-0.759406
O18	O	2.243995	0.897681	-0.259406
O19	O	1.574686	0.080289	-0.882109
O20	O	2.074686	0.580289	-0.382109
O21	O	1.446185	0.293717	-0.521310
O22	O	1.946185	0.793717	-0.021310
O23	O	1.276811	0.318302	-0.691112
O24	O	1.776811	0.818302	-0.191112
O25	O	1.446289	0.440894	-1.057863
O26	O	1.946289	0.940894	-0.557863
O27	O	1.276816	0.465659	-0.838516
O28	O	1.776816	0.965659	-0.338516
O29	O	1.574692	0.274773	-1.076655
O30	O	2.074692	0.774773	-0.576655
O31	O	1.574528	0.616930	-0.734604
O32	O	2.074528	1.116930	-0.234604
O33	O	1.446196	0.635558	-0.863261
O34	O	1.946196	1.135558	-0.363261
C35	C	1.238894	0.397505	-0.759270
C36	C	1.738894	0.897505	-0.259270
C37	C	1.122733	0.414452	-0.742314
C38	C	1.622733	0.914452	-0.242314
C39	C	0.950924	0.366648	-0.790306
C40	C	1.450924	0.866648	-0.290306
C41	C	1.070983	0.349134	-0.807830
C42	C	1.570983	0.849134	-0.307830
C43	C	1.510380	0.669788	-0.798956
C44	C	2.010380	1.169788	-0.298956
C45	C	1.510458	0.803177	-0.799004
C46	C	2.010458	1.303177	-0.299004
C47	C	1.510502	0.357813	-1.112026
C48	C	2.010502	0.857813	-0.612026
C49	C	1.510536	0.357751	-1.245431
C50	C	2.010536	0.857751	-0.745431
C51	C	1.783010	0.318257	-0.838829
C52	C	2.283010	0.818257	-0.338829
C53	C	1.899171	0.301339	-0.855814
C54	C	2.399171	0.801339	-0.355814
C55	C	1.510492	0.044905	-0.799017
C56	C	2.010492	0.544905	-0.299017
C57	C	1.510522	-0.088499	-0.799037
C58	C	2.010522	0.411501	-0.299037
C59	C	1.510402	0.358007	-0.487144
C60	C	2.010402	0.858007	0.012856
C61	C	1.510570	0.357701	-0.353769
C62	C	2.010570	0.857701	0.146231
H63	H	1.078164	0.483336	-0.673252
H64	H	1.578164	0.983336	-0.173252
F65	F	0.892667	0.456673	-0.700036
F66	F	1.392667	0.956673	-0.200036
F67	F	1.129236	0.259092	-0.898094
F68	F	1.629236	0.759092	-0.398094
H69	H	0.943746	0.232455	-0.924865
H70	H	1.443746	0.732455	-0.424865
