data_functionalizedCrystal
_audit_creation_method	'MofGen! by Chris Wilmer'
_symmetry_space_group_name_H-M	'P1'
_symmetry_Int_Tables_number	1
_symmetry_cell_setting	triclinic
loop_
_symmetry_equiv_pos_as_xyz
  x,y,z
_cell_length_a	6.817900
_cell_length_b	11.102250
_cell_length_c	11.168136
_cell_angle_alpha	91.985249
_cell_angle_beta	108.508683
_cell_angle_gamma	108.605052
loop_
_atom_site_label
_atom_site_type_symbol
_atom_site_fract_x
_atom_site_fract_y
_atom_site_fract_z
V1	V	-4.110388	-0.175859	-0.393705
O2	O	-4.069442	0.008431	-0.386204
O3	O	-4.087172	-0.348680	-0.391017
O4	O	-4.086671	-0.173162	-0.565410
O5	O	-4.069948	-0.168301	-0.210604
V6	V	-4.587554	-0.153815	-0.371804
O7	O	-4.385590	-0.224215	-0.441746
O8	O	-4.762549	-0.105459	-0.323762
O9	O	-4.387563	0.019006	-0.374491
O10	O	-4.745896	-0.338105	-0.379304
O11	O	-4.745391	-0.161372	-0.554904
O12	O	-4.388065	-0.156511	-0.200098
C13	C	-3.937501	-0.390810	-0.384808
C14	C	-3.999972	-0.532093	-0.383755
C15	C	-3.936860	-0.166918	-0.607262
C16	C	-3.998918	-0.165857	-0.747632
C17	C	-4.028172	-0.713057	-0.266621
C18	C	-3.969477	-0.580307	-0.267619
C19	C	-4.089148	-0.616635	-0.498901
C20	C	-4.147827	-0.749382	-0.497901
C21	C	-3.959089	-0.692082	-0.133092
C22	C	-3.900393	-0.559333	-0.134090
C23	C	-4.201442	-0.171412	-0.816324
C24	C	-4.265587	-0.170315	-0.961405
C25	C	-4.200576	0.061129	-0.380697
C26	C	-4.117346	0.202411	-0.381758
C27	C	-4.201217	-0.162760	-0.158240
C28	C	-4.118396	-0.163814	-0.017868
H29	H	-4.220411	-0.818203	-0.591656
F30	F	-4.492368	-0.176538	-1.038584
H31	H	-4.101597	-0.731880	-0.096345
H32	H	-3.873014	-0.160281	-0.796228
H33	H	-4.113955	-0.577368	-0.593461
F34	F	-3.760602	-0.722148	-0.059400
H35	H	-3.999189	-0.520224	-0.087926
F36	F	-3.658077	-0.490299	-0.073808
H37	H	-4.327338	-0.176971	-0.767726
F38	F	-3.891621	-0.157609	-0.940699
