data_functionalizedCrystal
_audit_creation_method	'MofGen! by Chris Wilmer'
_symmetry_space_group_name_H-M	'P1'
_symmetry_Int_Tables_number	1
_symmetry_cell_setting	triclinic
loop_
_symmetry_equiv_pos_as_xyz
  x,y,z
_cell_length_a	27.732048
_cell_length_b	27.732048
_cell_length_c	26.210047
_cell_angle_alpha	90.000479
_cell_angle_beta	89.996535
_cell_angle_gamma	97.357345
loop_
_atom_site_label
_atom_site_type_symbol
_atom_site_fract_x
_atom_site_fract_y
_atom_site_fract_z
O1	O	0.640931	-0.057510	-0.042369
O2	O	0.974264	0.275823	0.290965
O3	O	1.307598	0.609157	0.624298
O4	O	0.500138	-0.066256	-0.042385
O5	O	0.833471	0.267078	0.290948
O6	O	1.166804	0.600411	0.624282
O7	O	0.574907	0.008514	-0.042367
O8	O	0.908240	0.341847	0.290967
O9	O	1.241574	0.675181	0.624300
O10	O	0.566162	-0.132279	-0.042387
O11	O	0.899495	0.201054	0.290946
O12	O	1.232828	0.534387	0.624280
O13	O	0.574893	0.008502	0.042491
O14	O	0.908226	0.341836	0.375825
O15	O	1.241559	0.675169	0.709158
O16	O	0.500123	-0.066267	0.042473
O17	O	0.833457	0.267066	0.375806
O18	O	1.166790	0.600399	0.709140
O19	O	0.640917	-0.057522	0.042489
O20	O	0.974250	0.275812	0.375823
O21	O	1.307583	0.609145	0.709156
Cu22	Cu	0.570519	-0.061896	0.050229
Cu23	Cu	0.903852	0.271438	0.383563
Cu24	Cu	1.237185	0.604771	0.716896
Cu25	Cu	0.570536	-0.061882	-0.050125
Cu26	Cu	0.903869	0.271452	0.283208
Cu27	Cu	1.237202	0.604785	0.616542
O28	O	0.566147	-0.132291	0.042471
O29	O	0.899481	0.201042	0.375804
O30	O	1.232814	0.534375	0.709138
C31	C	0.482124	-0.066078	0.000042
C32	C	0.815457	0.267256	0.333376
C33	C	1.148790	0.600589	0.666709
C34	C	0.428469	-0.065525	0.000036
C35	C	0.761802	0.267808	0.333370
C36	C	1.095135	0.601142	0.666703
C37	C	0.089654	-0.106229	0.000053
C38	C	0.422987	0.227105	0.333386
C39	C	0.756320	0.560438	0.666719
C40	C	-0.112006	-0.104178	0.000057
C41	C	0.221327	0.229156	0.333391
C42	C	0.554661	0.562489	0.666724
O43	O	-0.143262	-0.141398	0.000074
O44	O	0.190072	0.191935	0.333408
O45	O	0.523405	0.525268	0.666741
N46	N	-0.131130	-0.059843	0.000063
N47	N	0.202204	0.273491	0.333396
N48	N	0.535537	0.606824	0.666730
C49	C	-0.099835	-0.016017	0.000071
C50	C	0.233498	0.317316	0.333404
C51	C	0.566832	0.650650	0.666737
O52	O	-0.120728	0.021740	0.000081
O53	O	0.212605	0.355073	0.333414
O54	O	0.545938	0.688407	0.666747
C55	C	0.101824	-0.018068	0.000069
C56	C	0.435157	0.315265	0.333403
C57	C	0.768490	0.648598	0.666736
C58	C	0.120944	-0.062407	0.000059
C59	C	0.454278	0.270927	0.333392
C60	C	0.787611	0.604260	0.666725
C61	C	0.108775	-0.150563	0.000043
C62	C	0.442108	0.182770	0.333376
C63	C	0.775442	0.516103	0.666709
C64	C	0.159187	-0.151076	0.000039
C65	C	0.492520	0.182258	0.333372
C66	C	0.825853	0.515591	0.666705
C67	C	0.190477	-0.107253	0.000045
C68	C	0.523811	0.226080	0.333378
C69	C	0.857144	0.559413	0.666711
C70	C	0.171356	-0.062919	0.000055
C71	C	0.504690	0.270415	0.333388
C72	C	0.838023	0.603748	0.666721
C73	C	0.133117	0.025757	0.000081
C74	C	0.466451	0.359090	0.333414
C75	C	0.799784	0.692423	0.666747
C76	C	0.183535	0.025240	0.000082
C77	C	0.516868	0.358573	0.333415
C78	C	0.850201	0.691906	0.666748
C79	C	0.202655	-0.019098	0.000071
C80	C	0.535989	0.314235	0.333404
C81	C	0.869322	0.647568	0.666738
C82	C	0.253059	-0.019609	0.000057
C83	C	0.586392	0.313724	0.333390
C84	C	0.919725	0.647058	0.666724
N85	N	0.272183	-0.063944	0.000051
N86	N	0.605516	0.269389	0.333385
N87	N	0.938849	0.602723	0.666718
C88	C	0.240892	-0.107766	0.000045
C89	C	0.574225	0.225567	0.333379
C90	C	0.907559	0.558900	0.666712
C91	C	-0.205709	-0.014943	0.000070
C92	C	0.127624	0.318390	0.333404
C93	C	0.460957	0.651724	0.666737
C94	C	-0.256124	-0.014430	0.000070
C95	C	0.077210	0.318903	0.333403
C96	C	0.410543	0.652237	0.666736
C97	C	-0.268291	-0.102591	0.000057
C98	C	0.065042	0.230742	0.333391
C99	C	0.398376	0.564076	0.666724
C100	C	-0.217876	-0.103104	0.000054
C101	C	0.115458	0.230230	0.333388
C102	C	0.448791	0.563563	0.666721
C103	C	-0.186585	-0.059278	0.000065
C104	C	0.146748	0.274055	0.333398
C105	C	0.480081	0.607388	0.666731
C106	C	0.346761	-0.108839	0.000036
C107	C	0.680094	0.224495	0.333370
C108	C	1.013428	0.557828	0.666703
C109	C	0.397178	-0.109347	0.000030
C110	C	0.730511	0.223986	0.333364
C111	C	1.063845	0.557319	0.666697
C112	C	0.409341	-0.021186	0.000045
C113	C	0.742674	0.312147	0.333379
C114	C	1.076008	0.645480	0.666712
C115	C	0.358929	-0.020678	0.000049
C116	C	0.692262	0.312656	0.333382
C117	C	1.025595	0.645989	0.666715
C118	C	0.327639	-0.064508	0.000046
C119	C	0.660973	0.268825	0.333379
C120	C	0.994306	0.602159	0.666713
O121	O	0.284343	0.017592	0.000046
O122	O	0.617676	0.350925	0.333379
O123	O	0.951009	0.684259	0.666713
O124	O	0.261794	-0.145518	0.000047
O125	O	0.595128	0.187816	0.333380
O126	O	0.928461	0.521149	0.666713
C127	C	0.039242	-0.105716	0.000057
C128	C	0.372575	0.227617	0.333390
C129	C	0.705908	0.560950	0.666723
C130	C	0.020120	-0.061382	0.000067
C131	C	0.353454	0.271951	0.333400
C132	C	0.686787	0.605285	0.666733
C133	C	0.051411	-0.017560	0.000073
C134	C	0.384744	0.315774	0.333406
C135	C	0.718078	0.649107	0.666740
C136	C	-0.030294	-0.060869	0.000066
C137	C	0.303039	0.272464	0.333399
C138	C	0.636373	0.605798	0.666733
C139	C	-0.061585	-0.104691	0.000060
C140	C	0.271749	0.228642	0.333393
C141	C	0.605082	0.561975	0.666727
C142	C	-0.042461	-0.149026	0.000054
C143	C	0.290872	0.184307	0.333388
C144	C	0.624206	0.517640	0.666721
C145	C	0.007951	-0.149539	0.000050
C146	C	0.341284	0.183795	0.333384
C147	C	0.674618	0.517128	0.666717
C148	C	0.032287	0.026775	0.000078
C149	C	0.365621	0.360109	0.333412
C150	C	0.698954	0.693442	0.666745
C151	C	-0.018125	0.027284	0.000082
C152	C	0.315208	0.360617	0.333415
C153	C	0.648541	0.693951	0.666749
C154	C	-0.049416	-0.016538	0.000076
C155	C	0.283917	0.316795	0.333409
C156	C	0.617251	0.650129	0.666742
C157	C	0.574716	0.026515	0.000064
C158	C	0.908050	0.359848	0.333397
C159	C	1.241383	0.693182	0.666731
C160	C	0.574164	0.080170	0.000068
C161	C	0.907497	0.413503	0.333401
C162	C	1.240830	0.746837	0.666735
C163	C	0.658931	-0.057699	0.000061
C164	C	0.992264	0.275634	0.333394
C165	C	1.325598	0.608967	0.666728
C166	C	0.712586	-0.058252	0.000064
C167	C	1.045919	0.275081	0.333397
C168	C	1.379252	0.608414	0.666730
C169	C	0.566338	-0.150292	0.000040
C170	C	0.899671	0.183041	0.333373
C171	C	1.233005	0.516374	0.666706
C172	C	0.566891	-0.203947	0.000032
C173	C	0.900224	0.129386	0.333365
C174	C	1.233557	0.462720	0.666699
N175	N	0.570510	-0.061905	0.120813
N176	N	0.903844	0.271428	0.454147
N177	N	1.237177	0.604762	0.787480
C178	C	0.614867	0.418985	0.000046
C179	C	0.948201	0.752318	0.333380
C180	C	1.281534	1.085652	0.666713
C181	C	0.612816	0.620645	0.000039
C182	C	0.946150	0.953978	0.333372
C183	C	1.279483	1.287311	0.666706
O184	O	0.650037	0.651900	0.000021
O185	O	0.983370	0.985234	0.333354
O186	O	1.316704	1.318567	0.666688
N187	N	0.568481	0.639768	0.000034
N188	N	0.901814	0.973102	0.333368
N189	N	1.235148	1.306435	0.666701
C190	C	0.524656	0.608474	0.000028
C191	C	0.857989	0.941807	0.333362
C192	C	1.191322	1.275140	0.666695
O193	O	0.486899	0.629367	0.000019
O194	O	0.820232	0.962700	0.333352
O195	O	1.153565	1.296033	0.666686
C196	C	0.526707	0.406815	0.000032
C197	C	0.860040	0.740148	0.333365
C198	C	1.193374	1.073482	0.666699
C199	C	0.571045	0.387694	0.000042
C200	C	0.904378	0.721028	0.333375
C201	C	1.237712	1.054361	0.666709
C202	C	0.659202	0.399864	0.000056
C203	C	0.992535	0.733197	0.333389
C204	C	1.325868	1.066530	0.666722
C205	C	0.659714	0.349452	0.000060
C206	C	0.993047	0.682785	0.333394
C207	C	1.326381	1.016118	0.666727
C208	C	0.615892	0.318161	0.000056
C209	C	0.949225	0.651494	0.333389
C210	C	1.282559	0.984828	0.666722
C211	C	0.571557	0.337282	0.000046
C212	C	0.904891	0.670616	0.333380
C213	C	1.238224	1.003949	0.666713
C214	C	0.482882	0.375521	0.000022
C215	C	0.816215	0.708855	0.333356
C216	C	1.149549	1.042188	0.666689
C217	C	0.483399	0.325104	0.000022
C218	C	0.816732	0.658437	0.333355
C219	C	1.150066	0.991771	0.666689
C220	C	0.527737	0.305983	0.000032
C221	C	0.861070	0.639317	0.333365
C222	C	1.194404	0.972650	0.666698
C223	C	0.528247	0.255580	0.000046
C224	C	0.861581	0.588913	0.333380
C225	C	1.194914	0.922246	0.666713
N226	N	0.572583	0.236456	0.000051
N227	N	0.905916	0.569789	0.333384
N228	N	1.239249	0.903123	0.666718
C229	C	0.616405	0.267747	0.000056
C230	C	0.949738	0.601080	0.333389
C231	C	1.283072	0.934413	0.666722
C232	C	0.523582	0.714348	0.000027
C233	C	0.856915	1.047681	0.333361
C234	C	1.190248	1.381014	0.666694
C235	C	0.523069	0.764762	0.000027
C236	C	0.856402	1.098096	0.333361
C237	C	1.189735	1.431429	0.666694
C238	C	0.611230	0.776930	0.000037
C239	C	0.944563	1.110263	0.333371
C240	C	1.277896	1.443596	0.666704
C241	C	0.611742	0.726514	0.000041
C242	C	0.945075	1.059848	0.333374
C243	C	1.278409	1.393181	0.666708
C244	C	0.567917	0.695224	0.000032
C245	C	0.901250	1.028557	0.333365
C246	C	1.234583	1.361891	0.666699
C247	C	0.617477	0.161878	0.000066
C248	C	0.950811	0.495211	0.333399
C249	C	1.284144	0.828544	0.666733
C250	C	0.617986	0.111461	0.000073
C251	C	0.951319	0.444794	0.333406
C252	C	1.284652	0.778127	0.666739
C253	C	0.529825	0.099298	0.000060
C254	C	0.863158	0.432631	0.333393
C255	C	1.196492	0.765964	0.666727
C256	C	0.529316	0.149710	0.000056
C257	C	0.862650	0.483043	0.333389
C258	C	1.195983	0.816377	0.666723
C259	C	0.573147	0.180999	0.000057
C260	C	0.906480	0.514333	0.333391
C261	C	1.239813	0.847666	0.666724
O262	O	0.491047	0.224296	0.000059
O263	O	0.824380	0.557629	0.333392
O264	O	1.157713	0.890962	0.666725
O265	O	0.654156	0.246844	0.000054
O266	O	0.987490	0.580177	0.333387
O267	O	1.320823	0.913511	0.666720
C268	C	0.614355	0.469397	0.000042
C269	C	0.947688	0.802730	0.333375
C270	C	1.281022	1.136064	0.666709
C271	C	0.570021	0.488518	0.000033
C272	C	0.903354	0.821852	0.333366
C273	C	1.236687	1.155185	0.666699
C274	C	0.526198	0.457228	0.000028
C275	C	0.859532	0.790561	0.333361
C276	C	1.192865	1.123894	0.666695
C277	C	0.569508	0.538933	0.000033
C278	C	0.902841	0.872266	0.333366
C279	C	1.236174	1.205599	0.666699
C280	C	0.613330	0.570223	0.000037
C281	C	0.946663	0.903557	0.333371
C282	C	1.279996	1.236890	0.666704
C283	C	0.657665	0.551100	0.000042
C284	C	0.990998	0.884433	0.333375
C285	C	1.324332	1.217766	0.666709
C286	C	0.658177	0.500688	0.000046
C287	C	0.991511	0.834021	0.333380
C288	C	1.324844	1.167354	0.666713
C289	C	0.481863	0.476351	0.000023
C290	C	0.815197	0.809685	0.333357
C291	C	1.148530	1.143018	0.666690
C292	C	0.481355	0.526764	0.000019
C293	C	0.814688	0.860097	0.333353
C294	C	1.148021	1.193430	0.666686
C295	C	0.525177	0.558054	0.000024
C296	C	0.858510	0.891388	0.333357
C297	C	1.191843	1.224721	0.666691
N298	N	0.570548	-0.061868	-0.120709
N299	N	0.903881	0.271465	0.212624
N300	N	1.237215	0.604798	0.545958
C301	C	0.603640	-0.028781	0.473336
C302	C	0.936974	0.304552	0.806669
C303	C	1.270307	0.637885	1.140002
C304	C	0.603651	-0.028774	0.686994
C305	C	0.936984	0.304559	1.020327
C306	C	1.270318	0.637892	1.353661
O307	O	0.631801	-0.000614	0.714623
O308	O	0.965134	0.332720	1.047956
O309	O	1.298467	0.666053	1.381290
N310	N	0.570538	-0.061871	0.713707
N311	N	0.903872	0.271462	1.047041
N312	N	1.237205	0.604796	1.380374
C313	C	0.537419	-0.094970	0.687003
C314	C	0.870752	0.238364	1.020336
C315	C	1.204085	0.571697	1.353669
O316	O	0.509251	-0.123117	0.714626
O317	O	0.842585	0.210216	1.047960
O318	O	1.175918	0.543550	1.381293
C319	C	0.537406	-0.094974	0.473345
C320	C	0.870739	0.238360	0.806678
C321	C	1.204073	0.571693	1.140012
C322	C	0.570524	-0.061878	0.446635
C323	C	0.903857	0.271455	0.779968
C324	C	1.237191	0.604788	1.113301
C325	C	0.636755	0.004312	0.446625
C326	C	0.970088	0.337645	0.779958
C327	C	1.303422	0.670979	1.113292
C328	C	0.636754	0.004308	0.393214
C329	C	0.970087	0.337642	0.726547
C330	C	1.303421	0.670975	1.059880
C331	C	0.603638	-0.028789	0.366513
C332	C	0.936971	0.304545	0.699846
C333	C	1.270304	0.637878	1.033179
C334	C	0.570523	-0.061882	0.393223
C335	C	0.903856	0.271451	0.726556
C336	C	1.237189	0.604785	1.059890
C337	C	0.504284	-0.128070	0.446641
C338	C	0.837618	0.205264	0.779975
C339	C	1.170951	0.538597	1.113308
C340	C	0.504283	-0.128067	0.393223
C341	C	0.837617	0.205266	0.726557
C342	C	1.170950	0.538600	1.059890
C343	C	0.537401	-0.094971	0.366513
C344	C	0.870735	0.238362	0.699846
C345	C	1.204068	0.571695	1.033180
C346	C	0.537405	-0.094983	0.313111
C347	C	0.870739	0.238351	0.646444
C348	C	1.204072	0.571684	0.979777
N349	N	0.570518	-0.061886	0.286397
N350	N	0.903851	0.271447	0.619731
N351	N	1.237185	0.604781	0.953064
C352	C	0.603634	-0.028789	0.313098
C353	C	0.936967	0.304544	0.646432
C354	C	1.270301	0.637878	0.979765
C355	C	0.537428	-0.094966	0.799176
C356	C	0.870762	0.238368	1.132509
C357	C	1.204095	0.571701	1.465843
C358	C	0.537432	-0.094965	0.852590
C359	C	0.870765	0.238368	1.185923
C360	C	1.204099	0.571701	1.519257
C361	C	0.603664	-0.028769	0.852578
C362	C	0.936997	0.304564	1.185911
C363	C	1.270330	0.637897	1.519245
C364	C	0.603662	-0.028773	0.799163
C365	C	0.936995	0.304561	1.132496
C366	C	1.270329	0.637894	1.465829
C367	C	0.570541	-0.061869	0.772463
C368	C	0.903874	0.271464	1.105796
C369	C	1.237207	0.604798	1.439129
C370	C	0.603629	-0.028800	0.200931
C371	C	0.936963	0.304533	0.534264
C372	C	1.270296	0.637867	0.867597
C373	C	0.603626	-0.028808	0.147514
C374	C	0.936960	0.304525	0.480848
C375	C	1.270293	0.637859	0.814181
C376	C	0.537393	-0.095002	0.147531
C377	C	0.870726	0.238331	0.480865
C378	C	1.204060	0.571665	0.814198
C379	C	0.537397	-0.094996	0.200943
C380	C	0.870731	0.238338	0.534276
C381	C	1.204064	0.571671	0.867609
C382	C	0.570517	-0.061891	0.227641
C383	C	0.903851	0.271443	0.560974
C384	C	1.237184	0.604776	0.894308
O385	O	0.509267	-0.123125	0.285449
O386	O	0.842600	0.210208	0.618782
O387	O	1.175933	0.543542	0.952116
O388	O	0.631790	-0.000639	0.285466
O389	O	0.965123	0.332694	0.618799
O390	O	1.298457	0.666028	0.952132
C391	C	0.603641	-0.028777	0.526747
C392	C	0.936975	0.304556	0.860080
C393	C	1.270308	0.637889	1.193414
C394	C	0.570527	-0.061871	0.553457
C395	C	0.903860	0.271463	0.886791
C396	C	1.237193	0.604796	1.220124
C397	C	0.537410	-0.094968	0.526756
C398	C	0.870744	0.238366	0.860090
C399	C	1.204077	0.571699	1.193423
C400	C	0.570530	-0.061870	0.606872
C401	C	0.903864	0.271463	0.940205
C402	C	1.237197	0.604796	1.273538
C403	C	0.603646	-0.028773	0.633573
C404	C	0.936980	0.304560	0.966906
C405	C	1.270313	0.637893	1.300239
C406	C	0.636759	0.004323	0.606859
C407	C	0.970092	0.337657	0.940193
C408	C	1.303426	0.670990	1.273526
C409	C	0.636758	0.004320	0.553448
C410	C	0.970091	0.337653	0.886781
C411	C	1.303424	0.670986	1.220115
C412	C	0.504298	-0.128064	0.553470
C413	C	0.837631	0.205269	0.886803
C414	C	1.170965	0.538602	1.220136
C415	C	0.504302	-0.128058	0.606881
C416	C	0.837635	0.205275	0.940214
C417	C	1.170969	0.538609	1.273548
C418	C	0.537418	-0.094961	0.633582
C419	C	0.870752	0.238372	0.966915
C420	C	1.204085	0.571706	1.300249
H421	H	-0.271687	0.021674	0.000070
H422	H	0.061646	0.355008	0.333404
H423	H	0.394980	0.688341	0.666737
H424	H	-0.180236	0.020747	0.000079
H425	H	0.153097	0.354080	0.333412
H426	H	0.486430	0.687414	0.666745
H427	H	0.023514	-0.185643	0.000042
H428	H	0.356847	0.147690	0.333376
H429	H	0.690181	0.481023	0.666709
N430	N	0.338302	0.027142	0.000051
N431	N	0.671635	0.360475	0.333384
N432	N	1.004968	0.693809	0.666717
H433	H	0.365776	0.054825	0.000051
H434	H	0.699109	0.388158	0.333384
H435	H	1.032443	0.721492	0.666718
H436	H	0.317651	0.029272	0.031512
H437	H	0.650984	0.362606	0.364845
H438	H	0.984318	0.695939	0.698178
H439	H	-0.033688	0.063392	0.000086
H440	H	0.299645	0.396725	0.333420
H441	H	0.632979	0.730059	0.666753
N442	N	0.672480	0.040019	0.635664
N443	N	1.005813	0.373352	0.968997
N444	N	1.339147	0.706686	1.302330
H445	H	0.667452	0.034995	0.673553
H446	H	1.000785	0.368329	1.006887
H447	H	1.334119	0.701662	1.340220
H448	H	0.667154	0.074274	0.626329
H449	H	1.000488	0.407607	0.959663
H450	H	1.333821	0.740940	1.292996
N451	N	0.434593	0.442610	0.000023
N452	N	0.767926	0.775943	0.333356
N453	N	1.101260	1.109276	0.666690
H454	H	0.432834	0.421425	0.031483
H455	H	0.766168	0.754758	0.364816
H456	H	1.099501	1.088091	0.698149
H457	H	0.432867	0.421449	-0.031452
H458	H	0.766200	0.754783	0.301881
H459	H	1.099534	1.088116	0.635215
H460	H	0.117558	0.061861	0.000090
H461	H	0.450892	0.395195	0.333423
H462	H	0.784225	0.728528	0.666757
H463	H	0.494146	0.073812	0.000058
H464	H	0.827480	0.407145	0.333391
H465	H	1.160813	0.740478	0.666725
N466	N	0.501709	-0.130669	0.770378
N467	N	0.835042	0.202665	1.103711
N468	N	1.168376	0.535998	1.437045
H469	H	0.480441	-0.112348	0.748220
H470	H	0.813775	0.220986	1.081553
H471	H	1.147108	0.554319	1.414886
H472	H	0.480769	-0.151626	0.795440
H473	H	0.814102	0.181707	1.128773
H474	H	1.147435	0.515041	1.462107
H475	H	0.486964	0.780325	0.000028
H476	H	0.820297	1.113659	0.333362
H477	H	1.153631	1.446992	0.666695
N478	N	0.476308	0.680606	0.000024
N479	N	0.809641	1.013939	0.333357
N480	N	1.142974	1.347272	0.666690
H481	H	0.474548	0.659417	0.031481
H482	H	0.807882	0.992751	0.364814
H483	H	1.141215	1.326084	0.698148
H484	H	0.474582	0.659449	-0.031454
H485	H	0.807915	0.992782	0.301880
H486	H	1.141249	1.326115	0.635213
N487	N	0.468576	-0.163753	0.635687
N488	N	0.801909	0.169580	0.969020
N489	N	1.135243	0.502913	1.302353
H490	H	0.486878	-0.185034	0.657851
H491	H	0.820212	0.148300	0.991184
H492	H	1.153545	0.481633	1.324517
H493	H	0.447607	-0.184684	0.610629
H494	H	0.780940	0.148650	0.943962
H495	H	1.114273	0.481983	1.277296
N496	N	0.704932	0.584852	0.000043
N497	N	1.038266	0.918185	0.333377
N498	N	1.371599	1.251519	0.666710
H499	H	0.724290	0.578744	0.031503
H500	H	1.057623	0.912077	0.364836
H501	H	1.390956	1.245411	0.698169
H502	H	0.697836	0.619675	0.000020
H503	H	1.031170	0.953009	0.333353
H504	H	1.364503	1.286342	0.666686
N505	N	0.664748	0.195624	0.000071
N506	N	0.998081	0.528957	0.333404
N507	N	1.331415	0.862290	0.666737
H508	H	0.684116	0.189507	-0.031381
H509	H	1.017449	0.522840	0.301952
H510	H	1.350782	0.856173	0.635285
H511	H	0.684060	0.189492	0.031553
H512	H	1.017393	0.522825	0.364887
H513	H	1.350727	0.856159	0.698220
N514	N	0.468575	-0.163761	0.524675
N515	N	0.801909	0.169572	0.858008
N516	N	1.135242	0.502906	1.191341
H517	H	0.447601	-0.184724	0.549707
H518	H	0.780934	0.148610	0.883040
H519	H	1.114268	0.481943	1.216373
H520	H	0.486916	-0.185008	0.502513
H521	H	0.820250	0.148325	0.835846
H522	H	1.153583	0.481659	1.169179
H523	H	0.321291	-0.144530	0.000036
H524	H	0.654624	0.188804	0.333369
H525	H	0.987957	0.522137	0.666703
H526	H	-0.067947	-0.184708	0.000047
H527	H	0.265386	0.148625	0.333381
H528	H	0.598720	0.481959	0.666714
N529	N	0.179806	-0.198897	0.000024
N530	N	0.513140	0.134436	0.333358
N531	N	0.846473	0.467769	0.666691
H532	H	0.152328	-0.226577	0.000021
H533	H	0.485662	0.106757	0.333354
H534	H	0.818995	0.440090	0.666688
H535	H	0.200457	-0.201040	0.031481
H536	H	0.533790	0.132293	0.364814
H537	H	0.867124	0.465627	0.698147
N538	N	0.706470	0.433610	0.000068
N539	N	1.039804	0.766943	0.333401
N540	N	1.373137	1.100276	0.666734
H541	H	0.708237	0.454801	-0.031387
H542	H	1.041571	0.788135	0.301946
H543	H	1.374904	1.121468	0.635279
H544	H	0.734602	0.413806	0.000094
H545	H	1.067936	0.747139	0.333427
H546	H	1.401269	1.080472	0.666760
N547	N	0.417801	-0.157171	0.000014
N548	N	0.751134	0.176163	0.333347
N549	N	1.084468	0.509496	0.666680
H550	H	0.390325	-0.184853	0.000011
H551	H	0.723659	0.148481	0.333344
H552	H	1.056992	0.481814	0.666678
H553	H	0.438454	-0.159311	0.031468
H554	H	0.771787	0.174022	0.364802
H555	H	1.105120	0.507355	0.698135
N556	N	0.075019	-0.197826	0.000036
N557	N	0.408353	0.135508	0.333370
N558	N	0.741686	0.468841	0.666703
H559	H	0.053830	-0.199580	0.031494
H560	H	0.387163	0.133754	0.364827
H561	H	0.720496	0.467087	0.698160
H562	H	0.094813	-0.225965	0.000013
H563	H	0.428147	0.107368	0.333346
H564	H	0.761480	0.440701	0.666679
H565	H	0.630597	-0.001858	0.125768
H566	H	0.963930	0.331476	0.459102
H567	H	1.297263	0.664809	0.792435
N568	N	0.066033	0.074043	0.000089
N569	N	0.399366	0.407377	0.333422
N570	N	0.732700	0.740710	0.666755
H571	H	0.046264	0.102203	0.000094
H572	H	0.379597	0.435537	0.333427
H573	H	0.712930	0.768870	0.666760
H574	H	0.087216	0.075758	-0.031370
H575	H	0.420549	0.409092	0.301963
H576	H	0.753883	0.742425	0.635296
N577	N	0.436129	0.291355	0.000010
N578	N	0.769462	0.624689	0.333343
N579	N	1.102796	0.958022	0.666677
H580	H	0.407967	0.311122	0.000003
H581	H	0.741300	0.644455	0.333337
H582	H	1.074633	0.977789	0.666670
H583	H	0.434412	0.270174	0.031469
H584	H	0.767746	0.603507	0.364802
H585	H	1.101079	0.936841	0.698135
H586	H	-0.202311	-0.139207	0.000049
H587	H	0.131022	0.194126	0.333382
H588	H	0.464355	0.527459	0.666715
N589	N	0.672470	0.040007	0.364407
N590	N	1.005804	0.373340	0.697741
N591	N	1.339137	0.706674	1.031074
H592	H	0.706734	0.034677	0.373703
H593	H	1.040068	0.368011	0.707036
H594	H	1.373401	0.701344	1.040369
H595	H	0.667116	0.074259	0.373719
H596	H	1.000450	0.407593	0.707052
H597	H	1.333783	0.740926	1.040385
N598	N	0.665809	0.090838	0.000086
N599	N	0.999143	0.424171	0.333419
N600	N	1.332476	0.757504	0.666753
H601	H	0.693491	0.118313	0.000087
H602	H	1.026825	0.451646	0.333420
H603	H	1.360158	0.784980	0.666754
H604	H	0.667950	0.070183	-0.031369
H605	H	1.001283	0.403517	0.301964
H606	H	1.334616	0.736850	0.635297
N607	N	-0.302045	-0.149857	0.000050
N608	N	0.031288	0.183476	0.333383
N609	N	0.364622	0.516809	0.666717
H610	H	-0.336882	-0.142800	0.000051
H611	H	-0.003549	0.190533	0.333385
H612	H	0.329784	0.523866	0.666718
H613	H	-0.295894	-0.169198	0.031507
H614	H	0.037439	0.164136	0.364841
H615	H	0.370772	0.497469	0.698174
N616	N	0.481496	0.170337	0.000053
N617	N	0.814830	0.503670	0.333386
N618	N	1.148163	0.837004	0.666719
H619	H	0.453813	0.142863	0.000052
H620	H	0.787147	0.476196	0.333385
H621	H	1.120480	0.809529	0.666719
H622	H	0.479369	0.190984	-0.031410
H623	H	0.812703	0.524318	0.301924
H624	H	1.146036	0.857651	0.635257
N625	N	0.217283	0.072510	0.000096
N626	N	0.550617	0.405843	0.333430
N627	N	0.883950	0.739176	0.666763
H628	H	0.197517	0.100672	0.000104
H629	H	0.530850	0.434005	0.333437
H630	H	0.864183	0.767339	0.666770
H631	H	0.238467	0.074226	-0.031362
H632	H	0.571801	0.407559	0.301971
H633	H	0.905134	0.740892	0.635305
N634	N	0.443093	0.026078	0.000055
N635	N	0.776426	0.359412	0.333388
N636	N	1.109760	0.692745	0.666721
H637	H	0.464285	0.027836	-0.031401
H638	H	0.797619	0.361170	0.301932
H639	H	1.130952	0.694503	0.635266
H640	H	0.464246	0.027791	0.031534
H641	H	0.797579	0.361124	0.364867
H642	H	1.130912	0.694458	0.698200
N643	N	0.707536	0.328832	0.000069
N644	N	1.040869	0.662166	0.333402
N645	N	1.374203	0.995499	0.666736
H646	H	0.735215	0.356310	0.000070
H647	H	1.068549	0.689644	0.333403
H648	H	1.401882	1.022977	0.666737
H649	H	0.709677	0.308181	-0.031388
H650	H	1.043010	0.641514	0.301945
H651	H	1.376343	0.974847	0.635278
H652	H	0.445246	0.542327	0.000016
H653	H	0.778580	0.875660	0.333349
H654	H	1.111913	1.208993	0.666682
N655	N	0.639353	0.006902	0.229722
N656	N	0.972687	0.340236	0.563055
N657	N	1.306020	0.673569	0.896389
H658	H	0.660330	0.027862	0.204690
H659	H	0.993664	0.361195	0.538023
H660	H	1.326997	0.694528	0.871356
H661	H	0.660584	-0.011459	0.251880
H662	H	0.993917	0.321875	0.585213
H663	H	1.327250	0.655208	0.918547
N664	N	0.672485	0.040006	0.475417
N665	N	1.005818	0.373339	0.808750
N666	N	1.339151	0.706672	1.142084
H667	H	0.667184	0.074278	0.466120
H668	H	1.000517	0.407611	0.799454
H669	H	1.333851	0.740944	1.132787
H670	H	0.706725	0.034619	0.466093
H671	H	1.040059	0.367953	0.799426
H672	H	1.373392	0.701286	1.132760
H673	H	0.446777	0.391080	0.000011
H674	H	0.780111	0.724414	0.333345
H675	H	1.113444	1.057747	0.666678
N676	N	0.705998	0.480067	0.000051
N677	N	1.039332	0.813400	0.333385
N678	N	1.372665	1.146733	0.666718
H679	H	0.708175	0.459423	0.031509
H680	H	1.041508	0.792756	0.364843
H681	H	1.374842	1.126089	0.698176
H682	H	0.733650	0.507570	0.000033
H683	H	1.066984	0.840904	0.333367
H684	H	1.400317	1.174237	0.666700
N685	N	0.639381	0.006923	0.770356
N686	N	0.972715	0.340256	1.103689
N687	N	1.306048	0.673589	1.437022
H688	H	0.660360	0.027887	0.795381
H689	H	0.993693	0.361220	1.128714
H690	H	1.327027	0.694553	1.462047
H691	H	0.621038	0.028168	0.748198
H692	H	0.954371	0.361502	1.081531
H693	H	1.287704	0.694835	1.414864
H694	H	0.647846	0.710950	0.000048
H695	H	0.981179	1.044283	0.333382
H696	H	1.314513	1.377617	0.666715
H697	H	0.630629	-0.001821	0.874327
H698	H	0.963962	0.331512	1.207660
H699	H	1.297296	0.664845	1.540994
N700	N	0.501715	-0.130664	0.881396
N701	N	0.835048	0.202670	1.214730
N702	N	1.168381	0.536003	1.548063
H703	H	0.480735	-0.151627	0.856371
H704	H	0.814069	0.181707	1.189705
H705	H	1.147402	0.515040	1.523038
H706	H	0.480487	-0.112301	0.903558
H707	H	0.813820	0.221032	1.236892
H708	H	1.147153	0.554365	1.570225
N709	N	0.672475	0.040023	0.524649
N710	N	1.005809	0.373356	0.857982
N711	N	1.339142	0.706690	1.191315
H712	H	0.654165	0.061301	0.502490
H713	H	0.987498	0.394634	0.835824
H714	H	1.320832	0.727967	1.169157
H715	H	0.693734	0.021670	0.502514
H716	H	1.027067	0.355003	0.835847
H717	H	1.360401	0.688336	1.169180
N718	N	0.468556	-0.163758	0.475442
N719	N	0.801890	0.169575	0.808775
N720	N	1.135223	0.502908	1.142108
H721	H	0.447576	-0.184717	0.450414
H722	H	0.780909	0.148616	0.783747
H723	H	1.114242	0.481950	1.117081
H724	H	0.447330	-0.145389	0.497599
H725	H	0.780664	0.187944	0.830932
H726	H	1.113997	0.521278	1.164266
H727	H	0.477311	-0.155018	0.371487
H728	H	0.810644	0.178316	0.704820
H729	H	1.143977	0.511649	1.038153
H730	H	0.510432	-0.121951	0.125783
H731	H	0.843765	0.211383	0.459116
H732	H	1.177098	0.544716	0.792450
N733	N	0.501686	-0.130693	0.229760
N734	N	0.835019	0.202640	0.563094
N735	N	1.168353	0.535973	0.896427
H736	H	0.506996	-0.164964	0.220469
H737	H	0.840329	0.168369	0.553802
H738	H	1.173662	0.501702	0.887135
H739	H	0.467437	-0.125323	0.220456
H740	H	0.800770	0.208010	0.553789
H741	H	1.134104	0.541344	0.887122
N742	N	0.658494	0.810686	0.000043
N743	N	0.991828	1.144020	0.333376
N744	N	1.325161	1.477353	0.666709
H745	H	0.660245	0.831873	-0.031415
H746	H	0.993578	1.165207	0.301918
H747	H	1.326912	1.498540	0.635252
H748	H	0.686635	0.790894	0.000063
H749	H	1.019969	1.124227	0.333397
H750	H	1.353302	1.457561	0.666730
