data_functionalizedCrystal
_audit_creation_method	'MofGen! by Chris Wilmer'
_symmetry_space_group_name_H-M	'P1'
_symmetry_Int_Tables_number	1
_symmetry_cell_setting	triclinic
loop_
_symmetry_equiv_pos_as_xyz
  x,y,z
_cell_length_a	19.805407
_cell_length_b	19.805405
_cell_length_c	19.805399
_cell_angle_alpha	89.969291
_cell_angle_beta	89.984884
_cell_angle_gamma	90.023727
loop_
_atom_site_label
_atom_site_type_symbol
_atom_site_fract_x
_atom_site_fract_y
_atom_site_fract_z
Zn1	Zn	1.034718	-0.269518	-0.382680
Zn2	Zn	1.284718	-0.019518	-0.132680
Zn3	Zn	1.534718	0.230482	0.117320
Zn4	Zn	1.784718	0.480482	0.367320
Zn5	Zn	1.034638	-0.382709	-0.269488
Zn6	Zn	1.284638	-0.132709	-0.019488
Zn7	Zn	1.534638	0.117291	0.230512
Zn8	Zn	1.784638	0.367291	0.480512
Zn9	Zn	0.921538	-0.269534	-0.269508
Zn10	Zn	1.171538	-0.019534	-0.019508
Zn11	Zn	1.421538	0.230466	0.230492
Zn12	Zn	1.671538	0.480466	0.480492
Zn13	Zn	0.921496	-0.382665	-0.382638
Zn14	Zn	1.171496	-0.132665	-0.132638
Zn15	Zn	1.421496	0.117335	0.117362
Zn16	Zn	1.671496	0.367335	0.367362
O17	O	0.978097	-0.326107	-0.326078
O18	O	1.228097	-0.076107	-0.076078
O19	O	1.478097	0.173893	0.173922
O20	O	1.728097	0.423893	0.423922
O21	O	1.129424	-0.284545	-0.367674
O22	O	1.379424	-0.034545	-0.117674
O23	O	1.629424	0.215455	0.132326
O24	O	1.879424	0.465455	0.382326
O25	O	1.019619	-0.367721	-0.174774
O26	O	1.269619	-0.117721	0.075226
O27	O	1.519619	0.132279	0.325226
O28	O	1.769619	0.382279	0.575226
O29	O	0.936602	-0.174815	-0.284546
O30	O	1.186602	0.075185	-0.034546
O31	O	1.436602	0.325185	0.215454
O32	O	1.686602	0.575185	0.465454
O33	O	1.129365	-0.367706	-0.284512
O34	O	1.379365	-0.117706	-0.034512
O35	O	1.629365	0.132294	0.215488
O36	O	1.879365	0.382294	0.465488
O37	O	1.019755	-0.174804	-0.367693
O38	O	1.269755	0.075196	-0.117693
O39	O	1.519755	0.325196	0.132307
O40	O	1.769755	0.575196	0.382307
O41	O	0.936525	-0.284572	-0.174788
O42	O	1.186525	-0.034572	0.075212
O43	O	1.436525	0.215428	0.325212
O44	O	1.686525	0.465428	0.575212
O45	O	0.826816	-0.284529	-0.284506
O46	O	1.076816	-0.034529	-0.034506
O47	O	1.326816	0.215471	0.215494
O48	O	1.576816	0.465471	0.465494
O49	O	0.936531	-0.367631	-0.477360
O50	O	1.186531	-0.117631	-0.227360
O51	O	1.436531	0.132369	0.022640
O52	O	1.686531	0.382369	0.272640
O53	O	0.826785	-0.367646	-0.367622
O54	O	1.076785	-0.117646	-0.117622
O55	O	1.326785	0.132354	0.132378
O56	O	1.576785	0.382354	0.382378
O57	O	1.019715	-0.284502	-0.477391
O58	O	1.269715	-0.034502	-0.227391
O59	O	1.519715	0.215498	0.022609
O60	O	1.769715	0.465498	0.272609
O61	O	1.019578	-0.477420	-0.284472
O62	O	1.269578	-0.227420	-0.034472
O63	O	1.519578	0.022580	0.215528
O64	O	1.769578	0.272580	0.465528
O65	O	0.936453	-0.477387	-0.367603
O66	O	1.186453	-0.227387	-0.117603
O67	O	1.436453	0.022613	0.132397
O68	O	1.686453	0.272613	0.382397
C69	C	0.802241	-0.326085	-0.326062
C70	C	1.052241	-0.076085	-0.076062
C71	C	1.302241	0.173915	0.173938
C72	C	1.552241	0.423915	0.423938
C73	C	0.727009	-0.326093	-0.326071
C74	C	0.977009	-0.076093	-0.076071
C75	C	1.227009	0.173907	0.173929
C76	C	1.477009	0.423907	0.423929
C77	C	0.691696	-0.282867	-0.369439
C78	C	0.941696	-0.032867	-0.119439
C79	C	1.191696	0.217133	0.130561
C80	C	1.441696	0.467133	0.380561
C81	C	0.621008	-0.282871	-0.369442
C82	C	0.871008	-0.032871	-0.119442
C83	C	1.121008	0.217129	0.130558
C84	C	1.371008	0.467129	0.380558
C85	C	0.585634	-0.326104	-0.326079
C86	C	0.835634	-0.076104	-0.076079
C87	C	1.085634	0.173896	0.173921
C88	C	1.335634	0.423896	0.423921
C89	C	0.620952	-0.369331	-0.282706
C90	C	0.870952	-0.119331	-0.032706
C91	C	1.120952	0.130669	0.217294
C92	C	1.370952	0.380669	0.467294
C93	C	0.691639	-0.369323	-0.282701
C94	C	0.941639	-0.119323	-0.032701
C95	C	1.191639	0.130677	0.217299
C96	C	1.441639	0.380677	0.467299
C97	C	0.335878	-0.369361	-0.282727
C98	C	0.585878	-0.119361	-0.032727
C99	C	0.835878	0.130639	0.217273
C100	C	1.085878	0.380639	0.467273
C101	C	0.265186	-0.369367	-0.282737
C102	C	0.515186	-0.119367	-0.032737
C103	C	0.765186	0.130633	0.217263
C104	C	1.015186	0.380633	0.467263
C105	C	0.265247	-0.282909	-0.369468
C106	C	0.515247	-0.032909	-0.119468
C107	C	0.765247	0.217091	0.130532
C108	C	1.015247	0.467091	0.380532
C109	C	0.335935	-0.282901	-0.369462
C110	C	0.585935	-0.032901	-0.119462
C111	C	0.835935	0.217099	0.130538
C112	C	1.085935	0.467099	0.380538
C113	C	0.371246	-0.326126	-0.326087
C114	C	0.621246	-0.076126	-0.076087
C115	C	0.871246	0.173874	0.173913
C116	C	1.121246	0.423874	0.423913
C117	C	0.447895	-0.326120	-0.326084
C118	C	0.697895	-0.076120	-0.076084
C119	C	0.947895	0.173880	0.173916
C120	C	1.197895	0.423880	0.423916
C121	C	0.508987	-0.326113	-0.326085
C122	C	0.758987	-0.076113	-0.076085
C123	C	1.008987	0.173887	0.173915
C124	C	1.258987	0.423887	0.423915
C125	C	0.978021	-0.501963	-0.326046
C126	C	1.228021	-0.251963	-0.076046
C127	C	1.478021	-0.001963	0.173954
C128	C	1.728021	0.248037	0.423954
C129	C	0.978050	-0.577195	-0.326054
C130	C	1.228050	-0.327195	-0.076054
C131	C	1.478050	-0.077195	0.173946
C132	C	1.728050	0.172805	0.423946
C133	C	1.021376	-0.612533	-0.282813
C134	C	1.271376	-0.362533	-0.032813
C135	C	1.521376	-0.112533	0.217187
C136	C	1.771376	0.137467	0.467187
C137	C	1.021404	-0.683222	-0.282828
C138	C	1.271404	-0.433222	-0.032828
C139	C	1.521404	-0.183222	0.217172
C140	C	1.771404	0.066778	0.467172
C141	C	0.978104	-0.718570	-0.326081
C142	C	1.228104	-0.468570	-0.076081
C143	C	1.478104	-0.218570	0.173919
C144	C	1.728104	0.031430	0.423919
C145	C	0.934777	-0.683227	-0.369327
C146	C	1.184777	-0.433227	-0.119327
C147	C	1.434777	-0.183227	0.130673
C148	C	1.684777	0.066773	0.380673
C149	C	0.934752	-0.612540	-0.369315
C150	C	1.184752	-0.362540	-0.119315
C151	C	1.434752	-0.112540	0.130685
C152	C	1.684752	0.137460	0.380685
C153	C	0.934877	-0.968300	-0.369377
C154	C	1.184877	-0.718300	-0.119377
C155	C	1.434877	-0.468300	0.130623
C156	C	1.684877	-0.218300	0.380623
C157	C	0.934903	-1.038992	-0.369384
C158	C	1.184903	-0.788992	-0.119384
C159	C	1.434903	-0.538992	0.130616
C160	C	1.684903	-0.288992	0.380616
C161	C	1.021529	-1.038982	-0.282890
C162	C	1.271529	-0.788982	-0.032890
C163	C	1.521529	-0.538982	0.217110
C164	C	1.771529	-0.288982	0.467110
C165	C	1.021504	-0.968295	-0.282878
C166	C	1.271504	-0.718295	-0.032878
C167	C	1.521504	-0.468295	0.217122
C168	C	1.771504	-0.218295	0.467122
C169	C	0.978180	-0.932957	-0.326126
C170	C	1.228180	-0.682957	-0.076126
C171	C	1.478180	-0.432957	0.173874
C172	C	1.728180	-0.182957	0.423874
C173	C	0.978150	-0.856309	-0.326110
C174	C	1.228150	-0.606309	-0.076110
C175	C	1.478150	-0.356309	0.173890
C176	C	1.728150	-0.106309	0.423890
C177	C	0.978130	-0.795217	-0.326094
C178	C	1.228130	-0.545217	-0.076094
C179	C	1.478130	-0.295217	0.173906
C180	C	1.728130	-0.045217	0.423906
C181	C	1.154640	-0.326128	-0.326095
C182	C	1.404640	-0.076128	-0.076095
C183	C	1.654640	0.173872	0.173905
C184	C	1.904640	0.423872	0.423905
C185	C	1.229872	-0.326138	-0.326102
C186	C	1.479872	-0.076138	-0.076102
C187	C	1.729872	0.173862	0.173898
C188	C	1.979872	0.423862	0.423898
C189	C	0.978127	-0.326060	-0.502621
C190	C	1.228127	-0.076060	-0.252621
C191	C	1.478127	0.173940	-0.002621
C192	C	1.728127	0.423940	0.247379
C193	C	0.978140	-0.326040	-0.577853
C194	C	1.228140	-0.076040	-0.327853
C195	C	1.478140	0.173960	-0.077853
C196	C	1.728140	0.423960	0.172147
C197	C	0.978192	-0.149564	-0.326126
C198	C	1.228192	0.100436	-0.076126
C199	C	1.478192	0.350436	0.173874
C200	C	1.728192	0.600436	0.423874
C201	C	0.978233	-0.074332	-0.326146
C202	C	1.228233	0.175668	-0.076146
C203	C	1.478233	0.425668	0.173854
C204	C	1.728233	0.675668	0.423854
C205	C	0.934885	-0.282740	-0.613204
C206	C	1.184885	-0.032740	-0.363204
C207	C	1.434885	0.217260	-0.113204
C208	C	1.684885	0.467260	0.136796
C209	C	0.934894	-0.282727	-0.683893
C210	C	1.184894	-0.032727	-0.433893
C211	C	1.434894	0.217273	-0.183893
C212	C	1.684894	0.467273	0.066107
C213	C	0.978162	-0.326010	-0.719229
C214	C	1.228162	-0.076010	-0.469229
C215	C	1.478162	0.173990	-0.219229
C216	C	1.728162	0.423990	0.030771
C217	C	1.021419	-0.369315	-0.683873
C218	C	1.271419	-0.119315	-0.433873
C219	C	1.521419	0.130685	-0.183873
C220	C	1.771419	0.380685	0.066127
C221	C	1.021406	-0.369331	-0.613185
C222	C	1.271406	-0.119331	-0.363185
C223	C	1.521406	0.130669	-0.113185
C224	C	1.771406	0.380669	0.136815
C225	C	1.021473	-0.369252	-0.968946
C226	C	1.271473	-0.119252	-0.718946
C227	C	1.521473	0.130748	-0.468946
C228	C	1.771473	0.380748	-0.218946
C229	C	1.021484	-0.369231	-1.039638
C230	C	1.271484	-0.119231	-0.789638
C231	C	1.521484	0.130769	-0.539638
C232	C	1.771484	0.380769	-0.289638
C233	C	0.934961	-0.282647	-1.039653
C234	C	1.184961	-0.032647	-0.789653
C235	C	1.434961	0.217353	-0.539653
C236	C	1.684961	0.467353	-0.289653
C237	C	0.934948	-0.282663	-0.968966
C238	C	1.184948	-0.032663	-0.718966
C239	C	1.434948	0.217337	-0.468966
C240	C	1.684948	0.467337	-0.218966
C241	C	0.978202	-0.325970	-0.933616
C242	C	1.228202	-0.075970	-0.683616
C243	C	1.478202	0.174030	-0.433616
C244	C	1.728202	0.424030	-0.183616
C245	C	0.978190	-0.325985	-0.856968
C246	C	1.228190	-0.075985	-0.606968
C247	C	1.478190	0.174015	-0.356968
C248	C	1.728190	0.424015	-0.106968
C249	C	0.978178	-0.325993	-0.795876
C250	C	1.228178	-0.075993	-0.545876
C251	C	1.478178	0.174007	-0.295876
C252	C	1.728178	0.424007	-0.045876
C253	C	0.978107	-0.326104	-0.150222
C254	C	1.228107	-0.076104	0.099778
C255	C	1.478107	0.173896	0.349778
C256	C	1.728107	0.423896	0.599778
C257	C	0.978225	-0.325934	-0.074991
C258	C	1.228225	-0.075934	0.175009
C259	C	1.478225	0.174066	0.425009
C260	C	1.728225	0.424066	0.675009
H261	H	0.592259	-0.247674	-0.404757
H262	H	0.842259	0.002326	-0.154757
H263	H	1.092259	0.252326	0.095243
H264	H	1.342259	0.502326	0.345243
F265	F	0.729221	-0.415330	-0.236543
F266	F	0.979221	-0.165330	0.013457
F267	F	1.229221	0.084670	0.263457
F268	F	1.479221	0.334670	0.513457
H269	H	1.056685	-0.404522	-0.940173
H270	H	1.306685	-0.154522	-0.690173
H271	H	1.556685	0.095478	-0.440173
H272	H	1.806685	0.345478	-0.190173
H273	H	1.056645	-0.404561	-0.712649
H274	H	1.306645	-0.154561	-0.462649
H275	H	1.556645	0.095439	-0.212649
H276	H	1.806645	0.345439	0.037351
H277	H	1.056633	-0.404585	-0.584403
H278	H	1.306633	-0.154585	-0.334403
H279	H	1.556633	0.095415	-0.084403
H280	H	1.806633	0.345415	0.165597
F281	F	1.067458	-0.574919	-0.236772
F282	F	1.317458	-0.324919	0.013228
F283	F	1.567458	-0.074919	0.263228
F284	F	1.817458	0.175081	0.513228
F285	F	1.067642	-1.076596	-0.236865
F286	F	1.317642	-0.826596	0.013135
F287	F	1.567642	-0.576596	0.263135
F288	F	1.817642	-0.326596	0.513135
H289	H	0.592144	-0.404529	-0.247397
H290	H	0.842144	-0.154529	0.002603
H291	H	1.092144	0.095471	0.252603
H292	H	1.342144	0.345471	0.502603
F293	F	0.888816	-1.076611	-0.415424
F294	F	1.138816	-0.826611	-0.165424
F295	F	1.388816	-0.576611	0.084576
F296	F	1.638816	-0.326611	0.334576
F297	F	0.729338	-0.236855	-0.415595
F298	F	0.979338	0.013145	-0.165595
F299	F	1.229338	0.263145	0.084405
F300	F	1.479338	0.513145	0.334405
F301	F	0.888899	-0.236592	-0.931363
F302	F	1.138899	0.013408	-0.681363
F303	F	1.388899	0.263408	-0.431363
F304	F	1.638899	0.513408	-0.181363
H305	H	0.899599	-0.939534	-0.404590
H306	H	1.149599	-0.689534	-0.154590
H307	H	1.399599	-0.439534	0.095410
H308	H	1.649599	-0.189534	0.345410
F309	F	0.888923	-0.236558	-1.077281
F310	F	1.138923	0.013442	-0.827281
F311	F	1.388923	0.263442	-0.577281
F312	F	1.638923	0.513442	-0.327281
H313	H	0.364733	-0.247699	-0.404775
H314	H	0.614733	0.002301	-0.154775
H315	H	0.864733	0.252301	0.095225
H316	H	1.114733	0.502301	0.345225
F317	F	1.067537	-0.415303	-1.077244
F318	F	1.317537	-0.165303	-0.827244
F319	F	1.567537	0.084697	-0.577244
F320	F	1.817537	0.334697	-0.327244
H321	H	0.236488	-0.247711	-0.404783
H322	H	0.486488	0.002289	-0.154783
H323	H	0.736488	0.252289	0.095217
H324	H	0.986488	0.502289	0.345217
H325	H	0.899669	-0.247470	-0.712673
H326	H	1.149669	0.002530	-0.462673
H327	H	1.399669	0.252530	-0.212673
H328	H	1.649669	0.502530	0.037327
H329	H	0.899473	-0.583768	-0.404527
H330	H	1.149473	-0.333768	-0.154527
H331	H	1.399473	-0.083768	0.095473
H332	H	1.649473	0.166232	0.345473
H333	H	1.056761	-0.939516	-0.247655
H334	H	1.306761	-0.689516	0.002345
H335	H	1.556761	-0.439516	0.252345
H336	H	1.806761	-0.189516	0.502345
F337	F	0.227540	-0.415382	-0.236581
F338	F	0.477540	-0.165382	0.013419
F339	F	0.727540	0.084618	0.263419
F340	F	0.977540	0.334618	0.513419
H341	H	0.364621	-0.404558	-0.247409
H342	H	0.614621	-0.154558	0.002591
H343	H	0.864621	0.095442	0.252591
H344	H	1.114621	0.345442	0.502591
H345	H	0.899524	-0.712013	-0.404547
H346	H	1.149524	-0.462013	-0.154547
H347	H	1.399524	-0.212013	0.095453
H348	H	1.649524	0.037987	0.345453
F349	F	1.067519	-0.720828	-0.236807
F350	F	1.317519	-0.470828	0.013193
F351	F	1.567519	-0.220828	0.263193
F352	F	1.817519	0.029172	0.513193
H353	H	0.899655	-0.247489	-0.584439
H354	H	1.149655	0.002511	-0.334439
H355	H	1.399655	0.252511	-0.084439
H356	H	1.649655	0.502511	0.165561
