data_functionalizedCrystal
_audit_creation_method	'MofGen! by Chris Wilmer'
_symmetry_space_group_name_H-M	'P1'
_symmetry_Int_Tables_number	1
_symmetry_cell_setting	triclinic
loop_
_symmetry_equiv_pos_as_xyz
  x,y,z
_cell_length_a	29.839134
_cell_length_b	29.839131
_cell_length_c	21.295411
_cell_angle_alpha	89.971982
_cell_angle_beta	89.963398
_cell_angle_gamma	90.027971
loop_
_atom_site_label
_atom_site_type_symbol
_atom_site_fract_x
_atom_site_fract_y
_atom_site_fract_z
Zn1	Zn	0.686793	-0.178991	-0.356086
Zn2	Zn	0.686718	-0.254107	-0.250799
Zn3	Zn	0.611660	-0.178982	-0.250809
Zn4	Zn	0.611632	-0.254086	-0.356009
O5	O	0.649201	-0.216542	-0.303426
O6	O	0.749650	-0.188968	-0.342147
O7	O	0.676741	-0.244147	-0.162711
O8	O	0.621670	-0.116116	-0.264810
O9	O	0.749595	-0.244155	-0.264794
O10	O	0.676870	-0.116123	-0.342156
O11	O	0.621597	-0.188953	-0.162718
O12	O	0.548789	-0.188932	-0.264735
O13	O	0.621622	-0.244119	-0.444109
O14	O	0.548769	-0.244110	-0.342026
O15	O	0.676843	-0.188948	-0.444165
O16	O	0.676714	-0.316971	-0.264720
O17	O	0.621549	-0.316956	-0.342017
C18	C	0.532478	-0.216518	-0.303374
C19	C	0.482544	-0.216519	-0.303366
C20	C	0.125955	-0.187768	-0.263263
C21	C	0.313628	-0.187755	-0.263225
O22	O	0.337891	-0.163272	-0.229069
N23	N	0.337099	-0.216526	-0.303398
C24	C	0.313648	-0.245301	-0.343587
O25	O	0.337918	-0.269769	-0.377760
C26	C	0.125976	-0.245311	-0.343627
C27	C	0.102508	-0.216541	-0.303447
C28	C	0.102487	-0.159000	-0.223086
C29	C	0.055571	-0.159005	-0.223094
C30	C	0.032124	-0.187778	-0.263278
C31	C	0.055592	-0.216546	-0.303455
C32	C	0.102527	-0.274082	-0.383819
C33	C	0.055605	-0.274081	-0.383827
C34	C	0.032137	-0.245312	-0.343646
C35	C	-0.014770	-0.245324	-0.343646
N36	N	-0.038241	-0.216553	-0.303473
C37	C	-0.014794	-0.187780	-0.263289
C38	C	0.412179	-0.245294	-0.343561
C39	C	0.459097	-0.245292	-0.343550
C40	C	0.459073	-0.187746	-0.263189
C41	C	0.412154	-0.187750	-0.263197
C42	C	0.388708	-0.216523	-0.303388
C43	C	-0.113320	-0.187793	-0.263307
C44	C	-0.160239	-0.187803	-0.263317
C45	C	-0.160212	-0.245347	-0.343680
C46	C	-0.113296	-0.245340	-0.343669
C47	C	-0.089851	-0.216559	-0.303480
O48	O	-0.039062	-0.269791	-0.377789
O49	O	-0.039071	-0.163309	-0.229130
C50	C	0.172870	-0.187763	-0.263255
C51	C	0.196339	-0.216530	-0.303432
C52	C	0.172892	-0.245303	-0.343616
C53	C	0.243257	-0.216529	-0.303421
C54	C	0.266704	-0.187756	-0.263237
C55	C	0.243233	-0.158985	-0.223064
C56	C	0.196317	-0.158990	-0.223071
C57	C	0.196362	-0.274075	-0.383789
C58	C	0.243278	-0.274067	-0.383778
C59	C	0.266725	-0.245294	-0.343594
C60	C	0.649132	-0.333264	-0.303373
C61	C	0.649144	-0.383199	-0.303371
C62	C	0.677937	-0.692811	-0.343757
C63	C	0.677986	-0.880484	-0.343795
O64	O	0.702400	-0.904722	-0.378094
N65	N	0.649277	-0.903984	-0.303496
C66	C	0.620552	-0.880563	-0.263186
O67	O	0.596131	-0.904857	-0.228914
C68	C	0.620501	-0.692890	-0.263152
C69	C	0.649215	-0.669393	-0.303450
C70	C	0.706649	-0.669313	-0.384052
C71	C	0.706638	-0.622397	-0.384040
C72	C	0.677916	-0.598980	-0.343733
C73	C	0.649204	-0.622477	-0.303438
C74	C	0.591774	-0.669470	-0.222847
C75	C	0.591763	-0.622549	-0.222843
C76	C	0.620477	-0.599051	-0.263141
C77	C	0.620472	-0.552144	-0.263118
N78	N	0.649181	-0.528644	-0.303418
C79	C	0.677903	-0.552062	-0.343725
C80	C	0.620581	-0.979093	-0.263206
C81	C	0.620594	-1.026011	-0.263214
C82	C	0.678028	-1.025929	-0.343824
C83	C	0.678017	-0.979010	-0.343813
C84	C	0.649290	-0.955593	-0.303506
C85	C	0.677878	-0.453536	-0.343696
C86	C	0.677866	-0.406616	-0.343678
C87	C	0.620431	-0.406703	-0.263071
C88	C	0.620444	-0.453618	-0.263086
C89	C	0.649170	-0.477034	-0.303404
O90	O	0.596067	-0.527877	-0.228842
O91	O	0.702313	-0.527759	-0.378002
C92	C	0.677948	-0.739726	-0.343770
C93	C	0.649237	-0.763224	-0.303475
C94	C	0.620515	-0.739806	-0.263167
C95	C	0.649250	-0.810141	-0.303482
C96	C	0.677972	-0.833559	-0.343790
C97	C	0.706681	-0.810059	-0.384089
C98	C	0.706670	-0.763144	-0.384077
C99	C	0.591806	-0.763306	-0.222868
C100	C	0.591819	-0.810221	-0.222883
C101	C	0.620541	-0.833639	-0.263190
C102	C	0.766379	-0.216565	-0.303478
C103	C	0.816314	-0.216575	-0.303501
C104	C	0.649238	-0.216532	-0.467616
C105	C	0.649254	-0.216528	-0.537584
C106	C	0.649282	-0.099363	-0.303493
C107	C	0.649316	-0.049429	-0.303521
C108	C	0.678006	-0.187799	-0.570481
C109	C	0.678006	-0.187780	-0.636224
C110	C	0.649257	-0.216497	-0.669067
C111	C	0.620500	-0.245228	-0.636162
C112	C	0.620498	-0.245244	-0.570420
N113	N	0.645788	-0.255797	-0.772275
N114	N	0.645792	-0.255781	-0.834726
C115	C	0.649260	-0.216452	-0.867142
N116	N	0.652733	-0.177138	-0.834746
N117	N	0.652731	-0.177154	-0.772289
C118	C	0.649256	-0.216483	-0.740352
C119	C	0.678013	-0.187699	-0.971324
C120	C	0.678010	-0.187679	-1.037068
C121	C	0.620506	-0.245131	-1.037005
C122	C	0.620508	-0.245148	-0.971262
C123	C	0.649264	-0.216432	-0.938426
C124	C	0.649190	-0.216519	-0.139874
C125	C	0.649261	-0.216396	-0.069906
H126	H	0.478201	-0.268724	-0.376263
C127	C	0.709637	-0.156178	-0.672419
C128	C	0.690202	-0.120891	-0.717609
C129	C	0.721834	-0.089290	-0.753801
C130	C	0.772902	-0.092976	-0.744805
C131	C	0.792341	-0.128264	-0.699613
C132	C	0.760708	-0.159865	-0.663421
H133	H	0.652395	-0.118161	-0.724270
H134	H	0.707444	-0.063167	-0.787255
H135	H	0.796319	-0.069583	-0.771597
H136	H	0.830147	-0.130994	-0.692952
H137	H	0.775098	-0.185988	-0.629967
H138	H	-0.094187	-0.268770	-0.376382
H139	H	0.701421	-0.164416	-0.543750
C140	C	0.588870	-0.276848	-0.534228
C141	C	0.608311	-0.312133	-0.489040
C142	C	0.576682	-0.343736	-0.452844
C143	C	0.525613	-0.340055	-0.461837
C144	C	0.506170	-0.304769	-0.507027
C145	C	0.537798	-0.273165	-0.543222
H146	H	0.646117	-0.314859	-0.482381
H147	H	0.591076	-0.369858	-0.419392
H148	H	0.502200	-0.363450	-0.435043
H149	H	0.468363	-0.302042	-0.513686
H150	H	0.523405	-0.247043	-0.576675
C151	C	0.709639	-0.156108	-0.935199
C152	C	0.741261	-0.124500	-0.971389
C153	C	0.772886	-0.092908	-0.935265
C154	C	0.772888	-0.092926	-0.862953
C155	C	0.741264	-0.124536	-0.826759
C156	C	0.709639	-0.156127	-0.862882
H157	H	0.741261	-0.124485	-1.024923
H158	H	0.796296	-0.069508	-0.962059
H159	H	0.796298	-0.069540	-0.836212
H160	H	0.741264	-0.124550	-0.773225
H161	H	0.686229	-0.179527	-0.836089
C162	C	0.709639	-0.156073	-1.073256
C163	C	0.760707	-0.159756	-1.064263
C164	C	0.792337	-0.128149	-1.100451
C165	C	0.772897	-0.092859	-1.145633
C166	C	0.721826	-0.089175	-1.154628
C167	C	0.690196	-0.120781	-1.118439
H168	H	0.775100	-0.185881	-1.030815
H169	H	0.830143	-0.130877	-1.093792
H170	H	0.796311	-0.069462	-1.172421
H171	H	0.707433	-0.063049	-1.188075
H172	H	0.652390	-0.118053	-1.125098
C173	C	0.588882	-0.276721	-1.073124
C174	C	0.588881	-0.276706	-1.145437
C175	C	0.557254	-0.308295	-1.181559
C176	C	0.525627	-0.339899	-1.145369
C177	C	0.525627	-0.339916	-1.073052
C178	C	0.557254	-0.308327	-1.036929
H179	H	0.612294	-0.253309	-1.172231
H180	H	0.557254	-0.308282	-1.235093
H181	H	0.502215	-0.363284	-1.172109
H182	H	0.502214	-0.363313	-1.046258
H183	H	0.557253	-0.308340	-0.983395
H184	H	0.701415	-1.045004	-0.376643
C185	C	0.738253	-0.737300	-0.428409
C186	C	0.718763	-0.705039	-0.477797
C187	C	0.750347	-0.679198	-0.522133
C188	C	0.801421	-0.685618	-0.517081
C189	C	0.820914	-0.717881	-0.467692
C190	C	0.789330	-0.743722	-0.423356
H191	H	0.680952	-0.700285	-0.481538
H192	H	0.735916	-0.655315	-0.558694
H193	H	0.824802	-0.666490	-0.549902
H194	H	0.858725	-0.722635	-0.463951
H195	H	0.803761	-0.767605	-0.386794
C196	C	0.588877	-0.276819	-0.672286
C197	C	0.588879	-0.276805	-0.744599
C198	C	0.557254	-0.308395	-0.780722
C199	C	0.525625	-0.339999	-0.744532
C200	C	0.525622	-0.340013	-0.672215
C201	C	0.557247	-0.308423	-0.636092
H202	H	0.612294	-0.253410	-0.771392
H203	H	0.557257	-0.308385	-0.834256
H204	H	0.502214	-0.363384	-0.771273
H205	H	0.502207	-0.363409	-0.645422
H206	H	0.557245	-0.308434	-0.582558
C207	C	0.029816	-0.305734	-0.428037
C208	C	-0.002403	-0.286321	-0.477519
C209	C	-0.028192	-0.317974	-0.521727
C210	C	-0.021761	-0.369039	-0.516454
C211	C	0.010459	-0.388455	-0.466971
C212	C	0.036247	-0.356802	-0.422762
H213	H	-0.007164	-0.248517	-0.481424
H214	H	-0.052043	-0.303601	-0.558359
H215	H	-0.040852	-0.392470	-0.549180
H216	H	0.015220	-0.426259	-0.463065
H217	H	0.060099	-0.371175	-0.386131
H218	H	0.597097	-0.268545	-0.944477
H219	H	0.597217	-1.045139	-0.230393
C220	C	0.709452	-0.380770	-0.388011
C221	C	0.760526	-0.387190	-0.382961
C222	C	0.792110	-0.361346	-0.427294
C223	C	0.772618	-0.329082	-0.476677
C224	C	0.721541	-0.322661	-0.481730
C225	C	0.689958	-0.348505	-0.437397
H226	H	0.774957	-0.411075	-0.346402
H227	H	0.829921	-0.366099	-0.423553
H228	H	0.795998	-0.309951	-0.509495
H229	H	0.707110	-0.298776	-0.518288
H230	H	0.652147	-0.343751	-0.441137
H231	H	0.262332	-0.135558	-0.190342
H232	H	-0.094236	-0.164356	-0.230585
H233	H	0.701266	-0.472595	-0.376531
H234	H	0.568437	-0.829349	-0.190061
C235	C	0.029763	-0.127356	-0.178892
C236	C	0.036246	-0.076290	-0.184164
C237	C	0.010443	-0.044639	-0.139959
C238	C	-0.021842	-0.064053	-0.090482
C239	C	-0.028326	-0.115122	-0.085208
C240	C	-0.002523	-0.146773	-0.129413
H241	H	0.060147	-0.061916	-0.220792
H242	H	0.015244	-0.006834	-0.143863
H243	H	-0.040942	-0.040623	-0.057758
H244	H	-0.052227	-0.129496	-0.048580
H245	H	-0.007324	-0.184578	-0.125509
C246	C	0.128272	-0.127349	-0.178873
C247	C	0.121841	-0.076284	-0.184138
C248	C	0.147621	-0.044634	-0.139915
C249	C	0.179833	-0.064051	-0.090428
C250	C	0.186266	-0.115119	-0.085161
C251	C	0.160485	-0.146769	-0.129383
H252	H	0.097994	-0.061908	-0.220773
H253	H	0.142859	-0.006830	-0.143815
H254	H	0.198918	-0.040622	-0.057692
H255	H	0.210113	-0.129495	-0.048525
H256	H	0.165247	-0.184573	-0.125484
C257	C	0.269089	-0.305717	-0.427981
C258	C	0.262613	-0.356784	-0.422716
C259	C	0.288422	-0.388429	-0.466923
C260	C	0.320708	-0.369007	-0.516394
C261	C	0.327185	-0.317937	-0.521661
C262	C	0.301376	-0.286292	-0.477455
H263	H	0.238712	-0.371164	-0.386093
H264	H	0.283627	-0.426234	-0.463024
H265	H	0.339813	-0.392433	-0.549119
H266	H	0.351086	-0.303558	-0.558285
H267	H	0.306171	-0.248487	-0.481354
H268	H	0.478172	-0.164318	-0.230469
C269	C	0.386341	-0.156100	-0.219004
C270	C	0.392823	-0.105034	-0.224279
C271	C	0.367012	-0.073382	-0.180085
C272	C	0.334720	-0.092795	-0.130615
C273	C	0.328237	-0.143863	-0.125338
C274	C	0.354048	-0.175516	-0.169532
H275	H	0.416729	-0.090661	-0.260901
H276	H	0.371812	-0.035577	-0.183992
H277	H	0.315614	-0.069363	-0.097900
H278	H	0.304331	-0.158236	-0.088716
H279	H	0.349248	-0.213320	-0.165625
C280	C	0.128332	-0.305729	-0.428023
C281	C	0.160555	-0.340978	-0.400661
C282	C	0.186358	-0.372626	-0.444869
C283	C	0.179939	-0.369026	-0.516439
C284	C	0.147715	-0.333775	-0.543805
C285	C	0.121911	-0.302127	-0.499596
H286	H	0.165308	-0.343645	-0.347677
H287	H	0.210213	-0.398721	-0.424610
H288	H	0.199041	-0.392454	-0.549164
H289	H	0.142962	-0.331109	-0.596788
H290	H	0.098057	-0.276032	-0.519855
C291	C	0.738218	-0.596556	-0.428380
C292	C	0.789293	-0.602976	-0.423337
C293	C	0.820873	-0.577139	-0.467684
C294	C	0.801377	-0.544882	-0.517073
C295	C	0.750299	-0.538461	-0.522117
C296	C	0.718720	-0.564298	-0.477771
H297	H	0.803727	-0.626856	-0.386775
H298	H	0.858684	-0.581893	-0.463949
H299	H	0.824754	-0.525756	-0.549901
H300	H	0.735865	-0.514581	-0.558680
H301	H	0.680909	-0.559544	-0.481505
H302	H	0.177214	-0.135562	-0.190353
H303	H	0.568416	-0.744243	-0.190045
H304	H	-0.179345	-0.164374	-0.230595
H305	H	0.393093	-0.268726	-0.376291
H306	H	-0.179311	-0.268775	-0.376395
C307	C	0.709599	-0.953165	-0.388144
C308	C	0.744873	-0.920895	-0.360924
C309	C	0.776456	-0.895052	-0.405259
C310	C	0.772766	-0.901480	-0.476814
C311	C	0.737490	-0.933751	-0.504039
C312	C	0.705907	-0.959594	-0.459704
H313	H	0.747606	-0.916136	-0.307950
H314	H	0.802569	-0.871163	-0.385105
H315	H	0.796145	-0.882349	-0.509634
H316	H	0.734757	-0.938510	-0.557012
H317	H	0.679794	-0.983483	-0.479858
C318	C	0.588982	-0.953340	-0.218860
C319	C	0.592681	-0.959827	-0.147307
C320	C	0.561084	-0.934076	-0.102957
C321	C	0.525788	-0.901839	-0.130160
C322	C	0.522087	-0.895350	-0.201716
C323	C	0.553684	-0.921101	-0.246066
H324	H	0.618811	-0.983692	-0.127167
H325	H	0.563824	-0.938880	-0.049986
H326	H	0.502397	-0.882777	-0.097329
H327	H	0.495957	-0.871485	-0.221856
H328	H	0.550944	-0.916297	-0.299037
H329	H	0.177276	-0.297505	-0.416514
H330	H	0.730037	-0.688375	-0.416879
C331	C	0.560181	-0.695307	-0.178524
C332	C	0.563859	-0.688880	-0.106967
C333	C	0.532261	-0.714715	-0.062643
C334	C	0.496986	-0.746977	-0.089877
C335	C	0.493306	-0.753406	-0.161438
C336	C	0.524904	-0.727571	-0.205761
H337	H	0.589974	-0.664996	-0.086803
H338	H	0.534985	-0.709956	-0.009669
H339	H	0.473595	-0.766102	-0.057066
H340	H	0.467192	-0.777290	-0.181601
H341	H	0.522180	-0.732330	-0.258736
H342	H	0.730069	-0.829134	-0.416907
H343	H	0.568369	-0.603485	-0.190021
H344	H	0.597047	-0.387629	-0.230251
C345	C	0.588866	-0.479470	-0.218753
C346	C	0.592558	-0.473053	-0.147196
C347	C	0.560977	-0.498903	-0.102866
C348	C	0.525703	-0.531169	-0.130094
C349	C	0.522009	-0.537588	-0.201655
C350	C	0.553590	-0.511739	-0.245985
H351	H	0.618671	-0.449166	-0.127037
H352	H	0.563712	-0.494151	-0.049892
H353	H	0.502324	-0.550305	-0.097278
H354	H	0.495896	-0.561475	-0.221814
H355	H	0.550855	-0.516490	-0.298959
