data_functionalizedCrystal
_audit_creation_method	'MofGen! by Chris Wilmer'
_symmetry_space_group_name_H-M	'P1'
_symmetry_Int_Tables_number	1
_symmetry_cell_setting	triclinic
loop_
_symmetry_equiv_pos_as_xyz
  x,y,z
_cell_length_a	23.532407
_cell_length_b	19.288857
_cell_length_c	22.010155
_cell_angle_alpha	89.993772
_cell_angle_beta	89.989184
_cell_angle_gamma	82.990893
loop_
_atom_site_label
_atom_site_type_symbol
_atom_site_fract_x
_atom_site_fract_y
_atom_site_fract_z
O1	O	0.755442	0.084316	-0.050452
O2	O	1.255442	0.584316	0.449548
O3	O	0.589604	0.096516	-0.050470
O4	O	1.089604	0.596516	0.449530
O5	O	0.677317	-0.010729	-0.050453
O6	O	1.177317	0.489271	0.449547
O7	O	0.667729	0.191562	-0.050469
O8	O	1.167729	0.691562	0.449531
O9	O	0.677290	-0.010728	0.050597
O10	O	1.177290	0.489272	0.550597
O11	O	0.589577	0.096518	0.050580
O12	O	1.089577	0.596518	0.550580
O13	O	0.755415	0.084317	0.050598
O14	O	1.255415	0.584317	0.550598
Cu15	Cu	0.672493	0.090418	0.059816
Cu16	Cu	1.172493	0.590418	0.559816
Cu17	Cu	0.672526	0.090416	-0.059688
Cu18	Cu	1.172526	0.590416	0.440312
O19	O	0.667702	0.191563	0.050581
O20	O	1.167702	0.691563	0.550581
C21	C	0.568374	0.096206	0.000052
C22	C	1.068374	0.596206	0.500052
C23	C	0.505155	0.095272	0.000046
C24	C	1.005155	0.595272	0.500046
C25	C	0.106170	0.152879	0.000069
C26	C	0.606170	0.652879	0.500069
C27	C	0.046768	0.152012	0.000073
C28	C	0.546768	0.652012	0.500073
O29	O	0.010133	0.205414	0.000091
O30	O	0.510133	0.705414	0.500091
N31	N	0.024011	0.088254	0.000077
N32	N	0.524011	0.588254	0.500077
C33	C	0.060659	0.025360	0.000083
C34	C	0.560659	0.525360	0.500083
O35	O	0.035848	-0.028950	0.000087
O36	O	0.535848	0.471050	0.500087
C37	C	0.120060	0.026229	0.000083
C38	C	0.620060	0.526229	0.500083
C39	C	0.142814	0.089990	0.000073
C40	C	0.642814	0.589990	0.500073
C41	C	0.128924	0.216636	0.000059
C42	C	0.628924	0.716636	0.500059
C43	C	0.188322	0.217503	0.000055
C44	C	0.688322	0.717503	0.500055
C45	C	0.224966	0.154614	0.000059
C46	C	0.724966	0.654614	0.500059
C47	C	0.202212	0.090858	0.000068
C48	C	0.702212	0.590858	0.500068
C49	C	0.156708	-0.036664	0.000094
C50	C	0.656708	0.463336	0.500094
C51	C	0.216112	-0.035790	0.000095
C52	C	0.716112	0.464210	0.500095
C53	C	0.238865	0.027971	0.000085
C54	C	0.738865	0.527971	0.500085
C55	C	0.298253	0.028836	0.000068
C56	C	0.798253	0.528836	0.500068
N57	N	0.321010	0.092594	0.000064
N58	N	0.821010	0.592594	0.500064
C59	C	0.284366	0.155483	0.000060
C60	C	0.784366	0.655483	0.500060
C61	C	-0.064087	0.023541	0.000083
C62	C	0.435913	0.523541	0.500083
C63	C	-0.123487	0.022672	0.000078
C64	C	0.376513	0.522672	0.500078
C65	C	-0.137374	0.149324	0.000069
C66	C	0.362626	0.649324	0.500069
C67	C	-0.077973	0.150192	0.000069
C68	C	0.422027	0.650192	0.500069
C69	C	-0.041330	0.087299	0.000079
C70	C	0.458670	0.587299	0.500079
C71	C	0.409107	0.157299	0.000049
C72	C	0.909107	0.657299	0.500049
C73	C	0.468511	0.158161	0.000041
C74	C	0.968511	0.658161	0.500041
C75	C	0.482393	0.031510	0.000054
C76	C	0.982393	0.531510	0.500054
C77	C	0.422995	0.030648	0.000058
C78	C	0.922995	0.530648	0.500058
C79	C	0.386352	0.093548	0.000057
C80	C	0.886352	0.593548	0.500057
O81	O	0.334923	-0.024538	0.000053
O82	O	0.834923	0.475462	0.500053
O83	O	0.309186	0.209784	0.000063
O84	O	0.809186	0.709784	0.500063
C85	C	0.676996	-0.036604	0.000072
C86	C	1.176996	0.463396	0.500072
C87	C	0.676072	-0.113705	0.000074
C88	C	1.176072	0.386295	0.500074
C89	C	0.776645	0.084627	0.000074
C90	C	1.276645	0.584627	0.500074
C91	C	0.839864	0.085562	0.000077
C92	C	1.339864	0.585562	0.500077
C93	C	0.675656	-0.149915	-0.055009
C94	C	1.175656	0.350085	0.444991
C95	C	0.674779	-0.222358	-0.055013
C96	C	1.174779	0.277642	0.444987
C97	C	0.674331	-0.258591	0.000068
C98	C	1.174331	0.241409	0.500068
C99	C	0.674744	-0.222372	0.055158
C100	C	1.174744	0.277628	0.555158
C101	C	0.675615	-0.149929	0.055161
C102	C	1.175615	0.350071	0.555161
C103	C	0.706298	-0.378921	0.042267
C104	C	1.206298	0.121079	0.542267
C105	C	0.705431	-0.451363	0.042261
C106	C	1.205431	0.048637	0.542261
C107	C	0.671643	-0.482028	0.000061
C108	C	1.171643	0.017972	0.500061
C109	C	0.638730	-0.440244	-0.042145
C110	C	1.138730	0.059756	0.457855
C111	C	0.639601	-0.367802	-0.042142
C112	C	1.139601	0.132198	0.457858
C113	C	0.673387	-0.337143	0.000071
C114	C	1.173387	0.162857	0.500071
C115	C	0.670276	-0.596790	-0.055031
C116	C	1.170276	-0.096790	0.444969
C117	C	0.669396	-0.669234	-0.055033
C118	C	1.169396	-0.169234	0.444967
C119	C	0.669367	-0.669247	0.055140
C120	C	1.169367	-0.169247	0.555140
C121	C	0.670241	-0.596803	0.055140
C122	C	1.170241	-0.096803	0.555140
C123	C	0.670698	-0.560579	0.000053
C124	C	1.170698	-0.060579	0.500053
C125	C	0.668023	0.217438	0.000054
C126	C	1.168023	0.717438	0.500054
C127	C	0.668947	0.294539	0.000049
C128	C	1.168947	0.794539	0.500049
N129	N	0.672475	0.090418	0.143868
N130	N	1.172475	0.590418	0.643868
C131	C	0.706952	0.132329	0.563648
C132	C	1.206952	0.632329	1.063648
C133	C	0.706958	0.132328	0.627256
C134	C	1.206958	0.632328	1.127256
O135	O	0.736254	0.167955	0.660148
O136	O	1.236254	0.667955	1.160148
N137	N	0.672531	0.090416	0.659075
N138	N	1.172531	0.590416	1.159075
C139	C	0.638099	0.048496	0.627284
C140	C	1.138099	0.548496	1.127284
O141	O	0.608817	0.012845	0.660189
O142	O	1.108817	0.512845	1.160189
C143	C	0.638096	0.048494	0.563677
C144	C	1.138096	0.548494	1.063677
C145	C	0.672522	0.090415	0.531861
C146	C	1.172522	0.590415	1.031861
C147	C	0.741375	0.174246	0.531832
C148	C	1.241375	0.674246	1.031832
C149	C	0.741367	0.174248	0.468229
C150	C	1.241367	0.674248	0.968229
C151	C	0.706937	0.132333	0.436442
C152	C	1.206937	0.632333	0.936442
C153	C	0.672515	0.090416	0.468258
C154	C	1.172515	0.590416	0.968258
C155	C	0.603669	0.006571	0.531887
C156	C	1.103669	0.506571	1.031887
C157	C	0.603669	0.006572	0.468276
C158	C	1.103669	0.506572	0.968276
C159	C	0.638094	0.048493	0.436460
C160	C	1.138094	0.548493	0.936460
C161	C	0.638077	0.048503	0.372868
C162	C	1.138077	0.548503	0.872868
N163	N	0.672505	0.090416	0.341048
N164	N	1.172505	0.590416	0.841048
C165	C	0.706935	0.132331	0.372835
C166	C	1.206935	0.632331	0.872835
C167	C	0.638108	0.048503	0.760862
C168	C	1.138108	0.548503	1.260862
C169	C	0.638108	0.048508	0.824467
C170	C	1.138108	0.548508	1.324467
C171	C	0.706967	0.132340	0.824435
C172	C	1.206967	0.632340	1.324435
C173	C	0.706964	0.132338	0.760828
C174	C	1.206964	0.632338	1.260828
C175	C	0.672536	0.090415	0.729042
C176	C	1.172536	0.590415	1.229042
C177	C	0.706917	0.132332	0.239264
C178	C	1.206917	0.632332	0.739264
C179	C	0.706905	0.132333	0.175655
C180	C	1.206905	0.632333	0.675655
C181	C	0.638048	0.048499	0.175693
C182	C	1.138048	0.548499	0.675693
C183	C	0.638057	0.048501	0.239296
C184	C	1.138057	0.548501	0.739296
C185	C	0.672496	0.090420	0.271080
C186	C	1.172496	0.590420	0.771080
O187	O	0.608798	0.012893	0.339935
O188	O	1.108798	0.512893	0.839935
O189	O	0.736218	0.167969	0.339922
O190	O	1.236218	0.667969	0.839922
N191	N	0.672540	0.090421	0.856259
N192	N	1.172540	0.590421	1.356259
H193	H	0.245945	-0.087007	0.000103
H194	H	0.745945	0.412993	0.500103
H195	H	0.206841	0.269424	0.000046
H196	H	0.706841	0.769424	0.500046
O197	O	0.134709	-0.098664	0.000136
O198	O	0.634709	0.401336	0.500136
C199	C	0.179801	-0.153976	0.000131
C200	C	0.679801	0.346024	0.500131
H201	H	0.220101	-0.134777	0.019253
H202	H	0.720101	0.365223	0.519253
H203	H	0.167501	-0.198514	0.029481
H204	H	0.667501	0.301486	0.529481
H205	H	0.188262	-0.173364	-0.048344
H206	H	0.688262	0.326636	0.451656
H207	H	0.674437	-0.251846	-0.099870
H208	H	1.174437	0.248154	0.400130
O209	O	-0.028517	-0.037576	-0.000026
O210	O	0.471483	0.462424	0.499974
C211	C	-0.038814	-0.076313	-0.052352
C212	C	0.461186	0.423687	0.447648
H213	H	-0.059198	-0.039494	-0.088931
H214	H	0.440802	0.460506	0.411069
H215	H	0.003400	-0.104473	-0.069920
H216	H	0.503400	0.395527	0.430080
H217	H	-0.068970	-0.116296	-0.040518
H218	H	0.431030	0.383704	0.459482
O219	O	-0.172895	0.210480	0.000043
O220	O	0.327105	0.710480	0.500043
C221	C	-0.140080	0.266947	0.000055
C222	C	0.359920	0.766947	0.500055
H223	H	-0.095698	0.249011	-0.019079
H224	H	0.404302	0.749011	0.480921
H225	H	-0.162102	0.310985	-0.029282
H226	H	0.337898	0.810985	0.470718
H227	H	-0.135906	0.286508	0.048533
H228	H	0.364094	0.786508	0.548533
H229	H	0.735001	0.166470	0.850327
H230	H	1.235001	0.666470	1.350327
H231	H	0.674377	-0.251877	0.100005
H232	H	1.174377	0.248123	0.600005
H233	H	0.675951	-0.120447	0.100017
H234	H	1.175951	0.379553	0.600017
H235	H	0.670645	-0.567294	-0.099886
H236	H	1.170645	-0.067294	0.400114
O237	O	0.740450	0.173014	0.270066
O238	O	1.240450	0.673014	0.770066
C239	C	0.798303	0.153402	0.254514
C240	C	1.298303	0.653402	0.754514
H241	H	0.800812	0.126441	0.208336
H242	H	1.300812	0.626441	0.708336
H243	H	0.821494	0.201894	0.252317
H244	H	1.321494	0.701894	0.752317
H245	H	0.819385	0.116015	0.290312
H246	H	1.319385	0.616015	0.790312
H247	H	0.379279	0.208519	0.000050
H248	H	0.879279	0.708519	0.500050
H249	H	0.734938	0.166473	0.149753
H250	H	1.234938	0.666473	0.649753
H251	H	-0.142007	-0.029249	0.000077
H252	H	0.357993	0.470751	0.500077
O253	O	0.740460	0.173074	0.730019
O254	O	1.240460	0.673074	1.230019
C255	C	0.770834	0.210082	0.771722
C256	C	1.270834	0.710082	1.271722
H257	H	0.774231	0.181305	0.817065
H258	H	1.274231	0.681305	1.317065
H259	H	0.815605	0.214115	0.753338
H260	H	1.315605	0.714115	1.253338
H261	H	0.747229	0.264749	0.778486
H262	H	1.247229	0.764749	1.278486
H263	H	0.610068	0.014380	0.850366
H264	H	1.110068	0.514380	1.350366
H265	H	0.669054	-0.698714	-0.099890
H266	H	1.169054	-0.198714	0.400110
H267	H	0.575637	-0.027567	0.557781
H268	H	1.075637	0.472433	1.057781
O269	O	0.605970	-0.469999	-0.083221
O270	O	1.105970	0.030001	0.416779
C271	C	0.623667	-0.455188	-0.142531
C272	C	1.123667	0.044812	0.357469
H273	H	0.669832	-0.442928	-0.141351
H274	H	1.169832	0.057072	0.358649
H275	H	0.620640	-0.502415	-0.172965
H276	H	1.120640	-0.002415	0.327035
H277	H	0.594838	-0.408246	-0.161236
H278	H	1.094838	0.091754	0.338764
O279	O	0.400983	-0.031350	0.000086
O280	O	0.900983	0.468650	0.500086
C281	C	0.446067	-0.086670	0.000068
C282	C	0.946067	0.413330	0.500068
H283	H	0.486372	-0.067486	0.019192
H284	H	0.986372	0.432514	0.519192
H285	H	0.433761	-0.131212	0.029410
H286	H	0.933761	0.368788	0.529410
H287	H	0.454523	-0.106046	-0.048411
H288	H	0.954523	0.393954	0.451589
H289	H	0.610067	0.014367	0.734985
H290	H	1.110067	0.514367	1.234985
H291	H	0.512239	-0.019692	0.000055
H292	H	1.012239	0.480308	0.500055
O293	O	0.676067	-0.114831	-0.108573
O294	O	1.176067	0.385169	0.391427
C295	C	0.675525	-0.162333	-0.157192
C296	C	1.175525	0.337667	0.342808
H297	H	0.656876	-0.210975	-0.141046
H298	H	1.156876	0.289025	0.358954
H299	H	0.648144	-0.136798	-0.195721
H300	H	1.148144	0.363202	0.304279
H301	H	0.721117	-0.177638	-0.174123
H302	H	1.221117	0.322362	0.325877
H303	H	0.099093	0.267851	0.000058
H304	H	0.599093	0.767851	0.500058
H305	H	0.487033	0.210086	0.000033
H306	H	0.987033	0.710086	0.500033
O307	O	0.774867	0.214982	0.437421
O308	O	1.274867	0.714982	0.937421
C309	C	0.805244	0.251983	0.479128
C310	C	1.305244	0.751983	0.979128
H311	H	0.808637	0.223204	0.524469
H312	H	1.308637	0.723204	1.024469
H313	H	0.850016	0.256010	0.460745
H314	H	1.350016	0.756010	0.960745
H315	H	0.781643	0.306652	0.485893
H316	H	1.281643	0.806652	0.985893
H317	H	0.668997	-0.698746	0.099988
H318	H	1.168997	-0.198746	0.599988
O319	O	0.570169	-0.034169	0.437495
O320	O	1.070169	0.465831	0.937495
C321	C	0.539801	-0.071179	0.479222
C322	C	1.039801	0.428821	0.979222
H323	H	0.536407	-0.042402	0.524560
H324	H	1.036407	0.457598	1.024560
H325	H	0.495029	-0.075214	0.460861
H326	H	0.995029	0.424786	0.960861
H327	H	0.563408	-0.125845	0.485985
H328	H	1.063408	0.374155	0.985985
O329	O	0.604598	0.007720	0.270111
O330	O	1.104598	0.507720	0.770111
C331	C	0.574195	-0.029256	0.228410
C332	C	1.074195	0.470744	0.728410
H333	H	0.597775	-0.033448	0.183061
H334	H	1.097775	0.466552	0.683061
H335	H	0.570809	-0.083858	0.246788
H336	H	1.070809	0.416142	0.746788
H337	H	0.529418	-0.000364	0.221661
H338	H	1.029418	0.499636	0.721661
O339	O	0.607596	-0.327129	-0.083053
O340	O	1.107596	0.172871	0.416947
C341	C	0.568311	-0.278620	-0.051939
C342	C	1.068311	0.221380	0.448061
H343	H	0.584801	-0.270506	-0.004082
H344	H	1.084801	0.229494	0.495918
H345	H	0.563310	-0.226735	-0.077358
H346	H	1.063310	0.273265	0.422642
H347	H	0.525057	-0.299391	-0.049216
H348	H	1.025057	0.200609	0.450784
H349	H	-0.059452	0.202112	0.000065
H350	H	0.440548	0.702112	0.500065
H351	H	0.670585	-0.567321	0.099995
H352	H	1.170585	-0.067321	0.599995
O353	O	0.737416	-0.491843	0.083316
O354	O	1.237416	0.008157	0.583316
C355	C	0.767428	-0.449246	0.120561
C356	C	1.267428	0.050754	0.620561
H357	H	0.744458	-0.393680	0.120485
H358	H	1.244458	0.106320	0.620485
H359	H	0.769316	-0.470543	0.168931
H360	H	1.269316	0.029457	0.668931
H361	H	0.812779	-0.449070	0.102386
H362	H	1.312779	0.050930	0.602386
H363	H	0.769415	0.208379	0.557706
H364	H	1.269415	0.708379	1.057706
H365	H	0.733811	-0.353959	0.076637
H366	H	1.233811	0.146041	0.576637
O367	O	0.604575	0.007880	0.144740
O368	O	1.104575	0.507880	0.644740
C369	C	0.565593	0.050471	0.107962
C370	C	1.065593	0.550471	0.607962
H371	H	0.583172	0.101907	0.098430
H372	H	1.083172	0.601907	0.598430
H373	H	0.559331	0.022589	0.063235
H374	H	1.059331	0.522589	0.563235
H375	H	0.522755	0.061357	0.132479
H376	H	1.022755	0.561357	0.632479
