data_functionalizedCrystal
_audit_creation_method	'MofGen! by Chris Wilmer'
_symmetry_space_group_name_H-M	'P1'
_symmetry_Int_Tables_number	1
_symmetry_cell_setting	triclinic
loop_
_symmetry_equiv_pos_as_xyz
  x,y,z
_cell_length_a	21.395364
_cell_length_b	29.839131
_cell_length_c	21.395355
_cell_angle_alpha	90.020172
_cell_angle_beta	90.024552
_cell_angle_gamma	90.056371
loop_
_atom_site_label
_atom_site_type_symbol
_atom_site_fract_x
_atom_site_fract_y
_atom_site_fract_z
Zn1	Zn	0.957813	-0.178726	0.354254
Zn2	Zn	0.957696	-0.253841	0.249474
Zn3	Zn	0.853028	-0.178746	0.249491
Zn4	Zn	0.852977	-0.253849	0.354214
O5	O	0.905378	-0.216291	0.301858
O6	O	1.045475	-0.188679	0.340365
O7	O	0.943783	-0.243885	0.161798
O8	O	0.866998	-0.115876	0.263412
O9	O	1.045389	-0.243866	0.263383
O10	O	0.943983	-0.115862	0.340381
O11	O	0.866884	-0.188712	0.161811
O12	O	0.765343	-0.188720	0.263373
O13	O	0.866912	-0.243879	0.441897
O14	O	0.765306	-0.243898	0.340313
O15	O	0.943934	-0.188687	0.441927
O16	O	0.943734	-0.316710	0.263344
O17	O	0.866798	-0.316716	0.340296
C18	C	0.742591	-0.216313	0.301841
C19	C	0.672949	-0.216333	0.301848
C20	C	0.905265	-0.333013	0.301827
C21	C	0.905274	-0.382948	0.301835
C22	C	0.640303	-0.187644	0.341994
C23	C	0.574868	-0.187632	0.341997
C24	C	0.542081	-0.216317	0.301859
C25	C	0.574735	-0.245008	0.261705
C26	C	0.640169	-0.245016	0.261699
C27	C	0.438346	-0.256775	0.296820
C28	C	0.372913	-0.256768	0.296830
C29	C	0.340260	-0.216292	0.301873
C30	C	0.373048	-0.175823	0.306919
C31	C	0.438483	-0.175831	0.306914
C32	C	0.471129	-0.216311	0.301861
C33	C	0.236662	-0.187588	0.342024
C34	C	0.171225	-0.187575	0.342022
C35	C	0.171093	-0.244955	0.261734
C36	C	0.236529	-0.244964	0.261733
C37	C	0.269309	-0.216281	0.301881
C38	C	0.945512	-0.692575	0.261848
C39	C	0.945589	-0.880248	0.261872
O40	O	0.979711	-0.904500	0.227850
N41	N	0.905508	-0.903733	0.301905
C42	C	0.865408	-0.880296	0.341939
O43	O	0.831323	-0.904577	0.375994
C44	C	0.865334	-0.692624	0.341917
C45	C	0.905413	-0.669142	0.301876
C46	C	0.985588	-0.669093	0.221811
C47	C	0.985566	-0.622178	0.221803
C48	C	0.945467	-0.598744	0.261832
C49	C	0.905391	-0.622226	0.301868
C50	C	0.825238	-0.669188	0.381953
C51	C	0.825224	-0.622267	0.381945
C52	C	0.865303	-0.598785	0.341904
C53	C	0.865271	-0.551878	0.341889
N54	N	0.905351	-0.528393	0.301856
C55	C	0.945450	-0.551827	0.261827
C56	C	0.865449	-0.978827	0.341946
C57	C	0.865466	-1.025744	0.341951
C58	C	0.945648	-1.025694	0.261885
C59	C	0.945627	-0.978775	0.261878
C60	C	0.905530	-0.955342	0.301913
C61	C	0.945400	-0.453301	0.261813
C62	C	0.945372	-0.406381	0.261806
C63	C	0.865193	-0.406436	0.341874
C64	C	0.865218	-0.453352	0.341878
C65	C	0.905326	-0.476783	0.301845
O66	O	0.831172	-0.527597	0.375898
O67	O	0.979540	-0.527537	0.227786
C68	C	0.945534	-0.739491	0.261856
C69	C	0.905458	-0.762973	0.301893
C70	C	0.865359	-0.739539	0.341921
C71	C	0.905475	-0.809891	0.301897
C72	C	0.945574	-0.833324	0.261869
C73	C	0.985654	-0.809840	0.221835
C74	C	0.985632	-0.762924	0.221827
C75	C	0.825278	-0.763024	0.381955
C76	C	0.825303	-0.809939	0.381959
C77	C	0.865402	-0.833373	0.341930
C78	C	1.068802	-0.216269	0.301876
C79	C	1.138443	-0.216260	0.301884
C80	C	0.905430	-0.216282	0.465282
C81	C	0.905452	-0.216278	0.534923
C82	C	0.905509	-0.099112	0.301903
C83	C	0.905565	-0.049178	0.301922
C84	C	0.905362	-0.216267	0.139071
C85	C	0.905462	-0.216145	0.069430
C86	C	0.945556	-0.187538	0.567652
C87	C	0.945555	-0.187518	0.633088
C88	C	0.905457	-0.216247	0.665791
C89	C	0.865346	-0.244989	0.633054
C90	C	0.865343	-0.245005	0.567620
C91	C	0.900471	-0.256699	0.769455
C92	C	0.900478	-0.256685	0.834888
C93	C	0.905461	-0.216200	0.867612
C94	C	0.910451	-0.175728	0.834895
C95	C	0.910449	-0.175743	0.769461
C96	C	0.905455	-0.216234	0.736744
C97	C	0.945566	-0.187436	0.971294
C98	C	0.945561	-0.187416	1.036731
C99	C	0.865355	-0.244891	1.036696
C100	C	0.865357	-0.244907	0.971260
C101	C	0.905466	-0.216180	0.938563
H102	H	0.548282	-0.164268	0.374688
H103	H	0.978222	-0.164043	0.944671
O104	O	0.988611	-0.381057	0.218624
H105	H	0.981861	-0.344494	0.225338
O106	O	0.337842	-0.132161	0.312354
H107	H	0.286833	-0.138952	0.311502
H108	H	0.978217	-0.164010	1.063378
H109	H	0.832584	-0.472472	0.374484
H110	H	0.832543	-0.387349	0.374463
O111	O	0.473850	-0.132185	0.312340
H112	H	0.440157	-0.104036	0.315840
H113	H	1.018268	-0.743809	0.189223
H114	H	0.263109	-0.268327	0.229044
O115	O	1.028918	-0.835118	0.178673
H116	H	1.022202	-0.871687	0.185417
O117	O	0.915829	-0.132095	0.734174
H118	H	0.873864	-0.127525	0.704342
H119	H	0.144399	-0.268311	0.229053
H120	H	0.792598	-0.688299	0.414555
O121	O	0.988653	-0.478570	0.218631
H122	H	1.016509	-0.454353	0.190788
H123	H	0.792572	-0.603190	0.414548
H124	H	0.832704	-0.268313	0.944611
H125	H	1.018203	-0.603062	0.189201
H126	H	0.896418	-0.289639	0.861521
H127	H	0.464927	-0.289737	0.292713
H128	H	0.978211	-0.164112	0.659741
O129	O	0.822103	-0.275878	1.071958
H130	H	0.828844	-0.271041	1.122958
O131	O	0.337550	-0.300413	0.291376
H132	H	0.371246	-0.328558	0.287851
O133	O	1.028836	-0.694365	0.178630
H134	H	1.056692	-0.670147	0.150790
H135	H	0.832824	-1.044859	0.374550
O136	O	0.988861	-0.953448	0.218699
H137	H	1.016747	-0.977630	0.190871
O138	O	0.782073	-0.835265	0.425149
H139	H	0.754194	-0.811083	0.452984
O140	O	0.895095	-0.300368	0.734163
H141	H	0.852646	-0.299668	0.704339
H142	H	0.978298	-1.044781	0.229292
O143	O	0.822072	-0.275998	0.532321
H144	H	0.832767	-0.311256	0.544877
O145	O	0.822093	-0.275973	0.668325
H146	H	0.832791	-0.311234	0.655765
O147	O	0.675661	-0.156701	0.385283
H148	H	0.641962	-0.136745	0.413194
O149	O	0.988812	-0.156554	0.532385
H150	H	1.016696	-0.136564	0.566142
O151	O	0.782014	-0.737751	0.425117
H152	H	0.754143	-0.761968	0.452945
O153	O	0.822183	-0.953555	0.385114
H154	H	0.794311	-0.977771	0.412940
H155	H	0.144646	-0.164211	0.374713
O156	O	0.272025	-0.156648	0.385315
H157	H	0.238328	-0.136690	0.413225
H158	H	0.548036	-0.268363	0.229025
H159	H	0.666749	-0.268378	0.229007
O160	O	0.915810	-0.132056	0.870178
H161	H	0.914960	-0.138841	0.921175
