data_functionalizedCrystal
_audit_creation_method	'MofGen! by Chris Wilmer'
_symmetry_space_group_name_H-M	'P1'
_symmetry_Int_Tables_number	1
_symmetry_cell_setting	triclinic
loop_
_symmetry_equiv_pos_as_xyz
  x,y,z
_cell_length_a	15.995350
_cell_length_b	15.995350
_cell_length_c	14.472310
_cell_angle_alpha	90.001162
_cell_angle_beta	89.990621
_cell_angle_gamma	83.492375
loop_
_atom_site_label
_atom_site_type_symbol
_atom_site_fract_x
_atom_site_fract_y
_atom_site_fract_z
O1	O	1.110997	0.107921	-0.076758
O2	O	1.610997	0.607921	0.423242
O3	O	0.867221	0.121248	-0.076776
O4	O	1.367221	0.621248	0.423224
O5	O	0.995773	-0.007303	-0.076766
O6	O	1.495773	0.492697	0.423234
O7	O	0.982445	0.236472	-0.076769
O8	O	1.482445	0.736472	0.423231
O9	O	0.995740	-0.007296	0.076916
O10	O	1.495740	0.492704	0.576916
O11	O	0.867188	0.121256	0.076906
O12	O	1.367188	0.621256	0.576906
O13	O	1.110963	0.107928	0.076924
O14	O	1.610963	0.607928	0.576924
Cu15	Cu	0.989073	0.114593	0.090947
Cu16	Cu	1.489073	0.614593	0.590947
Cu17	Cu	0.989112	0.114584	-0.090800
Cu18	Cu	1.489112	0.614584	0.409200
O19	O	0.982412	0.236480	0.076913
O20	O	1.482412	0.736480	0.576913
C21	C	0.836010	0.120701	0.000062
C22	C	1.336010	0.620701	0.500062
C23	C	0.743060	0.119049	0.000055
C24	C	1.243060	0.619049	0.500055
C25	C	0.405312	0.113117	0.000074
C26	C	0.905312	0.613117	0.500074
C27	C	0.452746	0.021565	0.000418
C28	C	0.952746	0.521565	0.500418
C29	C	0.549436	0.023217	0.000065
C30	C	1.049436	0.523217	0.500065
C31	C	0.572873	0.116060	0.000065
C32	C	1.072873	0.616060	0.500065
C33	C	0.531804	0.161212	-0.087692
C34	C	1.031804	0.661212	0.412308
C35	C	0.435169	0.158912	-0.087759
C36	C	0.935169	0.658912	0.412241
C37	C	0.434792	0.160812	0.087007
C38	C	0.934792	0.660812	0.587007
C39	C	0.531737	0.160790	0.088160
C40	C	1.031737	0.660790	0.588160
C41	C	0.667570	0.117727	0.000057
C42	C	1.167570	0.617727	0.500057
C43	C	0.310614	0.111452	0.000076
C44	C	0.810614	0.611452	0.500076
C45	C	0.995205	-0.038494	0.000073
C46	C	1.495205	0.461506	0.500073
C47	C	0.993553	-0.131444	0.000068
C48	C	1.493553	0.368556	0.500068
C49	C	0.987621	-0.469192	0.000071
C50	C	1.487621	0.030808	0.500071
C51	C	0.896069	-0.421758	-0.000281
C52	C	1.396069	0.078242	0.499719
C53	C	0.897721	-0.325068	0.000066
C54	C	1.397721	0.174932	0.500066
C55	C	0.990564	-0.301631	0.000069
C56	C	1.490564	0.198369	0.500069
C57	C	1.035701	-0.342705	0.087831
C58	C	1.535701	0.157295	0.587831
C59	C	1.033401	-0.439340	0.087904
C60	C	1.533401	0.060660	0.587904
C61	C	1.035330	-0.439707	-0.086861
C62	C	1.535330	0.060293	0.413139
C63	C	1.035309	-0.342762	-0.088021
C64	C	1.535309	0.157238	0.411979
C65	C	0.992231	-0.206934	0.000071
C66	C	1.492231	0.293066	0.500071
C67	C	0.985956	-0.563890	0.000075
C68	C	1.485956	-0.063890	0.500075
C69	C	1.142175	0.108476	0.000083
C70	C	1.642175	0.608476	0.500083
C71	C	1.235125	0.110127	0.000084
C72	C	1.735125	0.610127	0.500084
C73	C	0.982980	0.267671	0.000072
C74	C	1.482980	0.767671	0.500072
C75	C	0.984631	0.360621	0.000071
C76	C	1.484631	0.860621	0.500071
N77	N	0.989051	0.114598	0.218778
N78	N	1.489051	0.614598	0.718778
N79	N	0.989140	0.114572	-0.218631
N80	N	1.489140	0.614572	0.281369
C81	C	0.989111	0.114581	0.592869
C82	C	1.489111	0.614581	1.092869
C83	C	0.920095	0.183135	0.553698
C84	C	1.420095	0.683135	1.053698
C85	C	0.920254	0.183385	0.446610
C86	C	1.420254	0.683385	0.946610
C87	C	0.989081	0.114590	0.407278
C88	C	1.489081	0.614590	0.907278
C89	C	1.076445	0.133671	0.446122
C90	C	1.576445	0.633671	0.946122
C91	C	1.076057	0.134159	0.553243
C92	C	1.576057	0.634159	1.053243
C93	C	0.971542	0.026741	0.553398
C94	C	1.471542	0.526741	1.053398
C95	C	0.969538	0.027327	0.446270
C96	C	1.469538	0.527327	0.946270
C97	C	0.989069	0.114593	0.302390
C98	C	1.489069	0.614593	0.802390
C99	C	0.989128	0.114579	0.697757
C100	C	1.489128	0.614579	1.197757
H101	H	0.545930	0.229421	-0.090955
H102	H	1.045930	0.729421	0.409045
O103	O	0.426806	-0.026697	-0.082478
O104	O	0.926806	0.473303	0.417522
H105	H	0.460647	-0.091228	-0.081564
H106	H	0.960647	0.408772	0.418436
O107	O	1.122429	-0.482067	0.093204
O108	O	1.622429	0.017933	0.593204
H109	H	1.166933	-0.433679	0.095711
H110	H	1.666933	0.066321	0.595711
H111	H	0.931473	0.248569	0.420976
H112	H	1.431473	0.748569	0.920976
O113	O	0.569398	0.119659	-0.174205
O114	O	1.069398	0.619659	0.325795
H115	H	0.539857	0.152140	-0.235786
H116	H	1.039857	0.652140	0.264214
O117	O	0.834232	0.168341	0.411816
O118	O	1.334232	0.668341	0.911816
H119	H	0.786743	0.218970	0.437550
H120	H	1.286743	0.718970	0.937550
H121	H	1.103909	-0.328579	0.091097
H122	H	1.603909	0.171421	0.591097
O123	O	0.407593	0.121165	0.175123
O124	O	0.907593	0.621165	0.675123
H125	H	0.372755	0.067017	0.157937
H126	H	0.872755	0.567017	0.657937
H127	H	1.129029	0.085068	0.420643
H128	H	1.629029	0.585068	0.920643
O129	O	0.991660	-0.306601	-0.174026
O130	O	1.491660	0.193399	0.325974
H131	H	0.967655	-0.357938	-0.214240
H132	H	1.467655	0.142062	0.285760
O133	O	0.567897	0.117139	0.174165
O134	O	1.067897	0.617139	0.674165
H135	H	0.614973	0.063808	0.154262
H136	H	1.114973	0.563808	0.654262
H137	H	1.000459	-0.457639	0.153505
H138	H	1.500459	0.042361	0.653505
H139	H	1.004324	-0.314320	0.153137
H140	H	1.504324	0.185680	0.653137
H141	H	1.091540	0.198219	0.578220
H142	H	1.591540	0.698219	1.078220
O143	O	0.833792	0.168344	0.587860
O144	O	1.333792	0.668344	1.087860
H145	H	0.839162	0.111976	0.633127
H146	H	1.339162	0.611976	1.133127
O147	O	0.552088	0.250472	0.095196
O148	O	1.052088	0.750472	0.595196
H149	H	0.592010	0.264629	0.035744
H150	H	1.092010	0.764629	0.535744
H151	H	0.577308	-0.012521	-0.062951
H152	H	1.077308	0.487479	0.437049
O153	O	1.124997	-0.322425	-0.095044
O154	O	1.624997	0.177575	0.404956
H155	H	1.139146	-0.282511	-0.035590
H156	H	1.639146	0.217489	0.464410
H157	H	0.434210	-0.015027	0.063352
H158	H	0.934210	0.484973	0.563352
H159	H	1.005412	-0.460250	-0.153379
H160	H	1.505412	0.039750	0.346621
O161	O	1.124741	-0.481780	-0.087655
O162	O	1.624741	0.018220	0.412345
H163	H	1.135190	-0.523493	-0.026471
H164	H	1.635190	-0.023493	0.473529
H165	H	1.021872	-0.024275	0.578728
H166	H	1.521872	0.475725	1.078728
H167	H	0.859626	-0.441349	0.062299
H168	H	1.359626	0.058651	0.562299
O169	O	0.934745	0.268999	0.589329
O170	O	1.434745	0.768999	1.089329
H171	H	0.990970	0.263061	0.634814
H172	H	1.490970	0.763061	1.134814
O173	O	1.146130	0.070544	0.587577
O174	O	1.646130	0.570544	1.087577
H175	H	1.180148	0.039574	0.527667
H176	H	1.680148	0.539574	1.027667
H177	H	1.016541	-0.026079	0.419500
H178	H	1.516541	0.473921	0.919500
O179	O	1.097448	0.217564	0.410593
O180	O	1.597448	0.717564	0.910593
H181	H	1.045804	0.245797	0.365281
H182	H	1.545804	0.745797	0.865281
O183	O	0.392713	0.250221	0.087797
O184	O	0.892713	0.750221	0.587797
H185	H	0.441438	0.294372	0.085534
H186	H	0.941438	0.794372	0.585534
H187	H	0.862239	-0.296649	-0.062846
H188	H	1.362239	0.203351	0.437154
H189	H	0.905272	0.012845	0.420883
H190	H	1.405272	0.512845	0.920883
O191	O	0.587085	-0.023785	0.083397
O192	O	1.087085	0.476215	0.583397
H193	H	0.536236	-0.047908	0.124309
H194	H	1.036236	0.452092	0.624309
O195	O	0.410927	0.115273	-0.174640
O196	O	0.910927	0.615273	0.325360
H197	H	0.468200	0.096005	-0.216210
H198	H	0.968200	0.596005	0.283790
H199	H	0.859490	-0.440293	-0.063217
H200	H	1.359490	0.059707	0.436783
O201	O	0.392442	0.247940	-0.093053
O202	O	0.892442	0.747940	0.406947
H203	H	0.440830	0.292444	-0.095562
H204	H	0.940830	0.792444	0.404438
O205	O	0.850388	-0.288144	0.083543
O206	O	1.350388	0.211856	0.583543
H207	H	0.826234	-0.339360	0.123827
H208	H	1.326234	0.160640	0.623827
O209	O	0.888974	0.002439	0.589208
O210	O	1.388974	0.502439	1.089208
H211	H	0.837102	0.050526	0.567742
H212	H	1.337102	0.550526	1.067742
