data_functionalizedCrystal
_audit_creation_method	'MofGen! by Chris Wilmer'
_symmetry_space_group_name_H-M	'P1'
_symmetry_Int_Tables_number	1
_symmetry_cell_setting	triclinic
loop_
_symmetry_equiv_pos_as_xyz
  x,y,z
_cell_length_a	19.288864
_cell_length_b	23.532407
_cell_length_c	18.366186
_cell_angle_alpha	89.989089
_cell_angle_beta	89.977106
_cell_angle_gamma	82.992461
loop_
_atom_site_label
_atom_site_type_symbol
_atom_site_fract_x
_atom_site_fract_y
_atom_site_fract_z
O1	O	0.921134	0.071045	-0.060790
O2	O	1.421134	0.571045	0.439210
O3	O	0.718843	0.080629	-0.060742
O4	O	1.218843	0.580629	0.439258
O5	O	0.826089	-0.007082	-0.060754
O6	O	1.326089	0.492918	0.439246
O7	O	0.813889	0.158756	-0.060778
O8	O	1.313889	0.658756	0.439222
O9	O	0.826071	-0.007086	0.060345
O10	O	1.326071	0.492914	0.560345
O11	O	0.718825	0.080625	0.060358
O12	O	1.218825	0.580625	0.560358
O13	O	0.921116	0.071041	0.060309
O14	O	1.421116	0.571041	0.560309
Zn15	Zn	0.819968	0.075832	0.079560
Zn16	Zn	1.319968	0.575832	0.579560
Zn17	Zn	0.819991	0.075838	-0.079993
Zn18	Zn	1.319991	0.575838	0.420007
O19	O	0.813870	0.158752	0.060321
O20	O	1.313870	0.658752	0.560321
C21	C	0.692959	0.080319	-0.000186
C22	C	1.192959	0.580319	0.499814
C23	C	0.615858	0.079393	-0.000166
C24	C	1.115858	0.579393	0.499834
C25	C	0.825769	-0.028301	-0.000203
C26	C	1.325769	0.471699	0.499797
C27	C	0.824835	-0.091520	-0.000197
C28	C	1.324835	0.408480	0.499803
C29	C	0.571003	0.130858	-0.000185
C30	C	1.071003	0.630858	0.499815
C31	C	0.498559	0.129988	-0.000193
C32	C	0.998559	0.629988	0.499807
C33	C	0.470973	0.077651	-0.000197
C34	C	0.970973	0.577651	0.499803
C35	C	0.515838	0.026179	-0.000174
C36	C	1.015838	0.526179	0.499826
C37	C	0.588280	0.027050	-0.000159
C38	C	1.088280	0.527050	0.499841
C39	C	0.362844	0.036509	-0.042642
C40	C	0.862844	0.536509	0.457358
C41	C	0.290402	0.035640	-0.042662
C42	C	0.790402	0.535640	0.457338
C43	C	0.247535	0.074961	-0.000240
C44	C	0.747535	0.574961	0.499760
C45	C	0.277118	0.115162	0.042191
C46	C	0.777118	0.615162	0.542191
C47	C	0.349561	0.116033	0.042206
C48	C	0.849561	0.616033	0.542206
C49	C	0.392422	0.076700	-0.000213
C50	C	0.892422	0.576700	0.499787
C51	C	0.124127	0.125487	-0.000267
C52	C	0.624127	0.625487	0.499733
C53	C	0.051682	0.124615	-0.000270
C54	C	0.551682	0.624615	0.499730
C55	C	0.068962	0.020805	-0.000258
C56	C	0.568962	0.520805	0.499742
C57	C	0.141406	0.021678	-0.000248
C58	C	0.641406	0.521678	0.499752
C59	C	0.168984	0.074021	-0.000255
C60	C	0.668984	0.574021	0.499745
C61	C	0.882442	-0.490503	-0.000251
C62	C	1.382442	0.009497	0.499749
C63	C	0.881574	-0.549905	-0.000256
C64	C	1.381574	-0.049905	0.499744
O65	O	0.934976	-0.586539	-0.000296
O66	O	1.434976	-0.086539	0.499704
N67	N	0.817817	-0.572664	-0.000240
N68	N	1.317817	-0.072664	0.499760
C69	C	0.754923	-0.536017	-0.000226
C70	C	1.254923	-0.036017	0.499774
O71	O	0.700613	-0.560829	-0.000214
O72	O	1.200613	-0.060829	0.499786
C73	C	0.755792	-0.476616	-0.000226
C74	C	1.255792	0.023384	0.499774
C75	C	0.819553	-0.453861	-0.000235
C76	C	1.319553	0.046139	0.499765
C77	C	0.946198	-0.467748	-0.000260
C78	C	1.446198	0.032252	0.499740
C79	C	0.947065	-0.408350	-0.000253
C80	C	1.447065	0.091650	0.499747
C81	C	0.884177	-0.371707	-0.000237
C82	C	1.384177	0.128293	0.499763
C83	C	0.820420	-0.394463	-0.000228
C84	C	1.320420	0.105537	0.499772
C85	C	0.692899	-0.439970	-0.000217
C86	C	1.192899	0.060030	0.499783
C87	C	0.693773	-0.380565	-0.000218
C88	C	1.193773	0.119435	0.499782
C89	C	0.757534	-0.357810	-0.000226
C90	C	1.257534	0.142190	0.499774
C91	C	0.758399	-0.298422	-0.000205
C92	C	1.258399	0.201578	0.499795
N93	N	0.822156	-0.275664	-0.000221
N94	N	1.322156	0.224336	0.499779
C95	C	0.885045	-0.312307	-0.000237
C96	C	1.385045	0.187693	0.499763
C97	C	0.753104	-0.660763	-0.000228
C98	C	1.253104	-0.160763	0.499772
C99	C	0.752235	-0.720163	-0.000223
C100	C	1.252235	-0.220163	0.499777
C101	C	0.878886	-0.734047	-0.000254
C102	C	1.378886	-0.234047	0.499746
C103	C	0.879755	-0.674647	-0.000254
C104	C	1.379755	-0.174647	0.499746
C105	C	0.816861	-0.638005	-0.000244
C106	C	1.316861	-0.138005	0.499756
C107	C	0.886862	-0.187566	-0.000222
C108	C	1.386862	0.312434	0.499778
C109	C	0.887724	-0.128162	-0.000213
C110	C	1.387724	0.371838	0.499787
C111	C	0.761073	-0.114283	-0.000185
C112	C	1.261073	0.385717	0.499815
C113	C	0.760211	-0.173681	-0.000191
C114	C	1.260211	0.326319	0.499809
C115	C	0.823111	-0.210322	-0.000212
C116	C	1.323111	0.289678	0.499788
O117	O	0.705025	-0.261754	-0.000168
O118	O	1.205025	0.238246	0.499832
O119	O	0.939346	-0.287486	-0.000259
O120	O	1.439346	0.212514	0.499741
C121	C	0.947000	0.071351	-0.000249
C122	C	1.447000	0.571351	0.499751
C123	C	1.024101	0.072277	-0.000273
C124	C	1.524101	0.572277	0.499727
C125	C	0.814190	0.179971	-0.000232
C126	C	1.314190	0.679971	0.499768
C127	C	0.815124	0.243190	-0.000242
C128	C	1.315124	0.743190	0.499758
N129	N	0.819956	0.075828	0.188452
N130	N	1.319956	0.575828	0.688452
N131	N	0.820008	0.075837	-0.188884
N132	N	1.320008	0.575837	0.311116
C133	C	0.867460	0.037009	0.226546
C134	C	1.367460	0.537009	0.726546
C135	C	0.867464	0.037006	0.302774
C136	C	1.367464	0.537006	0.802774
C137	C	0.819972	0.075833	0.340904
C138	C	1.319972	0.575833	0.840904
C139	C	0.772459	0.114655	0.302800
C140	C	1.272459	0.614655	0.802800
C141	C	0.772452	0.114653	0.226574
C142	C	1.272452	0.614653	0.726574
C143	C	0.810514	0.127724	0.461659
C144	C	1.310514	0.627724	0.961659
C145	C	0.810526	0.127727	0.537884
C146	C	1.310526	0.627727	1.037884
C147	C	0.819991	0.075840	0.576012
C148	C	1.319991	0.575840	1.076012
C149	C	0.829459	0.023947	0.537906
C150	C	1.329459	0.523947	1.037906
C151	C	0.829451	0.023945	0.461679
C152	C	1.329451	0.523945	0.961679
C153	C	0.819975	0.075839	0.423559
C154	C	1.319975	0.575839	0.923559
C155	C	0.867502	0.037014	0.696762
C156	C	1.367502	0.537014	1.196762
C157	C	0.867502	0.037011	0.772991
C158	C	1.367502	0.537011	1.272991
C159	C	0.772500	0.114665	0.773015
C160	C	1.272500	0.614665	1.273015
C161	C	0.772497	0.114663	0.696788
C162	C	1.272497	0.614663	1.196788
C163	C	0.820002	0.075839	0.658665
C164	C	1.320002	0.575839	1.158665
H165	H	0.593452	0.173479	-0.000193
H166	H	1.093452	0.673479	0.499807
C167	C	1.017203	-0.383327	-0.000276
C168	C	1.517203	0.116673	0.499724
H169	H	1.054528	-0.413664	-0.000295
H170	H	1.554528	0.086336	0.499705
H171	H	1.020180	-0.360449	0.041951
H172	H	1.520180	0.139551	0.541951
H173	H	1.020179	-0.360441	-0.042515
H174	H	1.520179	0.139559	0.457485
C175	C	0.919706	-0.005703	0.184616
C176	C	1.419706	0.494297	0.684616
H177	H	0.947993	-0.028826	0.218226
H178	H	1.447993	0.471174	0.718226
H179	H	0.948472	0.014720	0.154855
H180	H	1.448472	0.514720	0.654855
H181	H	0.894877	-0.029362	0.154905
H182	H	1.394877	0.470638	0.654905
H183	H	0.642556	-0.350733	-0.000211
H184	H	1.142556	0.149267	0.499789
H185	H	0.373644	0.148763	0.076758
H186	H	0.873644	0.648763	0.576758
C187	C	0.190752	-0.034933	-0.000238
C188	C	0.690752	0.465067	0.499762
H189	H	0.237846	-0.026918	-0.000223
H190	H	0.737846	0.473082	0.499777
H191	H	0.182452	-0.056400	-0.042467
H192	H	0.682452	0.443600	0.457533
H193	H	0.182406	-0.056403	0.041998
H194	H	0.682406	0.443597	0.541998
C195	C	0.622760	-0.464987	-0.000214
C196	C	1.122760	0.035013	0.499786
H197	H	0.585437	-0.434649	-0.000214
H198	H	1.085437	0.065351	0.499786
H199	H	0.619770	-0.487878	0.042013
H200	H	1.119770	0.012122	0.542013
H201	H	0.619797	-0.487860	-0.042453
H202	H	1.119797	0.012140	0.457547
C203	C	0.690076	-0.198713	-0.000184
C204	C	1.190076	0.301287	0.499816
H205	H	0.652746	-0.168380	-0.000178
H206	H	1.152746	0.331620	0.499822
H207	H	0.687091	-0.221610	0.042039
H208	H	1.187091	0.278390	0.542039
H209	H	0.687116	-0.221582	-0.042427
H210	H	1.187116	0.278418	0.457573
H211	H	0.733818	0.146276	0.665769
H212	H	1.233818	0.646276	1.165769
C213	C	0.691901	-0.073969	-0.000172
C214	C	1.191901	0.426031	0.499828
H215	H	0.701555	-0.035334	-0.000178
H216	H	1.201555	0.464666	0.499822
H217	H	0.665725	-0.080853	0.042060
H218	H	1.165725	0.419147	0.542060
H219	H	0.665752	-0.080843	-0.042406
H220	H	1.165752	0.419157	0.457594
H221	H	0.837166	-0.018304	0.568948
H222	H	1.337166	0.481696	1.068948
H223	H	0.733789	0.146267	0.333850
H224	H	1.233789	0.646267	0.833850
C225	C	0.919760	-0.005691	0.814895
C226	C	1.419760	0.494309	1.314895
H227	H	0.948053	-0.028809	0.781271
H228	H	1.448053	0.471191	1.281271
H229	H	0.894948	-0.029350	0.844652
H230	H	1.394948	0.470650	1.344652
H231	H	0.948531	0.014744	0.844610
H232	H	1.448531	0.514744	1.344610
H233	H	0.462031	0.171898	-0.000206
H234	H	0.962031	0.671898	0.499794
H235	H	0.906182	0.005399	0.665721
H236	H	1.406182	0.505399	1.165721
C237	C	0.002338	0.181228	-0.000292
C238	C	0.502338	0.681228	0.499708
H239	H	-0.044757	0.173214	-0.000291
H240	H	0.455243	0.673214	0.499709
H241	H	0.010683	0.202695	-0.042525
H242	H	0.510683	0.702695	0.457475
H243	H	0.010638	0.202698	0.041940
H244	H	0.510638	0.702698	0.541940
C245	C	0.839854	-0.033130	0.419763
C246	C	1.339854	0.466870	0.919763
H247	H	0.845588	-0.064033	0.453381
H248	H	1.345588	0.435967	0.953381
H249	H	0.880243	-0.034334	0.389923
H250	H	1.380243	0.465666	0.889923
H251	H	0.800135	-0.036239	0.390132
H252	H	1.300135	0.463761	0.890132
C253	C	0.919721	-0.005693	0.344691
C254	C	1.419721	0.494307	0.844691
H255	H	0.912919	-0.000133	0.395548
H256	H	1.412919	0.499867	0.895548
H257	H	0.966030	0.000398	0.332172
H258	H	1.466030	0.500398	0.832172
H259	H	0.912443	-0.043692	0.332218
H260	H	1.412443	0.456308	0.832218
H261	H	0.733828	0.146276	0.804060
H262	H	1.233828	0.646276	1.304060
C263	C	0.800117	0.184805	0.579793
C264	C	1.300117	0.684805	1.079793
H265	H	0.794467	0.215707	0.546170
H266	H	1.294467	0.715707	1.046170
H267	H	0.839785	0.187886	0.609505
H268	H	1.339785	0.687886	1.109505
H269	H	0.759666	0.186041	0.609552
H270	H	1.259666	0.686041	1.109552
H271	H	0.802794	0.169979	0.430621
H272	H	1.302794	0.669979	0.930621
H273	H	0.938081	-0.217393	-0.000242
H274	H	1.438081	0.282607	0.499758
H275	H	0.733768	0.146265	0.195556
H276	H	1.233768	0.646265	0.695556
H277	H	0.242217	0.147181	0.076735
H278	H	0.742217	0.647181	0.576735
C279	C	0.957864	-0.103135	-0.000226
C280	C	1.457864	0.396865	0.499774
H281	H	0.995192	-0.133469	-0.000245
H282	H	1.495192	0.366531	0.499755
H283	H	0.960833	-0.080260	0.042004
H284	H	1.460833	0.419740	0.542004
H285	H	0.960841	-0.080245	-0.042461
H286	H	1.460841	0.419755	0.457539
H287	H	0.046503	-0.021810	-0.000307
H288	H	0.546503	0.478190	0.499693
C289	C	1.015382	-0.508046	-0.000272
C290	C	1.515382	-0.008046	0.499728
H291	H	1.053471	-0.485978	-0.000272
H292	H	1.553471	0.014022	0.499728
H293	H	1.017695	-0.531506	-0.042499
H294	H	1.517695	-0.031506	0.457501
H295	H	1.017670	-0.531509	0.041966
H296	H	1.517670	-0.031509	0.541966
H297	H	0.266322	0.002909	-0.077215
H298	H	0.766322	0.502909	0.422785
C299	C	0.154470	0.183059	-0.000266
C300	C	0.654470	0.683059	0.499734
H301	H	0.204039	0.176207	-0.000265
H302	H	0.704039	0.676207	0.499735
H303	H	0.139027	0.204240	0.041959
H304	H	0.639027	0.704240	0.541959
H305	H	0.139070	0.204243	-0.042506
H306	H	0.639070	0.704243	0.457494
C307	C	0.409990	-0.006743	-0.089315
C308	C	0.909990	0.493257	0.410685
H309	H	0.381997	-0.030801	-0.114596
H310	H	0.881997	0.469199	0.385404
H311	H	0.442064	-0.029402	-0.058726
H312	H	0.942064	0.470598	0.441274
H313	H	0.434986	0.013296	-0.123427
H314	H	0.934986	0.513296	0.376573
C315	C	0.683917	-0.620461	-0.000203
C316	C	1.183917	-0.120461	0.499797
H317	H	0.645826	-0.642527	-0.000187
H318	H	1.145826	-0.142527	0.499813
H319	H	0.681621	-0.596991	-0.042430
H320	H	1.181621	-0.096991	0.457570
H321	H	0.681617	-0.597009	0.042035
H322	H	1.181617	-0.097009	0.542035
C323	C	0.949891	-0.649621	-0.000270
C324	C	1.449891	-0.149621	0.499730
H325	H	0.987217	-0.679957	-0.000283
H326	H	1.487217	-0.179957	0.499717
H327	H	0.952860	-0.626742	0.041958
H328	H	1.452860	-0.126742	0.541958
H329	H	0.952871	-0.626735	-0.042508
H330	H	1.452871	-0.126735	0.457492
H331	H	0.493372	-0.016435	-0.000187
H332	H	0.993372	0.483565	0.499813
C333	C	0.637623	-0.029564	-0.000147
C334	C	1.137623	0.470436	0.499853
H335	H	0.610821	-0.060860	-0.000154
H336	H	1.110821	0.439140	0.499846
H337	H	0.666223	-0.031384	0.042086
H338	H	1.166223	0.468616	0.542086
H339	H	0.666260	-0.031377	-0.042379
H340	H	1.166260	0.468623	0.457621
H341	H	0.930094	-0.763893	-0.000269
H342	H	1.430094	-0.263893	0.499731
H343	H	0.700314	-0.738684	-0.000203
H344	H	1.200314	-0.238684	0.499797
