data_functionalizedCrystal
_audit_creation_method	'MofGen! by Chris Wilmer'
_symmetry_space_group_name_H-M	'P1'
_symmetry_Int_Tables_number	1
_symmetry_cell_setting	triclinic
loop_
_symmetry_equiv_pos_as_xyz
  x,y,z
_cell_length_a	16.109301
_cell_length_b	19.188930
_cell_length_c	15.186229
_cell_angle_alpha	89.991143
_cell_angle_beta	89.999362
_cell_angle_gamma	83.303131
loop_
_atom_site_label
_atom_site_type_symbol
_atom_site_fract_x
_atom_site_fract_y
_atom_site_fract_z
O1	O	1.102833	0.089744	-0.073183
O2	O	0.860734	0.100912	-0.073198
O3	O	0.988770	-0.006311	-0.073173
O4	O	0.974797	0.196967	-0.073208
O5	O	0.988762	-0.006313	0.073284
O6	O	0.860726	0.100911	0.073259
O7	O	1.102825	0.089742	0.073274
Zn8	Zn	0.981774	0.095326	0.096520
Zn9	Zn	0.981785	0.095328	-0.096444
O10	O	0.974789	0.196966	0.073249
C11	C	0.829757	0.100459	0.000029
C12	C	0.737466	0.099103	0.000024
C13	C	0.514993	0.159573	0.000023
C14	C	0.428277	0.158294	0.000029
C15	C	0.448573	0.031076	0.000048
C16	C	0.535287	0.032357	0.000048
C17	C	0.568495	0.096608	0.000031
C18	C	0.395064	0.094047	0.000037
C19	C	0.301043	0.092659	0.000043
C20	C	0.662522	0.097996	0.000027
C21	C	0.988313	-0.032324	0.000058
C22	C	0.986955	-0.109832	0.000066
C23	C	1.062082	-0.154580	0.000075
C24	C	1.060806	-0.227407	0.000060
C25	C	0.984399	-0.255482	0.000055
C26	C	0.909261	-0.210724	0.000041
C27	C	0.910540	-0.137899	0.000046
N28	N	0.925991	-0.363624	0.049893
N29	N	0.924782	-0.432805	0.049890
C30	C	0.980543	-0.474900	0.000037
N31	N	1.037571	-0.445200	-0.049802
N32	N	1.038783	-0.376013	-0.049795
C33	C	0.983004	-0.334448	0.000049
C34	C	1.054292	-0.598616	0.000029
C35	C	1.053012	-0.671443	0.000010
C36	C	0.901465	-0.654759	-0.000001
C37	C	0.902747	-0.581933	0.000010
C38	C	0.979162	-0.553866	0.000029
C39	C	1.133802	0.090196	0.000045
C40	C	1.226093	0.091552	0.000045
C41	C	0.975246	0.222979	0.000016
C42	C	0.976604	0.300486	0.000003
N43	N	0.981772	0.095325	0.228213
N44	N	0.981793	0.095325	-0.228137
C45	C	1.038486	0.047862	0.453947
C46	C	1.038488	0.047860	0.546136
C47	C	0.925074	0.142790	0.546123
C48	C	0.925068	0.142787	0.453935
C49	C	0.981779	0.095324	0.407849
C50	C	0.981787	0.095325	0.592227
C51	C	0.981790	0.095323	0.692183
C52	C	0.981775	0.095325	0.307887
H53	H	0.384719	0.209567	0.000024
H54	H	0.878902	0.181434	0.583655
O55	O	0.870014	0.188831	0.409014
C56	C	0.819785	0.230926	0.266983
C57	C	0.882161	0.178738	0.317746
H58	H	0.829596	0.222794	0.193185
H59	H	0.753211	0.221816	0.285047
H60	H	0.830409	0.286845	0.285146
H61	H	0.871614	0.122800	0.299611
H62	H	0.948714	0.187909	0.299678
O63	O	0.547114	0.222044	0.000054
C64	C	0.517826	0.348091	-0.000010
C65	C	0.481343	0.277390	-0.000028
H66	H	0.464668	0.392857	-0.000095
H67	H	0.557886	0.351916	0.061296
H68	H	0.557945	0.351838	-0.061289
H69	H	0.441186	0.273596	0.061209
H70	H	0.441331	0.273596	-0.061374
H71	H	1.124306	-0.131733	0.000087
O72	O	0.416272	-0.031315	-0.000100
C73	C	0.330108	-0.106568	-0.075945
C74	C	0.366646	-0.035892	-0.075894
H75	H	0.289964	-0.110285	-0.137208
H76	H	0.383211	-0.151381	-0.075994
H77	H	0.290050	-0.110341	-0.014626
H78	H	0.406694	-0.032051	-0.137202
H79	H	0.313504	0.008887	-0.075798
O80	O	0.587147	-0.028877	0.000016
C81	C	0.598134	-0.155194	0.000088
C82	C	0.539309	-0.085904	0.000099
H83	H	0.559481	-0.201319	0.000174
H84	H	0.639226	-0.157820	-0.061217
H85	H	0.639253	-0.157735	0.061368
H86	H	0.498138	-0.083317	-0.061139
H87	H	0.498274	-0.083307	0.061445
O88	O	0.835091	-0.238076	-0.000080
C89	C	0.745685	-0.310572	-0.075994
C90	C	0.829722	-0.279658	-0.075950
H91	H	0.741309	-0.344186	-0.137338
H92	H	0.741279	-0.344304	-0.014745
H93	H	0.692220	-0.266065	-0.075957
H94	H	0.883235	-0.324120	-0.076019
H95	H	0.834055	-0.245907	-0.137194
H96	H	1.084662	0.009214	0.416426
H97	H	1.084664	0.009211	0.583666
H98	H	1.121986	-0.263848	0.000064
H99	H	0.849360	-0.101464	0.000039
H100	H	1.116514	-0.575763	0.000041
O101	O	1.126051	-0.714843	-0.000100
C102	C	1.255174	-0.751394	-0.075983
C103	C	1.172496	-0.702193	-0.075958
H104	H	1.292740	-0.741194	-0.137316
H105	H	1.292838	-0.741192	-0.014724
H106	H	1.241119	-0.808261	-0.075952
H107	H	1.186476	-0.645309	-0.076020
H108	H	1.134856	-0.712456	-0.137212
O109	O	0.827315	-0.682138	0.000028
C110	C	0.758181	-0.786935	-0.000051
C111	C	0.842217	-0.756018	-0.000057
H112	H	0.770200	-0.846670	-0.000139
H113	H	0.721047	-0.768566	0.061252
H114	H	0.721076	-0.768448	-0.061332
H115	H	0.879390	-0.774490	0.061182
H116	H	0.879287	-0.774383	-0.061401
H117	H	0.841570	-0.545497	0.000008
