data_functionalizedCrystal
_audit_creation_method	'MofGen! by Chris Wilmer'
_symmetry_space_group_name_H-M	'P1'
_symmetry_Int_Tables_number	1
_symmetry_cell_setting	triclinic
loop_
_symmetry_equiv_pos_as_xyz
  x,y,z
_cell_length_a	12.759401
_cell_length_b	12.759399
_cell_length_c	12.759386
_cell_angle_alpha	89.937142
_cell_angle_beta	89.957497
_cell_angle_gamma	90.016641
loop_
_atom_site_label
_atom_site_type_symbol
_atom_site_fract_x
_atom_site_fract_y
_atom_site_fract_z
Zn1	Zn	1.606487	-0.417841	-0.594018
Zn2	Zn	1.606311	-0.593655	-0.418336
Zn3	Zn	1.430720	-0.417995	-0.418353
Zn4	Zn	1.430776	-0.593484	-0.593974
O5	O	1.518573	-0.505744	-0.506170
O6	O	1.753485	-0.441171	-0.570725
O7	O	1.582921	-0.570489	-0.271317
O8	O	1.454086	-0.270954	-0.441680
O9	O	1.753355	-0.570340	-0.441653
O10	O	1.583221	-0.270841	-0.570741
O11	O	1.453915	-0.441433	-0.271329
O12	O	1.283706	-0.441267	-0.441638
O13	O	1.454182	-0.570048	-0.741001
O14	O	1.283748	-0.570197	-0.570666
O15	O	1.583276	-0.441005	-0.741033
O16	O	1.582976	-0.740653	-0.441610
O17	O	1.454011	-0.740527	-0.570650
C18	C	1.245606	-0.505731	-0.506149
C19	C	1.128829	-0.505751	-0.506165
C20	C	1.518509	-0.778711	-0.506146
C21	C	1.518578	-0.895488	-0.506171
C22	C	1.074017	-0.572987	-0.573245
C23	C	0.964293	-0.572991	-0.573265
C24	C	0.964204	-0.438519	-0.439119
C25	C	1.073926	-0.438511	-0.439104
C26	C	0.814443	-0.610621	-0.697126
C27	C	0.759626	-0.677873	-0.764196
C28	C	0.795229	-0.780395	-0.780143
C29	C	0.885647	-0.815685	-0.729005
C30	C	0.940458	-0.748438	-0.661927
C31	C	0.904857	-0.645902	-0.646000
C32	C	1.223777	-0.400892	-0.315242
C33	C	1.278590	-0.333650	-0.248158
C34	C	1.242989	-0.231126	-0.232201
C35	C	1.152568	-0.195840	-0.283320
C36	C	1.097755	-0.263082	-0.350404
C37	C	1.133364	-0.365605	-0.366364
C38	C	1.585806	-0.950380	-0.439056
C39	C	1.585873	-1.060104	-0.439092
C40	C	1.451475	-1.060034	-0.573359
C41	C	1.451414	-0.950312	-0.573329
C42	C	1.709868	-1.210001	-0.401704
C43	C	1.777087	-1.264897	-0.334573
C44	C	1.793211	-1.229414	-0.232063
C45	C	1.742101	-1.139036	-0.196663
C46	C	1.674874	-1.084145	-0.263788
C47	C	1.658770	-1.119627	-0.366313
C48	C	1.327418	-0.800413	-0.610705
C49	C	1.260185	-0.745521	-0.677827
C50	C	1.244050	-0.781002	-0.780339
C51	C	1.295142	-0.871383	-0.815735
C52	C	1.362375	-0.926276	-0.748614
C53	C	1.378511	-0.890787	-0.646103
C54	C	1.792607	-0.505757	-0.506192
C55	C	1.909383	-0.505763	-0.506201
C56	C	1.518755	-0.505490	-0.780204
C57	C	1.518833	-0.505382	-0.896981
C58	C	1.518667	-0.231710	-0.506217
C59	C	1.518706	-0.114934	-0.506237
C60	C	1.518453	-0.505921	-0.233203
C61	C	1.518579	-0.505733	-0.116426
C62	C	1.450988	-0.438945	-0.061620
C63	C	1.451117	-0.438767	0.048104
C64	C	1.586431	-0.572172	0.048205
C65	C	1.586307	-0.572345	-0.061516
C66	C	1.412890	-0.314901	0.197796
C67	C	1.345283	-0.248122	0.252605
C68	C	1.242619	-0.232790	0.217146
C69	C	1.207541	-0.284250	0.126879
C70	C	1.275143	-0.351036	0.072075
C71	C	1.377822	-0.366349	0.107532
C72	C	1.624522	-0.696213	-0.211210
C73	C	1.692120	-0.763005	-0.266017
C74	C	1.794786	-0.778348	-0.230560
C75	C	1.829860	-0.726906	-0.140289
C76	C	1.762262	-0.660114	-0.085483
C77	C	1.659597	-0.644769	-0.120947
H78	H	1.014074	-0.777171	-0.620291
O79	O	1.940595	-0.743442	-0.102038
H80	H	1.981711	-0.798519	-0.155319
H81	H	1.352216	-0.362389	-0.206533
O82	O	0.736100	-0.852933	-0.852476
H83	H	0.776038	-0.930160	-0.854965
O84	O	1.262180	-0.511476	-0.332457
H85	H	1.200611	-0.567711	-0.307525
O86	O	1.619774	-0.986649	-0.225643
H87	H	1.533700	-0.998232	-0.230557
O88	O	0.662110	-0.639803	-0.819348
H89	H	0.594515	-0.689433	-0.796068
H90	H	1.246584	-0.392934	-0.001419
O91	O	1.379029	-1.119162	-0.645787
H92	H	1.296566	-1.098183	-0.627692
H93	H	1.696756	-1.238893	-0.485180
O94	O	1.654199	-0.818712	-0.363219
H95	H	1.718415	-0.867822	-0.395306
O96	O	1.759495	-1.100769	-0.086092
H97	H	1.683603	-1.099696	-0.043533
O98	O	1.865725	-1.288607	-0.159658
H99	H	1.898561	-1.357404	-0.201496
H100	H	0.785453	-0.527135	-0.684158
O101	O	1.800088	-0.604615	0.011876
H102	H	1.882839	-0.626496	0.027324
O103	O	1.832222	-1.362368	-0.372749
H104	H	1.809736	-1.377811	-0.455320
H105	H	1.849821	-0.832742	-0.275190
H106	H	0.919488	-0.383777	-0.384518
O107	O	1.513783	-0.679660	-0.249451
H108	H	1.500745	-0.726667	-0.321418
H109	H	1.118716	-0.627736	-0.627853
H110	H	1.373853	-0.206223	0.326101
H111	H	1.403981	-0.999866	-0.777444
O112	O	1.277752	-0.909661	-0.926305
H113	H	1.222428	-0.856301	-0.967035
O114	O	1.000234	-0.225027	-0.405555
H115	H	0.984687	-0.142435	-0.383198
H116	H	1.189300	-0.736299	-0.834987
O117	O	1.205135	-0.647995	-0.639671
H118	H	1.155688	-0.615778	-0.703571
O119	O	0.924045	-0.926270	-0.746196
H120	H	0.870747	-0.967100	-0.801436
H121	H	1.123937	-0.271770	0.098022
O122	O	1.344821	-0.762149	-0.500131
H123	H	1.297982	-0.690091	-0.486788
H124	H	1.496491	-0.327368	0.226668
O125	O	1.377955	-0.367092	-0.120850
H126	H	1.330986	-0.320612	-0.064301
O127	O	1.114161	-0.085257	-0.266122
H128	H	1.167472	-0.044424	-0.210896
H129	H	1.641571	-0.626407	0.092926
O130	O	1.169665	-0.160785	0.276244
H131	H	1.203443	-0.080634	0.278096
O132	O	1.301782	-0.158419	-0.159758
H133	H	1.383089	-0.147850	-0.188905
H134	H	1.640496	-0.905745	-0.384374
