data_functionalizedCrystal
_audit_creation_method	'MofGen! by Chris Wilmer'
_symmetry_space_group_name_H-M	'P1'
_symmetry_Int_Tables_number	1
_symmetry_cell_setting	triclinic
loop_
_symmetry_equiv_pos_as_xyz
  x,y,z
_cell_length_a	16.625546
_cell_length_b	21.395364
_cell_length_c	21.395356
_cell_angle_alpha	90.017542
_cell_angle_beta	89.971853
_cell_angle_gamma	89.980031
loop_
_atom_site_label
_atom_site_type_symbol
_atom_site_fract_x
_atom_site_fract_y
_atom_site_fract_z
Zn1	Zn	-0.321072	-0.957845	-0.354279
Zn2	Zn	0.178928	-0.457845	0.145721
Zn3	Zn	-0.455910	-0.957777	-0.249502
Zn4	Zn	0.044090	-0.457777	0.250498
Zn5	Zn	-0.321089	-0.853075	-0.249514
Zn6	Zn	0.178911	-0.353075	0.250486
Zn7	Zn	-0.455860	-0.853044	-0.354240
Zn8	Zn	0.044140	-0.353044	0.145760
O9	O	-0.388483	-0.905435	-0.301884
O10	O	0.111517	-0.405435	0.198116
O11	O	-0.338972	-1.045514	-0.340391
O12	O	0.161028	-0.545514	0.159609
O13	O	-0.438053	-0.943873	-0.161825
O14	O	0.061947	-0.443873	0.338175
O15	O	-0.208254	-0.867014	-0.263433
O16	O	0.291746	-0.367014	0.236567
O17	O	-0.438037	-1.045464	-0.263412
O18	O	0.061963	-0.545464	0.236588
O19	O	-0.208242	-0.943988	-0.340403
O20	O	0.291758	-0.443988	0.159597
O21	O	-0.339001	-0.866948	-0.161834
O22	O	0.160999	-0.366948	0.338166
O23	O	-0.338953	-0.765393	-0.263395
O24	O	0.161047	-0.265393	0.236605
O25	O	-0.437953	-0.866962	-0.441923
O26	O	0.062047	-0.366962	0.058077
O27	O	-0.437969	-0.765371	-0.340337
O28	O	0.062031	-0.265371	0.159663
O29	O	-0.338924	-0.943959	-0.441952
O30	O	0.161076	-0.443959	0.058048
O31	O	-0.568736	-0.943843	-0.263374
O32	O	-0.068736	-0.443843	0.236626
O33	O	-0.568699	-0.866896	-0.340325
O34	O	-0.068699	-0.366896	0.159675
C35	C	-0.388458	-0.742648	-0.301863
C36	C	0.111542	-0.242648	0.198137
C37	C	-0.388467	-0.673007	-0.301869
C38	C	0.111533	-0.173007	0.198131
C39	C	-0.597974	-0.905376	-0.301857
C40	C	-0.097974	-0.405376	0.198143
C41	C	-0.687595	-0.905408	-0.301867
C42	C	-0.187595	-0.405408	0.198133
C43	C	-0.440121	-0.171215	-0.341897
C44	C	0.059879	0.328785	0.158103
C45	C	-0.440122	-0.236651	-0.341892
C46	C	0.059878	0.263349	0.158108
C47	C	-0.388488	-0.269368	-0.301894
C48	C	0.111512	0.230632	0.198106
C49	C	-0.336864	-0.236645	-0.261887
C50	C	0.163136	0.263355	0.238113
C51	C	-0.336870	-0.171211	-0.261889
C52	C	0.163130	0.328789	0.238111
C53	C	-0.315827	-0.373050	-0.297044
C54	C	0.184173	0.126950	0.202956
C55	C	-0.315819	-0.438483	-0.297046
C56	C	0.184181	0.061517	0.202954
C57	C	-0.388471	-0.471189	-0.301883
C58	C	0.111529	0.028811	0.198117
C59	C	-0.461132	-0.438454	-0.306731
C60	C	0.038868	0.061546	0.193269
C61	C	-0.461138	-0.373020	-0.306733
C62	C	0.038862	0.126980	0.193267
C63	C	-0.388477	-0.340321	-0.301887
C64	C	0.111523	0.159679	0.198113
C65	C	-0.440098	-0.574857	-0.341878
C66	C	0.059902	-0.074857	0.158122
C67	C	-0.440101	-0.640293	-0.341868
C68	C	0.059899	-0.140293	0.158132
C69	C	-0.336835	-0.640287	-0.261867
C70	C	0.163165	-0.140287	0.238133
C71	C	-0.336839	-0.574851	-0.261874
C72	C	0.163161	-0.074851	0.238126
C73	C	-0.388470	-0.542140	-0.301883
C74	C	0.111530	-0.042140	0.198117
C75	C	-1.015770	-0.905517	-0.301932
C76	C	-0.515770	-0.405517	0.198068
C77	C	-0.924462	-0.905485	-0.301916
C78	C	-0.424462	-0.405485	0.198084
C79	C	-0.851685	-0.905462	-0.301899
C80	C	-0.351685	-0.405462	0.198101
C81	C	-0.760371	-0.905431	-0.301884
C82	C	-0.260371	-0.405431	0.198116
C83	C	-0.178174	-0.905512	-0.301924
C84	C	0.321826	-0.405512	0.198076
C85	C	-0.088553	-0.905545	-0.301941
C86	C	0.411447	-0.405545	0.198059
C87	C	-0.388431	-0.905464	-0.465307
C88	C	0.111569	-0.405464	0.034693
C89	C	-0.388409	-0.905477	-0.534948
C90	C	0.111591	-0.405477	-0.034948
C91	C	-0.388503	-0.068859	-0.301901
C92	C	0.111497	0.431141	0.198099
C93	C	-0.388500	-0.138500	-0.301898
C94	C	0.111500	0.361500	0.198102
C95	C	-0.336716	-0.945628	-1.036761
C96	C	0.163284	-0.445628	-0.536761
C97	C	-0.336736	-0.945623	-0.971325
C98	C	0.163264	-0.445623	-0.471325
C99	C	-0.388301	-0.905531	-0.938587
C100	C	0.111699	-0.405531	-0.438587
C101	C	-0.439866	-0.865451	-0.971289
C102	C	0.060134	-0.365451	-0.471289
C103	C	-0.439851	-0.865462	-1.036723
C104	C	0.060149	-0.365462	-0.536723
C105	C	-0.394684	-0.849062	-0.834910
C106	C	0.105316	-0.349062	-0.334910
C107	C	-0.394693	-0.849051	-0.769477
C108	C	0.105307	-0.349051	-0.269477
C109	C	-0.388353	-0.905498	-0.736766
C110	C	0.111647	-0.405498	-0.236766
C111	C	-0.381986	-0.961960	-0.769496
C112	C	0.118014	-0.461960	-0.269496
C113	C	-0.381971	-0.961970	-0.834930
C114	C	0.118029	-0.461970	-0.334930
C115	C	-0.388324	-0.905515	-0.867634
C116	C	0.111676	-0.405515	-0.367634
C117	C	-0.336816	-0.945573	-0.633119
C118	C	0.163184	-0.445573	-0.133119
C119	C	-0.336842	-0.945569	-0.567682
C120	C	0.163158	-0.445569	-0.067682
C121	C	-0.439968	-0.865392	-0.567647
C122	C	0.060032	-0.365392	-0.067647
C123	C	-0.439947	-0.865401	-0.633083
C124	C	0.060053	-0.365401	-0.133083
C125	C	-0.388367	-0.905491	-0.665815
C126	C	0.111633	-0.405491	-0.165815
C127	C	-0.388476	-0.905443	-0.139096
C128	C	0.111524	-0.405443	0.360904
C129	C	-0.388271	-0.905552	-0.069455
C130	C	0.111729	-0.405552	0.430545
H131	H	-0.482165	-0.144586	-0.374474
H132	H	0.017835	0.355414	0.125526
C133	C	-0.496690	-0.821291	-0.531643
C134	C	0.003310	-0.321291	-0.031643
H135	H	-0.489313	-0.827021	-0.487990
H136	H	0.010687	-0.327021	0.012010
H137	H	-0.550863	-0.830443	-0.542356
H138	H	-0.050863	-0.330443	-0.042356
H139	H	-0.484876	-0.779197	-0.542363
H140	H	0.015124	-0.279197	-0.042363
H141	H	-0.481925	-0.832764	-0.659703
H142	H	0.018075	-0.332764	-0.159703
H143	H	-0.256654	-0.465130	-0.293106
H144	H	0.243346	0.034870	0.206894
H145	H	-0.399877	-0.803077	-0.742833
H146	H	0.100123	-0.303077	-0.242833
C147	C	-0.541055	-0.474419	-0.312051
C148	C	-0.041055	0.025581	0.187949
H149	H	-0.584326	-0.445553	-0.314942
H150	H	-0.084326	0.054447	0.185058
H151	H	-0.548084	-0.499930	-0.276132
H152	H	-0.048084	0.000070	0.223868
H153	H	-0.540064	-0.499959	-0.348373
H154	H	-0.040064	0.000041	0.151627
C155	C	-0.496892	-0.538869	-0.385879
C156	C	0.003108	-0.038869	0.114121
H157	H	-0.489495	-0.495213	-0.380158
H158	H	0.010505	0.004787	0.119842
H159	H	-0.551052	-0.549575	-0.376635
H160	H	-0.051052	-0.049575	0.123365
H161	H	-0.485155	-0.549612	-0.427994
H162	H	0.014845	-0.049612	0.072006
H163	H	-0.399848	-0.803092	-0.861537
H164	H	0.100152	-0.303092	-0.361537
C165	C	-0.280003	-0.989740	-1.072765
C166	C	0.219997	-0.489740	-0.572765
H167	H	-0.287377	-0.984008	-1.116419
H168	H	0.212623	-0.484008	-0.616419
H169	H	-0.291822	-1.031828	-1.062037
H170	H	0.208178	-0.531828	-0.562037
H171	H	-0.225822	-0.980592	-1.062059
H172	H	0.274178	-0.480592	-0.562059
H173	H	-0.256662	-0.346425	-0.293095
H174	H	0.243338	0.153575	0.206905
H175	H	-0.481835	-0.832826	-1.063343
H176	H	0.018165	-0.332826	-0.563343
C177	C	-0.496585	-0.821349	-0.935280
C178	C	0.003415	-0.321349	-0.435280
H179	H	-0.489204	-0.827078	-0.891627
H180	H	0.010796	-0.327078	-0.391627
H181	H	-0.550759	-0.830501	-0.945990
H182	H	-0.050759	-0.330501	-0.445990
H183	H	-0.484772	-0.779255	-0.946002
H184	H	0.015228	-0.279255	-0.446002
C185	C	-0.496902	-0.272645	-0.385896
C186	C	0.003098	0.227355	0.114104
H187	H	-0.527648	-0.243792	-0.409727
H188	H	-0.027648	0.256208	0.090273
H189	H	-0.531994	-0.298158	-0.361885
H190	H	-0.031994	0.201842	0.138115
H191	H	-0.466087	-0.298184	-0.413236
H192	H	0.033913	0.201816	0.086764
C193	C	-0.375008	-1.024055	-0.733524
C194	C	0.124992	-0.524055	-0.233524
H195	H	-0.375936	-1.015966	-0.689866
H196	H	0.124064	-0.515966	-0.189866
H197	H	-0.325919	-1.044105	-0.744262
H198	H	0.174081	-0.544105	-0.244262
H199	H	-0.418873	-1.050399	-0.744242
H200	H	0.081127	-0.550399	-0.244242
H201	H	-0.482142	-0.666929	-0.374438
H202	H	0.017858	-0.166929	0.125562
C203	C	-0.541055	-0.337011	-0.312060
C204	C	-0.041055	0.162989	0.187940
H205	H	-0.530649	-0.293358	-0.311373
H206	H	-0.030649	0.206642	0.188627
H207	H	-0.574917	-0.347714	-0.277931
H208	H	-0.074917	0.152286	0.222069
H209	H	-0.566898	-0.347740	-0.350172
H210	H	-0.066898	0.152260	0.149828
C211	C	-0.280076	-0.135220	-0.217898
C212	C	0.219924	0.364780	0.282102
H213	H	-0.287475	-0.091564	-0.223628
H214	H	0.212525	0.408436	0.276372
H215	H	-0.225917	-0.145962	-0.227142
H216	H	0.274083	0.354038	0.272858
H217	H	-0.291808	-0.145921	-0.175779
H218	H	0.208192	0.354079	0.324221
H219	H	-0.294796	-0.666925	-0.229298
H220	H	0.205204	-0.166925	0.270702
C221	C	-0.280040	-0.538860	-0.217889
C222	C	0.219960	-0.038860	0.282111
H223	H	-0.287439	-0.495204	-0.223618
H224	H	0.212561	0.004796	0.276382
H225	H	-0.225882	-0.549603	-0.227138
H226	H	0.274118	-0.049603	0.272862
H227	H	-0.291767	-0.549562	-0.175770
H228	H	0.208233	-0.049562	0.324230
C229	C	-0.280063	-0.272629	-0.217892
C230	C	0.219937	0.227371	0.282108
H231	H	-0.249322	-0.243770	-0.194067
H232	H	0.250678	0.256230	0.305933
H233	H	-0.244968	-0.298169	-0.241908
H234	H	0.255032	0.201831	0.258092
H235	H	-0.310863	-0.298140	-0.190548
H236	H	0.189137	0.201860	0.309452
C237	C	-0.280013	-0.989701	-0.935354
C238	C	0.219987	-0.489701	-0.435354
H239	H	-0.249288	-1.013574	-0.964219
H240	H	0.250712	-0.513574	-0.464219
H241	H	-0.310855	-1.016988	-0.909819
H242	H	0.189145	-0.516988	-0.409819
H243	H	-0.244889	-0.965726	-0.909838
H244	H	0.255111	-0.465726	-0.409838
C245	C	-0.374980	-1.024070	-0.870934
C246	C	0.125020	-0.524070	-0.370934
H247	H	-0.375875	-1.015989	-0.914588
H248	H	0.124125	-0.515989	-0.414588
H249	H	-0.418848	-1.050408	-0.860204
H250	H	0.081152	-0.550408	-0.360204
H251	H	-0.325893	-1.044121	-0.860229
H252	H	0.174107	-0.544121	-0.360229
H253	H	-0.294816	-0.978216	-0.659770
H254	H	0.205184	-0.478216	-0.159770
C255	C	-0.280128	-0.989655	-0.531718
C256	C	0.219872	-0.489655	-0.031718
H257	H	-0.249404	-1.013527	-0.560586
H258	H	0.250596	-0.513527	-0.060586
H259	H	-0.310977	-1.016944	-0.506190
H260	H	0.189023	-0.516944	-0.006190
H261	H	-0.245001	-0.965689	-0.506196
H262	H	0.254999	-0.465689	-0.006196
