data_functionalizedCrystal
_audit_creation_method	'MofGen! by Chris Wilmer'
_symmetry_space_group_name_H-M	'P1'
_symmetry_Int_Tables_number	1
_symmetry_cell_setting	triclinic
loop_
_symmetry_equiv_pos_as_xyz
  x,y,z
_cell_length_a	12.645331
_cell_length_b	19.121063
_cell_length_c	12.645323
_cell_angle_alpha	92.408124
_cell_angle_beta	89.977324
_cell_angle_gamma	92.467980
loop_
_atom_site_label
_atom_site_type_symbol
_atom_site_fract_x
_atom_site_fract_y
_atom_site_fract_z
Zn1	Zn	1.602654	-0.279627	-0.617388
Zn2	Zn	1.935987	0.053706	-0.284055
Zn3	Zn	2.269321	0.387040	0.049278
Zn4	Zn	1.594942	-0.397086	-0.447665
Zn5	Zn	1.928275	-0.063752	-0.114332
Zn6	Zn	2.261609	0.269581	0.219002
Zn7	Zn	1.425367	-0.279651	-0.440134
Zn8	Zn	1.758700	0.053683	-0.106801
Zn9	Zn	2.092034	0.387016	0.226532
Zn10	Zn	1.417760	-0.397040	-0.624877
Zn11	Zn	1.751093	-0.063706	-0.291544
Zn12	Zn	2.084426	0.269627	0.041789
O13	O	1.510181	-0.338351	-0.532516
O14	O	1.843514	-0.005017	-0.199183
O15	O	2.176847	0.328316	0.134150
O16	O	1.749978	-0.295217	-0.594892
O17	O	2.083311	0.038116	-0.261558
O18	O	2.416644	0.371449	0.071775
O19	O	1.572404	-0.381537	-0.298321
O20	O	1.905737	-0.048203	0.035013
O21	O	2.239070	0.285130	0.368346
O22	O	1.455295	-0.181363	-0.457361
O23	O	1.788629	0.151970	-0.124028
O24	O	2.121962	0.485303	0.209305
O25	O	1.744312	-0.381514	-0.470197
O26	O	2.077645	-0.048180	-0.136863
O27	O	2.410978	0.285153	0.196470
O28	O	1.585547	-0.181346	-0.587589
O29	O	1.918881	0.151988	-0.254256
O30	O	2.252214	0.485321	0.079077
O31	O	1.447818	-0.295258	-0.292788
O32	O	1.781151	0.038075	0.040546
O33	O	2.114484	0.371409	0.373879
O34	O	1.276011	-0.295213	-0.464623
O35	O	1.609344	0.038120	-0.131290
O36	O	1.942678	0.371453	0.202043
O37	O	1.442330	-0.381436	-0.772230
O38	O	1.775663	-0.048102	-0.438896
O39	O	2.108997	0.285231	-0.105563
O40	O	1.270422	-0.381459	-0.600353
O41	O	1.603755	-0.048125	-0.267020
O42	O	1.937089	0.285208	0.066313
O43	O	1.578171	-0.295173	-0.766727
O44	O	1.911504	0.038160	-0.433394
O45	O	2.244838	0.371494	-0.100061
O46	O	1.565027	-0.495364	-0.477459
O47	O	1.898361	-0.162031	-0.144125
O48	O	2.231694	0.171303	0.189208
O49	O	1.434852	-0.495330	-0.607656
O50	O	1.768186	-0.161997	-0.274322
O51	O	2.101519	0.171336	0.059011
C52	C	1.234752	-0.338334	-0.532485
C53	C	1.568085	-0.005001	-0.199151
C54	C	1.901419	0.328333	0.134182
C55	C	1.116921	-0.338344	-0.532497
C56	C	1.450255	-0.005011	-0.199164
C57	C	1.783588	0.328323	0.134169
C58	C	0.952854	-0.283838	-0.447545
C59	C	1.286187	0.049496	-0.114212
C60	C	1.619521	0.382829	0.219121
C61	C	1.075405	-0.283979	-0.447195
C62	C	1.408738	0.049355	-0.113862
C63	C	1.742071	0.382688	0.219471
C64	C	1.067618	-0.412331	-0.506730
C65	C	1.400951	-0.078998	-0.173396
C66	C	1.734285	0.254335	0.159937
C67	C	0.945039	-0.412033	-0.506155
C68	C	1.278372	-0.078700	-0.172822
C69	C	1.611705	0.254633	0.160512
C70	C	0.950986	-0.319567	-0.643576
C71	C	1.284319	0.013766	-0.310243
C72	C	1.617652	0.347100	0.023090
C73	C	1.073698	-0.317914	-0.642847
C74	C	1.407032	0.015419	-0.309513
C75	C	1.740365	0.348752	0.023820
C76	C	1.498306	-0.520831	-0.544210
C77	C	1.831640	-0.187498	-0.210877
C78	C	2.164973	0.145836	0.122457
C79	C	1.493323	-0.598897	-0.549248
C80	C	1.826657	-0.265564	-0.215915
C81	C	2.159990	0.067770	0.117418
C82	C	1.558810	-0.635567	-0.483885
C83	C	1.892144	-0.302233	-0.150551
C84	C	2.225477	0.031100	0.182782
C85	C	1.554130	-0.708918	-0.488629
C86	C	1.887463	-0.375585	-0.155296
C87	C	2.220797	-0.042251	0.178037
C88	C	1.483957	-0.745598	-0.558733
C89	C	1.817290	-0.412265	-0.225399
C90	C	2.150624	-0.078931	0.107934
C91	C	1.418467	-0.708923	-0.624104
C92	C	1.751801	-0.375590	-0.290770
C93	C	2.085134	-0.042256	0.042563
C94	C	1.423154	-0.635573	-0.619364
C95	C	1.756487	-0.302240	-0.286030
C96	C	2.089820	0.031093	0.047303
C97	C	1.466419	-0.967067	-0.576438
C98	C	1.799752	-0.633734	-0.243105
C99	C	2.133086	-0.300401	0.090229
C100	C	1.461736	-1.040422	-0.581171
C101	C	1.795069	-0.707089	-0.247837
C102	C	2.128402	-0.373756	0.085496
C103	C	1.597400	-1.040412	-0.445697
C104	C	1.930734	-0.707079	-0.112364
C105	C	2.264067	-0.373745	0.220969
C106	C	1.602076	-0.967061	-0.440959
C107	C	1.935409	-0.633727	-0.107626
C108	C	2.268742	-0.300394	0.225708
C109	C	1.536590	-0.930392	-0.506334
C110	C	1.869924	-0.597059	-0.173000
C111	C	2.203257	-0.263726	0.160333
C112	C	1.479169	-0.820575	-0.563582
C113	C	1.812502	-0.487241	-0.230249
C114	C	2.145836	-0.153908	0.103085
C115	C	1.541384	-0.855417	-0.501489
C116	C	1.874717	-0.522084	-0.168156
C117	C	2.208051	-0.188750	0.165178
C118	C	1.786685	-0.338368	-0.532549
C119	C	2.120018	-0.005035	-0.199215
C120	C	2.453351	0.328299	0.134118
C121	C	1.904514	-0.338375	-0.532563
C122	C	2.237848	-0.005042	-0.199229
C123	C	2.571181	0.328291	0.134104
C124	C	1.510262	-0.338296	-0.809018
C125	C	1.843596	-0.004963	-0.475685
C126	C	2.176929	0.328370	-0.142352
C127	C	1.510297	-0.338273	-0.926847
C128	C	1.843630	-0.004940	-0.593514
C129	C	2.176964	0.328393	-0.260180
C130	C	1.522130	-0.155158	-0.520800
C131	C	1.855464	0.178175	-0.187467
C132	C	2.188797	0.511509	0.145867
C133	C	1.527222	-0.077092	-0.515807
C134	C	1.860556	0.256241	-0.182474
C135	C	2.193889	0.589575	0.150860
C136	C	1.424603	-0.392285	-1.097856
C137	C	1.757936	-0.058952	-0.764523
C138	C	2.091270	0.274381	-0.431189
C139	C	1.424801	-0.392553	-0.975313
C140	C	1.758134	-0.059219	-0.641980
C141	C	2.091468	0.274114	-0.308647
C142	C	1.620698	-0.358362	-0.972656
C143	C	1.954031	-0.025028	-0.639322
C144	C	2.287365	0.308305	-0.305989
C145	C	1.620225	-0.358700	-1.095276
C146	C	1.953558	-0.025367	-0.761942
C147	C	2.286892	0.307966	-0.428609
C148	C	1.486666	-0.263871	-1.089271
C149	C	1.819999	0.069462	-0.755937
C150	C	2.153332	0.402796	-0.422604
C151	C	1.484145	-0.264317	-0.966693
C152	C	1.817478	0.069016	-0.633360
C153	C	2.150811	0.402350	-0.300026
C154	C	1.510164	-0.338354	-0.257087
C155	C	1.843497	-0.005021	0.076247
C156	C	2.176830	0.328312	0.409580
C157	C	1.510347	-0.338179	-0.139246
C158	C	1.843680	-0.004846	0.194087
C159	C	2.177014	0.328487	0.527421
H160	H	0.926948	-0.228808	-0.462935
H161	H	1.260281	0.104525	-0.129602
H162	H	1.593614	0.437859	0.203731
H163	H	1.686088	-0.320200	-0.941072
H164	H	2.019421	0.013133	-0.607738
H165	H	2.352754	0.346467	-0.274405
H166	H	1.402923	-0.249167	-0.936622
H167	H	1.736256	0.084166	-0.603288
H168	H	2.069590	0.417499	-0.269955
H169	H	1.641782	-0.412113	-0.945416
H170	H	1.975115	-0.078780	-0.612083
H171	H	2.308448	0.254553	-0.278749
H172	H	1.404605	-1.070285	-0.638276
H173	H	1.737938	-0.736952	-0.304943
H174	H	2.071271	-0.403618	0.028391
H175	H	1.103879	-0.296410	-0.364833
H176	H	1.437212	0.036924	-0.031500
H177	H	1.770546	0.370257	0.301834
H178	H	1.542416	-0.221874	-0.933348
H179	H	1.875750	0.111460	-0.600015
H180	H	2.209083	0.444793	-0.266682
H181	H	0.921211	-0.296131	-0.365663
H182	H	1.254545	0.037202	-0.032330
H183	H	1.587878	0.370536	0.301004
H184	H	0.915362	-0.427984	-0.425139
H185	H	1.248695	-0.094650	-0.091806
H186	H	1.582028	0.238683	0.241527
H187	H	1.407816	-0.245560	-1.119000
H188	H	1.741150	0.087773	-0.785667
H189	H	2.074483	0.421106	-0.452333
H190	H	1.101976	-0.354739	-0.709195
H191	H	1.435309	-0.021406	-0.375861
H192	H	1.768642	0.311927	-0.042528
H193	H	0.912678	-0.454044	-0.565636
H194	H	1.246012	-0.120711	-0.232302
H195	H	1.579345	0.212623	0.101031
H196	H	1.106322	-0.263468	-0.662363
H197	H	1.439656	0.069865	-0.329030
H198	H	1.772989	0.403199	0.004304
H199	H	1.439685	-0.447029	-1.132188
H200	H	1.773019	-0.113696	-0.798854
H201	H	2.106352	0.219637	-0.465521
H202	H	1.094090	-0.454052	-0.566917
H203	H	1.427423	-0.120719	-0.233584
H204	H	1.760757	0.212615	0.099750
H205	H	0.919439	-0.359290	-0.706863
H206	H	1.252772	-0.025957	-0.373530
H207	H	1.586106	0.307376	-0.040197
H208	H	1.413096	-0.937218	-0.629667
H209	H	1.746429	-0.603884	-0.296333
H210	H	2.079763	-0.270551	0.037000
H211	H	1.549176	-0.223560	-1.115698
H212	H	1.882509	0.109773	-0.782364
H213	H	2.215842	0.443107	-0.449031
H214	H	1.615948	-0.605707	-0.426794
H215	H	1.949281	-0.272373	-0.093461
H216	H	2.282615	0.060960	0.239872
H217	H	1.097224	-0.428555	-0.426612
H218	H	1.430558	-0.095222	-0.093279
H219	H	1.763891	0.238111	0.240054
H220	H	0.923516	-0.266557	-0.667927
H221	H	1.256849	0.066776	-0.334593
H222	H	1.590183	0.400109	-0.001260
H223	H	1.607456	-0.738771	-0.435402
H224	H	1.940789	-0.405438	-0.102069
H225	H	2.274122	-0.072104	0.231264
H226	H	1.640858	-0.413021	-1.127372
H227	H	1.974192	-0.079688	-0.794039
H228	H	2.307525	0.253646	-0.460705
H229	H	1.109052	-0.229114	-0.462801
H230	H	1.442386	0.104219	-0.129468
H231	H	1.775719	0.437553	0.203865
H232	H	1.659216	-0.937197	-0.383875
H233	H	1.992550	-0.603864	-0.050542
H234	H	2.325883	-0.270531	0.282792
H235	H	1.361335	-0.738794	-0.681188
H236	H	1.694669	-0.405460	-0.347855
H237	H	2.028002	-0.072127	-0.014521
H238	H	1.369829	-0.605717	-0.672591
H239	H	1.703162	-0.272384	-0.339258
H240	H	2.036495	0.060949	-0.005924
H241	H	1.650716	-1.070275	-0.392474
H242	H	1.984050	-0.736942	-0.059141
H243	H	2.317383	-0.403609	0.274192
H244	H	1.598523	-0.825550	-0.444415
H245	H	1.931857	-0.492217	-0.111081
H246	H	2.265190	-0.158883	0.222252
H247	H	1.422032	-0.850448	-0.620658
H248	H	1.755365	-0.517114	-0.287325
H249	H	2.088698	-0.183781	0.046008
H250	H	1.342785	-0.379982	-0.944405
H251	H	1.676118	-0.046649	-0.611071
H252	H	2.009451	0.286685	-0.277738
H253	H	1.342333	-0.379835	-1.126531
H254	H	1.675667	-0.046502	-0.793197
H255	H	2.009000	0.286831	-0.459864
H256	H	1.440044	-0.447641	-0.949534
H257	H	1.773378	-0.114308	-0.616200
H258	H	2.106711	0.219026	-0.282867
H259	H	1.686020	-0.321003	-1.122535
H260	H	2.019353	0.012330	-0.789202
H261	H	2.352686	0.345664	-0.455869
