data_functionalizedCrystal
_audit_creation_method	'MofGen! by Chris Wilmer'
_symmetry_space_group_name_H-M	'P1'
_symmetry_Int_Tables_number	1
_symmetry_cell_setting	triclinic
loop_
_symmetry_equiv_pos_as_xyz
  x,y,z
_cell_length_a	19.077236
_cell_length_b	19.077432
_cell_length_c	19.076919
_cell_angle_alpha	89.934943
_cell_angle_beta	90.112677
_cell_angle_gamma	89.927472
loop_
_atom_site_label
_atom_site_type_symbol
_atom_site_fract_x
_atom_site_fract_y
_atom_site_fract_z
Zn1	Zn	1.068908	-0.254666	0.430741
Zn2	Zn	1.078235	-0.367094	0.308908
Zn3	Zn	0.956108	-0.254298	0.308536
Zn4	Zn	0.956444	-0.376454	0.421286
O5	O	1.014924	-0.313128	0.367368
O6	O	1.168322	-0.265816	0.418693
O7	O	1.065797	-0.348061	0.210685
O8	O	0.967027	-0.156172	0.328548
O9	O	1.175174	-0.348417	0.329183
O10	O	1.049901	-0.156442	0.418332
O11	O	0.976071	-0.265189	0.210411
O12	O	0.857976	-0.274265	0.319379
O13	O	0.967600	-0.364369	0.520715
O14	O	0.858223	-0.364013	0.402217
O15	O	1.050227	-0.274892	0.527661
O16	O	1.066123	-0.466510	0.320014
O17	O	0.976644	-0.473387	0.402578
C18	C	0.832643	-0.320115	0.359732
C19	C	0.754663	-0.323122	0.356481
C20	C	0.714461	-0.281603	0.401623
C21	C	0.641190	-0.284424	0.398563
C22	C	0.608123	-0.328769	0.350363
C23	C	0.648330	-0.370290	0.305217
C24	C	0.721599	-0.367464	0.308274
C25	C	0.389373	-0.341820	0.336212
C26	C	0.316099	-0.344644	0.333159
C27	C	0.308963	-0.258777	0.426504
C28	C	0.382235	-0.255959	0.429560
C29	C	0.422436	-0.297477	0.384411
N30	N	0.533228	-0.331656	0.347236
N31	N	0.497329	-0.294586	0.387536
C32	C	1.022451	-0.495404	0.360326
C33	C	1.025734	-0.573381	0.357340
C34	C	0.980660	-0.613620	0.398885
C35	C	0.983748	-0.686888	0.396077
C36	C	1.031914	-0.719915	0.351726
C37	C	1.076990	-0.679670	0.310177
C38	C	1.073898	-0.606404	0.312982
C39	C	1.046158	-0.938650	0.338728
C40	C	1.049248	-1.011922	0.335927
C41	C	0.956005	-1.019134	0.421827
C42	C	0.952920	-0.945867	0.424631
C43	C	0.997993	-0.905628	0.383079
N44	N	1.035073	-0.794806	0.348856
N45	N	0.994830	-0.830739	0.385946
C46	C	1.197916	-0.306114	0.375034
C47	C	1.275897	-0.303125	0.378301
C48	C	1.007910	-0.320716	0.550355
C49	C	1.004922	-0.323949	0.628333
C50	C	1.007386	-0.130140	0.374453
C51	C	1.004174	-0.052161	0.377472
C52	C	1.021948	-0.305517	0.185096
C53	C	1.025064	-0.302081	0.107132
C54	C	1.046535	-0.278884	0.668586
C55	C	1.043718	-0.281920	0.741854
C56	C	0.999291	-0.330025	0.774869
C57	C	0.957674	-0.375092	0.734612
C58	C	0.960487	-0.372052	0.661344
C59	C	0.986260	-0.344108	0.993607
C60	C	0.983451	-0.347146	1.066879
C61	C	1.069495	-0.253973	1.074117
C62	C	1.072308	-0.250941	1.000848
C63	C	1.030687	-0.296005	0.960597
N64	N	0.996413	-0.333131	0.849761
N65	N	1.033563	-0.292895	0.885706
H66	H	0.422096	-0.375628	0.299449
F67	F	0.613135	-0.417481	0.253916
H68	H	1.108486	-0.211771	0.973972
F69	F	0.417422	-0.208764	0.480864
F70	F	0.901657	-0.910722	0.471837
F71	F	1.113785	-0.206015	1.116960
H72	H	1.082859	-0.905894	0.304895
H73	H	0.754331	-0.401273	0.271514
F74	F	0.598407	-0.240235	0.446610
H75	H	1.116204	-0.706567	0.274062
H76	H	1.110601	-0.573642	0.279150
F77	F	1.100515	-1.047070	0.288721
F78	F	0.266174	-0.214593	0.474551
H79	H	0.919308	-1.051904	0.455656
F80	F	0.936161	-0.398345	1.102015
H81	H	1.082714	-0.239714	0.641710
F82	F	0.280908	-0.391858	0.281869
H83	H	0.741378	-0.245494	0.440874
H84	H	0.921498	-0.414257	0.761498
F85	F	0.941964	-0.392070	0.950778
F86	F	0.916195	-0.420014	0.618505
F87	F	0.929398	-0.578477	0.446093
H88	H	0.947038	-0.719648	0.429901
H89	H	1.077605	-0.245225	0.774625
