data_functionalizedCrystal
_audit_creation_method	'MofGen! by Chris Wilmer'
_symmetry_space_group_name_H-M	'P1'
_symmetry_Int_Tables_number	1
_symmetry_cell_setting	triclinic
loop_
_symmetry_equiv_pos_as_xyz
  x,y,z
_cell_length_a	18.101398
_cell_length_b	18.101397
_cell_length_c	21.395356
_cell_angle_alpha	89.970896
_cell_angle_beta	89.981071
_cell_angle_gamma	90.018618
loop_
_atom_site_label
_atom_site_type_symbol
_atom_site_fract_x
_atom_site_fract_y
_atom_site_fract_z
Zn1	Zn	1.132209	-0.294885	-0.354177
Zn2	Zn	1.465543	0.038448	-0.020844
Zn3	Zn	1.798876	0.371782	0.312489
Zn4	Zn	1.132118	-0.418728	-0.249397
Zn5	Zn	1.465451	-0.085395	0.083936
Zn6	Zn	1.798785	0.247939	0.417269
Zn7	Zn	1.008358	-0.294901	-0.249423
Zn8	Zn	1.341692	0.038432	0.083911
Zn9	Zn	1.675025	0.371766	0.417244
Zn10	Zn	1.008342	-0.418685	-0.354146
Zn11	Zn	1.341675	-0.085352	-0.020813
Zn12	Zn	1.675009	0.247982	0.312521
O13	O	1.070257	-0.356800	-0.301786
O14	O	1.403590	-0.023466	0.031548
O15	O	1.736924	0.309867	0.364881
O16	O	1.235830	-0.311324	-0.340281
O17	O	1.569163	0.022009	-0.006947
O18	O	1.902497	0.355342	0.326386
O19	O	1.115670	-0.402327	-0.161723
O20	O	1.449003	-0.068993	0.171611
O21	O	1.782337	0.264340	0.504944
O22	O	1.024832	-0.191266	-0.263342
O23	O	1.358166	0.142067	0.069991
O24	O	1.691499	0.475401	0.403324
O25	O	1.235763	-0.402311	-0.263299
O26	O	1.569096	-0.068978	0.070034
O27	O	1.902430	0.264355	0.403368
O28	O	1.115825	-0.191254	-0.340305
O29	O	1.449158	0.142079	-0.006972
O30	O	1.782492	0.475413	0.326362
O31	O	1.024744	-0.311351	-0.161741
O32	O	1.358077	0.021982	0.171592
O33	O	1.691411	0.355315	0.504925
O34	O	0.904723	-0.311310	-0.263312
O35	O	1.238057	0.022023	0.070022
O36	O	1.571390	0.355357	0.403355
O37	O	1.024804	-0.402238	-0.441828
O38	O	1.358138	-0.068905	-0.108495
O39	O	1.691471	0.264429	0.224839
O40	O	0.904711	-0.402254	-0.340252
O41	O	1.238044	-0.068920	-0.006918
O42	O	1.571378	0.264413	0.326415
O43	O	1.115809	-0.311283	-0.441851
O44	O	1.449143	0.022051	-0.108518
O45	O	1.782476	0.355384	0.224816
O46	O	1.115654	-0.522355	-0.263269
O47	O	1.448987	-0.189022	0.070065
O48	O	1.782321	0.144311	0.403398
O49	O	1.024716	-0.522324	-0.340227
O50	O	1.358049	-0.188990	-0.006894
O51	O	1.691383	0.144343	0.326440
C52	C	0.877846	-0.356779	-0.301781
C53	C	1.211180	-0.023446	0.031552
C54	C	1.544513	0.309887	0.364885
C55	C	0.795532	-0.356788	-0.301794
C56	C	1.128866	-0.023455	0.031539
C57	C	1.462199	0.309878	0.364872
C58	C	0.644824	-0.356802	-0.301793
C59	C	0.978157	-0.023469	0.031540
C60	C	1.311490	0.309864	0.364873
C61	C	0.613487	-0.414110	-0.350127
C62	C	0.946821	-0.080776	-0.016794
C63	C	1.280154	0.252557	0.316540
C64	C	0.527869	-0.414342	-0.349984
C65	C	0.861202	-0.081008	-0.016650
C66	C	1.194536	0.252325	0.316683
C67	C	0.496441	-0.356816	-0.301793
C68	C	0.829775	-0.023483	0.031540
C69	C	1.163108	0.309851	0.364873
C70	C	0.527492	-0.377640	-0.235681
C71	C	0.860825	-0.044307	0.097652
C72	C	1.194158	0.289027	0.430985
C73	C	0.613137	-0.378048	-0.235961
C74	C	0.946470	-0.044715	0.097373
C75	C	1.279803	0.288619	0.430706
C76	C	0.613290	-0.278529	-0.318995
C77	C	0.946623	0.054805	0.014338
C78	C	1.279956	0.388138	0.347672
C79	C	0.527640	-0.278958	-0.320451
C80	C	0.860973	0.054376	0.012882
C81	C	1.194306	0.387709	0.346216
C82	C	0.412582	-0.356822	-0.301789
C83	C	0.745915	-0.023489	0.031544
C84	C	1.079248	0.309844	0.364877
C85	C	0.728683	-0.356798	-0.301793
C86	C	1.062017	-0.023464	0.031540
C87	C	1.395350	0.309869	0.364874
C88	C	1.070193	-0.549210	-0.301755
C89	C	1.403527	-0.215877	0.031578
C90	C	1.736860	0.117456	0.364911
C91	C	1.070234	-0.631524	-0.301763
C92	C	1.403567	-0.298191	0.031570
C93	C	1.736901	0.035142	0.364903
C94	C	1.070329	-0.930615	-0.301821
C95	C	1.403662	-0.597282	0.031513
C96	C	1.736995	-0.263949	0.364846
C97	C	1.127385	-0.899279	-0.253271
C98	C	1.460718	-0.565946	0.080063
C99	C	1.794051	-0.232612	0.413396
C100	C	1.127582	-0.813661	-0.253396
C101	C	1.460916	-0.480327	0.079937
C102	C	1.794249	-0.146994	0.413270
C103	C	1.070282	-0.782233	-0.301792
C104	C	1.403615	-0.448899	0.031542
C105	C	1.736948	-0.115566	0.364875
C106	C	1.091444	-0.813243	-0.367833
C107	C	1.424777	-0.479909	-0.034499
C108	C	1.758111	-0.146576	0.298834
C109	C	1.091886	-0.898888	-0.367568
C110	C	1.425219	-0.565554	-0.034235
C111	C	1.758552	-0.232221	0.299098
C112	C	0.991958	-0.899121	-0.284901
C113	C	1.325292	-0.565788	0.048433
C114	C	1.658625	-0.232455	0.381766
C115	C	0.992345	-0.813472	-0.283426
C116	C	1.325679	-0.480138	0.049907
C117	C	1.659012	-0.146805	0.383240
C118	C	1.070254	-0.698373	-0.301779
C119	C	1.403587	-0.365040	0.031554
C120	C	1.736921	-0.031707	0.364887
C121	C	1.070358	-1.014475	-0.301837
C122	C	1.403692	-0.681141	0.031496
C123	C	1.737025	-0.347808	0.364829
C124	C	1.263419	-0.356821	-0.301790
C125	C	1.596752	-0.023487	0.031543
C126	C	1.930085	0.309846	0.364876
C127	C	1.345733	-0.356830	-0.301792
C128	C	1.679066	-0.023496	0.031541
C129	C	2.012399	0.309837	0.364874
C130	C	1.070315	-0.356754	-0.465209
C131	C	1.403648	-0.023420	-0.131876
C132	C	1.736982	0.309913	0.201458
C133	C	1.070340	-0.356734	-0.534850
C134	C	1.403673	-0.023401	-0.201517
C135	C	1.737007	0.309932	0.131816
C136	C	1.070341	-0.163638	-0.301830
C137	C	1.403674	0.169696	0.031503
C138	C	1.737007	0.503029	0.364837
C139	C	1.070376	-0.081324	-0.301849
C140	C	1.403710	0.252010	0.031485
C141	C	1.737043	0.585343	0.364818
C142	C	1.023007	-0.309358	-0.567563
C143	C	1.356341	0.023975	-0.234230
C144	C	1.689674	0.357309	0.099103
C145	C	1.023005	-0.309344	-0.632999
C146	C	1.356338	0.023989	-0.299665
C147	C	1.689672	0.357322	0.033668
C148	C	1.070348	-0.356699	-0.665719
C149	C	1.403681	-0.023366	-0.332385
C150	C	1.737015	0.309968	0.000948
C151	C	1.117684	-0.404084	-0.632998
C152	C	1.451017	-0.070751	-0.299665
C153	C	1.784351	0.262582	0.033669
C154	C	1.117680	-0.404102	-0.567564
C155	C	1.451013	-0.070769	-0.234230
C156	C	1.784346	0.262565	0.099103
C157	C	1.137074	-0.362524	-0.769400
C158	C	1.470407	-0.029190	-0.436067
C159	C	1.803741	0.304143	-0.102734
C160	C	1.137079	-0.362501	-0.834833
C161	C	1.470413	-0.029167	-0.501500
C162	C	1.803746	0.304166	-0.168167
C163	C	1.070360	-0.356649	-0.867540
C164	C	1.403694	-0.023316	-0.534206
C165	C	1.737027	0.310018	-0.200873
C166	C	1.003634	-0.350805	-0.834805
C167	C	1.336967	-0.017471	-0.501472
C168	C	1.670301	0.315862	-0.168138
C169	C	1.003630	-0.350822	-0.769371
C170	C	1.336963	-0.017489	-0.436037
C171	C	1.670297	0.315844	-0.102704
C172	C	1.070357	-0.356686	-0.736671
C173	C	1.403691	-0.023352	-0.403338
C174	C	1.737024	0.309981	-0.070004
C175	C	1.023021	-0.309255	-0.971205
C176	C	1.356354	0.024078	-0.637872
C177	C	1.689688	0.357411	-0.304538
C178	C	1.023017	-0.309247	-1.036642
C179	C	1.356351	0.024086	-0.703308
C180	C	1.689684	0.357420	-0.369975
C181	C	1.117703	-0.403983	-1.036640
C182	C	1.451036	-0.070650	-0.703306
C183	C	1.784370	0.262684	-0.369973
C184	C	1.117700	-0.403995	-0.971204
C185	C	1.451033	-0.070662	-0.637871
C186	C	1.784367	0.262671	-0.304538
C187	C	1.070360	-0.356628	-0.938491
C188	C	1.403694	-0.023294	-0.605158
C189	C	1.737027	0.310039	-0.271824
C190	C	1.070241	-0.356792	-0.138998
C191	C	1.403575	-0.023459	0.194335
C192	C	1.736908	0.309875	0.527668
C193	C	1.070360	-0.356603	-0.069357
C194	C	1.403693	-0.023270	0.263976
C195	C	1.737027	0.310064	0.597309
H196	H	0.633865	-0.338091	-0.198713
H197	H	0.967198	-0.004758	0.134620
H198	H	1.300532	0.328575	0.467954
F199	F	0.932621	-0.344573	-0.869608
F200	F	1.265955	-0.011239	-0.536274
F201	F	1.599288	0.322094	-0.202941
H202	H	0.633088	-0.435255	-0.221423
H203	H	0.966421	-0.101921	0.111911
H204	H	1.299755	0.231412	0.445244
H205	H	0.972707	-0.920780	-0.237579
H206	H	1.306041	-0.587446	0.095755
H207	H	1.639374	-0.254113	0.429088
F208	F	0.933788	-0.785520	-0.326261
F209	F	1.267122	-0.452186	0.007072
F210	F	1.600455	-0.118853	0.340405
H211	H	1.156252	-0.442539	-1.063280
H212	H	1.489585	-0.109205	-0.729946
H213	H	1.822919	0.224128	-0.396613
F214	F	0.972638	-0.258906	-0.667821
F215	F	1.305971	0.074428	-0.334488
F216	F	1.639304	0.407761	-0.001155
F217	F	0.499673	-0.220199	-0.277834
F218	F	0.833006	0.113134	0.055500
F219	F	1.166340	0.446467	0.388833
H220	H	0.976388	-0.793211	-0.234825
H221	H	1.309722	-0.459878	0.098508
H222	H	1.643055	-0.126545	0.431841
F223	F	1.166762	-0.924928	-0.386301
F224	F	1.500095	-0.591595	-0.052968
F225	F	1.833428	-0.258262	0.280365
H226	H	1.185635	-0.793119	-0.264591
H227	H	1.518968	-0.459786	0.068742
H228	H	1.852301	-0.126453	0.402076
F229	F	0.972635	-0.258847	-0.936387
F230	F	1.305969	0.074487	-0.603054
F231	F	1.639302	0.407820	-0.269720
H232	H	0.506876	-0.401352	-0.398997
H233	H	0.840210	-0.068018	-0.065663
H234	H	1.173543	0.265315	0.267670
H235	H	0.507134	-0.337179	-0.198680
H236	H	0.840467	-0.003846	0.134653
H237	H	1.173801	0.329487	0.467987
F238	F	0.641556	-0.253660	-0.380946
F239	F	0.974889	0.079673	-0.047613
F240	F	1.308223	0.413007	0.285720
F241	F	0.501119	-0.258422	-0.384047
F242	F	0.834453	0.074911	-0.050713
F243	F	1.167786	0.408244	0.282620
F244	F	0.932617	-0.344606	-0.734534
F245	F	1.265950	-0.011272	-0.401201
F246	F	1.599284	0.322061	-0.067868
H247	H	0.634110	-0.401271	-0.399292
H248	H	0.967443	-0.067937	-0.065959
H249	H	1.300777	0.265396	0.267374
F250	F	0.936392	-0.925611	-0.331118
F251	F	1.269726	-0.592277	0.002215
F252	F	1.603059	-0.258944	0.335548
F253	F	0.499426	-0.451596	-0.216352
F254	F	0.832759	-0.118263	0.116981
F255	F	1.166092	0.215071	0.450315
F256	F	0.972621	-0.258947	-0.532751
F257	F	1.305955	0.074386	-0.199418
F258	F	1.639288	0.407719	0.133916
H259	H	0.633556	-0.235835	-0.283795
H260	H	0.966889	0.097498	0.049539
H261	H	1.300222	0.430831	0.382872
H262	H	1.114342	-0.792697	-0.204428
H263	H	1.447675	-0.459364	0.128906
H264	H	1.781009	-0.126030	0.462239
H265	H	0.984468	-0.270670	-1.063276
H266	H	1.317801	0.062663	-0.729942
H267	H	1.651135	0.395997	-0.396609
H268	H	1.052149	-0.919614	-0.404988
H269	H	1.385482	-0.586281	-0.071655
H270	H	1.718816	-0.252948	0.261679
F271	F	1.110293	-0.926262	-0.189072
F272	F	1.443626	-0.592929	0.144261
F273	F	1.776959	-0.259595	0.477595
H274	H	1.156245	-0.442573	-0.944569
H275	H	1.489578	-0.109239	-0.611236
H276	H	1.822912	0.224094	-0.277902
F277	F	1.208090	-0.368757	-0.734598
F278	F	1.541423	-0.035423	-0.401265
F279	F	1.874756	0.297910	-0.067932
H280	H	1.185120	-0.920749	-0.264336
H281	H	1.518453	-0.587416	0.068997
H282	H	1.851786	-0.254083	0.402330
F283	F	1.168067	-0.454485	-0.667822
F284	F	1.501400	-0.121152	-0.334488
F285	F	1.834734	0.212181	-0.001155
H286	H	1.191412	-0.367256	-0.861481
H287	H	1.524745	-0.033923	-0.528148
H288	H	1.858078	0.299411	-0.194814
F289	F	1.038784	-0.786640	-0.416386
F290	F	1.372117	-0.453307	-0.083053
F291	F	1.705450	-0.119973	0.250281
F292	F	1.168060	-0.454528	-0.532747
F293	F	1.501394	-0.121195	-0.199414
F294	F	1.834727	0.212139	0.133920
H295	H	0.634985	-0.471781	-0.338852
H296	H	0.968318	-0.138448	-0.005519
H297	H	1.301652	0.194885	0.327814
F298	F	1.165482	-0.785136	-0.386885
F299	F	1.498815	-0.451803	-0.053552
F300	F	1.832149	-0.118469	0.279781
H301	H	0.507357	-0.472346	-0.338571
H302	H	0.840690	-0.139013	-0.005238
H303	H	1.174023	0.194320	0.328095
