data_functionalizedCrystal
_audit_creation_method	'MofGen! by Chris Wilmer'
_symmetry_space_group_name_H-M	'P1'
_symmetry_Int_Tables_number	1
_symmetry_cell_setting	triclinic
loop_
_symmetry_equiv_pos_as_xyz
  x,y,z
_cell_length_a	27.731994
_cell_length_b	26.809956
_cell_length_c	14.519709
_cell_angle_alpha	89.996594
_cell_angle_beta	83.150340
_cell_angle_gamma	90.002666
loop_
_atom_site_label
_atom_site_type_symbol
_atom_site_fract_x
_atom_site_fract_y
_atom_site_fract_z
O1	O	0.641471	0.041410	0.109480
O2	O	0.500754	0.041426	0.126217
O3	O	0.574844	0.041413	-0.016456
O4	O	0.567382	0.041423	0.252153
O5	O	0.574830	-0.041546	-0.016434
O6	O	0.500740	-0.041533	0.126239
O7	O	0.641458	-0.041550	0.109502
Zn8	Zn	0.571097	-0.054713	0.117874
Zn9	Zn	0.571115	0.054590	0.117845
O10	O	0.567368	-0.041536	0.252175
C11	C	0.482738	-0.000051	0.125884
C12	C	0.429077	-0.000045	0.124850
N13	N	0.571088	-0.129309	0.117893
C14	C	0.096320	-0.045286	0.118345
C15	C	-0.105357	-0.045291	0.114412
O16	O	-0.131439	-0.083750	0.113874
N17	N	-0.130567	-0.000070	0.113911
C18	C	-0.105354	0.045155	0.114388
O19	O	-0.131423	0.083619	0.113863
C20	C	0.096323	0.045161	0.118315
C21	C	0.121529	-0.000063	0.118825
C22	C	0.121526	-0.090506	0.118854
C23	C	0.171942	-0.090504	0.119842
C24	C	0.197151	-0.045282	0.120322
C25	C	0.171945	-0.000061	0.119813
C26	C	0.121536	0.090386	0.118785
C27	C	0.171958	0.090383	0.119765
C28	C	0.197164	0.045159	0.120274
C29	C	0.247570	0.045163	0.121281
N30	N	0.272780	-0.000058	0.121781
C31	C	0.247570	-0.045281	0.121302
C32	C	-0.211237	0.045149	0.112329
C33	C	-0.261656	0.045148	0.111349
C34	C	-0.261656	-0.045299	0.111371
C35	C	-0.211236	-0.045297	0.112357
C36	C	-0.186027	-0.000072	0.112829
C37	C	0.353447	-0.045273	0.123378
C38	C	0.403867	-0.045267	0.124370
C39	C	0.403863	0.045179	0.124343
C40	C	0.353447	0.045174	0.123356
C41	C	0.328241	-0.000056	0.122870
O42	O	0.273684	0.083601	0.121809
O43	O	0.273650	-0.083738	0.121806
C44	C	0.045904	-0.045287	0.117357
C45	C	0.020697	-0.000067	0.116848
C46	C	0.045907	0.045155	0.117328
C47	C	-0.029722	-0.000068	0.115868
C48	C	-0.054931	-0.045291	0.115388
C49	C	-0.029721	-0.090512	0.115889
C50	C	0.020694	-0.090510	0.116877
C51	C	0.020697	0.090376	0.116827
C52	C	-0.029719	0.090371	0.115840
C53	C	-0.054928	0.045148	0.115360
C54	C	0.603918	-0.473941	0.054685
C55	C	0.603929	-0.682818	0.054671
O56	O	0.631823	-0.709827	0.000935
N57	N	0.571118	-0.708936	0.117825
C58	C	0.538299	-0.682831	0.180983
O59	O	0.510388	-0.709838	0.234692
C60	C	0.538286	-0.473954	0.180992
C61	C	0.571102	-0.447839	0.117840
C62	C	0.636732	-0.447826	-0.008463
C63	C	0.636730	-0.395610	-0.008455
C64	C	0.603915	-0.369508	0.054700
C65	C	0.571101	-0.395623	0.117847
C66	C	0.505465	-0.447850	0.244145
C67	C	0.505464	-0.395627	0.244140
C68	C	0.538280	-0.369513	0.180988
C69	C	0.538284	-0.317305	0.181010
N70	N	0.571096	-0.291188	0.117856
C71	C	0.603911	-0.317289	0.054701
C72	C	0.538309	-0.792494	0.180975
C73	C	0.538313	-0.844713	0.180974
C74	C	0.603943	-0.844697	0.054660
C75	C	0.603941	-0.792477	0.054666
C76	C	0.571120	-0.766377	0.117821
C77	C	0.603906	-0.207631	0.054722
C78	C	0.603903	-0.155410	0.054738
C79	C	0.538272	-0.155431	0.181047
C80	C	0.538276	-0.207647	0.181035
C81	C	0.571095	-0.233746	0.117865
O82	O	0.510402	-0.290264	0.234711
O83	O	0.631811	-0.290273	0.000986
C84	C	0.603919	-0.526157	0.054677
C85	C	0.571105	-0.552272	0.117825
C86	C	0.538290	-0.526170	0.180980
C87	C	0.571109	-0.604491	0.117824
C88	C	0.603924	-0.630592	0.054669
C89	C	0.636736	-0.604475	-0.008485
C90	C	0.636734	-0.552259	-0.008478
C91	C	0.505478	-0.552288	0.244134
C92	C	0.505483	-0.604504	0.244122
C93	C	0.538298	-0.630606	0.180967
C94	C	0.659474	-0.000071	0.109834
C95	C	0.713135	-0.000074	0.110869
C96	C	0.574489	-0.000067	-0.050799
C97	C	0.573447	-0.000067	-0.153162
N98	N	0.571128	0.129186	0.117819
C99	C	0.569611	-0.000053	-0.527989
C100	C	0.570676	-0.000057	-0.423700
C101	C	0.571529	-0.000061	-0.340579
C102	C	0.572594	-0.000063	-0.236283
C103	C	0.567723	-0.000056	0.286518
C104	C	0.568765	-0.000052	0.388880
H105	H	0.424388	-0.082096	0.124788
Br106	Br	-0.063945	-0.151884	0.115244
H107	H	0.511595	-0.865972	0.232407
H108	H	0.041218	0.127202	0.117215
Br109	Br	-0.295860	0.106526	0.110680
Br110	Br	-0.177032	0.106533	0.112970
Br111	Br	0.493744	-0.243087	0.266756
H112	H	0.511555	-0.134171	0.232470
H113	H	0.663457	-0.531000	-0.059902
H114	H	0.041213	-0.127336	0.117292
Br115	Br	0.460945	-0.639940	0.329841
H116	H	0.101021	0.127212	0.118369
H117	H	0.663457	-0.625735	-0.059906
H118	H	0.663451	-0.374350	-0.059881
H119	H	0.424398	0.081998	0.124738
Br120	Br	0.460939	-0.516871	0.329851
Br121	Br	0.206168	0.151764	0.120400
H122	H	0.332922	0.081999	0.122956
H123	H	0.192461	-0.127330	0.120251
Br124	Br	0.319247	-0.106657	0.122716
H125	H	0.101006	-0.127333	0.118461
Br126	Br	-0.063921	0.151752	0.115157
H127	H	0.630628	-0.134149	0.003312
Br128	Br	0.648446	-0.243043	-0.031010
H129	H	-0.190717	-0.082122	0.112773
H130	H	0.663454	-0.469073	-0.059895
H131	H	-0.282190	-0.082120	0.110982
Br132	Br	0.460917	-0.360209	0.329851
Br133	Br	0.648479	-0.757041	-0.031043
Br134	Br	0.493764	-0.757078	0.266693
Br135	Br	0.648477	-0.880131	-0.031049
H136	H	0.478742	-0.469105	0.295568
