data_functionalizedCrystal
_audit_creation_method	'MofGen! by Chris Wilmer'
_symmetry_space_group_name_H-M	'P1'
_symmetry_Int_Tables_number	1
_symmetry_cell_setting	triclinic
loop_
_symmetry_equiv_pos_as_xyz
  x,y,z
_cell_length_a	15.500227
_cell_length_b	11.792241
_cell_length_c	11.792241
_cell_angle_alpha	84.193416
_cell_angle_beta	92.847446
_cell_angle_gamma	87.140299
loop_
_atom_site_label
_atom_site_type_symbol
_atom_site_fract_x
_atom_site_fract_y
_atom_site_fract_z
O1	O	0.071860	-1.512150	-0.150337
O2	O	0.071880	-1.181810	-0.166369
O3	O	0.071864	-1.354996	0.006817
O4	O	0.071877	-1.338964	-0.323523
O5	O	-0.072024	-1.344486	-0.003651
O6	O	-0.072007	-1.171301	-0.176837
O7	O	-0.072028	-1.501640	-0.160805
Cu8	Cu	-0.085156	-1.335511	-0.169777
Cu9	Cu	0.085008	-1.347940	-0.157397
O10	O	-0.072011	-1.328455	-0.333991
C11	C	-0.000061	-1.134265	-0.170595
C12	C	-0.000053	-1.008252	-0.167580
N13	N	-0.204840	-1.326777	-0.178483
C14	C	-0.000080	-1.348734	0.043874
C15	C	-0.000079	-1.345720	0.169888
C16	C	-0.250123	-1.400188	-0.105125
C17	C	-0.340696	-1.393594	-0.111721
C18	C	-0.385982	-1.313593	-0.191679
C19	C	-0.340692	-1.240175	-0.265040
C20	C	-0.250122	-1.246764	-0.258439
C21	C	-0.659447	-1.289854	-0.215441
C22	C	-0.750024	-1.283271	-0.222039
C23	C	-0.750021	-1.436690	-0.068718
C24	C	-0.659449	-1.443277	-0.062128
C25	C	-0.614166	-1.369855	-0.135485
C26	C	-0.478562	-1.306853	-0.198425
C27	C	-0.521589	-1.376590	-0.128733
N28	N	0.204692	-1.356682	-0.148682
C29	C	-0.000084	-1.549186	-0.156578
C30	C	-0.000086	-1.675200	-0.159593
C31	C	-0.000078	-0.777538	-0.162039
C32	C	-0.000065	-0.905924	-0.165118
C33	C	-0.000065	-1.334717	-0.371048
C34	C	-0.000061	-1.337731	-0.497061
C35	C	-0.000064	-1.340178	0.400601
C36	C	-0.000072	-1.343257	0.272215
H37	H	-0.213257	-1.465338	-0.040019
H38	H	-0.515442	-1.241717	-0.263531
O39	O	-0.384547	-1.162357	-0.342740
C40	C	-0.374984	-1.010922	-0.494155
C41	C	-0.325214	-1.098981	-0.406194
H42	H	-0.327034	-0.959675	-0.545498
H43	H	-0.417375	-0.950766	-0.447912
H44	H	-0.417398	-1.057199	-0.554232
H45	H	-0.282753	-1.052800	-0.346093
H46	H	-0.282877	-1.159132	-0.452513
O47	O	-0.615424	-1.218441	-0.286549
C48	C	-0.513136	-1.071083	-0.302240
C49	C	-0.562961	-1.151873	-0.221573
H50	H	-0.470694	-1.017258	-0.249739
H51	H	-0.561020	-1.012699	-0.360513
H52	H	-0.470762	-1.123549	-0.356196
H53	H	-0.605337	-1.099498	-0.167544
H54	H	-0.515031	-1.210260	-0.163377
O55	O	-0.384550	-1.465037	-0.040422
C56	C	-0.374989	-1.617885	0.112365
C57	C	-0.325217	-1.537054	0.031672
H58	H	-0.327040	-1.676115	0.170690
H59	H	-0.417351	-1.671868	0.059933
H60	H	-0.417432	-1.565447	0.166265
H61	H	-0.282727	-1.589402	-0.022246
H62	H	-0.282909	-1.483067	0.084171
H63	H	-0.622578	-1.508420	0.002981
O64	O	-0.793916	-1.507953	0.002709
C65	C	-0.821684	-1.571164	0.197605
C66	C	-0.771904	-1.490421	0.116835
H67	H	-0.803920	-1.557001	0.289892
H68	H	-0.803852	-1.663484	0.183607
H69	H	-0.894191	-1.552726	0.179097
H70	H	-0.699385	-1.508756	0.135293
H71	H	-0.789808	-1.398127	0.130849
H72	H	-0.786892	-1.218122	-0.287156
H73	H	-0.213253	-1.186984	-0.318173
H74	H	-0.484714	-1.441723	-0.063626
