data_functionalizedCrystal
_audit_creation_method	'MofGen! by Chris Wilmer'
_symmetry_space_group_name_H-M	'P1'
_symmetry_Int_Tables_number	1
_symmetry_cell_setting	triclinic
loop_
_symmetry_equiv_pos_as_xyz
  x,y,z
_cell_length_a	16.109301
_cell_length_b	15.944493
_cell_length_c	15.186229
_cell_angle_alpha	90.006101
_cell_angle_beta	90.005196
_cell_angle_gamma	83.468262
loop_
_atom_site_label
_atom_site_type_symbol
_atom_site_fract_x
_atom_site_fract_y
_atom_site_fract_z
O1	O	1.103148	0.107979	0.073161
O2	O	1.436481	0.441312	0.406495
O3	O	1.769814	0.774645	0.739828
O4	O	0.861087	0.121415	0.073174
O5	O	1.194421	0.454749	0.406507
O6	O	1.527754	0.788082	0.739840
O7	O	0.988753	-0.007583	0.073175
O8	O	1.322086	0.325750	0.406508
O9	O	1.655419	0.659083	0.739841
O10	O	0.975482	0.236977	0.073161
O11	O	1.308816	0.570311	0.406494
O12	O	1.642149	0.903644	0.739827
O13	O	0.988735	-0.007604	-0.073283
O14	O	1.322069	0.325729	0.260051
O15	O	1.655402	0.659062	0.593384
O16	O	0.861070	0.121394	-0.073283
O17	O	1.194403	0.454728	0.260050
O18	O	1.527737	0.788061	0.593383
O19	O	1.103130	0.107958	-0.073296
O20	O	1.436464	0.441291	0.260037
O21	O	1.769797	0.774625	0.593371
Zn22	Zn	0.982097	0.114673	-0.096543
Zn23	Zn	1.315431	0.448006	0.236790
Zn24	Zn	1.648764	0.781340	0.570124
Zn25	Zn	0.982120	0.114700	0.096421
Zn26	Zn	1.315454	0.448034	0.429754
Zn27	Zn	1.648787	0.781367	0.763087
O28	O	0.975465	0.236957	-0.073297
O29	O	1.308798	0.570290	0.260037
O30	O	1.642132	0.903623	0.593370
C31	C	0.830104	0.120861	-0.000053
C32	C	1.163437	0.454194	0.333280
C33	C	1.496770	0.787527	0.666614
C34	C	0.737808	0.119229	-0.000048
C35	C	1.071142	0.452562	0.333286
C36	C	1.404475	0.785895	0.666619
C37	C	0.515544	0.191980	-0.000062
C38	C	0.848878	0.525313	0.333271
C39	C	1.182211	0.858646	0.666605
C40	C	0.428824	0.190440	-0.000068
C41	C	0.762157	0.523773	0.333266
C42	C	1.095491	0.857107	0.666599
C43	C	0.448680	0.037388	-0.000055
C44	C	0.782014	0.370721	0.333278
C45	C	1.115347	0.704054	0.666612
C46	C	0.535399	0.038928	-0.000056
C47	C	0.868732	0.372262	0.333277
C48	C	1.202066	0.705595	0.666611
C49	C	0.568829	0.116227	-0.000055
C50	C	0.902162	0.449560	0.333279
C51	C	1.235495	0.782893	0.666612
C52	C	0.395389	0.113146	-0.000060
C53	C	0.728722	0.446480	0.333274
C54	C	1.062056	0.779813	0.666607
C55	C	0.301363	0.111476	-0.000066
C56	C	0.634696	0.444810	0.333268
C57	C	0.968030	0.778143	0.666601
C58	C	0.662861	0.117897	-0.000050
C59	C	0.996194	0.451231	0.333283
C60	C	1.329527	0.784564	0.666616
C61	C	0.988202	-0.038888	-0.000050
C62	C	1.321535	0.294445	0.333283
C63	C	1.654868	0.627778	0.666616
C64	C	0.986576	-0.132136	-0.000039
C65	C	1.319909	0.201197	0.333294
C66	C	1.653242	0.534530	0.666628
C67	C	1.061722	-0.367921	-0.000060
C68	C	1.395056	-0.034588	0.333274
C69	C	1.728389	0.298745	0.666607
C70	C	1.021207	-0.418466	0.072153
C71	C	1.354540	-0.085132	0.405486
C72	C	1.687874	0.248201	0.738820
C73	C	0.983563	-0.302856	-0.000050
C74	C	1.316896	0.030477	0.333284
C75	C	1.650229	0.363810	0.666617
C76	C	1.021172	-0.418462	-0.072242
C77	C	1.354505	-0.085129	0.261091
C78	C	1.687839	0.248204	0.594424
C79	C	0.980658	-0.467765	-0.000064
C80	C	1.313991	-0.134432	0.333270
C81	C	1.647325	0.198902	0.666603
C82	C	0.943068	-0.352173	0.072223
C83	C	1.276402	-0.018839	0.405556
C84	C	1.609735	0.314494	0.738889
C85	C	0.943044	-0.352166	-0.072238
C86	C	1.276378	-0.018833	0.261096
C87	C	1.609711	0.314501	0.594429
C88	C	0.902472	-0.402677	-0.000007
C89	C	1.235805	-0.069344	0.333326
C90	C	1.569138	0.263989	0.666659
C91	C	0.985238	-0.207857	-0.000041
C92	C	1.318571	0.125476	0.333293
C93	C	1.651905	0.458810	0.666626
C94	C	0.978976	-0.562762	-0.000066
C95	C	1.312310	-0.229428	0.333267
C96	C	1.645643	0.103905	0.666600
C97	C	1.134114	0.108513	-0.000067
C98	C	1.467447	0.441846	0.333266
C99	C	1.800781	0.775179	0.666599
C100	C	1.226410	0.110144	-0.000067
C101	C	1.559743	0.443478	0.333267
C102	C	1.893076	0.776811	0.666600
C103	C	0.976016	0.268262	-0.000070
C104	C	1.309349	0.601595	0.333263
C105	C	1.642683	0.934928	0.666597
C106	C	0.977642	0.361510	-0.000075
C107	C	1.310975	0.694843	0.333258
C108	C	1.644309	1.028176	0.666591
N109	N	0.982088	0.114654	-0.228236
N110	N	1.315421	0.447987	0.105098
N111	N	1.648755	0.781320	0.438431
C112	C	0.931701	0.063730	-0.546182
C113	C	1.265034	0.397064	-0.212849
C114	C	1.598368	0.730397	0.120485
C115	C	0.931694	0.063718	-0.453992
C116	C	1.265027	0.397052	-0.120659
C117	C	1.598361	0.730385	0.212674
C118	C	1.032529	0.165638	-0.453947
C119	C	1.365862	0.498971	-0.120613
C120	C	1.699196	0.832305	0.212720
C121	C	1.032540	0.165645	-0.546135
C122	C	1.365873	0.498979	-0.212801
C123	C	1.699207	0.832312	0.120532
C124	C	0.982121	0.114693	-0.592250
C125	C	1.315455	0.448026	-0.258917
C126	C	1.648788	0.781360	0.074417
C127	C	0.982103	0.114674	-0.407872
C128	C	1.315437	0.448007	-0.074539
C129	C	1.648770	0.781340	0.258794
C130	C	0.982096	0.114661	-0.307916
C131	C	1.315429	0.447994	0.025417
C132	C	1.648763	0.781327	0.358751
C133	C	0.982129	0.114704	-0.692212
C134	C	1.315463	0.448038	-0.358879
C135	C	1.648796	0.781371	-0.025546
N136	N	0.982136	0.114713	0.228113
N137	N	1.315470	0.448046	0.561447
N138	N	1.648803	0.781380	0.894780
H139	H	0.542760	0.254921	-0.000068
H140	H	0.876093	0.588255	0.333266
H141	H	1.209426	0.921588	0.666599
Cl142	Cl	1.072178	-0.463163	0.166405
Cl143	Cl	1.405512	-0.129829	0.499738
Cl144	Cl	1.738845	0.203504	0.833072
Cl145	Cl	1.165664	-0.343822	0.000043
Cl146	Cl	1.498998	-0.010489	0.333377
Cl147	Cl	1.832331	0.322845	0.666710
Cl148	Cl	1.095935	0.229714	-0.604053
Cl149	Cl	1.429268	0.563047	-0.270720
Cl150	Cl	1.762601	0.896381	0.062613
H151	H	0.910058	-0.323203	-0.133288
H152	H	1.243391	0.010130	0.200046
H153	H	1.576724	0.343464	0.533379
H154	H	1.073577	0.207123	-0.416388
H155	H	1.406911	0.540456	-0.083055
H156	H	1.740244	0.873789	0.250278
H157	H	0.385443	0.252126	-0.000075
H158	H	0.718776	0.585459	0.333258
H159	H	1.052109	0.918793	0.666592
H160	H	0.421451	-0.025546	-0.000061
H161	H	0.754784	0.307787	0.333272
H162	H	1.088118	0.641120	0.666605
Cl163	Cl	0.868321	-0.000328	-0.604152
Cl164	Cl	1.201655	0.333006	-0.270819
Cl165	Cl	1.534988	0.666339	0.062514
Cl166	Cl	0.892150	-0.307653	0.166584
Cl167	Cl	1.225484	0.025681	0.499917
Cl168	Cl	1.558817	0.359014	0.833251
H169	H	0.578786	-0.022763	-0.000053
H170	H	0.912119	0.310570	0.333281
H171	H	1.245452	0.643904	0.666614
Cl172	Cl	0.868301	-0.000347	-0.396082
Cl173	Cl	1.201634	0.332986	-0.062749
Cl174	Cl	1.534967	0.666319	0.270585
Cl175	Cl	1.072145	-0.463158	-0.166495
Cl176	Cl	1.405478	-0.129824	0.166839
Cl177	Cl	1.738811	0.203509	0.500172
H178	H	0.835095	-0.418121	0.000036
H179	H	1.168428	-0.084788	0.333369
H180	H	1.501761	0.248546	0.666702
