data_functionalizedCrystal
_audit_creation_method	'MofGen! by Chris Wilmer'
_symmetry_space_group_name_H-M	'P1'
_symmetry_Int_Tables_number	1
_symmetry_cell_setting	triclinic
loop_
_symmetry_equiv_pos_as_xyz
  x,y,z
_cell_length_a	15.944551
_cell_length_b	18.266242
_cell_length_c	15.944551
_cell_angle_alpha	89.992703
_cell_angle_beta	96.501262
_cell_angle_gamma	90.004545
loop_
_atom_site_label
_atom_site_type_symbol
_atom_site_fract_x
_atom_site_fract_y
_atom_site_fract_z
O1	O	1.114530	0.060806	-0.108333
O2	O	0.869980	0.060825	-0.121690
O3	O	0.998933	0.060808	0.007263
O4	O	0.985577	0.060822	-0.237286
O5	O	0.998911	-0.060954	0.007270
O6	O	0.869958	-0.060937	-0.121683
O7	O	1.114508	-0.060956	-0.108327
Zn8	Zn	0.992229	-0.080279	-0.115004
Zn9	Zn	0.992258	0.080148	-0.115013
O10	O	0.985555	-0.060940	-0.237280
C11	C	0.838675	-0.000054	-0.121132
C12	C	0.745429	-0.000047	-0.119470
N13	N	0.992216	-0.189766	-0.114997
C14	C	0.530572	-0.000066	-0.035565
C15	C	0.469563	0.059971	-0.074531
C16	C	0.574703	-0.000056	-0.116462
C17	C	0.469564	-0.060077	-0.074543
C18	C	0.409790	-0.000068	-0.113551
C19	C	0.514922	0.060031	-0.155450
C20	C	0.514929	-0.060071	-0.155451
C21	C	0.453937	-0.000019	-0.194476
C22	C	0.669705	-0.000049	-0.118137
C23	C	0.314789	-0.000070	-0.111883
C24	C	1.049335	-0.228082	-0.057925
C25	C	1.049340	-0.304727	-0.057921
C26	C	0.992235	-0.343053	-0.115004
C27	C	0.935105	-0.304727	-0.172081
C28	C	0.935095	-0.228084	-0.172077
N29	N	0.981547	-0.463380	-0.189328
N30	N	0.981561	-0.536188	-0.189328
C31	C	0.992258	-0.573975	-0.115016
N32	N	1.002957	-0.536203	-0.040701
N33	N	1.002947	-0.463389	-0.040702
C34	C	0.992238	-0.426160	-0.115014
C35	C	1.049386	-0.695398	-0.057935
C36	C	1.049386	-0.772045	-0.057930
C37	C	0.935154	-0.772044	-0.172097
C38	C	0.935151	-0.695399	-0.172094
C39	C	0.992271	-0.657081	-0.115014
C40	C	1.145813	-0.000075	-0.108885
C41	C	1.239059	-0.000078	-0.110547
C42	C	0.998367	-0.000073	0.038561
C43	C	0.996705	-0.000073	0.131807
N44	N	0.992278	0.189635	-0.115012
C45	C	0.986120	-0.000057	-0.268577
C46	C	0.987782	-0.000052	-0.361823
C47	C	0.912801	-0.000057	0.346663
C48	C	0.951752	-0.060096	0.407684
C49	C	0.993698	-0.000067	0.302533
C50	C	0.951793	0.059952	0.407661
C51	C	0.990787	-0.000058	0.467445
C52	C	1.032672	-0.060156	0.362325
C53	C	1.032701	0.059946	0.362295
C54	C	1.071711	-0.000108	0.423298
C55	C	0.995372	-0.000073	0.207530
C56	C	0.989119	-0.000058	0.562446
H57	H	0.563905	0.000004	0.031573
H58	H	1.095844	-0.196886	-0.011445
O59	O	0.879592	-0.658140	-0.227429
C60	C	0.827783	-0.613804	-0.182414
H61	H	0.826359	-0.636911	-0.116171
H62	H	0.761025	-0.612935	-0.216648
H63	H	0.854068	-0.555715	-0.178024
H64	H	0.888654	-0.803248	-0.218571
H65	H	0.917575	0.110714	0.427735
O66	O	0.445525	0.120576	-0.033858
C67	C	0.389611	0.162432	-0.089526
H68	H	0.399822	0.149013	-0.157452
H69	H	0.402031	0.223153	-0.077132
H70	H	0.321767	0.148977	-0.079010
O71	O	0.539062	-0.120639	-0.196120
C72	C	0.596154	-0.161784	-0.140871
H73	H	0.627417	-0.124574	-0.089066
H74	H	0.646530	-0.186564	-0.177598
H75	H	0.560684	-0.207485	-0.111272
O76	O	1.104790	-0.341881	-0.002364
C77	C	1.091125	-0.323186	0.080800
H78	H	1.058751	-0.267540	0.080727
H79	H	1.154260	-0.320570	0.122125
H80	H	1.049316	-0.366331	0.106796
O81	O	0.879599	-0.342035	-0.227416
C82	C	0.827777	-0.386373	-0.182398
H83	H	0.861233	-0.397859	-0.116692
H84	H	0.814498	-0.440266	-0.217452
H85	H	0.765696	-0.356849	-0.176648
H86	H	0.917527	-0.110849	0.427795
H87	H	0.845652	-0.000112	0.313356
O88	O	0.414333	-0.000107	-0.274634
C89	C	0.363975	-0.063449	-0.287447
H90	H	0.389011	-0.107542	-0.240546
H91	H	0.366159	-0.084342	-0.354535
H92	H	0.296035	-0.049686	-0.277623
H93	H	1.095896	-0.803242	-0.011450
O94	O	0.445561	-0.120554	-0.033589
C95	C	0.404809	-0.099006	0.036429
H96	H	0.425619	-0.041265	0.056347
H97	H	0.422318	-0.138436	0.091037
H98	H	0.333537	-0.099895	0.018524
H99	H	0.534919	0.110843	-0.189643
O100	O	0.879579	-0.190974	-0.227605
C101	C	0.829157	-0.241232	-0.277972
H102	H	0.863596	-0.295862	-0.278945
H103	H	0.816342	-0.219080	-0.345045
H104	H	0.766764	-0.249393	-0.250657
O105	O	1.104895	-0.658284	-0.002403
C106	C	1.155321	-0.708543	0.047965
H107	H	1.120889	-0.763182	0.048936
H108	H	1.168131	-0.686404	0.115039
H109	H	1.217717	-0.716683	0.020653
H110	H	1.066850	-0.110970	0.342337
O111	O	1.151900	-0.000280	0.462827
C112	C	1.194220	-0.063654	0.439699
H113	H	1.145989	-0.107692	0.417796
H114	H	1.237557	-0.084611	0.496391
H115	H	1.233333	-0.049907	0.386211
H116	H	1.066897	0.110702	0.342162
