data_functionalizedCrystal
_audit_creation_method	'MofGen! by Chris Wilmer'
_symmetry_space_group_name_H-M	'P1'
_symmetry_Int_Tables_number	1
_symmetry_cell_setting	triclinic
loop_
_symmetry_equiv_pos_as_xyz
  x,y,z
_cell_length_a	14.853567
_cell_length_b	14.853567
_cell_length_c	13.930277
_cell_angle_alpha	89.999243
_cell_angle_beta	89.995755
_cell_angle_gamma	83.634930
loop_
_atom_site_label
_atom_site_type_symbol
_atom_site_fract_x
_atom_site_fract_y
_atom_site_fract_z
O1	O	1.196368	0.117704	-0.079756
O2	O	1.696368	0.617704	0.420244
O3	O	0.933909	0.131725	-0.079772
O4	O	1.433909	0.631725	0.420228
O5	O	1.072149	-0.006516	-0.079767
O6	O	1.572149	0.493484	0.420233
O7	O	1.058128	0.255944	-0.079762
O8	O	1.558128	0.755944	0.420238
O9	O	1.072130	-0.006519	0.079895
O10	O	1.572130	0.493481	0.579895
O11	O	0.933890	0.131722	0.079890
O12	O	1.433890	0.631722	0.579890
O13	O	1.196349	0.117701	0.079905
O14	O	1.696349	0.617701	0.579905
Zn15	Zn	1.065116	0.124711	0.105247
Zn16	Zn	1.565116	0.624711	0.605247
Zn17	Zn	1.065142	0.124715	-0.105114
Zn18	Zn	1.565142	0.624715	0.394886
O19	O	1.058109	0.255941	0.079900
O20	O	1.558109	0.755941	0.579900
C21	C	0.900311	0.131088	0.000057
C22	C	1.400311	0.631088	0.500057
C23	C	0.800227	0.129184	0.000051
C24	C	1.300227	0.629184	0.500051
C25	C	0.387693	0.039019	0.000070
C26	C	0.887693	0.539019	0.500070
C27	C	0.366412	0.203251	0.000073
C28	C	0.866412	0.703251	0.500073
C29	C	0.460446	0.205042	0.000070
C30	C	0.960446	0.705042	0.500070
C31	C	0.518108	0.123819	0.000066
C32	C	1.018108	0.623819	0.500066
C33	C	0.481736	0.040806	0.000065
C34	C	0.981736	0.540806	0.500065
C35	C	0.496825	0.288053	0.000061
C36	C	0.996825	0.788053	0.500061
C37	C	0.590864	0.289846	0.000057
C38	C	1.090864	0.789846	0.500057
C39	C	0.648528	0.208623	0.000060
C40	C	1.148528	0.708623	0.500060
C41	C	0.612150	0.125607	0.000060
C42	C	1.112150	0.625607	0.500060
C43	C	0.669812	0.044384	0.000056
C44	C	1.169812	0.544384	0.500056
C45	C	0.633437	-0.038633	0.000063
C46	C	1.133437	0.461367	0.500063
C47	C	0.539399	-0.040417	0.000067
C48	C	1.039399	0.459583	0.500067
C49	C	0.742565	0.210407	0.000055
C50	C	1.242565	0.710407	0.500055
C51	C	0.763855	0.046172	0.000050
C52	C	1.263855	0.546172	0.500050
C53	C	1.071504	-0.040106	0.000061
C54	C	1.571504	0.459894	0.500061
C55	C	1.069601	-0.140189	0.000053
C56	C	1.569601	0.359811	0.500053
C57	C	0.979435	-0.552723	0.000066
C58	C	1.479435	-0.052723	0.500066
C59	C	1.143668	-0.574004	0.000076
C60	C	1.643668	-0.074004	0.500076
C61	C	1.145458	-0.479971	0.000070
C62	C	1.645458	0.020029	0.500070
C63	C	1.064235	-0.422309	0.000064
C64	C	1.564235	0.077691	0.500064
C65	C	0.981223	-0.458680	0.000063
C66	C	1.481223	0.041320	0.500063
C67	C	1.228469	-0.443591	0.000080
C68	C	1.728469	0.056409	0.500080
C69	C	1.230262	-0.349552	0.000076
C70	C	1.730262	0.150448	0.500076
C71	C	1.149039	-0.291889	0.000063
C72	C	1.649039	0.208111	0.500063
C73	C	1.066023	-0.328266	0.000061
C74	C	1.566023	0.171734	0.500061
C75	C	0.984800	-0.270604	0.000055
C76	C	1.484800	0.229396	0.500055
C77	C	0.901783	-0.306979	0.000047
C78	C	1.401783	0.193021	0.500047
C79	C	0.899999	-0.401017	0.000050
C80	C	1.399999	0.098983	0.500050
C81	C	1.150823	-0.197851	0.000059
C82	C	1.650823	0.302149	0.500059
C83	C	0.986588	-0.176561	0.000052
C84	C	1.486588	0.323439	0.500052
C85	C	1.229947	0.118337	0.000075
C86	C	1.729947	0.618337	0.500075
C87	C	1.330031	0.120241	0.000075
C88	C	1.830031	0.620241	0.500075
C89	C	1.058754	0.289531	0.000070
C90	C	1.558754	0.789531	0.500070
C91	C	1.060657	0.389615	0.000072
C92	C	1.560657	0.889615	0.500072
N93	N	1.065106	0.124708	0.248814
N94	N	1.565106	0.624708	0.748814
N95	N	1.065160	0.124711	-0.248680
N96	N	1.565160	0.624711	0.251320
C97	C	1.003926	0.185904	0.701081
C98	C	1.503926	0.685904	1.201081
C99	C	1.126382	0.063519	0.701055
C100	C	1.626382	0.563519	1.201055
C101	C	1.126371	0.063516	0.600559
C102	C	1.626371	0.563516	1.100559
C103	C	1.065138	0.124709	0.550319
C104	C	1.565138	0.624709	1.050319
C105	C	1.003916	0.185904	0.600576
C106	C	1.503916	0.685904	1.100576
C107	C	1.187598	0.002328	0.550295
C108	C	1.687598	0.502328	1.050295
C109	C	1.187591	0.002323	0.449793
C110	C	1.687591	0.502323	0.949793
C111	C	1.126353	0.063512	0.399552
C112	C	1.626353	0.563512	0.899552
C113	C	1.065127	0.124710	0.449814
C114	C	1.565127	0.624710	0.949814
C115	C	1.003894	0.185902	0.399575
C116	C	1.503894	0.685902	0.899575
C117	C	0.942664	0.247096	0.449835
C118	C	1.442664	0.747096	0.949835
C119	C	0.942677	0.247094	0.550334
C120	C	1.442677	0.747094	1.050334
C121	C	1.126339	0.063515	0.299053
C122	C	1.626339	0.563515	0.799053
C123	C	1.003883	0.185903	0.299070
C124	C	1.503883	0.685903	0.799070
H125	H	0.449870	0.354180	0.000054
H126	H	0.949870	0.854180	0.500054
H127	H	0.954071	0.235724	0.742005
H128	H	1.454071	0.735724	1.242005
Br129	Br	1.342925	-0.300193	0.000073
Br130	Br	1.842925	0.199807	0.500073
Br131	Br	0.640223	0.402509	0.000048
Br132	Br	1.140223	0.902509	0.500048
H133	H	0.954016	0.235731	0.258171
H134	H	1.454016	0.735731	0.758171
Br135	Br	1.263479	-0.148487	0.000094
Br136	Br	1.763479	0.351513	0.500094
H137	H	0.835652	-0.260019	0.000048
H138	H	1.335652	0.239981	0.500048
H139	H	0.772178	0.277998	0.000051
H140	H	1.272178	0.777998	0.500051
H141	H	1.176240	0.013702	0.741963
H142	H	1.676240	0.513702	1.241963
H143	H	1.294596	-0.490546	0.000094
H144	H	1.794596	0.009454	0.500094
Br145	Br	1.270685	-0.080723	0.381588
Br146	Br	1.770685	0.419277	0.881588
H147	H	0.911844	-0.582344	0.000055
H148	H	1.411844	-0.082344	0.500055
H149	H	1.176196	0.013696	0.258136
H150	H	1.676196	0.513696	0.758136
Br151	Br	1.253893	-0.652259	0.000105
Br152	Br	1.753893	-0.152259	0.500105
Br153	Br	0.842104	-0.064065	0.000056
Br154	Br	1.342104	0.435935	0.500056
Br155	Br	0.787343	-0.450389	0.000033
Br156	Br	1.287343	0.049611	0.500033
Br157	Br	0.711703	-0.148859	0.000046
Br158	Br	1.211703	0.351141	0.500046
H159	H	0.892811	0.296924	0.408919
H160	H	1.392811	0.796924	0.908919
H161	H	1.237457	-0.047489	0.591203
H162	H	1.737457	0.452511	1.091203
H163	H	0.920445	-0.129618	0.000043
H164	H	1.420445	0.370382	0.500043
Br165	Br	0.859586	0.330137	0.618546
Br166	Br	1.359586	0.830137	1.118546
H167	H	0.319459	0.269379	0.000068
H168	H	0.819459	0.769379	0.500068
Br169	Br	0.490027	-0.153073	0.000073
Br170	Br	0.990027	0.346927	0.500073
Br171	Br	0.338331	-0.073642	0.000088
Br172	Br	0.838331	0.426358	0.500088
