data_functionalizedCrystal
_audit_creation_method	'MofGen! by Chris Wilmer'
_symmetry_space_group_name_H-M	'P1'
_symmetry_Int_Tables_number	1
_symmetry_cell_setting	triclinic
loop_
_symmetry_equiv_pos_as_xyz
  x,y,z
_cell_length_a	29.839134
_cell_length_b	29.839131
_cell_length_c	18.101389
_cell_angle_alpha	89.971059
_cell_angle_beta	89.981060
_cell_angle_gamma	90.015800
loop_
_atom_site_label
_atom_site_type_symbol
_atom_site_fract_x
_atom_site_fract_y
_atom_site_fract_z
Zn1	Zn	0.686769	-0.179133	-0.418678
Zn2	Zn	0.686700	-0.254250	-0.294814
Zn3	Zn	0.611643	-0.179109	-0.294851
Zn4	Zn	0.611607	-0.254212	-0.418614
O5	O	0.649180	-0.216676	-0.356739
O6	O	0.749627	-0.189124	-0.402258
O7	O	0.676730	-0.244289	-0.191186
O8	O	0.621652	-0.116245	-0.311319
O9	O	0.749576	-0.244312	-0.311256
O10	O	0.676847	-0.116263	-0.402294
O11	O	0.621585	-0.189083	-0.191213
O12	O	0.548771	-0.189046	-0.311257
O13	O	0.621592	-0.244246	-0.522255
O14	O	0.548745	-0.244223	-0.402185
O15	O	0.676812	-0.189087	-0.522302
O16	O	0.676696	-0.317112	-0.311194
O17	O	0.621525	-0.317084	-0.402149
C18	C	0.532457	-0.216628	-0.356719
C19	C	0.482523	-0.216618	-0.356727
C20	C	0.649111	-0.333399	-0.356677
C21	C	0.649123	-0.383333	-0.356675
C22	C	0.125958	-0.188000	-0.404217
C23	C	0.313631	-0.187964	-0.404200
O24	O	0.337914	-0.163574	-0.444574
N25	N	0.337078	-0.216648	-0.356745
C26	C	0.313603	-0.245345	-0.309294
O27	O	0.337853	-0.269745	-0.268935
C28	C	0.125931	-0.245383	-0.309315
C29	C	0.102487	-0.216694	-0.356768
C30	C	0.102513	-0.159313	-0.451667
C31	C	0.055598	-0.159321	-0.451668
C32	C	0.032127	-0.188015	-0.404219
C33	C	0.055571	-0.216701	-0.356769
C34	C	0.102458	-0.274082	-0.261868
C35	C	0.055537	-0.274090	-0.261879
C36	C	0.032092	-0.245401	-0.309332
C37	C	-0.014815	-0.245403	-0.309321
N38	N	-0.038262	-0.216719	-0.356777
C39	C	-0.014791	-0.188025	-0.404226
C40	C	0.412134	-0.245322	-0.309285
C41	C	0.459052	-0.245312	-0.309278
C42	C	0.459076	-0.187931	-0.404186
C43	C	0.412157	-0.187939	-0.404188
C44	C	0.388687	-0.216638	-0.356740
C45	C	-0.113317	-0.188043	-0.404224
C46	C	-0.160236	-0.188051	-0.404218
C47	C	-0.160257	-0.245434	-0.309313
C48	C	-0.113341	-0.245423	-0.309316
C49	C	-0.089872	-0.216726	-0.356777
O50	O	-0.039127	-0.269783	-0.268974
O51	O	-0.039048	-0.163635	-0.444590
C52	C	0.172873	-0.187992	-0.404216
C53	C	0.196318	-0.216679	-0.356766
C54	C	0.172847	-0.245373	-0.309317
C55	C	0.243235	-0.216669	-0.356760
C56	C	0.266706	-0.187974	-0.404209
C57	C	0.243260	-0.159290	-0.451664
C58	C	0.196344	-0.159298	-0.451665
C59	C	0.196293	-0.274057	-0.261862
C60	C	0.243209	-0.274046	-0.261864
C61	C	0.266680	-0.245352	-0.309313
C62	C	0.677913	-0.692951	-0.404177
C63	C	0.677962	-0.880624	-0.404222
O64	O	0.702374	-0.904867	-0.444564
N65	N	0.649256	-0.904118	-0.356821
C66	C	0.620534	-0.880691	-0.309410
O67	O	0.596115	-0.904981	-0.269099
C68	C	0.620483	-0.693019	-0.309369
C69	C	0.649194	-0.669527	-0.356768
C70	C	0.706622	-0.669459	-0.451573
C71	C	0.706611	-0.622543	-0.451558
C72	C	0.677892	-0.599120	-0.404149
C73	C	0.649183	-0.622612	-0.356753
C74	C	0.591759	-0.669593	-0.261962
C75	C	0.591748	-0.622672	-0.261957
C76	C	0.620459	-0.599180	-0.309356
C77	C	0.620453	-0.552273	-0.309329
N78	N	0.649160	-0.528778	-0.356730
C79	C	0.677879	-0.552202	-0.404140
C80	C	0.620563	-0.979222	-0.309433
C81	C	0.620576	-1.026140	-0.309442
C82	C	0.678004	-1.026069	-0.404255
C83	C	0.677993	-0.979150	-0.404242
C84	C	0.649269	-0.955728	-0.356834
C85	C	0.677854	-0.453676	-0.404105
C86	C	0.677842	-0.406757	-0.404084
C87	C	0.620413	-0.406831	-0.309274
C88	C	0.620426	-0.453747	-0.309292
C89	C	0.649148	-0.477168	-0.356713
O90	O	0.596051	-0.528001	-0.269014
O91	O	0.702287	-0.527904	-0.444456
C92	C	0.677924	-0.739866	-0.404192
C93	C	0.649216	-0.763358	-0.356797
C94	C	0.620496	-0.739935	-0.309387
C95	C	0.649229	-0.810276	-0.356806
C96	C	0.677948	-0.833699	-0.404215
C97	C	0.706654	-0.810205	-0.451616
C98	C	0.706643	-0.763290	-0.451601
C99	C	0.591790	-0.763429	-0.261986
C100	C	0.591804	-0.810345	-0.262004
C101	C	0.620523	-0.833768	-0.309414
C102	C	0.766358	-0.216725	-0.356760
C103	C	0.816293	-0.216746	-0.356769
C104	C	0.649206	-0.216665	-0.549901
C105	C	0.649217	-0.216660	-0.632215
C106	C	0.649261	-0.099498	-0.356818
C107	C	0.649295	-0.049563	-0.356852
C108	C	0.649243	-0.216576	-0.931306
C109	C	0.614380	-0.251170	-0.899952
C110	C	0.614474	-0.251331	-0.814333
C111	C	0.649230	-0.216617	-0.782924
C112	C	0.696561	-0.229484	-0.814018
C113	C	0.696367	-0.229712	-0.899663
C114	C	0.637186	-0.169037	-0.899747
C115	C	0.636133	-0.169312	-0.814096
C116	C	0.649225	-0.216640	-0.699064
C117	C	0.649251	-0.216554	-1.015166
C118	C	0.649180	-0.216655	-0.164329
C119	C	0.649256	-0.216533	-0.082015
H120	H	-0.094214	-0.164675	-0.442870
H121	H	0.036430	-0.297462	-0.223242
H122	H	0.730009	-0.688525	-0.490184
O123	O	0.731914	-0.197758	-0.927144
H124	H	0.732029	-0.197667	-0.988461
O125	O	0.127738	-0.305025	-0.210684
H126	H	0.103527	-0.324979	-0.177702
H127	H	0.701372	-0.960026	-0.442838
H128	H	0.393072	-0.164578	-0.442828
H129	H	0.568403	-0.744361	-0.223381
O130	O	0.171064	-0.128355	-0.502853
H131	H	0.149686	-0.105469	-0.469785
H132	H	-0.179323	-0.164687	-0.442860
O133	O	0.737615	-0.737954	-0.502716
H134	H	0.757584	-0.762130	-0.535681
O135	O	0.667322	-0.133356	-0.785797
H136	H	0.657139	-0.100423	-0.808851
O137	O	0.670816	-0.134891	-0.926610
H138	H	0.695998	-0.151668	-0.962265
O139	O	0.709904	-0.275744	-0.926120
H140	H	0.709901	-0.276363	-0.987430
O141	O	0.737627	-0.835473	-0.502759
H142	H	0.732804	-0.872043	-0.494806
H143	H	0.701240	-0.472740	-0.442725
O144	O	0.567745	-0.240612	-0.927223
H145	H	0.545526	-0.233905	-0.879302
O146	O	0.624799	-0.297559	-0.928476
H147	H	0.654703	-0.296083	-0.964882
O148	O	0.268583	-0.128342	-0.502841
H149	H	0.259585	-0.093072	-0.490250
O150	O	0.737585	-0.597208	-0.502670
H151	H	0.757555	-0.621384	-0.535633
O152	O	0.386822	-0.276271	-0.258095
H153	H	0.411012	-0.296208	-0.225093
H154	H	-0.094252	-0.268780	-0.270669
H155	H	0.478194	-0.164566	-0.442819
H156	H	0.036514	-0.135961	-0.490313
O157	O	0.592262	-0.153510	-0.928342
H158	H	0.569212	-0.147880	-0.881113
O159	O	0.708975	-1.051339	-0.455400
H160	H	0.731848	-1.072720	-0.422300
H161	H	-0.179375	-0.268794	-0.270679
O162	O	0.484337	-0.276250	-0.258088
H163	H	0.460129	-0.296205	-0.225102
H164	H	0.121618	-0.135947	-0.490310
O165	O	0.268494	-0.304990	-0.210676
H166	H	0.244286	-0.324944	-0.177689
H167	H	0.177188	-0.297424	-0.223223
H168	H	0.601301	-0.159609	-0.793772
O169	O	0.589612	-1.051476	-0.258315
H170	H	0.569638	-1.027301	-0.225355
H171	H	0.622434	-0.286567	-0.793839
H172	H	0.723234	-0.205080	-0.793676
H173	H	0.597172	-0.960154	-0.270825
H174	H	0.706960	-0.263867	-0.792564
H175	H	0.701224	-0.387631	-0.442682
H176	H	0.568356	-0.603604	-0.223352
O177	O	0.560788	-0.694925	-0.210844
H178	H	0.540814	-0.670747	-0.177889
O179	O	0.589462	-0.479089	-0.258170
H180	H	0.569488	-0.454917	-0.225203
O181	O	0.589436	-0.381564	-0.258142
H182	H	0.594251	-0.344993	-0.266106
O183	O	0.560834	-0.835681	-0.210880
H184	H	0.540860	-0.811506	-0.177919
H185	H	0.579376	-0.243277	-0.793309
