data_functionalizedCrystal
_audit_creation_method	'MofGen! by Chris Wilmer'
_symmetry_space_group_name_H-M	'P1'
_symmetry_Int_Tables_number	1
_symmetry_cell_setting	triclinic
loop_
_symmetry_equiv_pos_as_xyz
  x,y,z
_cell_length_a	18.050588
_cell_length_b	10.686154
_cell_length_c	10.686551
_cell_angle_alpha	90.306020
_cell_angle_beta	94.406696
_cell_angle_gamma	85.591450
loop_
_atom_site_label
_atom_site_type_symbol
_atom_site_fract_x
_atom_site_fract_y
_atom_site_fract_z
Zn1	Zn	-0.181113	-1.972214	0.562445
Zn2	Zn	0.152220	-1.638880	0.895778
Zn3	Zn	0.485553	-1.305547	1.229111
Zn4	Zn	-0.315534	-1.955926	0.352681
Zn5	Zn	0.017799	-1.622593	0.686015
Zn6	Zn	0.351133	-1.289259	1.019348
Zn7	Zn	-0.200106	-1.746323	0.368754
Zn8	Zn	0.133228	-1.412990	0.702088
Zn9	Zn	0.466561	-1.079657	1.035421
Zn10	Zn	-0.314024	-1.762356	0.578453
Zn11	Zn	0.019310	-1.429023	0.911786
Zn12	Zn	0.352643	-1.095690	1.245120
O13	O	-0.252694	-1.859205	0.465583
O14	O	0.080639	-1.525871	0.798917
O15	O	0.413972	-1.192538	1.132250
O16	O	-0.191628	-2.145599	0.521193
O17	O	0.141705	-1.812265	0.854526
O18	O	0.475038	-1.478932	1.187860
O19	O	-0.308802	-1.914595	0.179267
O20	O	0.024531	-1.581262	0.512601
O21	O	0.357864	-1.247929	0.845934
O22	O	-0.093656	-1.776395	0.394475
O23	O	0.239678	-1.443062	0.727808
O24	O	0.573011	-1.109728	1.061141
O25	O	-0.290387	-2.133632	0.367081
O26	O	0.042947	-1.800299	0.700414
O27	O	0.376280	-1.466965	1.033748
O28	O	-0.079702	-1.942356	0.536778
O29	O	0.253631	-1.609022	0.870112
O30	O	0.586965	-1.275689	1.203445
O31	O	-0.223998	-1.760601	0.191076
O32	O	0.109336	-1.427268	0.524409
O33	O	0.442669	-1.093935	0.857743
O34	O	-0.222533	-1.572905	0.409997
O35	O	0.110800	-1.239571	0.743331
O36	O	0.444133	-0.906238	1.076664
O37	O	-0.287813	-1.803721	0.751876
O38	O	0.045521	-1.470387	1.085209
O39	O	0.378854	-1.137054	1.418542
O40	O	-0.306228	-1.584684	0.564062
O41	O	0.027105	-1.251351	0.897395
O42	O	0.360438	-0.918017	1.230729
O43	O	-0.190164	-1.957902	0.740114
O44	O	0.143169	-1.624569	1.073448
O45	O	0.476503	-1.291235	1.406781
O46	O	-0.419264	-1.930142	0.382604
O47	O	-0.085931	-1.596808	0.715937
O48	O	0.247402	-1.263475	1.049270
O49	O	-0.418155	-1.787927	0.548477
O50	O	-0.084821	-1.454594	0.881810
O51	O	0.248512	-1.121260	1.215143
C52	C	-0.266278	-1.533277	0.490511
C53	C	0.067055	-1.199944	0.823845
C54	C	0.400388	-0.866611	1.157178
C55	C	-0.272106	-1.393846	0.501206
C56	C	0.061227	-1.060513	0.834539
C57	C	0.394561	-0.727180	1.167872
C58	C	-0.445655	-1.859043	0.465558
C59	C	-0.112322	-1.525709	0.798891
C60	C	0.221012	-1.192376	1.132225
C61	C	-0.528197	-1.859092	0.465580
C62	C	-0.194864	-1.525758	0.798914
C63	C	0.138469	-1.192425	1.132247
C64	C	-0.776441	-1.781887	0.555773
C65	C	-0.443108	-1.448554	0.889106
C66	C	-0.109774	-1.115220	1.222439
C67	C	-0.720699	-1.898637	0.577796
C68	C	-0.387366	-1.565304	0.911129
C69	C	-0.054033	-1.231971	1.244462
C70	C	-0.825303	-1.859357	0.465630
C71	C	-0.491970	-1.526024	0.798963
C72	C	-0.158637	-1.192691	1.132297
C73	C	-0.733967	-1.742487	0.443641
C74	C	-0.400634	-1.409153	0.776974
C75	C	-0.067301	-1.075820	1.110307
C76	C	-0.679325	-1.859221	0.465609
C77	C	-0.345992	-1.525888	0.798942
C78	C	-0.012659	-1.192554	1.132276
C79	C	-0.770643	-1.976174	0.487708
C80	C	-0.437310	-1.642840	0.821042
C81	C	-0.103977	-1.309507	1.154375
C82	C	-0.783922	-1.819942	0.353506
C83	C	-0.450588	-1.486608	0.686839
C84	C	-0.117255	-1.153275	1.020172
C85	C	-0.728201	-1.936768	0.375480
C86	C	-0.394868	-1.603434	0.708813
C87	C	-0.061534	-1.270101	1.042146
C88	C	-0.909397	-1.859435	0.465646
C89	C	-0.576064	-1.526101	0.798979
C90	C	-0.242731	-1.192768	1.132312
C91	C	-0.595233	-1.859157	0.465593
C92	C	-0.261899	-1.525823	0.798926
C93	C	0.071434	-1.192490	1.132259
C94	C	-0.058977	-1.859404	0.465634
C95	C	0.274356	-1.526070	0.798967
C96	C	0.607689	-1.192737	1.132300
C97	C	0.023573	-1.859488	0.465655
C98	C	0.356907	-1.526155	0.798988
C99	C	0.690240	-1.192822	1.132322
C100	C	-0.236701	-1.884417	0.792785
C101	C	0.096632	-1.551083	1.126118
C102	C	0.429965	-1.217750	1.459451
C103	C	-0.229886	-1.895160	0.932219
C104	C	0.103447	-1.561827	1.265552
C105	C	0.436781	-1.228494	1.598885
C106	C	-0.239051	-1.186404	0.440550
C107	C	0.094283	-0.853071	0.773884
C108	C	0.427616	-0.519738	1.107217
C109	C	-0.233219	-1.325836	0.429862
C110	C	0.100114	-0.992502	0.763195
C111	C	0.433447	-0.659169	1.096529
C112	C	-0.268568	-1.834163	0.139649
C113	C	0.064765	-1.500830	0.472982
C114	C	0.398098	-1.167497	0.806316
C115	C	-0.275164	-1.823663	0.000198
C116	C	0.058169	-1.490329	0.333531
C117	C	0.391503	-1.156996	0.666864
H118	H	-0.195469	-1.374277	0.360599
H119	H	0.137865	-1.040944	0.693932
H120	H	0.471198	-0.707611	1.027266
Cl121	Cl	-0.795689	-2.128739	0.516581
Cl122	Cl	-0.462355	-1.795406	0.849914
Cl123	Cl	-0.129022	-1.462072	1.183247
H124	H	-0.185908	-1.964602	0.980696
H125	H	0.147425	-1.631268	1.314029
H126	H	0.480759	-1.297935	1.647362
Cl127	Cl	-0.330404	-1.319055	0.608138
Cl128	Cl	0.002930	-0.985721	0.941471
Cl129	Cl	0.336263	-0.652388	1.274804
Cl130	Cl	-0.708765	-1.589982	0.414936
Cl131	Cl	-0.375431	-1.256648	0.748269
Cl132	Cl	-0.042098	-0.923315	1.081602
Cl133	Cl	-0.678174	-1.950033	0.724175
Cl134	Cl	-0.344841	-1.616700	1.057508
Cl135	Cl	-0.011507	-1.283367	1.390841
Cl136	Cl	-0.343069	-1.716467	0.925365
Cl137	Cl	-0.009735	-1.383134	1.258698
Cl138	Cl	0.323598	-1.049800	1.592032
H139	H	-0.707137	-2.002305	0.299234
H140	H	-0.373804	-1.668972	0.632567
H141	H	-0.040471	-1.335639	0.965900
Cl142	Cl	-0.809163	-1.680971	0.673548
Cl143	Cl	-0.475830	-1.347638	1.006881
Cl144	Cl	-0.142496	-1.014304	1.340214
H145	H	-0.811481	-1.786623	0.258725
H146	H	-0.478148	-1.453290	0.592058
H147	H	-0.144815	-1.119956	0.925392
