data_functionalizedCrystal
_audit_creation_method	'MofGen! by Chris Wilmer'
_symmetry_space_group_name_H-M	'P1'
_symmetry_Int_Tables_number	1
_symmetry_cell_setting	triclinic
loop_
_symmetry_equiv_pos_as_xyz
  x,y,z
_cell_length_a	23.532407
_cell_length_b	22.610064
_cell_length_c	23.532409
_cell_angle_alpha	90.007112
_cell_angle_beta	82.849157
_cell_angle_gamma	89.995143
loop_
_atom_site_label
_atom_site_type_symbol
_atom_site_fract_x
_atom_site_fract_y
_atom_site_fract_z
O1	O	-0.755264	0.049135	-0.069127
O2	O	-0.589401	0.049145	-0.079131
O3	O	-0.677333	0.049140	0.008803
O4	O	-0.667331	0.049140	-0.157061
O5	O	-0.677318	-0.049229	0.008790
O6	O	-0.589385	-0.049224	-0.079143
O7	O	-0.755248	-0.049234	-0.069140
Zn8	Zn	-0.672314	-0.064847	-0.074144
Zn9	Zn	-0.672335	0.064758	-0.074127
O10	O	-0.667316	-0.049230	-0.157073
C11	C	-0.568177	-0.000038	-0.078882
C12	C	-0.504960	-0.000033	-0.078116
N13	N	-0.672305	-0.153300	-0.074155
C14	C	-0.238792	-0.000046	-0.022921
C15	C	-0.298192	-0.000047	-0.023632
O16	O	-0.334936	-0.000067	0.020153
N17	N	-0.320819	-0.000043	-0.075909
C18	C	-0.284042	-0.000045	-0.127477
O19	O	-0.308742	-0.000043	-0.172007
C20	C	-0.224643	-0.000049	-0.126765
C21	C	-0.202020	-0.000046	-0.074485
C22	C	-0.216168	-0.000044	0.029354
C23	C	-0.156772	-0.000043	0.030066
C24	C	-0.120000	-0.000043	-0.021499
C25	C	-0.142623	-0.000045	-0.073774
C26	C	-0.187867	-0.000055	-0.178332
C27	C	-0.128464	-0.000059	-0.177616
C28	C	-0.105841	-0.000057	-0.125336
C29	C	-0.046455	-0.000043	-0.124627
N30	N	-0.023828	-0.000047	-0.072351
C31	C	-0.060601	-0.000047	-0.020787
C32	C	-0.408784	-0.000039	-0.128968
C33	C	-0.468182	-0.000031	-0.129681
C34	C	-0.482329	-0.000033	-0.025836
C35	C	-0.422930	-0.000037	-0.025124
C36	C	-0.386158	-0.000042	-0.076692
C37	C	0.064136	-0.000043	-0.019297
C38	C	0.123538	-0.000038	-0.018590
C39	C	0.137680	-0.000039	-0.122435
C40	C	0.078283	-0.000040	-0.123142
C41	C	0.041512	-0.000044	-0.071568
O42	O	-0.009676	-0.000025	-0.168390
O43	O	-0.035892	-0.000057	0.023736
C44	C	-0.711273	-0.561943	-0.035196
C45	C	-0.711276	-0.623863	-0.035192
O46	O	-0.744384	-0.655884	-0.002076
N47	N	-0.672334	-0.654837	-0.074115
C48	C	-0.633383	-0.623887	-0.113041
O49	O	-0.600261	-0.655919	-0.146148
C50	C	-0.633378	-0.561969	-0.113042
C51	C	-0.672326	-0.530998	-0.074120
C52	C	-0.750217	-0.530973	0.003723
C53	C	-0.750215	-0.469057	0.003718
C54	C	-0.711268	-0.438112	-0.035206
C55	C	-0.672324	-0.469083	-0.074125
C56	C	-0.594425	-0.531020	-0.151965
C57	C	-0.594423	-0.469097	-0.151962
C58	C	-0.633371	-0.438127	-0.113040
C59	C	-0.633375	-0.376222	-0.113054
N60	N	-0.672316	-0.345248	-0.074131
C61	C	-0.711263	-0.376193	-0.035207
C62	C	-0.633397	-0.753921	-0.113036
C63	C	-0.633404	-0.815839	-0.113038
C64	C	-0.711296	-0.815810	-0.035188
C65	C	-0.711291	-0.753892	-0.035189
C66	C	-0.672338	-0.722947	-0.074112
C67	C	-0.711256	-0.246166	-0.035221
C68	C	-0.711251	-0.184245	-0.035231
C69	C	-0.633358	-0.184279	-0.113079
C70	C	-0.633364	-0.246194	-0.113071
C71	C	-0.672315	-0.277137	-0.074137
O72	O	-0.600282	-0.344162	-0.146152
O73	O	-0.744376	-0.344155	-0.002101
C74	C	0.223528	-0.000047	-0.069389
C75	C	0.160311	-0.000039	-0.070154
C76	C	-0.677071	-0.000043	0.030012
C77	C	-0.676304	-0.000038	0.093229
N78	N	-0.672349	0.153211	-0.074111
C79	C	-0.667578	-0.000045	-0.178283
C80	C	-0.668345	-0.000046	-0.241500
C81	C	-0.673054	0.053586	0.366481
C82	C	-0.673765	0.053586	0.307081
O83	O	-0.674161	0.099187	0.276362
N84	N	-0.674109	-0.000036	0.277372
C85	C	-0.673747	-0.053662	0.307067
O86	O	-0.674105	-0.099271	0.276343
C87	C	-0.673040	-0.053661	0.366466
C88	C	-0.672690	-0.000036	0.396172
C89	C	-0.672705	0.107207	0.396187
C90	C	-0.671992	0.107206	0.455583
C91	C	-0.671628	0.053585	0.485273
C92	C	-0.671977	-0.000036	0.455568
C93	C	-0.672682	-0.107286	0.396161
C94	C	-0.671974	-0.107281	0.455565
C95	C	-0.671625	-0.053656	0.485270
C96	C	-0.670901	-0.053658	0.544654
N97	N	-0.670557	-0.000036	0.574363
C98	C	-0.670921	0.053586	0.544673
C99	C	-0.675234	-0.053659	0.182324
C100	C	-0.675937	-0.053660	0.122924
C101	C	-0.675957	0.053588	0.122943
C102	C	-0.675249	0.053588	0.182343
C103	C	-0.674890	-0.000037	0.212033
C104	C	-0.669424	0.053581	0.669409
C105	C	-0.668709	0.053576	0.728809
C106	C	-0.668692	-0.053672	0.728786
C107	C	-0.669404	-0.053667	0.669390
C108	C	-0.669772	-0.000036	0.639703
O109	O	-0.670508	-0.099235	0.575411
O110	O	-0.670570	0.099188	0.575405
H111	H	0.141954	-0.000035	0.023984
N112	N	-0.673066	-0.165128	0.364136
H113	H	-0.708670	-0.167519	0.344303
H114	H	-0.638030	-0.167493	0.334709
H115	H	-0.676211	-0.097327	0.098742
N116	N	-0.398537	-0.000043	0.031266
H117	H	-0.374209	-0.036512	0.033872
H118	H	-0.374237	0.036443	0.033853
N119	N	-0.753259	-0.150849	0.006759
H120	H	-0.731639	-0.125158	0.031864
H121	H	-0.778344	-0.125193	-0.014913
N122	N	-0.521996	-0.000033	0.029782
H123	H	-0.563057	-0.000034	0.021393
H124	H	-0.514703	-0.036501	0.052574
N125	N	-0.492580	-0.000018	-0.186068
H126	H	-0.460266	-0.000016	-0.218622
H127	H	-0.516913	-0.036483	-0.188636
H128	H	-0.743005	-0.728679	-0.003495
H129	H	-0.742972	-0.271352	-0.003517
H130	H	-0.669724	0.097252	0.645244
H131	H	0.034204	-0.000045	0.022699
N132	N	-0.674836	-0.111500	0.214344
H133	H	-0.709851	-0.113899	0.243797
H134	H	-0.675139	-0.145432	0.186468
N135	N	-0.671590	-0.165121	0.487588
H136	H	-0.671920	-0.199088	0.459753
H137	H	-0.635986	-0.167459	0.507422
H138	H	-0.206275	-0.000055	-0.220904
N139	N	0.053882	-0.000038	-0.179529
H140	H	0.029559	-0.036506	-0.182144
H141	H	0.029574	0.036449	-0.182101
N142	N	-0.591399	-0.849239	-0.155021
H143	H	-0.566728	-0.820234	-0.179676
H144	H	-0.566348	-0.874926	-0.133341
N145	N	-0.591383	-0.720548	-0.155022
H146	H	-0.566717	-0.749569	-0.179676
H147	H	-0.613036	-0.694857	-0.180093
H148	H	-0.562710	-0.556228	-0.183658
H149	H	-0.601654	-0.271411	-0.144770
N150	N	-0.792219	-0.435660	0.045705
H151	H	-0.786313	-0.391737	0.039803
H152	H	-0.832581	-0.446482	0.039330
H153	H	-0.138358	-0.000043	0.072637
H154	H	-0.671712	0.150874	0.479764
H155	H	-0.378847	-0.000038	-0.170964
N156	N	-0.255825	-0.000048	0.084975
H157	H	-0.232470	-0.000049	0.118194
H158	H	-0.280780	0.036420	0.086951
N159	N	-0.753307	-0.849191	0.006796
H160	H	-0.731691	-0.874881	0.031904
H161	H	-0.777968	-0.820138	0.031413
H162	H	-0.098526	-0.000066	-0.219610
H163	H	-0.562701	-0.443906	-0.183658
N164	N	0.177347	-0.000037	-0.178048
H165	H	0.218407	-0.000038	-0.169660
H166	H	0.170059	-0.036505	-0.200849
N167	N	-0.673099	0.165046	0.364169
H168	H	-0.672771	0.199009	0.392009
H169	H	-0.638082	0.167387	0.334717
H170	H	-0.781933	-0.556163	0.035422
H171	H	-0.601649	-0.159074	-0.144772
N172	N	-0.668363	0.111417	0.760853
H173	H	-0.668715	0.145384	0.733029
H174	H	-0.703388	0.113727	0.790298
H175	H	-0.674963	0.097255	0.206525
H176	H	-0.676251	0.097249	0.098758
N177	N	-0.669770	-0.111503	0.637345
H178	H	-0.669428	-0.145472	0.665169
H179	H	-0.705376	-0.113844	0.617514
N180	N	-0.668309	-0.111504	0.760817
H181	H	-0.667811	-0.103362	0.802953
H182	H	-0.703745	-0.134912	0.755239
