data_functionalizedCrystal
_audit_creation_method	'MofGen! by Chris Wilmer'
_symmetry_space_group_name_H-M	'P1'
_symmetry_Int_Tables_number	1
_symmetry_cell_setting	triclinic
loop_
_symmetry_equiv_pos_as_xyz
  x,y,z
_cell_length_a	15.944493
_cell_length_b	15.944551
_cell_length_c	12.996460
_cell_angle_alpha	89.992903
_cell_angle_beta	89.994981
_cell_angle_gamma	83.486891
loop_
_atom_site_label
_atom_site_type_symbol
_atom_site_fract_x
_atom_site_fract_y
_atom_site_fract_z
O1	O	1.114556	0.108102	-0.085555
O2	O	0.869999	0.121509	-0.085561
O3	O	0.998956	-0.007471	-0.085549
O4	O	0.985599	0.237081	-0.085567
O5	O	0.998942	-0.007478	0.085585
O6	O	0.869986	0.121502	0.085573
O7	O	1.114542	0.108095	0.085578
Cu8	Cu	0.992263	0.114797	0.101202
Cu9	Cu	0.992279	0.114806	-0.101184
O10	O	0.985586	0.237074	0.085566
C11	C	0.838698	0.120957	0.000006
C12	C	0.745449	0.119314	0.000004
C13	C	0.509689	0.195235	-0.000003
C14	C	0.459124	0.154290	0.084383
C15	C	0.574728	0.116270	0.000006
C16	C	0.459142	0.154279	-0.084342
C17	C	0.409819	0.113336	0.000004
C18	C	0.525391	0.075347	0.084461
C19	C	0.525413	0.075347	-0.084339
C20	C	0.474880	0.034345	0.000067
C21	C	0.669728	0.117963	0.000008
C22	C	0.314821	0.111637	0.000009
C23	C	0.998395	-0.038768	0.000018
C24	C	0.996732	-0.132014	0.000019
C25	C	0.912826	-0.346853	0.000003
C26	C	0.951782	-0.407882	0.084383
C27	C	0.993725	-0.302739	0.000011
C28	C	0.951815	-0.407859	-0.084341
C29	C	0.990814	-0.467651	-0.000001
C30	C	1.032704	-0.362540	0.084461
C31	C	1.032725	-0.362510	-0.084340
C32	C	1.071741	-0.423521	0.000061
C33	C	0.995399	-0.207737	0.000019
C34	C	0.989146	-0.562652	-0.000002
C35	C	1.145844	0.108646	0.000010
C36	C	1.239092	0.110289	0.000005
C37	C	0.986147	0.268372	-0.000003
C38	C	0.987809	0.361617	-0.000010
N39	N	0.992258	0.114791	0.243549
N40	N	0.992290	0.114806	-0.243531
C41	C	0.992278	0.114807	0.663363
C42	C	0.992270	0.114805	0.546558
C43	C	0.992268	0.114800	0.453460
C44	C	0.992259	0.114797	0.336647
H45	H	0.845675	-0.313532	0.000086
O46	O	0.559658	0.035668	0.169769
C47	C	0.564019	0.032094	0.355065
C48	C	0.525129	0.077094	0.258542
H49	H	0.536132	0.065580	0.426861
H50	H	0.549454	-0.036273	0.355448
H51	H	0.635317	0.033695	0.354336
H52	H	0.453826	0.075558	0.259207
H53	H	0.539761	0.145440	0.258195
O54	O	0.456281	-0.046813	0.000064
C55	C	0.347001	-0.139542	-0.000674
C56	C	0.367944	-0.047593	-0.000692
H57	H	0.275582	-0.140203	-0.001263
H58	H	0.375393	-0.173441	-0.071949
H59	H	0.374535	-0.173057	0.071286
H60	H	0.340415	-0.014006	-0.072602
H61	H	0.339568	-0.013758	0.070631
H62	H	1.066887	-0.342560	0.155876
O63	O	1.151965	-0.462984	-0.000021
C64	C	1.285667	-0.483643	-0.088188
C65	C	1.194839	-0.438895	-0.088217
H66	H	1.320352	-0.464198	-0.159498
H67	H	1.320035	-0.465006	-0.016254
H68	H	1.283834	-0.554909	-0.088820
H69	H	1.196595	-0.367622	-0.087623
H70	H	1.160508	-0.457601	-0.160145
O71	O	0.528238	0.276411	-0.000051
C72	C	0.514218	0.410266	-0.088128
C73	C	0.493132	0.318365	-0.088194
H74	H	0.485860	0.444208	-0.159395
H75	H	0.486808	0.443846	-0.016151
H76	H	0.585657	0.410760	-0.088817
H77	H	0.421705	0.317794	-0.087542
H78	H	0.520601	0.284824	-0.160165
H79	H	0.430181	0.187635	0.155718
O80	O	0.910879	-0.431964	0.169377
C81	C	0.794523	-0.499829	0.235514
C82	C	0.840783	-0.472627	0.139180
H83	H	0.737832	-0.532695	0.211134
H84	H	0.839390	-0.545100	0.283199
H85	H	0.772070	-0.441767	0.283535
H86	H	0.863240	-0.530639	0.091079
H87	H	0.795886	-0.427328	0.091571
O88	O	0.559915	0.035726	-0.169547
C89	C	0.565114	0.032551	-0.354822
C90	C	0.525985	0.077503	-0.258400
H91	H	0.537685	0.066299	-0.426684
H92	H	0.636468	0.033703	-0.353662
H93	H	0.550114	-0.035674	-0.355497
H94	H	0.540921	0.145745	-0.257663
H95	H	0.454641	0.076283	-0.259598
O96	O	0.424493	0.194083	-0.169369
C97	C	0.297306	0.236363	-0.265148
C98	C	0.336427	0.191269	-0.168807
H99	H	0.226102	0.234087	-0.264736
H100	H	0.311225	0.304934	-0.265037
H101	H	0.325648	0.203396	-0.337039
H102	H	0.308109	0.224166	-0.096864
H103	H	0.322515	0.122696	-0.169009
O104	O	1.073395	-0.338515	-0.169548
C105	C	1.076767	-0.334167	-0.354823
C106	C	1.030624	-0.361373	-0.258400
H107	H	1.042215	-0.352653	-0.426684
H108	H	1.078147	-0.262843	-0.353663
H109	H	1.144145	-0.366919	-0.355498
H110	H	0.963226	-0.328681	-0.257663
H111	H	1.029312	-0.432705	-0.259598
O112	O	0.910876	-0.431696	-0.169416
C113	C	0.780816	-0.419433	-0.265502
C114	C	0.827089	-0.392359	-0.169132
H115	H	0.713061	-0.387656	-0.265293
H116	H	0.814589	-0.399847	-0.337443
H117	H	0.780530	-0.490898	-0.265077
H118	H	0.827388	-0.320898	-0.169457
H119	H	0.793301	-0.412008	-0.097233
