data_functionalizedCrystal
_audit_creation_method	'MofGen! by Chris Wilmer'
_symmetry_space_group_name_H-M	'P1'
_symmetry_Int_Tables_number	1
_symmetry_cell_setting	triclinic
loop_
_symmetry_equiv_pos_as_xyz
  x,y,z
_cell_length_a	18.215407
_cell_length_b	16.120444
_cell_length_c	18.215399
_cell_angle_alpha	92.870532
_cell_angle_beta	89.980167
_cell_angle_gamma	92.927051
loop_
_atom_site_label
_atom_site_type_symbol
_atom_site_fract_x
_atom_site_fract_y
_atom_site_fract_z
Zn1	Zn	1.110207	-0.331908	-0.430964
Zn2	Zn	1.360207	-0.081908	-0.180964
Zn3	Zn	1.610207	0.168092	0.069036
Zn4	Zn	1.860207	0.418092	0.319036
Zn5	Zn	1.103872	-0.471330	-0.314134
Zn6	Zn	1.353872	-0.221330	-0.064134
Zn7	Zn	1.603872	0.028670	0.185866
Zn8	Zn	1.853872	0.278670	0.435866
Zn9	Zn	0.987139	-0.331935	-0.307912
Zn10	Zn	1.237139	-0.081935	-0.057912
Zn11	Zn	1.487139	0.168065	0.192088
Zn12	Zn	1.737139	0.418065	0.442088
Zn13	Zn	0.980864	-0.471284	-0.437157
Zn14	Zn	1.230864	-0.221284	-0.187157
Zn15	Zn	1.480864	0.028716	0.062843
Zn16	Zn	1.730864	0.278716	0.312843
O17	O	1.045520	-0.401614	-0.372542
O18	O	1.295520	-0.151614	-0.122542
O19	O	1.545520	0.098386	0.127458
O20	O	1.795520	0.348386	0.377458
O21	O	1.212351	-0.350410	-0.415478
O22	O	1.462351	-0.100410	-0.165478
O23	O	1.712351	0.149590	0.084522
O24	O	1.962351	0.399590	0.334522
O25	O	1.088361	-0.452870	-0.210326
O26	O	1.338361	-0.202870	0.039674
O27	O	1.588361	0.047130	0.289674
O28	O	1.838361	0.297130	0.539674
O29	O	1.008741	-0.215265	-0.319039
O30	O	1.258741	0.034735	-0.069039
O31	O	1.508741	0.284735	0.180961
O32	O	1.758741	0.534735	0.430961
O33	O	1.207696	-0.452843	-0.329644
O34	O	1.457696	-0.202843	-0.079644
O35	O	1.707696	0.047157	0.170356
O36	O	1.957696	0.297157	0.420356
O37	O	1.099160	-0.215245	-0.409445
O38	O	1.349160	0.034755	-0.159445
O39	O	1.599160	0.284755	0.090555
O40	O	1.849160	0.534755	0.340555
O41	O	1.002598	-0.350457	-0.205755
O42	O	1.252598	-0.100457	0.044245
O43	O	1.502598	0.149543	0.294245
O44	O	1.752598	0.399543	0.544245
O45	O	0.883322	-0.350412	-0.325045
O46	O	1.133322	-0.100412	-0.075045
O47	O	1.383322	0.149588	0.174955
O48	O	1.633322	0.399588	0.424955
O49	O	0.998047	-0.452764	-0.539319
O50	O	1.248047	-0.202764	-0.289319
O51	O	1.498047	0.047236	-0.039319
O52	O	1.748047	0.297236	0.210681
O53	O	0.878712	-0.452791	-0.420001
O54	O	1.128712	-0.202791	-0.170001
O55	O	1.378712	0.047209	0.079999
O56	O	1.628712	0.297209	0.329999
O57	O	1.093075	-0.350365	-0.534768
O58	O	1.343075	-0.100365	-0.284768
O59	O	1.593075	0.149635	-0.034768
O60	O	1.843075	0.399635	0.215232
O61	O	1.082277	-0.587990	-0.335650
O62	O	1.332277	-0.337990	-0.085650
O63	O	1.582277	-0.087990	0.164350
O64	O	1.832277	0.162010	0.414350
O65	O	0.991903	-0.587956	-0.426034
O66	O	1.241903	-0.337956	-0.176034
O67	O	1.491903	-0.087956	0.073966
O68	O	1.741903	0.162044	0.323966
C69	C	0.854315	-0.401600	-0.372520
C70	C	1.104315	-0.151600	-0.122520
C71	C	1.354315	0.098400	0.127480
C72	C	1.604315	0.348400	0.377480
C73	C	0.772515	-0.401614	-0.372529
C74	C	1.022515	-0.151614	-0.122529
C75	C	1.272515	0.098386	0.127471
C76	C	1.522515	0.348386	0.377471
C77	C	1.035742	-0.618223	-0.382205
C78	C	1.285742	-0.368223	-0.132205
C79	C	1.535742	-0.118223	0.117795
C80	C	1.785742	0.131777	0.367795
C81	C	1.031625	-0.710890	-0.386364
C82	C	1.281625	-0.460890	-0.136364
C83	C	1.531625	-0.210890	0.113636
C84	C	1.781625	0.039110	0.363636
C85	C	0.581936	-0.455006	-0.421917
C86	C	0.831936	-0.205006	-0.171917
C87	C	1.081936	0.044994	0.078083
C88	C	1.331936	0.294994	0.328083
C89	C	0.505077	-0.455009	-0.421927
C90	C	0.755077	-0.205009	-0.171927
C91	C	1.005077	0.044991	0.078073
C92	C	1.255077	0.294991	0.328073
C93	C	0.509856	-0.348237	-0.323183
C94	C	0.759856	-0.098237	-0.073183
C95	C	1.009856	0.151763	0.176817
C96	C	1.259856	0.401763	0.426817
C97	C	0.586713	-0.348231	-0.323178
C98	C	0.836713	-0.098231	-0.073178
C99	C	1.086713	0.151769	0.176822
C100	C	1.336713	0.401769	0.426822
C101	C	0.622751	-0.401620	-0.372544
C102	C	0.872751	-0.151620	-0.122544
C103	C	1.122751	0.098380	0.127456
C104	C	1.372751	0.348380	0.377456
C105	C	0.469035	-0.401629	-0.372559
C106	C	0.719035	-0.151629	-0.122559
C107	C	0.969035	0.098371	0.127441
C108	C	1.219035	0.348371	0.377441
C109	C	0.385701	-0.401631	-0.372568
C110	C	0.635701	-0.151631	-0.122568
C111	C	0.885701	0.098369	0.127432
C112	C	1.135701	0.348369	0.377432
C113	C	0.706090	-0.401617	-0.372536
C114	C	0.956090	-0.151617	-0.122536
C115	C	1.206090	0.098383	0.127464
C116	C	1.456090	0.348383	0.377464
C117	C	1.067053	-0.921830	-0.351127
C118	C	1.317053	-0.671830	-0.101127
C119	C	1.567053	-0.421830	0.148873
C120	C	1.817053	-0.171830	0.398873
C121	C	1.024124	-0.880547	-0.393964
C122	C	1.274124	-0.630547	-0.143964
C123	C	1.524124	-0.380547	0.106036
C124	C	1.774124	-0.130547	0.356036
C125	C	1.028299	-0.786141	-0.389734
C126	C	1.278299	-0.536141	-0.139734
C127	C	1.528299	-0.286141	0.110266
C128	C	1.778299	-0.036141	0.360266
C129	C	1.062879	-1.016244	-0.355356
C130	C	1.312879	-0.766244	-0.105356
C131	C	1.562879	-0.516244	0.144644
C132	C	1.812879	-0.266244	0.394644
C133	C	1.237472	-0.401629	-0.372564
C134	C	1.487472	-0.151629	-0.122564
C135	C	1.737472	0.098371	0.127436
C136	C	1.987472	0.348371	0.377436
C137	C	1.319271	-0.401635	-0.372574
C138	C	1.569271	-0.151635	-0.122574
C139	C	1.819271	0.098365	0.127426
C140	C	2.069271	0.348365	0.377426
C141	C	1.045568	-0.401557	-0.564492
C142	C	1.295568	-0.151557	-0.314492
C143	C	1.545568	0.098443	-0.064492
C144	C	1.795568	0.348443	0.185508
C145	C	1.045588	-0.401532	-0.646290
C146	C	1.295588	-0.151532	-0.396290
C147	C	1.545588	0.098468	-0.146290
C148	C	1.795588	0.348468	0.103710
C149	C	1.055357	-0.184159	-0.362857
C150	C	1.305357	0.065841	-0.112857
C151	C	1.555357	0.315841	0.137143
C152	C	1.805357	0.565841	0.387143
C153	C	1.059549	-0.091492	-0.358730
C154	C	1.309549	0.158508	-0.108730
C155	C	1.559549	0.408508	0.141270
C156	C	1.809549	0.658508	0.391270
C157	C	1.095088	-0.348163	-0.832114
C158	C	1.345088	-0.098163	-0.582114
C159	C	1.595088	0.151837	-0.332114
C160	C	1.845088	0.401837	-0.082114
C161	C	1.095098	-0.348139	-0.908971
C162	C	1.345098	-0.098139	-0.658971
C163	C	1.595098	0.151861	-0.408971
C164	C	1.845098	0.401861	-0.158971
C165	C	0.996145	-0.454772	-0.913699
C166	C	1.246145	-0.204772	-0.663699
C167	C	1.496145	0.045228	-0.413699
C168	C	1.746145	0.295228	-0.163699
C169	C	0.996133	-0.454792	-0.836842
C170	C	1.246133	-0.204792	-0.586842
C171	C	1.496133	0.045208	-0.336842
C172	C	1.746133	0.295208	-0.086842
C173	C	1.045608	-0.401488	-0.796052
C174	C	1.295608	-0.151488	-0.546052
C175	C	1.545608	0.098512	-0.296052
C176	C	1.795608	0.348512	-0.046052
C177	C	1.045631	-0.401445	-0.949766
C178	C	1.295631	-0.151445	-0.699766
C179	C	1.545631	0.098555	-0.449766
C180	C	1.795631	0.348555	-0.199766
C181	C	1.045641	-0.401419	-1.033099
C182	C	1.295641	-0.151419	-0.783099
C183	C	1.545641	0.098581	-0.533099
C184	C	1.795641	0.348581	-0.283099
C185	C	1.045597	-0.401513	-0.712714
C186	C	1.295597	-0.151513	-0.462714
C187	C	1.545597	0.098487	-0.212714
C188	C	1.795597	0.348487	0.037286
C189	C	1.045518	-0.401611	-0.181336
C190	C	1.295518	-0.151611	0.068664
C191	C	1.545518	0.098389	0.318664
C192	C	1.795518	0.348389	0.568664
C193	C	1.045651	-0.401401	-0.099528
C194	C	1.295651	-0.151401	0.150472
C195	C	1.545651	0.098599	0.400472
C196	C	1.795651	0.348599	0.650472
H197	H	0.611276	-0.498477	-0.462116
H198	H	0.861276	-0.248477	-0.212116
H199	H	1.111276	0.001523	0.037884
H200	H	1.361276	0.251523	0.287884
H201	H	1.135389	-0.304715	-0.938329
H202	H	1.385389	-0.054715	-0.688329
H203	H	1.635389	0.195285	-0.438329
H204	H	1.885389	0.445285	-0.188329
F205	F	0.971986	-0.927021	-0.446050
F206	F	1.221986	-0.677021	-0.196050
F207	F	1.471986	-0.427021	0.053950
F208	F	1.721986	-0.177021	0.303950
H209	H	0.955835	-0.498215	-0.807480
H210	H	1.205835	-0.248215	-0.557480
H211	H	1.455835	0.001785	-0.307480
H212	H	1.705835	0.251785	-0.057480
H213	H	1.106937	-0.886276	-0.311279
H214	H	1.356937	-0.636276	-0.061279
H215	H	1.606937	-0.386276	0.188721
H216	H	1.856937	-0.136276	0.438721
F217	F	0.943496	-0.511501	-0.957117
F218	F	1.193496	-0.261501	-0.707117
F219	F	1.443496	-0.011501	-0.457117
F220	F	1.693496	0.238499	-0.207117
H221	H	0.471849	-0.498480	-0.462132
H222	H	0.721849	-0.248480	-0.212132
H223	H	0.971849	0.001520	0.037868
H224	H	1.221849	0.251520	0.287868
F225	F	0.471495	-0.291421	-0.270646
F226	F	0.721495	-0.041421	-0.020646
F227	F	0.971495	0.208579	0.229354
F228	F	1.221495	0.458579	0.479354
F229	F	1.147743	-0.291431	-0.788704
F230	F	1.397743	-0.041431	-0.538704
F231	F	1.647743	0.208569	-0.288704
F232	F	1.897743	0.458569	-0.038704
H233	H	0.619946	-0.304752	-0.282972
H234	H	0.869946	-0.054752	-0.032972
H235	H	1.119946	0.195248	0.217028
H236	H	1.369946	0.445248	0.467028
