data_functionalizedCrystal
_audit_creation_method	'MofGen! by Chris Wilmer'
_symmetry_space_group_name_H-M	'P1'
_symmetry_Int_Tables_number	1
_symmetry_cell_setting	triclinic
loop_
_symmetry_equiv_pos_as_xyz
  x,y,z
_cell_length_a	18.101395
_cell_length_b	12.759401
_cell_length_c	12.759393
_cell_angle_alpha	89.979062
_cell_angle_beta	89.967630
_cell_angle_gamma	90.032629
loop_
_atom_site_label
_atom_site_type_symbol
_atom_site_fract_x
_atom_site_fract_y
_atom_site_fract_z
Zn1	Zn	-0.294764	1.606147	-0.594006
Zn2	Zn	-0.418623	1.605987	-0.418321
Zn3	Zn	-0.294803	1.430445	-0.418342
Zn4	Zn	-0.418571	1.430387	-0.593958
O5	O	-0.356690	1.518242	-0.506157
O6	O	-0.311199	1.753147	-0.570713
O7	O	-0.402236	1.582659	-0.271302
O8	O	-0.191165	1.453844	-0.441673
O9	O	-0.402198	1.753030	-0.441637
O10	O	-0.191136	1.582931	-0.570733
O11	O	-0.311266	1.453689	-0.271318
O12	O	-0.311216	1.283417	-0.441626
O13	O	-0.402110	1.453744	-0.740986
O14	O	-0.402148	1.283374	-0.570651
O15	O	-0.311149	1.582874	-0.741021
O16	O	-0.522249	1.582603	-0.441590
O17	O	-0.522211	1.453590	-0.570630
C18	C	-0.356681	1.245274	-0.506136
C19	C	-0.356695	1.128498	-0.506152
C20	C	-0.549101	1.518101	-0.506126
C21	C	-0.631415	1.518137	-0.506148
C22	C	-0.404115	1.073641	-0.573229
C23	C	-0.404118	0.963917	-0.573250
C24	C	-0.309278	0.963916	-0.439107
C25	C	-0.309272	1.073638	-0.439092
C26	C	-0.430691	0.814010	-0.697109
C27	C	-0.478123	0.759149	-0.764177
C28	C	-0.550396	0.794718	-0.780122
C29	C	-0.575251	0.885145	-0.728983
C30	C	-0.527823	0.940000	-0.661907
C31	C	-0.455540	0.904433	-0.645982
C32	C	-0.282707	1.223547	-0.315232
C33	C	-0.235282	1.278404	-0.248150
C34	C	-0.163008	1.242837	-0.232194
C35	C	-0.138156	1.152407	-0.283315
C36	C	-0.185581	1.097550	-0.350397
C37	C	-0.257854	1.133124	-0.366354
C38	C	-0.930506	1.518368	-0.506204
C39	C	-0.899187	1.437384	-0.587594
C40	C	-0.813570	1.436999	-0.587340
C41	C	-0.782123	1.518253	-0.506177
C42	C	-0.813282	1.488271	-0.395451
C43	C	-0.898927	1.487748	-0.395938
C44	C	-0.898846	1.629511	-0.534565
C45	C	-0.813194	1.628857	-0.536994
C46	C	-0.698264	1.518190	-0.506155
C47	C	-1.014365	1.518428	-0.506219
C48	C	-0.163528	1.518411	-0.506211
C49	C	-0.081214	1.518484	-0.506234
C50	C	-0.356619	1.518320	-0.780190
C51	C	-0.356589	1.518354	-0.896967
C52	C	-0.356700	1.792275	-0.506178
C53	C	-0.356704	1.909051	-0.506187
C54	C	-0.309218	1.585597	-0.951849
C55	C	-0.309186	1.585614	-1.061573
C56	C	-0.403902	1.451143	-1.061523
C57	C	-0.403930	1.451121	-0.951801
C58	C	-0.221811	1.623262	-1.211555
C59	C	-0.174447	1.690521	-1.266441
C60	C	-0.163090	1.793039	-1.230850
C61	C	-0.199110	1.828318	-1.140375
C62	C	-0.246479	1.761064	-1.085495
C63	C	-0.257821	1.658532	-1.121084
C64	C	-0.491306	1.413484	-0.801817
C65	C	-0.538680	1.346235	-0.746935
C66	C	-0.550044	1.243716	-0.782523
C67	C	-0.514038	1.208441	-0.873002
C68	C	-0.466664	1.275690	-0.927884
C69	C	-0.455299	1.378208	-0.892288
C70	C	-0.356708	1.518224	-0.233189
C71	C	-0.356529	1.518394	-0.116413
H72	H	-0.548060	1.013623	-0.620270
O73	O	-0.925481	1.380129	-0.364118
H74	H	-0.959651	1.386490	-0.292144
H75	H	-0.791900	1.407886	-0.370996
H76	H	-0.079309	1.123436	-0.270307
H77	H	-0.919098	1.689846	-0.475286
O78	O	-0.927768	1.328915	-0.563024
H79	H	-0.964182	1.332431	-0.493095
O80	O	-0.927369	1.665714	-0.639701
H81	H	-0.958485	1.739976	-0.629692
H82	H	-0.634106	0.914091	-0.741962
H83	H	-0.919647	1.544174	-0.333229
O84	O	-0.262089	1.375942	-0.193013
H85	H	-0.216972	1.408104	-0.143679
H86	H	-0.341556	1.252520	-0.328226
O87	O	-0.786205	1.658830	-0.644923
H88	H	-0.750805	1.595229	-0.676494
H89	H	-0.482052	1.496962	-0.772826
O90	O	-0.784869	1.713012	-0.464168
H91	H	-0.748039	1.677159	-0.404605
H92	H	-0.457879	0.685524	-0.805816
O93	O	-0.258155	1.658099	-0.892701
H94	H	-0.225205	1.704853	-0.949303
H95	H	-0.568005	1.374969	-0.673269
O96	O	-0.285323	1.799093	-0.987911
H97	H	-0.269468	1.881682	-0.972377
H98	H	-0.442728	1.118304	-0.627836
H99	H	-0.792915	1.545399	-0.333156
H100	H	-0.124398	1.287507	-0.177561
H101	H	-0.919730	1.455958	-0.669962
O102	O	-0.186873	1.938900	-1.101996
H103	H	-0.147880	1.979738	-1.155354
O104	O	-0.785651	1.461766	-0.696108
H105	H	-0.833322	1.474131	-0.749363
H106	H	-0.145120	1.661788	-1.340106
H107	H	-0.793149	1.354618	-0.568554
H108	H	-0.437346	1.246960	-1.001557
O109	O	-0.111995	1.865582	-1.290033
H110	H	-0.088853	1.823826	-1.358915
H111	H	-0.523293	1.124963	-0.901982
H112	H	-0.270670	0.919236	-0.384508
H113	H	-0.231047	1.539782	-1.240537
H114	H	-0.589015	0.750043	-0.834732
H115	H	-0.442447	1.396407	-1.106183
O116	O	-0.601137	1.171176	-0.723327
H117	H	-0.657449	1.205493	-0.721183
O118	O	-0.352746	0.775613	-0.679904
H119	H	-0.322859	0.774436	-0.755877
O120	O	-0.158778	1.000018	-0.405549
H121	H	-0.100551	0.984503	-0.383194
