data_functionalizedCrystal
_audit_creation_method	'MofGen! by Chris Wilmer'
_symmetry_space_group_name_H-M	'P1'
_symmetry_Int_Tables_number	1
_symmetry_cell_setting	triclinic
loop_
_symmetry_equiv_pos_as_xyz
  x,y,z
_cell_length_a	15.944551
_cell_length_b	16.109301
_cell_length_c	14.586319
_cell_angle_alpha	89.996867
_cell_angle_beta	90.001139
_cell_angle_gamma	96.519891
loop_
_atom_site_label
_atom_site_type_symbol
_atom_site_fract_x
_atom_site_fract_y
_atom_site_fract_z
O1	O	0.107962	-1.103169	0.076184
O2	O	0.441295	-0.769836	0.409518
O3	O	0.774628	-0.436502	0.742851
O4	O	0.121398	-0.861112	0.076199
O5	O	0.454731	-0.527778	0.409532
O6	O	0.788064	-0.194445	0.742866
O7	O	-0.007597	-0.988750	0.076183
O8	O	0.325736	-0.655417	0.409516
O9	O	0.659069	-0.322084	0.742850
O10	O	0.236957	-0.975530	0.076200
O11	O	0.570290	-0.642197	0.409534
O12	O	0.903623	-0.308864	0.742867
O13	O	-0.007590	-0.988735	-0.076298
O14	O	0.325744	-0.655401	0.257036
O15	O	0.659077	-0.322068	0.590369
O16	O	0.121405	-0.861096	-0.076282
O17	O	0.454739	-0.527763	0.257052
O18	O	0.788072	-0.194429	0.590385
O19	O	0.107969	-1.103154	-0.076296
O20	O	0.441302	-0.769820	0.257037
O21	O	0.774636	-0.436487	0.590370
Cu22	Cu	0.114688	-0.982123	-0.090212
Cu23	Cu	0.448021	-0.648790	0.243122
Cu24	Cu	0.781355	-0.315457	0.576455
Cu25	Cu	0.114679	-0.982142	0.090114
Cu26	Cu	0.448012	-0.648808	0.423448
Cu27	Cu	0.781346	-0.315475	0.756781
O28	O	0.236964	-0.975515	-0.076280
O29	O	0.570298	-0.642181	0.257053
O30	O	0.903631	-0.308848	0.590386
C31	C	-0.038887	-0.988194	-0.000057
C32	C	0.294446	-0.654860	0.333276
C33	C	0.627779	-0.321527	0.666609
C34	C	-0.132133	-0.986548	-0.000058
C35	C	0.201201	-0.653215	0.333275
C36	C	0.534534	-0.319882	0.666609
C37	C	0.120857	-0.830129	-0.000039
C38	C	0.454191	-0.496795	0.333294
C39	C	0.787524	-0.163462	0.666627
C40	C	0.119226	-0.737833	-0.000034
C41	C	0.452559	-0.404499	0.333299
C42	C	0.785892	-0.071166	0.666633
C43	C	0.108510	-1.134136	-0.000056
C44	C	0.441843	-0.800803	0.333277
C45	C	0.775176	-0.467470	0.666611
C46	C	0.110141	-1.226432	-0.000055
C47	C	0.443475	-0.893099	0.333278
C48	C	0.776808	-0.559766	0.666611
C49	C	-0.346962	-0.903499	-0.000040
C50	C	-0.013629	-0.570166	0.333293
C51	C	0.319705	-0.236832	0.666627
C52	C	-0.407988	-0.942057	-0.075225
C53	C	-0.074655	-0.608723	0.258109
C54	C	0.258678	-0.275390	0.591442
C55	C	-0.302858	-0.983572	-0.000051
C56	C	0.030476	-0.650238	0.333283
C57	C	0.363809	-0.316905	0.666616
C58	C	-0.407979	-0.942091	0.075109
C59	C	-0.074646	-0.608758	0.408443
C60	C	0.258687	-0.275424	0.741776
C61	C	-0.467769	-0.980691	-0.000040
C62	C	-0.134436	-0.647357	0.333294
C63	C	0.198897	-0.314024	0.666627
C64	C	-0.362656	-1.022151	-0.075297
C65	C	-0.029322	-0.688818	0.258036
C66	C	0.304011	-0.355485	0.591369
C67	C	-0.362640	-1.022174	0.075104
C68	C	-0.029307	-0.688841	0.408438
C69	C	0.304026	-0.355508	0.741771
C70	C	-0.423649	-1.060790	-0.000099
C71	C	-0.090316	-0.727457	0.333235
C72	C	0.243018	-0.394124	0.666568
C73	C	-0.207856	-0.985229	-0.000058
C74	C	0.125477	-0.651896	0.333276
C75	C	0.458811	-0.318563	0.666609
C76	C	-0.562770	-0.979039	-0.000039
C77	C	-0.229437	-0.645706	0.333294
C78	C	0.103897	-0.312373	0.666628
C79	C	0.268254	-0.976071	-0.000038
C80	C	0.601588	-0.642738	0.333295
C81	C	0.934921	-0.309405	0.666629
C82	C	0.361500	-0.977717	-0.000031
C83	C	0.694833	-0.644383	0.333302
C84	C	1.028166	-0.311050	0.666635
N85	N	0.114694	-0.982116	-0.217044
N86	N	0.448027	-0.648783	0.116290
N87	N	0.781360	-0.315450	0.449623
C88	C	0.191975	-0.515584	-0.000040
C89	C	0.525308	-0.182251	0.333294
C90	C	0.858641	0.151083	0.666627
C91	C	0.190435	-0.428863	-0.000046
C92	C	0.523768	-0.095530	0.333288
C93	C	0.857102	0.237804	0.666621
C94	C	0.037387	-0.448688	-0.000053
C95	C	0.370720	-0.115355	0.333281
C96	C	0.704053	0.217979	0.666614
C97	C	0.038927	-0.535407	-0.000053
C98	C	0.372260	-0.202074	0.333280
C99	C	0.705594	0.131260	0.666614
C100	C	0.116224	-0.568853	-0.000042
C101	C	0.449557	-0.235519	0.333291
C102	C	0.782890	0.097814	0.666625
C103	C	0.113143	-0.395412	-0.000047
C104	C	0.446477	-0.062079	0.333286
C105	C	0.779810	0.271254	0.666619
C106	C	0.111473	-0.301386	-0.000054
C107	C	0.444807	0.031947	0.333279
C108	C	0.778140	0.365281	0.666613
C109	C	0.117894	-0.662885	-0.000037
C110	C	0.451227	-0.329552	0.333296
C111	C	0.784561	0.003782	0.666630
C112	C	0.165642	-1.032556	-0.452049
C113	C	0.498975	-0.699222	-0.118716
C114	C	0.832308	-0.365889	0.214617
C115	C	0.165636	-1.032564	-0.548031
C116	C	0.498969	-0.699231	-0.214697
C117	C	0.832302	-0.365898	0.118636
C118	C	0.063713	-0.931714	-0.548041
C119	C	0.397046	-0.598381	-0.214708
C120	C	0.730380	-0.265047	0.118625
C121	C	0.063715	-0.931710	-0.452062
C122	C	0.397048	-0.598377	-0.118728
C123	C	0.730381	-0.265044	0.214605
C124	C	0.114684	-0.982130	-0.404068
C125	C	0.448017	-0.648796	-0.070735
C126	C	0.781351	-0.315463	0.262598
C127	C	0.114676	-0.982142	-0.596029
C128	C	0.448010	-0.648809	-0.262696
C129	C	0.781343	-0.315475	0.070638
C130	C	0.114670	-0.982151	-0.700096
C131	C	0.448003	-0.648818	-0.366763
C132	C	0.781336	-0.315484	-0.033430
C133	C	0.114690	-0.982122	-0.299995
C134	C	0.448023	-0.648789	0.033339
C135	C	0.781356	-0.315455	0.366672
N136	N	0.114666	-0.982155	0.216946
N137	N	0.448000	-0.648822	0.550280
N138	N	0.781333	-0.315489	0.883613
H139	H	-0.313632	-0.837035	-0.000111
H140	H	0.019701	-0.503702	0.333222
H141	H	0.353034	-0.170368	0.666556
F142	F	0.271060	-0.372174	-0.000044
F143	F	0.604393	-0.038841	0.333289
F144	F	0.937726	0.294493	0.666622
H145	H	-0.025546	-0.421446	-0.000067
H146	H	0.307788	-0.088112	0.333266
H147	H	0.641121	0.245221	0.666600
F148	F	-0.434253	-0.897783	-0.158301
F149	F	-0.100920	-0.564450	0.175032
F150	F	0.232414	-0.231116	0.508366
H151	H	0.022217	-0.890663	-0.587129
H152	H	0.355550	-0.557330	-0.253796
H153	H	0.688883	-0.223997	0.079537
H154	H	-0.022762	-0.578781	-0.000058
H155	H	0.310571	-0.245448	0.333276
H156	H	0.643904	0.087886	0.666609
H157	H	0.022215	-0.890647	-0.412995
H158	H	0.355548	-0.557313	-0.079661
H159	H	0.688881	-0.223980	0.253672
H160	H	-0.428048	-0.908219	0.138677
H161	H	-0.094715	-0.574886	0.472010
H162	H	0.238619	-0.241553	0.805343
H163	H	-0.342673	-1.055984	-0.138930
H164	H	-0.009340	-0.722651	0.194404
H165	H	0.323993	-0.389317	0.527737
F166	F	-0.467021	-1.147739	-0.000157
F167	F	-0.133687	-0.814405	0.333177
F168	F	0.199646	-0.481072	0.666510
H169	H	0.207129	-1.073627	-0.587093
H170	H	0.540463	-0.740294	-0.253759
H171	H	0.873796	-0.406961	0.079574
F172	F	-0.336345	-1.066413	0.158184
F173	F	-0.003012	-0.733080	0.491518
F174	F	0.330321	-0.399747	0.824851
F175	F	0.274240	-0.551176	-0.000031
F176	F	0.607574	-0.217843	0.333302
F177	F	0.940907	0.115490	0.666635
F178	F	0.219882	-1.086221	-0.400974
F179	F	0.553216	-0.752888	-0.067641
F180	F	0.886549	-0.419555	0.265692
