data_functionalizedCrystal
_audit_creation_method	'MofGen! by Chris Wilmer'
_symmetry_space_group_name_H-M	'P1'
_symmetry_Int_Tables_number	1
_symmetry_cell_setting	triclinic
loop_
_symmetry_equiv_pos_as_xyz
  x,y,z
_cell_length_a	29.839133
_cell_length_b	18.215407
_cell_length_c	18.215399
_cell_angle_alpha	89.982632
_cell_angle_beta	89.979424
_cell_angle_gamma	90.027045
loop_
_atom_site_label
_atom_site_type_symbol
_atom_site_fract_x
_atom_site_fract_y
_atom_site_fract_z
Zn1	Zn	-0.178889	1.125048	-0.416105
Zn2	Zn	0.321111	1.625048	0.083895
Zn3	Zn	-0.254018	1.124946	-0.293055
Zn4	Zn	0.245982	1.624946	0.206945
Zn5	Zn	-0.178899	1.001980	-0.293058
Zn6	Zn	0.321101	1.501980	0.206942
Zn7	Zn	-0.253989	1.001936	-0.416085
Zn8	Zn	0.246011	1.501936	0.083915
O9	O	-0.216449	1.063478	-0.354576
O10	O	0.283551	1.563478	0.145424
O11	O	-0.188862	1.228019	-0.399789
O12	O	0.311138	1.728019	0.100211
O13	O	-0.244070	1.108610	-0.190071
O14	O	0.255930	1.608610	0.309929
O15	O	-0.116031	1.018367	-0.309390
O16	O	0.383969	1.518367	0.190610
O17	O	-0.244059	1.227944	-0.309385
O18	O	0.255941	1.727944	0.190615
O19	O	-0.116023	1.108784	-0.399792
O20	O	0.383977	1.608784	0.100208
O21	O	-0.188881	1.018268	-0.190073
O22	O	0.311119	1.518268	0.309927
O23	O	-0.188852	0.898990	-0.309370
O24	O	0.311148	1.398990	0.190630
O25	O	-0.244010	1.018291	-0.519072
O26	O	0.255990	1.518291	-0.019072
O27	O	-0.244020	0.898958	-0.399758
O28	O	0.255980	1.398958	0.100242
O29	O	-0.188834	1.108741	-0.519087
O30	O	0.311166	1.608741	-0.019087
O31	O	-0.316881	1.108567	-0.309365
O32	O	0.183119	1.608567	0.190635
O33	O	-0.316860	1.018193	-0.399755
O34	O	0.183140	1.518193	0.100245
C35	C	-0.216435	0.872271	-0.354563
C36	C	0.283565	1.372271	0.145437
C37	C	-0.216440	0.790472	-0.354575
C38	C	0.283560	1.290472	0.145425
C39	C	-0.187758	0.602316	-0.401723
C40	C	0.312242	1.102316	0.098277
C41	C	-0.187762	0.525458	-0.401725
C42	C	0.312238	1.025458	0.098275
C43	C	-0.245152	0.525391	-0.307441
C44	C	0.254848	1.025391	0.192559
C45	C	-0.245146	0.602248	-0.307436
C46	C	0.254854	1.102248	0.192564
C47	C	-0.216449	0.640709	-0.354581
C48	C	0.283551	1.140709	0.145419
C49	C	-0.216459	0.486993	-0.354589
C50	C	0.283541	0.986993	0.145411
C51	C	-0.216464	0.403659	-0.354591
C52	C	0.283536	0.903659	0.145409
C53	C	-0.216444	0.724048	-0.354578
C54	C	0.283556	1.224048	0.145422
C55	C	-0.333171	1.063384	-0.354574
C56	C	0.166829	1.563384	0.145426
C57	C	-0.383106	1.063412	-0.354597
C58	C	0.116894	1.563412	0.145403
C59	C	-0.739654	1.110585	-0.401702
C60	C	-0.239654	1.610585	0.098298
C61	C	-0.551981	1.110515	-0.401701
C62	C	-0.051981	1.610515	0.098299
O63	O	-0.527683	1.150528	-0.441741
O64	O	-0.027683	1.650528	0.058259
N65	N	-0.528551	1.063470	-0.354596
N66	N	-0.028551	1.563470	0.145404
C67	C	-0.552042	1.016442	-0.307483
C68	C	-0.052042	1.516442	0.192517
O69	O	-0.527807	0.976430	-0.267412
O70	O	-0.027807	1.476430	0.232588
C71	C	-0.739714	1.016516	-0.307481
C72	C	-0.239714	1.516516	0.192519
C73	C	-0.763142	1.063559	-0.354595
C74	C	-0.263142	1.563559	0.145405
C75	C	-0.763081	1.157625	-0.448812
C76	C	-0.263081	1.657625	0.051188
C77	C	-0.809997	1.157639	-0.448814
C78	C	-0.309997	1.657639	0.051186
C79	C	-0.833485	1.110613	-0.401707
C80	C	-0.333485	1.610613	0.098293
C81	C	-0.810057	1.063573	-0.354598
C82	C	-0.310057	1.563573	0.145402
C83	C	-0.763205	0.969492	-0.260365
C84	C	-0.263205	1.469492	0.239635
C85	C	-0.810126	0.969516	-0.260368
C86	C	-0.310126	1.469516	0.239632
C87	C	-0.833553	1.016559	-0.307482
C88	C	-0.333553	1.516559	0.192518
C89	C	-0.880461	1.016561	-0.307493
C90	C	-0.380461	1.516561	0.192507
N91	N	-0.903890	1.063607	-0.354599
N92	N	-0.403890	1.563607	0.145401
C93	C	-0.880402	1.110633	-0.401706
C94	C	-0.380402	1.610633	0.098294
C95	C	-0.453511	1.016405	-0.307489
C96	C	0.046489	1.516405	0.192511
C97	C	-0.406594	1.016386	-0.307490
C98	C	0.093406	1.516386	0.192510
C99	C	-0.406535	1.110460	-0.401707
C100	C	0.093465	1.610460	0.098293
C101	C	-0.453454	1.110476	-0.401709
C102	C	0.046546	1.610476	0.098291
C103	C	-0.476941	1.063451	-0.354595
C104	C	0.023059	1.563451	0.145405
C105	C	-0.978928	1.110658	-0.401708
C106	C	-0.478928	1.610658	0.098292
C107	C	-1.025848	1.110666	-0.401709
C108	C	-0.525848	1.610666	0.098291
C109	C	-1.025902	1.016594	-0.307489
C110	C	-0.525902	1.516594	0.192511
C111	C	-0.978986	1.016583	-0.307491
C112	C	-0.478986	1.516583	0.192509
C113	C	-0.955501	1.063621	-0.354603
C114	C	-0.455501	1.563621	0.145397
O115	O	-0.904787	0.976575	-0.267469
O116	O	-0.404787	1.476575	0.232531
O117	O	-0.904645	1.150649	-0.441760
O118	O	-0.404645	1.650649	0.058240
C119	C	-0.692738	1.110571	-0.401700
C120	C	-0.192738	1.610571	0.098300
C121	C	-0.669311	1.063531	-0.354590
C122	C	-0.169311	1.563531	0.145410
C123	C	-0.692799	1.016505	-0.307483
C124	C	-0.192799	1.516505	0.192517
C125	C	-0.622393	1.063511	-0.354591
C126	C	-0.122393	1.563511	0.145409
C127	C	-0.598905	1.110537	-0.401698
C128	C	-0.098905	1.610537	0.098302
C129	C	-0.622335	1.157583	-0.448804
C130	C	-0.122335	1.657583	0.051196
C131	C	-0.669250	1.157597	-0.448807
C132	C	-0.169250	1.657597	0.051193
C133	C	-0.669369	0.969459	-0.260377
C134	C	-0.169369	1.469459	0.239623
C135	C	-0.622453	0.969448	-0.260379
C136	C	-0.122453	1.469448	0.239621
C137	C	-0.598965	1.016474	-0.307486
C138	C	-0.098965	1.516474	0.192514
C139	C	-0.099270	1.063591	-0.354594
C140	C	0.400730	1.563591	0.145406
C141	C	-0.049336	1.063640	-0.354602
C142	C	0.450664	1.563640	0.145398
C143	C	-0.216418	1.063522	-0.546529
C144	C	0.283582	1.563522	-0.046529
C145	C	-0.216404	1.063542	-0.628328
C146	C	0.283596	1.563542	-0.128328
C147	C	-0.216463	1.255430	-0.354589
C148	C	0.283537	1.755430	0.145411
C149	C	-0.216469	1.337229	-0.354595
C150	C	0.283531	1.837229	0.145405
C151	C	-0.187648	1.110656	-0.816531
C152	C	0.312352	1.610656	-0.316531
C153	C	-0.187634	1.110664	-0.893389
C154	C	0.312366	1.610664	-0.393389
C155	C	-0.245092	1.016480	-0.893363
C156	C	0.254908	1.516480	-0.393363
C157	C	-0.245102	1.016468	-0.816505
C158	C	0.254898	1.516468	-0.316505
C159	C	-0.216381	1.063560	-0.778091
C160	C	0.283619	1.563560	-0.278091
C161	C	-0.216357	1.063581	-0.931807
C162	C	0.283643	1.563581	-0.431807
C163	C	-0.216343	1.063590	-1.015141
C164	C	0.283657	1.563590	-0.515141
C165	C	-0.216394	1.063550	-0.694752
C166	C	0.283606	1.563550	-0.194752
C167	C	-0.216447	1.063475	-0.163369
C168	C	0.283553	1.563475	0.336631
C169	C	-0.216334	1.063599	-0.081571
C170	C	0.283666	1.563599	0.418429
H171	H	-0.164390	0.633629	-0.440109
H172	H	0.335610	1.133629	0.059891
H173	H	-0.164397	0.494202	-0.440112
H174	H	0.335603	0.994202	0.059888
H175	H	-0.744137	0.931185	-0.222001
H176	H	-0.244137	1.431185	0.277999
H177	H	-0.268516	0.494067	-0.269059
H178	H	0.231484	0.994067	0.230941
H179	H	-0.164259	1.148999	-0.785256
H180	H	0.335741	1.648999	-0.285256
H181	H	-0.164236	1.149013	-0.924683
H182	H	0.335764	1.649013	-0.424683
H183	H	-0.268477	0.978140	-0.924649
H184	H	0.231523	1.478140	-0.424649
H185	H	-1.045034	0.978305	-0.269137
H186	H	-0.545034	1.478305	0.230863
H187	H	-0.268500	0.978111	-0.785207
H188	H	0.231500	1.478111	-0.285207
H189	H	-0.268510	0.633508	-0.269043
H190	H	0.231490	1.133508	0.230957
H191	H	-1.044920	1.148973	-0.440079
H192	H	-0.544920	1.648973	0.059921
H193	H	-0.959812	1.148962	-0.440070
H194	H	-0.459812	1.648962	0.059930
H195	H	-0.829067	1.195952	-0.487174
H196	H	-0.329067	1.695952	0.012826
H197	H	-0.743961	1.195922	-0.487172
H198	H	-0.243961	1.695922	0.012828
H199	H	-0.472526	1.148779	-0.440077
H200	H	0.027474	1.648779	0.059923
H201	H	-0.688488	0.931165	-0.222015
H202	H	-0.188488	1.431165	0.277985
H203	H	-0.387404	1.148750	-0.440065
H204	H	0.112596	1.648750	0.059935
H205	H	-0.688321	1.195904	-0.487173
H206	H	-0.188321	1.695904	0.012827
H207	H	-0.387522	0.978070	-0.269134
H208	H	0.112478	1.478070	0.230866
H209	H	-0.472630	0.978109	-0.269120
H210	H	0.027370	1.478109	0.230880
H211	H	-0.829246	0.931222	-0.222000
H212	H	-0.329246	1.431222	0.278000
H213	H	-0.959911	0.978269	-0.269134
H214	H	-0.459911	1.478269	0.230866
H215	H	-0.603203	1.195871	-0.487163
H216	H	-0.103203	1.695871	0.012837
H217	H	-0.603382	0.931133	-0.222015
H218	H	-0.103382	1.431133	0.277985
