data_functionalizedCrystal
_audit_creation_method	'MofGen! by Chris Wilmer'
_symmetry_space_group_name_H-M	'P1'
_symmetry_Int_Tables_number	1
_symmetry_cell_setting	triclinic
loop_
_symmetry_equiv_pos_as_xyz
  x,y,z
_cell_length_a	19.077105
_cell_length_b	10.686285
_cell_length_c	19.076919
_cell_angle_alpha	88.081200
_cell_angle_beta	90.076224
_cell_angle_gamma	83.162422
loop_
_atom_site_label
_atom_site_type_symbol
_atom_site_fract_x
_atom_site_fract_y
_atom_site_fract_z
Zn1	Zn	1.085506	-0.610610	-0.415453
Zn2	Zn	1.099198	-0.813548	-0.289649
Zn3	Zn	0.971970	-0.593702	-0.293938
Zn4	Zn	0.976985	-0.812786	-0.402433
O5	O	1.033415	-0.707661	-0.350368
O6	O	1.185984	-0.644924	-0.402419
O7	O	1.085952	-0.777627	-0.192163
O8	O	0.979201	-0.419327	-0.317301
O9	O	1.196043	-0.794022	-0.309992
O10	O	1.062616	-0.431749	-0.406578
O11	O	0.992478	-0.616107	-0.195314
O12	O	0.873973	-0.615369	-0.304676
O13	O	0.987750	-0.792725	-0.502215
O14	O	0.877659	-0.776330	-0.384387
O15	O	1.067480	-0.644186	-0.511781
O16	O	1.090815	-0.990065	-0.297367
O17	O	1.001026	-0.989505	-0.380228
C18	C	0.850234	-0.693933	-0.343584
C19	C	0.771869	-0.688092	-0.340697
C20	C	0.736999	-0.769268	-0.380767
C21	C	0.663366	-0.763763	-0.378058
C22	C	0.624605	-0.677087	-0.335276
C23	C	0.659481	-0.595902	-0.295205
C24	C	0.733112	-0.601402	-0.297918
C25	C	0.404183	-0.651633	-0.322724
C26	C	0.330547	-0.646142	-0.320013
C27	C	0.334437	-0.814001	-0.402867
C28	C	0.408069	-0.819499	-0.405573
C29	C	0.442938	-0.738310	-0.365505
N30	N	0.549341	-0.671460	-0.332505
N31	N	0.518201	-0.743931	-0.368280
C32	C	1.047969	-1.035583	-0.336935
C33	C	1.054260	-1.175875	-0.331214
C34	C	1.217311	-0.721444	-0.357180
C35	C	1.295676	-0.727318	-0.360082
C36	C	1.026647	-0.720257	-0.533134
C37	C	1.023763	-0.725624	-0.611017
C38	C	1.018822	-0.378462	-0.363870
C39	C	1.012603	-0.238177	-0.369624
C40	C	1.063917	-0.650813	-0.652589
C41	C	1.061198	-0.655851	-0.725768
C42	C	1.018329	-0.735707	-0.757375
C43	C	0.978171	-0.810521	-0.715799
C44	C	0.980886	-0.805476	-0.642621
C45	C	1.005754	-0.759083	-0.975701
C46	C	1.003043	-0.764125	-1.048885
C47	C	1.086070	-0.609453	-1.058849
C48	C	1.088785	-0.604420	-0.985669
C49	C	1.048624	-0.679229	-0.944099
N50	N	1.015551	-0.740861	-0.832177
N51	N	1.051398	-0.674067	-0.869299
C52	C	1.040193	-0.695027	-0.168319
C53	C	1.043197	-0.689314	-0.090456
H54	H	0.439623	-0.890082	-0.440409
O55	O	0.292968	-0.561995	-0.278364
C56	C	0.314722	-0.585899	-0.208034
H57	H	0.370398	-0.638281	-0.206504
H58	H	0.314327	-0.492738	-0.180533
H59	H	0.277034	-0.646005	-0.180195
H60	H	0.972128	-1.184190	-0.406885
O61	O	0.941990	-0.878214	-0.602156
C62	C	0.987319	-0.959837	-0.557985
H63	H	1.039183	-0.918570	-0.550837
H64	H	0.961264	-0.971045	-0.504763
H65	H	0.998164	-1.055898	-0.582634
O66	O	1.125035	-0.536596	-1.099160
C67	C	1.104699	-0.408417	-1.085877
H68	H	1.079451	-0.400113	-1.031846
H69	H	1.153165	-0.355461	-1.087581
H70	H	1.065038	-0.366030	-1.127461
H71	H	0.306038	-0.880099	-0.435489
O72	O	0.936586	-0.888063	-0.746612
C73	C	0.942786	-0.876455	-0.820116
H74	H	0.994995	-0.839891	-0.833826
H75	H	0.941161	-0.972552	-0.843872
H76	H	0.897218	-0.807538	-0.842089
H77	H	1.094733	-1.229869	-0.293946
O78	O	1.105642	-0.573421	-0.621851
C79	C	1.155926	-0.645761	-0.578249
H80	H	1.163874	-0.747013	-0.596385
H81	H	1.208189	-0.604115	-0.581304
H82	H	1.136376	-0.644652	-0.521802
H83	H	0.768552	-0.839853	-0.415602
O84	O	1.100276	-0.583142	-0.766046
C85	C	1.138686	-0.511562	-0.722457
H86	H	1.145351	-0.559849	-0.668264
H87	H	1.192855	-0.503728	-0.746214
H88	H	1.108912	-0.413231	-0.717647
O89	O	0.961449	-0.841658	-1.079701
C90	C	0.967653	-0.830040	-1.153205
H91	H	1.019867	-0.793494	-1.166910
H92	H	0.966017	-0.926130	-1.176966
H93	H	0.922092	-0.761105	-1.175176
O94	O	0.438132	-0.572953	-0.283758
C95	C	0.485565	-0.644732	-0.237051
H96	H	0.499948	-0.742968	-0.258164
H97	H	0.535398	-0.596507	-0.231717
H98	H	0.459706	-0.652763	-0.183506
O99	O	0.621913	-0.511765	-0.253550
C100	C	0.643681	-0.535696	-0.183226
H101	H	0.699353	-0.588096	-0.181711
H102	H	0.643303	-0.442545	-0.155718
H103	H	0.605992	-0.595796	-0.155384
O104	O	1.130311	-0.526722	-0.954905
C105	C	1.088102	-0.439260	-0.914463
H106	H	1.037067	-0.479055	-0.899678
H107	H	1.117972	-0.420882	-0.864771
H108	H	1.075135	-0.347122	-0.946236
H109	H	0.634977	-0.829866	-0.410686
O110	O	0.767076	-0.522731	-0.258954
C111	C	0.814510	-0.594520	-0.212251
H112	H	0.828882	-0.692759	-0.233362
H113	H	0.864349	-0.546309	-0.206924
H114	H	0.788657	-0.602540	-0.158702
O115	O	0.966713	-0.831858	-0.935429
C116	C	0.928277	-0.903388	-0.979022
H117	H	0.955425	-0.913546	-1.032071
H118	H	0.925926	-1.000798	-0.953515
H119	H	0.872401	-0.853664	-0.986729
