data_functionalizedCrystal
_audit_creation_method	'MofGen! by Chris Wilmer'
_symmetry_space_group_name_H-M	'P1'
_symmetry_Int_Tables_number	1
_symmetry_cell_setting	triclinic
loop_
_symmetry_equiv_pos_as_xyz
  x,y,z
_cell_length_a	19.188930
_cell_length_b	10.654550
_cell_length_c	9.730223
_cell_angle_alpha	90.004298
_cell_angle_beta	90.017049
_cell_angle_gamma	83.814842
loop_
_atom_site_label
_atom_site_type_symbol
_atom_site_fract_x
_atom_site_fract_y
_atom_site_fract_z
O1	O	-0.927169	-0.156781	-0.114729
O2	O	-0.723995	-0.177887	-0.114634
O3	O	-0.830253	0.015504	-0.114679
O4	O	-0.820911	-0.350172	-0.114684
O5	O	-0.830247	0.015513	0.113901
O6	O	-0.723989	-0.177878	0.113946
O7	O	-0.927162	-0.156772	0.113851
Zn8	Zn	-0.825575	-0.167324	0.150190
Zn9	Zn	-0.825583	-0.167336	-0.150973
O10	O	-0.820904	-0.350163	0.113896
C11	C	-0.697977	-0.177199	-0.000332
C12	C	-0.620459	-0.175147	-0.000296
C13	C	-0.829564	0.062292	-0.000390
C14	C	-0.827512	0.201692	-0.000394
C15	C	-0.953181	-0.157460	-0.000454
C16	C	-1.030699	-0.159512	-0.000499
C17	C	-0.576277	-0.288622	-0.000319
C18	C	-0.503441	-0.286695	-0.000334
C19	C	-0.474789	-0.171286	-0.000354
C20	C	-0.518981	-0.057795	-0.000323
C21	C	-0.591816	-0.059726	-0.000294
N22	N	-0.366234	-0.083073	-0.078203
N23	N	-0.297044	-0.081246	-0.078234
C24	C	-0.255343	-0.165461	-0.000438
N25	N	-0.285444	-0.251591	0.077373
N26	N	-0.354641	-0.253421	0.077397
C27	C	-0.395813	-0.169179	-0.000384
C28	C	-0.132183	-0.276855	-0.000475
C29	C	-0.059345	-0.274922	-0.000482
C30	C	-0.074887	-0.046020	-0.000484
C31	C	-0.147723	-0.047955	-0.000464
C32	C	-0.176366	-0.163376	-0.000466
C33	C	-0.821594	-0.396951	-0.000396
C34	C	-0.823646	-0.536351	-0.000401
N35	N	-0.825574	-0.167315	0.355727
C36	C	-0.890075	0.282501	-0.000419
C37	C	-0.888142	0.413481	-0.000427
C38	C	-0.761078	0.382829	-0.000380
C39	C	-0.763011	0.251852	-0.000382
C40	C	-0.954575	0.232341	-0.000431
C41	C	-1.017143	0.313152	-0.000454
C42	C	-1.015211	0.444132	-0.000463
C43	C	-0.950710	0.494301	-0.000448
N44	N	-0.825589	-0.167335	-0.356510
C45	C	-0.782875	-0.091355	0.571602
C46	C	-0.782869	-0.091341	0.427719
C47	C	-0.868293	-0.243297	0.427625
C48	C	-0.868302	-0.243303	0.571505
C49	C	-0.740163	-0.015387	0.643587
C50	C	-0.697445	0.060598	0.571700
C51	C	-0.697439	0.060611	0.427817
C52	C	-0.740151	-0.015359	0.355822
H53	H	-0.467461	-0.379103	-0.000350
C54	C	-0.651098	0.142946	0.650104
C55	C	-0.660194	0.126589	0.791497
C56	C	-0.617503	0.202418	0.863760
H57	H	-0.663633	0.228982	0.626743
H58	H	-0.603429	0.119425	0.626586
H59	H	-0.707852	0.150118	0.815005
H60	H	-0.647654	0.040570	0.814898
H61	H	-0.569834	0.178897	0.840242
H62	H	-0.630042	0.288449	0.840388
H63	H	-0.623664	0.191322	0.959702
C64	C	-0.195580	0.075385	-0.000525
C65	C	-0.154902	0.176872	-0.000580
C66	C	-0.198964	0.290517	-0.000650
H67	H	-0.224311	0.079573	0.079174
H68	H	-0.224325	0.079454	-0.080258
H69	H	-0.126170	0.172805	0.079144
H70	H	-0.126172	0.172726	-0.080274
H71	H	-0.227709	0.294586	-0.080383
H72	H	-0.227693	0.294692	0.079051
H73	H	-0.171371	0.359389	-0.000700
C74	C	-0.914536	-0.325955	0.349391
C75	C	-0.872604	-0.411203	0.266843
C76	C	-0.915176	-0.487384	0.194771
H77	H	-0.946425	-0.274496	0.293127
H78	H	-0.939962	-0.371283	0.412769
H79	H	-0.847189	-0.365878	0.203472
H80	H	-0.840716	-0.462689	0.323072
H81	H	-0.940602	-0.532712	0.258150
H82	H	-0.947063	-0.435915	0.138515
H83	H	-0.886731	-0.545241	0.138764
C84	C	-1.083215	0.531663	-0.000425
C85	C	-1.140111	0.459694	-0.000403
C86	C	-1.202769	0.540281	-0.000343
H87	H	-1.085208	0.583416	-0.080117
H88	H	-1.085135	0.583383	0.079315
H89	H	-1.138192	0.407996	-0.080135
H90	H	-1.138141	0.407944	0.079283
H91	H	-1.204689	0.592002	0.079398
H92	H	-1.204755	0.592030	-0.080036
H93	H	-1.241380	0.491463	-0.000315
H94	H	-0.903083	-0.305173	0.630037
H95	H	-0.740146	-0.015335	0.238662
C96	C	-0.650988	0.143148	0.350013
C97	C	-0.613575	0.209649	0.443856
C98	C	-0.570767	0.285678	0.372237
H99	H	-0.679239	0.201182	0.293868
H100	H	-0.619067	0.091568	0.293931
H101	H	-0.645492	0.261224	0.499914
H102	H	-0.585311	0.151647	0.500004
H103	H	-0.538845	0.234099	0.316156
H104	H	-0.599023	0.343704	0.316095
H105	H	-0.545372	0.330799	0.435898
H106	H	-0.051560	0.047949	-0.000585
H107	H	-0.599593	-0.382607	-0.000324
H108	H	-1.069658	0.272296	-0.000501
H109	H	-0.956156	0.125693	-0.000420
C110	C	-0.691003	0.437122	-0.000139
C111	C	-0.653132	0.395996	0.117457
C112	C	-0.588571	0.445968	0.117721
H113	H	-0.698712	0.526696	-0.000069
H114	H	-0.665181	0.409320	-0.079799
H115	H	-0.678948	0.423805	0.197096
H116	H	-0.645404	0.306428	0.117412
H117	H	-0.562750	0.418166	0.038061
H118	H	-0.596287	0.535541	0.117787
H119	H	-0.562865	0.418062	0.197502
H120	H	-0.949141	0.600955	-0.000470
H121	H	-0.495648	0.036172	-0.000357
H122	H	-0.627789	0.032682	-0.000276
H123	H	-0.155505	-0.370837	-0.000457
H124	H	-0.023372	-0.367332	-0.000493
H125	H	-0.712067	0.186054	-0.000359
H126	H	-0.740161	-0.015392	0.760744
