data_functionalizedCrystal
_audit_creation_method	'MofGen! by Chris Wilmer'
_symmetry_space_group_name_H-M	'P1'
_symmetry_Int_Tables_number	1
_symmetry_cell_setting	triclinic
loop_
_symmetry_equiv_pos_as_xyz
  x,y,z
_cell_length_a	23.532407
_cell_length_b	23.532407
_cell_length_c	22.010155
_cell_angle_alpha	89.999577
_cell_angle_beta	89.996931
_cell_angle_gamma	82.848678
loop_
_atom_site_label
_atom_site_type_symbol
_atom_site_fract_x
_atom_site_fract_y
_atom_site_fract_z
O1	O	0.755264	0.069127	-0.050455
O2	O	0.589400	0.079130	-0.050474
O3	O	0.677334	-0.008803	-0.050453
O4	O	0.667330	0.157060	-0.050476
O5	O	0.677318	-0.008790	0.050597
O6	O	0.589384	0.079143	0.050576
O7	O	0.755248	0.069140	0.050595
Cu8	Cu	0.672315	0.074143	0.059812
Cu9	Cu	0.672333	0.074127	-0.059691
O10	O	0.667314	0.157073	0.050574
C11	C	0.568176	0.078882	0.000049
C12	C	0.504959	0.078116	0.000042
C13	C	0.105856	0.125350	0.000063
C14	C	0.046456	0.124638	0.000067
O15	O	0.009711	0.168424	0.000083
N16	N	0.023830	0.072362	0.000073
C17	C	0.060607	0.020794	0.000082
O18	O	0.035908	-0.023737	0.000088
C19	C	0.120006	0.021506	0.000082
C20	C	0.142629	0.073785	0.000070
C21	C	0.128479	0.177625	0.000051
C22	C	0.187876	0.178336	0.000046
C23	C	0.224649	0.126772	0.000053
C24	C	0.202025	0.074497	0.000065
C25	C	0.156783	-0.030062	0.000096
C26	C	0.216185	-0.029345	0.000097
C27	C	0.238808	0.022934	0.000084
C28	C	0.298194	0.023643	0.000067
N29	N	0.320820	0.075920	0.000061
C30	C	0.284048	0.127484	0.000054
C31	C	-0.064135	0.019302	0.000082
C32	C	-0.123533	0.018589	0.000077
C33	C	-0.137680	0.122434	0.000063
C34	C	-0.078281	0.123146	0.000064
C35	C	-0.041509	0.071578	0.000076
C36	C	0.408784	0.128974	0.000043
C37	C	0.468186	0.129680	0.000035
C38	C	0.482329	0.025836	0.000052
C39	C	0.422932	0.025129	0.000057
C40	C	0.386160	0.076702	0.000054
O41	O	0.334974	-0.020119	0.000054
O42	O	0.308755	0.172007	0.000055
C43	C	0.677071	-0.030013	0.000074
C44	C	0.676305	-0.093230	0.000078
C45	C	0.723539	-0.492333	0.000050
C46	C	0.722827	-0.551733	0.000046
O47	O	0.766613	-0.588478	0.000028
N48	N	0.670551	-0.574359	0.000040
C49	C	0.618983	-0.537582	0.000033
O50	O	0.574452	-0.562281	0.000027
C51	C	0.619695	-0.478182	0.000033
C52	C	0.671974	-0.455560	0.000045
C53	C	0.775814	-0.469710	0.000061
C54	C	0.776525	-0.410313	0.000067
C55	C	0.724961	-0.373540	0.000062
C56	C	0.672685	-0.396164	0.000051
C57	C	0.568127	-0.441406	0.000022
C58	C	0.568844	-0.382004	0.000022
C59	C	0.621123	-0.359381	0.000034
C60	C	0.621832	-0.299995	0.000052
N61	N	0.674109	-0.277368	0.000057
C62	C	0.725673	-0.314141	0.000062
C63	C	0.617491	-0.662324	0.000031
C64	C	0.616778	-0.721722	0.000035
C65	C	0.720623	-0.735869	0.000047
C66	C	0.721335	-0.676470	0.000047
C67	C	0.669767	-0.639698	0.000037
C68	C	0.727163	-0.189405	0.000075
C69	C	0.727869	-0.130003	0.000083
C70	C	0.624025	-0.115860	0.000069
C71	C	0.623318	-0.175257	0.000064
C72	C	0.674891	-0.212029	0.000065
O73	O	0.578070	-0.263215	0.000067
O74	O	0.770196	-0.289433	0.000060
C75	C	0.776472	0.069388	0.000071
C76	C	0.839689	0.070154	0.000073
C77	C	0.667577	0.178283	0.000046
C78	C	0.668343	0.241500	0.000037
N79	N	0.672305	0.074153	0.143865
N80	N	0.672347	0.074112	-0.143744
C81	C	0.711273	0.035196	0.563653
C82	C	0.711275	0.035192	0.627261
O83	O	0.744384	0.002076	0.660160
N84	N	0.672333	0.074115	0.659072
C85	C	0.633382	0.113041	0.627272
O86	O	0.600259	0.146148	0.660170
C87	C	0.633377	0.113042	0.563665
C88	C	0.672326	0.074120	0.531858
C89	C	0.750217	-0.003723	0.531846
C90	C	0.750215	-0.003719	0.468243
C91	C	0.711268	0.035205	0.436447
C92	C	0.672324	0.074125	0.468255
C93	C	0.594424	0.151965	0.531866
C94	C	0.594422	0.151962	0.468256
C95	C	0.633370	0.113040	0.436448
C96	C	0.633374	0.113054	0.372856
N97	N	0.672317	0.074130	0.341045
C98	C	0.711263	0.035206	0.372841
C99	C	0.633395	0.113036	0.760850
C100	C	0.633402	0.113039	0.824455
C101	C	0.711294	0.035188	0.824440
C102	C	0.711290	0.035189	0.760833
C103	C	0.672337	0.074113	0.729039
C104	C	0.711256	0.035220	0.239269
C105	C	0.711252	0.035229	0.175660
C106	C	0.633358	0.113077	0.175681
C107	C	0.633364	0.113070	0.239284
C108	C	0.672315	0.074136	0.271077
O109	O	0.600282	0.146151	0.339916
O110	O	0.744376	0.002100	0.339935
H111	H	0.098544	0.219617	0.000048
H112	H	0.512280	-0.016146	0.000056
N113	N	-0.053883	0.179533	0.000048
H114	H	-0.086197	0.212087	0.000041
H115	H	-0.029550	0.182100	0.037509
H116	H	0.770443	-0.111587	0.000094
N117	N	0.591381	0.155022	0.726559
H118	H	0.566715	0.179677	0.756367
H119	H	0.613034	0.180093	0.700165
N120	N	0.591350	0.155057	0.141384
H121	H	0.612964	0.180165	0.114989
H122	H	0.566272	0.133374	0.115032
N123	N	0.782785	-0.229062	0.000086
H124	H	0.784819	-0.254022	-0.037374
H125	H	0.815974	-0.205671	0.000119
H126	H	0.781929	-0.035414	0.442349
H127	H	0.562700	0.183658	0.442372
N128	N	0.832913	-0.385917	0.000077
H129	H	0.865466	-0.418233	0.000078
H130	H	0.835478	-0.361581	-0.037383
N131	N	0.753304	-0.006792	0.858744
H132	H	0.793684	-0.000433	0.847673
H133	H	0.747341	-0.000858	0.903852
H134	H	0.781933	-0.035423	0.557728
N135	N	0.568417	-0.076184	0.000075
H136	H	0.566407	-0.051220	-0.037381
H137	H	0.535215	-0.099559	0.000094
N138	N	0.511738	-0.465794	-0.000002
H139	H	0.519101	-0.509004	-0.000004
H140	H	0.489178	-0.452320	0.037452
H141	H	0.817806	-0.499645	0.000063
H142	H	0.246123	-0.071339	0.000107
N143	N	0.753264	-0.006751	0.141354
H144	H	0.777935	-0.031410	0.171152
H145	H	0.731606	-0.031818	0.114963
N146	N	0.591394	0.155022	0.858755
H147	H	0.566304	0.133384	0.885145
H148	H	0.613050	0.180120	0.885110
H149	H	0.404512	-0.017441	0.000058
H150	H	0.743004	0.003495	0.734939
N151	N	0.552406	0.193937	0.566163
H152	H	0.527731	0.218586	0.536360
H153	H	0.527359	0.172249	0.592548
H154	H	0.378851	0.170970	0.000042
H155	H	0.601654	0.144769	0.265183
H156	H	0.206289	0.220908	0.000036
N157	N	0.492586	0.186070	0.000016
H158	H	0.460274	0.218626	0.000013
H159	H	0.516924	0.188636	0.037472
N160	N	0.561870	-0.622660	0.000038
H161	H	0.559849	-0.597697	-0.037419
H162	H	0.528679	-0.646049	0.000061
H163	H	0.762610	-0.765821	0.000048
N164	N	-0.177349	0.178052	0.000056
H165	H	-0.218409	0.169664	0.000060
H166	H	-0.170060	0.200855	0.037514
N167	N	0.560388	-0.746113	0.000037
H168	H	0.537818	-0.732678	-0.037423
H169	H	0.567800	-0.789319	0.000059
N170	N	-0.147934	-0.037796	0.000083
H171	H	-0.134501	-0.060376	-0.037373
H172	H	-0.134495	-0.060319	0.037571
N173	N	-0.024475	-0.036321	0.000092
H174	H	-0.047826	-0.069542	0.000095
H175	H	0.000482	-0.038296	-0.037368
N176	N	0.753270	-0.006768	0.273554
H177	H	0.777940	-0.031418	0.243745
H178	H	0.778323	0.014910	0.299940
H179	H	0.763906	-0.658056	0.000056
H180	H	0.138375	-0.072634	0.000106
N181	N	0.513223	-0.342342	0.000008
H182	H	0.480000	-0.365691	0.000000
H183	H	0.511246	-0.317390	0.037470
H184	H	0.580748	-0.193677	0.000071
