data_functionalizedCrystal
_audit_creation_method	'MofGen! by Chris Wilmer'
_symmetry_space_group_name_H-M	'P1'
_symmetry_Int_Tables_number	1
_symmetry_cell_setting	triclinic
loop_
_symmetry_equiv_pos_as_xyz
  x,y,z
_cell_length_a	27.732048
_cell_length_b	27.732048
_cell_length_c	9.130313
_cell_angle_alpha	89.993840
_cell_angle_beta	90.005287
_cell_angle_gamma	82.642655
loop_
_atom_site_label
_atom_site_type_symbol
_atom_site_fract_x
_atom_site_fract_y
_atom_site_fract_z
O1	O	0.640924	0.057515	-0.121626
O2	O	1.140924	0.557515	0.378374
O3	O	0.500131	0.066260	-0.121673
O4	O	1.000131	0.566260	0.378327
O5	O	0.574900	-0.008509	-0.121620
O6	O	1.074900	0.491491	0.378380
O7	O	0.566155	0.132284	-0.121679
O8	O	1.066155	0.632284	0.378321
O9	O	0.574899	-0.008507	0.121979
O10	O	1.074899	0.491493	0.621979
O11	O	0.500130	0.066262	0.121926
O12	O	1.000130	0.566262	0.621926
O13	O	0.640923	0.057517	0.121973
O14	O	1.140923	0.557517	0.621973
Cu15	Cu	0.570527	0.061890	0.144192
Cu16	Cu	1.070527	0.561890	0.644192
Cu17	Cu	0.570528	0.061887	-0.143892
Cu18	Cu	1.070528	0.561887	0.356108
O19	O	0.566154	0.132286	0.121920
O20	O	1.066154	0.632286	0.621920
C21	C	0.482124	0.066078	0.000121
C22	C	0.982124	0.566078	0.500121
C23	C	0.428469	0.065525	0.000105
C24	C	0.928469	0.565525	0.500105
C25	C	0.089654	0.106229	0.000151
C26	C	0.589654	0.606229	0.500151
C27	C	-0.112006	0.104178	0.000165
C28	C	0.387994	0.604178	0.500165
O29	O	-0.143262	0.141398	0.000213
O30	O	0.356738	0.641398	0.500213
N31	N	-0.131130	0.059843	0.000181
N32	N	0.368870	0.559843	0.500181
C33	C	-0.099835	0.016017	0.000203
C34	C	0.400165	0.516017	0.500203
O35	O	-0.120728	-0.021740	0.000232
O36	O	0.379272	0.478260	0.500232
C37	C	0.101824	0.018068	0.000199
C38	C	0.601824	0.518068	0.500199
C39	C	0.120944	0.062407	0.000169
C40	C	0.620944	0.562407	0.500169
C41	C	0.108775	0.150563	0.000122
C42	C	0.608775	0.650563	0.500122
C43	C	0.159187	0.151075	0.000111
C44	C	0.659187	0.651075	0.500111
C45	C	0.190477	0.107253	0.000128
C46	C	0.690477	0.607253	0.500128
C47	C	0.171356	0.062919	0.000157
C48	C	0.671356	0.562919	0.500157
C49	C	0.133117	-0.025757	0.000232
C50	C	0.633117	0.474243	0.500232
C51	C	0.183535	-0.025240	0.000235
C52	C	0.683535	0.474760	0.500235
C53	C	0.202655	0.019098	0.000204
C54	C	0.702655	0.519098	0.500204
C55	C	0.253059	0.019609	0.000163
C56	C	0.753059	0.519609	0.500163
N57	N	0.272183	0.063944	0.000148
N58	N	0.772183	0.563944	0.500148
C59	C	0.240892	0.107766	0.000130
C60	C	0.740892	0.607766	0.500130
C61	C	-0.205709	0.014943	0.000202
C62	C	0.294291	0.514943	0.500202
C63	C	-0.256124	0.014430	0.000200
C64	C	0.243876	0.514430	0.500200
C65	C	-0.268291	0.102591	0.000165
C66	C	0.231709	0.602591	0.500165
C67	C	-0.217876	0.103104	0.000156
C68	C	0.282124	0.603104	0.500156
C69	C	-0.186585	0.059278	0.000186
C70	C	0.313415	0.559278	0.500186
C71	C	0.346761	0.108839	0.000105
C72	C	0.846761	0.608839	0.500105
C73	C	0.397178	0.109347	0.000087
C74	C	0.897178	0.609347	0.500087
C75	C	0.409341	0.021186	0.000130
C76	C	0.909341	0.521186	0.500130
C77	C	0.358929	0.020678	0.000140
C78	C	0.858929	0.520678	0.500140
C79	C	0.327639	0.064508	0.000132
C80	C	0.827639	0.564508	0.500132
O81	O	0.284343	-0.017592	0.000132
O82	O	0.784343	0.482408	0.500132
O83	O	0.261794	0.145518	0.000133
O84	O	0.761794	0.645518	0.500133
C85	C	0.039242	0.105716	0.000163
C86	C	0.539242	0.605716	0.500163
C87	C	0.020120	0.061382	0.000192
C88	C	0.520120	0.561382	0.500192
C89	C	0.051411	0.017560	0.000209
C90	C	0.551411	0.517560	0.500209
C91	C	-0.030294	0.060869	0.000190
C92	C	0.469706	0.560869	0.500190
C93	C	-0.061585	0.104691	0.000172
C94	C	0.438415	0.604691	0.500172
C95	C	-0.042461	0.149026	0.000156
C96	C	0.457539	0.649026	0.500156
C97	C	0.007951	0.149539	0.000145
C98	C	0.507951	0.649539	0.500145
C99	C	0.032287	-0.026775	0.000225
C100	C	0.532287	0.473225	0.500225
C101	C	-0.018125	-0.027284	0.000235
C102	C	0.481875	0.472716	0.500235
C103	C	-0.049416	0.016538	0.000217
C104	C	0.450584	0.516538	0.500217
C105	C	0.574716	-0.026515	0.000183
C106	C	1.074716	0.473485	0.500183
C107	C	0.574164	-0.080170	0.000195
C108	C	1.074164	0.419830	0.500195
C109	C	0.614867	-0.418985	0.000133
C110	C	1.114867	0.081015	0.500133
C111	C	0.612816	-0.620645	0.000112
C112	C	1.112816	-0.120645	0.500112
O113	O	0.650037	-0.651900	0.000060
O114	O	1.150037	-0.151900	0.500060
N115	N	0.568481	-0.639768	0.000099
N116	N	1.068481	-0.139768	0.500099
C117	C	0.524656	-0.608474	0.000081
C118	C	1.024656	-0.108474	0.500081
O119	O	0.486899	-0.629367	0.000055
O120	O	0.986899	-0.129367	0.500055
C121	C	0.526707	-0.406815	0.000092
C122	C	1.026707	0.093185	0.500092
C123	C	0.571045	-0.387694	0.000120
C124	C	1.071045	0.112306	0.500120
C125	C	0.659202	-0.399864	0.000160
C126	C	1.159202	0.100136	0.500160
C127	C	0.659714	-0.349452	0.000173
C128	C	1.159714	0.150548	0.500173
C129	C	0.615892	-0.318161	0.000160
C130	C	1.115892	0.181839	0.500160
C131	C	0.571557	-0.337282	0.000133
C132	C	1.071557	0.162718	0.500133
C133	C	0.482882	-0.375521	0.000064
C134	C	0.982882	0.124479	0.500064
C135	C	0.483399	-0.325104	0.000063
C136	C	0.983399	0.174896	0.500063
C137	C	0.527737	-0.305983	0.000091
C138	C	1.027737	0.194017	0.500091
C139	C	0.528248	-0.255580	0.000133
C140	C	1.028248	0.244420	0.500133
N141	N	0.572583	-0.236456	0.000147
N142	N	1.072583	0.263544	0.500147
C143	C	0.616405	-0.267747	0.000160
C144	C	1.116405	0.232253	0.500160
C145	C	0.523582	-0.714348	0.000079
C146	C	1.023582	-0.214348	0.500079
C147	C	0.523069	-0.764762	0.000079
C148	C	1.023069	-0.264762	0.500079
C149	C	0.611230	-0.776930	0.000107
C150	C	1.111230	-0.276930	0.500107
C151	C	0.611742	-0.726514	0.000117
C152	C	1.111742	-0.226514	0.500117
C153	C	0.567917	-0.695224	0.000092
C154	C	1.067917	-0.195224	0.500092
C155	C	0.617477	-0.161878	0.000189
C156	C	1.117477	0.338122	0.500189
C157	C	0.617986	-0.111461	0.000208
C158	C	1.117986	0.388539	0.500208
C159	C	0.529825	-0.099298	0.000172
C160	C	1.029825	0.400702	0.500172
C161	C	0.529316	-0.149710	0.000161
C162	C	1.029316	0.350290	0.500161
C163	C	0.573147	-0.180999	0.000164
C164	C	1.073147	0.319001	0.500164
O165	O	0.491047	-0.224296	0.000169
O166	O	0.991047	0.275704	0.500169
O167	O	0.654156	-0.246844	0.000154
O168	O	1.154156	0.253156	0.500154
C169	C	0.614355	-0.469397	0.000120
C170	C	1.114355	0.030603	0.500120
C171	C	0.570021	-0.488518	0.000094
C172	C	1.070021	0.011482	0.500094
C173	C	0.526198	-0.457228	0.000080
C174	C	1.026198	0.042772	0.500080
C175	C	0.569508	-0.538933	0.000094
C176	C	1.069508	-0.038933	0.500094
C177	C	0.613330	-0.570223	0.000107
C178	C	1.113330	-0.070223	0.500107
C179	C	0.657665	-0.551100	0.000120
C180	C	1.157665	-0.051100	0.500120
C181	C	0.658177	-0.500688	0.000133
C182	C	1.158177	-0.000688	0.500133
C183	C	0.481863	-0.476351	0.000067
C184	C	0.981863	0.023649	0.500067
C185	C	0.481355	-0.526764	0.000056
C186	C	0.981355	-0.026764	0.500056
C187	C	0.525177	-0.558054	0.000069
C188	C	1.025177	-0.058054	0.500069
C189	C	0.658931	0.057699	0.000176
C190	C	1.158931	0.557699	0.500176
C191	C	0.712586	0.058252	0.000182
C192	C	1.212586	0.558252	0.500182
C193	C	0.566338	0.150292	0.000113
C194	C	1.066338	0.650292	0.500113
C195	C	0.566891	0.203947	0.000092
C196	C	1.066891	0.703947	0.500092
N197	N	0.570529	0.061891	0.346815
N198	N	1.070529	0.561891	0.846815
N199	N	0.570529	0.061882	-0.346515
N200	N	1.070529	0.561882	0.153485
C201	C	0.603646	0.028794	0.423490
C202	C	1.103646	0.528794	0.923490
C203	C	0.603644	0.028788	0.576827
C204	C	1.103644	0.528788	1.076827
C205	C	0.537409	0.094981	0.576799
C206	C	1.037409	0.594981	1.076799
C207	C	0.537408	0.094984	0.423465
C208	C	1.037408	0.594984	0.923465
C209	C	0.636766	-0.004298	0.346839
C210	C	1.136766	0.495702	0.846839
C211	C	0.669886	-0.037398	0.423514
C212	C	1.169886	0.462602	0.923514
C213	C	0.669885	-0.037403	0.576851
C214	C	1.169885	0.462597	1.076851
C215	C	0.636764	-0.004310	0.653513
C216	C	1.136764	0.495690	1.153513
H217	H	0.654093	-0.095896	0.000235
H218	H	1.154093	0.404104	0.500235
O219	O	0.701987	-0.069603	0.651401
O220	O	1.201987	0.430397	1.151401
C221	C	0.676328	-0.099245	0.740115
C222	C	1.176328	0.400755	1.240115
H223	H	0.638215	-0.099800	0.693895
H224	H	1.138215	0.400200	1.193895
H225	H	0.696341	-0.137802	0.741861
H226	H	1.196341	0.362198	1.241861
H227	H	0.673680	-0.084103	0.856323
H228	H	1.173680	0.415897	1.356323
H229	H	0.636763	-0.004321	0.778370
H230	H	1.136763	0.495679	1.278370
H231	H	0.510444	0.121925	0.639227
H232	H	1.010444	0.621925	1.139227
O233	O	-0.199245	0.146142	0.000327
O234	O	0.300755	0.646142	0.500327
C235	C	-0.170456	0.149088	0.126508
C236	C	0.329544	0.649088	0.626508
H237	H	-0.157616	0.110895	0.168593
H238	H	0.342384	0.610895	0.668593
H239	H	-0.137583	0.168107	0.098124
H240	H	0.362417	0.668107	0.598124
H241	H	-0.192888	0.170644	0.214837
H242	H	0.307112	0.670644	0.714837
H243	H	0.487892	-0.688875	0.000058
H244	H	0.987892	-0.188875	0.500058
H245	H	0.117558	-0.061861	0.000258
H246	H	0.617558	0.438139	0.500258
H247	H	-0.067947	0.184708	0.000136
H248	H	0.432053	0.684708	0.500136
O249	O	0.505223	0.127182	0.349200
O250	O	1.005223	0.627182	0.849200
C251	C	0.475985	0.156385	0.449731
C252	C	0.975985	0.656385	0.949731
H253	H	0.495797	0.156795	0.559040
H254	H	0.995797	0.656795	1.059040
H255	H	0.468320	0.195041	0.405414
H256	H	0.968320	0.695041	0.905414
H257	H	0.440196	0.140935	0.466028
H258	H	0.940196	0.640935	0.966028
H259	H	0.653168	-0.187348	0.000186
H260	H	1.153168	0.312652	0.500186
H261	H	0.412743	0.145454	0.000061
H262	H	0.912743	0.645454	0.500061
O263	O	0.213949	-0.067801	0.000516
O264	O	0.713949	0.432199	0.500516
C265	C	0.243490	-0.070137	0.126654
C266	C	0.743490	0.429863	0.626654
H267	H	0.224851	-0.045275	0.214825
H268	H	0.724851	0.454725	0.714825
H269	H	0.249442	-0.109117	0.169022
H270	H	0.749442	0.390883	0.669022
H271	H	0.280063	-0.057911	0.098115
H272	H	0.780063	0.442089	0.598115
O273	O	0.316440	0.151459	0.000022
O274	O	0.816440	0.651459	0.500022
C275	C	0.344137	0.190694	0.000027
C276	C	0.844137	0.690694	0.500027
H277	H	0.381855	0.178129	-0.046084
H278	H	0.881855	0.678129	0.453916
H279	H	0.325318	0.221375	-0.070718
H280	H	0.825318	0.721375	0.429282
H281	H	0.347633	0.204307	0.116884
H282	H	0.847633	0.704307	0.616884
H283	H	0.446777	-0.391080	0.000032
H284	H	0.946777	0.108920	0.500032
O285	O	0.439810	-0.021336	0.000217
O286	O	0.939810	0.478664	0.500217
C287	C	0.488406	-0.011371	0.000173
C288	C	0.988406	0.488629	0.500173
H289	H	0.490057	0.026585	0.046259
H290	H	0.990057	0.526585	0.546259
H291	H	0.511457	-0.039321	0.070919
H292	H	1.011457	0.460679	0.570919
H293	H	0.502998	-0.013319	-0.116692
H294	H	1.002998	0.486681	0.383308
H295	H	0.636771	-0.004296	0.221984
H296	H	1.136771	0.495704	0.721984
H297	H	0.486964	-0.780325	0.000081
H298	H	0.986964	-0.280325	0.500081
O299	O	0.653755	-0.807399	0.000042
O300	O	1.153755	-0.307399	0.500042
C301	C	0.643789	-0.855994	0.000070
C302	C	1.143789	-0.355994	0.500070
H303	H	0.605832	-0.857641	-0.046040
H304	H	1.105832	-0.357641	0.453960
H305	H	0.671738	-0.879040	-0.070664
H306	H	1.171738	-0.379040	0.429336
H307	H	0.645738	-0.870597	0.116934
H308	H	1.145738	-0.370597	0.616934
H309	H	0.343360	-0.015426	0.000143
H310	H	0.843360	0.484574	0.500143
O311	O	0.078363	0.193123	0.000354
O312	O	0.578363	0.693123	0.500354
C313	C	0.048828	0.195472	0.126487
C314	C	0.548828	0.695472	0.626487
H315	H	0.067468	0.170614	0.214694
H316	H	0.567468	0.670614	0.714694
H317	H	0.042881	0.234455	0.168801
H318	H	0.542881	0.734455	0.668801
H319	H	0.012251	0.183247	0.097964
H320	H	0.512251	0.683247	0.597964
O321	O	0.438268	-0.545310	-0.000230
O322	O	0.938268	-0.045310	0.499770
C323	C	0.411580	-0.529266	-0.126387
C324	C	0.911580	-0.029266	0.373613
H325	H	0.437518	-0.518964	-0.214543
H326	H	0.937518	-0.018964	0.285457
H327	H	0.391245	-0.559654	-0.168765
H328	H	0.891245	-0.059654	0.331235
H329	H	0.384395	-0.496207	-0.097870
H330	H	0.884395	0.003793	0.402130
H331	H	0.174750	0.187180	0.000085
H332	H	0.674750	0.687180	0.500085
H333	H	-0.293777	0.138273	0.000151
H334	H	0.206223	0.638273	0.500151
O335	O	-0.036615	-0.070400	0.000327
O336	O	0.463385	0.429600	0.500327
C337	C	0.001820	-0.108965	0.000307
C338	C	0.501820	0.391035	0.500307
H339	H	0.035974	-0.095671	0.046401
H340	H	0.535974	0.404329	0.546401
H341	H	-0.008482	-0.139941	0.071060
H342	H	0.491518	0.360059	0.571060
H343	H	0.009046	-0.122469	-0.116552
H344	H	0.509046	0.377531	0.383448
H345	H	0.696849	-0.064344	0.361089
H346	H	1.196849	0.435656	0.861089
H347	H	0.695819	-0.333889	0.000190
H348	H	1.195819	0.166111	0.500190
O349	O	-0.274637	-0.028671	0.000017
O350	O	0.225363	0.471329	0.500017
C351	C	-0.258626	-0.055356	-0.126150
C352	C	0.241374	0.444644	0.373850
H353	H	-0.223756	-0.042446	-0.168219
H354	H	0.276244	0.457554	0.331781
H355	H	-0.251328	-0.095663	-0.097755
H356	H	0.248672	0.404337	0.402245
H357	H	-0.287847	-0.049540	-0.214495
H358	H	0.212153	0.450460	0.285505
O359	O	-0.175269	-0.027601	0.000021
O360	O	0.324731	0.472399	0.500021
C361	C	-0.145756	-0.029951	-0.126161
C362	C	0.354244	0.470049	0.373839
H363	H	-0.143481	0.008397	-0.168229
H364	H	0.356519	0.508397	0.331771
H365	H	-0.107731	-0.048254	-0.097787
H366	H	0.392269	0.451746	0.402213
H367	H	-0.162192	-0.051895	-0.214500
H368	H	0.337808	0.448105	0.285500
H369	H	0.446177	-0.450879	0.000053
H370	H	0.946177	0.049121	0.500053
H371	H	0.057760	-0.062462	0.000243
H372	H	0.557760	0.437538	0.500243
O373	O	0.701819	-0.430187	0.000243
O374	O	1.201819	0.069813	0.500243
C375	C	0.741053	-0.402488	0.000227
C376	C	1.241053	0.097512	0.500227
H377	H	0.728486	-0.364769	0.046331
H378	H	1.228486	0.135231	0.546331
H379	H	0.771735	-0.421305	0.070973
H380	H	1.271735	0.078695	0.570973
H381	H	0.754664	-0.398993	-0.116632
H382	H	1.254664	0.101007	0.383368
O383	O	0.654854	-0.708023	0.000065
O384	O	1.154854	-0.208023	0.500065
C385	C	0.693419	-0.746458	0.000118
C386	C	1.193419	-0.246458	0.500118
H387	H	0.680127	-0.780608	-0.045997
H388	H	1.180127	-0.280608	0.454003
H389	H	0.724398	-0.736150	-0.070600
H390	H	1.224398	-0.236150	0.429400
H391	H	0.706918	-0.753693	0.116989
H392	H	1.206918	-0.253693	0.616989
O393	O	0.440781	-0.294778	0.000104
O394	O	0.940781	0.205222	0.500104
C395	C	0.401542	-0.322470	0.000038
C396	C	0.901542	0.177530	0.500038
H397	H	0.414100	-0.360193	0.046158
H398	H	0.914100	0.139807	0.546158
H399	H	0.370858	-0.303654	0.070745
H400	H	0.870858	0.196346	0.570745
H401	H	0.387938	-0.325956	-0.116838
H402	H	0.887938	0.174044	0.383162
H403	H	0.493213	-0.165279	0.000179
H404	H	0.993213	0.334721	0.500179
H405	H	0.694282	-0.485125	0.000156
H406	H	1.194282	0.014875	0.500156
O407	O	0.026441	0.192652	0.000190
O408	O	0.526441	0.692652	0.500190
C409	C	-0.011996	0.231215	0.000140
C410	C	0.488004	0.731215	0.500140
H411	H	-0.046144	0.217920	0.046265
H412	H	0.453856	0.717920	0.546265
H413	H	-0.001689	0.262195	0.070851
H414	H	0.498311	0.762195	0.570851
H415	H	-0.019235	0.244713	-0.116731
H416	H	0.480765	0.744713	0.383269
H417	H	0.693347	-0.576585	0.000137
H418	H	1.193347	-0.076585	0.500137
O419	O	0.487227	-0.068945	-0.000044
O420	O	0.987227	0.431055	0.499956
C421	C	0.460296	-0.077546	-0.126246
C422	C	0.960296	0.422454	0.373754
H423	H	0.472454	-0.115881	-0.168297
H424	H	0.972454	0.384119	0.331703
H425	H	0.419952	-0.073698	-0.097905
H426	H	0.919952	0.426302	0.402095
H427	H	0.466705	-0.050015	-0.214585
H428	H	0.966705	0.449985	0.285415
