data_functionalizedCrystal
_audit_creation_method	'MofGen! by Chris Wilmer'
_symmetry_space_group_name_H-M	'P1'
_symmetry_Int_Tables_number	1
_symmetry_cell_setting	triclinic
loop_
_symmetry_equiv_pos_as_xyz
  x,y,z
_cell_length_a	10.723024
_cell_length_b	17.019294
_cell_length_c	9.798715
_cell_angle_alpha	86.117884
_cell_angle_beta	89.996609
_cell_angle_gamma	83.929829
loop_
_atom_site_label
_atom_site_type_symbol
_atom_site_fract_x
_atom_site_fract_y
_atom_site_fract_z
O1	O	1.655492	0.110636	-0.126482
O2	O	2.155492	0.610636	0.373518
O3	O	1.292177	0.121226	-0.127731
O4	O	1.792177	0.621226	0.372269
O5	O	1.483970	0.001154	-0.113611
O6	O	1.983970	0.501154	0.386389
O7	O	1.463699	0.230709	-0.140602
O8	O	1.963699	0.730709	0.359398
O9	O	1.483956	0.001153	0.113371
O10	O	1.983956	0.501153	0.613371
O11	O	1.292163	0.121226	0.099251
O12	O	1.792163	0.621226	0.599251
O13	O	1.655478	0.110636	0.100500
O14	O	2.155478	0.610636	0.600500
Zn15	Zn	1.473818	0.115931	0.135914
Zn16	Zn	1.973818	0.615931	0.635914
Zn17	Zn	1.473837	0.115931	-0.163145
Zn18	Zn	1.973837	0.615931	0.336855
O19	O	1.463685	0.230709	0.086380
O20	O	1.963685	0.730709	0.586380
C21	C	1.245683	0.120456	-0.014150
C22	C	1.745683	0.620456	0.485850
C23	C	1.107164	0.118150	-0.013880
C24	C	1.607164	0.618150	0.486120
C25	C	0.916504	0.046526	-0.005462
C26	C	1.416504	0.546526	0.494538
C27	C	1.059671	0.048908	-0.005740
C28	C	1.559671	0.548908	0.494260
C29	C	1.483194	-0.028240	0.003333
C30	C	1.983194	0.471760	0.503333
C31	C	1.480888	-0.115823	0.013622
C32	C	1.980888	0.384177	0.513622
C33	C	1.479816	-0.156965	-0.105271
C34	C	1.979816	0.343035	0.394729
C35	C	1.477641	-0.239257	-0.095599
C36	C	1.977641	0.260743	0.404401
C37	C	1.476548	-0.280407	0.032967
C38	C	1.976548	0.219593	0.532967
C39	C	1.477617	-0.239259	0.151869
C40	C	1.977617	0.260741	0.651869
C41	C	1.479783	-0.156967	0.142196
C42	C	1.979783	0.343033	0.642196
C43	C	1.470001	-0.528875	0.068364
C44	C	1.970001	-0.028875	0.568364
C45	C	1.467839	-0.611173	0.078029
C46	C	1.967839	-0.111173	0.578029
C47	C	1.467861	-0.611165	-0.169441
C48	C	1.967861	-0.111165	0.330559
C49	C	1.470034	-0.528872	-0.179103
C50	C	1.970034	-0.028872	0.320897
C51	C	1.471096	-0.487731	-0.060201
C52	C	1.971096	0.012269	0.439799
C53	C	1.474330	-0.364524	0.042857
C54	C	1.974330	0.135476	0.542857
C55	C	1.473306	-0.403615	-0.070092
C56	C	1.973306	0.096385	0.429908
C57	C	1.701973	0.111407	-0.013084
C58	C	2.201973	0.611407	0.486916
C59	C	1.840492	0.113713	-0.013362
C60	C	2.340492	0.613713	0.486638
C61	C	1.464461	0.260102	-0.030567
C62	C	1.964461	0.760102	0.469433
C63	C	1.466767	0.347685	-0.040865
C64	C	1.966767	0.847685	0.459135
N65	N	1.473815	0.115930	0.340014
N66	N	1.973815	0.615930	0.840014
N67	N	1.473851	0.115926	-0.367244
N68	N	1.973851	0.615926	0.132756
C69	C	1.554346	0.065293	0.413745
C70	C	2.054346	0.565293	0.913745
C71	C	1.554367	0.065290	0.570909
C72	C	2.054367	0.565290	1.070909
H73	H	0.881406	0.172996	-0.020324
H74	H	1.381406	0.672996	0.479676
H75	H	1.404878	0.159278	0.393241
H76	H	1.904878	0.659278	0.893241
O77	O	1.645654	0.007865	0.343249
O78	O	2.145654	0.507865	0.843249
H79	H	1.704642	-0.029233	0.421166
H80	H	2.204642	0.470767	0.921166
H81	H	1.124985	-0.008609	0.001015
H82	H	1.624985	0.491391	0.501015
H83	H	1.041857	0.175670	-0.020650
H84	H	1.541857	0.675670	0.479350
O85	O	1.480984	-0.112581	-0.243940
O86	O	1.980984	0.387419	0.256060
H87	H	1.479857	-0.155017	-0.324988
H88	H	1.979857	0.344983	0.175012
O89	O	1.476422	-0.283630	-0.223833
O90	O	1.976422	0.216370	0.276167
H91	H	1.477538	-0.241190	-0.314857
H92	H	1.977538	0.258810	0.185143
H93	H	1.470926	-0.495374	-0.283796
H94	H	1.970926	0.004626	0.216204
H95	H	1.480639	-0.123469	0.239012
H96	H	1.980639	0.376531	0.739012
H97	H	0.875590	-0.012758	0.001529
H98	H	1.375590	0.487242	0.501529
H99	H	1.466994	-0.644671	-0.266244
H100	H	1.966994	-0.144671	0.233756
H101	H	1.466943	-0.644675	0.182728
H102	H	1.966943	-0.144675	0.682728
H103	H	1.470891	-0.495390	0.165183
H104	H	1.970891	0.004610	0.665183
O105	O	1.476463	-0.283638	0.290543
O106	O	1.976463	0.216362	0.790543
H107	H	1.474799	-0.347775	0.277299
H108	H	1.974799	0.152225	0.777299
H109	H	1.474188	-0.370107	-0.174770
H110	H	1.974188	0.129893	0.325230
H111	H	1.623318	0.021940	0.634291
H112	H	2.123318	0.521940	1.134291
O113	O	1.382501	0.173345	0.548808
O114	O	1.882501	0.673345	1.048808
H115	H	1.435180	0.211846	0.479153
H116	H	1.935180	0.711846	0.979153
H117	H	1.473444	-0.398038	0.147536
H118	H	1.973444	0.101962	0.647536
