data_functionalizedCrystal
_audit_creation_method	'MofGen! by Chris Wilmer'
_symmetry_space_group_name_H-M	'P1'
_symmetry_Int_Tables_number	1
_symmetry_cell_setting	triclinic
loop_
_symmetry_equiv_pos_as_xyz
  x,y,z
_cell_length_a	14.044220
_cell_length_b	14.044220
_cell_length_c	12.503552
_cell_angle_alpha	86.157908
_cell_angle_beta	86.160109
_cell_angle_gamma	86.811122
loop_
_atom_site_label
_atom_site_type_symbol
_atom_site_fract_x
_atom_site_fract_y
_atom_site_fract_z
O1	O	-1.282206	0.225122	0.089201
O2	O	-1.005536	0.216814	0.089228
O3	O	-1.139718	0.082632	0.089210
O4	O	-1.148024	0.359303	0.089219
O5	O	-1.129615	0.092732	-0.089431
O6	O	-0.995433	0.226914	-0.089413
O7	O	-1.272103	0.235221	-0.089440
Cu8	Cu	-1.132846	0.231990	-0.105738
Cu9	Cu	-1.144794	0.220046	0.105526
O10	O	-1.137921	0.369403	-0.089422
C11	C	-0.964863	0.218228	-0.000089
C12	C	-0.858721	0.207383	-0.000078
C13	C	-1.131031	0.052060	-0.000109
C14	C	-1.120187	-0.054083	-0.000105
C15	C	-1.312776	0.233807	-0.000121
C16	C	-1.418919	0.244652	-0.000124
C17	C	-1.146609	0.399975	-0.000101
C18	C	-1.157453	0.506118	-0.000098
C19	C	-0.664382	0.187558	-0.000100
C20	C	-0.613252	0.264473	-0.000102
C21	C	-0.505115	0.253442	-0.000115
C22	C	-0.772529	0.198588	-0.000088
N23	N	-1.124449	0.240391	-0.254330
C24	C	-1.177279	0.700456	-0.000105
C25	C	-1.100365	0.751585	-0.000098
C26	C	-1.111396	0.859722	-0.000102
C27	C	-1.166249	0.592310	-0.000101
C28	C	-1.165544	0.199276	-0.526768
C29	C	-1.112105	0.252750	-0.473437
C30	C	-1.118975	0.245872	-0.351514
C31	C	-1.158675	0.206153	-0.648702
N32	N	-1.153197	0.211638	0.254117
H33	H	-0.650692	0.338606	-0.000095
Br34	Br	-1.027252	0.337664	-0.549951
H35	H	-1.026232	0.714146	-0.000091
H36	H	-1.251406	0.737893	-0.000116
Br37	Br	-1.250396	0.114368	-0.450258
H38	H	-0.626945	0.113431	-0.000109
