data_functionalizedCrystal
_audit_creation_method	'MofGen! by Chris Wilmer'
_symmetry_space_group_name_H-M	'P1'
_symmetry_Int_Tables_number	1
_symmetry_cell_setting	triclinic
loop_
_symmetry_equiv_pos_as_xyz
  x,y,z
_cell_length_a	25.639242
_cell_length_b	25.639240
_cell_length_c	25.639214
_cell_angle_alpha	89.871932
_cell_angle_beta	89.924765
_cell_angle_gamma	90.025061
loop_
_atom_site_label
_atom_site_type_symbol
_atom_site_fract_x
_atom_site_fract_y
_atom_site_fract_z
Zn1	Zn	0.799561	-0.207795	-0.295608
Zn2	Zn	0.799400	-0.295369	-0.208161
Zn3	Zn	0.712044	-0.207938	-0.208184
Zn4	Zn	0.712091	-0.295189	-0.295563
O5	O	0.755774	-0.251573	-0.251879
O6	O	0.872705	-0.219427	-0.284017
O7	O	0.787726	-0.283907	-0.134999
O8	O	0.723701	-0.134754	-0.219809
O9	O	0.872587	-0.283768	-0.219771
O10	O	0.787999	-0.134648	-0.284039
O11	O	0.723545	-0.219671	-0.135015
O12	O	0.638885	-0.219497	-0.219766
O13	O	0.723781	-0.283461	-0.368735
O14	O	0.638920	-0.283600	-0.283963
O15	O	0.788045	-0.219252	-0.368768
O16	O	0.787771	-0.368511	-0.219727
O17	O	0.723626	-0.368378	-0.283941
C18	C	0.619932	-0.251545	-0.251862
C19	C	0.561818	-0.251545	-0.251867
C20	C	0.310694	-0.218130	-0.285394
C21	C	0.365298	-0.218125	-0.285391
O22	O	0.393594	-0.189691	-0.313892
N23	N	0.392544	-0.251567	-0.251885
C24	C	0.365182	-0.285020	-0.218384
O25	O	0.393371	-0.313465	-0.189885
C26	C	0.310579	-0.285027	-0.218390
C27	C	0.283336	-0.251579	-0.251894
C28	C	0.283451	-0.184685	-0.318895
C29	C	0.228850	-0.184690	-0.318897
C30	C	0.201493	-0.218139	-0.285398
C31	C	0.228736	-0.251584	-0.251896
C32	C	0.283219	-0.318483	-0.184892
C33	C	0.228612	-0.318487	-0.184902
C34	C	0.201369	-0.285039	-0.218406
C35	C	0.146777	-0.285038	-0.218399
N36	N	0.119532	-0.251596	-0.251905
C37	C	0.146889	-0.218146	-0.285404
C38	C	0.479853	-0.285002	-0.218375
C39	C	0.534455	-0.284993	-0.218366
C40	C	0.534567	-0.218098	-0.285373
C41	C	0.479964	-0.218106	-0.285379
C42	C	0.452607	-0.251560	-0.251880
C43	C	0.032224	-0.218158	-0.285406
C44	C	-0.022381	-0.218164	-0.285403
C45	C	-0.022488	-0.285061	-0.218398
C46	C	0.032112	-0.285053	-0.218398
C47	C	0.059467	-0.251600	-0.251906
O48	O	0.118447	-0.313459	-0.189914
O49	O	0.118694	-0.189711	-0.313903
C50	C	0.755700	-0.387415	-0.251838
C51	C	0.755717	-0.445530	-0.251838
C52	C	0.789271	-0.805799	-0.285384
C53	C	0.789286	-0.860403	-0.285395
O54	O	0.817728	-0.888561	-0.313875
N55	N	0.755847	-0.887812	-0.251930
C56	C	0.722386	-0.860613	-0.218456
O57	O	0.693944	-0.888940	-0.189992
C58	C	0.722368	-0.806010	-0.218448
C59	C	0.755814	-0.778604	-0.251912
C60	C	0.822713	-0.778393	-0.318846
C61	C	0.822698	-0.723793	-0.318834
C62	C	0.789241	-0.696598	-0.285361
C63	C	0.755799	-0.724004	-0.251900
C64	C	0.688905	-0.778812	-0.184977
C65	C	0.688890	-0.724205	-0.184972
C66	C	0.722336	-0.696799	-0.218436
C67	C	0.722327	-0.642208	-0.218416
N68	N	0.755766	-0.614800	-0.251881
C69	C	0.789223	-0.641995	-0.285354
C70	C	0.722425	-0.975284	-0.218475
C71	C	0.722445	-1.029886	-0.218479
C72	C	0.789345	-1.029672	-0.285419
C73	C	0.789327	-0.975069	-0.285412
C74	C	0.755864	-0.947875	-0.251940
C75	C	0.789190	-0.527330	-0.285327
C76	C	0.789174	-0.472724	-0.285311
C77	C	0.722272	-0.472943	-0.218373
C78	C	0.722290	-0.527543	-0.218387
C79	C	0.755751	-0.554735	-0.251868
O80	O	0.693899	-0.614016	-0.189952
O81	O	0.817656	-0.613661	-0.313817
C82	C	0.892147	-0.251602	-0.251896
C83	C	0.950261	-0.251614	-0.251904
C84	C	0.755936	-0.251320	-0.388253
C85	C	0.756005	-0.251213	-0.446367
C86	C	0.755863	-0.115200	-0.251932
C87	C	0.755900	-0.057086	-0.251954
C88	C	0.755643	-0.251786	-0.116036
C89	C	0.755675	-0.251747	-0.057922
C90	C	0.722216	-0.218223	0.302412
C91	C	0.722246	-0.218175	0.357016
O92	O	0.693652	-0.189903	0.385228
N93	N	0.755916	-0.251353	0.384359
C94	C	0.789562	-0.284578	0.357096
O95	O	0.818205	-0.312794	0.385367
C96	C	0.789534	-0.284623	0.302492
C97	C	0.755858	-0.251446	0.275152
C98	C	0.688543	-0.185048	0.275071
C99	C	0.688512	-0.185097	0.220471
C100	C	0.722154	-0.218320	0.193211
C101	C	0.755827	-0.251495	0.220551
C102	C	0.823182	-0.317844	0.275230
C103	C	0.823151	-0.317886	0.220623
C104	C	0.789475	-0.284709	0.193282
C105	C	0.789438	-0.284767	0.138691
N106	N	0.755768	-0.251588	0.111348
C107	C	0.722126	-0.218365	0.138608
C108	C	0.789620	-0.284480	0.471766
C109	C	0.789646	-0.284438	0.526368
C110	C	0.722330	-0.218035	0.526285
C111	C	0.722302	-0.218079	0.471682
C112	C	0.755949	-0.251302	0.444423
C113	C	0.722063	-0.218470	0.023943
C114	C	0.722033	-0.218524	-0.030662
C115	C	0.789351	-0.284925	-0.030574
C116	C	0.789378	-0.284874	0.024026
C117	C	0.755733	-0.251642	0.051283
O118	O	0.818019	-0.313022	0.110444
O119	O	0.693493	-0.190149	0.110329
H120	H	-0.044773	-0.312292	-0.191122
C121	C	0.485572	-0.151986	-0.351612
C122	C	0.450021	-0.181344	-0.322212
H123	H	0.467087	-0.129294	-0.374355
H124	H	0.506839	-0.131991	-0.328867
H125	H	0.506894	-0.174765	-0.371560
H126	H	0.428702	-0.158566	-0.302262
H127	H	0.428745	-0.201341	-0.344961
H128	H	0.054295	-0.312284	-0.191112
C129	C	0.797140	-0.355097	0.085643
C130	C	0.826390	-0.321346	0.054085
H131	H	0.819992	-0.377613	0.104195
H132	H	0.777115	-0.335301	0.109690
H133	H	0.774482	-0.375275	0.064443
H134	H	0.849045	-0.301165	0.075285
H135	H	0.846423	-0.341144	0.030035
C136	C	0.796644	-1.090905	-0.355768
C137	C	0.826119	-1.059571	-0.322219
H138	H	0.819347	-1.109360	-0.378487
H139	H	0.776735	-1.115036	-0.335837
H140	H	0.773868	-1.069565	-0.375740
H141	H	0.848893	-1.080911	-0.302245
H142	H	0.846037	-1.035436	-0.342153
H143	H	0.661639	-0.702066	-0.157716
H144	H	0.849931	-0.701482	-0.346084
C145	C	0.233990	-0.384614	-0.118670
C146	C	0.198542	-0.355261	-0.148076
H147	H	0.215426	-0.407313	-0.095934
H148	H	0.255310	-0.404601	-0.141412
H149	H	0.255269	-0.361832	-0.098715
H150	H	0.177266	-0.378043	-0.168034
H151	H	0.177214	-0.335272	-0.125331
H152	H	0.816411	-0.450412	-0.312561
C153	C	0.855316	-0.521619	-0.351494
C154	C	0.825969	-0.557214	-0.322131
H155	H	0.878024	-0.540069	-0.374212
H156	H	0.832534	-0.500290	-0.371463
H157	H	0.875298	-0.500363	-0.328721
H158	H	0.805984	-0.578467	-0.344904
H159	H	0.848753	-0.578552	-0.302160
H160	H	0.695216	-1.052195	-0.191224
H161	H	0.849958	-0.800530	-0.346106
C162	C	0.656304	-0.980988	-0.152302
C163	C	0.685646	-0.945395	-0.181672
H164	H	0.633601	-0.962537	-0.129581
H165	H	0.636321	-1.002244	-0.175068
H166	H	0.679092	-1.002317	-0.132333
H167	H	0.662858	-0.924068	-0.201645
H168	H	0.705630	-0.924130	-0.158903
H169	H	0.816561	-0.952759	-0.312661
C170	C	0.651716	-0.211645	0.085451
C171	C	0.685077	-0.181946	0.053901
H172	H	0.628884	-0.189098	0.103947
H173	H	0.631862	-0.234583	0.064257
H174	H	0.671779	-0.231391	0.109551
H175	H	0.665014	-0.162203	0.029797
H176	H	0.704933	-0.158999	0.075096
H177	H	0.816739	-0.311977	-0.052779
C178	C	0.622766	-0.773515	-0.118823
C179	C	0.652136	-0.808927	-0.148196
H180	H	0.600063	-0.792107	-0.096118
H181	H	0.645533	-0.752253	-0.098841
H182	H	0.602778	-0.752175	-0.141593
H183	H	0.672127	-0.830264	-0.125427
H184	H	0.629366	-0.830198	-0.168180
H185	H	0.694608	-0.191506	-0.052921
C186	C	0.656160	-0.522267	-0.152220
C187	C	0.685528	-0.557671	-0.181603
H188	H	0.633459	-0.540865	-0.129516
H189	H	0.678927	-0.501007	-0.132236
H190	H	0.636168	-0.500923	-0.174982
H191	H	0.705523	-0.579012	-0.158840
H192	H	0.662758	-0.578939	-0.201588
C193	C	0.344949	-0.177379	-0.389243
C194	C	0.313515	-0.147912	-0.355722
H195	H	0.363504	-0.154672	-0.411980
H196	H	0.368994	-0.197286	-0.369293
H197	H	0.323665	-0.200157	-0.409198
H198	H	0.334800	-0.125136	-0.335764
H199	H	0.289467	-0.127995	-0.375674
H200	H	0.695033	-0.450792	-0.191118
H201	H	0.661089	-0.158080	0.198215
H202	H	0.661147	-0.157991	0.297260
C203	C	0.655768	-0.152439	0.477096
C204	C	0.685288	-0.181607	0.441631
H205	H	0.632920	-0.129919	0.458545
H206	H	0.635932	-0.175344	0.498497
H207	H	0.678433	-0.132266	0.498293
H208	H	0.662623	-0.201783	0.420437
H209	H	0.705125	-0.158699	0.420222
H210	H	0.556632	-0.312224	-0.191078
C211	C	0.692495	-0.188478	0.609956
C212	C	0.685352	-0.181510	0.556256
H213	H	0.669670	-0.165928	0.628458
H214	H	0.685078	-0.223649	0.619022
H215	H	0.727582	-0.180573	0.618806
H216	H	0.650267	-0.189419	0.547405
H217	H	0.692766	-0.146331	0.547186
C218	C	0.815708	-0.372779	0.543395
C219	C	0.826660	-0.320912	0.556417
H220	H	0.838564	-0.395295	0.561942
H221	H	0.780641	-0.380667	0.552440
H222	H	0.820502	-0.377552	0.506972
H223	H	0.821862	-0.316138	0.592839
H224	H	0.861736	-0.313021	0.547375
C225	C	-0.016778	-0.152042	-0.351641
C226	C	-0.052326	-0.181399	-0.322236
H227	H	-0.035264	-0.129349	-0.374382
H228	H	0.004494	-0.132048	-0.328899
H229	H	0.004540	-0.174822	-0.371591
H230	H	-0.073641	-0.158619	-0.302283
H231	H	-0.073606	-0.201394	-0.344982
C232	C	0.859975	-0.291309	0.410263
C233	C	0.826607	-0.321006	0.441808
H234	H	0.882812	-0.313858	0.391774
H235	H	0.839921	-0.271566	0.386161
H236	H	0.879828	-0.268370	0.431464
H237	H	0.806750	-0.343943	0.420607
H238	H	0.846663	-0.340758	0.465913
H239	H	0.850602	-0.344864	0.297481
C240	C	0.889697	-0.383516	0.226194
C241	C	0.860137	-0.354408	0.190661
H242	H	0.912526	-0.406066	0.207697
H243	H	0.909554	-0.360575	0.247381
H244	H	0.867055	-0.403656	0.247598
H245	H	0.882778	-0.334266	0.169260
H246	H	0.840278	-0.377352	0.169465
H247	H	0.054490	-0.190918	-0.312691
H248	H	0.556852	-0.190862	-0.312650
C249	C	0.234462	-0.118574	-0.385133
C250	C	0.198909	-0.147928	-0.355732
H251	H	0.215980	-0.095881	-0.407877
H252	H	0.255731	-0.098579	-0.362389
H253	H	0.255782	-0.141355	-0.405080
H254	H	0.177592	-0.125146	-0.335782
H255	H	0.177632	-0.167924	-0.378479
H256	H	0.305391	-0.345720	-0.157610
C257	C	0.485236	-0.351118	-0.152134
C258	C	0.449785	-0.321772	-0.181542
H259	H	0.466674	-0.373816	-0.129394
H260	H	0.506556	-0.371108	-0.174874
H261	H	0.506514	-0.328332	-0.132183
H262	H	0.428510	-0.344558	-0.201497
H263	H	0.428456	-0.301782	-0.158799
