data_functionalizedCrystal
_audit_creation_method	'MofGen! by Chris Wilmer'
_symmetry_space_group_name_H-M	'P1'
_symmetry_Int_Tables_number	1
_symmetry_cell_setting	triclinic
loop_
_symmetry_equiv_pos_as_xyz
  x,y,z
_cell_length_a	16.120484
_cell_length_b	16.625547
_cell_length_c	16.625539
_cell_angle_alpha	90.023545
_cell_angle_beta	92.870299
_cell_angle_gamma	87.074925
loop_
_atom_site_label
_atom_site_type_symbol
_atom_site_fract_x
_atom_site_fract_y
_atom_site_fract_z
Zn1	Zn	-0.331940	-1.216356	-0.472307
Zn2	Zn	0.168060	-0.716356	0.027693
Zn3	Zn	-0.471359	-1.209423	-0.344303
Zn4	Zn	0.028641	-0.709423	0.155697
Zn5	Zn	-0.331962	-1.081525	-0.337474
Zn6	Zn	0.168038	-0.581525	0.162526
Zn7	Zn	-0.471312	-1.074646	-0.479076
Zn8	Zn	0.028688	-0.574646	0.020924
O9	O	-0.401643	-1.145488	-0.408290
O10	O	0.098357	-0.645488	0.091710
O11	O	-0.350445	-1.328268	-0.455353
O12	O	0.149555	-0.828268	0.044647
O13	O	-0.452898	-1.192434	-0.230566
O14	O	0.047102	-0.692434	0.269434
O15	O	-0.215293	-1.105191	-0.349669
O16	O	0.284707	-0.605191	0.150331
O17	O	-0.452876	-1.323175	-0.361309
O18	O	0.047124	-0.823175	0.138691
O19	O	-0.215277	-1.204251	-0.448731
O20	O	0.284723	-0.704251	0.051269
O21	O	-0.350483	-1.098468	-0.225549
O22	O	0.149517	-0.598468	0.274451
O23	O	-0.350437	-0.967781	-0.356232
O24	O	0.149563	-0.467781	0.143768
O25	O	-0.452794	-1.093467	-0.591009
O26	O	0.047206	-0.593467	-0.091009
O27	O	-0.452816	-0.962727	-0.460266
O28	O	0.047184	-0.462727	0.039734
O29	O	-0.350398	-1.197581	-0.586036
O30	O	0.149602	-0.697581	-0.086036
O31	O	-0.588019	-1.185764	-0.367872
O32	O	-0.088019	-0.685764	0.132128
O33	O	-0.587984	-1.086744	-0.466889
O34	O	-0.087984	-0.586744	0.033111
C35	C	-0.401624	-0.935998	-0.408243
C36	C	0.098376	-0.435998	0.091757
C37	C	-0.401636	-0.846376	-0.408243
C38	C	0.098364	-0.346376	0.091757
C39	C	-0.401637	-0.773594	-0.408250
C40	C	0.098363	-0.273594	0.091750
C41	C	-0.401640	-0.682285	-0.408267
C42	C	0.098360	-0.182285	0.091733
C43	C	-0.401647	-0.609508	-0.408285
C44	C	0.098353	-0.109508	0.091715
C45	C	-0.401651	-0.518194	-0.408301
C46	C	0.098349	-0.018194	0.091699
C47	C	-0.618252	-1.134777	-0.418873
C48	C	-0.118252	-0.634777	0.081127
C49	C	-0.710918	-1.130269	-0.423428
C50	C	-0.210918	-0.630269	0.076572
C51	C	-0.880579	-1.122043	-0.431760
C52	C	-0.380579	-0.622043	0.068240
C53	C	-0.921867	-1.169077	-0.384833
C54	C	-0.421867	-0.669077	0.115167
C55	C	-1.016272	-1.164500	-0.389469
C56	C	-0.516272	-0.664500	0.110531
C57	C	-0.786165	-1.126619	-0.427125
C58	C	-0.286165	-0.626619	0.072875
C59	C	-0.184189	-1.156262	-0.397683
C60	C	0.315811	-0.656262	0.102317
C61	C	-0.091523	-1.160853	-0.393163
C62	C	0.408477	-0.660853	0.106837
C63	C	-0.401588	-1.145530	-0.618596
C64	C	0.098412	-0.645530	-0.118596
C65	C	-0.401565	-1.145548	-0.708216
C66	C	0.098435	-0.645548	-0.208216
C67	C	-0.401660	-0.355796	-0.408328
C68	C	0.098340	0.144204	0.091672
C69	C	-0.401658	-0.445417	-0.408319
C70	C	0.098342	0.054583	0.091681
C71	C	-0.401546	-1.145562	-0.780998
C72	C	0.098454	-0.645562	-0.280998
C73	C	-0.401515	-1.145582	-0.872305
C74	C	0.098485	-0.645582	-0.372305
C75	C	-0.401486	-1.145603	-0.945080
C76	C	0.098514	-0.645603	-0.445080
C77	C	-0.401456	-1.145624	-1.036393
C78	C	0.098544	-0.645624	-0.536393
C79	C	-0.401638	-1.145495	-0.198799
C80	C	0.098362	-0.645495	0.301201
C81	C	-0.401426	-1.145645	-0.109168
C82	C	0.098574	-0.645645	0.390832
H83	H	-0.886312	-1.212781	-0.341176
H84	H	-0.386312	-0.712781	0.158824
H85	H	-0.916131	-1.078341	-0.475413
H86	H	-0.416131	-0.578341	0.024587
