data_functionalizedCrystal
_audit_creation_method	'MofGen! by Chris Wilmer'
_symmetry_space_group_name_H-M	'P1'
_symmetry_Int_Tables_number	1
_symmetry_cell_setting	triclinic
loop_
_symmetry_equiv_pos_as_xyz
  x,y,z
_cell_length_a	21.395362
_cell_length_b	15.297327
_cell_length_c	15.297738
_cell_angle_alpha	110.757659
_cell_angle_beta	80.281572
_cell_angle_gamma	99.725883
loop_
_atom_site_label
_atom_site_type_symbol
_atom_site_fract_x
_atom_site_fract_y
_atom_site_fract_z
Zn1	Zn	0.973361	-0.460950	-0.590291
Zn2	Zn	1.306694	-0.127616	-0.256957
Zn3	Zn	1.640027	0.205717	0.076376
Zn4	Zn	0.942368	-0.589572	-0.461664
Zn5	Zn	1.275701	-0.256239	-0.128330
Zn6	Zn	1.609035	0.077094	0.205003
Zn7	Zn	0.853125	-0.434106	-0.434747
Zn8	Zn	1.186458	-0.100772	-0.101413
Zn9	Zn	1.519791	0.232561	0.231920
Zn10	Zn	0.853080	-0.616454	-0.617079
Zn11	Zn	1.186414	-0.283121	-0.283746
Zn12	Zn	1.519747	0.050212	0.049588
O13	O	0.905483	-0.525271	-0.525945
O14	O	1.238817	-0.191937	-0.192612
O15	O	1.572150	0.141396	0.140722
O16	O	1.056936	-0.477996	-0.573282
O17	O	1.390269	-0.144662	-0.239949
O18	O	1.723602	0.188671	0.093385
O19	O	0.917577	-0.546465	-0.327955
O20	O	1.250911	-0.213132	0.005378
O21	O	1.584244	0.120202	0.338711
O22	O	0.882063	-0.307524	-0.432904
O23	O	1.215396	0.025809	-0.099571
O24	O	1.548730	0.359143	0.233762
O25	O	1.034165	-0.572494	-0.478780
O26	O	1.367499	-0.239161	-0.145447
O27	O	1.700832	0.094172	0.187887
O28	O	0.970400	-0.327246	-0.547182
O29	O	1.303733	0.006087	-0.213848
O30	O	1.637067	0.339421	0.119485
O31	O	0.852011	-0.432244	-0.308180
O32	O	1.185344	-0.098911	0.025154
O33	O	1.518677	0.234422	0.358487
O34	O	0.765432	-0.458311	-0.458880
O35	O	1.098766	-0.124977	-0.125546
O36	O	1.432099	0.208356	0.207787
O37	O	0.881988	-0.618311	-0.743663
O38	O	1.215321	-0.284978	-0.410330
O39	O	1.548655	0.048356	-0.076996
O40	O	0.765400	-0.592282	-0.592838
O41	O	1.098733	-0.258948	-0.259505
O42	O	1.432067	0.074385	0.073828
O43	O	0.970357	-0.504062	-0.723982
O44	O	1.303691	-0.170729	-0.390648
O45	O	1.637024	0.162605	-0.057315
O46	O	0.917535	-0.723281	-0.504755
O47	O	1.250868	-0.389948	-0.171422
O48	O	1.584201	-0.056614	0.161911
O49	O	0.851936	-0.743031	-0.618938
O50	O	1.185269	-0.409698	-0.285605
O51	O	1.518602	-0.076364	0.047728
C52	C	0.742680	-0.525301	-0.525846
C53	C	1.076013	-0.191968	-0.192512
C54	C	1.409347	0.141366	0.140821
C55	C	0.673032	-0.525340	-0.525829
C56	C	1.006365	-0.192007	-0.192496
C57	C	1.339699	0.141326	0.140838
C58	C	0.640302	-0.595162	-0.595506
C59	C	0.973635	-0.261829	-0.262173
C60	C	1.306968	0.071504	0.071161
C61	C	0.574873	-0.595147	-0.595543
C62	C	0.908206	-0.261813	-0.262210
C63	C	1.241539	0.071520	0.071123
C64	C	0.542174	-0.525316	-0.525889
C65	C	0.875507	-0.191983	-0.192556
C66	C	1.208841	0.141351	0.140778
C67	C	0.574913	-0.455482	-0.456206
C68	C	0.908246	-0.122148	-0.122873
C69	C	1.241580	0.211185	0.210461
C70	C	0.640342	-0.455494	-0.456176
C71	C	0.973675	-0.122161	-0.122843
C72	C	1.307009	0.211173	0.210491
C73	C	0.430880	-0.503352	-0.440872
C74	C	0.764213	-0.170019	-0.107538
C75	C	1.097547	0.163314	0.225795
C76	C	0.365451	-0.503346	-0.440901
C77	C	0.698785	-0.170013	-0.107568
C78	C	1.032118	0.163320	0.225765
C79	C	0.340369	-0.525273	-0.525981
C80	C	0.673703	-0.191940	-0.192648
C81	C	1.007036	0.141394	0.140685
C82	C	0.380723	-0.547226	-0.611038
C83	C	0.714056	-0.213892	-0.277704
C84	C	1.047389	0.119441	0.055629
C85	C	0.446152	-0.547238	-0.611008
C86	C	0.779485	-0.213905	-0.277674
C87	C	1.112818	0.119429	0.055659
C88	C	0.471227	-0.525295	-0.525914
C89	C	0.804561	-0.191961	-0.192581
C90	C	1.137894	0.141372	0.140752
C91	C	0.236694	-0.595082	-0.595704
C92	C	0.570027	-0.261749	-0.262371
C93	C	0.903360	0.071584	0.070962
C94	C	0.171264	-0.595060	-0.595742
C95	C	0.504598	-0.261727	-0.262409
C96	C	0.837931	0.071606	0.070924
C97	C	0.171304	-0.455399	-0.456398
C98	C	0.504638	-0.122065	-0.123064
C99	C	0.837971	0.211268	0.210269
C100	C	0.236734	-0.455417	-0.456367
C101	C	0.570067	-0.122084	-0.123034
C102	C	0.903401	0.211249	0.210300
C103	C	0.269424	-0.525264	-0.526020
C104	C	0.602757	-0.191930	-0.192687
C105	C	0.936091	0.141403	0.140647
C106	C	0.881386	-0.766904	-0.567695
C107	C	1.214720	-0.433571	-0.234362
C108	C	1.548053	-0.100237	0.098972
C109	C	0.871138	-0.870281	-0.585587
C110	C	1.204471	-0.536948	-0.252253
C111	C	1.537805	-0.203615	0.081080
C112	C	0.979020	-1.120455	-0.398386
C113	C	1.312353	-0.787122	-0.065053
C114	C	1.645687	-0.453789	0.268281
C115	C	0.988648	-1.023327	-0.381571
C116	C	1.321981	-0.689993	-0.048238
C117	C	1.655315	-0.356660	0.285096
C118	C	0.959272	-0.985060	-0.432574
C119	C	1.292605	-0.651727	-0.099240
C120	C	1.625938	-0.318394	0.234093
C121	C	0.920265	-1.043933	-0.500394
C122	C	1.253598	-0.710599	-0.167061
C123	C	1.586932	-0.377266	0.166273
C124	C	0.910632	-1.141070	-0.517206
C125	C	1.243965	-0.807737	-0.183872
C126	C	1.577299	-0.474404	0.149461
C127	C	0.890883	-1.005675	-0.551393
C128	C	1.224217	-0.672342	-0.218060
C129	C	1.557550	-0.339009	0.115274
C130	C	0.851877	-1.064548	-0.619213
C131	C	1.185210	-0.731214	-0.285880
C132	C	1.518543	-0.397881	0.047453
C133	C	0.842246	-1.161675	-0.636022
C134	C	1.175579	-0.828342	-0.302689
C135	C	1.508913	-0.495009	0.030644
C136	C	0.871622	-1.199941	-0.585020
C137	C	1.204956	-0.866608	-0.251686
C138	C	1.538289	-0.533275	0.081647
C139	C	0.900517	-0.908538	-0.534582
C140	C	1.233850	-0.575204	-0.201248
C141	C	1.567183	-0.241871	0.132085
C142	C	0.832128	-0.929153	-0.653401
C143	C	1.165462	-0.595819	-0.320068
C144	C	1.498795	-0.262486	0.013266
C145	C	0.822500	-1.026281	-0.670216
C146	C	1.155834	-0.692948	-0.336883
C147	C	1.489167	-0.359615	-0.003549
C148	C	1.068922	-0.525241	-0.526045
C149	C	1.402256	-0.191907	-0.192712
C150	C	1.735589	0.141426	0.140621
C151	C	1.138570	-0.525228	-0.526088
C152	C	1.471904	-0.191895	-0.192755
C153	C	1.805237	0.141439	0.140578
C154	C	0.929625	-0.567179	-0.768509
C155	C	1.262958	-0.233846	-0.435176
C156	C	1.596291	0.099487	-0.101842
C157	C	0.939912	-0.585039	-0.871875
C158	C	1.273246	-0.251705	-0.538542
C159	C	1.606579	0.081628	-0.205209
C160	C	0.929694	-0.282697	-0.484052
C161	C	1.263027	0.050636	-0.150719
C162	C	1.596360	0.383970	0.182614
C163	C	0.940011	-0.179327	-0.466200
C164	C	1.273344	0.154007	-0.132867
C165	C	1.606677	0.487340	0.200466
C166	C	0.978882	-0.652899	-0.930735
C167	C	1.312216	-0.319565	-0.597401
C168	C	1.645549	0.013768	-0.264068
C169	C	0.988553	-0.669670	-1.027851
C170	C	1.321886	-0.336337	-0.694518
C171	C	1.655219	-0.003004	-0.361184
C172	C	0.959250	-0.618589	-1.066119
C173	C	1.292583	-0.285255	-0.732785
C174	C	1.625916	0.048078	-0.399452
C175	C	0.920275	-0.550732	-1.007260
C176	C	1.253609	-0.217398	-0.673927
C177	C	1.586942	0.115935	-0.340593
C178	C	0.910608	-0.533953	-0.910133
C179	C	1.243942	-0.200620	-0.576800
C180	C	1.577275	0.132713	-0.243466
C181	C	0.890976	-0.499643	-1.045517
C182	C	1.224309	-0.166310	-0.712184
C183	C	1.557642	0.167023	-0.378851
C184	C	0.852001	-0.431786	-0.986659
C185	C	1.185334	-0.098453	-0.653325
C186	C	1.518668	0.234880	-0.319992
C187	C	0.842335	-0.415011	-0.889542
C188	C	1.175669	-0.081678	-0.556208
C189	C	1.509002	0.251655	-0.222875
C190	C	0.871638	-0.466093	-0.851274
C191	C	1.204972	-0.132760	-0.517941
C192	C	1.538305	0.200574	-0.184607
C193	C	0.900643	-0.516422	-1.142644
C194	C	1.233976	-0.183089	-0.809311
C195	C	1.567309	0.150245	-0.475978
C196	C	0.832368	-0.397476	-1.122043
C197	C	1.165702	-0.064143	-0.788709
C198	C	1.499035	0.269190	-0.455376
C199	C	0.822698	-0.380705	-1.024926
C200	C	1.156032	-0.047371	-0.691593
C201	C	1.489365	0.285962	-0.358260
C202	C	0.881479	-0.483458	-0.284313
C203	C	1.214812	-0.150124	0.049020
C204	C	1.548145	0.183209	0.382354
C205	C	0.871338	-0.465337	-0.180902
C206	C	1.204672	-0.132003	0.152431
C207	C	1.538005	0.201330	0.485765
H208	H	0.666914	-0.652036	-0.652224
H209	H	1.000248	-0.318702	-0.318891
H210	H	1.333581	0.014631	0.014443
Cl211	Cl	0.793348	-0.329694	-0.815548
Cl212	Cl	1.126681	0.003639	-0.482215
Cl213	Cl	1.460014	0.336973	-0.148881
H214	H	0.863787	-1.279031	-0.598709
H215	H	1.197120	-0.945698	-0.265376
H216	H	1.530454	-0.612365	0.067957
Cl217	Cl	0.773712	-0.295391	-0.950920
Cl218	Cl	1.107045	0.037943	-0.617587
Cl219	Cl	1.440379	0.371276	-0.284254
H220	H	0.863767	-0.452441	-0.772194
H221	H	1.197100	-0.119108	-0.438861
H222	H	1.530434	0.214226	-0.105528
Cl223	Cl	0.949637	-0.601725	-1.216626
Cl224	Cl	1.282970	-0.268392	-0.883293
Cl225	Cl	1.616304	0.064941	-0.549959
Cl226	Cl	0.130205	-0.367606	-0.368836
Cl227	Cl	0.463538	-0.034272	-0.035502
Cl228	Cl	0.796871	0.299061	0.297831
H229	H	0.808510	-0.355879	-1.153199
H230	H	1.141843	-0.022546	-0.819865
H231	H	1.475176	0.310788	-0.486532
Cl232	Cl	0.533717	-0.682930	-0.683144
Cl233	Cl	0.867051	-0.349597	-0.349810
Cl234	Cl	1.200384	-0.016263	-0.016477
H235	H	0.479005	-0.565110	-0.680263
H236	H	0.812339	-0.231776	-0.346929
H237	H	1.145672	0.101557	-0.013596
H238	H	0.263312	-0.651951	-0.652424
H239	H	0.596646	-0.318618	-0.319091
H240	H	0.929979	0.014715	0.014243
H241	H	0.144617	-0.651917	-0.652487
H242	H	0.477951	-0.318584	-0.319154
H243	H	0.811284	0.014750	0.014180
Cl244	Cl	0.971405	-0.639678	-1.188211
Cl245	Cl	1.304739	-0.306344	-0.854877
Cl246	Cl	1.638072	0.026989	-0.521544
Cl247	Cl	0.462403	-0.475788	-0.333904
Cl248	Cl	0.795736	-0.142455	-0.000570
Cl249	Cl	1.129070	0.190878	0.332763
Cl250	Cl	1.015725	-0.717095	-0.882620
Cl251	Cl	1.349058	-0.383761	-0.549286
Cl252	Cl	1.682391	-0.050428	-0.215953
H253	H	0.360304	-0.565079	-0.680318
H254	H	0.693637	-0.231746	-0.346984
H255	H	1.026970	0.101588	-0.013651
Cl256	Cl	1.037542	-0.754978	-1.101838
Cl257	Cl	1.370876	-0.421644	-0.768505
Cl258	Cl	1.704209	-0.088311	-0.435172
H259	H	0.548286	-0.398624	-0.399495
H260	H	0.881619	-0.065290	-0.066161
H261	H	1.214952	0.268043	0.267172
Cl262	Cl	0.277882	-0.367638	-0.368766
Cl263	Cl	0.611216	-0.034305	-0.035432
Cl264	Cl	0.944549	0.299029	0.297901
H265	H	0.332600	-0.485477	-0.371644
H266	H	0.665933	-0.152144	-0.038311
H267	H	0.999266	0.181190	0.295022
H268	H	0.666991	-0.398634	-0.399436
H269	H	1.000324	-0.065300	-0.066103
H270	H	1.333657	0.268033	0.267231
H271	H	0.967113	-0.905973	-0.418878
H272	H	1.300446	-0.572640	-0.085544
H273	H	1.633779	-0.239306	0.247789
H274	H	0.932276	-0.860612	-0.479361
H275	H	1.265609	-0.527279	-0.146028
H276	H	1.598943	-0.193945	0.187305
H277	H	1.020406	-0.975396	-0.326351
H278	H	1.353740	-0.642063	0.006982
H279	H	1.687073	-0.308729	0.340315
H280	H	1.002930	-1.151621	-0.356861
H281	H	1.336263	-0.818287	-0.023528
H282	H	1.669596	-0.484954	0.309805
H283	H	0.790740	-1.074229	-0.725436
H284	H	1.124074	-0.740895	-0.392102
H285	H	1.457407	-0.407562	-0.058769
Cl286	Cl	0.793206	-1.235683	-0.721278
Cl287	Cl	1.126539	-0.902350	-0.387945
Cl288	Cl	1.459872	-0.569017	-0.054612
Cl289	Cl	0.795191	-0.881053	-0.717516
Cl290	Cl	1.128524	-0.547720	-0.384183
Cl291	Cl	1.461858	-0.214386	-0.050850
