data_functionalizedCrystal
_audit_creation_method	'MofGen! by Chris Wilmer'
_symmetry_space_group_name_H-M	'P1'
_symmetry_Int_Tables_number	1
_symmetry_cell_setting	triclinic
loop_
_symmetry_equiv_pos_as_xyz
  x,y,z
_cell_length_a	12.837943
_cell_length_b	15.944551
_cell_length_c	11.295483
_cell_angle_alpha	94.094426
_cell_angle_beta	85.461227
_cell_angle_gamma	89.163839
loop_
_atom_site_label
_atom_site_type_symbol
_atom_site_fract_x
_atom_site_fract_y
_atom_site_fract_z
O1	O	1.382450	0.213265	-0.099009
O2	O	1.080644	0.202478	-0.099016
O3	O	1.239788	0.086257	-0.099002
O4	O	1.223306	0.329487	-0.099023
O5	O	1.225810	0.096448	0.099048
O6	O	1.066666	0.212669	0.099034
O7	O	1.368472	0.223456	0.099040
Cu8	Cu	1.216293	0.218993	0.117121
Cu9	Cu	1.232823	0.206941	-0.117096
O10	O	1.209328	0.339677	0.099026
C11	C	1.035034	0.203930	0.000008
C12	C	0.919957	0.193062	0.000006
C13	C	0.679007	0.323714	0.000011
C14	C	0.570881	0.313507	0.000010
C15	C	0.595575	0.162440	0.000011
C16	C	0.703701	0.172648	0.000012
C17	C	0.745413	0.253287	0.000011
C18	C	0.853542	0.263494	0.000003
C19	C	0.878234	0.112428	0.000013
C20	C	0.770107	0.102221	0.000011
C21	C	1.232115	0.060004	0.000023
C22	C	1.230063	-0.033407	0.000024
C23	C	1.126515	-0.256548	0.000005
C24	C	1.167708	-0.308694	0.097657
C25	C	1.226352	-0.204430	0.000015
C26	C	1.181513	-0.318722	-0.097604
C27	C	1.222761	-0.369631	0.000001
C28	C	1.267567	-0.255341	0.097747
C29	C	1.281364	-0.265369	-0.097602
C30	C	1.322627	-0.317491	0.000073
C31	C	1.228418	-0.109262	0.000024
C32	C	1.220702	-0.464796	0.000000
C33	C	1.414082	0.222005	0.000014
C34	C	1.529160	0.232872	0.000008
C35	C	1.217002	0.365931	-0.000001
C36	C	1.219054	0.459340	-0.000010
N37	N	1.204674	0.227469	0.281856
N38	N	1.244451	0.198459	-0.281831
C39	C	1.328092	0.137394	0.531156
C40	C	1.319318	0.143806	0.655819
C41	C	1.178349	0.246701	0.655847
C42	C	1.187123	0.240289	0.531184
C43	C	1.261997	0.185634	0.468843
C44	C	1.270775	0.179227	0.344178
C45	C	1.129802	0.282117	0.344208
C46	C	1.121028	0.288530	0.468871
H47	H	0.712969	0.389374	0.000008
H48	H	0.516815	0.370856	0.000014
O49	O	0.942712	0.043972	-0.000197
C50	C	1.004084	-0.087322	-0.102770
C51	C	0.931033	-0.009832	-0.102688
H52	H	0.994650	-0.130851	-0.185612
H53	H	1.088558	-0.066232	-0.102850
H54	H	0.983069	-0.122277	-0.019849
H55	H	0.951952	0.025158	-0.185595
H56	H	0.846578	-0.030976	-0.102546
O57	O	1.338654	-0.242241	-0.195999
C58	C	1.405413	-0.127687	-0.305686
C59	C	1.340538	-0.153765	-0.194174
H60	H	1.406939	-0.056153	-0.304260
H61	H	1.488647	-0.153773	-0.306546
H62	H	1.368617	-0.153839	-0.388856
H63	H	1.377243	-0.127621	-0.110944
H64	H	1.257309	-0.127691	-0.193419
H65	H	0.561586	0.096792	0.000111
H66	H	1.119654	-0.327932	0.180211
O67	O	1.105475	0.299681	0.716369
C68	C	0.922549	0.336364	0.754517
C69	C	1.004971	0.276298	0.685919
H70	H	0.841274	0.317492	0.729904
H71	H	0.927544	0.332641	0.854332
H72	H	0.937824	0.403472	0.730035
H73	H	0.989750	0.209164	0.710300
H74	H	0.999955	0.280094	0.586120
O75	O	1.137931	-0.351680	-0.196060
C76	C	0.985263	-0.358010	-0.307258
C77	C	1.034507	-0.320615	-0.195731
H78	H	0.901629	-0.332923	-0.307016
H79	H	1.032811	-0.339370	-0.390514
H80	H	0.984875	-0.429479	-0.306766
H81	H	1.034903	-0.249144	-0.196107
H82	H	0.986944	-0.339321	-0.112524
H83	H	1.303925	-0.227723	0.180394
O84	O	1.343529	0.126068	0.283801
C85	C	1.482459	0.024719	0.296938
C86	C	1.400097	0.084877	0.365457
H87	H	1.528232	-0.008587	0.362927
H88	H	1.441859	-0.023897	0.238620
H89	H	1.538313	0.062157	0.238527
H90	H	1.344219	0.047510	0.423932
H91	H	1.440767	0.133494	0.423700
H92	H	0.736129	0.036567	0.000026
H93	H	1.060064	0.333026	0.519643
H94	H	1.075986	0.321401	0.293458
H95	H	1.389064	0.092898	0.480398
H96	H	1.405566	-0.344011	0.000130
H97	H	1.043639	-0.229864	0.000101
H98	H	0.887502	0.329155	0.000004
O99	O	1.383635	0.096912	0.716167
C100	C	1.524333	-0.005867	0.702979
C101	C	1.451578	0.047212	0.634488
H102	H	1.579269	-0.046076	0.636971
H103	H	1.572090	0.037524	0.761297
H104	H	1.475442	-0.048388	0.761386
H105	H	1.500389	0.089739	0.576015
H106	H	1.403817	0.003773	0.576244
