data_functionalizedCrystal
_audit_creation_method	'MofGen! by Chris Wilmer'
_symmetry_space_group_name_H-M	'P1'
_symmetry_Int_Tables_number	1
_symmetry_cell_setting	triclinic
loop_
_symmetry_equiv_pos_as_xyz
  x,y,z
_cell_length_a	10.685976
_cell_length_b	10.685194
_cell_length_c	12.759393
_cell_angle_alpha	85.596290
_cell_angle_beta	94.360827
_cell_angle_gamma	90.347622
loop_
_atom_site_label
_atom_site_type_symbol
_atom_site_fract_x
_atom_site_fract_y
_atom_site_fract_z
Zn1	Zn	1.879609	-0.646273	-0.432474
Zn2	Zn	1.863428	-0.856105	-0.244430
Zn3	Zn	1.669828	-0.630275	-0.271255
Zn4	Zn	1.653764	-0.839951	-0.434515
O5	O	1.766657	-0.743151	-0.345668
O6	O	2.053002	-0.687564	-0.395449
O7	O	1.837698	-0.826213	-0.100966
O8	O	1.711150	-0.456831	-0.303013
O9	O	2.041114	-0.841726	-0.257294
O10	O	1.865276	-0.468585	-0.421460
O11	O	1.695460	-0.660297	-0.120674
O12	O	1.492157	-0.644633	-0.304992
O13	O	1.683772	-0.814194	-0.581266
O14	O	1.480355	-0.798681	-0.424938
O15	O	1.849699	-0.671900	-0.579767
O16	O	1.822121	-1.029528	-0.259272
O17	O	1.668082	-1.017659	-0.398927
C18	C	1.440741	-0.718169	-0.368098
C19	C	1.301310	-0.707512	-0.377716
C20	C	1.741637	-1.069118	-0.326431
C21	C	1.731047	-1.208577	-0.318228
C22	C	2.093846	-0.768232	-0.323151
C23	C	2.233275	-0.778919	-0.313556
C24	C	1.766749	-0.743029	-0.619704
C25	C	1.766787	-0.742978	-0.736481
C26	C	1.791810	-0.415913	-0.365001
C27	C	1.802528	-0.276464	-0.373240
C28	C	1.692759	-0.656573	-0.801610
C29	C	1.692800	-0.656538	-0.911334
C30	C	1.840908	-0.829318	-0.890789
C31	C	1.840859	-0.829357	-0.781068
C32	C	1.607255	-0.556816	-0.813472
C33	C	1.607296	-0.556782	-0.923195
C34	C	1.766646	-0.743187	-0.072699
C35	C	1.766877	-0.742904	0.044074
H36	H	1.661732	-1.257152	-0.264856
C37	C	1.922285	-0.924406	-0.709429
H38	H	1.966413	-0.975833	-0.751701
H39	H	1.870078	-0.975403	-0.666698
H40	H	1.980622	-0.880615	-0.665702
H41	H	1.252888	-0.638225	-0.440012
H42	H	1.901215	-0.899644	-0.927105
H43	H	1.281702	-0.848221	-0.251266
H44	H	1.508086	-0.575394	-0.788852
H45	H	1.649139	-0.467198	-0.782499
H46	H	1.512342	-0.584495	-0.961526
C47	C	1.652569	-0.428209	-0.968772
H48	H	1.671173	-0.375360	-0.913057
H49	H	1.588581	-0.390807	-1.016621
H50	H	1.725907	-0.439146	-1.004741
C51	C	1.896158	-1.210860	-0.445343
H52	H	1.891244	-1.122591	-0.441578
H53	H	1.876152	-1.230818	-0.515946
H54	H	1.978852	-1.238678	-0.422972
