data_functionalizedCrystal
_audit_creation_method	'MofGen! by Chris Wilmer'
_symmetry_space_group_name_H-M	'P1'
_symmetry_Int_Tables_number	1
_symmetry_cell_setting	triclinic
loop_
_symmetry_equiv_pos_as_xyz
  x,y,z
_cell_length_a	17.699083
_cell_length_b	16.776229
_cell_length_c	17.699083
_cell_angle_alpha	89.987445
_cell_angle_beta	96.716986
_cell_angle_gamma	90.002883
loop_
_atom_site_label
_atom_site_type_symbol
_atom_site_fract_x
_atom_site_fract_y
_atom_site_fract_z
O1	O	-1.004076	0.066157	0.095699
O2	O	-0.504076	0.566157	0.595699
O3	O	-0.783698	0.066184	0.108152
O4	O	-0.283698	0.566184	0.608152
O5	O	-0.900113	0.066177	-0.008264
O6	O	-0.400113	0.566177	0.491736
O7	O	-0.887661	0.066163	0.212115
O8	O	-0.387661	0.566163	0.712115
O9	O	-0.900102	-0.066399	-0.008243
O10	O	-0.400102	0.433601	0.491757
O11	O	-0.783687	-0.066393	0.108172
O12	O	-0.283687	0.433607	0.608172
O13	O	-1.004065	-0.066419	0.095720
O14	O	-0.504065	0.433581	0.595720
Zn15	Zn	-0.893874	-0.087456	0.101949
Zn16	Zn	-0.393874	0.412544	0.601949
Zn17	Zn	-0.893889	0.087220	0.101922
Zn18	Zn	-0.393889	0.587220	0.601922
O19	O	-0.887650	-0.066413	0.212135
O20	O	-0.387650	0.433587	0.712135
C21	C	-0.755495	-0.000101	0.107716
C22	C	-0.255495	0.499899	0.607716
C23	C	-0.671477	-0.000090	0.106377
C24	C	-0.171477	0.499910	0.606377
N25	N	-0.893870	-0.206667	0.101967
N26	N	-0.393870	0.293333	0.601967
C27	C	-0.622856	-0.000095	0.174711
C28	C	-0.122856	0.499905	0.674711
C29	C	-0.543913	-0.000104	0.173448
C30	C	-0.043913	0.499896	0.673448
C31	C	-0.513592	-0.000104	0.103852
C32	C	-0.013592	0.499896	0.603852
C33	C	-0.562219	-0.000102	0.035513
C34	C	-0.062219	0.499898	0.535513
C35	C	-0.641161	-0.000098	0.036776
C36	C	-0.141161	0.499902	0.536776
C37	C	-0.243856	-0.000119	0.030418
C38	C	0.256144	0.499881	0.530418
C39	C	-0.164908	-0.000120	0.029160
C40	C	0.335092	0.499880	0.529160
C41	C	-0.146608	-0.000125	0.167090
C42	C	0.353392	0.499875	0.667090
C43	C	-0.225550	-0.000121	0.168353
C44	C	0.274450	0.499879	0.668353
C45	C	-0.274170	-0.000124	0.100015
C46	C	0.225830	0.499876	0.600015
C47	C	-0.359769	-0.000115	0.101384
C48	C	0.140231	0.499885	0.601384
C49	C	-0.427995	-0.000107	0.102481
C50	C	0.072005	0.499893	0.602481
C51	C	-0.032268	-0.000131	0.096156
C52	C	0.467732	0.499869	0.596156
C53	C	-0.116286	-0.000130	0.097494
C54	C	0.383714	0.499870	0.597494
C55	C	-0.848081	-0.751830	0.056058
C56	C	-0.348081	-0.251830	0.556058
C57	C	-0.848079	-0.668377	0.056064
C58	C	-0.348079	-0.168377	0.556064
C59	C	-0.893892	-0.626666	0.101916
C60	C	-0.393892	-0.126666	0.601916
C61	C	-0.939715	-0.668411	0.147758
C62	C	-0.439715	-0.168411	0.647758
C63	C	-0.939720	-0.751862	0.147747
C64	C	-0.439720	-0.251862	0.647747
C65	C	-0.939695	-0.331864	0.147803
C66	C	-0.439695	0.168136	0.647803
C67	C	-0.939685	-0.248408	0.147812
C68	C	-0.439685	0.251592	0.647812
C69	C	-0.848054	-0.248380	0.056120
C70	C	-0.348054	0.251620	0.556120
C71	C	-0.848060	-0.331830	0.056109
C72	C	-0.348060	0.168170	0.556109
C73	C	-0.893885	-0.373568	0.101948
C74	C	-0.393885	0.126432	0.601948
C75	C	-0.893888	-0.464057	0.101939
C76	C	-0.393888	0.035943	0.601939
C77	C	-0.893886	-0.536179	0.101929
C78	C	-0.393886	-0.036179	0.601929
C79	C	-0.888102	-0.000127	0.240322
C80	C	-0.388102	0.499873	0.740322
C81	C	-0.889440	-0.000133	0.324340
C82	C	-0.389440	0.499867	0.824340
N83	N	-0.893899	0.206431	0.101898
N84	N	-0.393899	0.706431	0.601898
C85	C	-0.899662	-0.000107	-0.036451
C86	C	-0.399662	0.499893	0.463549
C87	C	-0.898323	-0.000096	-0.120469
C88	C	-0.398323	0.499904	0.379531
C89	C	-0.821107	-0.000125	0.372961
C90	C	-0.321107	0.499875	0.872961
C91	C	-0.822369	-0.000116	0.451904
C92	C	-0.322369	0.499884	0.951904
C93	C	-0.891965	-0.000120	0.482225
C94	C	-0.391965	0.499880	0.982225
C95	C	-0.960304	-0.000126	0.433598
C96	C	-0.460304	0.499874	0.933598
C97	C	-0.959041	-0.000130	0.354656
C98	C	-0.459041	0.499870	0.854656
C99	C	-0.965399	-0.000111	0.751961
C100	C	-0.465399	0.499889	1.251961
C101	C	-0.966657	-0.000110	0.830909
C102	C	-0.466657	0.499890	1.330909
C103	C	-0.828727	-0.000097	0.849209
C104	C	-0.328727	0.499903	1.349209
C105	C	-0.827464	-0.000100	0.770267
C106	C	-0.327464	0.499900	1.270267
C107	C	-0.895803	-0.000102	0.721647
C108	C	-0.395803	0.499898	1.221647
C109	C	-0.894433	-0.000110	0.636048
C110	C	-0.394433	0.499890	1.136048
C111	C	-0.893336	-0.000118	0.567823
C112	C	-0.393336	0.499882	1.067823
H113	H	-0.504328	-0.000107	0.229092
H114	H	-0.004328	0.499893	0.729092
H115	H	-1.023334	-0.000112	0.855592
H116	H	-0.523334	0.499888	1.355592
H117	H	-0.810751	-0.365788	0.018774
H118	H	-0.310751	0.134212	0.518774
H119	H	-0.810743	-0.214387	0.018793
H120	H	-0.310743	0.285613	0.518793
O121	O	-0.752401	-0.000096	0.737562
O122	O	-0.252401	0.499904	1.237562
H123	H	-0.705095	-0.000081	0.784634
H124	H	-0.205095	0.499919	1.284634
H125	H	-0.537526	-0.000113	-0.021154
H126	H	-0.037526	0.499887	0.478846
H127	H	-0.976993	-0.214449	0.185152
H128	H	-0.476993	0.285551	0.685152
H129	H	-0.283434	-0.000122	-0.025228
H130	H	0.216566	0.499878	0.474772
O131	O	-1.039103	-0.000131	0.699525
O132	O	-0.539103	0.499869	1.199525
H133	H	-1.087707	-0.000147	0.733874
H134	H	-0.587707	0.499853	1.233874
H135	H	-0.977009	-0.365837	0.185129
H136	H	-0.477009	0.134163	0.685129
O137	O	-0.989124	-0.623429	0.197221
O138	O	-0.489124	-0.123429	0.697221
H139	H	-0.981416	-0.558387	0.189536
H140	H	-0.481416	-0.058387	0.689536
O141	O	-1.035372	-0.000131	0.466295
O142	O	-0.535372	0.499869	0.966295
H143	H	-1.024772	-0.000135	0.529357
H144	H	-0.524772	0.499865	1.029357
H145	H	-0.680748	-0.000094	-0.018868
H146	H	-0.180748	0.499906	0.481132
O147	O	-1.032743	-0.000146	0.302209
O148	O	-0.532743	0.499854	0.802209
H149	H	-1.081350	-0.000158	0.336553
H150	H	-0.581350	0.499842	0.836553
H151	H	-0.977030	-0.785845	0.185075
H152	H	-0.477030	-0.285845	0.685075
O153	O	-0.746042	-0.000119	0.340258
O154	O	-0.246042	0.499881	0.840258
H155	H	-0.698738	-0.000104	0.387333
H156	H	-0.198738	0.499896	0.887333
O157	O	-0.748667	-0.000122	0.504348
O158	O	-0.248667	0.499878	1.004348
H159	H	-0.700061	-0.000135	0.470002
H160	H	-0.200061	0.499865	0.970002
O161	O	-0.094165	-0.000141	0.240800
O162	O	0.405835	0.499859	0.740800
H163	H	-0.057748	0.053886	0.243515
H164	H	0.442252	0.553886	0.743515
O165	O	-0.655559	-0.000103	0.249776
O166	O	-0.155559	0.499897	0.749776
H167	H	-0.608484	-0.000118	0.297079
H168	H	-0.108484	0.499882	0.797079
H169	H	-0.140225	-0.000121	-0.027517
H170	H	0.359775	0.499879	0.472483
O171	O	-0.258249	-0.000134	0.243420
O172	O	0.241751	0.499866	0.743420
H173	H	-0.238701	0.053893	0.276249
H174	H	0.261299	0.553893	0.776249
O175	O	-0.798684	-0.796818	0.006588
O176	O	-0.298684	-0.296818	0.506588
H177	H	-0.766835	-0.753770	-0.025297
H178	H	-0.266835	-0.253770	0.474703
H179	H	-0.773083	-0.000093	0.888806
H180	H	-0.273083	0.499907	1.388806
O181	O	-0.798656	-0.623355	0.006628
O182	O	-0.298656	-0.123355	0.506628
H183	H	-0.766793	-0.666380	-0.025249
H184	H	-0.266793	-0.166380	0.474751
