data_functionalizedCrystal
_audit_creation_method	'MofGen! by Chris Wilmer'
_symmetry_space_group_name_H-M	'P1'
_symmetry_Int_Tables_number	1
_symmetry_cell_setting	triclinic
loop_
_symmetry_equiv_pos_as_xyz
  x,y,z
_cell_length_a	10.540514
_cell_length_b	10.540539
_cell_length_c	12.996460
_cell_angle_alpha	89.996006
_cell_angle_beta	89.993916
_cell_angle_gamma	84.520326
loop_
_atom_site_label
_atom_site_type_symbol
_atom_site_fract_x
_atom_site_fract_y
_atom_site_fract_z
O1	O	1.685908	0.178750	-0.085574
O2	O	1.316491	0.195639	-0.085573
O3	O	1.509627	0.002488	-0.085573
O4	O	1.492771	0.371902	-0.085575
O5	O	1.509607	0.002477	0.085561
O6	O	1.316470	0.195629	0.085561
O7	O	1.685887	0.178739	0.085559
Cu8	Cu	1.501177	0.187183	0.101186
Cu9	Cu	1.501201	0.187196	-0.101200
O10	O	1.492751	0.371891	0.085559
C11	C	1.269177	0.194374	-0.000006
C12	C	1.128227	0.190605	-0.000006
C13	C	1.057522	0.328745	-0.000009
C14	C	0.910908	0.324871	-0.000403
C15	C	0.935901	0.115484	-0.097547
C16	C	1.082441	0.120338	-0.097624
C17	C	1.082820	0.118281	0.096994
C18	C	0.935841	0.116948	0.098271
C19	C	1.508353	-0.044821	-0.000008
C20	C	1.504571	-0.185769	-0.000013
C21	C	1.359652	-0.369182	-0.000397
C22	C	1.363486	-0.222564	-0.000011
C23	C	1.572456	-0.247439	0.097712
C24	C	1.567641	-0.393983	0.097795
C25	C	1.570533	-0.394489	-0.096816
C26	C	1.571833	-0.247507	-0.098108
C27	C	1.733201	0.180004	-0.000010
C28	C	1.874151	0.183774	-0.000017
C29	C	1.494025	0.419199	-0.000009
C30	C	1.497807	0.560147	-0.000010
N31	N	1.501169	0.187173	0.243533
N32	N	1.501219	0.187196	-0.243547
C33	C	1.501199	0.187197	0.663347
C34	C	1.501187	0.187195	0.546542
C35	C	1.501185	0.187186	0.453444
C36	C	1.501171	0.187182	0.336631
H37	H	1.087757	0.383968	-0.069847
C38	C	0.903157	-0.021991	0.106629
N39	N	0.878538	-0.126644	0.112917
H40	H	1.110674	0.170224	-0.170808
C41	C	1.504795	-0.192224	-0.195779
N42	N	1.454289	-0.150588	-0.269344
C43	C	1.508721	-0.189900	0.195962
N44	N	1.460707	-0.146565	0.269962
C45	C	0.854538	0.397125	-0.095416
N46	N	0.812081	0.451544	-0.166988
H47	H	0.893303	0.162303	-0.170406
C48	C	1.125347	0.180403	0.196895
N49	N	1.157376	0.227207	0.272135
C50	C	1.284361	-0.407820	-0.095065
N51	N	1.227648	-0.436934	-0.166370
C52	C	1.291313	-0.164992	-0.094646
N53	N	1.236942	-0.121634	-0.165925
C54	C	0.905750	-0.024516	-0.102081
N55	N	0.883036	-0.129965	-0.105494
C56	C	0.880437	0.184358	0.195751
N57	N	0.838696	0.235132	0.269171
H58	H	1.524880	-0.426033	-0.170886
C59	C	1.710801	-0.214808	-0.106079
N60	N	1.815479	-0.190184	-0.112072
H61	H	0.868236	0.378583	0.069495
H62	H	1.130076	0.016388	0.097936
C63	C	1.284669	-0.409950	0.093771
N64	N	1.228200	-0.440645	0.164707
H65	H	1.309679	-0.180808	0.070159
C66	C	1.499825	-0.432080	0.196479
N67	N	1.448741	-0.460769	0.270808
H68	H	1.669106	-0.441961	0.102228
H69	H	1.086053	0.384779	0.069920
H70	H	1.676064	-0.225094	0.101346
H71	H	1.130447	0.018865	-0.101787
H72	H	1.672438	-0.441724	-0.097474
