data_functionalizedCrystal
_audit_creation_method	'MofGen! by Chris Wilmer'
_symmetry_space_group_name_H-M	'P1'
_symmetry_Int_Tables_number	1
_symmetry_cell_setting	triclinic
loop_
_symmetry_equiv_pos_as_xyz
  x,y,z
_cell_length_a	12.837943
_cell_length_b	10.654550
_cell_length_c	9.130313
_cell_angle_alpha	90.000110
_cell_angle_beta	89.999361
_cell_angle_gamma	89.656922
loop_
_atom_site_label
_atom_site_type_symbol
_atom_site_fract_x
_atom_site_fract_y
_atom_site_fract_z
O1	O	-1.377797	-0.326745	-0.121766
O2	O	-1.075875	-0.310604	-0.121775
O3	O	-1.233778	-0.136692	-0.121765
O4	O	-1.219894	-0.500656	-0.121776
O5	O	-1.233776	-0.136697	0.121834
O6	O	-1.075873	-0.310609	0.121824
O7	O	-1.377795	-0.326750	0.121833
Cu8	Cu	-1.226834	-0.318680	0.144071
Cu9	Cu	-1.226836	-0.318674	-0.144013
O10	O	-1.219892	-0.500661	0.121823
C11	C	-1.232758	-0.089786	0.000033
C12	C	-1.229708	0.049990	0.000027
C13	C	-1.037215	-0.305153	0.000023
C14	C	-0.922021	-0.288891	0.000020
C15	C	-1.416456	-0.332200	0.000031
C16	C	-1.531650	-0.348462	0.000025
C17	C	-0.682468	-0.484395	0.000035
C18	C	-0.574232	-0.469121	0.000033
C19	C	-0.597312	-0.243070	0.000024
C20	C	-0.705547	-0.258344	0.000026
C21	C	-0.748121	-0.379010	0.000029
C22	C	-0.856359	-0.394284	0.000021
C23	C	-0.879436	-0.168233	0.000023
C24	C	-0.771201	-0.152959	0.000021
C25	C	-1.220913	-0.547568	0.000022
C26	C	-1.223963	-0.687344	0.000017
N27	N	-1.226840	-0.318684	0.346693
C28	C	-1.322678	0.119331	0.000035
C29	C	-1.319806	0.250665	0.000024
C30	C	-1.130985	0.243307	0.000006
C31	C	-1.133858	0.111975	0.000006
C32	C	-1.431693	0.123580	0.000052
C33	C	-1.428821	0.254914	0.000041
N34	N	-1.226839	-0.318661	-0.346636
C35	C	-1.296777	-0.241707	0.423350
C36	C	-1.296775	-0.241691	0.576687
C37	C	-1.156894	-0.395641	0.576697
C38	C	-1.156892	-0.395648	0.423363
C39	C	-1.377540	-0.152829	0.423345
C40	C	-1.377537	-0.152814	0.576682
H41	H	-0.891020	-0.492536	0.000026
N42	N	-1.477574	0.071348	0.139431
H43	H	-1.497646	0.142709	0.206766
H44	H	-1.541388	0.020394	0.115231
N45	N	-1.472486	0.310620	-0.139258
H46	H	-1.430481	0.279724	-0.225712
H47	H	-1.547452	0.284252	-0.151067
H48	H	-1.452867	-0.191638	0.375788
N49	N	-0.728396	-0.614533	0.000015
H50	H	-0.670380	-0.678979	0.000009
H51	H	-0.772802	-0.625800	0.090318
H52	H	-1.099935	-0.458317	0.360951
N53	N	-0.551368	-0.112939	0.000052
H54	H	-0.506966	-0.101563	-0.090241
H55	H	-0.609432	-0.048561	0.000111
H56	H	-1.474333	0.089571	-0.101886
H57	H	-0.520780	-0.554937	0.000041
N58	N	-1.081450	-0.478646	0.659391
H59	H	-1.092060	-0.466958	0.768160
H60	H	-1.094067	-0.569259	0.632601
N61	N	-1.033580	0.037192	-0.000019
H62	H	-1.030552	-0.017466	0.090279
H63	H	-1.030633	-0.017383	-0.090385
H64	H	-1.469895	0.292190	0.101986
H65	H	-1.359826	-0.054364	0.381727
H66	H	-1.352330	-0.058841	0.624231
H67	H	-1.457265	-0.183033	0.618300
H68	H	-0.932904	-0.082421	0.000008
N69	N	-0.725267	-0.022823	0.000029
H70	H	-0.680871	-0.011452	-0.090271
H71	H	-0.783338	0.041545	0.000082
N72	N	-1.027609	0.310161	-0.000020
H73	H	-1.039894	0.403882	-0.000023
H74	H	-0.986880	0.285602	0.090283
