data_functionalizedCrystal
_audit_creation_method	'MofGen! by Chris Wilmer'
_symmetry_space_group_name_H-M	'P1'
_symmetry_Int_Tables_number	1
_symmetry_cell_setting	triclinic
loop_
_symmetry_equiv_pos_as_xyz
  x,y,z
_cell_length_a	13.897441
_cell_length_b	16.120530
_cell_length_c	13.897448
_cell_angle_alpha	87.113275
_cell_angle_beta	89.969401
_cell_angle_gamma	87.080937
loop_
_atom_site_label
_atom_site_type_symbol
_atom_site_fract_x
_atom_site_fract_y
_atom_site_fract_z
Zn1	Zn	-0.620100	1.274607	-0.458859
Zn2	Zn	-0.458796	1.274515	-0.620175
Zn3	Zn	-0.450646	1.135184	-0.450711
Zn4	Zn	-0.611880	1.135168	-0.611923
O5	O	-0.535356	1.204869	-0.535417
O6	O	-0.605554	1.391262	-0.487122
O7	O	-0.322732	1.256001	-0.597739
O8	O	-0.473153	1.153724	-0.316813
O9	O	-0.487045	1.391194	-0.605640
O10	O	-0.597651	1.256157	-0.322799
O11	O	-0.316743	1.153635	-0.473235
O12	O	-0.465182	1.018515	-0.465232
O13	O	-0.747954	1.153697	-0.591574
O14	O	-0.583641	1.018503	-0.583674
O15	O	-0.753994	1.256142	-0.479119
O16	O	-0.479074	1.255986	-0.754060
O17	O	-0.591544	1.153608	-0.747996
C18	C	-0.522636	0.988259	-0.522674
C19	C	-0.517217	0.895592	-0.517246
C20	C	-0.786952	1.204928	-0.535335
C21	C	-0.894168	1.204953	-0.535300
C22	C	-1.090464	1.204976	-0.535236
C23	C	-0.981231	1.204960	-0.535275
C24	C	-0.507332	0.725929	-0.507313
C25	C	-0.563450	0.684648	-0.563592
C26	C	-0.557950	0.590242	-0.558065
C27	C	-0.512831	0.820344	-0.512838
C28	C	-0.284741	1.204858	-0.535432
C29	C	-0.177535	1.204994	-0.535204
C30	C	-0.535324	1.204808	-0.786028
C31	C	-0.535347	1.204858	-0.893245
C32	C	-0.548126	1.422324	-0.548210
C33	C	-0.553568	1.514991	-0.553662
C34	C	-0.535413	1.204945	-1.089545
C35	C	-0.535379	1.204894	-0.980309
C36	C	-0.535410	1.204952	-0.283829
C37	C	-0.535433	1.204988	-0.176617
H38	H	-0.615626	0.720207	-0.615924
H39	H	-0.455161	0.690372	-0.454985
