data_functionalizedCrystal
_audit_creation_method	'MofGen! by Chris Wilmer'
_symmetry_space_group_name_H-M	'P1'
_symmetry_Int_Tables_number	1
_symmetry_cell_setting	triclinic
loop_
_symmetry_equiv_pos_as_xyz
  x,y,z
_cell_length_a	6.817900
_cell_length_b	19.551823
_cell_length_c	10.943624
_cell_angle_alpha	94.462887
_cell_angle_beta	108.838799
_cell_angle_gamma	101.663376
loop_
_atom_site_label
_atom_site_type_symbol
_atom_site_fract_x
_atom_site_fract_y
_atom_site_fract_z
V1	V	-4.079292	-0.096657	-0.403155
O2	O	-4.074951	0.004664	-0.394859
O3	O	-4.021653	-0.191672	-0.400995
O4	O	-4.057814	-0.095161	-0.578712
O5	O	-4.038540	-0.092515	-0.215912
V6	V	-4.560628	-0.084538	-0.380686
O7	O	-4.345346	-0.123239	-0.452441
O8	O	-4.744771	-0.057956	-0.331400
O9	O	-4.395060	0.010477	-0.382846
O10	O	-4.682366	-0.185859	-0.388982
O11	O	-4.718777	-0.088680	-0.567929
O12	O	-4.358899	-0.086034	-0.205129
C13	C	-3.863535	-0.214835	-0.394789
C14	C	-3.897876	-0.292511	-0.394193
C15	C	-3.909661	-0.091725	-0.621483
C16	C	-3.973323	-0.091132	-0.765006
C17	C	-4.096764	-0.332556	-0.400370
C18	C	-4.129037	-0.405542	-0.399823
C19	C	-3.962397	-0.438478	-0.393074
C20	C	-3.763484	-0.398424	-0.386904
C21	C	-3.731223	-0.325440	-0.387464
C22	C	-3.836613	-0.544970	-0.311204
C23	C	-3.868877	-0.617951	-0.310636
C24	C	-4.061895	-0.663584	-0.391353
C25	C	-4.222671	-0.636225	-0.472621
C26	C	-4.190411	-0.563242	-0.473181
C27	C	-3.997358	-0.517616	-0.392467
C28	C	-4.295791	-0.782770	-0.396939
C29	C	-4.328061	-0.855758	-0.396400
C30	C	-3.962496	-0.848637	-0.383467
C31	C	-3.930238	-0.775651	-0.384019
C32	C	-4.096891	-0.742722	-0.390749
C33	C	-3.819651	-0.087134	-0.842128
C34	C	-3.986783	-0.146473	-0.948489
C35	C	-3.919650	-0.030741	-0.914380
C36	C	-4.139646	-0.150527	-0.869490
C37	C	-4.072452	-0.034742	-0.835357
C38	C	-4.239715	-0.094098	-0.941688
C39	C	-4.216519	0.033636	-0.389048
C40	C	-4.161418	0.111311	-0.389653
C41	C	-4.170393	-0.089472	-0.162351
C42	C	-4.085969	-0.090062	-0.018827
H43	H	-4.232473	-0.305751	-0.405858
Br44	Br	-3.736343	-0.893329	-0.374329
Br45	Br	-3.650704	-0.655072	-0.200321
Br46	Br	-4.408587	-0.526113	-0.583475
H47	H	-4.232045	-0.201207	-0.849262
Br48	Br	-4.536732	-0.099024	-1.013798
Br49	Br	-3.537333	-0.443121	-0.377757
Br50	Br	-4.484644	-0.698146	-0.582168
H51	H	-3.569262	-0.292835	-0.382435
Br52	Br	-3.522761	-0.082354	-0.769673
Br53	Br	-3.927533	-0.225204	-1.030567
H54	H	-4.107923	0.012496	-0.786078
H55	H	-4.291001	-0.438154	-0.404852
Br56	Br	-4.598012	-0.910109	-0.404798
Br57	Br	-4.521967	-0.738078	-0.406099
Br58	Br	-3.660298	-0.721299	-0.375629
H59	H	-3.679421	-0.507820	-0.245479
Br60	Br	-3.765659	0.053638	-0.948389
