data_functionalizedCrystal
_audit_creation_method	'MofGen! by Chris Wilmer'
_symmetry_space_group_name_H-M	'P1'
_symmetry_Int_Tables_number	1
_symmetry_cell_setting	triclinic
loop_
_symmetry_equiv_pos_as_xyz
  x,y,z
_cell_length_a	17.699104
_cell_length_b	10.868271
_cell_length_c	17.699083
_cell_angle_alpha	90.002306
_cell_angle_beta	96.712734
_cell_angle_gamma	89.993943
loop_
_atom_site_label
_atom_site_type_symbol
_atom_site_fract_x
_atom_site_fract_y
_atom_site_fract_z
O1	O	-1.004066	0.102373	0.095783
O2	O	-0.670733	0.435707	0.429116
O3	O	-0.337399	0.769040	0.762449
O4	O	-0.783690	0.102365	0.108219
O5	O	-0.450357	0.435699	0.441552
O6	O	-0.117023	0.769032	0.774885
O7	O	-0.900104	0.102359	-0.008188
O8	O	-0.566771	0.435692	0.325145
O9	O	-0.233438	0.769025	0.658478
O10	O	-0.887652	0.102380	0.212189
O11	O	-0.554319	0.435713	0.545523
O12	O	-0.220985	0.769047	0.878856
O13	O	-0.900094	-0.102286	-0.008184
O14	O	-0.566760	0.231047	0.325149
O15	O	-0.233427	0.564381	0.658482
O16	O	-0.783679	-0.102279	0.108222
O17	O	-0.450346	0.231054	0.441556
O18	O	-0.117013	0.564387	0.774889
O19	O	-1.004056	-0.102271	0.095786
O20	O	-0.670722	0.231062	0.429120
O21	O	-0.337389	0.564395	0.762453
Zn22	Zn	-0.893866	-0.134767	0.102005
Zn23	Zn	-0.560532	0.198566	0.435338
Zn24	Zn	-0.227199	0.531900	0.768672
Zn25	Zn	-0.893880	0.134861	0.102000
Zn26	Zn	-0.560546	0.468195	0.435333
Zn27	Zn	-0.227213	0.801528	0.768667
O28	O	-0.887641	-0.102265	0.212193
O29	O	-0.554308	0.231069	0.545526
O30	O	-0.220975	0.564402	0.878860
C31	C	-0.755488	0.000042	0.107772
C32	C	-0.422155	0.333375	0.441105
C33	C	-0.088821	0.666709	0.774439
C34	C	-0.671471	0.000039	0.106427
C35	C	-0.338137	0.333372	0.439761
C36	C	-0.004804	0.666705	0.773094
N37	N	-0.893862	-0.318781	0.102008
N38	N	-0.560529	0.014552	0.435341
N39	N	-0.227195	0.347886	0.768675
C40	C	-0.146600	0.000045	0.167171
C41	C	0.186734	0.333378	0.500504
C42	C	0.520067	0.666712	0.833838
C43	C	-0.225543	0.000051	0.168430
C44	C	0.107790	0.333384	0.501764
C45	C	0.441123	0.666717	0.835097
C46	C	-0.274161	0.000045	0.100095
C47	C	0.059172	0.333378	0.433428
C48	C	0.392506	0.666711	0.766762
C49	C	-0.243831	0.000046	0.030496
C50	C	0.089502	0.333379	0.363829
C51	C	0.422835	0.666713	0.697163
C52	C	-0.164889	0.000049	0.029238
C53	C	0.168445	0.333383	0.362571
C54	C	0.501778	0.666716	0.695905
C55	C	-0.562197	0.000034	0.035569
C56	C	-0.228864	0.333368	0.368903
C57	C	0.104469	0.666701	0.702236
C58	C	-0.641144	0.000027	0.036833
C59	C	-0.307811	0.333361	0.370166
C60	C	0.025522	0.666694	0.703500
C61	C	-0.622852	0.000036	0.174762
C62	C	-0.289519	0.333369	0.508095
C63	C	0.043815	0.666702	0.841428
C64	C	-0.543909	0.000039	0.173503
C65	C	-0.210576	0.333372	0.506837
C66	C	0.122757	0.666706	0.840170
C67	C	-0.513587	0.000047	0.103905
C68	C	-0.180253	0.333380	0.437238
C69	C	0.153080	0.666713	0.770572
C70	C	-0.427987	0.000043	0.102541
C71	C	-0.094653	0.333376	0.435874
C72	C	0.238680	0.666710	0.769207
C73	C	-0.359759	0.000040	0.101459
C74	C	-0.026426	0.333373	0.434792
C75	C	0.306907	0.666706	0.768125
C76	C	-0.893868	-0.430119	0.102008
C77	C	-0.560534	-0.096785	0.435341
C78	C	-0.227201	0.236548	0.768675
C79	C	-0.893878	-0.569796	0.102001
C80	C	-0.560544	-0.236463	0.435334
C81	C	-0.227211	0.096870	0.768668
C82	C	-0.032258	0.000049	0.096233
C83	C	0.301076	0.333382	0.429566
C84	C	0.634409	0.666716	0.762899
C85	C	-0.116275	0.000043	0.097578
C86	C	0.217059	0.333376	0.430911
C87	C	0.550392	0.666709	0.764244
C88	C	-0.899653	0.000036	-0.036383
C89	C	-0.566319	0.333370	0.296950
C90	C	-0.232986	0.666703	0.630283
C91	C	-0.898314	0.000036	-0.120402
C92	C	-0.564981	0.333369	0.212932
C93	C	-0.231647	0.666702	0.546265
N94	N	-0.893890	0.318875	0.101991
N95	N	-0.560556	0.652209	0.435324
N96	N	-0.227223	0.985542	0.768658
C97	C	-0.966647	0.000036	-0.169017
C98	C	-0.633314	0.333370	0.164316
C99	C	-0.299980	0.666703	0.497649
C100	C	-0.965385	0.000047	-0.247961
C101	C	-0.632051	0.333381	0.085373
C102	C	-0.298718	0.666714	0.418706
C103	C	-0.895789	0.000049	-0.278287
C104	C	-0.562455	0.333382	0.055047
C105	C	-0.229122	0.666715	0.388380
C106	C	-0.827451	0.000052	-0.229665
C107	C	-0.494118	0.333385	0.103669
C108	C	-0.160784	0.666718	0.437002
C109	C	-0.828714	0.000050	-0.150723
C110	C	-0.495381	0.333383	0.182610
C111	C	-0.162047	0.666716	0.515944
C112	C	-0.822356	0.000061	-0.548028
C113	C	-0.489022	0.333395	-0.214695
C114	C	-0.155689	0.666728	0.118639
C115	C	-0.821098	0.000060	-0.626976
C116	C	-0.487764	0.333393	-0.293643
C117	C	-0.154431	0.666726	0.039690
C118	C	-0.959026	0.000059	-0.645266
C119	C	-0.625693	0.333392	-0.311933
C120	C	-0.292360	0.666726	0.021401
C121	C	-0.960289	0.000057	-0.566324
C122	C	-0.626956	0.333390	-0.232991
C123	C	-0.293623	0.666724	0.100342
C124	C	-0.891952	0.000067	-0.517709
C125	C	-0.558618	0.333400	-0.184376
C126	C	-0.225285	0.666733	0.148958
C127	C	-0.893321	0.000057	-0.432110
C128	C	-0.559988	0.333390	-0.098776
C129	C	-0.226655	0.666724	0.234557
C130	C	-0.894419	0.000049	-0.363885
C131	C	-0.561085	0.333383	-0.030551
C132	C	-0.227752	0.666716	0.302782
C133	C	-0.888093	0.000061	0.240388
C134	C	-0.554759	0.333394	0.573722
C135	C	-0.221426	0.666727	0.907055
C136	C	-0.889431	0.000069	0.324406
C137	C	-0.556098	0.333403	0.657740
C138	C	-0.222765	0.666736	0.991073
H139	H	-0.107020	0.000041	0.222818
H140	H	0.226313	0.333374	0.556151
H141	H	0.559647	0.666707	0.889484
O142	O	-0.652183	-0.000011	0.242438
O143	O	-0.318849	0.333322	0.575771
O144	O	0.014484	0.666655	0.909105
C145	C	-0.592342	0.000020	0.302480
C146	C	-0.259009	0.333353	0.635814
C147	C	0.074324	0.666687	0.969147
H148	H	-0.538749	-0.038726	0.281362
H149	H	-0.205416	0.294608	0.614695
H150	H	0.127917	0.627941	0.948029
H151	H	-0.608750	-0.059391	0.351079
H152	H	-0.275417	0.273942	0.684413
H153	H	0.057917	0.607275	1.017746
H154	H	-0.581139	0.098199	0.323552
H155	H	-0.247806	0.431532	0.656885
H156	H	0.085527	0.764866	0.990218
H157	H	-0.537518	0.000037	-0.021102
H158	H	-0.204185	0.333370	0.312232
H159	H	0.129148	0.666704	0.645565
H160	H	-1.023320	0.000028	-0.144333
H161	H	-0.689986	0.333361	0.189001
H162	H	-0.356653	0.666694	0.522334
H163	H	-0.250230	0.000064	0.225100
H164	H	0.083104	0.333398	0.558433
H165	H	0.416437	0.666731	0.891767
H166	H	-0.504328	0.000038	0.229149
H167	H	-0.170995	0.333371	0.562482
H168	H	0.162339	0.666704	0.895816
H169	H	-1.016961	0.000050	-0.541638
H170	H	-0.683628	0.333383	-0.208304
H171	H	-0.350295	0.666717	0.125029
O172	O	-0.290948	0.000100	-0.035955
O173	O	0.042385	0.333433	0.297378
O174	O	0.375719	0.666766	0.630711
C175	C	-0.247251	0.000071	-0.097651
C176	C	0.086082	0.333405	0.235683
C177	C	0.419415	0.666738	0.569016
H178	H	-0.188301	0.038818	-0.078329
H179	H	0.145032	0.372151	0.255005
H180	H	0.478366	0.705484	0.588338
H181	H	-0.276460	0.059484	-0.145521
H182	H	0.056873	0.392817	0.187813
H183	H	0.390207	0.726150	0.521146
H184	H	-0.241659	-0.098107	-0.118991
H185	H	0.091674	0.235226	0.214342
H186	H	0.425008	0.568560	0.547675
O187	O	-0.688266	0.000087	-0.029622
O188	O	-0.354932	0.333420	0.303711
O189	O	-0.021599	0.666754	0.637045
C190	C	-0.644575	0.000068	-0.091322
C191	C	-0.311242	0.333401	0.242011
C192	C	0.022092	0.666734	0.575345
H193	H	-0.585624	0.038814	-0.072003
H194	H	-0.252290	0.372147	0.261330
H195	H	0.081043	0.705480	0.594663
H196	H	-0.673788	0.059485	-0.139187
H197	H	-0.340455	0.392818	0.194146
H198	H	-0.007122	0.726152	0.527480
H199	H	-0.638984	-0.098108	-0.112668
H200	H	-0.305651	0.235226	0.220665
H201	H	0.027683	0.568559	0.553999
H202	H	-0.140200	0.000050	-0.027432
H203	H	0.193133	0.333383	0.305901
H204	H	0.526466	0.666716	0.639234
O205	O	-1.031833	-0.000015	-0.295078
O206	O	-0.698500	0.333318	0.038255
O207	O	-0.365166	0.666652	0.371589
C208	C	-1.093530	0.000003	-0.251384
C209	C	-0.760197	0.333337	0.081950
C210	C	-0.426863	0.666670	0.415283
H211	H	-1.074206	-0.038740	-0.192431
H212	H	-0.740873	0.294593	0.140903
H213	H	-0.407539	0.627926	0.474236
H214	H	-1.141393	-0.059417	-0.280591
H215	H	-0.808059	0.273917	0.052742
H216	H	-0.474726	0.607250	0.386076
H217	H	-1.114882	0.098178	-0.245797
H218	H	-0.781548	0.431511	0.087536
H219	H	-0.448215	0.764845	0.420869
O220	O	-0.762356	0.000264	-0.103463
O221	O	-0.429023	0.333597	0.229870
O222	O	-0.095689	0.666930	0.563203
C223	C	-0.758977	0.106236	-0.057239
C224	C	-0.425643	0.439570	0.276095
C225	C	-0.092310	0.772903	0.609428
H226	H	-0.797737	0.180314	-0.086220
H227	H	-0.464404	0.513647	0.247113
H228	H	-0.131070	0.846981	0.580447
H229	H	-0.697997	0.141814	-0.048251
H230	H	-0.364664	0.475148	0.285082
H231	H	-0.031331	0.808481	0.618416
H232	H	-0.778462	0.082275	0.000131
H233	H	-0.445128	0.415608	0.333465
H234	H	-0.111795	0.748942	0.666798
O235	O	-1.025342	0.000119	-0.692600
O236	O	-0.692009	0.333452	-0.359267
O237	O	-0.358675	0.666785	-0.025934
C238	C	-1.009310	0.000096	-0.768780
C239	C	-0.675976	0.333429	-0.435447
C240	C	-0.342643	0.666762	-0.102114
H241	H	-0.949871	0.038842	-0.771702
H242	H	-0.616537	0.372176	-0.438369
H243	H	-0.283204	0.705509	-0.105035
H244	H	-1.052881	0.059510	-0.804620
H245	H	-0.719548	0.392844	-0.471286
H246	H	-0.386214	0.726177	-0.137953
H247	H	-1.012214	-0.098081	-0.791621
H248	H	-0.678881	0.235252	-0.458288
H249	H	-0.345547	0.568586	-0.124954
O250	O	-0.753422	0.000126	-0.656310
O251	O	-0.420089	0.333459	-0.322977
O252	O	-0.086755	0.666793	0.010357
C253	C	-0.693375	0.000107	-0.596474
C254	C	-0.360042	0.333440	-0.263141
C255	C	-0.026709	0.666774	0.070193
H256	H	-0.714494	0.038848	-0.542881
H257	H	-0.381161	0.372182	-0.209547
H258	H	-0.047827	0.705515	0.123786
H259	H	-0.644786	0.059529	-0.612889
H260	H	-0.311453	0.392862	-0.279556
H261	H	0.021881	0.726196	0.053777
H262	H	-0.672291	-0.098067	-0.585268
H263	H	-0.338958	0.235266	-0.251934
H264	H	-0.005624	0.568599	0.081399
H265	H	-0.766711	0.000069	-0.508455
H266	H	-0.433377	0.333402	-0.175121
H267	H	-0.100044	0.666735	0.158212
H268	H	-0.770785	0.000060	-0.254362
H269	H	-0.437451	0.333394	0.078971
H270	H	-0.104118	0.666727	0.412304
