data_functionalizedCrystal
_audit_creation_method	'MofGen! by Chris Wilmer'
_symmetry_space_group_name_H-M	'P1'
_symmetry_Int_Tables_number	1
_symmetry_cell_setting	triclinic
loop_
_symmetry_equiv_pos_as_xyz
  x,y,z
_cell_length_a	14.519709
_cell_length_b	16.109301
_cell_length_c	14.586319
_cell_angle_alpha	90.000787
_cell_angle_beta	89.995260
_cell_angle_gamma	96.429187
loop_
_atom_site_label
_atom_site_type_symbol
_atom_site_fract_x
_atom_site_fract_y
_atom_site_fract_z
O1	O	0.118540	-1.103336	-0.076184
O2	O	0.618540	-0.603336	0.423816
O3	O	0.133292	-0.861300	-0.076199
O4	O	0.633292	-0.361300	0.423801
O5	O	-0.008336	-0.988735	-0.076183
O6	O	0.491664	-0.488735	0.423817
O7	O	0.260168	-0.975901	-0.076200
O8	O	0.760168	-0.475901	0.423800
O9	O	-0.008338	-0.988726	0.076298
O10	O	0.491662	-0.488726	0.576298
O11	O	0.133290	-0.861291	0.076282
O12	O	0.633290	-0.361291	0.576282
O13	O	0.118538	-1.103327	0.076296
O14	O	0.618538	-0.603327	0.576296
Cu15	Cu	0.125914	-0.982308	0.090212
Cu16	Cu	0.625914	-0.482308	0.590212
Cu17	Cu	0.125916	-0.982319	-0.090114
Cu18	Cu	0.625916	-0.482319	0.409886
O19	O	0.260166	-0.975892	0.076280
O20	O	0.760166	-0.475892	0.576280
C21	C	-0.042696	-0.988132	0.000057
C22	C	0.457304	-0.488132	0.500057
C23	C	-0.145073	-0.986340	0.000058
C24	C	0.354927	-0.486340	0.500058
C25	C	0.132693	-0.830319	0.000039
C26	C	0.632693	-0.330319	0.500039
C27	C	0.130902	-0.738021	0.000034
C28	C	0.630902	-0.238021	0.500034
C29	C	0.119136	-1.134307	0.000056
C30	C	0.619136	-0.634307	0.500056
C31	C	0.120928	-1.226606	0.000055
C32	C	0.620928	-0.726606	0.500055
C33	C	-0.519955	-0.979741	0.000034
C34	C	-0.019955	-0.479741	0.500034
C35	C	-0.415651	-0.981574	0.000041
C36	C	0.084349	-0.481574	0.500041
C37	C	-0.332517	-0.983041	0.000047
C38	C	0.167483	-0.483041	0.500047
C39	C	-0.228207	-0.984873	0.000052
C40	C	0.271793	-0.484873	0.500052
C41	C	0.294526	-0.976494	0.000038
C42	C	0.794526	-0.476494	0.500038
C43	C	0.396903	-0.978287	0.000031
C44	C	0.896903	-0.478287	0.500031
N45	N	0.125911	-0.982307	0.217044
N46	N	0.625911	-0.482307	0.717044
C47	C	0.210775	-0.515887	0.000040
C48	C	0.710775	-0.015887	0.500040
C49	C	0.209085	-0.429163	0.000046
C50	C	0.709085	0.070837	0.500046
C51	C	0.041048	-0.448747	0.000053
C52	C	0.541048	0.051253	0.500053
C53	C	0.042739	-0.535468	0.000053
C54	C	0.542739	-0.035468	0.500053
C55	C	0.127606	-0.569036	0.000042
C56	C	0.627606	-0.069036	0.500042
C57	C	0.124224	-0.395591	0.000047
C58	C	0.624224	0.104409	0.500047
C59	C	0.122390	-0.301562	0.000054
C60	C	0.622390	0.198438	0.500054
C61	C	0.129440	-0.663071	0.000037
C62	C	0.629440	-0.163071	0.500037
N63	N	0.125911	-0.982326	-0.216946
N64	N	0.625911	-0.482326	0.283054
C65	C	0.063219	-1.038754	0.452057
C66	C	0.563219	-0.538754	0.952057
C67	C	0.063217	-1.038756	0.548038
C68	C	0.563217	-0.538756	1.048038
C69	C	0.188606	-0.925873	0.548034
C70	C	0.688606	-0.425873	1.048034
C71	C	0.188603	-0.925868	0.452054
C72	C	0.688603	-0.425868	0.952054
C73	C	0.125911	-0.982313	0.404068
C74	C	0.625911	-0.482313	0.904068
C75	C	0.125912	-0.982321	0.596029
C76	C	0.625912	-0.482321	1.096029
C77	C	0.125910	-0.982323	0.700096
C78	C	0.625910	-0.482323	1.200096
C79	C	0.125911	-0.982310	0.299995
C80	C	0.625911	-0.482310	0.799995
H81	H	0.279879	-0.543214	0.000037
H82	H	0.779879	-0.043214	0.500037
H83	H	0.276810	-0.385892	0.000045
H84	H	0.776810	0.114108	0.500045
C85	C	-0.052300	-0.411814	0.000056
C86	C	0.447700	0.088186	0.500056
N87	N	-0.122612	-0.383997	0.000055
N88	N	0.377388	0.116003	0.500055
H89	H	-0.024991	-0.578745	0.000058
H90	H	0.475009	-0.078745	0.500058
C91	C	-0.005751	-1.100838	0.399276
C92	C	0.494249	-0.600838	0.899276
N93	N	-0.057705	-1.147600	0.359524
N94	N	0.442295	-0.647600	0.859524
H95	H	0.012167	-1.084715	0.587108
H96	H	0.512167	-0.584715	1.087108
H97	H	0.239650	-0.879918	0.587113
H98	H	0.739650	-0.379918	1.087113
C99	C	0.257614	-0.863812	0.399263
C100	C	0.757614	-0.363812	0.899263
N101	N	0.309605	-0.817087	0.359501
N102	N	0.809605	-0.317087	0.859501
