data_functionalizedCrystal
_audit_creation_method	'MofGen! by Chris Wilmer'
_symmetry_space_group_name_H-M	'P1'
_symmetry_Int_Tables_number	1
_symmetry_cell_setting	triclinic
loop_
_symmetry_equiv_pos_as_xyz
  x,y,z
_cell_length_a	19.288855
_cell_length_b	16.992697
_cell_length_c	16.053802
_cell_angle_alpha	87.249882
_cell_angle_beta	92.553915
_cell_angle_gamma	86.900347
loop_
_atom_site_label
_atom_site_type_symbol
_atom_site_fract_x
_atom_site_fract_y
_atom_site_fract_z
O1	O	-0.144518	-1.043177	0.069316
O2	O	0.355482	-0.543177	0.569316
O3	O	-0.142901	-0.814899	0.069344
O4	O	0.357099	-0.314899	0.569344
O5	O	-0.042964	-0.935638	0.069318
O6	O	0.457036	-0.435638	0.569318
O7	O	-0.244455	-0.922439	0.069342
O8	O	0.255545	-0.422439	0.569342
O9	O	-0.048441	-0.928992	-0.069539
O10	O	0.451559	-0.428992	0.430461
O11	O	-0.148378	-0.808254	-0.069513
O12	O	0.351622	-0.308254	0.430487
O13	O	-0.149995	-1.036532	-0.069541
O14	O	0.350005	-0.536532	0.430459
Zn15	Zn	-0.150056	-0.921337	-0.091574
Zn16	Zn	0.349944	-0.421337	0.408426
Zn17	Zn	-0.142840	-0.930093	0.091377
Zn18	Zn	0.357160	-0.430093	0.591377
O19	O	-0.249932	-0.915793	-0.069516
O20	O	0.250068	-0.415793	0.430484
C21	C	-0.143561	-0.782371	-0.000081
C22	C	0.356439	-0.282371	0.499919
C23	C	-0.137360	-0.695350	-0.000071
C24	C	0.362640	-0.195350	0.499929
C25	C	-0.197188	-0.644896	-0.000064
C26	C	0.302812	-0.144896	0.499936
C27	C	-0.191358	-0.563130	-0.000075
C28	C	0.308642	-0.063130	0.499925
C29	C	-0.125699	-0.531819	-0.000087
C30	C	0.374301	-0.031819	0.499913
C31	C	-0.065867	-0.582279	-0.000096
C32	C	0.434133	-0.082279	0.499904
C33	C	-0.071697	-0.664044	-0.000091
C34	C	0.428303	-0.164044	0.499909
C35	C	-0.101532	-0.288307	-0.000108
C36	C	0.398468	0.211693	0.499892
C37	C	-0.095706	-0.206536	-0.000110
C38	C	0.404294	0.293464	0.499890
C39	C	-0.221197	-0.187392	-0.000091
C40	C	0.278803	0.312608	0.499909
C41	C	-0.227022	-0.269159	-0.000081
C42	C	0.272978	0.230841	0.499919
C43	C	-0.167190	-0.319612	-0.000094
C44	C	0.332810	0.180388	0.499906
N45	N	-0.119738	-0.448241	-0.000095
N46	N	0.380262	0.051759	0.499905
N47	N	-0.173152	-0.403188	-0.000092
N48	N	0.326848	0.096812	0.499908
C49	C	-0.019801	-0.931892	-0.000111
C50	C	0.480199	-0.431892	0.499889
C51	C	0.057377	-0.930620	-0.000114
C52	C	0.557377	-0.430620	0.499886
C53	C	0.096607	-0.933650	0.075577
C54	C	0.596607	-0.433650	0.575577
C55	C	0.169124	-0.932444	0.075583
C56	C	0.669124	-0.432444	0.575583
C57	C	0.202408	-0.928225	-0.000107
C58	C	0.702408	-0.428225	0.499893
C59	C	0.163168	-0.925191	-0.075808
C60	C	0.663168	-0.425191	0.424192
C61	C	0.090652	-0.926389	-0.075812
C62	C	0.590652	-0.426389	0.424188
C63	C	0.317787	-0.969470	-0.058096
C64	C	0.817787	-0.469470	0.441904
C65	C	0.390301	-0.968277	-0.058090
C66	C	0.890301	-0.468277	0.441910
C67	C	0.426070	-0.924528	-0.000099
C68	C	0.926070	-0.424528	0.499901
C69	C	0.389316	-0.881983	0.057898
C70	C	0.889316	-0.381983	0.557898
C71	C	0.316800	-0.883180	0.057895
C72	C	0.816800	-0.383180	0.557895
C73	C	0.281039	-0.926926	-0.000112
C74	C	0.781039	-0.426926	0.499888
C75	C	0.543931	-0.926250	0.075603
C76	C	1.043931	-0.426250	0.575603
C77	C	0.616449	-0.925039	0.075606
C78	C	1.116449	-0.425039	0.575606
C79	C	0.610492	-0.917794	-0.075787
C80	C	1.110492	-0.417794	0.424213
C81	C	0.537975	-0.918997	-0.075788
C82	C	1.037975	-0.418997	0.424212
C83	C	0.504700	-0.923228	-0.000090
C84	C	1.004700	-0.423228	0.499910
C85	C	0.726905	-0.919541	-0.000086
C86	C	1.226905	-0.419541	0.499914
C87	C	0.649728	-0.920819	-0.000085
C88	C	1.149728	-0.420819	0.499915
C89	C	-0.149334	-0.069060	-0.000110
C90	C	0.350666	0.430940	0.499890
C91	C	-0.155534	-0.156082	-0.000103
C92	C	0.344466	0.343918	0.499897
N93	N	-0.154980	-0.915367	-0.216433
N94	N	0.345020	-0.415367	0.283567
C95	C	-0.112474	-0.966761	-0.260138
C96	C	0.387526	-0.466761	0.239862
C97	C	-0.115926	-0.962592	-0.347544
C98	C	0.384074	-0.462592	0.152456
C99	C	-0.161888	-0.907033	-0.391243
C100	C	0.338112	-0.407033	0.108757
C101	C	-0.204396	-0.855634	-0.347532
C102	C	0.295604	-0.355634	0.152468
C103	C	-0.200940	-0.859800	-0.260128
C104	C	0.299060	-0.359800	0.239872
C105	C	-0.176963	-0.888837	-0.652649
C106	C	0.323037	-0.388837	-0.152649
C107	C	-0.180417	-0.884677	-0.740059
C108	C	0.319583	-0.384677	-0.240059
C109	C	-0.091946	-0.991633	-0.740065
C110	C	0.408054	-0.491633	-0.240065
C111	C	-0.088497	-0.995797	-0.652659
C112	C	0.411503	-0.495797	-0.152659
C113	C	-0.131002	-0.944396	-0.608956
C114	C	0.368998	-0.444396	-0.108956
N115	N	-0.165418	-0.902772	-0.480586
N116	N	0.334582	-0.402772	0.019414
N117	N	-0.127467	-0.948654	-0.519614
N118	N	0.372533	-0.448654	-0.019614
N119	N	-0.137911	-0.936070	0.216236
N120	N	0.362089	-0.436070	0.716236
H121	H	-0.012406	-0.556779	-0.000118
H122	H	0.487594	-0.056779	0.499882
O123	O	-0.024885	-0.172761	-0.000135
O124	O	0.475115	0.327239	0.499865
H125	H	0.006326	-0.195748	0.056449
H126	H	0.506326	0.304252	0.556449
H127	H	-0.052812	-0.329376	-0.000120
H128	H	0.447188	0.170624	0.499880
H129	H	0.648389	-0.927502	0.137245
H130	H	1.148389	-0.427502	0.637245
H131	H	-0.022979	-0.705123	-0.000097
H132	H	0.477021	-0.205123	0.499903
O133	O	0.199071	-0.920647	-0.157442
O134	O	0.699071	-0.420647	0.342558
H135	H	0.180508	-0.865716	-0.193731
H136	H	0.680508	-0.365716	0.306269
H137	H	-0.235552	-0.817949	-0.224544
H138	H	0.264448	-0.317949	0.275456
H139	H	0.058711	-0.923918	-0.137450
H140	H	0.558711	-0.423918	0.362550
H141	H	-0.081313	-1.004439	-0.383128
H142	H	0.418687	-0.504439	0.116872
H143	H	-0.057339	-1.033481	-0.775656
H144	H	0.442661	-0.533481	-0.275656
O145	O	-0.255886	-0.508709	-0.000068
O146	O	0.244114	-0.008709	0.499932
H147	H	-0.302521	-0.544218	-0.000048
H148	H	0.197479	-0.044218	0.499952
O149	O	-0.297841	-0.302930	-0.000089
O150	O	0.202159	0.197070	0.499911
H151	H	-0.338466	-0.254108	-0.000099
H152	H	0.161534	0.245892	0.499901
H153	H	-0.269909	-0.146305	-0.000081
H154	H	0.230091	0.353695	0.499919
H155	H	-0.075050	-1.012006	-0.224564
H156	H	0.424950	-0.512006	0.275436
O157	O	0.060714	-0.938194	0.157218
O158	O	0.560714	-0.438194	0.657218
H159	H	0.100181	-0.940087	0.209852
H160	H	0.600181	-0.440087	0.709852
O161	O	0.211451	-0.935714	0.157223
O162	O	0.711451	-0.435714	0.657223
H163	H	0.176130	-0.938860	0.209858
H164	H	0.676130	-0.438860	0.709858
O165	O	-0.038918	-1.055715	-0.605525
O166	O	0.461082	-0.555715	-0.105525
H167	H	-0.009934	-1.090747	-0.650601
H168	H	0.490066	-0.590747	-0.150601
H169	H	0.286878	-0.848536	0.105117
H170	H	0.786878	-0.348536	0.605117
O171	O	-0.229983	-0.824741	-0.787198
O172	O	0.270017	-0.324741	-0.287198
H173	H	-0.258953	-0.789690	-0.742125
H174	H	0.241047	-0.289690	-0.242125
H175	H	0.418437	-0.846358	0.105120
H176	H	0.918437	-0.346358	0.605120
O177	O	0.508031	-0.930798	0.157242
O178	O	1.008031	-0.430798	0.657242
H179	H	0.547496	-0.932687	0.209878
H180	H	1.047496	-0.432687	0.709878
O181	O	0.646379	-0.913249	-0.157428
O182	O	1.146379	-0.413249	0.342572
H183	H	0.703396	-0.912931	-0.144711
H184	H	1.203396	-0.412931	0.355289
H185	H	-0.211574	-0.846985	-0.617072
H186	H	0.288426	-0.346985	-0.117072
O187	O	0.495663	-0.915744	-0.157432
O188	O	0.995663	-0.415744	0.342568
H189	H	0.459259	-0.862693	-0.161056
H190	H	0.959259	-0.362693	0.338944
O191	O	-0.253974	-0.795711	-0.394659
O192	O	0.246026	-0.295711	0.105341
H193	H	-0.249243	-0.801454	-0.462779
H194	H	0.250757	-0.301454	0.037221
H195	H	-0.250654	-0.670382	-0.000053
H196	H	0.249346	-0.170382	0.499947
H197	H	0.420221	-1.002924	-0.105312
H198	H	0.920221	-0.502924	0.394688
H199	H	0.288670	-1.005094	-0.105325
H200	H	0.788670	-0.505094	0.394675
