data_functionalizedCrystal
_audit_creation_method	'MofGen! by Chris Wilmer'
_symmetry_space_group_name_H-M	'P1'
_symmetry_Int_Tables_number	1
_symmetry_cell_setting	triclinic
loop_
_symmetry_equiv_pos_as_xyz
  x,y,z
_cell_length_a	10.654545
_cell_length_b	10.489716
_cell_length_c	9.130313
_cell_angle_alpha	89.999518
_cell_angle_beta	89.996934
_cell_angle_gamma	84.506107
loop_
_atom_site_label
_atom_site_type_symbol
_atom_site_fract_x
_atom_site_fract_y
_atom_site_fract_z
O1	O	1.667911	0.179137	-0.121770
O2	O	1.302438	0.196212	-0.121775
O3	O	1.493507	0.002070	-0.121778
O4	O	1.476843	0.373278	-0.121768
O5	O	1.493494	0.002065	0.121821
O6	O	1.302425	0.196206	0.121824
O7	O	1.667898	0.179131	0.121828
Cu8	Cu	1.485160	0.187668	0.144069
Cu9	Cu	1.485176	0.187675	-0.144015
O10	O	1.476829	0.373273	0.121831
C11	C	1.255633	0.194957	0.000023
C12	C	1.116188	0.191209	0.000021
C13	C	1.050676	0.189442	0.132808
C14	C	0.919655	0.185900	0.132807
C15	C	0.919670	0.185897	-0.132777
C16	C	1.050690	0.189430	-0.132776
C17	C	1.492248	-0.045464	0.000017
C18	C	1.488502	-0.187093	0.000004
C19	C	1.605671	-0.284826	0.000018
C20	C	1.543763	-0.362153	-0.120085
C21	C	1.543723	-0.362122	0.120084
C22	C	1.426643	-0.262555	-0.120200
C23	C	1.426620	-0.262519	0.120078
C24	C	1.364625	-0.339797	-0.000056
C25	C	1.714703	0.180386	0.000027
C26	C	1.854148	0.184134	0.000019
C27	C	1.478088	0.420807	0.000033
C28	C	1.481834	0.562436	0.000037
N29	N	1.485159	0.187663	0.346691
N30	N	1.485188	0.187670	-0.346638
C31	C	1.569793	0.101733	0.423342
C32	C	1.569805	0.101733	0.576679
C33	C	1.400545	0.273604	0.576701
C34	C	1.400527	0.273596	0.423367
H35	H	1.104032	0.190866	-0.240913
C36	C	1.308579	0.367041	0.340399
C37	C	1.234496	0.442330	0.440363
C38	C	1.149793	0.528428	0.363987
H39	H	1.255771	0.320800	0.280594
H40	H	1.354191	0.420635	0.280598
H41	H	1.188888	0.388743	0.500138
H42	H	1.287270	0.488598	0.500171
H43	H	1.195405	0.582021	0.304186
H44	H	1.096994	0.482176	0.304185
H45	H	1.099526	0.579529	0.431800
H46	H	1.707589	-0.260200	-0.000102
C47	C	0.848785	0.183931	-0.277104
C48	C	0.934210	0.186205	-0.393393
C49	C	0.868961	0.184386	-0.526370
H50	H	0.788760	0.256792	-0.282825
H51	H	0.806616	0.108273	-0.282713
H52	H	0.976358	0.261854	-0.387787
H53	H	0.994237	0.113349	-0.387721
H54	H	0.826792	0.108729	-0.531980
H55	H	0.808938	0.257249	-0.532076
H56	H	0.926913	0.185917	-0.605288
H57	H	1.377196	-0.218979	0.221621
H58	H	1.104001	0.190890	0.240939
H59	H	1.638703	0.031759	0.360916
H60	H	1.638720	0.031760	0.639083
C61	C	1.609955	-0.420149	-0.255349
C62	C	1.736032	-0.392824	-0.254784
C63	C	1.797058	-0.446241	-0.379349
H64	H	1.569335	-0.384772	-0.340750
H65	H	1.606468	-0.510311	-0.254814
H66	H	1.739512	-0.302681	-0.255334
H67	H	1.776687	-0.428203	-0.169412
H68	H	1.793571	-0.536402	-0.378813
H69	H	1.756428	-0.410859	-0.464740
H70	H	1.882610	-0.427718	-0.378975
H71	H	1.331641	0.343571	0.639145
H72	H	0.866321	0.184461	0.240936
C73	C	1.360867	-0.204557	-0.255709
C74	C	1.365273	-0.071590	-0.254199
C75	C	1.304720	-0.018122	-0.379019
H76	H	1.275473	-0.223562	-0.256198
H77	H	1.402217	-0.239466	-0.340924
H78	H	1.323920	-0.036693	-0.169006
H79	H	1.450651	-0.052549	-0.253731
H80	H	1.346070	-0.053031	-0.464233
H81	H	1.219330	-0.037136	-0.379497
H82	H	1.307712	0.072100	-0.378017
H83	H	1.262631	-0.364176	-0.000122
H84	H	1.593204	-0.405622	0.221620
