data_functionalizedCrystal
_audit_creation_method	'MofGen! by Chris Wilmer'
_symmetry_space_group_name_H-M	'P1'
_symmetry_Int_Tables_number	1
_symmetry_cell_setting	triclinic
loop_
_symmetry_equiv_pos_as_xyz
  x,y,z
_cell_length_a	12.827893
_cell_length_b	16.625545
_cell_length_c	16.625539
_cell_angle_alpha	90.026243
_cell_angle_beta	90.015091
_cell_angle_gamma	90.025719
loop_
_atom_site_label
_atom_site_type_symbol
_atom_site_fract_x
_atom_site_fract_y
_atom_site_fract_z
Zn1	Zn	1.597553	-0.321012	0.455868
Zn2	Zn	1.930886	0.012322	0.789202
Zn3	Zn	2.264219	0.345655	1.122535
Zn4	Zn	1.597428	-0.455850	0.321036
Zn5	Zn	1.930762	-0.122517	0.654369
Zn6	Zn	2.264095	0.210816	0.987703
Zn7	Zn	1.422807	-0.321036	0.321053
Zn8	Zn	1.756140	0.012298	0.654387
Zn9	Zn	2.089473	0.345631	0.987720
Zn10	Zn	1.422748	-0.455806	0.455830
Zn11	Zn	1.756082	-0.122473	0.789164
Zn12	Zn	2.089415	0.210860	1.122497
O13	O	1.510134	-0.388426	0.388447
O14	O	1.843467	-0.055093	0.721780
O15	O	2.176801	0.278241	1.055114
O16	O	1.743772	-0.338907	0.437991
O17	O	2.077106	-0.005573	0.771324
O18	O	2.410439	0.327760	1.104658
O19	O	1.574237	-0.437995	0.208206
O20	O	1.907570	-0.104662	0.541539
O21	O	2.240904	0.228671	0.874872
O22	O	1.446064	-0.208200	0.338960
O23	O	1.779397	0.125133	0.672293
O24	O	2.112730	0.458467	1.005627
O25	O	1.743681	-0.437972	0.338930
O26	O	2.077014	-0.104639	0.672264
O27	O	2.410348	0.228695	1.005597
O28	O	1.574449	-0.208182	0.438008
O29	O	1.907782	0.125151	0.771341
O30	O	2.241115	0.458484	1.104674
O31	O	1.445943	-0.338948	0.208219
O32	O	1.779277	-0.005614	0.541552
O33	O	2.112610	0.327719	0.874885
O34	O	1.276563	-0.338905	0.338923
O35	O	1.609896	-0.005572	0.672257
O36	O	1.943230	0.327762	1.005590
O37	O	1.445964	-0.437897	0.568668
O38	O	1.779297	-0.104564	0.902001
O39	O	2.112631	0.228770	1.235334
O40	O	1.276520	-0.437920	0.437943
O41	O	1.609853	-0.104587	0.771277
O42	O	1.943187	0.228746	1.104610
O43	O	1.574392	-0.338864	0.568696
O44	O	1.907725	-0.005531	0.902029
O45	O	2.241059	0.327803	1.235362
O46	O	1.574180	-0.568677	0.338893
O47	O	1.907514	-0.235344	0.672227
O48	O	2.240847	0.097990	1.005560
O49	O	1.445844	-0.568645	0.437926
O50	O	1.779177	-0.235311	0.771260
O51	O	2.112510	0.098022	1.104593
C52	C	1.238624	-0.388411	0.388432
C53	C	1.571957	-0.055078	0.721765
C54	C	1.905291	0.278256	1.055098
C55	C	1.122471	-0.388424	0.388444
C56	C	1.455804	-0.055091	0.721777
C57	C	1.789138	0.278242	1.055111
C58	C	1.070731	-0.339490	0.437539
C59	C	1.404065	-0.006157	0.770872
C60	C	1.737398	0.327176	1.104206
C61	C	0.950681	-0.339503	0.437553
C62	C	1.284014	-0.006169	0.770886
C63	C	1.617348	0.327164	1.104220
C64	C	1.510021	-0.597917	0.388422
C65	C	1.843354	-0.264584	0.721755
C66	C	2.176687	0.068750	1.055088
C67	C	1.510068	-0.687538	0.388438
C68	C	1.843401	-0.354205	0.721771
C69	C	2.176734	-0.020871	1.055104
C70	C	1.510108	-0.760320	0.388454
C71	C	1.843441	-0.426987	0.721787
C72	C	2.176775	-0.093654	1.055120
C73	C	1.510169	-0.851629	0.388471
C74	C	1.843502	-0.518295	0.721805
C75	C	2.176836	-0.184962	1.055138
C76	C	1.510223	-0.924405	0.388482
C77	C	1.843557	-0.591072	0.721815
C78	C	2.176890	-0.257739	1.055148
C79	C	1.510283	-1.015720	0.388498
C80	C	1.843616	-0.682386	0.721832
C81	C	2.176950	-0.349053	1.055165
C82	C	1.782704	-0.388441	0.388463
C83	C	2.116037	-0.055108	0.721796
C84	C	2.449371	0.278225	1.055129
C85	C	1.898857	-0.388448	0.388470
C86	C	2.232191	-0.055115	0.721803
C87	C	2.565524	0.278219	1.055136
C88	C	1.510185	-0.388373	0.598756
C89	C	1.843519	-0.055039	0.932089
C90	C	2.176852	0.278294	1.265423
C91	C	1.510207	-0.388350	0.688377
C92	C	1.843540	-0.055017	1.021710
C93	C	2.176874	0.278317	1.355044
C94	C	1.510277	-0.178117	0.388490
C95	C	1.843610	0.155216	0.721823
C96	C	2.176943	0.488550	1.055157
C97	C	1.510337	-0.088496	0.388508
C98	C	1.843671	0.244837	0.721842
C99	C	2.177004	0.578171	1.055175
C100	C	1.510143	-0.388421	0.178956
C101	C	1.843477	-0.055087	0.512289
C102	C	2.176810	0.278246	0.845623
C103	C	1.510324	-0.388216	0.089335
C104	C	1.843657	-0.054883	0.422669
C105	C	2.176991	0.278450	0.756002
C106	C	1.510224	-0.388332	0.761160
C107	C	1.843557	-0.054999	1.094493
C108	C	2.176891	0.278334	1.427826
C109	C	1.510249	-0.388302	0.852468
C110	C	1.843582	-0.054969	1.185801
C111	C	2.176915	0.278364	1.519135
C112	C	1.510273	-0.388274	0.925245
C113	C	1.843606	-0.054941	1.258578
C114	C	2.176940	0.278393	1.591911
C115	C	1.510299	-0.388245	1.016559
C116	C	1.843633	-0.054911	1.349892
C117	C	2.176966	0.278422	1.683226
H118	H	1.077891	-0.430326	0.346421
H119	H	1.411224	-0.096992	0.679754
H120	H	1.744557	0.236341	1.013088
H121	H	1.115312	-0.297584	0.479557
H122	H	1.448645	0.035749	0.812891
H123	H	1.781978	0.369082	1.146224
H124	H	0.906186	-0.297611	0.479587
H125	H	1.239519	0.035722	0.812921
H126	H	1.572852	0.369055	1.146254
F127	F	0.957005	-0.443215	0.333531
F128	F	1.290338	-0.109882	0.666864
F129	F	1.623672	0.223452	1.000197
