data_functionalizedCrystal
_audit_creation_method	'MofGen! by Chris Wilmer'
_symmetry_space_group_name_H-M	'P1'
_symmetry_Int_Tables_number	1
_symmetry_cell_setting	triclinic
loop_
_symmetry_equiv_pos_as_xyz
  x,y,z
_cell_length_a	15.698487
_cell_length_b	20.016444
_cell_length_c	20.016444
_cell_angle_alpha	90.001375
_cell_angle_beta	119.999238
_cell_angle_gamma	119.999356
loop_
_atom_site_label
_atom_site_type_symbol
_atom_site_fract_x
_atom_site_fract_y
_atom_site_fract_z
Zr1	Zr	-0.932443	0.643571	-0.087674
O2	O	-1.110154	0.536892	-0.194345
O3	O	-0.754732	0.676275	-0.054976
O4	O	-0.932451	0.676266	-0.194353
O5	O	-0.932427	0.536907	0.054976
O6	O	-0.932458	0.786206	-0.194356
O7	O	-0.932434	0.536901	-0.054969
O8	O	-0.614550	0.786221	0.054963
O9	O	-1.250335	0.536892	-0.194342
O10	O	-0.827832	0.772269	-0.041031
O11	O	-0.827822	0.690226	0.041023
O12	O	-1.037063	0.690216	-0.123075
O13	O	-1.037053	0.608174	-0.041022
Zr14	Zr	-0.932442	0.818922	0.087671
Zr15	Zr	-0.932453	0.818913	-0.087679
Zr16	Zr	-0.932432	0.643581	0.087675
Zr17	Zr	-1.156016	0.643570	-0.087670
Zr18	Zr	-0.708869	0.818923	0.087666
O19	O	-1.110153	0.786219	0.054973
O20	O	-1.110168	0.786206	-0.194352
O21	O	-1.110138	0.536906	0.054980
O22	O	-0.754731	0.925601	0.194341
O23	O	-0.754746	0.925588	-0.054984
O24	O	-0.754716	0.676288	0.194348
O25	O	-0.932457	0.925587	-0.054980
O26	O	-0.932434	0.786227	0.194349
O27	O	-0.932427	0.676287	0.194352
O28	O	-0.932451	0.925593	0.054965
O29	O	-1.250343	0.676265	-0.194346
O30	O	-0.614542	0.786229	0.194342
O31	O	-0.614550	0.925602	0.194338
O32	O	-0.614558	0.925594	0.054959
O33	O	-1.250326	0.536899	-0.054962
O34	O	-1.250335	0.676272	-0.054966
O35	O	-0.827822	0.772277	0.123071
O36	O	-0.827831	0.854320	0.041018
O37	O	-1.037063	0.772267	-0.041026
O38	O	-1.037053	0.690225	0.041027
C39	C	-0.652786	0.731248	-0.000008
C40	C	-0.557874	0.731249	-0.000009
C41	C	-0.932429	0.511921	0.000004
C42	C	-0.932425	0.437484	0.000006
C43	C	-0.384091	0.731247	0.000005
C44	C	-0.480796	0.731246	-0.000001
C45	C	-0.212098	0.731246	0.000003
C46	C	-0.307010	0.731249	0.000003
C47	C	-0.823228	0.239098	0.042828
C48	C	-0.823221	0.309044	0.042829
C49	C	-1.041666	0.223388	-0.042837
C50	C	-1.041671	0.153443	-0.042843
C51	C	-0.932449	0.161302	-0.000005
C52	C	-0.932436	0.301192	0.000002
C53	C	-0.932429	0.377030	0.000003
C54	C	-0.932455	0.085459	-0.000008
C55	C	-0.932456	0.731235	-0.219338
C56	C	-0.932460	0.731231	-0.293778
C57	C	-0.932455	0.950572	-0.000008
C58	C	-0.932460	1.025009	-0.000010
C59	C	-1.041663	0.688415	-0.507861
C60	C	-1.041658	0.688422	-0.577802
C61	C	-0.823213	0.774084	-0.492135
C62	C	-0.823219	0.774081	-0.422195
C63	C	-0.932448	0.731242	-0.430062
C64	C	-0.932437	0.731251	-0.569942
C65	C	-0.932430	0.731259	-0.645775
C66	C	-0.932455	0.731236	-0.354224
C67	C	-0.932429	0.731258	0.219334
C68	C	-0.932425	0.731262	0.293775
C69	C	-0.652800	0.950574	-0.000014
C70	C	-0.557891	1.025011	-0.000018
C71	C	-0.652773	0.731260	0.219328
C72	C	-0.557856	0.731264	0.293767
C73	C	-0.652786	0.950585	0.219322
C74	C	-0.557873	1.025027	0.293759
C75	C	-1.212099	0.511908	-0.219326
C76	C	-1.307011	0.437467	-0.293762
C77	C	-1.212085	0.511920	0.000010
C78	C	-1.306994	0.437482	0.000014
C79	C	-1.212112	0.731234	-0.219332
C80	C	-1.307029	0.731229	-0.293771
C81	C	-0.513321	1.017138	-0.042855
C82	C	-0.424157	1.087073	-0.042876
C83	C	-0.379559	1.164881	-0.000053
C84	C	-0.424137	1.172752	0.042786
C85	C	-0.513306	1.102818	0.042801
C86	C	-0.513282	0.774096	0.371560
C87	C	-0.424109	0.774097	0.441510
C88	C	-0.379507	0.731270	0.433665
C89	C	-0.424090	0.688433	0.355863
C90	C	-0.513266	0.688428	0.285915
C91	C	-0.513306	1.102818	0.285884
C92	C	-0.424138	1.172770	0.355818
C93	C	-0.379532	1.164930	0.433627
C94	C	-0.424108	1.087130	0.441500
C95	C	-0.513281	1.017180	0.371566
C96	C	-1.351589	0.359676	-0.285888
C97	C	-1.440785	0.289723	-0.355822
C98	C	-1.485396	0.297564	-0.433630
C99	C	-1.440814	0.375363	-0.441503
C100	C	-1.351626	0.445314	-0.371570
C101	C	-1.351573	0.445356	0.042844
C102	C	-1.440761	0.375420	0.042845
C103	C	-1.485363	0.297613	0.000020
C104	C	-1.440780	0.289741	-0.042816
C105	C	-1.351599	0.359675	-0.042821
C106	C	-1.351603	0.774064	-0.285899
C107	C	-1.440776	0.774076	-0.355836
C108	C	-1.485379	0.731248	-0.433643
C109	C	-1.440796	0.688411	-0.441512
C110	C	-1.351619	0.688405	-0.371577
H111	H	-0.734282	0.372386	0.077709
O112	O	-1.484243	0.382827	-0.517150
C113	C	-1.572536	0.304400	-0.577177
H114	H	-1.557879	0.258052	-0.549899
H115	H	-1.565309	0.305147	-0.631117
H116	H	-1.665812	0.286582	-0.599054
O117	O	-0.556416	1.110618	0.084496
C118	C	-0.497941	1.194292	0.122270
H119	H	-0.407565	1.231579	0.130727
H120	H	-0.482541	1.204059	0.184495
H121	H	-0.556432	1.214897	0.082136
H122	H	-1.315332	0.508653	-0.377991
H123	H	-1.315301	0.808940	-0.222551
O124	O	-0.556815	0.815575	0.379085
C125	C	-0.681771	0.760579	0.341203
H126	H	-0.719580	0.704212	0.293538
H127	H	-0.727988	0.791643	0.310147
H128	H	-0.698786	0.741411	0.389291
H129	H	-1.315336	0.653520	-0.377997
H130	H	-0.734291	0.245501	0.077707
H131	H	-1.557994	0.731259	-0.490582
H132	H	-1.558018	0.240599	-0.490568
O133	O	-0.556526	0.941543	-0.084329
C134	C	-0.534753	0.898515	-0.029351
H135	H	-0.456585	0.943897	0.035175
H136	H	-0.511141	0.859840	-0.047925
H137	H	-0.618923	0.857014	-0.030848
O138	O	-0.380899	0.815789	0.517018
C139	C	-0.439405	0.853577	0.508933
H140	H	-0.476146	0.862044	0.446514
H141	H	-0.372512	0.915798	0.559088
H142	H	-0.516865	0.813446	0.514661
O143	O	-0.556718	0.646841	0.210287
C144	C	-0.644967	0.656033	0.150222
H145	H	-0.684000	0.671795	0.177456
H146	H	-0.719971	0.596419	0.096285
H147	H	-0.602292	0.707314	0.128352
H148	H	-0.549611	1.109217	0.222535
H149	H	-0.387854	1.236112	0.349393
O150	O	-0.380757	1.079413	0.517040
C151	C	-0.329125	1.036296	0.526025
H152	H	-0.369415	0.997678	0.463070
H153	H	-0.348656	0.994735	0.562829
H154	H	-0.227557	1.081606	0.559442
H155	H	-1.315272	0.353276	-0.222539
O156	O	-0.292867	1.232968	0.501472
C157	C	-0.263124	1.303306	0.477826
H158	H	-0.287711	1.287234	0.413263
H159	H	-0.162331	1.352709	0.522002
H160	H	-0.315275	1.326854	0.479093
O161	O	-1.484201	0.214095	-0.084338
C162	C	-1.572488	0.154067	-0.075154
H163	H	-1.557832	0.181346	-0.017311
H164	H	-1.565253	0.100130	-0.070232
H165	H	-1.665768	0.132184	-0.130491
O166	O	-1.147651	0.215903	-0.084370
C167	C	-1.124229	0.294319	-0.075196
H168	H	-1.030363	0.340677	-0.017349
H169	H	-1.193982	0.293548	-0.070288
H170	H	-1.129402	0.312142	-0.130531
H171	H	-1.315265	0.508704	0.077723
H172	H	-0.306893	0.731281	0.490627
O173	O	-0.717156	0.815783	-0.346594
C174	C	-0.710634	0.875877	-0.303561
H175	H	-0.772595	0.891807	-0.348940
H176	H	-0.614029	0.933068	-0.264872
H177	H	-0.740000	0.851349	-0.262074
H178	H	-0.387812	1.236113	0.077651
O179	O	-0.556577	0.941658	0.379326
C180	C	-0.608178	0.932689	0.422462
H181	H	-0.567914	0.995652	0.461048
H182	H	-0.588588	0.895923	0.464055
H183	H	-0.709755	0.899241	0.377166
O184	O	-1.483969	0.815788	-0.348222
C185	C	-1.462202	0.875899	-0.386117
H186	H	-1.384046	0.891822	-0.389352
H187	H	-1.438578	0.933090	-0.349013
H188	H	-1.546380	0.851393	-0.450628
H189	H	-1.477126	0.653542	-0.504872
O190	O	-1.147883	0.077927	-0.084466
C191	C	-1.244285	0.085987	-0.122286
H192	H	-1.212270	0.148398	-0.088690
H193	H	-1.320676	0.035820	-0.119987
H194	H	-1.277861	0.080262	-0.188761
H195	H	-1.477068	0.226382	-0.349396
O196	O	-1.483857	0.383122	0.084597
C197	C	-1.388663	0.426287	0.168193
H198	H	-1.312884	0.420432	0.183340
H199	H	-1.422666	0.399735	0.206949
H200	H	-1.353463	0.493596	0.181888
O201	O	-1.147871	0.646796	-0.515645
C202	C	-1.244264	0.608981	-0.599314
H203	H	-1.212237	0.642577	-0.636610
H204	H	-1.320654	0.611287	-0.609063
H205	H	-1.277849	0.542504	-0.619926
H206	H	-0.306951	1.221819	-0.000071
O207	O	-1.147720	0.646948	-0.653393
C208	C	-1.154244	0.701931	-0.696417
H209	H	-1.092266	0.766457	-0.651032
H210	H	-1.250844	0.683366	-0.735090
H211	H	-1.124900	0.700430	-0.737919
O212	O	-1.572104	0.229744	0.000005
C213	C	-1.675272	0.229875	-0.034062
H214	H	-1.648332	0.295191	-0.028253
H215	H	-1.718416	0.204163	-0.000050
H216	H	-1.742493	0.190377	-0.101430
O217	O	-1.308384	0.351875	-0.084433
C218	C	-1.366901	0.268202	-0.122241
H219	H	-1.403653	0.230917	-0.088643
H220	H	-1.300012	0.258438	-0.119931
H221	H	-1.444353	0.247590	-0.188719
H222	H	-0.734283	0.808961	-0.485740
O223	O	-0.380758	1.079562	-0.084469
C224	C	-0.292471	1.157966	-0.075292
H225	H	-0.307115	1.204334	-0.059537
H226	H	-0.299720	1.157170	-0.134909
H227	H	-0.199191	1.175793	-0.024011
O228	O	-0.380931	0.646713	0.348213
C229	C	-0.476069	0.563105	0.305056
H230	H	-0.551896	0.547923	0.310867
H231	H	-0.442021	0.524382	0.331649
H232	H	-0.511221	0.549403	0.237757
