data_functionalizedCrystal
_audit_creation_method	'MofGen! by Chris Wilmer'
_symmetry_space_group_name_H-M	'P1'
_symmetry_Int_Tables_number	1
_symmetry_cell_setting	triclinic
loop_
_symmetry_equiv_pos_as_xyz
  x,y,z
_cell_length_a	14.044220
_cell_length_b	14.044220
_cell_length_c	12.503552
_cell_angle_alpha	93.855848
_cell_angle_beta	86.158090
_cell_angle_gamma	93.188878
loop_
_atom_site_label
_atom_site_type_symbol
_atom_site_fract_x
_atom_site_fract_y
_atom_site_fract_z
O1	O	-1.272128	-0.235220	-0.089212
O2	O	-0.995455	-0.226916	-0.089239
O3	O	-1.129639	-0.092732	-0.089215
O4	O	-1.137944	-0.369405	-0.089236
O5	O	-1.139719	-0.082608	0.089429
O6	O	-1.005534	-0.216792	0.089405
O7	O	-1.282207	-0.225097	0.089432
Cu8	Cu	-1.144791	-0.220020	0.105730
Cu9	Cu	-1.132871	-0.231993	-0.105537
O10	O	-1.148023	-0.359281	0.089408
C11	C	-0.964873	-0.218219	0.000080
C12	C	-0.858729	-0.207375	0.000070
C13	C	-1.131043	-0.052048	0.000107
C14	C	-1.120199	0.054095	0.000107
N15	N	-1.124487	-0.240407	-0.254132
C16	C	-1.312790	-0.233794	0.000111
C17	C	-1.418932	-0.244638	0.000114
C18	C	-0.664393	-0.187547	0.000092
C19	C	-0.613263	-0.264462	0.000091
C20	C	-0.505127	-0.253429	0.000104
C21	C	-0.772538	-0.198578	0.000080
C22	C	-1.146619	-0.399965	0.000084
C23	C	-1.157463	-0.506108	0.000077
C24	C	-1.100371	0.248431	0.000090
C25	C	-1.177286	0.299561	0.000094
C26	C	-1.166254	0.407697	0.000084
C27	C	-1.111402	0.140286	0.000099
C28	C	-1.165519	-0.199227	-0.526557
C29	C	-1.112153	-0.252776	-0.473243
C30	C	-1.119018	-0.245892	-0.351318
C31	C	-1.158656	-0.206110	-0.648493
N32	N	-1.153182	-0.211599	0.254325
H33	H	-0.650702	-0.338596	0.000081
O34	O	-1.002180	0.298022	0.000092
H35	H	-0.958738	0.272894	-0.072722
O36	O	-1.044787	-0.320339	-0.534061
H37	H	-1.049883	-0.315203	-0.621670
H38	H	-1.251416	0.262118	0.000029
O39	O	-0.614805	-0.089354	0.000103
H40	H	-0.668939	-0.034706	0.000107
H41	H	-1.216358	-0.148215	-0.480638
