data_functionalizedCrystal
_audit_creation_method	'MofGen! by Chris Wilmer'
_symmetry_space_group_name_H-M	'P1'
_symmetry_Int_Tables_number	1
_symmetry_cell_setting	triclinic
loop_
_symmetry_equiv_pos_as_xyz
  x,y,z
_cell_length_a	9.065218
_cell_length_b	23.532407
_cell_length_c	8.140239
_cell_angle_alpha	89.991844
_cell_angle_beta	89.997198
_cell_angle_gamma	83.932281
loop_
_atom_site_label
_atom_site_type_symbol
_atom_site_fract_x
_atom_site_fract_y
_atom_site_fract_z
O1	O	1.956283	0.083497	-0.136637
O2	O	1.526661	0.090346	-0.136641
O3	O	1.754427	0.004085	-0.136609
O4	O	1.728517	0.169758	-0.136670
O5	O	1.754415	0.004084	0.136618
O6	O	1.526649	0.090345	0.136586
O7	O	1.956271	0.083496	0.136590
Zn8	Zn	1.741458	0.086921	0.179968
Zn9	Zn	1.741474	0.086922	-0.180020
O10	O	1.728504	0.169757	0.136558
C11	C	1.471701	0.089687	-0.000028
C12	C	1.307955	0.087719	-0.000028
C13	C	1.753761	-0.017136	0.000009
C14	C	1.751778	-0.080368	0.000021
C15	C	1.874123	-0.478573	-0.000068
C16	C	1.872280	-0.537986	-0.000080
O17	O	1.985695	-0.573898	-0.000140
N18	N	1.736873	-0.561607	-0.000080
C19	C	1.603300	-0.525810	-0.000085
O20	O	1.487956	-0.551356	-0.000087
C21	C	1.605144	-0.466397	-0.000084
C22	C	1.740560	-0.442780	-0.000067
C23	C	2.009527	-0.454955	-0.000053
C24	C	2.011370	-0.395546	-0.000037
C25	C	1.877807	-0.359753	-0.000037
C26	C	1.742402	-0.383371	-0.000052
C27	C	1.471573	-0.430601	-0.000100
C28	C	1.473429	-0.371185	-0.000100
C29	C	1.608845	-0.347568	-0.000084
C30	C	1.610682	-0.288169	-0.000035
N31	N	1.746089	-0.264548	-0.000035
C32	C	1.879651	-0.300341	-0.000036
C33	C	1.599437	-0.650581	-0.000089
C34	C	1.597591	-0.709992	-0.000078
C35	C	1.866571	-0.722165	-0.000077
C36	C	1.868416	-0.662752	-0.000076
C37	C	1.734844	-0.626960	-0.000089
C38	C	1.883510	-0.175576	-0.000002
C39	C	1.885340	-0.116160	0.000021
C40	C	1.616360	-0.103993	0.000011
C41	C	1.614529	-0.163403	-0.000003
C42	C	1.748116	-0.199194	-0.000015
O43	O	1.497326	-0.252222	0.000018
O44	O	1.994976	-0.274786	-0.000055
C45	C	2.011231	0.084155	-0.000027
C46	C	2.174977	0.086123	-0.000038
C47	C	1.729170	0.190979	-0.000064
C48	C	1.731154	0.254210	-0.000087
N49	N	1.741457	0.086919	0.425651
N50	N	1.741486	0.086919	-0.425703
H51	H	1.992289	-0.204710	-0.000018
O52	O	1.996281	-0.756962	-0.000387
C53	C	2.003230	-0.791691	-0.141883
H54	H	1.927468	-0.770321	-0.240776
H55	H	1.965690	-0.835084	-0.109899
C56	C	2.256925	-0.826126	-0.084601
C57	C	2.163882	-0.799876	-0.206068
H58	H	2.356023	-0.831178	-0.124191
H59	H	2.252243	-0.802730	0.010732
H60	H	2.225624	-0.862284	-0.057958
H61	H	2.195173	-0.763716	-0.232693
H62	H	2.168574	-0.823266	-0.301407
H63	H	2.118297	-0.484092	-0.000059
O64	O	1.486583	-0.069243	0.000292
C65	C	1.404268	-0.080069	0.141762
H66	H	1.482427	-0.099971	0.240684
H67	H	1.319338	-0.110755	0.109752
C68	C	1.227502	0.000882	0.084409
C69	C	1.323500	-0.023556	0.205912
H70	H	1.177675	0.035741	0.123978
H71	H	1.282955	0.008175	-0.010905
H72	H	1.156740	-0.024695	0.057746
H73	H	1.394271	0.002017	0.232559
H74	H	1.268056	-0.030844	0.301233
H75	H	2.121639	-0.376323	-0.000030
H76	H	1.504263	-0.182633	0.000029
H77	H	1.978683	-0.643528	-0.000064
H78	H	1.490659	-0.621442	-0.000085
H79	H	1.995617	-0.096935	0.000038
H80	H	1.487322	-0.729215	-0.000063
H81	H	1.364656	-0.342046	-0.000113
H82	H	1.361303	-0.449820	-0.000123
