data_functionalizedCrystal
_audit_creation_method	'MofGen! by Chris Wilmer'
_symmetry_space_group_name_H-M	'P1'
_symmetry_Int_Tables_number	1
_symmetry_cell_setting	triclinic
loop_
_symmetry_equiv_pos_as_xyz
  x,y,z
_cell_length_a	19.077105
_cell_length_b	18.050589
_cell_length_c	19.076979
_cell_angle_alpha	87.625059
_cell_angle_beta	90.140888
_cell_angle_gamma	92.268789
loop_
_atom_site_label
_atom_site_type_symbol
_atom_site_fract_x
_atom_site_fract_y
_atom_site_fract_z
Zn1	Zn	1.058463	0.321521	0.440468
Zn2	Zn	1.063015	0.451002	0.322960
Zn3	Zn	0.945612	0.322049	0.318252
Zn4	Zn	0.940902	0.440887	0.435720
O5	O	1.001998	0.383865	0.379350
O6	O	1.157400	0.342708	0.428837
O7	O	1.051317	0.438350	0.223997
O8	O	0.960649	0.218056	0.334481
O9	O	1.160744	0.437837	0.342505
O10	O	1.043560	0.217668	0.424273
O11	O	0.965062	0.343609	0.220539
O12	O	0.846654	0.333801	0.329878
O13	O	0.952620	0.420599	0.534688
O14	O	0.843193	0.421112	0.416181
O15	O	1.038992	0.332901	0.538176
O16	O	1.046750	0.553582	0.337901
O17	O	0.957034	0.546152	0.420745
C18	C	0.819427	0.376417	0.372004
C19	C	0.741322	0.373248	0.368877
C20	C	1.001893	0.576813	0.379335
C21	C	1.001911	0.659359	0.379354
C22	C	0.702847	0.417291	0.412271
C23	C	0.629458	0.414304	0.409337
C24	C	0.594546	0.367276	0.363005
C25	C	0.633026	0.323227	0.319610
C26	C	0.706413	0.326211	0.322548
C27	C	0.375254	0.353464	0.349411
C28	C	0.301861	0.350485	0.346475
C29	C	0.298299	0.441561	0.436204
C30	C	0.371687	0.444544	0.439135
C31	C	0.410161	0.400493	0.395742
N32	N	0.519531	0.364223	0.360004
N33	N	0.485174	0.403543	0.398747
C34	C	0.953149	0.854797	0.424390
C35	C	0.938557	0.906427	0.359579
C36	C	1.001964	0.810491	0.379366
C37	C	1.016575	0.905943	0.444186
C38	C	1.002013	0.956477	0.379383
C39	C	0.987339	0.861033	0.314520
C40	C	1.065385	0.860545	0.399171
C41	C	1.050819	0.912155	0.334316
C42	C	1.001934	0.726392	0.379357
C43	C	1.002044	1.040575	0.379385
C44	C	1.185282	0.391342	0.386726
C45	C	1.263387	0.394529	0.389869
C46	C	1.002095	1.190162	0.379381
C47	C	1.002068	1.107614	0.379394
C48	C	1.009235	0.392082	0.196772
C49	C	1.012450	0.395416	0.118669
C50	C	0.968726	0.347991	0.080196
C51	C	0.971753	0.351123	0.006810
C52	C	1.018501	0.401685	-0.028101
C53	C	1.062229	0.449113	0.010378
C54	C	1.059205	0.445976	0.083762
C55	C	1.032399	0.416316	-0.247385
C56	C	1.035418	0.419451	-0.320775
C57	C	0.944943	0.321460	-0.324338
C58	C	0.941920	0.318331	-0.250952
C59	C	0.985651	0.365756	-0.212479
N60	N	1.021595	0.404890	-0.103113
N61	N	0.982560	0.362547	-0.137469
C62	C	0.994773	0.375563	0.562643
C63	C	0.991695	0.372025	0.640752
H64	H	0.731267	0.455589	0.449998
H65	H	1.028914	0.925742	0.498997
N66	N	0.970916	0.834933	0.241891
H67	H	0.970978	0.778964	0.242336
H68	H	0.923200	0.852074	0.226881
N69	N	0.918299	0.293459	0.117844
H70	H	0.884674	0.321278	0.146849
H71	H	0.891110	0.263908	0.082287
H72	H	1.068006	0.454935	-0.216070
N73	N	1.112655	0.503644	-0.027271
H74	H	1.107874	0.498501	-0.079601
H75	H	1.101583	0.555786	-0.014953
N76	N	1.105534	0.945167	0.283837
H77	H	1.094425	0.928789	0.234920
H78	H	1.105510	1.001085	0.284477
N79	N	0.595370	0.272518	0.269626
H80	H	0.563808	0.235617	0.297011
H81	H	0.566234	0.302956	0.235810
H82	H	1.094811	0.484594	0.115087
N83	N	0.867545	0.933213	0.337398
H84	H	0.872688	0.966144	0.293458
H85	H	0.835180	0.889148	0.327801
N86	N	0.898406	0.821595	0.474741
H87	H	0.921827	0.790119	0.512280
H88	H	0.873295	0.862724	0.497216
H89	H	0.406570	0.317600	0.314072
N90	N	0.587960	0.461819	0.456131
H91	H	0.621213	0.492071	0.485920
H92	H	0.558622	0.496193	0.426238
N93	N	1.136381	0.833745	0.421374
H94	H	1.147357	0.849983	0.470364
H95	H	1.135913	0.777809	0.420710
N96	N	0.747914	0.278702	0.275750
H97	H	0.714663	0.248457	0.245952
H98	H	0.779628	0.311587	0.244397
H99	H	0.273438	0.312180	0.308750
H100	H	0.936148	0.312505	-0.024512
H101	H	0.903850	0.277161	-0.222533
H102	H	0.909340	0.282848	-0.355670
N103	N	1.085841	0.473992	-0.358427
H104	H	1.113083	0.503557	-0.322916
H105	H	1.119418	0.446128	-0.387443
H106	H	0.400108	0.482841	0.476862
N107	N	0.256806	0.489064	0.483012
H108	H	0.269982	0.543125	0.472523
H109	H	0.205031	0.479979	0.474103
