data_functionalizedCrystal
_audit_creation_method	'MofGen! by Chris Wilmer'
_symmetry_space_group_name_H-M	'P1'
_symmetry_Int_Tables_number	1
_symmetry_cell_setting	triclinic
loop_
_symmetry_equiv_pos_as_xyz
  x,y,z
_cell_length_a	23.532355
_cell_length_b	14.044220
_cell_length_c	13.101039
_cell_angle_alpha	93.667477
_cell_angle_beta	86.670091
_cell_angle_gamma	88.008188
loop_
_atom_site_label
_atom_site_type_symbol
_atom_site_fract_x
_atom_site_fract_y
_atom_site_fract_z
O1	O	0.764361	0.109522	-0.085076
O2	O	1.097694	0.442856	0.248257
O3	O	1.431028	0.776189	0.581590
O4	O	0.599399	0.126212	-0.085109
O5	O	0.932732	0.459546	0.248224
O6	O	1.266066	0.792879	0.581557
O7	O	0.679404	-0.020092	-0.085083
O8	O	1.012737	0.313241	0.248250
O9	O	1.346070	0.646574	0.581583
O10	O	0.684356	0.255827	-0.085102
O11	O	1.017690	0.589161	0.248231
O12	O	1.351023	0.922494	0.581564
O13	O	0.673664	-0.009578	0.085345
O14	O	1.006998	0.323755	0.418678
O15	O	1.340331	0.657089	0.752011
O16	O	0.593660	0.136727	0.085319
O17	O	0.926993	0.470060	0.418652
O18	O	1.260326	0.803394	0.751985
O19	O	0.758622	0.120037	0.085352
O20	O	1.091955	0.453370	0.418685
O21	O	1.425288	0.786704	0.752018
Zn22	Zn	0.675229	0.130051	0.112394
Zn23	Zn	1.008563	0.463385	0.445728
Zn24	Zn	1.341896	0.796718	0.779061
Zn25	Zn	0.682791	0.116198	-0.112152
Zn26	Zn	1.016125	0.449531	0.221181
Zn27	Zn	1.349458	0.782865	0.554515
O28	O	0.678617	0.266342	0.085325
O29	O	1.011950	0.599675	0.418659
O30	O	1.345284	0.933009	0.751992
C31	C	0.674366	-0.050129	0.000131
C32	C	1.007700	0.283205	0.333464
C33	C	1.341033	0.616538	0.666797
C34	C	0.667900	-0.155291	0.000131
C35	C	1.001234	0.178042	0.333464
C36	C	1.334567	0.511375	0.666797
C37	C	0.575290	0.131052	0.000101
C38	C	0.908624	0.464386	0.333434
C39	C	1.241957	0.797719	0.666767
C40	C	0.512004	0.129797	0.000088
C41	C	0.845338	0.463130	0.333422
C42	C	1.178671	0.796464	0.666755
C43	C	0.656080	-0.347839	0.000114
C44	C	0.989413	-0.014506	0.333447
C45	C	1.322746	0.318828	0.666780
C46	C	0.701939	-0.405918	0.000120
C47	C	1.035272	-0.072584	0.333453
C48	C	1.368606	0.260749	0.666786
C49	C	0.695362	-0.513058	0.000110
C50	C	1.028695	-0.179724	0.333443
C51	C	1.362028	0.153609	0.666777
C52	C	0.662656	-0.240689	0.000123
C53	C	0.995989	0.092644	0.333456
C54	C	1.329323	0.425978	0.666790
C55	C	0.116433	0.127649	0.093032
C56	C	0.449767	0.460983	0.426365
C57	C	0.783100	0.794316	0.759699
C58	C	0.056969	0.126456	0.093036
C59	C	0.390302	0.459789	0.426369
C60	C	0.723636	0.793123	0.759703
O61	O	0.023554	0.130681	0.172043
O62	O	0.356888	0.464014	0.505377
O63	O	0.690221	0.797347	0.838710
N64	N	0.030357	0.120133	0.000136
N65	N	0.363690	0.453466	0.333470
N66	N	0.697024	0.786799	0.666803
C67	C	0.063213	0.114993	-0.092774
C68	C	0.396546	0.448326	0.240560
C69	C	0.729879	0.781659	0.573893
O70	O	0.035117	0.109504	-0.171792
O71	O	0.368450	0.442837	0.161541
O72	O	0.701783	0.776171	0.494875
C73	C	0.122676	0.116179	-0.092777
C74	C	0.456009	0.449513	0.240557
C75	C	0.789343	0.782846	0.573890
C76	C	0.149284	0.122512	0.000129
C77	C	0.482618	0.455846	0.333463
C78	C	0.815951	0.789179	0.666796
C79	C	0.143042	0.133981	0.185931
C80	C	0.476375	0.467314	0.519264
C81	C	0.809709	0.800647	0.852597
C82	C	0.202502	0.135176	0.185926
C83	C	0.535835	0.468509	0.519259
C84	C	0.869169	0.801842	0.852593
C85	C	0.235353	0.130039	0.093023
C86	C	0.568687	0.463372	0.426357
C87	C	0.902020	0.796706	0.759690
C88	C	0.208745	0.123707	0.000125
C89	C	0.542078	0.457041	0.333458
C90	C	0.875411	0.790374	0.666791
C91	C	0.155531	0.111033	-0.185686
C92	C	0.488864	0.444366	0.147648
C93	C	0.822197	0.777699	0.480981
C94	C	0.214998	0.112219	-0.185681
C95	C	0.548331	0.445552	0.147653
C96	C	0.881665	0.778886	0.480986
C97	C	0.241606	0.118552	-0.092775
C98	C	0.574940	0.451885	0.240559
C99	C	0.908273	0.785219	0.573892
C100	C	0.301056	0.119766	-0.092783
C101	C	0.634389	0.453099	0.240551
C102	C	0.967723	0.786432	0.573884
N103	N	0.327668	0.126089	0.000117
N104	N	0.661001	0.459422	0.333451
N105	N	0.994335	0.792755	0.666784
C106	C	0.294817	0.131226	0.093020
C107	C	0.628150	0.464559	0.426354
C108	C	0.961483	0.797892	0.759687
C109	C	-0.061664	0.112500	-0.092760
C110	C	0.271669	0.445833	0.240573
C111	C	0.605002	0.779167	0.573906
C112	C	-0.121127	0.111320	-0.092759
C113	C	0.212206	0.444653	0.240575
C114	C	0.545540	0.777987	0.573908
C115	C	-0.127366	0.122782	0.093052
C116	C	0.205967	0.456115	0.426385
C117	C	0.539300	0.789448	0.759718
C118	C	-0.067903	0.123968	0.093049
C119	C	0.265430	0.457301	0.426382
C120	C	0.598764	0.790635	0.759715
C121	C	-0.035052	0.118823	0.000139
C122	C	0.298281	0.452156	0.333473
C123	C	0.631614	0.785490	0.666806
C124	C	0.419687	0.133735	0.093004
C125	C	0.753021	0.467069	0.426337
C126	C	1.086354	0.800402	0.759671
C127	C	0.479153	0.134934	0.092991
C128	C	0.812486	0.468267	0.426325
C129	C	1.145820	0.801600	0.759658
C130	C	0.485387	0.123467	-0.092818
C131	C	0.818721	0.456801	0.240515
C132	C	1.152054	0.790134	0.573848
C133	C	0.425927	0.122274	-0.092806
C134	C	0.759260	0.455607	0.240527
C135	C	1.092594	0.788941	0.573860
C136	C	0.393078	0.127405	0.000113
C137	C	0.726412	0.460739	0.333446
C138	C	1.059745	0.794072	0.666780
O139	O	0.334507	0.115540	-0.171749
O140	O	0.667840	0.448873	0.161584
O141	O	1.001174	0.782207	0.494917
O142	O	0.322921	0.136701	0.172025
O143	O	0.656254	0.470034	0.505359
O144	O	0.989587	0.803368	0.838692
C145	C	0.782730	0.115197	0.000139
C146	C	1.116064	0.448530	0.333473
C147	C	1.449397	0.781864	0.666806
C148	C	0.846017	0.116452	0.000145
C149	C	1.179350	0.449785	0.333478
C150	C	1.512683	0.783118	0.666812
C151	C	0.683655	0.296378	0.000109
C152	C	1.016988	0.629711	0.333443
C153	C	1.350321	0.963045	0.666776
C154	C	0.690121	0.401540	0.000103
C155	C	1.023454	0.734874	0.333436
C156	C	1.356787	1.068207	0.666769
N157	N	0.670073	0.139505	0.265641
N158	N	1.003406	0.472839	0.598974
N159	N	1.336739	0.806172	0.932308
N160	N	0.687952	0.106737	-0.265399
N161	N	1.021285	0.440070	0.067935
N162	N	1.354619	0.773403	0.401268
C163	C	0.663057	0.152376	0.474681
C164	C	0.996391	0.485710	0.808015
C165	C	1.329724	0.819043	1.141348
C166	C	0.694966	0.093869	0.525567
C167	C	1.028299	0.427202	0.858901
C168	C	1.361632	0.760535	1.192234
C169	C	0.691062	0.101030	0.641885
C170	C	1.024396	0.434364	0.975218
C171	C	1.357729	0.767697	1.308551
C172	C	0.666960	0.145216	0.358354
C173	C	1.000294	0.478549	0.691687
C174	C	1.333627	0.811883	1.025020
H175	H	0.746142	-0.375180	0.000060
H176	H	1.079476	-0.041847	0.333393
H177	H	1.412809	0.291486	0.666726
H178	H	0.611882	-0.378579	0.000102
H179	H	0.945215	-0.045246	0.333436
H180	H	1.278549	0.288088	0.666769
H181	H	0.116300	0.138162	0.261587
H182	H	0.449634	0.471495	0.594921
H183	H	0.782967	0.804829	0.928254
Cl184	Cl	0.616359	0.238014	0.542287
Cl185	Cl	0.949693	0.571347	0.875621
Cl186	Cl	1.283026	0.904681	1.208954
Cl187	Cl	0.512600	0.142899	0.209796
Cl188	Cl	0.845933	0.476232	0.543129
Cl189	Cl	1.179266	0.809565	0.876463
Cl190	Cl	0.741904	0.008590	0.457961
Cl191	Cl	1.075237	0.341923	0.791295
Cl192	Cl	1.408571	0.675256	1.124628
H193	H	0.512145	0.119289	-0.168458
H194	H	0.845479	0.452622	0.164876
H195	H	1.178812	0.785956	0.498209
H196	H	0.224161	0.140327	0.261580
H197	H	0.557495	0.473660	0.594913
H198	H	0.890828	0.806994	0.928246
Cl199	Cl	-0.034459	0.131927	0.209849
Cl200	Cl	0.298875	0.465260	0.543182
Cl201	Cl	0.632208	0.798593	0.876516
Cl202	Cl	0.378401	0.140186	0.209819
Cl203	Cl	0.711734	0.473520	0.543152
Cl204	Cl	1.045068	0.806853	0.876485
H205	H	-0.154125	0.126962	0.168698
H206	H	0.179208	0.460296	0.502032
H207	H	0.512542	0.793629	0.835365
Cl208	Cl	-0.154571	0.103377	-0.209560
Cl209	Cl	0.178763	0.436710	0.123774
Cl210	Cl	0.512096	0.770044	0.457107
H211	H	-0.034921	0.108319	-0.168423
H212	H	0.298412	0.441652	0.164910
H213	H	0.631746	0.774985	0.498244
Cl214	Cl	0.122095	0.103067	-0.302490
Cl215	Cl	0.455428	0.436400	0.030843
Cl216	Cl	0.788762	0.769733	0.364177
Cl217	Cl	0.256292	0.105748	-0.302489
Cl218	Cl	0.589626	0.439082	0.030844
Cl219	Cl	0.922959	0.772415	0.364178
H220	H	0.404261	0.117132	-0.168458
H221	H	0.737594	0.450466	0.164875
H222	H	1.070928	0.783799	0.498209
