data_functionalizedCrystal
_audit_creation_method	'MofGen! by Chris Wilmer'
_symmetry_space_group_name_H-M	'P1'
_symmetry_Int_Tables_number	1
_symmetry_cell_setting	triclinic
loop_
_symmetry_equiv_pos_as_xyz
  x,y,z
_cell_length_a	23.532407
_cell_length_b	19.288859
_cell_length_c	17.766277
_cell_angle_alpha	89.989768
_cell_angle_beta	89.988964
_cell_angle_gamma	82.991201
loop_
_atom_site_label
_atom_site_type_symbol
_atom_site_fract_x
_atom_site_fract_y
_atom_site_fract_z
O1	O	0.071029	0.921137	-0.062617
O2	O	0.080616	0.718846	-0.062616
O3	O	-0.007097	0.826091	-0.062603
O4	O	0.158741	0.813891	-0.062630
O5	O	-0.007101	0.826073	0.062586
O6	O	0.080612	0.718827	0.062573
O7	O	0.071024	0.921118	0.062572
Cu8	Cu	0.075817	0.819971	0.074003
Cu9	Cu	0.075823	0.819993	-0.074047
O10	O	0.158737	0.813873	0.062558
C11	C	0.080306	0.692961	-0.000021
C12	C	0.079382	0.615860	-0.000020
C13	C	-0.028316	0.825771	-0.000006
C14	C	-0.091535	0.824837	-0.000001
C15	C	0.124595	0.051680	-0.000029
C16	C	0.125468	0.124124	-0.000033
C17	C	0.074002	0.168989	-0.000023
C18	C	0.021659	0.141406	-0.000029
C19	C	0.020787	0.068963	-0.000032
C20	C	0.035618	0.290371	0.043845
C21	C	0.036492	0.362812	0.043853
C22	C	0.076690	0.392427	-0.000016
C23	C	0.116023	0.349590	-0.043883
C24	C	0.115151	0.277147	-0.043887
C25	C	0.074942	0.247542	-0.000020
C26	C	0.129977	0.498554	-0.000020
C27	C	0.130848	0.570999	-0.000029
C28	C	0.027037	0.588280	-0.000017
C29	C	0.026168	0.515836	-0.000016
C30	C	0.077639	0.470977	-0.000014
C31	C	-0.490519	0.882444	-0.000042
C32	C	-0.549921	0.881577	-0.000048
O33	O	-0.586556	0.934979	-0.000076
N34	N	-0.572679	0.817819	-0.000047
C35	C	-0.536030	0.754925	-0.000048
O36	O	-0.560842	0.700615	-0.000049
C37	C	-0.476629	0.755794	-0.000048
C38	C	-0.453876	0.819555	-0.000041
C39	C	-0.467765	0.946201	-0.000036
C40	C	-0.408367	0.947068	-0.000029
C41	C	-0.371724	0.884179	-0.000028
C42	C	-0.394478	0.820423	-0.000034
C43	C	-0.439982	0.692901	-0.000054
C44	C	-0.380578	0.693775	-0.000055
C45	C	-0.357824	0.757536	-0.000048
C46	C	-0.298436	0.758401	-0.000026
N47	N	-0.275679	0.822159	-0.000026
C48	C	-0.312323	0.885048	-0.000027
C49	C	-0.660777	0.753106	-0.000050
C50	C	-0.720176	0.752237	-0.000045
C51	C	-0.734063	0.878889	-0.000046
C52	C	-0.674662	0.879757	-0.000046
C53	C	-0.638019	0.816864	-0.000051
C54	C	-0.187582	0.886864	-0.000012
C55	C	-0.128178	0.887726	-0.000002
C56	C	-0.114297	0.761075	-0.000005
C57	C	-0.173695	0.760213	-0.000011
C58	C	-0.210337	0.823113	-0.000017
O59	O	-0.261767	0.705027	-0.000001
O60	O	-0.287503	0.939349	-0.000037
C61	C	0.179956	0.814193	-0.000039
C62	C	0.243175	0.815127	-0.000050
C63	C	0.071334	0.947003	-0.000024
C64	C	0.072259	1.024104	-0.000030
N65	N	0.075813	0.819960	0.178133
N66	N	0.075822	0.820009	-0.178177
C67	C	0.036993	0.867464	0.217526
C68	C	0.036990	0.867468	0.296328
C69	C	0.075818	0.819975	0.335734
C70	C	0.114641	0.772463	0.296331
C71	C	0.114639	0.772455	0.217531
C72	C	0.127709	0.810516	0.460563
C73	C	0.127712	0.810528	0.539362
C74	C	0.075825	0.819994	0.578780
C75	C	0.023932	0.829461	0.539390
C76	C	0.023930	0.829454	0.460589
C77	C	0.075824	0.819977	0.421180
C78	C	0.036998	0.867504	0.703619
C79	C	0.036995	0.867503	0.782422
C80	C	0.114651	0.772501	0.782424
C81	C	0.114649	0.772499	0.703623
C82	C	0.075824	0.820004	0.664225
H83	H	0.168088	0.146581	-0.000025
N84	N	-0.029072	0.839110	0.579649
N85	N	-0.041756	0.792793	0.623627
H86	H	-0.079189	0.799604	0.652061
H87	H	0.004467	0.397684	0.079577
H88	H	0.148757	0.373700	-0.079604
H89	H	-0.109656	0.939651	0.000006
H90	H	-0.192222	0.708293	0.000004
N91	N	0.154320	0.723998	0.822668
N92	N	0.206959	0.724585	0.813853
H93	H	0.234977	0.690328	0.842279
N94	N	-0.224997	0.951121	-0.000020
N95	N	-0.204663	1.008037	-0.000015
H96	H	-0.231087	1.053419	-0.000017
N97	N	-0.002707	0.915935	0.663329
N98	N	-0.055335	0.915248	0.672147
H99	H	-0.083392	0.949420	0.643675
N100	N	-0.385139	1.012206	-0.000025
N101	N	-0.417873	1.068346	-0.000029
H102	H	-0.401472	1.114354	-0.000029
H103	H	-0.014867	0.624809	-0.000015
N104	N	-0.343147	0.629529	-0.000075
N105	N	-0.345124	0.587047	-0.052853
H106	H	-0.318689	0.541674	-0.052869
N107	N	-0.505182	1.010453	-0.000042
N108	N	-0.484846	1.067367	-0.000039
H109	H	-0.511269	1.112750	-0.000040
N110	N	-0.076858	0.696840	-0.000026
N111	N	-0.078830	0.654361	-0.052808
H112	H	-0.052387	0.608995	-0.052831
H113	H	0.146252	0.733771	0.185457
H114	H	0.005377	0.906152	0.328408
H115	H	0.005380	0.906184	0.814496
H116	H	0.005378	0.906144	0.185451
H117	H	-0.018323	0.837161	0.428521
H118	H	-0.630944	0.701888	-0.000048
N119	N	0.154308	0.723970	0.663391
N120	N	0.188971	0.681566	0.698580
H121	H	0.216981	0.647287	0.670167
N122	N	0.180721	0.800867	0.579583
N123	N	0.227045	0.792409	0.544382
H124	H	0.264485	0.785586	0.572786
H125	H	0.169965	0.802796	0.428476
H126	H	0.173468	0.593449	-0.000035
H127	H	-0.738697	0.700316	-0.000038
N128	N	0.154295	0.723950	0.336591
N129	N	0.154293	0.723963	0.406948
H130	H	0.182298	0.689697	0.435382
N131	N	-0.771492	0.943137	-0.000063
N132	N	-0.751175	1.000063	-0.000067
H133	H	-0.777609	1.045436	-0.000080
N134	N	-0.005452	0.260137	0.088660
N135	N	-0.040562	0.298388	0.127828
H136	H	-0.069568	0.277036	0.159478
H137	H	0.147177	0.242272	-0.079607
N138	N	0.182556	0.452737	-0.000019
N139	N	0.229283	0.477371	-0.000024
H140	H	0.266418	0.445015	-0.000022
N141	N	0.177172	0.005864	-0.000016
N142	N	0.212014	0.008166	0.052756
H143	H	0.249148	-0.024191	0.052766
H144	H	-0.020245	0.177940	-0.000023
N145	N	-0.027299	0.487675	-0.000016
N146	N	-0.073248	0.527738	-0.000011
H147	H	-0.111011	0.507851	-0.000014
N148	N	-0.032681	0.040803	-0.000036
N149	N	-0.078630	0.080865	-0.000034
H150	H	-0.116394	0.060977	-0.000036
H151	H	-0.656141	0.931677	-0.000041
H152	H	-0.458497	0.640979	-0.000064
