data_functionalizedCrystal
_audit_creation_method	'MofGen! by Chris Wilmer'
_symmetry_space_group_name_H-M	'P1'
_symmetry_Int_Tables_number	1
_symmetry_cell_setting	triclinic
loop_
_symmetry_equiv_pos_as_xyz
  x,y,z
_cell_length_a	11.169417
_cell_length_b	12.759400
_cell_length_c	11.169409
_cell_angle_alpha	89.966206
_cell_angle_beta	89.980176
_cell_angle_gamma	90.015563
loop_
_atom_site_label
_atom_site_type_symbol
_atom_site_fract_x
_atom_site_fract_y
_atom_site_fract_z
Zn1	Zn	1.834926	-0.418157	-0.678531
Zn2	Zn	1.834800	-0.593882	-0.477842
Zn3	Zn	1.634212	-0.418221	-0.477865
Zn4	Zn	1.634204	-0.593797	-0.678487
O5	O	1.734536	-0.506014	-0.578181
O6	O	2.002859	-0.441476	-0.651918
O7	O	1.808142	-0.570643	-0.309896
O8	O	1.660893	-0.271191	-0.504511
O9	O	2.002767	-0.570581	-0.504473
O10	O	1.808357	-0.271144	-0.651939
O11	O	1.660771	-0.441585	-0.309912
O12	O	1.466261	-0.441502	-0.504469
O13	O	1.660880	-0.570435	-0.846443
O14	O	1.466256	-0.570497	-0.651866
O15	O	1.808349	-0.441393	-0.846475
O16	O	1.808135	-0.740892	-0.504431
O17	O	1.660758	-0.740829	-0.651844
C18	C	1.422711	-0.505998	-0.578166
C19	C	1.289311	-0.506017	-0.578188
C20	C	1.734464	-0.778981	-0.578156
C21	C	1.734544	-0.895758	-0.578186
C22	C	1.811368	-0.950618	-0.501513
C23	C	1.811442	-1.060342	-0.501550
C24	C	1.657857	-1.060337	-0.654936
C25	C	1.657790	-0.950615	-0.654904
C26	C	1.888122	-0.895761	-0.424794
C27	C	1.964952	-0.950621	-0.348114
C28	C	1.965025	-1.060345	-0.348151
C29	C	1.888270	-1.115209	-0.424868
C30	C	2.047578	-0.506031	-0.578198
C31	C	2.180978	-0.506038	-0.578204
C32	C	1.734628	-0.505897	-0.891224
C33	C	1.734667	-0.505848	-1.024624
C34	C	1.734640	-0.231981	-0.578233
C35	C	1.734684	-0.115204	-0.578255
C36	C	1.734513	-0.506054	-0.266357
C37	C	1.734706	-0.505808	-0.132957
H38	H	2.027451	-0.905945	-0.285660
O39	O	2.039695	-1.113475	-0.273560
C40	C	2.107443	-1.041525	-0.205867
H41	H	2.058234	-0.963351	-0.201649
H42	H	2.198567	-1.029754	-0.249887
C43	C	2.185267	-1.180444	-0.083340
C44	C	2.124823	-1.084432	-0.078151
H45	H	2.195993	-1.206912	-0.004560
H46	H	2.139628	-1.228920	-0.128948
H47	H	2.261197	-1.170622	-0.120029
H48	H	2.048889	-1.094257	-0.041477
H49	H	2.170450	-1.035959	-0.032533
H50	H	1.888067	-0.806419	-0.424752
H51	H	1.595233	-0.905947	-0.717340
O52	O	1.583128	-1.113513	-0.729389
C53	C	1.463506	-1.086825	-0.703031
H54	H	1.460992	-1.007194	-0.656871
H55	H	1.423151	-1.148651	-0.641308
C56	C	1.393831	-1.179526	-0.876665
C57	C	1.390743	-1.081718	-0.819979
H58	H	1.348945	-1.176381	-0.948802
H59	H	1.474422	-1.197510	-0.894421
H60	H	1.360204	-1.231038	-0.825217
H61	H	1.424383	-1.030212	-0.871421
H62	H	1.310156	-1.063726	-0.802234
O63	O	1.888460	-1.221796	-0.424722
C64	C	1.972756	-1.258456	-0.340626
H65	H	1.989556	-1.195269	-0.270496
H66	H	2.060258	-1.277819	-0.388298
C67	C	1.903305	-1.435309	-0.365236
C68	C	1.923932	-1.357705	-0.279095
H69	H	1.873192	-1.496532	-0.327284
H70	H	1.846516	-1.410611	-0.421897
H71	H	1.976229	-1.451432	-0.404956
H72	H	1.851006	-1.341574	-0.239388
H73	H	1.980708	-1.382402	-0.222426
