data_functionalizedCrystal
_audit_creation_method	'MofGen! by Chris Wilmer'
_symmetry_space_group_name_H-M	'P1'
_symmetry_Int_Tables_number	1
_symmetry_cell_setting	triclinic
loop_
_symmetry_equiv_pos_as_xyz
  x,y,z
_cell_length_a	14.044209
_cell_length_b	14.044220
_cell_length_c	13.101039
_cell_angle_alpha	86.332523
_cell_angle_beta	93.659214
_cell_angle_gamma	93.188415
loop_
_atom_site_label
_atom_site_type_symbol
_atom_site_fract_x
_atom_site_fract_y
_atom_site_fract_z
O1	O	-1.281968	-0.225339	-0.085094
O2	O	-0.948635	0.107995	0.248239
O3	O	-0.615301	0.441328	0.581573
O4	O	-1.005298	-0.217034	-0.085123
O5	O	-0.671965	0.116300	0.248210
O6	O	-0.338632	0.449633	0.581544
O7	O	-1.139480	-0.082851	-0.085099
O8	O	-0.806146	0.250482	0.248234
O9	O	-0.472813	0.583816	0.581568
O10	O	-1.147787	-0.359521	-0.085118
O11	O	-0.814453	-0.026188	0.248215
O12	O	-0.481120	0.307145	0.581548
O13	O	-1.129854	-0.092496	0.085329
O14	O	-0.796521	0.240837	0.418663
O15	O	-0.463187	0.574171	0.751996
O16	O	-0.995672	-0.226679	0.085305
O17	O	-0.662339	0.106655	0.418638
O18	O	-0.329006	0.439988	0.751972
O19	O	-1.272342	-0.234984	0.085334
O20	O	-0.939009	0.098350	0.418667
O21	O	-0.605676	0.431683	0.752001
Zn22	Zn	-1.132479	-0.232362	0.112379
Zn23	Zn	-0.799146	0.100971	0.445712
Zn24	Zn	-0.465812	0.434304	0.779045
Zn25	Zn	-1.145161	-0.219655	-0.112168
Zn26	Zn	-0.811828	0.113678	0.221166
Zn27	Zn	-0.478495	0.447012	0.554499
O28	O	-1.138161	-0.369166	0.085310
O29	O	-0.804827	-0.035833	0.418643
O30	O	-0.471494	0.297500	0.751977
C31	C	-0.964864	-0.218221	0.000087
C32	C	-0.631530	0.115113	0.333421
C33	C	-0.298197	0.448446	0.666754
C34	C	-0.858721	-0.207376	0.000077
C35	C	-0.525388	0.125957	0.333410
C36	C	-0.192055	0.459290	0.666743
C37	C	-0.664383	-0.187553	0.000096
C38	C	-0.331049	0.145781	0.333429
C39	C	0.002284	0.479114	0.666763
C40	C	-0.613253	-0.264467	0.000094
C41	C	-0.279919	0.068866	0.333428
C42	C	0.053414	0.402199	0.666761
C43	C	-0.505116	-0.253437	0.000105
C44	C	-0.171783	0.079896	0.333438
C45	C	0.161551	0.413229	0.666772
C46	C	-0.772529	-0.198581	0.000085
C47	C	-0.439196	0.134752	0.333418
C48	C	-0.105863	0.468085	0.666752
N49	N	-1.123830	-0.241035	0.265626
N50	N	-0.790497	0.092298	0.598959
N51	N	-0.457164	0.425632	0.932292
C52	C	-1.131031	-0.052052	0.000115
C53	C	-0.797698	0.281282	0.333449
C54	C	-0.464364	0.614615	0.666782
C55	C	-1.120187	0.054091	0.000115
C56	C	-0.786853	0.387424	0.333449
C57	C	-0.453520	0.720758	0.666782
C58	C	-0.312777	-0.233798	0.000118
C59	C	0.020556	0.099535	0.333452
C60	C	0.353890	0.432868	0.666785
C61	C	-0.418920	-0.244648	0.000114
C62	C	-0.085586	0.088685	0.333447
C63	C	0.247747	0.422019	0.666780
C64	C	-1.146609	-0.399965	0.000093
C65	C	-0.813276	-0.066632	0.333427
C66	C	-0.479943	0.266701	0.666760
C67	C	-1.157454	-0.506108	0.000087
C68	C	-0.824121	-0.172774	0.333420
C69	C	-0.490788	0.160559	0.666753
C70	C	-1.100361	0.248429	0.000099
C71	C	-0.767028	0.581763	0.333432
C72	C	-0.433695	0.915096	0.666765
C73	C	-1.177275	0.299560	0.000103
C74	C	-0.843942	0.632893	0.333437
C75	C	-0.510609	0.966226	0.666770
C76	C	-1.166244	0.407696	0.000094
C77	C	-0.832911	0.741030	0.333427
C78	C	-0.499578	1.074363	0.666761
C79	C	-1.111391	0.140283	0.000108
C80	C	-0.778058	0.473616	0.333441
C81	C	-0.444724	0.806950	0.666775
N82	N	-1.153817	-0.210975	-0.265415
N83	N	-0.820484	0.122358	0.067919
N84	N	-0.487150	0.455691	0.401252
C85	C	-1.112064	-0.252843	0.474666
C86	C	-0.778731	0.080490	0.807999
C87	C	-0.445398	0.413824	1.141333
C88	C	-1.165580	-0.199170	0.525551
C89	C	-0.832247	0.134163	0.858885
C90	C	-0.498913	0.467496	1.192218
C91	C	-1.159033	-0.205740	0.641869
C92	C	-0.825700	0.127593	0.975202
C93	C	-0.492367	0.460926	1.308535
C94	C	-1.118610	-0.246274	0.358338
C95	C	-0.785277	0.087059	0.691672
C96	C	-0.451943	0.420393	1.025005
H97	H	-0.626945	-0.113426	0.000106
H98	H	-0.293612	0.219907	0.333440
H99	H	0.039722	0.553241	0.666773
C100	C	-1.000220	0.298999	0.000096
C101	C	-0.666887	0.632332	0.333430
C102	C	-0.333553	0.965666	0.666763
H103	H	-1.005851	0.366098	0.000103
H104	H	-0.672517	0.699431	0.333436
H105	H	-0.339184	1.032764	0.666769
H106	H	-0.969864	0.284417	-0.059332
H107	H	-0.636531	0.617750	0.274001
H108	H	-0.303197	0.951083	0.607334
H109	H	-0.963170	0.277699	0.059539
H110	H	-0.629836	0.611032	0.392872
H111	H	-0.296503	0.944365	0.726206
H112	H	-1.061335	-0.303725	0.518454
H113	H	-0.728002	0.029608	0.851787
H114	H	-0.394669	0.362941	1.185121
C115	C	-0.663825	-0.364613	0.000065
C116	C	-0.330491	-0.031280	0.333398
C117	C	0.002842	0.302053	0.666731
H118	H	-0.730925	-0.358987	0.000047
H119	H	-0.397592	-0.025654	0.333380
H120	H	-0.064259	0.307679	0.666714
H121	H	-0.642539	-0.401692	0.059489
H122	H	-0.309206	-0.068358	0.392822
H123	H	0.024128	0.264975	0.726155
H124	H	-0.649224	-0.394936	-0.059383
H125	H	-0.315890	-0.061603	0.273950
H126	H	0.017443	0.271730	0.607284
C127	C	-1.277422	0.248988	0.000137
C128	C	-0.944088	0.582322	0.333470
C129	C	-0.610755	0.915655	0.666803
H130	H	-1.271796	0.181888	0.000153
H131	H	-0.938463	0.515221	0.333487
H132	H	-0.605129	0.848554	0.666820
H133	H	-1.314494	0.270283	-0.059286
H134	H	-0.981160	0.603616	0.274048
H135	H	-0.647827	0.936950	0.607381
H136	H	-1.307750	0.263581	0.059586
H137	H	-0.974417	0.596914	0.392919
H138	H	-0.641084	0.930247	0.726253
C139	C	-1.234148	-0.130460	0.466398
C140	C	-0.900815	0.202873	0.799732
C141	C	-0.567481	0.536206	1.133065
H142	H	-1.229629	-0.135018	0.394847
H143	H	-0.896296	0.198315	0.728180
H144	H	-0.562963	0.531648	1.061514
H145	H	-1.217349	-0.066845	0.483907
H146	H	-0.884015	0.266489	0.817240
H147	H	-0.550682	0.599822	1.150574
H148	H	-1.297785	-0.147155	0.483935
H149	H	-0.964451	0.186178	0.817268
H150	H	-0.631118	0.519512	1.150601
