data_functionalizedCrystal
_audit_creation_method	'MofGen! by Chris Wilmer'
_symmetry_space_group_name_H-M	'P1'
_symmetry_Int_Tables_number	1
_symmetry_cell_setting	triclinic
loop_
_symmetry_equiv_pos_as_xyz
  x,y,z
_cell_length_a	10.540510
_cell_length_b	16.992695
_cell_length_c	15.455313
_cell_angle_alpha	92.847427
_cell_angle_beta	87.291883
_cell_angle_gamma	87.590767
loop_
_atom_site_label
_atom_site_type_symbol
_atom_site_fract_x
_atom_site_fract_y
_atom_site_fract_z
O1	O	1.700713	0.107050	-0.072137
O2	O	2.200713	0.607050	0.427863
O3	O	1.332201	0.117491	-0.072138
O4	O	1.832201	0.617491	0.427862
O5	O	1.514979	-0.001880	-0.072131
O6	O	2.014979	0.498120	0.427869
O7	O	1.517935	0.226421	-0.072145
O8	O	2.017935	0.726421	0.427855
O9	O	1.504524	0.004918	0.072131
O10	O	2.004524	0.504918	0.572131
O11	O	1.321746	0.124289	0.072124
O12	O	1.821746	0.624289	0.572124
O13	O	1.690258	0.113848	0.072124
O14	O	2.190258	0.613848	0.572124
Cu15	Cu	1.505047	0.119689	0.085296
Cu16	Cu	2.005047	0.619689	0.585296
Cu17	Cu	1.517412	0.111650	-0.085310
Cu18	Cu	2.017412	0.611650	0.414690
O19	O	1.507480	0.233219	0.072117
O20	O	2.007480	0.733219	0.572117
C21	C	1.505951	-0.027715	-0.000000
C22	C	2.005951	0.472285	0.500000
C23	C	1.494610	-0.114822	-0.000000
C24	C	1.994610	0.385178	0.500000
C25	C	1.279603	0.120112	-0.000007
C26	C	1.779603	0.620112	0.499993
C27	C	1.138451	0.117784	-0.000007
C28	C	1.638451	0.617784	0.499993
C29	C	1.604031	-0.164457	0.000001
C30	C	2.104031	0.335543	0.500001
C31	C	1.593368	-0.246303	-0.000007
C32	C	2.093368	0.253697	0.499993
C33	C	1.473284	-0.278512	-0.000011
C34	C	1.973284	0.221488	0.499989
C35	C	1.363855	-0.228871	-0.000014
C36	C	1.863855	0.271129	0.499986
C37	C	1.374519	-0.147027	-0.000012
C38	C	1.874519	0.352973	0.499988
C39	C	1.429085	-0.522355	-0.000023
C40	C	1.929085	-0.022355	0.499977
C41	C	1.418429	-0.604205	-0.000022
C42	C	1.918429	-0.104205	0.499978
C43	C	1.647943	-0.621632	-0.000017
C44	C	2.147943	-0.121632	0.499983
C45	C	1.658597	-0.539785	-0.000010
C46	C	2.158597	-0.039785	0.499990
C47	C	1.549168	-0.490151	-0.000018
C48	C	2.049168	0.009849	0.499982
N49	N	1.462382	-0.362171	-0.000016
N50	N	1.962382	0.137829	0.499984
N51	N	1.560072	-0.406493	-0.000018
N52	N	2.060072	0.093507	0.499982
C53	C	0.928215	0.200695	-0.000344
C54	C	1.428215	0.700695	0.499656
C55	C	1.075003	0.203194	-0.000013
C56	C	1.575003	0.703194	0.499987
C57	C	1.083927	0.077944	0.082374
C58	C	1.583927	0.577944	0.582374
C59	C	0.936998	0.076069	0.082438
C60	C	1.436998	0.576069	0.582438
C61	C	0.948927	0.066560	-0.081615
C62	C	1.448927	0.566560	0.418385
C63	C	1.095698	0.070560	-0.082699
C64	C	1.595698	0.570560	0.417301
C65	C	1.742857	0.111227	-0.000008
C66	C	2.242857	0.611227	0.499992
C67	C	1.884009	0.113554	-0.000014
C68	C	2.384009	0.613554	0.499986
C69	C	1.516508	0.259053	-0.000016
C70	C	2.016508	0.759053	0.499984
C71	C	1.527849	0.346160	-0.000021
C72	C	2.027849	0.846160	0.499979
N73	N	1.496360	0.125343	0.205291
N74	N	1.996360	0.625343	0.705291
N75	N	1.526108	0.105990	-0.205305
N76	N	2.026108	0.605990	0.294695
C77	C	1.574042	0.074649	0.250689
C78	C	2.074042	0.574649	0.750689
C79	C	1.567484	0.078932	0.341496
C80	C	2.067484	0.578932	0.841496
C81	C	1.483251	0.133913	0.386905
C82	C	1.983251	0.633913	0.886905
C83	C	1.405562	0.184610	0.341501
C84	C	1.905562	0.684610	0.841501
C85	C	1.412113	0.180322	0.250696
C86	C	1.912113	0.680322	0.750696
C87	C	1.454970	0.152399	0.658485
C88	C	1.954970	0.652399	1.158485
C89	C	1.448427	0.156684	0.749298
C90	C	1.948427	0.656684	1.249298
C91	C	1.610349	0.051004	0.749286
C92	C	2.110349	0.551004	1.249286
C93	C	1.616898	0.046725	0.658478
C94	C	2.116898	0.546725	1.158478
C95	C	1.539204	0.097418	0.613083
C96	C	2.039204	0.597418	1.113083
N97	N	1.476550	0.138294	0.479725
N98	N	1.976550	0.638294	0.979725
N99	N	1.545900	0.093033	0.520265
N100	N	2.045900	0.593033	1.020265
H101	H	1.682471	-0.286713	-0.000005
H102	H	2.182471	0.213287	0.499995
N103	N	1.136289	-0.000742	0.086242
N104	N	1.636289	0.499258	0.586242
N105	N	1.198306	-0.019452	0.149639
N106	N	1.698306	0.480548	0.649639
H107	H	1.235297	-0.075023	0.152371
H108	H	1.735297	0.424977	0.652371
H109	H	1.756382	-0.513567	-0.000007
H110	H	2.256382	-0.013567	0.499993
N111	N	1.759702	-0.672342	-0.000007
N112	N	2.259702	-0.172342	0.499993
N113	N	1.750171	-0.745416	-0.000007
N114	N	2.250171	-0.245416	0.499993
H115	H	1.829105	-0.781232	-0.000002
H116	H	2.329105	-0.281232	0.499998
H117	H	1.320635	-0.630425	-0.000011
H118	H	1.820635	-0.130425	0.499989
N119	N	1.241178	-0.261753	-0.000022
N120	N	1.741178	0.238247	0.499978
N121	N	1.169936	-0.249636	-0.060830
N122	N	1.669936	0.250364	0.439170
H123	H	1.083290	-0.272855	-0.060832
H124	H	1.583290	0.227145	0.439168
H125	H	1.285417	-0.106614	-0.000013
H126	H	1.785417	0.393386	0.499987
H127	H	1.112973	0.111197	0.143678
H128	H	1.612973	0.611197	0.643678
N129	N	0.914184	-0.013913	-0.082313
N130	N	1.414184	0.486087	0.417687
N131	N	0.856920	-0.042704	-0.144570
N132	N	1.356920	0.457296	0.355430
H133	H	0.832373	-0.099535	-0.145054
H134	H	1.332373	0.400465	0.354946
H135	H	1.379831	0.201460	0.786265
H136	H	1.879831	0.701460	1.286265
H137	H	0.913241	0.090552	-0.144055
H138	H	1.413241	0.590552	0.355945
H139	H	1.131493	0.099500	-0.143644
H140	H	1.631493	0.599500	0.356356
H141	H	1.642638	0.029880	0.213723
H142	H	2.142638	0.529880	0.713723
N143	N	1.689696	-0.000792	0.795644
N144	N	2.189696	0.499208	1.295644
N145	N	1.764891	-0.049882	0.755089
N146	N	2.264891	0.450118	1.255089
H147	H	1.820931	-0.086469	0.787828
H148	H	2.320931	0.413531	1.287828
N149	N	1.375639	0.204200	0.612127
N150	N	1.875639	0.704200	1.112127
N151	N	1.424531	0.250748	0.561447
N152	N	1.924531	0.750748	1.061447
H153	H	1.368504	0.287338	0.528704
H154	H	1.868504	0.787338	1.028704
H155	H	1.630738	0.037652	0.378458
H156	H	2.130738	0.537652	0.878458
N157	N	1.703178	-0.009307	0.612111
N158	N	2.203178	0.490693	1.112111
N159	N	1.772683	-0.054477	0.652656
N160	N	2.272683	0.445523	1.152656
H161	H	1.833709	-0.093998	0.619909
H162	H	2.333709	0.406002	1.119909
H163	H	1.339980	-0.481952	-0.000029
H164	H	1.839980	0.018048	0.499971
H165	H	1.139715	0.007970	-0.087670
H166	H	1.639715	0.507970	0.412330
N167	N	1.120898	0.242616	-0.074099
N168	N	1.620898	0.742616	0.425901
N169	N	1.044488	0.268473	-0.126410
N170	N	1.544488	0.768473	0.373590
H171	H	1.076895	0.296318	-0.178736
H172	H	1.576895	0.796318	0.321264
N173	N	0.884572	0.238941	-0.074462
N174	N	1.384572	0.738941	0.425538
N175	N	0.820372	0.202425	-0.127907
N176	N	1.320372	0.702425	0.372093
H177	H	0.789540	0.229436	-0.180256
H178	H	1.289540	0.729436	0.319744
N179	N	0.871895	0.245664	0.073350
N180	N	1.371895	0.745664	0.573350
N181	N	0.799342	0.213814	0.126111
N182	N	1.299342	0.713814	0.626111
H183	H	0.759564	0.245571	0.178160
H184	H	1.259564	0.745571	0.678160
N185	N	1.108991	0.249916	0.074152
N186	N	1.608991	0.749916	0.574152
N187	N	1.024247	0.280772	0.125835
N188	N	1.524247	0.780772	0.625835
H189	H	1.048246	0.313793	0.178203
H190	H	1.548246	0.813793	0.678203
H191	H	0.894912	0.108850	0.144015
H192	H	1.394912	0.608850	0.644015
H193	H	1.336971	0.229374	0.378479
H194	H	1.836971	0.729374	0.878479
H195	H	0.908188	0.012364	0.086184
H196	H	1.408188	0.512364	0.586184
N197	N	1.332749	0.232108	0.204334
N198	N	1.832749	0.732108	0.704334
N199	N	1.257545	0.281195	0.244885
N200	N	1.757545	0.781195	0.744885
H201	H	1.201487	0.317769	0.212144
H202	H	1.701487	0.817769	0.712144
H203	H	1.701817	-0.138239	0.000009
H204	H	2.201817	0.361761	0.500009
