data_functionalizedCrystal
_audit_creation_method	'MofGen! by Chris Wilmer'
_symmetry_space_group_name_H-M	'P1'
_symmetry_Int_Tables_number	1
_symmetry_cell_setting	triclinic
loop_
_symmetry_equiv_pos_as_xyz
  x,y,z
_cell_length_a	10.489741
_cell_length_b	10.723024
_cell_length_c	9.198806
_cell_angle_alpha	89.998639
_cell_angle_beta	90.001007
_cell_angle_gamma	95.496478
loop_
_atom_site_label
_atom_site_type_symbol
_atom_site_fract_x
_atom_site_fract_y
_atom_site_fract_z
O1	O	-1.693940	0.176061	-0.120795
O2	O	-1.322734	0.192587	-0.120817
O3	O	-1.516899	0.002753	-0.120804
O4	O	-1.499774	0.365895	-0.120809
O5	O	-1.516885	0.002752	0.120981
O6	O	-1.322719	0.192586	0.120968
O7	O	-1.693925	0.176059	0.120990
Cu8	Cu	-1.508321	0.184322	0.143056
Cu9	Cu	-1.508338	0.184324	-0.142883
O10	O	-1.499760	0.365893	0.120976
C11	C	-1.275196	0.191338	0.000072
C12	C	-1.133569	0.187604	0.000064
C13	C	-1.515646	-0.043748	0.000086
C14	C	-1.511917	-0.182305	0.000078
C15	C	-1.741464	0.177308	0.000097
C16	C	-1.883091	0.181043	0.000096
C17	C	-1.065506	0.066818	0.000079
C18	C	-0.973349	0.123877	-0.119131
C19	C	-0.973369	0.123904	0.119250
C20	C	-1.043278	0.244712	-0.119245
C21	C	-1.043307	0.244723	0.119243
C22	C	-0.951178	0.301869	0.000004
C23	C	-1.501013	0.412395	0.000083
C24	C	-1.504742	0.550951	0.000082
N25	N	-1.508318	0.184320	0.344170
C26	C	-1.396097	0.625867	0.000074
C27	C	-1.399948	0.769073	0.000072
N28	N	-1.508351	0.184316	-0.343997
C29	C	-1.590044	0.104442	0.583776
C30	C	-1.590027	0.104443	0.416364
H31	H	-1.115259	-0.032476	-0.000068
H32	H	-1.074314	0.295788	0.220032
H33	H	-0.942374	0.072770	-0.219915
F34	F	-0.932915	0.057077	0.250984
F35	F	-1.633496	0.733563	0.000097
H36	H	-1.306940	0.833449	0.000076
F37	F	-1.270789	0.571133	0.000051
H38	H	-1.600608	0.592832	0.000034
H39	H	-1.074079	0.295780	-0.220142
F40	F	-1.681489	0.015059	0.664940
F41	F	-0.886490	0.431789	-0.000079
F42	F	-1.416920	0.273710	0.574836
H43	H	-1.659964	0.036054	0.354252
H44	H	-1.438369	0.252704	0.406272
