data_functionalizedCrystal
_audit_creation_method	'MofGen! by Chris Wilmer'
_symmetry_space_group_name_H-M	'P1'
_symmetry_Int_Tables_number	1
_symmetry_cell_setting	triclinic
loop_
_symmetry_equiv_pos_as_xyz
  x,y,z
_cell_length_a	14.519709
_cell_length_b	14.472311
_cell_length_c	15.995350
_cell_angle_alpha	89.992572
_cell_angle_beta	96.413740
_cell_angle_gamma	89.998506
loop_
_atom_site_label
_atom_site_type_symbol
_atom_site_fract_x
_atom_site_fract_y
_atom_site_fract_z
O1	O	1.223667	0.076716	-0.109765
O2	O	0.955167	0.076744	-0.122690
O3	O	1.096756	0.076728	0.005649
O4	O	1.082077	0.076731	-0.238104
O5	O	1.096747	-0.076954	0.005665
O6	O	0.955157	-0.076938	-0.122674
O7	O	1.223657	-0.076966	-0.109748
Cu8	Cu	1.089406	-0.090985	-0.116210
Cu9	Cu	1.089418	0.090762	-0.116229
O10	O	1.082067	-0.076951	-0.238088
C11	C	0.920803	-0.000094	-0.122080
C12	C	0.818425	-0.000083	-0.120275
N13	N	1.089405	-0.218816	-0.116196
C14	C	0.443541	-0.000125	-0.113629
C15	C	0.547846	-0.000113	-0.115475
C16	C	0.630980	-0.000103	-0.116952
C17	C	0.735291	-0.000093	-0.118797
C18	C	1.089419	-0.592907	-0.116223
C19	C	1.165426	-0.553720	-0.047781
C20	C	1.165228	-0.446632	-0.047528
C21	C	1.089412	-0.407316	-0.116209
C22	C	0.993195	-0.446197	-0.096984
C23	C	0.993645	-0.553318	-0.096500
C24	C	1.108761	-0.553413	-0.204090
C25	C	1.110946	-0.446285	-0.203505
C26	C	1.089403	-0.302428	-0.116203
C27	C	1.089422	-0.697795	-0.116227
C28	C	1.258021	-0.000127	-0.110359
C29	C	1.360399	-0.000131	-0.112164
C30	C	1.096145	-0.000111	0.036853
C31	C	1.094325	-0.000106	0.129806
N32	N	1.089426	0.218593	-0.116236
C33	C	1.082679	-0.000109	-0.269292
C34	C	1.084498	-0.000109	-0.362245
C35	C	1.087791	-0.000108	0.467563
C36	C	0.986954	0.000247	0.420280
C37	C	0.988773	-0.000100	0.323587
C38	C	1.091032	-0.000106	0.299998
C39	C	1.140763	-0.087870	0.341010
C40	C	1.138230	-0.087943	0.437650
C41	C	1.140324	0.086822	0.437986
C42	C	1.140301	0.087982	0.341041
C43	C	1.092869	-0.000108	0.205298
C44	C	1.085957	-0.000112	0.562264
H45	H	1.236751	-0.420344	-0.058997
H46	H	1.053335	-0.578759	-0.255025
H47	H	1.059173	-0.419519	-0.256833
C48	C	1.091207	0.175671	0.304218
C49	C	0.988101	0.191774	0.313912
C50	C	0.938983	0.279448	0.277078
C51	C	0.992970	0.351019	0.230550
C52	C	1.096081	0.334918	0.220854
C53	C	1.145199	0.247244	0.257688
H54	H	0.948132	0.138791	0.348357
H55	H	0.862653	0.291367	0.284257
H56	H	0.956610	0.415921	0.203284
H57	H	1.136051	0.387901	0.186409
H58	H	1.221529	0.235325	0.250509
H59	H	0.946654	0.063184	0.438866
C60	C	1.095791	0.176688	0.465785
C61	C	1.055987	0.247454	0.399451
C62	C	1.011442	0.337313	0.427248
C63	C	1.006701	0.356406	0.521380
C64	C	1.046507	0.285638	0.587720
C65	C	1.091052	0.195779	0.559922
H66	H	1.059495	0.233322	0.329764
H67	H	0.981975	0.389700	0.378139
H68	H	0.973726	0.422925	0.541957
H69	H	1.042998	0.299770	0.657407
H70	H	1.120519	0.143392	0.609032
C71	C	1.262379	-0.588513	-0.063024
C72	C	1.273725	-0.652936	-0.137803
C73	C	1.370681	-0.687733	-0.153049
C74	C	1.456290	-0.658109	-0.093517
C75	C	1.444947	-0.593683	-0.018733
C76	C	1.347991	-0.558885	-0.003487
H77	H	1.210349	-0.674869	-0.181877
H78	H	1.379077	-0.735426	-0.208410
H79	H	1.528063	-0.683868	-0.104803
H80	H	1.508323	-0.571750	0.025341
H81	H	1.339595	-0.511193	0.051873
C82	C	1.241043	0.095143	0.320137
C83	C	1.280513	0.020795	0.265190
C84	C	1.381259	0.027950	0.244285
C85	C	1.442535	0.109453	0.278327
C86	C	1.403066	0.183807	0.333278
C87	C	1.302320	0.176652	0.354182
H88	H	1.235152	-0.039544	0.239987
H89	H	1.410476	-0.027092	0.203607
H90	H	1.517113	0.114750	0.262852
H91	H	1.448427	0.244146	0.358480
H92	H	1.273103	0.231695	0.394861
H93	H	0.975729	-0.419376	-0.033628
H94	H	0.949410	-0.063111	0.295788
C95	C	1.148510	-0.412014	0.040551
C96	C	1.135293	-0.481842	0.110878
C97	C	1.118564	-0.447224	0.198959
C98	C	1.115051	-0.342780	0.216714
C99	C	1.128269	-0.272946	0.146386
C100	C	1.144998	-0.307563	0.058304
H101	H	1.137892	-0.559163	0.097736
H102	H	1.108779	-0.498920	0.251020
H103	H	1.102667	-0.317154	0.281917
H104	H	1.125669	-0.195624	0.159527
H105	H	1.154782	-0.255867	0.006243
H106	H	0.935272	-0.420730	-0.145501
H107	H	1.181727	-0.420873	-0.218090
C108	C	0.970623	-0.587091	-0.009925
C109	C	0.951957	-0.516591	0.058291
C110	C	0.928937	-0.550358	0.144869
C111	C	0.924583	-0.654626	0.163232
C112	C	0.943250	-0.725133	0.095015
C113	C	0.966270	-0.691366	0.008436
H114	H	0.955179	-0.439399	0.044699
H115	H	0.915119	-0.498163	0.195368
H116	H	0.907542	-0.679623	0.227323
H117	H	0.940027	-0.802325	0.108607
H118	H	0.980088	-0.743561	-0.042062
C119	C	0.932736	-0.084291	0.446833
C120	C	0.979622	-0.153550	0.511205
C121	C	0.925406	-0.238089	0.537760
C122	C	0.824305	-0.253369	0.499943
C123	C	0.777413	-0.184109	0.435568
C124	C	0.831629	-0.099570	0.409012
H125	H	1.054468	-0.142240	0.539203
H126	H	0.960119	-0.289360	0.585416
H127	H	0.784171	-0.315950	0.519601
H128	H	0.702567	-0.195419	0.407570
H129	H	0.796916	-0.048299	0.361357
H130	H	1.101958	-0.153543	0.456012
H131	H	1.214672	0.087407	0.469636
H132	H	1.215890	-0.091138	0.326772
H133	H	1.212264	-0.091930	0.469788
H134	H	1.106215	-0.153175	0.312687
H135	H	1.177423	-0.580429	-0.222532
C136	C	0.914906	-0.588346	-0.161230
C137	C	0.851818	-0.518844	-0.213197
C138	C	0.773060	-0.553867	-0.277904
C139	C	0.757390	-0.658393	-0.290645
C140	C	0.820479	-0.727902	-0.238677
C141	C	0.899237	-0.692879	-0.173970
H142	H	0.863417	-0.441462	-0.203766
H143	H	0.726357	-0.502411	-0.316374
H144	H	0.699088	-0.684319	-0.338545
H145	H	0.808881	-0.805284	-0.248108
H146	H	0.945940	-0.744334	-0.135500
H147	H	1.153248	-0.580650	0.017053
H148	H	0.949681	0.062813	0.295217
