data_functionalizedCrystal
_audit_creation_method	'MofGen! by Chris Wilmer'
_symmetry_space_group_name_H-M	'P1'
_symmetry_Int_Tables_number	1
_symmetry_cell_setting	triclinic
loop_
_symmetry_equiv_pos_as_xyz
  x,y,z
_cell_length_a	18.101398
_cell_length_b	19.120786
_cell_length_c	18.101389
_cell_angle_alpha	92.460644
_cell_angle_beta	90.009745
_cell_angle_gamma	92.461076
loop_
_atom_site_label
_atom_site_type_symbol
_atom_site_fract_x
_atom_site_fract_y
_atom_site_fract_z
Zn1	Zn	1.119565	-0.279784	0.405955
Zn2	Zn	1.369565	-0.029784	0.655955
Zn3	Zn	1.619565	0.220216	0.905955
Zn4	Zn	1.869565	0.470216	1.155955
Zn5	Zn	1.114191	-0.397225	0.276826
Zn6	Zn	1.364191	-0.147225	0.526826
Zn7	Zn	1.614191	0.102775	0.776826
Zn8	Zn	1.864191	0.352775	1.026826
Zn9	Zn	0.995725	-0.279778	0.282148
Zn10	Zn	1.245725	-0.029778	0.532148
Zn11	Zn	1.495725	0.220222	0.782148
Zn12	Zn	1.745725	0.470222	1.032148
Zn13	Zn	0.990406	-0.397196	0.400648
Zn14	Zn	1.240406	-0.147196	0.650648
Zn15	Zn	1.490406	0.102804	0.900648
Zn16	Zn	1.740406	0.352804	1.150648
O17	O	1.054972	-0.338496	0.341394
O18	O	1.304972	-0.088496	0.591394
O19	O	1.554972	0.161504	0.841394
O20	O	1.804972	0.411504	1.091394
O21	O	1.222485	-0.295378	0.388820
O22	O	1.472485	-0.045378	0.638820
O23	O	1.722485	0.204622	0.888820
O24	O	1.972485	0.454622	1.138820
O25	O	1.098453	-0.381655	0.173899
O26	O	1.348453	-0.131655	0.423899
O27	O	1.598453	0.118345	0.673899
O28	O	1.848453	0.368345	0.923899
O29	O	1.016627	-0.181489	0.303019
O30	O	1.266627	0.068511	0.553019
O31	O	1.516627	0.318511	0.803019
O32	O	1.766627	0.568511	1.053019
O33	O	1.218536	-0.381662	0.293949
O34	O	1.468536	-0.131662	0.543949
O35	O	1.718536	0.118338	0.793949
O36	O	1.968536	0.368338	1.043949
O37	O	1.107613	-0.181494	0.393980
O38	O	1.357613	0.068506	0.643980
O39	O	1.607613	0.318506	0.893980
O40	O	1.857613	0.568506	1.143980
O41	O	1.011416	-0.295367	0.177808
O42	O	1.261416	-0.045367	0.427808
O43	O	1.511416	0.204633	0.677808
O44	O	1.761416	0.454633	0.927808
O45	O	0.891387	-0.295338	0.297873
O46	O	1.141387	-0.045338	0.547873
O47	O	1.391387	0.204662	0.797873
O48	O	1.641387	0.454662	1.047873
O49	O	1.007563	-0.381611	0.504985
O50	O	1.257563	-0.131611	0.754985
O51	O	1.507563	0.118389	1.004985
O52	O	1.757563	0.368389	1.254985
O53	O	0.887479	-0.381605	0.384934
O54	O	1.137479	-0.131605	0.634934
O55	O	1.387479	0.118395	0.884934
O56	O	1.637479	0.368395	1.134934
O57	O	1.102455	-0.295350	0.508884
O58	O	1.352455	-0.045350	0.758884
O59	O	1.602455	0.204650	1.008884
O60	O	1.852455	0.454650	1.258884
O61	O	1.093296	-0.495511	0.288803
O62	O	1.343296	-0.245511	0.538803
O63	O	1.593296	0.004489	0.788803
O64	O	1.843296	0.254489	1.038803
O65	O	1.002351	-0.495489	0.379774
O66	O	1.252351	-0.245489	0.629774
O67	O	1.502351	0.004511	0.879774
O68	O	1.752351	0.254511	1.129774
C69	C	0.862562	-0.338468	0.341406
C70	C	1.112562	-0.088468	0.591406
C71	C	1.362562	0.161532	0.841406
C72	C	1.612562	0.411532	1.091406
C73	C	0.780248	-0.338473	0.341427
C74	C	1.030248	-0.088473	0.591427
C75	C	1.280248	0.161527	0.841427
C76	C	1.530248	0.411527	1.091427
C77	C	0.481155	-0.338515	0.341395
C78	C	0.731155	-0.088515	0.591395
C79	C	0.981155	0.161485	0.841395
C80	C	1.231155	0.411485	1.091395
C81	C	0.510035	-0.393053	0.395877
C82	C	0.760035	-0.143053	0.645877
C83	C	1.010035	0.106947	0.895877
C84	C	1.260035	0.356947	1.145877
C85	C	0.595661	-0.392883	0.396119
C86	C	0.845661	-0.142883	0.646119
C87	C	1.095661	0.107117	0.896119
C88	C	1.345661	0.357117	1.146119
C89	C	0.629539	-0.338495	0.341411
C90	C	0.879539	-0.088495	0.591411
C91	C	1.129539	0.161505	0.841411
C92	C	1.379539	0.411505	1.091411
C93	C	0.601804	-0.264518	0.366069
C94	C	0.851804	-0.014518	0.616069
C95	C	1.101804	0.235482	0.866069
C96	C	1.351804	0.485482	1.116069
C97	C	0.516144	-0.264845	0.366459
C98	C	0.766144	-0.014845	0.616459
C99	C	1.016144	0.235155	0.866459
C100	C	1.266144	0.485155	1.116459
C101	C	0.511860	-0.357300	0.262146
C102	C	0.761860	-0.107300	0.512146
C103	C	1.011860	0.142700	0.762146
C104	C	1.261860	0.392700	1.012146
C105	C	0.597437	-0.358923	0.262492
C106	C	0.847437	-0.108923	0.512492
C107	C	1.097437	0.141077	0.762492
C108	C	1.347437	0.391077	1.012492
C109	C	0.713399	-0.338479	0.341419
C110	C	0.963399	-0.088479	0.591419
C111	C	1.213399	0.161521	0.841419
C112	C	1.463399	0.411521	1.091419
C113	C	0.397295	-0.338525	0.341389
C114	C	0.647295	-0.088525	0.591389
C115	C	0.897295	0.161475	0.841389
C116	C	1.147295	0.411475	1.091389
C117	C	1.046683	-0.520985	0.333151
C118	C	1.296683	-0.270985	0.583151
C119	C	1.546683	-0.020985	0.833151
C120	C	1.796683	0.229015	1.083151
C121	C	1.043205	-0.599055	0.329650
C122	C	1.293205	-0.349055	0.579650
C123	C	1.543205	-0.099055	0.829650
C124	C	1.793205	0.150945	1.079650
C125	C	1.088907	-0.635674	0.375402
C126	C	1.338907	-0.385674	0.625402
C127	C	1.588907	-0.135674	0.875402
C128	C	1.838907	0.114326	1.125402
C129	C	1.085636	-0.709029	0.372113
C130	C	1.335636	-0.459029	0.622113
C131	C	1.585636	-0.209029	0.872113
C132	C	1.835636	0.040971	1.122113
C133	C	1.036666	-0.745763	0.323068
C134	C	1.286666	-0.495763	0.573068
C135	C	1.536666	-0.245763	0.823068
C136	C	1.786666	0.004237	1.073068
C137	C	0.990959	-0.709138	0.277315
C138	C	1.240959	-0.459138	0.527315
C139	C	1.490959	-0.209138	0.777315
C140	C	1.740959	0.040862	1.027315
C141	C	0.994227	-0.635785	0.280608
C142	C	1.244227	-0.385785	0.530608
C143	C	1.494227	-0.135785	0.780608
C144	C	1.744227	0.114215	1.030608
C145	C	1.024428	-0.967246	0.310758
C146	C	1.274428	-0.717246	0.560758
C147	C	1.524428	-0.467246	0.810758
C148	C	1.774428	-0.217246	1.060758
C149	C	1.021165	-1.040605	0.307467
C150	C	1.271165	-0.790605	0.557467
C151	C	1.521165	-0.540605	0.807467
C152	C	1.771165	-0.290605	1.057467
C153	C	1.115841	-1.040490	0.402266
C154	C	1.365841	-0.790490	0.652266
C155	C	1.615841	-0.540490	0.902266
C156	C	1.865841	-0.290490	1.152266
C157	C	1.119108	-0.967135	0.405552
C158	C	1.369108	-0.717135	0.655552
C159	C	1.619108	-0.467135	0.905552
C160	C	1.869108	-0.217135	1.155552
C161	C	1.073398	-0.930517	0.359801
C162	C	1.323398	-0.680517	0.609801
C163	C	1.573398	-0.430517	0.859801
C164	C	1.823398	-0.180517	1.109801
C165	C	1.033323	-0.820743	0.319704
C166	C	1.283323	-0.570743	0.569704
C167	C	1.533323	-0.320743	0.819704
C168	C	1.783323	-0.070743	1.069704
C169	C	1.076738	-0.855538	0.363170
C170	C	1.326738	-0.605538	0.613170
C171	C	1.576738	-0.355538	0.863170
C172	C	1.826738	-0.105538	1.113170
C173	C	1.248132	-0.338524	0.341383
C174	C	1.498132	-0.088524	0.591383
C175	C	1.748132	0.161476	0.841383
C176	C	1.998132	0.411476	1.091383
C177	C	1.330446	-0.338536	0.341378
C178	C	1.580446	-0.088536	0.591378
C179	C	1.830446	0.161464	0.841378
C180	C	2.080446	0.411464	1.091378
C181	C	1.055015	-0.338478	0.534557
C182	C	1.305015	-0.088478	0.784557
C183	C	1.555015	0.161522	1.034557
C184	C	1.805015	0.411522	1.284557
C185	C	1.055034	-0.338470	0.616871
C186	C	1.305034	-0.088470	0.866871
C187	C	1.555034	0.161530	1.116871
C188	C	1.805034	0.411530	1.366871
C189	C	1.063313	-0.155294	0.349685
C190	C	1.313313	0.094706	0.599685
C191	C	1.563313	0.344706	0.849685
C192	C	1.813313	0.594706	1.099685
C193	C	1.066867	-0.077224	0.353218
C194	C	1.316867	0.172776	0.603218
C195	C	1.566867	0.422776	0.853218
C196	C	1.816867	0.672776	1.103218
C197	C	1.054973	-0.338463	0.148985
C198	C	1.304973	-0.088463	0.398985
C199	C	1.554973	0.161537	0.648985
C200	C	1.804973	0.411537	0.898985
C201	C	1.055107	-0.338272	0.066680
C202	C	1.305107	-0.088272	0.316680
C203	C	1.555107	0.161728	0.566680
C204	C	1.805107	0.411728	0.816680
C205	C	1.055083	-0.338339	0.915968
C206	C	1.305083	-0.088339	1.165968
C207	C	1.555083	0.161661	1.415968
C208	C	1.805083	0.411661	1.665968
C209	C	0.995190	-0.392440	0.882198
C210	C	1.245190	-0.142440	1.132198
C211	C	1.495190	0.107560	1.382198
C212	C	1.745190	0.357560	1.632198
C213	C	0.995334	-0.392691	0.796568
C214	C	1.245334	-0.142691	1.046568
C215	C	1.495334	0.107309	1.296568
C216	C	1.745334	0.357309	1.546568
C217	C	1.055058	-0.338404	0.767583
C218	C	1.305058	-0.088404	1.017583
C219	C	1.555058	0.161596	1.267583
C220	C	1.805058	0.411596	1.517583
C221	C	1.132181	-0.358502	0.797764
C222	C	1.382181	-0.108502	1.047764
C223	C	1.632181	0.141498	1.297764
C224	C	1.882181	0.391498	1.547764
C225	C	1.131845	-0.358857	0.883393
C226	C	1.381845	-0.108857	1.133393
C227	C	1.631845	0.141143	1.383393
C228	C	1.881845	0.391143	1.633393
C229	C	1.038537	-0.264020	0.887743
C230	C	1.288537	-0.014020	1.137743
C231	C	1.538537	0.235980	1.387743
C232	C	1.788537	0.485980	1.637743
C233	C	1.036781	-0.264449	0.802074
C234	C	1.286781	-0.014449	1.052074
C235	C	1.536781	0.235551	1.302074
C236	C	1.786781	0.485551	1.552074
C237	C	1.055049	-0.338440	0.683722
C238	C	1.305049	-0.088440	0.933722
C239	C	1.555049	0.161560	1.183722
C240	C	1.805049	0.411560	1.433722
C241	C	1.055097	-0.338305	0.999829
C242	C	1.305097	-0.088305	1.249829
C243	C	1.555097	0.161695	1.499829
C244	C	1.805097	0.411695	1.749829
H245	H	0.486950	-0.448091	0.380181
H246	H	0.736950	-0.198091	0.630181
H247	H	0.986950	0.051909	0.880181
H248	H	1.236950	0.301909	1.130181
H249	H	1.177804	-0.321163	0.905819
H250	H	1.427804	-0.071163	1.155819
H251	H	1.677804	0.178837	1.405819
H252	H	1.927804	0.428837	1.655819
H253	H	0.983451	-0.245711	0.910168
H254	H	1.233451	0.004289	1.160168
H255	H	1.483451	0.254289	1.410168
H256	H	1.733451	0.504289	1.660168
H257	H	0.624041	-0.222781	0.327771
H258	H	0.874041	0.027219	0.577771
H259	H	1.124041	0.277219	0.827771
H260	H	1.374041	0.527219	1.077771
H261	H	0.951084	-0.739053	0.237384
H262	H	1.201084	-0.489053	0.487384
H263	H	1.451084	-0.239053	0.737384
H264	H	1.701084	0.010947	0.987384
H265	H	1.116607	-0.825627	0.403105
H266	H	1.366607	-0.575627	0.653105
H267	H	1.616607	-0.325627	0.903105
H268	H	1.866607	-0.075627	1.153105
H269	H	1.146262	-0.413185	0.900926
H270	H	1.396262	-0.163185	1.150926
H271	H	1.646262	0.086815	1.400926
H272	H	1.896262	0.336815	1.650926
H273	H	1.177860	-0.320335	0.779125
H274	H	1.427860	-0.070335	1.029125
H275	H	1.677860	0.179665	1.279125
H276	H	1.927860	0.429665	1.529125
H277	H	0.993454	-0.850660	0.279769
H278	H	1.243454	-0.600660	0.529769
H279	H	1.493454	-0.350660	0.779769
H280	H	1.743454	-0.100660	1.029769
H281	H	1.005987	-0.447778	0.773602
H282	H	1.255987	-0.197778	1.023602
H283	H	1.505987	0.052222	1.273602
H284	H	1.755987	0.302222	1.523602
H285	H	1.146915	-0.412252	0.773897
H286	H	1.396915	-0.162252	1.023897
H287	H	1.646915	0.087748	1.273897
H288	H	1.896915	0.337748	1.523897
H289	H	1.122857	-0.738841	0.409363
H290	H	1.372857	-0.488841	0.659363
H291	H	1.622857	-0.238841	0.909363
H292	H	1.872857	0.011159	1.159363
H293	H	1.077487	-0.222001	0.782591
H294	H	1.327487	0.027999	1.032591
H295	H	1.577487	0.277999	1.282591
H296	H	1.827487	0.527999	1.532591
H297	H	0.980042	-0.249294	0.782439
H298	H	1.230042	0.000706	1.032439
H299	H	1.480042	0.250706	1.282439
H300	H	1.730042	0.500706	1.532439
H301	H	1.082201	-0.223712	0.909823
H302	H	1.332201	0.026288	1.159823
H303	H	1.582201	0.276288	1.409823
H304	H	1.832201	0.526288	1.659823
H305	H	0.614194	-0.447741	0.380282
H306	H	0.864194	-0.197741	0.630282
H307	H	1.114194	0.052259	0.880282
H308	H	1.364194	0.302259	1.130282
H309	H	0.957011	-0.605970	0.243353
H310	H	1.207011	-0.355970	0.493353
H311	H	1.457011	-0.105970	0.743353
H312	H	1.707011	0.144030	0.993353
H313	H	0.616721	-0.380454	0.454769
H314	H	0.866721	-0.130454	0.704769
H315	H	1.116721	0.119546	0.954769
H316	H	1.366721	0.369546	1.204769
H317	H	1.153054	-1.070313	0.439515
H318	H	1.403054	-0.820313	0.689515
H319	H	1.653054	-0.570313	0.939515
H320	H	1.903054	-0.320313	1.189515
H321	H	0.987211	-0.937437	0.273504
H322	H	1.237211	-0.687437	0.523504
H323	H	1.487211	-0.437437	0.773504
H324	H	1.737211	-0.187437	1.023504
H325	H	0.489075	-0.380783	0.454185
H326	H	0.739075	-0.130783	0.704185
H327	H	0.989075	0.119217	0.954185
H328	H	1.239075	0.369217	1.204185
H329	H	0.496898	-0.248910	0.424492
H330	H	0.746898	0.001090	0.674492
H331	H	0.996898	0.251090	0.924492
H332	H	1.246898	0.501090	1.174492
H333	H	0.497311	-0.222754	0.328785
H334	H	0.747311	0.027246	0.578785
H335	H	0.997311	0.277246	0.828785
H336	H	1.247311	0.527246	1.078785
H337	H	0.938039	-0.380113	0.776116
H338	H	1.188039	-0.130113	1.026116
H339	H	1.438039	0.119887	1.276116
H340	H	1.688039	0.369887	1.526116
H341	H	1.005728	-0.447191	0.901255
H342	H	1.255728	-0.197191	1.151255
H343	H	1.505728	0.052809	1.401255
H344	H	1.755728	0.302809	1.651255
H345	H	0.623997	-0.248295	0.423492
H346	H	0.873997	0.001705	0.673492
H347	H	1.123997	0.251705	0.923492
H348	H	1.373997	0.501705	1.173492
H349	H	0.937715	-0.379991	0.903359
H350	H	1.187715	-0.129991	1.153359
H351	H	1.437715	0.120009	1.403359
H352	H	1.687715	0.370009	1.653359
H353	H	0.487867	-0.410321	0.240377
H354	H	0.737867	-0.160321	0.490377
H355	H	0.987867	0.089679	0.740377
H356	H	1.237867	0.339679	0.990377
H357	H	0.615298	-0.413359	0.243956
H358	H	0.865298	-0.163359	0.493956
H359	H	1.115298	0.086641	0.743956
H360	H	1.365298	0.336641	0.993956
H361	H	0.981285	-1.070511	0.267528
H362	H	1.231285	-0.820511	0.517528
H363	H	1.481285	-0.570511	0.767528
H364	H	1.731285	-0.320511	1.017528
H365	H	1.158983	-0.937228	0.445488
H366	H	1.408983	-0.687228	0.695488
H367	H	1.658983	-0.437228	0.945488
H368	H	1.908983	-0.187228	1.195488
H369	H	0.620490	-0.322083	0.219449
H370	H	0.870490	-0.072083	0.469449
H371	H	1.120490	0.177917	0.719449
H372	H	1.370490	0.427917	0.969449
H373	H	1.128787	-0.605770	0.415336
H374	H	1.378787	-0.355770	0.665336
H375	H	1.628787	-0.105770	0.915336
H376	H	1.878787	0.144230	1.165336
H377	H	0.493384	-0.317574	0.221511
H378	H	0.743384	-0.067574	0.471511
H379	H	0.993384	0.182426	0.721511
H380	H	1.243384	0.432426	0.971511
