data_functionalizedCrystal
_audit_creation_method	'MofGen! by Chris Wilmer'
_symmetry_space_group_name_H-M	'P1'
_symmetry_Int_Tables_number	1
_symmetry_cell_setting	triclinic
loop_
_symmetry_equiv_pos_as_xyz
  x,y,z
_cell_length_a	15.297475
_cell_length_b	21.295417
_cell_length_c	15.296720
_cell_angle_alpha	99.638166
_cell_angle_beta	91.617114
_cell_angle_gamma	80.332118
loop_
_atom_site_label
_atom_site_type_symbol
_atom_site_fract_x
_atom_site_fract_y
_atom_site_fract_z
Zn1	Zn	1.253315	-0.489896	-0.726513
Zn2	Zn	1.753315	0.010104	-0.226513
Zn3	Zn	1.278561	-0.580536	-0.580012
Zn4	Zn	1.778561	-0.080536	-0.080012
Zn5	Zn	1.132199	-0.454534	-0.554760
Zn6	Zn	1.632199	0.045466	-0.054760
Zn7	Zn	1.106789	-0.574348	-0.701142
Zn8	Zn	1.606789	-0.074348	-0.201142
O9	O	1.192716	-0.524829	-0.640607
O10	O	1.692716	-0.024829	-0.140607
O11	O	1.379239	-0.519309	-0.728265
O12	O	1.879239	-0.019309	-0.228265
O13	O	1.280346	-0.551612	-0.454090
O14	O	1.780346	-0.051612	0.045910
O15	O	1.148333	-0.371150	-0.577592
O16	O	1.648333	0.128850	-0.077592
O17	O	1.397787	-0.585901	-0.620632
O18	O	1.897787	-0.085901	-0.120632
O19	O	1.237317	-0.397130	-0.703779
O20	O	1.737317	0.102870	-0.203779
O21	O	1.172814	-0.459039	-0.435537
O22	O	1.672814	0.040961	0.064463
O23	O	1.006253	-0.453039	-0.552991
O24	O	1.506253	0.046961	-0.052991
O25	O	1.105026	-0.575355	-0.827080
O26	O	1.605026	-0.075355	-0.327080
O27	O	0.987585	-0.541066	-0.660538
O28	O	1.487585	-0.041066	-0.160538
O29	O	1.212678	-0.513309	-0.845720
O30	O	1.712678	-0.013309	-0.345720
O31	O	1.255707	-0.667790	-0.596031
O32	O	1.755707	-0.167790	-0.096031
O33	O	1.129506	-0.663244	-0.685025
O34	O	1.629506	-0.163244	-0.185025
C35	C	0.965136	-0.492545	-0.601272
C36	C	1.465136	0.007455	-0.101272
C37	C	0.867773	-0.478750	-0.584465
C38	C	1.367773	0.021250	-0.084465
C39	C	0.554602	-0.623422	-0.760730
C40	C	1.054602	-0.123422	-0.260730
C41	C	0.646080	-0.636386	-0.776518
C42	C	1.146080	-0.136386	-0.276518
C43	C	0.701507	-0.596978	-0.728507
C44	C	1.201507	-0.096978	-0.228507
C45	C	0.665449	-0.544604	-0.664703
C46	C	1.165449	-0.044604	-0.164703
C47	C	0.573963	-0.531641	-0.648908
C48	C	1.073963	-0.031641	-0.148908
C49	C	0.720868	-0.505198	-0.616685
C50	C	1.220868	-0.005198	-0.116685
C51	C	0.684809	-0.452823	-0.552882
C52	C	1.184809	0.047177	-0.052882
C53	C	0.593332	-0.439862	-0.537090
C54	C	1.093332	0.060138	-0.037090
C55	C	0.537904	-0.479270	-0.585102
C56	C	1.037904	0.020730	-0.085102
C57	C	0.812354	-0.518160	-0.632480
C58	C	1.312354	-0.018160	-0.132480
C59	C	0.831715	-0.426380	-0.520659
C60	C	1.331715	0.073620	-0.020659
C61	C	0.740237	-0.413415	-0.504870
C62	C	1.240237	0.086585	-0.004870
C63	C	1.192609	-0.688359	-0.640538
C64	C	1.692609	-0.188359	-0.140538
C65	C	1.192639	-0.758333	-0.640552
C66	C	1.692639	-0.258333	-0.140552
C67	C	1.258392	-0.793558	-0.594279
C68	C	1.758392	-0.293558	-0.094279
C69	C	1.258429	-0.859308	-0.594306
C70	C	1.758429	-0.359308	-0.094306
C71	C	1.192700	-0.889827	-0.640594
C72	C	1.692700	-0.389827	-0.140594
C73	C	1.126942	-0.854594	-0.686877
C74	C	1.626942	-0.354594	-0.186877
C75	C	1.126911	-0.788847	-0.686856
C76	C	1.626911	-0.288847	-0.186856
N77	N	1.114918	-0.982893	-0.634027
N78	N	1.614918	-0.482893	-0.134027
N79	N	1.114951	-1.045351	-0.634042
N80	N	1.614951	-0.545351	-0.134042
C81	C	1.192790	-1.087921	-0.640661
C82	C	1.692790	-0.587921	-0.140661
N83	N	1.270600	-1.065673	-0.647247
N84	N	1.770600	-0.565673	-0.147247
N85	N	1.270567	-1.003210	-0.647228
N86	N	1.770567	-0.503210	-0.147228
C87	C	1.192726	-0.961119	-0.640622
C88	C	1.692726	-0.461119	-0.140622
C89	C	1.258588	-1.194441	-0.594415
C90	C	1.758588	-0.694441	-0.094415
C91	C	1.258626	-1.260193	-0.594448
C92	C	1.758626	-0.760193	-0.094448
C93	C	1.127132	-1.255477	-0.687013
C94	C	1.627132	-0.755477	-0.187013
C95	C	1.127101	-1.189727	-0.686986
C96	C	1.627101	-0.689727	-0.186986
C97	C	1.192829	-1.159213	-0.640682
C98	C	1.692829	-0.659213	-0.140682
C99	C	1.421184	-0.557239	-0.680096
C100	C	1.921184	-0.057239	-0.180096
C101	C	1.518543	-0.571051	-0.696923
C102	C	2.018543	-0.071051	-0.196923
C103	C	1.153201	-0.547586	-0.869070
C104	C	1.653201	-0.047586	-0.369070
C105	C	1.136362	-0.557284	-0.966428
C106	C	1.636362	-0.057284	-0.466428
C107	C	1.192843	-0.360665	-0.640699
C108	C	1.692843	0.139335	-0.140699
C109	C	1.192898	-0.290708	-0.640738
C110	C	1.692898	0.209292	-0.140738
C111	C	1.313098	-0.455410	-1.279682
C112	C	1.813098	0.044590	-0.779682
C113	C	1.328925	-0.446300	-1.188211
C114	C	1.828925	0.053700	-0.688211
C115	C	1.280785	-0.474045	-1.132761
C116	C	1.780785	0.025955	-0.632761
C117	C	1.216817	-0.510902	-1.168791
C118	C	1.716817	-0.010902	-0.668791
C119	C	1.200994	-0.520017	-1.260272
C120	C	1.700994	-0.020017	-0.760272
C121	C	1.168681	-0.538652	-1.113350
C122	C	1.668681	-0.038652	-0.613350
C123	C	1.104713	-0.575509	-1.149380
C124	C	1.604713	-0.075509	-0.649380
C125	C	1.088892	-0.584622	-1.240852
C126	C	1.588892	-0.084622	-0.740852
C127	C	1.137031	-0.556877	-1.296302
C128	C	1.637031	-0.056877	-0.796302
C129	C	1.184504	-0.529537	-1.021869
C130	C	1.684504	-0.029537	-0.521869
C131	C	1.072400	-0.594144	-1.002458
C132	C	1.572400	-0.094144	-0.502458
C133	C	1.056573	-0.603254	-1.093930
C134	C	1.556573	-0.103254	-0.593930
C135	C	1.232127	-0.502121	-0.413041
C136	C	1.732127	-0.002121	0.086959
C137	C	1.249136	-0.492270	-0.315713
C138	C	1.749136	0.007730	0.184287
H139	H	0.563978	-0.397221	-0.485129
H140	H	1.063978	0.102779	0.014871
H141	H	0.509466	-0.655505	-0.799809
H142	H	1.009466	-0.155505	-0.299809
H143	H	1.311976	-0.887995	-0.556626
H144	H	1.811976	-0.387995	-0.056626
N145	N	1.023231	-0.622485	-0.945815
N146	N	1.523231	-0.122485	-0.445815
N147	N	1.037365	-0.614341	-0.864142
N148	N	1.537365	-0.114341	-0.364142
H149	H	1.002644	-0.634355	-0.824132
H150	H	1.502644	-0.134355	-0.324132
N151	N	0.682925	-0.689877	-0.841685
N152	N	1.182925	-0.189877	-0.341685
N153	N	0.764605	-0.701448	-0.855774
N154	N	1.264605	-0.201448	-0.355774
H155	H	0.790630	-0.739230	-0.901799
H156	H	1.290630	-0.239230	-0.401799
H157	H	1.311913	-0.768716	-0.556579
H158	H	1.811913	-0.268716	-0.056579
N159	N	1.059812	-0.885777	-0.734161
N160	N	1.559812	-0.385777	-0.234161
N161	N	1.059847	-0.944479	-0.734173
N162	N	1.559847	-0.444479	-0.234173
H163	H	1.012437	-0.966503	-0.767572
H164	H	1.512437	-0.466503	-0.267572
H165	H	1.073556	-1.161043	-0.724661
H166	H	1.573556	-0.661043	-0.224661
N167	N	0.991240	-0.640908	-1.130733
N168	N	1.491240	-0.140908	-0.630733
N169	N	0.998757	-0.698791	-1.121490
N170	N	1.498757	-0.198791	-0.621490
H171	H	0.952612	-0.725383	-1.147479
H172	H	1.452612	-0.225383	-0.647479
H173	H	0.841704	-0.560804	-0.684430
H174	H	1.341704	-0.060804	-0.184430
H175	H	1.352292	-0.432829	-1.324838
H176	H	1.852292	0.067171	-0.824838
H177	H	1.124149	-0.564292	-1.370787
H178	H	1.624149	-0.064292	-0.870787
H179	H	0.463414	-0.468716	-0.572252
H180	H	0.963414	0.031284	-0.072252
H181	H	0.710865	-0.370771	-0.452921
H182	H	1.210865	0.129229	0.047079
N183	N	1.059991	-1.286650	-0.734283
N184	N	1.559991	-0.786650	-0.234283
N185	N	1.009557	-1.312399	-0.693787
N186	N	1.509557	-0.812399	-0.193787
H187	H	0.962137	-1.334419	-0.727174
H188	H	1.462137	-0.834419	-0.227174
H189	H	1.236587	-0.499527	-0.992543
H190	H	1.736587	0.000473	-0.492543
N191	N	1.296962	-0.464736	-1.039328
N192	N	1.796962	0.035264	-0.539328
N193	N	1.354076	-0.431827	-1.007169
N194	N	1.854076	0.068173	-0.507169
H195	H	1.365502	-0.425248	-0.941178
H196	H	1.865502	0.074752	-0.441178
N197	N	1.023552	-0.622265	-1.277671
N198	N	1.523552	-0.122265	-0.777671
N199	N	1.009431	-0.630396	-1.359346
N200	N	1.509431	-0.130396	-0.859346
H201	H	0.963283	-0.656981	-1.385350
H202	H	1.463283	-0.156981	-0.885350
H203	H	0.876845	-0.394291	-0.481562
H204	H	1.376845	0.105709	0.018438
N205	N	1.394271	-0.408659	-1.151425
N206	N	1.894271	0.091341	-0.651425
N207	N	1.437249	-0.383892	-1.200940
N208	N	1.937249	0.116108	-0.700940
H209	H	1.483404	-0.357306	-1.174961
H210	H	1.983404	0.142694	-0.674961
N211	N	1.059751	-0.752865	-0.734137
N212	N	1.559751	-0.252865	-0.234137
N213	N	1.051525	-0.769042	-0.815962
N214	N	1.551525	-0.269042	-0.315962
H215	H	1.004091	-0.743629	-0.849356
H216	H	1.504091	-0.243629	-0.349356
N217	N	0.794948	-0.610230	-0.744641
N218	N	1.294948	-0.110230	-0.244641
N219	N	0.827132	-0.656993	-0.801609
N220	N	1.327132	-0.156993	-0.301609
H221	H	0.893128	-0.666353	-0.813010
H222	H	1.393128	-0.166353	-0.313010
H223	H	1.312110	-1.169596	-0.556715
H224	H	1.812110	-0.669596	-0.056715
N225	N	1.325810	-1.296171	-0.547187
N226	N	1.825810	-0.796171	-0.047187
N227	N	1.384489	-1.268915	-0.505855
N228	N	1.884489	-0.768915	-0.005855
H229	H	1.431941	-1.294325	-0.472477
H230	H	1.931941	-0.794325	0.027523
