data_functionalizedCrystal
_audit_creation_method	'MofGen! by Chris Wilmer'
_symmetry_space_group_name_H-M	'P1'
_symmetry_Int_Tables_number	1
_symmetry_cell_setting	triclinic
loop_
_symmetry_equiv_pos_as_xyz
  x,y,z
_cell_length_a	10.654547
_cell_length_b	13.330367
_cell_length_c	10.654541
_cell_angle_alpha	90.004383
_cell_angle_beta	84.484992
_cell_angle_gamma	90.008271
loop_
_atom_site_label
_atom_site_type_symbol
_atom_site_fract_x
_atom_site_fract_y
_atom_site_fract_z
O1	O	1.667844	0.083440	0.176415
O2	O	1.302366	0.083439	0.193217
O3	O	1.493510	0.083433	0.002077
O4	O	1.476700	0.083445	0.367556
O5	O	1.493482	-0.083414	0.002072
O6	O	1.302338	-0.083409	0.193213
O7	O	1.667816	-0.083407	0.176410
Cu8	Cu	1.485074	-0.098642	0.184811
Cu9	Cu	1.485108	0.098674	0.184817
O10	O	1.476672	-0.083402	0.367551
C11	C	1.255554	0.000015	0.191981
C12	C	1.116111	0.000014	0.188287
N13	N	1.485060	-0.237424	0.184807
C14	C	0.854122	0.181929	0.181330
C15	C	0.919655	0.272877	0.183070
C16	C	1.050672	0.272875	0.186550
C17	C	1.116160	0.181914	0.188286
C18	C	1.050627	0.090965	0.186547
C19	C	0.919606	0.090977	0.183071
C20	C	1.050577	-0.090935	0.186548
C21	C	0.919559	-0.090934	0.183077
C22	C	1.116065	-0.181896	0.188285
C23	C	1.050531	-0.272847	0.186554
C24	C	0.919505	-0.272840	0.183076
C25	C	0.854026	-0.181883	0.181338
C26	C	1.400465	-0.710044	0.269420
C27	C	1.569784	-0.710017	0.100204
C28	C	1.569770	-0.604999	0.100200
C29	C	1.485103	-0.552498	0.184808
C30	C	1.400451	-0.605016	0.269421
C31	C	1.654429	-0.552473	0.015597
C32	C	1.654419	-0.447448	0.015590
C33	C	1.569745	-0.394946	0.100194
C34	C	1.485089	-0.447470	0.184810
C35	C	1.400422	-0.394970	0.269419
C36	C	1.315759	-0.447492	0.354029
C37	C	1.315777	-0.552514	0.354025
C38	C	1.569727	-0.289924	0.100198
C39	C	1.400408	-0.289942	0.269420
C40	C	1.714628	0.000019	0.177647
C41	C	1.854071	0.000027	0.181340
C42	C	1.492262	0.000010	-0.044724
C43	C	1.488571	0.000012	-0.184167
N44	N	1.485132	0.237455	0.184811
C45	C	1.717136	0.000000	-0.212136
C46	C	1.829679	-0.000007	-0.291629
C47	C	1.826203	-0.000004	-0.422647
C48	C	1.710172	0.000010	-0.474173
C49	C	1.597629	0.000018	-0.394680
C50	C	1.601117	0.000011	-0.263661
C51	C	1.369068	0.000036	-0.366712
C52	C	1.372540	0.000026	-0.235693
C53	C	1.253037	0.000050	-0.418238
C54	C	1.140491	0.000051	-0.338745
C55	C	1.143971	0.000047	-0.207719
C56	C	1.259997	0.000034	-0.156200
C57	C	1.477920	0.000024	0.414351
C58	C	1.481611	0.000028	0.553795
H59	H	0.747438	0.181940	0.178514
C60	C	1.122570	-0.372892	0.188503
N61	N	1.176833	-0.448249	0.189989
C62	C	1.122761	0.372922	0.188463
N63	N	1.177058	0.448278	0.189906
C64	C	1.706356	0.000017	-0.618298
N65	N	1.703480	0.000019	-0.726854
C66	C	1.720969	-0.000012	-0.068013
N67	N	1.723860	-0.000020	0.040541
H68	H	0.747343	-0.181869	0.178513
H69	H	1.331530	-0.752811	0.338305
C70	C	0.847609	0.372930	0.181158
N71	N	0.793348	0.448289	0.179717
C72	C	1.260289	0.181916	0.192065
N73	N	1.368850	0.181917	0.194900
C74	C	0.847428	-0.372893	0.181166
N75	N	0.793145	-0.448255	0.179731
H76	H	1.924149	-0.000028	-0.249661
H77	H	1.638664	-0.247165	0.031315
C78	C	1.222630	-0.389729	0.447097
N79	N	1.152486	-0.346216	0.517192
C80	C	1.950005	-0.000014	-0.510092
N81	N	2.043253	-0.000023	-0.575955
C82	C	1.260193	-0.181896	0.192073
N83	N	1.368753	-0.181898	0.194918
H84	H	1.046028	0.000069	-0.380709
H85	H	1.262842	0.000024	-0.049520
C86	C	1.249217	0.000047	-0.562362
N87	N	1.246337	0.000037	-0.670918
H88	H	1.246848	-0.595284	0.422913
C89	C	1.307298	-0.232200	0.362530
N90	N	1.237180	-0.188709	0.432675
C91	C	1.747540	-0.389683	-0.077492
N92	N	1.817675	-0.346173	-0.147607
H93	H	1.723368	-0.595222	-0.053283
C94	C	1.662912	-0.767771	0.007140
N95	N	1.733057	-0.811275	-0.062963
C96	C	1.020162	0.000057	-0.120286
N97	N	0.926905	0.000065	-0.054435
