data_functionalizedCrystal
_audit_creation_method	'MofGen! by Chris Wilmer'
_symmetry_space_group_name_H-M	'P1'
_symmetry_Int_Tables_number	1
_symmetry_cell_setting	triclinic
loop_
_symmetry_equiv_pos_as_xyz
  x,y,z
_cell_length_a	10.654562
_cell_length_b	10.723023
_cell_length_c	9.130313
_cell_angle_alpha	89.999732
_cell_angle_beta	89.996930
_cell_angle_gamma	84.478826
loop_
_atom_site_label
_atom_site_type_symbol
_atom_site_fract_x
_atom_site_fract_y
_atom_site_fract_z
O1	O	1.667798	0.175345	-0.121892
O2	O	1.302319	0.192027	-0.121874
O3	O	1.493489	0.002111	-0.121877
O4	O	1.476628	0.365261	-0.121889
O5	O	1.493487	0.002117	0.121721
O6	O	1.302317	0.192032	0.121725
O7	O	1.667796	0.175350	0.121707
Cu8	Cu	1.485056	0.183692	0.143958
Cu9	Cu	1.485059	0.183686	-0.144126
O10	O	1.476625	0.365266	0.121710
C11	C	1.255520	0.190802	-0.000072
C12	C	1.116078	0.187127	-0.000065
C13	C	1.050547	0.185416	0.132709
C14	C	0.919525	0.181973	0.132685
C15	C	0.919577	0.181958	-0.132900
C16	C	1.050598	0.185392	-0.132874
C17	C	1.050514	0.185430	0.286043
C18	C	0.919493	0.181987	0.286019
C19	C	1.492261	-0.044386	-0.000080
C20	C	1.488591	-0.182941	-0.000084
C21	C	1.486955	-0.244710	-0.126277
C22	C	1.483162	-0.387913	-0.126285
C23	C	1.714594	0.176576	-0.000098
C24	C	1.854036	0.180250	-0.000115
C25	C	1.477853	0.411763	-0.000091
C26	C	1.481524	0.550318	-0.000096
N27	N	1.485063	0.183695	0.346581
N28	N	1.485061	0.183672	-0.346748
C29	C	1.569735	0.099629	0.423231
C30	C	1.569732	0.099614	0.576568
C31	C	1.400380	0.267742	0.576591
C32	C	1.400378	0.267750	0.423257
C33	C	1.667513	0.002565	0.423219
C34	C	1.667509	0.002550	0.576556
H35	H	0.889918	0.090977	0.333601
C36	C	1.113039	0.068927	0.365582
C37	C	1.081000	0.045197	0.527051
C38	C	1.143525	-0.071303	0.606586
C39	C	1.238087	-0.164073	0.524651
C40	C	1.270130	-0.140346	0.363172
C41	C	1.207606	-0.023846	0.283638
H42	H	1.010996	0.113874	0.587713
H43	H	1.119804	-0.088867	0.726124
H44	H	1.284371	-0.250314	0.583527
H45	H	1.340135	-0.209023	0.302511
H46	H	1.231327	-0.006282	0.164100
H47	H	1.103951	0.186766	-0.240991
C48	C	1.638558	-0.127006	0.366983
C49	C	1.632952	-0.152107	0.201159
C50	C	1.603996	-0.281674	0.144922
C51	C	1.580647	-0.386138	0.254509
C52	C	1.586252	-0.361039	0.420343
C53	C	1.615208	-0.231473	0.476580
H54	H	1.650237	-0.074774	0.120028
H55	H	1.599846	-0.300253	0.022160
H56	H	1.559212	-0.482051	0.212879
H57	H	1.568967	-0.438373	0.501475
H58	H	1.619358	-0.212894	0.599342
H59	H	0.866247	0.180545	-0.241028
H60	H	1.488359	-0.191573	-0.234310
H61	H	1.080075	0.276443	0.333617
C62	C	1.307236	0.360205	0.660937
C63	C	1.307447	0.360418	0.829598
C64	C	1.214301	0.452884	0.913939
C65	C	1.120944	0.545137	0.829620
C66	C	1.120729	0.544928	0.660950
C67	C	1.213875	0.452461	0.576608
H68	H	1.376558	0.292123	0.892025
H69	H	1.214460	0.453039	1.038801
H70	H	1.051992	0.613587	0.892055
H71	H	1.051618	0.613222	0.598523
H72	H	1.213716	0.452307	0.451747
H73	H	1.481761	-0.441034	-0.234324
H74	H	0.873193	0.268232	0.344881
H75	H	1.482936	-0.396571	0.107948
H76	H	1.487174	-0.236075	0.107949
H77	H	1.331421	0.336192	0.360849
H78	H	1.758691	0.032963	0.375655
H79	H	1.637010	-0.088092	0.624108
H80	H	1.764017	0.023936	0.618167
