data_functionalizedCrystal
_audit_creation_method	'MofGen! by Chris Wilmer'
_symmetry_space_group_name_H-M	'P1'
_symmetry_Int_Tables_number	1
_symmetry_cell_setting	triclinic
loop_
_symmetry_equiv_pos_as_xyz
  x,y,z
_cell_length_a	29.839134
_cell_length_b	29.839131
_cell_length_c	29.839125
_cell_angle_alpha	89.982291
_cell_angle_beta	89.978020
_cell_angle_gamma	90.036281
loop_
_atom_site_label
_atom_site_type_symbol
_atom_site_fract_x
_atom_site_fract_y
_atom_site_fract_z
Zn1	Zn	0.686720	-0.178978	-0.254125
Zn2	Zn	1.020053	0.154355	0.079208
Zn3	Zn	1.353386	0.487689	0.412542
Zn4	Zn	0.686652	-0.254090	-0.178995
Zn5	Zn	1.019985	0.079243	0.154338
Zn6	Zn	1.353318	0.412577	0.487672
Zn7	Zn	0.611602	-0.178968	-0.178995
Zn8	Zn	0.944936	0.154365	0.154339
Zn9	Zn	1.278269	0.487699	0.487672
Zn10	Zn	0.611550	-0.254075	-0.254083
Zn11	Zn	0.944883	0.079258	0.079250
Zn12	Zn	1.278217	0.412592	0.412583
O13	O	0.649131	-0.216528	-0.216549
O14	O	0.982464	0.116806	0.116784
O15	O	1.315798	0.450139	0.450117
O16	O	0.749578	-0.188952	-0.244176
O17	O	1.082911	0.144381	0.089157
O18	O	1.416244	0.477715	0.422490
O19	O	0.676690	-0.244127	-0.116128
O20	O	1.010023	0.089206	0.217206
O21	O	1.343356	0.422540	0.550539
O22	O	0.621617	-0.116102	-0.188978
O23	O	0.954950	0.217231	0.144355
O24	O	1.288284	0.550564	0.477689
O25	O	0.749528	-0.244137	-0.188979
O26	O	1.082861	0.089197	0.144355
O27	O	1.416195	0.422530	0.477688
O28	O	0.676805	-0.116109	-0.244176
O29	O	1.010139	0.217224	0.089157
O30	O	1.343472	0.550557	0.422491
O31	O	0.621551	-0.188935	-0.116127
O32	O	0.954885	0.144398	0.217206
O33	O	1.288218	0.477731	0.550539
O34	O	0.548728	-0.188921	-0.188938
O35	O	0.882062	0.144413	0.144396
O36	O	1.215395	0.477746	0.477729
O37	O	0.621528	-0.244111	-0.316956
O38	O	0.954861	0.089222	0.016377
O39	O	1.288195	0.422556	0.349711
O40	O	0.548690	-0.244101	-0.244105
O41	O	0.882023	0.089232	0.089228
O42	O	1.215357	0.422565	0.422562
O43	O	0.676755	-0.188937	-0.316987
O44	O	1.010088	0.144396	0.016347
O45	O	1.343421	0.477729	0.349680
O46	O	0.676639	-0.316955	-0.188938
O47	O	1.009972	0.016378	0.144395
O48	O	1.343306	0.349712	0.477728
O49	O	0.621462	-0.316944	-0.244105
O50	O	0.954796	0.016389	0.089228
O51	O	1.288129	0.349723	0.422561
C52	C	0.532408	-0.216509	-0.216517
C53	C	0.865742	0.116825	0.116816
C54	C	1.199075	0.450158	0.450150
C55	C	0.482474	-0.216511	-0.216514
C56	C	0.815807	0.116822	0.116819
C57	C	1.149141	0.450155	0.450153
C58	C	0.172820	-0.245303	-0.245240
C59	C	0.506153	0.088031	0.088093
C60	C	0.839487	0.421364	0.421427
C61	C	-0.014853	-0.245315	-0.245260
C62	C	0.318480	0.088018	0.088073
C63	C	0.651814	0.421351	0.421407
O64	O	-0.039127	-0.269774	-0.269665
O65	O	0.294207	0.063560	0.063669
O66	O	0.627540	0.396893	0.397002
N67	N	-0.038311	-0.216544	-0.216583
N68	N	0.295022	0.116789	0.116750
N69	N	0.628356	0.450123	0.450083
C70	C	-0.014848	-0.187766	-0.187902
C71	C	0.318485	0.145568	0.145432
C72	C	0.651819	0.478901	0.478765
O73	O	-0.039107	-0.163291	-0.163514
O74	O	0.294226	0.170042	0.169819
O75	O	0.627560	0.503376	0.503152
C76	C	0.172824	-0.187751	-0.187884
C77	C	0.506157	0.145582	0.145449
C78	C	0.839491	0.478916	0.478782
C79	C	0.196280	-0.216527	-0.216560
C80	C	0.529613	0.116806	0.116774
C81	C	0.862946	0.450139	0.450107
C82	C	0.196276	-0.274076	-0.273913
C83	C	0.529609	0.059257	0.059420
C84	C	0.862942	0.392590	0.392753
C85	C	0.243191	-0.274075	-0.273906
C86	C	0.576525	0.059259	0.059427
C87	C	0.909858	0.392592	0.392760
C88	C	0.266651	-0.245299	-0.245226
C89	C	0.599984	0.088034	0.088107
C90	C	0.933318	0.421367	0.421441
C91	C	0.243195	-0.216526	-0.216553
C92	C	0.576529	0.116808	0.116781
C93	C	0.909862	0.450141	0.450114
C94	C	0.196286	-0.158971	-0.159205
C95	C	0.529620	0.174363	0.174128
C96	C	0.862953	0.507696	0.507461
C97	C	0.243207	-0.158969	-0.159204
C98	C	0.576541	0.174365	0.174129
C99	C	0.909874	0.507698	0.507462
C100	C	0.266663	-0.187745	-0.187880
C101	C	0.599996	0.145588	0.145454
C102	C	0.933330	0.478922	0.478787
C103	C	0.313570	-0.187749	-0.187865
C104	C	0.646904	0.145585	0.145468
C105	C	0.980237	0.478918	0.478801
N106	N	0.337029	-0.216520	-0.216542
N107	N	0.670362	0.116814	0.116791
N108	N	1.003695	0.450147	0.450125
C109	C	0.313569	-0.245295	-0.245222
C110	C	0.646902	0.088038	0.088111
C111	C	0.980235	0.421372	0.421444
C112	C	-0.113379	-0.187776	-0.187912
C113	C	0.219955	0.145557	0.145421
C114	C	0.553288	0.478891	0.478754
C115	C	-0.160297	-0.187780	-0.187916
C116	C	0.173037	0.145553	0.145417
C117	C	0.506370	0.478887	0.478751
C118	C	-0.160298	-0.245329	-0.245275
C119	C	0.173035	0.088004	0.088058
C120	C	0.506368	0.421337	0.421392
C121	C	-0.113380	-0.245327	-0.245269
C122	C	0.219954	0.088006	0.088065
C123	C	0.553287	0.421339	0.421398
C124	C	-0.089921	-0.216547	-0.216589
C125	C	0.243413	0.116786	0.116744
C126	C	0.576746	0.450119	0.450078
C127	C	0.412095	-0.245290	-0.245205
C128	C	0.745428	0.088044	0.088128
C129	C	1.078761	0.421377	0.421462
C130	C	0.459014	-0.245287	-0.245194
C131	C	0.792348	0.088047	0.088139
C132	C	1.125681	0.421380	0.421472
C133	C	0.459012	-0.187736	-0.187837
C134	C	0.792345	0.145597	0.145496
C135	C	1.125678	0.478931	0.478830
C136	C	0.412096	-0.187740	-0.187846
C137	C	0.745430	0.145593	0.145487
C138	C	1.078763	0.478926	0.478821
C139	C	0.388639	-0.216519	-0.216534
C140	C	0.721972	0.116815	0.116800
C141	C	1.055306	0.450148	0.450133
O142	O	0.337873	-0.163299	-0.163477
O143	O	0.671206	0.170034	0.169856
O144	O	1.004540	0.503367	0.503190
O145	O	0.337836	-0.269759	-0.269613
O146	O	0.671169	0.063574	0.063720
O147	O	1.004502	0.396908	0.397054
C148	C	0.125905	-0.245304	-0.245247
C149	C	0.459238	0.088029	0.088086
C150	C	0.792571	0.421362	0.421420
C151	C	0.102449	-0.216531	-0.216574
C152	C	0.435782	0.116803	0.116760
C153	C	0.769116	0.450136	0.450093
C154	C	0.125909	-0.187755	-0.187893
C155	C	0.459242	0.145578	0.145440
C156	C	0.792575	0.478911	0.478773
C157	C	0.055531	-0.216535	-0.216577
C158	C	0.388864	0.116798	0.116756
C159	C	0.722198	0.450132	0.450089
C160	C	0.032071	-0.245310	-0.245258
C161	C	0.365405	0.088023	0.088076
C162	C	0.698738	0.421356	0.421409
C163	C	0.055529	-0.274082	-0.273934
C164	C	0.388863	0.059252	0.059399
C165	C	0.722196	0.392585	0.392732
C166	C	0.102445	-0.274080	-0.273927
C167	C	0.435778	0.059253	0.059406
C168	C	0.769112	0.392587	0.392739
C169	C	0.102451	-0.158984	-0.159217
C170	C	0.435784	0.174349	0.174117
C171	C	0.769117	0.507682	0.507450
C172	C	0.055535	-0.158989	-0.159226
C173	C	0.388868	0.174345	0.174108
C174	C	0.722202	0.507678	0.507441
C175	C	0.032075	-0.187764	-0.187906
C176	C	0.365409	0.145569	0.145427
C177	C	0.698742	0.478903	0.478761
C178	C	0.649050	-0.333250	-0.216527
C179	C	0.982383	0.000083	0.116806
C180	C	1.315717	0.333416	0.450139
C181	C	0.649056	-0.383185	-0.216533
C182	C	0.982390	-0.049851	0.116801
C183	C	1.315723	0.283482	0.450134
C184	C	0.677914	-0.692821	-0.187866
C185	C	1.011247	-0.359488	0.145467
C186	C	1.344580	-0.026155	0.478801
C187	C	0.677969	-0.880494	-0.187883
C188	C	1.011303	-0.547161	0.145450
C189	C	1.344636	-0.213828	0.478783
O190	O	0.702441	-0.904753	-0.163493
O191	O	1.035774	-0.571420	0.169841
O192	O	1.369107	-0.238087	0.503174
N193	N	0.649224	-0.903970	-0.216583
N194	N	0.982557	-0.570636	0.116750
N195	N	1.315891	-0.237303	0.450083
C196	C	0.620465	-0.880524	-0.245283
C197	C	0.953799	-0.547191	0.088050
C198	C	1.287132	-0.213857	0.421384
O199	O	0.596020	-0.904798	-0.269698
O200	O	0.929354	-0.571464	0.063635
O201	O	1.262687	-0.238131	0.396969
C202	C	0.620412	-0.692852	-0.245268
C203	C	0.953746	-0.359519	0.088066
C204	C	1.287079	-0.026185	0.421399
C205	C	0.649156	-0.669379	-0.216563
C206	C	0.982489	-0.336045	0.116771
C207	C	1.315823	-0.002712	0.450104
C208	C	0.706656	-0.669348	-0.159164
C209	C	1.039989	-0.336015	0.174170
C210	C	1.373322	-0.002681	0.507503
C211	C	0.706640	-0.622433	-0.159158
C212	C	1.039973	-0.289099	0.174176
C213	C	1.373306	0.044234	0.507509
C214	C	0.677882	-0.598990	-0.187854
C215	C	1.011215	-0.265657	0.145479
C216	C	1.344549	0.067676	0.478812
C217	C	0.649140	-0.622463	-0.216557
C218	C	0.982474	-0.289130	0.116777
C219	C	1.315807	0.044203	0.450110
C220	C	0.591656	-0.669407	-0.273969
C221	C	0.924989	-0.336074	0.059364
C222	C	1.258323	-0.002740	0.392697
C223	C	0.591646	-0.622486	-0.273964
C224	C	0.924979	-0.289153	0.059370
C225	C	1.258313	0.044181	0.392703
C226	C	0.620390	-0.599013	-0.245259
C227	C	0.953723	-0.265680	0.088075
C228	C	1.287057	0.067654	0.421408
C229	C	0.620367	-0.552106	-0.245248
C230	C	0.953700	-0.218772	0.088086
C231	C	1.287033	0.114561	0.421419
N232	N	0.649112	-0.528630	-0.216548
N233	N	0.982445	-0.195297	0.116786
N234	N	1.315778	0.138037	0.450119
C235	C	0.677869	-0.552072	-0.187851
C236	C	1.011203	-0.218739	0.145482
C237	C	1.344536	0.114594	0.478816
C238	C	0.620494	-0.979055	-0.245289
C239	C	0.953828	-0.645721	0.088045
C240	C	1.287161	-0.312388	0.421378
C241	C	0.620507	-1.025973	-0.245292
C242	C	0.953840	-0.692639	0.088041
C243	C	1.287174	-0.359306	0.421375
C244	C	0.678012	-1.025939	-0.187893
C245	C	1.011345	-0.692606	0.145441
C246	C	1.344678	-0.359273	0.478774
C247	C	0.677996	-0.979021	-0.187887
C248	C	1.011330	-0.645687	0.145446
C249	C	1.344663	-0.312354	0.478779
C250	C	0.649239	-0.955579	-0.216589
C251	C	0.982573	-0.622246	0.116745
C252	C	1.315906	-0.288913	0.450078
C253	C	0.677834	-0.453547	-0.187841
C254	C	1.011167	-0.120213	0.145493
C255	C	1.344500	0.213120	0.478826
C256	C	0.677814	-0.406627	-0.187836
C257	C	1.011147	-0.073294	0.145497
C258	C	1.344481	0.260040	0.478831
C259	C	0.620311	-0.406664	-0.245237
C260	C	0.953644	-0.073331	0.088097
C261	C	1.286978	0.260002	0.421430
C262	C	0.620329	-0.453580	-0.245240
C263	C	0.953662	-0.120246	0.088093
C264	C	1.286996	0.213087	0.421427
C265	C	0.649094	-0.477020	-0.216540
C266	C	0.982427	-0.143686	0.116793
C267	C	1.315761	0.189647	0.450126
O268	O	0.595912	-0.527818	-0.269629
O269	O	0.929245	-0.194484	0.063704
O270	O	1.262578	0.138849	0.397038
O271	O	0.702318	-0.527791	-0.163447
O272	O	1.035651	-0.194457	0.169886
O273	O	1.368984	0.138876	0.503220
C274	C	0.677930	-0.739737	-0.187872
C275	C	1.011263	-0.406403	0.145462
C276	C	1.344596	-0.073070	0.478795
C277	C	0.649188	-0.763210	-0.216574
C278	C	0.982521	-0.429876	0.116759
C279	C	1.315855	-0.096543	0.450093
C280	C	0.620430	-0.739767	-0.245271
C281	C	0.953764	-0.406434	0.088063
C282	C	1.287097	-0.073101	0.421396
C283	C	0.649200	-0.810128	-0.216578
C284	C	0.982534	-0.476794	0.116756
C285	C	1.315867	-0.143461	0.450089
C286	C	0.677958	-0.833570	-0.187881
C287	C	1.011291	-0.500237	0.145452
C288	C	1.344625	-0.166903	0.478786
C289	C	0.706703	-0.810094	-0.159181
C290	C	1.040037	-0.476761	0.174152
C291	C	1.373370	-0.143428	0.507486
C292	C	0.706687	-0.763179	-0.159175
C293	C	1.040021	-0.429846	0.174158
C294	C	1.373354	-0.096512	0.507492
C295	C	0.591685	-0.763243	-0.273971
C296	C	0.925018	-0.429910	0.059363
C297	C	1.258352	-0.096576	0.392696
C298	C	0.591703	-0.810158	-0.273974
C299	C	0.925036	-0.476825	0.059360
C300	C	1.258370	-0.143492	0.392693
C301	C	0.620461	-0.833601	-0.245277
C302	C	0.953794	-0.500267	0.088056
C303	C	1.287127	-0.166934	0.421389
C304	C	0.766309	-0.216547	-0.216582
C305	C	1.099643	0.116786	0.116751
C306	C	1.432976	0.450120	0.450084
C307	C	0.816244	-0.216555	-0.216596
C308	C	1.149577	0.116778	0.116737
C309	C	1.482910	0.450111	0.450070
C310	C	0.649143	-0.216524	-0.333728
C311	C	0.982476	0.116810	-0.000395
C312	C	1.315810	0.450143	0.332939
C313	C	0.649148	-0.216522	-0.383662
C314	C	0.982482	0.116811	-0.050329
C315	C	1.315815	0.450145	0.283004
C316	C	0.649225	-0.099349	-0.216582
C317	C	0.982558	0.233984	0.116752
C318	C	1.315891	0.567317	0.450085
C319	C	0.649265	-0.049415	-0.216595
C320	C	0.982598	0.283918	0.116738
C321	C	1.315931	0.617252	0.450071
C322	C	0.677935	-0.187718	-0.693325
C323	C	1.011268	0.145615	-0.359991
C324	C	1.344602	0.478949	-0.026658
C325	C	0.677957	-0.187680	-0.880998
C326	C	1.011291	0.145654	-0.547665
C327	C	1.344624	0.478987	-0.214331
O328	O	0.702399	-0.163232	-0.905279
O329	O	1.035733	0.170101	-0.571946
O330	O	1.369066	0.503435	-0.238612
N331	N	0.649208	-0.216402	-0.904448
N332	N	0.982541	0.116932	-0.571114
N333	N	1.315875	0.450265	-0.237781
C334	C	0.620449	-0.245133	-0.880976
C335	C	0.953782	0.088200	-0.547643
C336	C	1.287115	0.421533	-0.214310
O337	O	0.595993	-0.269559	-0.905228
O338	O	0.929326	0.063774	-0.571895
O339	O	1.262659	0.397108	-0.238561
C340	C	0.620424	-0.245169	-0.693304
C341	C	0.953758	0.088164	-0.359971
C342	C	1.287091	0.421498	-0.026637
C343	C	0.649179	-0.216448	-0.669857
C344	C	0.982512	0.116885	-0.336523
C345	C	1.315846	0.450218	-0.003190
C346	C	0.706687	-0.158999	-0.669877
C347	C	1.040020	0.174334	-0.336544
C348	C	1.373354	0.507667	-0.003211
C349	C	0.706683	-0.159011	-0.622962
C350	C	1.040016	0.174323	-0.289629
C351	C	1.373349	0.507656	0.043705
C352	C	0.677927	-0.187741	-0.599494
C353	C	1.011260	0.145592	-0.266160
C354	C	1.344593	0.478926	0.067173
C355	C	0.649175	-0.216460	-0.622941
C356	C	0.982508	0.116874	-0.289608
C357	C	1.315842	0.450207	0.043726
C358	C	0.591663	-0.273898	-0.669833
C359	C	0.924997	0.059435	-0.336500
C360	C	1.258330	0.392769	-0.003167
C361	C	0.591659	-0.273903	-0.622912
C362	C	0.924992	0.059430	-0.289579
C363	C	1.258326	0.392763	0.043754
C364	C	0.620414	-0.245183	-0.599465
C365	C	0.953747	0.088151	-0.266132
C366	C	1.287080	0.421484	0.067202
C367	C	0.620415	-0.245202	-0.552558
C368	C	0.953748	0.088132	-0.219224
C369	C	1.287081	0.421465	0.114109
N370	N	0.649164	-0.216480	-0.529108
N371	N	0.982498	0.116854	-0.195774
N372	N	1.315831	0.450187	0.137559
C373	C	0.677920	-0.187749	-0.552576
C374	C	1.011254	0.145584	-0.219243
C375	C	1.344587	0.478917	0.114091
C376	C	0.620464	-0.245113	-0.979507
C377	C	0.953797	0.088220	-0.646173
C378	C	1.287131	0.421554	-0.312840
C379	C	0.620471	-0.245105	-1.026425
C380	C	0.953804	0.088229	-0.693091
C381	C	1.287137	0.421562	-0.359758
C382	C	0.677979	-0.187650	-1.026443
C383	C	1.011312	0.145683	-0.693110
C384	C	1.344645	0.479016	-0.359777
C385	C	0.677974	-0.187661	-0.979524
C386	C	1.011308	0.145672	-0.646191
C387	C	1.344641	0.479005	-0.312858
C388	C	0.649214	-0.216391	-0.956057
C389	C	0.982547	0.116942	-0.622724
C390	C	1.315880	0.450276	-0.289390
C391	C	0.677910	-0.187776	-0.454050
C392	C	1.011243	0.145557	-0.120717
C393	C	1.344576	0.478891	0.212617
C394	C	0.677904	-0.187792	-0.407130
C395	C	1.011238	0.145542	-0.073797
C396	C	1.344571	0.478875	0.259536
C397	C	0.620395	-0.245244	-0.407116
C398	C	0.953728	0.088089	-0.073783
C399	C	1.287061	0.421423	0.259551
C400	C	0.620401	-0.245230	-0.454032
C401	C	0.953735	0.088103	-0.120698
C402	C	1.287068	0.421436	0.212635
C403	C	0.649161	-0.216493	-0.477497
C404	C	0.982494	0.116840	-0.144164
C405	C	1.315827	0.450174	0.189169
O406	O	0.595982	-0.269633	-0.528248
O407	O	0.929315	0.063700	-0.194914
O408	O	1.262649	0.397034	0.138419
O409	O	0.702366	-0.163320	-0.528316
O410	O	1.035699	0.170013	-0.194983
O411	O	1.369032	0.503346	0.138350
C412	C	0.677939	-0.187706	-0.740240
C413	C	1.011273	0.145627	-0.406907
C414	C	1.344606	0.478960	-0.073574
C415	C	0.649187	-0.216425	-0.763688
C416	C	0.982521	0.116908	-0.430354
C417	C	1.315854	0.450242	-0.097021
C418	C	0.620431	-0.245155	-0.740219
C419	C	0.953765	0.088178	-0.406886
C420	C	1.287098	0.421511	-0.073553
C421	C	0.649194	-0.216417	-0.810605
C422	C	0.982527	0.116917	-0.477272
C423	C	1.315861	0.450250	-0.143939
C424	C	0.677950	-0.187686	-0.834074
C425	C	1.011283	0.145647	-0.500740
C426	C	1.344617	0.478980	-0.167407
C427	C	0.706699	-0.158964	-0.810624
C428	C	1.040033	0.174369	-0.477291
C429	C	1.373366	0.507702	-0.143957
C430	C	0.706695	-0.158976	-0.763708
C431	C	1.040029	0.174357	-0.430375
C432	C	1.373362	0.507691	-0.097042
C433	C	0.591682	-0.273877	-0.763669
C434	C	0.925015	0.059456	-0.430336
C435	C	1.258349	0.392789	-0.097002
C436	C	0.591689	-0.273864	-0.810585
C437	C	0.925022	0.059470	-0.477251
C438	C	1.258355	0.392803	-0.143918
C439	C	0.620445	-0.245133	-0.834053
C440	C	0.953778	0.088200	-0.500719
C441	C	1.287111	0.421533	-0.167386
C442	C	0.649145	-0.216499	-0.099827
C443	C	0.982478	0.116834	0.233506
C444	C	1.315811	0.450167	0.566840
C445	C	0.649227	-0.216374	-0.049893
C446	C	0.982560	0.116959	0.283440
C447	C	1.315893	0.450292	0.616774
H448	H	-0.179407	-0.268759	-0.268628
H449	H	0.153926	0.064574	0.064706
H450	H	0.487260	0.397907	0.398039
O451	O	0.592533	-0.956237	-0.273106
O452	O	0.925867	-0.622903	0.060228
O453	O	1.259200	-0.289570	0.393561
C454	C	0.563519	-0.929143	-0.247494
C455	C	0.896852	-0.595810	0.085839
C456	C	1.230186	-0.262476	0.419172
H457	H	0.579388	-0.922108	-0.213467
H458	H	0.912721	-0.588775	0.119866
H459	H	1.246054	-0.255441	0.453199
H460	H	0.557471	-0.896151	-0.265787
H461	H	0.890804	-0.562818	0.067546
H462	H	1.224138	-0.229485	0.400879
H463	H	0.530237	-0.947261	-0.242519
H464	H	0.863571	-0.613927	0.090814
H465	H	1.196904	-0.280594	0.424147
O466	O	0.265994	-0.302070	-0.301702
O467	O	0.599327	0.031263	0.031631
O468	O	0.932661	0.364596	0.364965
C469	C	0.293116	-0.331043	-0.276078
C470	C	0.626449	0.002290	0.057255
C471	C	0.959782	0.335623	0.390589
H472	H	0.278963	-0.333771	-0.240690
H473	H	0.612296	-0.000438	0.092643
H474	H	0.945630	0.332896	0.425977
H475	H	0.293633	-0.365639	-0.292269
H476	H	0.626966	-0.032306	0.041064
H477	H	0.960300	0.301028	0.374398
H478	H	0.328682	-0.317150	-0.274555
H479	H	0.662015	0.016184	0.058778
H480	H	0.995348	0.349517	0.392111
H481	H	0.392998	-0.164309	-0.164496
H482	H	0.726331	0.169024	0.168838
H483	H	1.059664	0.502357	0.502171
H484	H	0.596895	-0.387570	-0.268600
H485	H	0.930229	-0.054237	0.064733
H486	H	1.263562	0.279097	0.398067
H487	H	0.478121	-0.164309	-0.164485
H488	H	0.811455	0.169024	0.168848
H489	H	1.144788	0.502358	0.502182
H490	H	0.701393	-0.164257	-1.045559
H491	H	1.034727	0.169076	-0.712226
H492	H	1.368060	0.502409	-0.378892
O493	O	0.592495	-0.273193	-0.476763
O494	O	0.925828	0.060140	-0.143430
O495	O	1.259162	0.393474	0.189903
C496	C	0.602283	-0.317975	-0.465312
C497	C	0.935616	0.015358	-0.131979
C498	C	1.268949	0.348692	0.201355
H499	H	0.619551	-0.318921	-0.431252
H500	H	0.952884	0.014412	-0.097919
H501	H	1.286217	0.347745	0.235414
H502	H	0.569843	-0.338113	-0.463696
H503	H	0.903176	-0.004780	-0.130363
H504	H	1.236510	0.328553	0.202971
H505	H	0.625368	-0.333102	-0.491726
H506	H	0.958702	0.000231	-0.158393
H507	H	1.292035	0.333565	0.174940
H508	H	0.701327	-0.164374	-0.473150
H509	H	1.034660	0.168960	-0.139817
H510	H	1.367993	0.502293	0.193516
H511	H	0.568248	-0.688511	-0.297342
H512	H	0.901581	-0.355178	0.035991
H513	H	1.234914	-0.021844	0.369325
H514	H	0.568268	-0.744160	-0.297340
H515	H	0.901601	-0.410826	0.035994
H516	H	1.234934	-0.077493	0.369327
O517	O	0.734544	-0.599685	-0.131215
O518	O	1.067878	-0.266351	0.202118
O519	O	1.401211	0.066982	0.535452
C520	C	0.724757	-0.611171	-0.086429
C521	C	1.058091	-0.277838	0.246904
C522	C	1.391424	0.055496	0.580237
H523	H	0.707491	-0.645249	-0.085484
H524	H	1.040825	-0.311916	0.247849
H525	H	1.374158	0.021417	0.581183
H526	H	0.757197	-0.612763	-0.066325
H527	H	1.090531	-0.279430	0.267009
H528	H	1.423864	0.053904	0.600342
H529	H	0.701671	-0.584789	-0.071264
H530	H	1.035004	-0.251456	0.262069
H531	H	1.368337	0.081877	0.595402
H532	H	0.121538	-0.297512	-0.297278
H533	H	0.454872	0.035821	0.036055
H534	H	0.788205	0.369154	0.369389
O535	O	0.032715	-0.301969	-0.301843
O536	O	0.366048	0.031364	0.031490
O537	O	0.699382	0.364698	0.364823
C538	C	0.005598	-0.276430	-0.330897
C539	C	0.338931	0.056903	0.002436
C540	C	0.672265	0.390236	0.335770
H541	H	0.019765	-0.241053	-0.333734
H542	H	0.353098	0.092280	-0.000400
H543	H	0.686432	0.425614	0.332933
H544	H	0.005067	-0.292728	-0.365442
H545	H	0.338400	0.040605	-0.032109
H546	H	0.671733	0.373938	0.301225
H547	H	-0.029964	-0.274859	-0.317009
H548	H	0.303369	0.058475	0.016324
H549	H	0.636702	0.391808	0.349657
O550	O	0.032822	-0.130991	-0.131354
O551	O	0.366156	0.202342	0.201980
O552	O	0.699489	0.535676	0.535313
C553	C	0.063595	-0.105602	-0.106033
C554	C	0.396929	0.227731	0.227300
C555	C	0.730262	0.561064	0.560633
H556	H	0.097050	-0.104080	-0.124434
H557	H	0.430384	0.229253	0.208899
H558	H	0.763717	0.562587	0.542233
H559	H	0.050063	-0.070197	-0.101311
H560	H	0.383396	0.263136	0.232023
H561	H	0.716730	0.596470	0.565356
H562	H	0.068557	-0.121999	-0.071881
H563	H	0.401890	0.211334	0.261452
H564	H	0.735223	0.544668	0.594786
O565	O	0.563826	-0.832937	-0.301925
O566	O	0.897160	-0.499603	0.031409
O567	O	1.230493	-0.166270	0.364742
C568	C	0.573607	-0.821428	-0.346706
C569	C	0.906941	-0.488095	-0.013373
C570	C	1.240274	-0.154762	0.319961
H571	H	0.609492	-0.808496	-0.349006
H572	H	0.942826	-0.475163	-0.015672
H573	H	1.276159	-0.141830	0.317661
H574	H	0.569733	-0.852274	-0.368906
H575	H	0.903066	-0.518940	-0.035572
H576	H	1.236400	-0.185607	0.297761
H577	H	0.549507	-0.794210	-0.358418
H578	H	0.882840	-0.460876	-0.025085
H579	H	1.216174	-0.127543	0.308249
O580	O	-0.183009	-0.159788	-0.160043
O581	O	0.150324	0.173545	0.173290
O582	O	0.483657	0.506879	0.506624
C583	C	-0.152236	-0.134399	-0.134723
C584	C	0.181097	0.198934	0.198610
C585	C	0.514430	0.532268	0.531944
H586	H	-0.118783	-0.132872	-0.153127
H587	H	0.214550	0.200461	0.180207
H588	H	0.547883	0.533795	0.513540
H589	H	-0.165771	-0.098995	-0.129996
H590	H	0.167562	0.234338	0.203337
H591	H	0.500895	0.567672	0.536670
H592	H	-0.147271	-0.150798	-0.100573
H593	H	0.186063	0.182535	0.232761
H594	H	0.519396	0.515869	0.566094
O595	O	0.734667	-0.692051	-0.131307
O596	O	1.068000	-0.358718	0.202026
O597	O	1.401334	-0.025385	0.535360
C598	C	0.779424	-0.680527	-0.141195
C599	C	1.112757	-0.347193	0.192139
C600	C	1.446090	-0.013860	0.525472
H601	H	0.780308	-0.646462	-0.158480
H602	H	1.113641	-0.313129	0.174853
H603	H	1.446975	0.020205	0.508186
H604	H	0.799596	-0.678886	-0.108798
H605	H	1.132929	-0.345553	0.224535
H606	H	1.466262	-0.012220	0.557869
H607	H	0.794559	-0.706912	-0.164300
H608	H	1.127892	-0.373578	0.169033
H609	H	1.461225	-0.040245	0.502367
H610	H	0.730093	-0.744071	-0.135801
H611	H	1.063427	-0.410737	0.197532
H612	H	1.396760	-0.077404	0.530866
O613	O	0.125284	-0.131094	-0.131331
O614	O	0.458618	0.202239	0.202003
O615	O	0.791951	0.535572	0.535336
C616	C	0.152382	-0.156627	-0.102255
C617	C	0.485715	0.176706	0.231079
C618	C	0.819049	0.510039	0.564412
H619	H	0.159405	-0.190695	-0.118038
H620	H	0.492738	0.142639	0.215295
H621	H	0.826072	0.475972	0.548629
H622	H	0.185380	-0.138315	-0.096255
H623	H	0.518713	0.195018	0.237078
H624	H	0.852046	0.528352	0.570411
H625	H	0.134275	-0.161518	-0.068959
H626	H	0.467608	0.171815	0.264374
H627	H	0.800941	0.505148	0.597708
O628	O	0.563669	-0.599785	-0.301861
O629	O	0.897003	-0.266452	0.031473
O630	O	1.230336	0.066881	0.364806
C631	C	0.538315	-0.630568	-0.327203
C632	C	0.871648	-0.297235	0.006130
C633	C	1.204981	0.036099	0.339463
H634	H	0.536781	-0.664021	-0.308802
H635	H	0.870115	-0.330687	0.024532
H636	H	1.203448	0.002646	0.357865
H637	H	0.502911	-0.617045	-0.331962
H638	H	0.836245	-0.283712	0.001372
H639	H	1.169578	0.049622	0.334705
H640	H	0.554749	-0.635530	-0.361339
H641	H	0.888082	-0.302197	-0.028006
H642	H	1.221415	0.031136	0.305327
H643	H	0.568274	-0.297256	-0.829671
H644	H	0.901607	0.036077	-0.496338
H645	H	1.234941	0.369411	-0.163005
O646	O	0.173561	-0.302075	-0.301789
O647	O	0.506894	0.031259	0.031545
O648	O	0.840227	0.364592	0.364878
C649	C	0.204334	-0.327457	-0.327100
C650	C	0.537667	0.005876	0.006233
C651	C	0.871000	0.339209	0.339567
H652	H	0.237767	-0.328974	-0.308689
H653	H	0.571100	0.004360	0.024644
H654	H	0.904434	0.337693	0.357978
H655	H	0.190768	-0.362865	-0.331827
H656	H	0.524101	-0.029532	0.001506
H657	H	0.857435	0.303802	0.334840
H658	H	0.209349	-0.311059	-0.361250
H659	H	0.542682	0.022274	-0.027917
H660	H	0.876016	0.355607	0.305416
H661	H	0.568233	-0.297294	-0.603808
H662	H	0.901567	0.036039	-0.270474
H663	H	1.234900	0.369372	0.062859
O664	O	0.705840	-0.159736	-0.956701
O665	O	1.039173	0.173598	-0.623368
O666	O	1.372507	0.506931	-0.290035
C667	C	0.680281	-0.130710	-0.929572
C668	C	1.013614	0.202624	-0.596239
C669	C	1.346948	0.535957	-0.262905
H670	H	0.646223	-0.146551	-0.922528
H671	H	0.979556	0.186782	-0.589195
H672	H	1.312890	0.520116	-0.255861
H673	H	0.698582	-0.124691	-0.896587
H674	H	1.031915	0.208643	-0.563253
H675	H	1.365248	0.541976	-0.229920
H676	H	0.675371	-0.097416	-0.947663
H677	H	1.008704	0.235917	-0.614329
H678	H	1.342037	0.569250	-0.280996
O679	O	0.734611	-0.130992	-0.833376
O680	O	1.067944	0.202341	-0.500042
O681	O	1.401277	0.535675	-0.166709
C682	C	0.724818	-0.086217	-0.821923
C683	C	1.058151	0.247117	-0.488590
C684	C	1.391485	0.580450	-0.155256
H685	H	0.707550	-0.085288	-0.787851
H686	H	1.040883	0.248045	-0.454517
H687	H	1.374216	0.581378	-0.121184
H688	H	0.757255	-0.066075	-0.820335
H689	H	1.090589	0.267258	-0.487001
H690	H	1.423922	0.600591	-0.153668
H691	H	0.701731	-0.071079	-0.848322
H692	H	1.035064	0.262254	-0.514989
H693	H	1.368398	0.595587	-0.181655
O694	O	0.592500	-0.273022	-1.049129
O695	O	0.925833	0.060311	-0.715796
O696	O	1.259166	0.393645	-0.382462
C697	C	0.567127	-0.298387	-1.018349
C698	C	0.900461	0.034946	-0.685015
C699	C	1.233794	0.368280	-0.351682
H700	H	0.565585	-0.279989	-0.984907
H701	H	0.898919	0.053344	-0.651574
H702	H	1.232252	0.386677	-0.318240
H703	H	0.531728	-0.303171	-1.031892
H704	H	0.865061	0.030162	-0.698558
H705	H	1.198394	0.363495	-0.365225
H706	H	0.583551	-0.332510	-1.013358
H707	H	0.916884	0.000823	-0.680024
H708	H	1.250217	0.334156	-0.346691
O709	O	0.705780	-0.383895	-0.159937
O710	O	1.039113	-0.050562	0.173396
O711	O	1.372447	0.282771	0.506730
C712	C	0.731158	-0.414651	-0.134604
C713	C	1.064491	-0.081318	0.198729
C714	C	1.397824	0.252016	0.532063
H715	H	0.732710	-0.448085	-0.153013
H716	H	1.066043	-0.114752	0.180320
H717	H	1.399376	0.218581	0.513654
H718	H	0.766553	-0.401065	-0.129848
H719	H	1.099887	-0.067731	0.203485
H720	H	1.433220	0.265602	0.536819
H721	H	0.714732	-0.419672	-0.100467
H722	H	1.048065	-0.086339	0.232866
H723	H	1.381398	0.246994	0.566200
O724	O	0.705715	-0.476365	-0.159945
O725	O	1.039048	-0.143032	0.173388
O726	O	1.372382	0.190301	0.506721
C727	C	0.680174	-0.503537	-0.130895
C728	C	1.013507	-0.170204	0.202439
C729	C	1.346840	0.163130	0.535772
H730	H	0.646117	-0.510594	-0.146698
H731	H	0.979450	-0.177260	0.186635
H732	H	1.312784	0.156073	0.519969
H733	H	0.698492	-0.536513	-0.124903
H734	H	1.031825	-0.203180	0.208431
H735	H	1.365158	0.130153	0.541764
H736	H	0.675259	-0.485476	-0.097593
H737	H	1.008592	-0.152143	0.235741
H738	H	1.341925	0.181190	0.569074
H739	H	0.730097	-0.135623	-0.603875
H740	H	1.063430	0.197711	-0.270542
H741	H	1.396764	0.531044	0.062791
O742	O	0.705962	-0.956290	-0.159991
O743	O	1.039295	-0.622957	0.173342
O744	O	1.372628	-0.289624	0.506676
C745	C	0.731335	-0.987048	-0.134656
C746	C	1.064668	-0.653715	0.198678
C747	C	1.398001	-0.320381	0.532011
H748	H	0.732883	-1.020483	-0.153063
H749	H	1.066217	-0.687150	0.180270
H750	H	1.399550	-0.353817	0.513604
H751	H	0.766732	-0.973466	-0.129899
H752	H	1.100065	-0.640132	0.203435
H753	H	1.433398	-0.306799	0.536768
H754	H	0.714907	-0.992066	-0.100519
H755	H	1.048240	-0.658733	0.232814
H756	H	1.381573	-0.325400	0.566148
O757	O	0.592527	-0.273173	-0.384261
O758	O	0.925861	0.060161	-0.050927
O759	O	1.259194	0.393494	0.282406
C760	C	0.618084	-0.302202	-0.357134
C761	C	0.951417	0.031131	-0.023801
C762	C	1.284751	0.364465	0.309533
H763	H	0.652144	-0.286364	-0.350127
H764	H	0.985477	0.046969	-0.016794
H765	H	1.318811	0.380302	0.316540
H766	H	0.599784	-0.308219	-0.324130
H767	H	0.933117	0.025115	0.009203
H768	H	1.266450	0.358448	0.342537
H769	H	0.622990	-0.335496	-0.375208
H770	H	0.956323	-0.002162	-0.041875
H771	H	1.289656	0.331171	0.291459
H772	H	0.701427	-1.045034	-0.164527
H773	H	1.034761	-0.711701	0.168806
H774	H	1.368094	-0.378367	0.502140
O775	O	0.592567	-1.048702	-0.273215
O776	O	0.925901	-0.715369	0.060118
O777	O	1.259234	-0.382035	0.393452
C778	C	0.567177	-1.017944	-0.298533
C779	C	0.900511	-0.684611	0.034800
C780	C	1.233844	-0.351278	0.368134
H781	H	0.585571	-0.984484	-0.300102
H782	H	0.918904	-0.651150	0.033231
H783	H	1.252237	-0.317817	0.366564
H784	H	0.562364	-1.031487	-0.333926
H785	H	0.895697	-0.698154	-0.000593
H786	H	1.229030	-0.364821	0.332740
H787	H	0.533068	-1.012991	-0.282044
H788	H	0.866401	-0.679658	0.051289
H789	H	1.199734	-0.346325	0.384623
H790	H	0.596925	-0.472692	-0.268615
H791	H	0.930258	-0.139359	0.064718
H792	H	1.263591	0.193974	0.398051
O793	O	0.734666	-0.131075	-0.692601
O794	O	1.068000	0.202258	-0.359267
O795	O	1.401333	0.535592	-0.025934
C796	C	0.760029	-0.105725	-0.661835
C797	C	1.093363	0.227609	-0.328502
C798	C	1.426696	0.560942	0.004831
H799	H	0.761557	-0.124136	-0.628390
H800	H	1.094890	0.209197	-0.295057
H801	H	1.428224	0.542530	0.038276
H802	H	0.795434	-0.100938	-0.675393
H803	H	1.128768	0.232396	-0.342060
H804	H	1.462101	0.565729	-0.008726
H805	H	0.743607	-0.071602	-0.656845
H806	H	1.076940	0.261731	-0.323512
H807	H	1.410273	0.595065	0.009822
O808	O	-0.090545	-0.159882	-0.160026
O809	O	0.242788	0.173451	0.173308
O810	O	0.576121	0.506785	0.506641
C811	C	-0.063444	-0.185412	-0.130950
C812	C	0.269890	0.147921	0.202383
C813	C	0.603223	0.481255	0.535716
H814	H	-0.056419	-0.219479	-0.146734
H815	H	0.276915	0.113854	0.186599
H816	H	0.610248	0.447188	0.519933
H817	H	-0.030447	-0.167097	-0.124954
H818	H	0.302886	0.166236	0.208380
H819	H	0.636220	0.499570	0.541713
H820	H	-0.081548	-0.190304	-0.097654
H821	H	0.251785	0.143029	0.235680
H822	H	0.585118	0.476362	0.569013
O823	O	0.563712	-0.301736	-0.692655
O824	O	0.897045	0.031597	-0.359322
O825	O	1.230379	0.364931	-0.025989
C826	C	0.534711	-0.276151	-0.719783
C827	C	0.868044	0.057182	-0.386449
C828	C	1.201377	0.390516	-0.053116
H829	H	0.550582	-0.242107	-0.726823
H830	H	0.883915	0.091227	-0.393490
H831	H	1.217249	0.424560	-0.060156
H832	H	0.528679	-0.294446	-0.752770
H833	H	0.862013	0.038888	-0.419437
H834	H	1.195346	0.372221	-0.086104
H835	H	0.501420	-0.271213	-0.701692
H836	H	0.834753	0.062121	-0.368359
H837	H	1.168087	0.395454	-0.035026
H838	H	0.730117	-0.829189	-0.135814
H839	H	1.063451	-0.495856	0.197519
H840	H	1.396784	-0.162523	0.530853
H841	H	0.701321	-0.164403	-0.388042
H842	H	1.034655	0.168930	-0.054708
H843	H	1.367988	0.502263	0.278625
H844	H	0.597044	-0.268511	-0.960404
H845	H	0.930377	0.064822	-0.627071
H846	H	1.263711	0.398156	-0.293737
H847	H	0.568265	-0.297274	-0.744566
H848	H	0.901599	0.036059	-0.411233
H849	H	1.234932	0.369393	-0.077899
O850	O	0.481729	-0.273255	-0.273094
O851	O	0.815062	0.060079	0.060239
O852	O	1.148396	0.393412	0.393572
C853	C	0.450958	-0.298659	-0.298402
C854	C	0.784291	0.034675	0.034932
C855	C	1.117625	0.368008	0.368265
H856	H	0.417526	-0.280259	-0.299994
H857	H	0.750859	0.053074	0.033340
H858	H	1.084193	0.386407	0.366673
H859	H	0.464528	-0.303504	-0.333788
H860	H	0.797861	0.029829	-0.000455
H861	H	1.131195	0.363163	0.332879
H862	H	0.445939	-0.332754	-0.281889
H863	H	0.779272	0.000580	0.051444
H864	H	1.112605	0.333913	0.384778
O865	O	-0.090617	-0.273230	-0.273191
O866	O	0.242717	0.060104	0.060143
O867	O	0.576050	0.393437	0.393476
C868	C	-0.102069	-0.263486	-0.317983
C869	C	0.231265	0.069847	0.015351
C870	C	0.564598	0.403180	0.348684
H871	H	-0.114944	-0.227601	-0.320316
H872	H	0.218389	0.105733	0.013018
H873	H	0.551722	0.439066	0.346351
H874	H	-0.071208	-0.267388	-0.340172
H875	H	0.262125	0.065945	-0.006839
H876	H	0.595458	0.399278	0.326495
H877	H	-0.129313	-0.287591	-0.329681
H878	H	0.204021	0.045742	0.003652
H879	H	0.537354	0.379075	0.336986
O880	O	0.173578	-0.130972	-0.131338
O881	O	0.506912	0.202361	0.201995
O882	O	0.840245	0.535695	0.535329
C883	C	0.204355	-0.105583	-0.106022
C884	C	0.537688	0.227750	0.227311
C885	C	0.871021	0.561084	0.560645
H886	H	0.237808	-0.104062	-0.124426
H887	H	0.571141	0.229271	0.208907
H888	H	0.904474	0.562604	0.542240
H889	H	0.190824	-0.070177	-0.101300
H890	H	0.524157	0.263156	0.232033
H891	H	0.857490	0.596490	0.565367
H892	H	0.209319	-0.121978	-0.071870
H893	H	0.542652	0.211355	0.261464
H894	H	0.875985	0.544689	0.594797
H895	H	0.730110	-0.135588	-0.744622
H896	H	1.063443	0.197745	-0.411288
H897	H	1.396777	0.531078	-0.077955
H898	H	0.393001	-0.268723	-0.268566
H899	H	0.726334	0.064611	0.064767
H900	H	1.059668	0.397944	0.398100
H901	H	0.262305	-0.135529	-0.135852
H902	H	0.595638	0.197804	0.197481
H903	H	0.928972	0.531137	0.530815
