data_functionalizedCrystal
_audit_creation_method	'MofGen! by Chris Wilmer'
_symmetry_space_group_name_H-M	'P1'
_symmetry_Int_Tables_number	1
_symmetry_cell_setting	triclinic
loop_
_symmetry_equiv_pos_as_xyz
  x,y,z
_cell_length_a	25.639239
_cell_length_b	12.759401
_cell_length_c	12.759393
_cell_angle_alpha	89.979880
_cell_angle_beta	90.037052
_cell_angle_gamma	89.965344
loop_
_atom_site_label
_atom_site_type_symbol
_atom_site_fract_x
_atom_site_fract_y
_atom_site_fract_z
Zn1	Zn	-0.208176	-1.606080	0.593987
Zn2	Zn	0.291824	-1.106080	1.093987
Zn3	Zn	-0.295623	-1.605901	0.418290
Zn4	Zn	0.204377	-1.105901	0.918290
Zn5	Zn	-0.208197	-1.430382	0.418321
Zn6	Zn	0.291803	-0.930382	0.918321
Zn7	Zn	-0.295576	-1.430297	0.593926
Zn8	Zn	0.204424	-0.930297	1.093926
O9	O	-0.251893	-1.518165	0.506131
O10	O	0.248107	-1.018165	1.006131
O11	O	-0.219787	-1.753077	0.570692
O12	O	0.280213	-1.253077	1.070692
O13	O	-0.284054	-1.582579	0.271273
O14	O	0.215946	-1.082579	0.771273
O15	O	-0.135029	-1.453799	0.441662
O16	O	0.364971	-0.953799	0.941662
O17	O	-0.284034	-1.752946	0.441609
O18	O	0.215966	-1.252946	0.941609
O19	O	-0.135014	-1.582884	0.570722
O20	O	0.364986	-1.082884	1.070722
O21	O	-0.219823	-1.453626	0.271296
O22	O	0.280177	-0.953626	0.771296
O23	O	-0.219777	-1.283350	0.441603
O24	O	0.280223	-0.783350	0.941603
O25	O	-0.283954	-1.453655	0.740956
O26	O	0.216046	-0.953655	1.240956
O27	O	-0.283974	-1.283288	0.570620
O28	O	0.216026	-0.783288	1.070620
O29	O	-0.219742	-1.582802	0.741000
O30	O	0.280258	-1.082802	1.241000
O31	O	-0.368782	-1.582496	0.441550
O32	O	0.131218	-1.082496	0.941550
O33	O	-0.368748	-1.453481	0.570590
O34	O	0.131252	-0.953481	1.070590
C35	C	-0.251874	-1.245198	0.506109
C36	C	0.248126	-0.745198	1.006109
C37	C	-0.251878	-1.128421	0.506125
C38	C	0.248122	-0.628421	1.006125
C39	C	-0.218486	-1.073621	0.573441
C40	C	0.281514	-0.573621	1.073441
C41	C	-0.218493	-0.963897	0.573445
C42	C	0.281507	-0.463897	1.073445
C43	C	-0.285288	-0.963783	0.438812
C44	C	0.214712	-0.463783	0.938812
C45	C	-0.285278	-1.073505	0.438804
C46	C	0.214722	-0.573505	0.938804
C47	C	-0.179924	-1.073685	0.651173
C48	C	0.320076	-0.573685	1.151173
C49	C	-0.179931	-0.963961	0.651177
C50	C	0.320069	-0.463961	1.151177
C51	C	-0.387736	-1.517988	0.506083
C52	C	0.112264	-1.017988	1.006083
C53	C	-0.445850	-1.518009	0.506097
C54	C	0.054150	-1.018009	1.006097
C55	C	-0.806218	-1.585519	0.439055
C56	C	-0.306218	-1.085519	0.939055
C57	C	-0.860822	-1.585559	0.439069
C58	C	-0.360822	-1.085559	0.939069
O59	O	-0.889064	-1.642775	0.382014
O60	O	-0.389064	-1.142775	0.882014
N61	N	-0.888132	-1.518350	0.506201
N62	N	-0.388132	-1.018350	1.006201
C63	C	-0.860835	-1.451103	0.573330
C64	C	-0.360835	-0.951103	1.073330
O65	O	-0.889078	-1.393940	0.630433
O66	O	-0.389078	-0.893940	1.130433
C67	C	-0.806232	-1.451068	0.573321
C68	C	-0.306232	-0.951068	1.073321
C69	C	-0.778925	-1.518275	0.506177
C70	C	-0.278925	-1.018275	1.006177
C71	C	-0.778911	-1.652721	0.371917
C72	C	-0.278911	-1.152721	0.871917
C73	C	-0.724310	-1.652678	0.371902
C74	C	-0.224310	-1.152678	0.871902
C75	C	-0.697017	-1.585434	0.439024
C76	C	-0.197017	-1.085434	0.939024
C77	C	-0.724324	-1.518232	0.506162
C78	C	-0.224324	-1.018232	1.006162
C79	C	-0.778935	-1.383827	0.640455
C80	C	-0.278935	-0.883827	1.140455
C81	C	-0.724328	-1.383799	0.640440
C82	C	-0.224328	-0.883799	1.140440
C83	C	-0.697021	-1.451005	0.573297
C84	C	-0.197021	-0.951005	1.073297
C85	C	-0.642430	-1.450946	0.573269
C86	C	-0.142430	-0.950946	1.073269
N87	N	-0.615120	-1.518155	0.506137
N88	N	-0.115120	-1.018155	1.006137
C89	C	-0.642414	-1.585399	0.439015
C90	C	-0.142414	-1.085399	0.939015
C91	C	-0.975505	-1.451182	0.573347
C92	C	-0.475505	-0.951182	1.073347
C93	C	-1.030108	-1.451210	0.573352
C94	C	-0.530108	-0.951210	1.073352
C95	C	-1.030091	-1.585669	0.439091
C96	C	-0.530091	-1.085669	0.939091
C97	C	-0.975488	-1.585634	0.439082
C98	C	-0.475488	-1.085634	0.939082
C99	C	-0.948196	-1.518391	0.506215
C100	C	-0.448196	-1.018391	1.006215
C101	C	-0.527749	-1.585305	0.438987
C102	C	-0.027749	-1.085305	0.938987
C103	C	-0.473143	-1.585253	0.438975
C104	C	0.026857	-1.085253	0.938975
C105	C	-0.473164	-1.450799	0.573239
C106	C	0.026836	-0.950799	1.073239
C107	C	-0.527765	-1.450846	0.573248
C108	C	-0.027765	-0.950846	1.073248
C109	C	-0.555056	-1.518107	0.506119
C110	C	-0.055056	-1.018107	1.006119
O111	O	-0.614154	-1.393762	0.630298
O112	O	-0.114154	-0.893762	1.130298
O113	O	-0.614164	-1.642562	0.381931
O114	O	-0.114164	-1.142562	0.881931
C115	C	-0.115520	-1.518371	0.506202
C116	C	0.384480	-1.018371	1.006202
C117	C	-0.057406	-1.518459	0.506233
C118	C	0.442594	-1.018459	1.006233
C119	C	-0.251840	-1.518239	0.780165
C120	C	0.248160	-1.018239	1.280165
C121	C	-0.251818	-1.518270	0.896941
C122	C	0.248182	-1.018270	1.396941
C123	C	-0.251906	-0.792198	0.506147
C124	C	0.248094	-0.292198	1.006147
C125	C	-0.251895	-0.908975	0.506136
C126	C	0.248105	-0.408975	1.006136
C127	C	-0.251908	-1.518152	0.233164
C128	C	0.248092	-1.018152	0.733164
C129	C	-0.251783	-1.518325	0.116388
C130	C	0.248217	-1.018325	0.616388
C131	C	-0.218379	-1.585526	0.951828
C132	C	0.281621	-1.085526	1.451828
C133	C	-0.218360	-1.585551	1.061552
C134	C	0.281640	-1.085551	1.561552
C135	C	-0.285223	-1.451061	1.061493
C136	C	0.214777	-0.951061	1.561493
C137	C	-0.285239	-1.451032	0.951771
C138	C	0.214761	-0.951032	1.451771
C139	C	-0.179778	-1.663176	0.951863
C140	C	0.320222	-1.163176	1.451863
C141	C	-0.179759	-1.663201	1.061587
C142	C	0.320241	-1.163201	1.561587
H143	H	-0.312481	-0.919057	0.384003
H144	H	0.187519	-0.419057	0.884003
H145	H	-0.194473	-1.107738	0.728409
H146	H	0.305527	-0.607738	1.228409
H147	H	-0.141448	-0.929952	0.622184
H148	H	0.358552	-0.429952	1.122184
H149	H	-0.190827	-0.934207	0.732510
H150	H	0.309173	-0.434207	1.232510
H151	H	-0.139286	-1.641442	0.922114
H152	H	0.360714	-1.141442	1.422114
H153	H	-0.953258	-1.640360	0.384408
H154	H	-0.453258	-1.140360	0.884408
H155	H	-0.139415	-1.103486	0.629528
H156	H	0.360585	-0.603486	1.129528
H157	H	-0.312432	-1.396316	1.106149
H158	H	0.187568	-0.896316	1.606149
H159	H	-0.190607	-1.744563	1.091366
H160	H	0.309393	-1.244563	1.591366
H161	H	-0.312466	-1.396262	0.907086
H162	H	0.187534	-0.896262	1.407086
H163	H	-0.312464	-1.118120	0.383979
H164	H	0.187536	-0.618120	0.883979
H165	H	-0.450912	-1.639981	0.384295
H166	H	0.049088	-1.139981	0.884295
H167	H	-0.194297	-1.740436	0.917826
H168	H	0.305703	-1.240436	1.417826
H169	H	-0.549962	-1.640077	0.384327
H170	H	-0.049962	-1.140077	0.884327
H171	H	-0.702080	-1.707406	0.317231
H172	H	-0.202080	-1.207406	0.817231
H173	H	-1.052337	-1.396474	0.628017
H174	H	-0.552337	-0.896474	1.128017
H175	H	-0.141285	-1.634120	1.095642
H176	H	0.358715	-1.134120	1.595642
H177	H	-0.801128	-1.707485	0.317258
H178	H	-0.301128	-1.207485	0.817258
H179	H	-1.052324	-1.640426	0.384440
H180	H	-0.552324	-1.140426	0.884440
H181	H	-0.953286	-1.396416	0.628011
H182	H	-0.453286	-0.896416	1.128011
H183	H	-0.801159	-1.329095	0.695126
H184	H	-0.301159	-0.829095	1.195126
H185	H	-0.702109	-1.329043	0.695112
H186	H	-0.202109	-0.829043	1.195112
H187	H	-0.549999	-1.396125	0.627925
H188	H	-0.049999	-0.896125	1.127925
H189	H	-0.450933	-1.396046	0.627886
H190	H	0.049067	-0.896046	1.127886
