data_functionalizedCrystal
_audit_creation_method	'MofGen! by Chris Wilmer'
_symmetry_space_group_name_H-M	'P1'
_symmetry_Int_Tables_number	1
_symmetry_cell_setting	triclinic
loop_
_symmetry_equiv_pos_as_xyz
  x,y,z
_cell_length_a	16.120297
_cell_length_b	16.959455
_cell_length_c	16.959454
_cell_angle_alpha	89.982978
_cell_angle_beta	92.875976
_cell_angle_gamma	87.120459
loop_
_atom_site_label
_atom_site_type_symbol
_atom_site_fract_x
_atom_site_fract_y
_atom_site_fract_z
Zn1	Zn	-0.471383	-1.185756	-0.337427
Zn2	Zn	-0.331981	-1.192371	-0.462907
Zn3	Zn	-0.331989	-1.060276	-0.330740
Zn4	Zn	-0.471350	-1.053551	-0.469558
O5	O	-0.401676	-1.122989	-0.400158
O6	O	-0.452902	-1.297244	-0.354087
O7	O	-0.215319	-1.180430	-0.439793
O8	O	-0.350498	-1.076968	-0.221017
O9	O	-0.350484	-1.302104	-0.446277
O10	O	-0.452910	-1.169158	-0.225930
O11	O	-0.215325	-1.083381	-0.342690
O12	O	-0.350465	-0.948774	-0.349140
O13	O	-0.588018	-1.065506	-0.457613
O14	O	-0.452853	-0.943833	-0.451129
O15	O	-0.588042	-1.162637	-0.360536
O16	O	-0.350451	-1.173909	-0.574399
O17	O	-0.452845	-1.071919	-0.579286
C18	C	-0.401657	-0.917623	-0.400131
C19	C	-0.401668	-0.829766	-0.400139
C20	C	-0.619125	-1.112583	-0.410562
C21	C	-0.711789	-1.108149	-0.414996
C22	C	-0.401662	-1.122923	-0.605524
C23	C	-0.401684	-1.122966	-0.693381
C24	C	-0.881447	-1.100025	-0.423073
C25	C	-0.922756	-1.146108	-0.377006
C26	C	-1.017160	-1.141587	-0.381500
C27	C	-0.787035	-1.104544	-0.418580
C28	C	-0.185072	-1.133399	-0.389737
C29	C	-0.092409	-1.137986	-0.385081
C30	C	-0.401696	-1.329156	-0.400186
C31	C	-0.401704	-1.417012	-0.400197
C32	C	-0.348474	-0.460833	-0.347016
C33	C	-0.454926	-0.455745	-0.453367
C34	C	-0.454920	-0.538291	-0.453356
C35	C	-0.401690	-0.582112	-0.400174
C36	C	-0.348465	-0.543387	-0.347004
C37	C	-0.508138	-0.577023	-0.506530
C38	C	-0.508135	-0.659574	-0.506521
C39	C	-0.454908	-0.703396	-0.453335
C40	C	-0.401682	-0.664666	-0.400163
C41	C	-0.348452	-0.708487	-0.346981
C42	C	-0.295229	-0.669758	-0.293804
C43	C	-0.295239	-0.587209	-0.293819
C44	C	-0.454898	-0.785945	-0.453321
C45	C	-0.348443	-0.791041	-0.346970
C46	C	-0.454987	-1.069956	-1.067431
C47	C	-0.348450	-1.176237	-1.062286
C48	C	-0.348442	-1.176210	-0.979740
C49	C	-0.401707	-1.123054	-0.941035
C50	C	-0.454979	-1.069926	-0.984877
C51	C	-0.295165	-1.229332	-0.935892
C52	C	-0.295155	-1.229307	-0.853341
C53	C	-0.348424	-1.176154	-0.814635
C54	C	-0.401699	-1.123024	-0.858481
C55	C	-0.454963	-1.069868	-0.819777
C56	C	-0.508243	-1.016741	-0.863622
C57	C	-0.508248	-1.016773	-0.946171
C58	C	-0.348419	-1.176122	-0.732086
C59	C	-0.454956	-1.069837	-0.737223
C60	C	-0.401708	-1.123075	-0.193991
C61	C	-0.401722	-1.123112	-0.106135
H62	H	-0.916979	-1.057181	-0.465886
H63	H	-0.551473	-0.691100	-0.549820
H64	H	-0.305143	-0.429296	-0.303719
H65	H	-0.498368	-1.026703	-1.103133
C66	C	-0.243215	-0.787778	-0.241848
C67	C	-0.289926	-0.839206	-0.288513
H68	H	-0.207085	-0.817515	-0.205764
H69	H	-0.279597	-0.753858	-0.213410
H70	H	-0.211272	-0.757092	-0.274723
H71	H	-0.321873	-0.869888	-0.255638
H72	H	-0.253539	-0.873140	-0.316953
H73	H	-0.251885	-0.705448	-0.250507
C74	C	-0.931299	-1.245695	-0.277484
C75	C	-0.874794	-1.203957	-0.319209
H76	H	-0.901685	-1.281405	-0.241803
H77	H	-0.965270	-1.274315	-0.313514
H78	H	-0.965255	-1.209669	-0.248826
H79	H	-0.840843	-1.239983	-0.347872
H80	H	-0.840809	-1.175336	-0.283174
C81	C	-0.596088	-1.024465	-0.718555
C82	C	-0.513509	-1.011407	-0.694682
H83	H	-0.632234	-0.988389	-0.692295
H84	H	-0.608328	-1.076966	-0.705568
H85	H	-0.603707	-1.016881	-0.773995
H86	H	-0.505888	-1.018996	-0.639243
H87	H	-0.501264	-0.958892	-0.707664
H88	H	-0.251907	-0.555669	-0.250526
C89	C	-0.649374	-0.971371	-0.844938
C90	C	-0.566793	-0.958314	-0.821072
H91	H	-0.685518	-0.935300	-0.818669
H92	H	-0.661612	-1.023875	-0.831954
H93	H	-0.657001	-0.963781	-0.900376
H94	H	-0.559164	-0.965910	-0.765634
H95	H	-0.554551	-0.905798	-0.834050
C96	C	-0.502201	-0.326944	-0.500604
C97	C	-0.513434	-0.407579	-0.511822
H98	H	-0.538328	-0.297208	-0.536690
H99	H	-0.446173	-0.316093	-0.509415
H100	H	-0.514497	-0.312846	-0.448101
H101	H	-0.501132	-0.421679	-0.564324
H102	H	-0.569474	-0.418435	-0.503017
C103	C	-0.307951	-1.312051	-1.085723
C104	C	-0.289900	-1.234647	-1.104845
H105	H	-0.271799	-1.348107	-1.112002
H106	H	-0.363971	-1.320897	-1.101913
H107	H	-0.300310	-1.319645	-1.030287
H108	H	-0.297547	-1.227051	-1.160281
H109	H	-0.233867	-1.225798	-1.088660
C110	C	-0.502146	-0.910227	-0.500529
C111	C	-0.513392	-0.828517	-0.511769
H112	H	-0.538256	-0.936507	-0.536618
H113	H	-0.514448	-0.923172	-0.448032
H114	H	-0.446105	-0.926418	-0.509327
H115	H	-0.569431	-0.812325	-0.502965
H116	H	-0.501095	-0.815567	-0.564278
C117	C	-0.649241	-0.544872	-0.551974
C118	C	-0.566654	-0.528848	-0.564972
H119	H	-0.685369	-0.515129	-0.588054
H120	H	-0.661522	-0.530777	-0.499473
H121	H	-0.656844	-0.599578	-0.559592
H122	H	-0.559049	-0.474143	-0.557348
H123	H	-0.554369	-0.542938	-0.617485
C124	C	-0.555550	-0.969620	-1.074995
C125	C	-0.566800	-0.958372	-0.994366
H126	H	-0.591692	-0.933560	-1.104748
H127	H	-0.567808	-1.022129	-1.089069
H128	H	-0.499520	-0.960784	-1.085848
H129	H	-0.622828	-0.967213	-0.983512
H130	H	-0.554547	-0.905849	-0.980286
C131	C	-0.254634	-1.365137	-0.959379
C132	C	-0.236615	-1.287720	-0.978478
H133	H	-0.218481	-1.401172	-0.985682
H134	H	-0.310655	-1.373994	-0.975554
H135	H	-0.246971	-1.372751	-0.903946
H136	H	-0.244284	-1.280104	-1.033910
H137	H	-0.180580	-1.278859	-0.962307
C138	C	-0.154020	-1.274674	-0.821183
C139	C	-0.236598	-1.287709	-0.805153
H140	H	-0.117872	-1.310735	-0.791437
H141	H	-0.141770	-1.222165	-0.807097
H142	H	-0.146412	-1.282296	-0.875888
H143	H	-0.244207	-1.280082	-0.750448
H144	H	-0.248851	-1.340231	-0.819234
H145	H	-0.305036	-1.219373	-0.696391
