data_functionalizedCrystal
_audit_creation_method	'MofGen! by Chris Wilmer'
_symmetry_space_group_name_H-M	'P1'
_symmetry_Int_Tables_number	1
_symmetry_cell_setting	triclinic
loop_
_symmetry_equiv_pos_as_xyz
  x,y,z
_cell_length_a	10.967926
_cell_length_b	14.044220
_cell_length_c	9.482900
_cell_angle_alpha	100.188801
_cell_angle_beta	92.549900
_cell_angle_gamma	88.855190
loop_
_atom_site_label
_atom_site_type_symbol
_atom_site_fract_x
_atom_site_fract_y
_atom_site_fract_z
O1	O	1.628183	0.167990	0.287012
O2	O	1.279192	0.170077	0.199575
O3	O	1.448447	0.030855	0.241995
O4	O	1.458928	0.307212	0.244592
O5	O	1.414080	0.059254	0.475174
O6	O	1.244826	0.198475	0.432755
O7	O	1.593816	0.196388	0.520191
Cu8	Cu	1.416183	0.200025	0.497764
Cu9	Cu	1.456825	0.166441	0.222002
O10	O	1.424561	0.335610	0.477771
C11	C	1.217076	0.181978	0.304908
C12	C	1.083189	0.175121	0.271364
C13	C	1.005695	0.186775	0.377203
C14	C	0.867315	0.179687	0.342536
C15	C	1.426678	0.009569	0.357436
C16	C	1.412998	-0.096166	0.354011
C17	C	1.387993	-0.289761	0.347725
C18	C	1.485012	-0.343781	0.372028
C19	C	1.471099	-0.451504	0.368530
C20	C	1.401904	-0.182028	0.351222
C21	C	1.655933	0.184486	0.414856
C22	C	1.789821	0.191343	0.448390
C23	C	1.446331	0.356895	0.362327
C24	C	1.460012	0.462630	0.365743
N25	N	1.387606	0.223646	0.691722
N26	N	1.485411	0.142812	0.028047
C27	C	1.448388	0.173402	0.779155
C28	C	1.424621	0.193063	0.940615
H29	H	0.825915	0.206565	0.564676
O30	O	1.608885	-0.297892	0.403077
H31	H	1.605832	-0.241405	0.500876
H32	H	1.518016	0.115828	0.734477
H33	H	1.294490	-0.324414	0.324295
H34	H	1.041796	0.201993	0.493480
O35	O	0.819511	0.159497	0.188503
H36	H	0.897328	0.152024	0.116246
O37	O	1.332380	0.269333	0.999770
H38	H	1.328195	0.272813	1.117306
O39	O	1.577650	0.066540	0.968895
H40	H	1.581848	0.063066	0.851361
H41	H	1.317968	0.281213	0.736399
H42	H	1.047088	0.159894	0.155087
