data_functionalizedCrystal
_audit_creation_method	'MofGen! by Chris Wilmer'
_symmetry_space_group_name_H-M	'P1'
_symmetry_Int_Tables_number	1
_symmetry_cell_setting	triclinic
loop_
_symmetry_equiv_pos_as_xyz
  x,y,z
_cell_length_a	14.044220
_cell_length_b	17.038272
_cell_length_c	13.101039
_cell_angle_alpha	93.604737
_cell_angle_beta	86.340132
_cell_angle_gamma	92.150217
loop_
_atom_site_label
_atom_site_type_symbol
_atom_site_fract_x
_atom_site_fract_y
_atom_site_fract_z
O1	O	1.277881	0.185592	-0.085106
O2	O	1.777881	0.685592	0.414894
O3	O	1.001361	0.178751	-0.085132
O4	O	1.501361	0.678751	0.414868
O5	O	1.137977	0.068241	-0.085111
O6	O	1.637977	0.568241	0.414889
O7	O	1.141265	0.296101	-0.085127
O8	O	1.641265	0.796101	0.414873
O9	O	1.128176	0.076185	0.085317
O10	O	1.628176	0.576185	0.585317
O11	O	0.991560	0.186694	0.085296
O12	O	1.491560	0.686694	0.585296
O13	O	1.268080	0.193535	0.085322
O14	O	1.768080	0.693535	0.585322
Zn15	Zn	1.128264	0.191376	0.112368
Zn16	Zn	1.628264	0.691376	0.612368
Zn17	Zn	1.141177	0.180910	-0.112178
Zn18	Zn	1.641177	0.680910	0.387822
O19	O	1.131464	0.304045	0.085301
O20	O	1.631464	0.804045	0.585301
C21	C	0.960905	0.179728	0.000079
C22	C	1.460905	0.679728	0.500079
C23	C	0.854960	0.170796	0.000069
C24	C	1.354960	0.670796	0.500069
C25	C	0.660980	0.154468	0.000091
C26	C	1.160980	0.654468	0.500091
C27	C	0.608455	0.217813	0.000090
C28	C	1.108455	0.717813	0.500090
C29	C	0.500518	0.208729	0.000102
C30	C	1.000518	0.708729	0.500102
C31	C	0.768927	0.163552	0.000079
C32	C	1.268927	0.663552	0.500079
C33	C	1.130087	0.042876	0.000103
C34	C	1.630087	0.542876	0.500103
C35	C	1.121168	-0.044541	0.000101
C36	C	1.621168	0.455459	0.500101
C37	C	1.203056	-0.088926	0.000110
C38	C	1.703056	0.411074	0.500110
C39	C	1.194670	-0.171064	0.000100
C40	C	1.694670	0.328936	0.500100
C41	C	1.104396	-0.208815	0.000088
C42	C	1.604396	0.291185	0.500088
C43	C	1.022502	-0.164424	0.000076
C44	C	1.522502	0.335576	0.500076
C45	C	1.030889	-0.082288	0.000079
C46	C	1.530889	0.417712	0.500079
C47	C	1.074767	-0.456646	0.000071
C48	C	1.574767	0.043354	0.500071
C49	C	1.066386	-0.538788	0.000071
C50	C	1.566386	-0.038788	0.500071
C51	C	1.238555	-0.545423	0.000093
C52	C	1.738555	-0.045423	0.500093
C53	C	1.246934	-0.463285	0.000102
C54	C	1.746934	0.036715	0.500102
C55	C	1.165040	-0.418901	0.000085
C56	C	1.665040	0.081099	0.500085
C57	C	1.095822	-0.292773	0.000080
C58	C	1.595822	0.207227	0.500080
C59	C	1.173615	-0.334945	0.000085
C60	C	1.673615	0.165055	0.500085
C61	C	1.308536	0.192558	0.000109
C62	C	1.808536	0.692558	0.500109
C63	C	1.414482	0.201490	0.000112
C64	C	1.914482	0.701490	0.500112
C65	C	1.139354	0.329410	0.000085
C66	C	1.639354	0.829410	0.500085
C67	C	1.148273	0.416827	0.000080
C68	C	1.648273	0.916827	0.500080
N69	N	1.119458	0.198518	0.265616
N70	N	1.619458	0.698518	0.765616
N71	N	1.149990	0.173762	-0.265426
N72	N	1.649990	0.673762	0.234574
C73	C	1.107478	0.208243	0.474656
C74	C	1.607478	0.708243	0.974656
C75	C	1.161967	0.164040	0.525540
C76	C	1.661967	0.664040	1.025540
C77	C	1.155301	0.169451	0.641858
C78	C	1.655301	0.669451	1.141858
C79	C	1.114143	0.202833	0.358328
C80	C	1.614143	0.702833	0.858328
H81	H	0.644550	0.278868	0.000081
H82	H	1.144550	0.778868	0.500081
H83	H	0.624887	0.093419	0.000100
H84	H	1.124887	0.593419	0.500100
C85	C	1.231765	0.107434	0.466379
C86	C	1.731765	0.607434	0.966379
N87	N	1.284339	0.064804	0.421814
N88	N	1.784339	0.564804	0.921814
C89	C	1.328632	-0.594251	0.000102
C90	C	1.828632	-0.094251	0.500102
N91	N	1.396482	-0.631030	0.000104
N92	N	1.896482	-0.131030	0.500104
C93	C	1.037695	0.264853	0.533818
C94	C	1.537695	0.764853	1.033818
N95	N	0.985137	0.307492	0.578390
N96	N	1.485137	0.807492	1.078390
C97	C	1.302366	-0.047408	0.000123
C98	C	1.802366	0.452592	0.500123
N99	N	1.377169	-0.016140	0.000129
N100	N	1.877169	0.483860	0.500129
C101	C	0.940805	-0.033465	0.000072
C102	C	1.440805	0.466535	0.500072
N103	N	0.872951	0.003308	0.000064
N104	N	1.372951	0.503308	0.500064
H105	H	1.261352	-0.207199	0.000109
H106	H	1.761352	0.292801	0.500109
C107	C	0.967073	-0.580312	0.000050
C108	C	1.467073	-0.080312	0.500050
N109	N	0.892274	-0.611588	0.000034
N110	N	1.392274	-0.111588	0.500034
C111	C	1.346242	-0.421765	0.000116
C112	C	1.846242	0.078235	0.500116
N113	N	1.421043	-0.390492	0.000131
N114	N	1.921043	0.109508	0.500131
C115	C	0.984680	-0.407835	0.000046
C116	C	1.484680	0.092165	0.500046
N117	N	0.916823	-0.371068	0.000025
N118	N	1.416823	0.128932	0.500025
H119	H	0.948998	-0.195167	0.000060
H120	H	1.448998	0.304833	0.500060
C121	C	1.272914	-0.293417	0.000103
C122	C	1.772914	0.206583	0.500103
N123	N	1.347707	-0.262130	0.000124
N124	N	1.847707	0.237870	0.500124
H125	H	1.022320	-0.323518	0.000073
H126	H	1.522320	0.176482	0.500073
