data_functionalizedCrystal
_audit_creation_method	'MofGen! by Chris Wilmer'
_symmetry_space_group_name_H-M	'P1'
_symmetry_Int_Tables_number	1
_symmetry_cell_setting	triclinic
loop_
_symmetry_equiv_pos_as_xyz
  x,y,z
_cell_length_a	10.654550
_cell_length_b	8.559649
_cell_length_c	9.130313
_cell_angle_alpha	90.000859
_cell_angle_beta	89.996220
_cell_angle_gamma	77.131784
loop_
_atom_site_label
_atom_site_type_symbol
_atom_site_fract_x
_atom_site_fract_y
_atom_site_fract_z
O1	O	1.644677	0.224178	-0.121910
O2	O	1.276992	0.245536	-0.121886
O3	O	1.493228	0.002614	-0.121899
O4	O	1.428441	0.467100	-0.121898
O5	O	1.493225	0.002621	0.121700
O6	O	1.276989	0.245543	0.121713
O7	O	1.644674	0.224184	0.121688
Cu8	Cu	1.460831	0.234864	0.143943
Cu9	Cu	1.460835	0.234856	-0.144141
O10	O	1.428438	0.467107	0.121701
C11	C	1.230355	0.243972	-0.000084
C12	C	1.091396	0.239279	-0.000075
C13	C	0.997136	0.382308	-0.000096
C14	C	0.866571	0.377890	-0.000121
C15	C	0.924542	0.087401	-0.000111
C16	C	1.055103	0.091821	-0.000075
C17	C	0.963666	0.550020	-0.000108
C18	C	0.833101	0.545601	-0.000133
C19	C	1.498136	-0.056858	-0.000103
C20	C	1.512750	-0.234076	-0.000112
C21	C	1.691311	0.225749	-0.000117
C22	C	1.830270	0.230441	-0.000136
C23	C	1.423530	0.526579	-0.000098
C24	C	1.408916	0.703797	-0.000099
N25	N	1.460838	0.234869	0.346566
N26	N	1.460839	0.234839	-0.346763
C27	C	1.556605	0.127340	0.423212
C28	C	1.556604	0.127320	0.576549
C29	C	1.365062	0.342374	0.576580
C30	C	1.365060	0.342384	0.423245
C31	C	1.667194	0.003185	0.423195
C32	C	1.667192	0.003166	0.576532
H33	H	0.894975	-0.032654	-0.000133
N34	N	1.655573	-0.159314	0.368054
H35	H	1.655576	-0.159372	0.257434
H36	H	1.730786	-0.243716	0.404992
N37	N	1.276344	-0.187086	-0.000069
H38	H	1.284344	-0.071708	-0.000071
H39	H	1.227992	-0.208350	-0.090363
N40	N	0.993568	0.636892	0.134932
H41	H	1.026938	0.733736	0.104890
H42	H	0.912696	0.672364	0.195120
N43	N	0.765669	0.612733	0.139174
H44	H	0.771911	0.728058	0.151165
H45	H	0.672131	0.606922	0.133989
H46	H	0.993806	0.603419	-0.105280
N47	N	1.645329	-0.343202	-0.000097
H48	H	1.637333	-0.458580	-0.000085
H49	H	1.693676	-0.321948	-0.090406
N50	N	1.261749	0.458332	0.340574
H51	H	1.201078	0.526435	0.412420
H52	H	1.302940	0.529483	0.276948
H53	H	1.287081	0.429908	0.639029
N54	N	1.782651	0.054675	0.360173
H55	H	1.838441	0.079544	0.442502
H56	H	1.833969	-0.034572	0.297869
N57	N	1.156780	-0.062437	-0.000046
H58	H	1.212214	-0.067060	0.090273
H59	H	1.113884	-0.156434	-0.000110
H60	H	1.648655	-0.112769	0.624081
N61	N	1.791284	0.039390	0.631660
H62	H	1.799112	0.148079	0.594835
H63	H	1.791257	0.039298	0.742276
H64	H	0.784843	0.608790	-0.102087
