data_functionalizedCrystal
_audit_creation_method	'MofGen! by Chris Wilmer'
_symmetry_space_group_name_H-M	'P1'
_symmetry_Int_Tables_number	1
_symmetry_cell_setting	triclinic
loop_
_symmetry_equiv_pos_as_xyz
  x,y,z
_cell_length_a	11.792241
_cell_length_b	22.010155
_cell_length_c	11.792241
_cell_angle_alpha	89.995433
_cell_angle_beta	95.806584
_cell_angle_gamma	90.011508
loop_
_atom_site_label
_atom_site_type_symbol
_atom_site_fract_x
_atom_site_fract_y
_atom_site_fract_z
O1	O	1.506927	0.050466	-0.155565
O2	O	1.176586	0.050481	-0.171598
O3	O	1.349773	0.050469	0.001589
O4	O	1.333740	0.050478	-0.328752
O5	O	1.349721	-0.050581	0.001589
O6	O	1.176534	-0.050570	-0.171598
O7	O	1.506875	-0.050584	-0.155565
Cu8	Cu	1.341700	-0.059804	-0.163581
Cu9	Cu	1.341762	0.059700	-0.163582
O10	O	1.333688	-0.050572	-0.328752
C11	C	1.134269	-0.000043	-0.170591
C12	C	1.008255	-0.000038	-0.167576
N13	N	1.341664	-0.143856	-0.163580
C14	C	0.777543	-0.000055	-0.162034
C15	C	0.905928	-0.000045	-0.165113
C16	C	1.411023	-0.563637	-0.232873
C17	C	1.411037	-0.627244	-0.232870
O18	O	1.469968	-0.660137	-0.291778
N19	N	1.341784	-0.659063	-0.163569
C20	C	1.272522	-0.627271	-0.094257
O21	O	1.213619	-0.660176	-0.035310
C22	C	1.272515	-0.563665	-0.094255
C23	C	1.341764	-0.531849	-0.163569
C24	C	1.480268	-0.531821	-0.302181
C25	C	1.480252	-0.468218	-0.302185
C26	C	1.410993	-0.436430	-0.232881
C27	C	1.341749	-0.468246	-0.163573
C28	C	1.203260	-0.531874	-0.024938
C29	C	1.203260	-0.468263	-0.024941
C30	C	1.272509	-0.436448	-0.094255
C31	C	1.272474	-0.372855	-0.094274
N32	N	1.341727	-0.341036	-0.163575
C33	C	1.410986	-0.372824	-0.232878
C34	C	1.272542	-0.760849	-0.094267
C35	C	1.272542	-0.824454	-0.094274
C36	C	1.411059	-0.824423	-0.232886
C37	C	1.411052	-0.760816	-0.232883
C38	C	1.341795	-0.729030	-0.163568
C39	C	1.410949	-0.239252	-0.232882
C40	C	1.410924	-0.175644	-0.232884
C41	C	1.272412	-0.175680	-0.094268
C42	C	1.272432	-0.239284	-0.094271
C43	C	1.341709	-0.271068	-0.163581
O44	O	1.213577	-0.339922	-0.035393
O45	O	1.469891	-0.339911	-0.291805
C46	C	1.549192	-0.000059	-0.156572
C47	C	1.675206	-0.000061	-0.159587
C48	C	1.348740	-0.000056	0.043880
C49	C	1.345726	-0.000055	0.169894
N50	N	1.341806	0.143753	-0.163574
C51	C	1.334721	-0.000046	-0.371043
C52	C	1.337736	-0.000043	-0.497057
C53	C	1.340183	-0.000045	0.400606
C54	C	1.343262	-0.000051	0.272221
H55	H	1.467314	-0.149742	-0.289333
O56	O	1.485658	-0.273530	-0.307645
H57	H	1.533790	-0.240713	-0.355842
H58	H	1.146862	-0.442386	0.031506
O59	O	1.554947	-0.433905	-0.376940
H60	H	1.603110	-0.466704	-0.425117
O61	O	1.197838	-0.726581	-0.019479
H62	H	1.251883	-0.697610	0.041173
O63	O	1.485750	-0.726507	-0.307640
H64	H	1.431710	-0.697536	-0.368283
O65	O	1.197788	-0.141390	-0.019443
H66	H	1.209456	-0.091817	-0.031060
H67	H	1.536673	-0.557696	-0.358616
H68	H	1.146871	-0.557767	0.031507
O69	O	1.197742	-0.273606	-0.019517
H70	H	1.149583	-0.240813	0.028677
H71	H	1.467452	-0.850316	-0.289318
O72	O	1.197874	-0.858768	-0.019494
H73	H	1.149732	-0.825972	0.028709
