data_functionalizedCrystal
_audit_creation_method	'MofGen! by Chris Wilmer'
_symmetry_space_group_name_H-M	'P1'
_symmetry_Int_Tables_number	1
_symmetry_cell_setting	triclinic
loop_
_symmetry_equiv_pos_as_xyz
  x,y,z
_cell_length_a	19.805407
_cell_length_b	25.639239
_cell_length_c	19.805399
_cell_angle_alpha	89.971274
_cell_angle_beta	89.980427
_cell_angle_gamma	90.038686
loop_
_atom_site_label
_atom_site_type_symbol
_atom_site_fract_x
_atom_site_fract_y
_atom_site_fract_z
Zn1	Zn	1.034678	-0.208163	-0.382714
Zn2	Zn	1.534678	0.291837	0.117286
Zn3	Zn	1.034569	-0.295597	-0.269524
Zn4	Zn	1.534569	0.204403	0.230476
Zn5	Zn	0.921493	-0.208177	-0.269539
Zn6	Zn	1.421493	0.291823	0.230461
Zn7	Zn	0.921432	-0.295569	-0.382670
Zn8	Zn	1.421432	0.204431	0.117330
O9	O	0.978043	-0.251877	-0.326112
O10	O	1.478043	0.248123	0.173888
O11	O	1.129380	-0.219767	-0.367711
O12	O	1.629380	0.280233	0.132289
O13	O	1.019548	-0.284018	-0.174809
O14	O	1.519548	0.215982	0.325191
O15	O	0.936578	-0.135010	-0.284576
O16	O	1.436578	0.364990	0.215424
O17	O	1.129300	-0.284004	-0.284551
O18	O	1.629300	0.215996	0.215449
O19	O	1.019735	-0.135000	-0.367726
O20	O	1.519735	0.365000	0.132274
O21	O	0.936472	-0.219791	-0.174820
O22	O	1.436472	0.280209	0.325180
O23	O	0.826768	-0.219764	-0.284534
O24	O	1.326768	0.280236	0.215466
O25	O	0.936475	-0.283957	-0.477393
O26	O	1.436475	0.216043	0.022607
O27	O	0.826723	-0.283971	-0.367651
O28	O	1.326723	0.216029	0.132349
O29	O	1.019676	-0.219740	-0.477425
O30	O	1.519676	0.280260	0.022575
O31	O	1.019489	-0.368758	-0.284508
O32	O	1.519489	0.131242	0.215492
O33	O	0.936368	-0.368738	-0.367637
O34	O	1.436368	0.131262	0.132363
C35	C	0.802187	-0.251867	-0.326090
C36	C	1.302187	0.248133	0.173910
C37	C	0.726955	-0.251875	-0.326097
C38	C	1.226955	0.248125	0.173903
C39	C	0.691605	-0.285357	-0.369306
C40	C	1.191605	0.214643	0.130694
C41	C	0.620917	-0.285358	-0.369315
C42	C	1.120917	0.214642	0.130685
C43	C	0.585579	-0.251879	-0.326112
C44	C	1.085579	0.248121	0.173888
C45	C	0.620934	-0.218393	-0.282901
C46	C	1.120934	0.281607	0.217099
C47	C	0.691621	-0.218390	-0.282895
C48	C	1.191621	0.281610	0.217105
C49	C	0.335860	-0.218404	-0.282923
C50	C	0.835860	0.281596	0.217077
C51	C	0.265168	-0.218411	-0.282931
C52	C	0.765168	0.281589	0.217069
C53	C	0.265156	-0.285373	-0.369343
C54	C	0.765156	0.214627	0.130657
C55	C	0.335843	-0.285370	-0.369338
C56	C	0.835843	0.214630	0.130662
C57	C	0.371192	-0.251882	-0.326129
C58	C	0.871192	0.248118	0.173871
C59	C	0.447840	-0.251881	-0.326121
C60	C	0.947840	0.248119	0.173879
C61	C	0.508932	-0.251883	-0.326117
C62	C	1.008932	0.248117	0.173883
C63	C	0.977929	-0.387719	-0.326081
C64	C	1.477929	0.112281	0.173919
C65	C	0.977942	-0.445833	-0.326090
C66	C	1.477942	0.054167	0.173910
C67	C	1.021437	-0.806194	-0.282901
C68	C	1.521437	-0.306194	0.217099
C69	C	1.021463	-0.860799	-0.282910
C70	C	1.521463	-0.360799	0.217090
O71	O	1.058326	-0.889034	-0.246154
O72	O	1.558326	-0.389034	0.253846
N73	N	0.978162	-0.888116	-0.326157
N74	N	1.478162	-0.388116	0.173843
C75	C	0.934836	-0.860825	-0.369402
C76	C	1.434836	-0.360825	0.130598
O77	O	0.898008	-0.889075	-0.406189
O78	O	1.398008	-0.389075	0.093811
C79	C	0.934814	-0.806222	-0.369396
C80	C	1.434814	-0.306222	0.130604
C81	C	0.978113	-0.778908	-0.326141
C82	C	1.478113	-0.278908	0.173859
C83	C	1.064733	-0.778880	-0.239650
C84	C	1.564733	-0.278880	0.260350
C85	C	1.064706	-0.724279	-0.239640
C86	C	1.564706	-0.224279	0.260360
C87	C	1.021382	-0.696993	-0.282881
C88	C	1.521382	-0.196993	0.217119
C89	C	0.978086	-0.724307	-0.326132
C90	C	1.478086	-0.224307	0.173868
C91	C	0.891492	-0.778933	-0.412645
C92	C	1.391492	-0.278933	0.087355
C93	C	0.891474	-0.724326	-0.412635
C94	C	1.391474	-0.224326	0.087365
C95	C	0.934773	-0.697012	-0.369381
C96	C	1.434773	-0.197012	0.130619
C97	C	0.934735	-0.642421	-0.369363
C98	C	1.434735	-0.142421	0.130637
N99	N	0.978036	-0.615104	-0.326116
N100	N	1.478036	-0.115104	0.173884
C101	C	1.021360	-0.642390	-0.282875
C102	C	1.521360	-0.142390	0.217125
C103	C	0.934887	-0.975496	-0.369413
C104	C	1.434887	-0.475496	0.130587
C105	C	0.934906	-1.030098	-0.369416
C106	C	1.434906	-0.530098	0.130584
C107	C	1.021533	-1.030068	-0.282924
C108	C	1.521533	-0.530068	0.217076
C109	C	1.021511	-0.975464	-0.282918
C110	C	1.521511	-0.475464	0.217082
C111	C	0.978188	-0.948179	-0.326166
C112	C	1.478188	-0.448179	0.173834
C113	C	1.021299	-0.527725	-0.282857
C114	C	1.521299	-0.027725	0.217143
C115	C	1.021266	-0.473119	-0.282849
C116	C	1.521266	0.026881	0.217151
C117	C	0.934641	-0.473155	-0.369343
C118	C	1.434641	0.026845	0.130657
C119	C	0.934671	-0.527756	-0.369349
C120	C	1.434671	-0.027756	0.130651
C121	C	0.978006	-0.555039	-0.326104
C122	C	1.478006	-0.055039	0.173896
O123	O	0.897893	-0.614151	-0.406101
O124	O	1.397893	-0.114151	0.093899
O125	O	1.058188	-0.614134	-0.246101
O126	O	1.558188	-0.114134	0.253899
C127	C	1.154585	-0.251887	-0.326134
C128	C	1.654585	0.248113	0.173866
C129	C	1.229817	-0.251891	-0.326144
C130	C	1.729817	0.248109	0.173856
C131	C	0.978081	-0.251844	-0.502655
C132	C	1.478081	0.248156	-0.002655
C133	C	0.978097	-0.251830	-0.577887
C134	C	1.478097	0.248170	-0.077887
C135	C	0.978175	-0.115504	-0.326158
C136	C	1.478175	0.384496	0.173842
C137	C	0.978232	-0.057389	-0.326177
C138	C	1.478232	0.442611	0.173823
C139	C	1.021421	-0.218390	-0.613249
C140	C	1.521421	0.281610	-0.113249
C141	C	1.021428	-0.218375	-0.683937
C142	C	1.521428	0.281625	-0.183937
C143	C	0.978114	-0.251802	-0.719262
C144	C	1.478114	0.248198	-0.219262
C145	C	0.934785	-0.285243	-0.683895
C146	C	1.434785	0.214757	-0.183895
C147	C	0.934775	-0.285255	-0.613208
C148	C	1.434775	0.214745	-0.113208
C149	C	0.934823	-0.285194	-0.968969
C150	C	1.434823	0.214806	-0.468969
C151	C	0.934838	-0.285181	-1.039661
C152	C	1.434838	0.214819	-0.539661
C153	C	1.021476	-0.218314	-1.039698
C154	C	1.521476	0.281686	-0.539698
C155	C	1.021466	-0.218326	-0.969011
C156	C	1.521466	0.281674	-0.469011
C157	C	0.978135	-0.251765	-0.933650
C158	C	1.478135	0.248235	-0.433650
C159	C	0.978127	-0.251780	-0.857001
C160	C	1.478127	0.248220	-0.357001
C161	C	0.978125	-0.251790	-0.795909
C162	C	1.478125	0.248210	-0.295909
C163	C	0.978044	-0.251872	-0.150256
C164	C	1.478044	0.248128	0.349744
C165	C	0.978159	-0.251738	-0.075024
C166	C	1.478159	0.248262	0.424976
H167	H	1.056525	-0.450882	-0.247624
H168	H	1.556525	0.049118	0.252376
H169	H	1.056587	-0.549933	-0.247644
H170	H	1.556587	-0.049933	0.252356
H171	H	0.236367	-0.312639	-0.404528
H172	H	0.736367	0.187361	0.095472
C173	C	1.069100	-0.181606	-0.722836
C174	C	1.569100	0.318394	-0.222836
H175	H	1.062903	-0.186384	-0.769994
H176	H	1.562903	0.313616	-0.269994
H177	H	1.114562	-0.189275	-0.711251
H178	H	1.614562	0.310725	-0.211251
H179	H	1.059239	-0.146472	-0.711267
H180	H	1.559239	0.353528	-0.211267
C181	C	0.887141	-0.322013	-0.722751
C182	C	1.387141	0.177987	-0.222751
H183	H	0.893356	-0.317221	-0.769915
H184	H	1.393356	0.182779	-0.269915
H185	H	0.841669	-0.314362	-0.711162
H186	H	1.341669	0.185638	-0.211162
H187	H	0.897016	-0.357147	-0.711154
H188	H	1.397016	0.142853	-0.211154
H189	H	1.056756	-0.191085	-1.068497
H190	H	1.556756	0.308915	-0.568497
C191	C	1.112383	-0.808889	-0.192073
C192	C	1.612383	-0.308889	0.307927
H193	H	1.106204	-0.845322	-0.198263
H194	H	1.606204	-0.345322	0.301737
H195	H	1.102491	-0.799960	-0.146591
H196	H	1.602491	-0.299960	0.353409
H197	H	1.157855	-0.799901	-0.202017
H198	H	1.657855	-0.299901	0.297983
C199	C	0.887167	-0.321978	-0.930078
C200	C	1.387167	0.178022	-0.430078
H201	H	0.893357	-0.317197	-0.882919
H202	H	1.393357	0.182803	-0.382919
H203	H	0.897041	-0.357106	-0.941652
H204	H	1.397041	0.142894	-0.441652
H205	H	0.841698	-0.314318	-0.941659
H206	H	1.341698	0.185682	-0.441659
C207	C	0.226298	-0.181578	-0.235410
C208	C	0.726298	0.318422	0.264590
H209	H	0.257474	-0.161629	-0.209681
H210	H	0.757474	0.338371	0.290319
H211	H	0.198694	-0.201547	-0.205872
H212	H	0.698694	0.298453	0.294128
H213	H	0.198753	-0.158827	-0.261368
H214	H	0.698753	0.341173	0.238632
H215	H	0.899563	-0.312402	-1.068421
H216	H	1.399563	0.187598	-0.568421
H217	H	1.056769	-0.953228	-0.247697
H218	H	1.556769	-0.453228	0.252303
C219	C	1.069109	-0.181555	-0.930156
C220	C	1.569109	0.318445	-0.430156
H221	H	1.094908	-0.161633	-0.961341
H222	H	1.594908	0.338367	-0.461341
H223	H	1.098577	-0.201559	-0.902578
H224	H	1.598577	0.298441	-0.402578
H225	H	1.043228	-0.158776	-0.902587
H226	H	1.543228	0.341224	-0.402587
H227	H	0.899365	-0.450930	-0.404548
H228	H	1.399365	0.049070	0.095452
C229	C	0.374735	-0.181578	-0.235384
C230	C	0.874735	0.318422	0.264616
H231	H	0.343563	-0.161647	-0.209649
H232	H	0.843563	0.338353	0.290351
H233	H	0.402342	-0.158819	-0.261318
H234	H	0.902342	0.341181	0.238682
H235	H	0.402278	-0.201555	-0.205843
H236	H	0.902278	0.298445	0.294157
C237	C	0.582065	-0.181568	-0.235376
C238	C	1.082065	0.318432	0.264624
H239	H	0.534903	-0.186369	-0.241561
H240	H	1.034903	0.313631	0.258439
H241	H	0.593679	-0.146447	-0.245360
H242	H	1.093679	0.353553	0.254640
H243	H	0.593627	-0.189178	-0.189878
H244	H	1.093627	0.310822	0.310122
H245	H	0.364612	-0.312634	-0.404516
H246	H	0.864612	0.187366	0.095484
C247	C	0.730506	-0.181558	-0.235366
C248	C	1.230506	0.318442	0.264634
H249	H	0.699337	-0.161622	-0.209633
H250	H	1.199337	0.338378	0.290367
H251	H	0.758108	-0.158803	-0.261312
H252	H	1.258108	0.341197	0.238688
H253	H	0.758053	-0.201528	-0.205822
H254	H	1.258053	0.298472	0.294178
H255	H	1.099966	-0.702043	-0.204421
H256	H	1.599966	-0.202043	0.295579
C257	C	0.887120	-0.322038	-0.574307
C258	C	1.387120	0.177962	-0.074307
H259	H	0.893313	-0.317254	-0.527149
H260	H	1.393313	0.182746	-0.027149
H261	H	0.896990	-0.357167	-0.585879
H262	H	1.396990	0.142833	-0.085879
H263	H	0.841651	-0.314376	-0.585886
H264	H	1.341651	0.185624	-0.085886
H265	H	0.720372	-0.312622	-0.404485
H266	H	1.220372	0.187378	0.095515
C267	C	1.069187	-1.060090	-0.235357
C268	C	1.569187	-0.560090	0.264643
H269	H	1.062999	-1.096521	-0.241563
H270	H	1.562999	-0.596521	0.258437
H271	H	1.059304	-1.051171	-0.189870
H272	H	1.559304	-0.551171	0.310130
H273	H	1.114659	-1.051105	-0.245305
H274	H	1.614659	-0.551105	0.254695
H275	H	0.899641	-1.052333	-0.404632
H276	H	1.399641	-0.552333	0.095368
H277	H	0.899603	-0.953283	-0.404628
H278	H	1.399603	-0.453283	0.095372
C279	C	1.069064	-0.181617	-0.574397
C280	C	1.569064	0.318383	-0.074397
H281	H	1.094861	-0.161696	-0.605584
H282	H	1.594861	0.338304	-0.105584
H283	H	1.098533	-0.201620	-0.546818
H284	H	1.598533	0.298380	-0.046818
H285	H	1.043183	-0.158838	-0.546828
H286	H	1.543183	0.341162	-0.046828
C287	C	0.843867	-0.808967	-0.460231
C288	C	1.343867	-0.308967	0.039769
H289	H	0.818073	-0.784888	-0.485985
H290	H	1.318073	-0.284888	0.014015
H291	H	0.814394	-0.830305	-0.434326
H292	H	1.314394	-0.330305	0.065674
H293	H	0.869757	-0.830230	-0.489753
H294	H	1.369757	-0.330230	0.010247
H295	H	0.856196	-0.702113	-0.447855
H296	H	1.356196	-0.202113	0.052145
H297	H	0.899415	-0.549996	-0.404573
H298	H	1.399415	-0.049996	0.095427
H299	H	0.592138	-0.312624	-0.404500
H300	H	1.092138	0.187376	0.095500
