data_functionalizedCrystal
_audit_creation_method	'MofGen! by Chris Wilmer'
_symmetry_space_group_name_H-M	'P1'
_symmetry_Int_Tables_number	1
_symmetry_cell_setting	triclinic
loop_
_symmetry_equiv_pos_as_xyz
  x,y,z
_cell_length_a	15.995350
_cell_length_b	12.837942
_cell_length_c	11.892095
_cell_angle_alpha	94.302569
_cell_angle_beta	86.104556
_cell_angle_gamma	89.160658
loop_
_atom_site_label
_atom_site_type_symbol
_atom_site_fract_x
_atom_site_fract_y
_atom_site_fract_z
O1	O	1.126466	0.126998	-0.093906
O2	O	0.884009	0.143497	-0.093929
O3	O	0.999861	-0.015655	-0.093911
O4	O	1.010614	0.286150	-0.093924
O5	O	0.990200	-0.002406	0.094095
O6	O	0.874348	0.156746	0.094077
O7	O	1.116805	0.140247	0.094100
Zn8	Zn	0.994042	0.150600	0.123939
Zn9	Zn	1.006771	0.133144	-0.123767
O10	O	1.000953	0.299399	0.094082
C11	C	0.991398	-0.047651	0.000091
C12	C	0.980565	-0.162728	0.000088
C13	C	0.847929	0.149439	0.000071
C14	C	0.754816	0.147393	0.000062
C15	C	1.110803	-0.403687	0.000077
C16	C	1.100628	-0.511813	0.000074
C17	C	0.950041	-0.487109	0.000072
C18	C	0.960216	-0.378983	0.000074
C19	C	1.040599	-0.337276	0.000079
C20	C	1.050773	-0.229148	0.000090
C21	C	0.900187	-0.204446	0.000079
C22	C	0.890013	-0.312572	0.000076
C23	C	0.416481	0.140051	0.000086
C24	C	0.454850	0.026735	0.000511
C25	C	0.551726	0.028750	0.000079
C26	C	0.584333	0.143693	0.000075
C27	C	0.553223	0.192033	-0.107283
C28	C	0.456365	0.189180	-0.107365
C29	C	0.445226	0.206588	0.106433
C30	C	0.542097	0.206661	0.107844
C31	C	0.679196	0.145757	0.000065
C32	C	0.321619	0.137989	0.000089
C33	C	1.152885	0.134305	0.000098
C34	C	1.245998	0.136350	0.000099
C35	C	1.009416	0.331395	0.000078
C36	C	1.020250	0.446472	0.000073
N37	N	0.985361	0.162513	0.292991
N38	N	1.015459	0.121222	-0.292820
C39	C	1.075861	0.038267	0.529653
C40	C	1.069800	0.046602	0.647994
C41	C	0.967173	0.187512	0.648016
C42	C	0.973235	0.179177	0.529675
C43	C	1.027581	0.104553	0.470498
C44	C	1.033647	0.096224	0.352155
C45	C	0.931016	0.237129	0.352179
C46	C	0.924955	0.245463	0.470520
H47	H	1.116225	-0.195192	0.000098
H48	H	0.428757	-0.013147	0.077502
O49	O	0.576889	-0.017147	0.091847
C50	C	0.693402	-0.067510	0.195482
C51	C	0.665024	-0.015472	0.091526
H52	H	0.764662	-0.066193	0.195245
H53	H	0.664734	-0.023086	0.275836
H54	H	0.671812	-0.151851	0.192285
H55	H	0.686606	0.068866	0.094615
H56	H	0.693685	-0.059976	0.011217
O57	O	0.435700	0.133725	-0.203130
C58	C	0.485833	0.036202	-0.376206
C59	C	0.509346	0.098965	-0.267787
H60	H	0.545361	0.008100	-0.428523
H61	H	0.447410	-0.034047	-0.352731
H62	H	0.447309	0.088161	-0.427669
H63	H	0.547898	0.047091	-0.216273
H64	H	0.547727	0.169222	-0.291340
O65	O	1.188944	-0.363342	0.000032
C66	C	1.337229	-0.399247	0.000108
C67	C	1.248783	-0.445076	0.000135
H68	H	1.385631	-0.465305	0.000215
H69	H	1.349853	-0.354825	-0.078591
H70	H	1.341672	-0.343665	0.078770
H71	H	1.244275	-0.500701	-0.078473
H72	H	1.236197	-0.489435	0.078886
H73	H	0.435592	-0.023759	-0.076052
H74	H	0.580015	-0.020925	-0.077011
O75	O	1.128668	-0.034301	0.472337
C76	C	1.229868	-0.173132	0.484800
C77	C	1.170082	-0.091011	0.549848
H78	H	1.263381	-0.218989	0.547439
H79	H	1.192463	-0.228917	0.429434
H80	H	1.278067	-0.132226	0.429355
H81	H	1.121871	-0.131827	0.605354
H82	H	1.207543	-0.035232	0.605142
O83	O	1.168752	-0.576420	0.000226
C84	C	1.239684	-0.705930	0.097655
C85	C	1.162479	-0.632830	0.097615
H86	H	1.234647	-0.751541	0.176398
H87	H	1.242727	-0.762778	0.019027
H88	H	1.298872	-0.657526	0.097602
H89	H	1.103249	-0.681149	0.097708
H90	H	1.159510	-0.575980	0.176237
O91	O	0.914257	0.259876	0.705467
C92	C	0.771655	0.323081	0.741672
C93	C	0.831489	0.241056	0.676555
H94	H	0.704727	0.307907	0.718302
H95	H	0.775544	0.317636	0.836426
H96	H	0.790413	0.404480	0.718435
H97	H	0.812772	0.159620	0.699697
H98	H	0.827591	0.246593	0.581817
O99	O	1.086449	0.023649	0.294842
C100	C	1.187632	-0.115198	0.307316
C101	C	1.127854	-0.033065	0.372359
H102	H	1.221137	-0.161060	0.369960
H103	H	1.150222	-0.170978	0.251952
H104	H	1.235838	-0.074303	0.251872
H105	H	1.079636	-0.073871	0.427864
H106	H	1.165319	0.022708	0.427652
O107	O	0.872020	-0.527802	0.000114
C108	C	0.789621	-0.683442	0.000029
C109	C	0.878026	-0.637494	0.000006
H110	H	0.794448	-0.772135	-0.000083
H111	H	0.750430	-0.650634	0.078729
H112	H	0.758536	-0.661567	-0.078632
H113	H	0.909183	-0.659352	0.078613
H114	H	0.917156	-0.670301	-0.078746
H115	H	0.824567	-0.346545	0.000068
O116	O	0.832021	-0.139906	-0.000122
C117	C	0.761135	-0.010304	-0.097479
C118	C	0.838364	-0.083360	-0.097410
H119	H	0.766245	0.035449	-0.176116
H120	H	0.701915	-0.058646	-0.097556
H121	H	0.758097	0.046428	-0.018759
H122	H	0.841482	-0.140105	-0.176117
H123	H	0.897546	-0.034951	-0.097275
H124	H	0.891706	0.291106	0.304002
O125	O	0.872044	0.317840	0.527962
C126	C	0.729450	0.381078	0.564151
C127	C	0.789274	0.299033	0.499050
H128	H	0.662520	0.365915	0.540782
H129	H	0.733336	0.375648	0.658907
H130	H	0.748220	0.462468	0.540899
H131	H	0.770544	0.217605	0.522208
H132	H	0.785380	0.304555	0.404310
O133	O	0.426154	0.288033	-0.113398
C134	C	0.425546	0.440273	-0.220195
C135	C	0.459804	0.328329	-0.213504
H136	H	0.452752	0.472894	-0.301113
H137	H	0.354302	0.439148	-0.220390
H138	H	0.444268	0.491680	-0.143980
H139	H	0.441144	0.276857	-0.289703
H140	H	0.531043	0.329535	-0.213255
H141	H	0.574291	0.276197	-0.111278
H142	H	0.582605	0.147572	-0.187179
O143	O	0.565944	0.164830	0.202688
C144	C	0.634389	0.193250	0.376428
C145	C	0.607406	0.240761	0.269081
H146	H	0.667932	0.254611	0.430125
H147	H	0.576690	0.166302	0.427105
H148	H	0.678574	0.123627	0.351480
H149	H	0.563241	0.310417	0.293929
H150	H	0.665143	0.267635	0.218431
H151	H	0.417552	0.175268	0.187808
O152	O	0.567854	0.307268	0.115630
C153	C	0.527353	0.489312	0.122981
C154	C	0.498068	0.375421	0.114191
H155	H	0.470949	0.544445	0.121796
H156	H	0.559152	0.505709	0.205235
H157	H	0.573656	0.502092	0.048330
H158	H	0.451737	0.362560	0.188781
H159	H	0.466318	0.359078	0.031891
O160	O	0.415199	0.306341	0.107491
C161	C	0.329327	0.443544	0.207936
C162	C	0.363292	0.330577	0.206917
H163	H	0.287339	0.463167	0.288303
H164	H	0.383927	0.499597	0.205169
H165	H	0.291523	0.451475	0.131035
H166	H	0.401084	0.322545	0.283805
H167	H	0.308656	0.274579	0.209627
H168	H	1.109113	-0.007376	0.696155
