data_functionalizedCrystal
_audit_creation_method	'MofGen! by Chris Wilmer'
_symmetry_space_group_name_H-M	'P1'
_symmetry_Int_Tables_number	1
_symmetry_cell_setting	triclinic
loop_
_symmetry_equiv_pos_as_xyz
  x,y,z
_cell_length_a	12.811438
_cell_length_b	23.532407
_cell_length_c	11.892283
_cell_angle_alpha	86.124870
_cell_angle_beta	88.493477
_cell_angle_gamma	83.448206
loop_
_atom_site_label
_atom_site_type_symbol
_atom_site_fract_x
_atom_site_fract_y
_atom_site_fract_z
O1	O	1.375010	0.085760	-0.234961
O2	O	1.071571	0.092902	-0.203860
O3	O	1.232442	0.006485	-0.220328
O4	O	1.214139	0.172178	-0.218493
O5	O	1.245827	-0.000709	-0.033696
O6	O	1.084956	0.085709	-0.017228
O7	O	1.388395	0.078567	-0.048329
Zn8	Zn	1.238801	0.080996	-0.003146
Zn9	Zn	1.221165	0.090473	-0.249042
O10	O	1.227524	0.164984	-0.031861
C11	C	1.039450	0.088685	-0.106566
C12	C	0.923797	0.086828	-0.094711
C13	C	1.238669	-0.018332	-0.126961
C14	C	1.237268	-0.081563	-0.126809
C15	C	0.768086	0.080291	0.023724
C16	C	0.876752	0.082035	0.012591
C17	C	0.862167	0.089879	-0.190887
C18	C	0.753501	0.088134	-0.179753
C19	C	0.706465	0.083339	-0.072444
C20	C	0.597798	0.081591	-0.061312
C21	C	0.583214	0.089438	-0.264789
C22	C	0.691880	0.091183	-0.275922
C23	C	1.323675	-0.479849	-0.135727
C24	C	1.322373	-0.539261	-0.135602
O25	O	1.402474	-0.575249	-0.143854
N26	N	1.226736	-0.562789	-0.125799
C27	C	1.132394	-0.526901	-0.116132
O28	O	1.050928	-0.552369	-0.107783
C29	C	1.133697	-0.467489	-0.116265
C30	C	1.229341	-0.443965	-0.126057
C31	C	1.419311	-0.456324	-0.145520
C32	C	1.420613	-0.396916	-0.145643
C33	C	1.326279	-0.361033	-0.135973
C34	C	1.230643	-0.384557	-0.126180
C35	C	1.039356	-0.431602	-0.106606
C36	C	1.040667	-0.372187	-0.106740
C37	C	1.136311	-0.348663	-0.116533
C38	C	1.137611	-0.289266	-0.116633
N39	N	1.233248	-0.265738	-0.126436
C40	C	1.327582	-0.301621	-0.136106
C41	C	1.129666	-0.651669	-0.115855
C42	C	1.128362	-0.711079	-0.115714
C43	C	1.318342	-0.723435	-0.135186
C44	C	1.319644	-0.664024	-0.135320
C45	C	1.225303	-0.628141	-0.125658
C46	C	1.330309	-0.176860	-0.136362
C47	C	1.331603	-0.117446	-0.136479
C48	C	1.141624	-0.105095	-0.117012
C49	C	1.140330	-0.164504	-0.116889
C50	C	1.234680	-0.200385	-0.126568
O51	O	1.057551	-0.253243	-0.108390
O52	O	1.409034	-0.276145	-0.144468
C53	C	1.420516	0.082784	-0.145626
C54	C	1.536168	0.084641	-0.157488
C55	C	1.221297	0.189801	-0.125230
C56	C	1.222697	0.253032	-0.125390
N57	N	1.250844	0.074527	0.164670
N58	N	1.209131	0.096938	-0.416860
C59	C	1.334755	0.029487	0.333584
C60	C	1.326314	0.034013	0.216110
C61	C	1.183812	0.110518	0.230714
C62	C	1.192253	0.105992	0.348188
C63	C	1.267727	0.065475	0.399619
C64	C	1.276162	0.060946	0.517097
C65	C	1.133666	0.137454	0.531698
C66	C	1.125225	0.141980	0.414223
H67	H	0.729787	0.076390	0.111099
O68	O	1.061368	0.176287	0.602899
H69	H	1.014818	0.149927	0.661612
H70	H	0.926920	0.079555	0.090902
H71	H	1.396202	-0.003508	0.375461
O72	O	1.398601	-0.004806	0.144882
H73	H	1.452491	-0.033742	0.200386
O74	O	1.027908	-0.612967	-0.105404
H75	H	0.961196	-0.639315	-0.098552
O76	O	1.434763	-0.092072	-0.147058
H77	H	1.500137	-0.127008	-0.153778
H78	H	0.900483	0.093787	-0.278252
O79	O	1.523770	-0.371545	-0.156216
H80	H	1.523447	-0.341833	-0.232806
H81	H	0.533030	0.091922	-0.343096
O82	O	0.547056	0.076424	0.054421
H83	H	0.608165	0.074605	0.119422
O84	O	0.742616	0.096342	-0.391659
H85	H	0.828533	0.097036	-0.383247
O86	O	1.432073	-0.215554	-0.146793
H87	H	1.441475	-0.245858	-0.071134
H88	H	1.122370	0.143511	0.188822
H89	H	1.062451	-0.183659	-0.108884
H90	H	1.395153	-0.752663	-0.143065
H91	H	1.337614	0.027953	0.558971
H92	H	1.496134	-0.485535	-0.153399
O93	O	1.422799	-0.638651	-0.145902
H94	H	1.488170	-0.673590	-0.152612
H95	H	1.050481	-0.730228	-0.107721
H96	H	0.961472	-0.450744	-0.098638
O97	O	0.938912	-0.333484	-0.096306
H98	H	0.872195	-0.359828	-0.089464
H99	H	1.064820	-0.075869	-0.109135
H100	H	1.063778	0.174971	0.372334
