data_functionalizedCrystal
_audit_creation_method	'MofGen! by Chris Wilmer'
_symmetry_space_group_name_H-M	'P1'
_symmetry_Int_Tables_number	1
_symmetry_cell_setting	triclinic
loop_
_symmetry_equiv_pos_as_xyz
  x,y,z
_cell_length_a	18.215407
_cell_length_b	25.639239
_cell_length_c	18.215387
_cell_angle_alpha	89.908932
_cell_angle_beta	89.939256
_cell_angle_gamma	90.039134
loop_
_atom_site_label
_atom_site_type_symbol
_atom_site_fract_x
_atom_site_fract_y
_atom_site_fract_z
Zn1	Zn	1.125299	-0.207835	-0.416106
Zn2	Zn	1.125090	-0.295364	-0.293035
Zn3	Zn	1.002143	-0.207945	-0.293053
Zn4	Zn	1.002168	-0.295242	-0.416060
O5	O	1.063675	-0.251596	-0.354564
O6	O	1.228255	-0.219451	-0.399792
O7	O	1.108683	-0.283865	-0.190053
O8	O	1.018558	-0.134765	-0.309403
O9	O	1.228102	-0.283758	-0.309372
O10	O	1.109039	-0.134684	-0.399810
O11	O	1.018355	-0.219639	-0.190066
O12	O	0.899162	-0.219520	-0.309359
O13	O	1.018599	-0.283550	-0.519051
O14	O	0.899180	-0.283657	-0.399731
O15	O	1.109063	-0.219332	-0.519085
O16	O	1.108706	-0.368513	-0.309328
O17	O	1.018396	-0.368423	-0.399714
C18	C	0.872469	-0.251588	-0.354543
C19	C	0.790670	-0.251596	-0.354551
C20	C	0.602504	-0.285045	-0.401549
C21	C	0.525645	-0.285046	-0.401558
C22	C	0.525598	-0.218158	-0.307594
C23	C	0.602455	-0.218154	-0.307589
C24	C	0.640906	-0.251600	-0.354566
C25	C	0.487190	-0.251606	-0.354580
C26	C	0.403856	-0.251607	-0.354589
C27	C	0.724245	-0.251598	-0.354557
C28	C	1.063551	-0.387439	-0.354530
C29	C	1.063565	-0.445553	-0.354540
C30	C	1.110822	-0.805950	-0.307580
C31	C	1.110851	-0.860555	-0.307590
O32	O	1.150902	-0.888820	-0.267625
N33	N	1.063804	-0.887835	-0.354612
C34	C	1.016731	-0.860509	-0.401634
O35	O	0.976718	-0.888728	-0.441632
C36	C	1.016707	-0.805906	-0.401627
C37	C	1.063751	-0.778628	-0.354596
C38	C	1.157863	-0.778672	-0.260553
C39	C	1.157834	-0.724072	-0.260543
C40	C	1.110763	-0.696749	-0.307559
C41	C	1.063722	-0.724027	-0.354585
C42	C	0.969638	-0.778581	-0.448651
C43	C	0.969619	-0.723974	-0.448641
C44	C	1.016663	-0.696696	-0.401610
C45	C	1.016621	-0.642104	-0.401591
N46	N	1.063668	-0.614824	-0.354568
C47	C	1.110739	-0.642146	-0.307552
C48	C	1.016787	-0.975180	-0.401645
C49	C	1.016807	-1.029782	-0.401649
C50	C	1.110927	-1.029824	-0.307605
C51	C	1.110903	-0.975220	-0.307599
C52	C	1.063833	-0.947899	-0.354622
C53	C	1.110672	-0.527481	-0.307533
C54	C	1.110636	-0.472875	-0.307524
C55	C	1.016519	-0.472839	-0.401570
C56	C	1.016552	-0.527439	-0.401576
C57	C	1.063634	-0.554759	-0.354555
O58	O	0.976593	-0.613804	-0.441537
O59	O	1.150752	-0.613921	-0.267568
C60	C	1.255628	-0.251606	-0.354585
C61	C	1.337427	-0.251610	-0.354594
C62	C	1.063857	-0.251415	-0.546517
C63	C	1.063934	-0.251338	-0.628316
C64	C	1.063819	-0.115223	-0.354614
C65	C	1.063881	-0.057109	-0.354635
C66	C	1.063536	-0.251739	-0.163357
C67	C	1.063601	-0.251669	-0.081558
C68	C	1.016430	-0.218278	0.183457
C69	C	1.016372	-0.218335	0.106599
C70	C	1.111107	-0.284733	0.106674
C71	C	1.111161	-0.284678	0.183531
C72	C	1.063824	-0.251448	0.221921
C73	C	1.063711	-0.251559	0.068205
C74	C	1.063649	-0.251621	-0.015129
C75	C	1.063886	-0.251386	0.305259
H76	H	0.494382	-0.312280	-0.439818
H77	H	0.633723	-0.190916	-0.269330
C78	C	1.162657	-0.945220	-0.255864
N79	N	1.201642	-0.922626	-0.216896
H80	H	0.494281	-0.190927	-0.269347
H81	H	0.977779	-0.191325	0.075285
H82	H	0.633809	-0.312278	-0.439802
H83	H	1.149648	-0.311788	0.075407
C84	C	0.964746	-0.442774	-0.453288
N85	N	0.925755	-0.420127	-0.492247
C86	C	0.965047	-1.059782	-0.453379
N87	N	0.926063	-1.082376	-0.492348
H88	H	0.977885	-0.191219	0.214712
C89	C	1.162387	-0.442873	-0.255780
N90	N	1.201365	-0.420277	-0.216808
C91	C	1.162461	-0.557525	-0.255803
N92	N	1.201465	-0.580153	-0.216836
C93	C	1.163314	-0.321160	0.225843
N94	N	1.202597	-0.348635	0.257713
C95	C	1.209646	-0.808718	-0.208823
N96	N	1.248647	-0.831345	-0.169851
C97	C	1.209581	-0.694073	-0.208798
N98	N	1.248558	-0.671481	-0.169820
H99	H	1.149258	-1.052079	-0.269325
C100	C	0.965006	-0.945131	-0.453381
N101	N	0.926009	-0.922501	-0.492353
C102	C	0.917887	-0.808574	-0.500393
N103	N	0.878906	-0.831165	-0.539368
C104	C	0.917837	-0.693924	-0.500373
N105	N	0.878834	-0.671291	-0.539335
H106	H	0.978247	-0.549650	-0.439875
