data_functionalizedCrystal
_audit_creation_method	'MofGen! by Chris Wilmer'
_symmetry_space_group_name_H-M	'P1'
_symmetry_Int_Tables_number	1
_symmetry_cell_setting	triclinic
loop_
_symmetry_equiv_pos_as_xyz
  x,y,z
_cell_length_a	12.594517
_cell_length_b	12.827892
_cell_length_c	12.827885
_cell_angle_alpha	89.973112
_cell_angle_beta	90.021568
_cell_angle_gamma	89.982869
loop_
_atom_site_label
_atom_site_type_symbol
_atom_site_fract_x
_atom_site_fract_y
_atom_site_fract_z
Zn1	Zn	1.627260	0.415988	0.590934
Zn2	Zn	1.627146	0.590765	0.416203
Zn3	Zn	1.449263	0.416038	0.416200
Zn4	Zn	1.449242	0.590687	0.590896
O5	O	1.538228	0.503370	0.503558
O6	O	1.776191	0.439184	0.567772
O7	O	1.603511	0.567641	0.269966
O8	O	1.472931	0.269796	0.439394
O9	O	1.776107	0.567592	0.439398
O10	O	1.603705	0.269759	0.567770
O11	O	1.472821	0.439270	0.269965
O12	O	1.300315	0.439194	0.439357
O13	O	1.472895	0.567459	0.737137
O14	O	1.300299	0.567508	0.567705
O15	O	1.603684	0.439108	0.737165
O16	O	1.603490	0.736991	0.439361
O17	O	1.472785	0.736933	0.567708
C18	C	1.261687	0.503349	0.503527
C19	C	1.143381	0.503365	0.503539
C20	C	1.538152	0.774880	0.503553
C21	C	1.538217	0.891033	0.503586
C22	C	1.538300	0.503269	0.776128
C23	C	1.538331	0.503227	0.892282
C24	C	1.074106	0.433480	0.433864
C25	C	1.003293	0.528803	0.408165
C26	C	1.003396	0.408088	0.529255
C27	C	1.074126	0.598738	0.477791
C28	C	1.074236	0.477959	0.598925
C29	C	1.003455	0.573348	0.573263
C30	C	1.815849	0.503391	0.503590
C31	C	1.934154	0.503401	0.503603
C32	C	1.602969	0.942811	0.440150
C33	C	1.603038	1.062862	0.440182
C34	C	1.538324	1.230800	0.503599
C35	C	1.538344	1.114646	0.503648
C36	C	1.538217	0.503394	0.232048
C37	C	1.538392	0.503143	0.115896
C38	C	1.603057	0.439702	0.944080
C39	C	1.603090	0.439656	1.064131
H40	H	1.105128	0.374438	0.374869
Br41	Br	0.952070	0.671984	0.671520
Br42	Br	0.951599	0.273772	0.565460
H43	H	1.482935	0.557571	0.936812
H44	H	1.658360	0.898267	0.385818
H45	H	1.482979	0.557535	1.071357
Br46	Br	1.125686	0.733100	0.441428
H47	H	1.105421	0.456419	0.679540
Br48	Br	1.695433	1.137071	0.349647
Br49	Br	1.695350	0.349075	0.869871
H50	H	1.658508	0.385274	1.108676
Br51	Br	1.445906	0.965270	0.594162
H52	H	0.972133	0.550314	0.327527
H53	H	1.482899	1.070126	0.557958
