data_functionalizedCrystal
_audit_creation_method	'MofGen! by Chris Wilmer'
_symmetry_space_group_name_H-M	'P1'
_symmetry_Int_Tables_number	1
_symmetry_cell_setting	triclinic
loop_
_symmetry_equiv_pos_as_xyz
  x,y,z
_cell_length_a	16.109301
_cell_length_b	16.109301
_cell_length_c	15.186229
_cell_angle_alpha	90.002431
_cell_angle_beta	90.011978
_cell_angle_gamma	83.461481
loop_
_atom_site_label
_atom_site_type_symbol
_atom_site_fract_x
_atom_site_fract_y
_atom_site_fract_z
O1	O	0.106874	1.103132	0.073176
O2	O	0.120173	0.861070	0.073190
O3	O	-0.007507	0.988751	0.073174
O4	O	0.234555	0.975451	0.073192
O5	O	-0.007525	0.988740	-0.073284
O6	O	0.120156	0.861059	-0.073267
O7	O	0.106856	1.103121	-0.073282
Zn8	Zn	0.113503	0.982088	-0.096528
Zn9	Zn	0.113527	0.982103	0.096436
O10	O	0.234537	0.975440	-0.073265
C11	C	0.119626	0.830090	-0.000037
C12	C	0.118011	0.737794	-0.000032
C13	C	0.190018	0.515522	-0.000036
C14	C	0.188494	0.428801	-0.000042
C15	C	0.037006	0.448676	-0.000050
C16	C	0.038530	0.535394	-0.000051
C17	C	0.115039	0.568815	-0.000039
C18	C	0.111990	0.395376	-0.000045
C19	C	0.110337	0.301350	-0.000051
C20	C	0.116693	0.662847	-0.000035
C21	C	-0.038491	0.988206	-0.000056
C22	C	-0.130786	0.986591	-0.000057
C23	C	-0.353059	1.058599	-0.000047
C24	C	-0.439779	1.057075	-0.000040
C25	C	-0.419905	0.905586	-0.000034
C26	C	-0.333186	0.907111	-0.000035
C27	C	-0.299766	0.983620	-0.000046
C28	C	-0.473205	0.980571	-0.000038
C29	C	-0.567231	0.978918	-0.000030
C30	C	-0.205734	0.985273	-0.000052
C31	C	0.265521	0.975984	-0.000034
C32	C	0.357816	0.977600	-0.000027
C33	C	0.107404	1.134101	-0.000053
C34	C	0.109019	1.226397	-0.000052
N35	N	0.113486	0.982084	-0.228220
N36	N	0.113537	0.982113	0.228129
C37	C	0.057089	1.038744	0.546040
C38	C	0.057096	1.038748	0.453850
C39	C	0.169936	0.925448	0.453875
C40	C	0.169925	0.925440	0.546063
C41	C	0.113503	0.982093	0.592143
C42	C	0.113520	0.982104	0.407765
C43	C	0.113528	0.982108	0.307809
C44	C	0.113494	0.982088	0.692106
H45	H	-0.025285	0.421454	-0.000065
N46	N	-0.497254	1.137949	-0.000048
H47	H	-0.533689	1.140687	-0.054339
H48	H	-0.533610	1.140653	0.054281
N49	N	-0.042349	0.592875	-0.000052
H50	H	-0.045084	0.629301	0.054238
H51	H	-0.045052	0.629240	-0.054382
N52	N	-0.455952	0.823069	-0.000026
H53	H	-0.518975	0.833479	-0.000029
H54	H	-0.436463	0.790259	-0.054319
N55	N	-0.275698	0.826237	-0.000028
H56	H	-0.310026	0.777538	-0.000027
H57	H	-0.239293	0.823569	-0.054320
H58	H	0.011146	1.084872	0.583556
N59	N	-0.317015	1.141117	-0.000055
H60	H	-0.281464	1.145130	0.054234
H61	H	-0.281534	1.145072	-0.054386
H62	H	0.011158	1.084876	0.416316
N63	N	0.230790	0.864347	0.404174
H64	H	0.222239	0.872948	0.338777
H65	H	0.289804	0.873811	0.420313
N66	N	0.230772	0.864328	0.595789
H67	H	0.289819	0.873763	0.579773
H68	H	0.222129	0.872946	0.661166
N69	N	0.272534	0.551571	-0.000023
H70	H	0.319801	0.504647	-0.000023
H71	H	0.276460	0.587118	-0.054315
N72	N	0.269378	0.371342	-0.000044
H73	H	0.272148	0.334913	0.054243
H74	H	0.272075	0.334979	-0.054377
