data_functionalizedCrystal
_audit_creation_method	'MofGen! by Chris Wilmer'
_symmetry_space_group_name_H-M	'P1'
_symmetry_Int_Tables_number	1
_symmetry_cell_setting	triclinic
loop_
_symmetry_equiv_pos_as_xyz
  x,y,z
_cell_length_a	13.339071
_cell_length_b	8.559649
_cell_length_c	7.088929
_cell_angle_alpha	95.344185
_cell_angle_beta	97.904349
_cell_angle_gamma	87.296029
loop_
_atom_site_label
_atom_site_type_symbol
_atom_site_fract_x
_atom_site_fract_y
_atom_site_fract_z
O1	O	1.270862	-0.785788	-0.158797
O2	O	0.984228	-0.684150	-0.158841
O3	O	1.152798	-0.513562	-0.158813
O4	O	1.102292	-0.956376	-0.158825
O5	O	1.175331	-0.490693	0.159166
O6	O	1.006761	-0.661281	0.159138
O7	O	1.293395	-0.762919	0.159181
Cu8	Cu	1.152136	-0.710012	0.188194
Cu9	Cu	1.125487	-0.737057	-0.187853
O10	O	1.124825	-0.933507	0.159154
C11	C	0.959139	-0.655547	0.000143
C12	C	0.850812	-0.604371	0.000126
C13	C	1.167891	-0.444295	0.000173
C14	C	1.179284	-0.271966	0.000164
C15	C	1.318484	-0.791523	0.000193
C16	C	1.426810	-0.842700	0.000198
C17	C	1.455108	-1.002294	0.000190
C18	C	1.556883	-1.050385	0.000159
C19	C	1.630370	-0.938885	0.000151
C20	C	1.602073	-0.779287	0.000173
C21	C	1.500287	-0.731193	0.000189
C22	C	1.675549	-0.667784	0.000151
C23	C	1.647252	-0.508186	0.000172
C24	C	1.545476	-0.460099	0.000189
C25	C	1.471989	-0.571599	0.000197
C26	C	1.777334	-0.715878	0.000135
C27	C	1.822514	-0.444777	0.000134
C28	C	1.720739	-0.396686	0.000165
C29	C	1.109731	-1.002775	0.000163
C30	C	1.098338	-1.175104	0.000160
N31	N	1.170886	-0.690992	0.452685
N32	N	1.106746	-0.756069	-0.452344
H33	H	1.713238	-0.978051	0.000122
O34	O	1.258957	-0.601683	0.560839
H35	H	1.253057	-0.478466	0.522527
O36	O	1.690207	-0.224554	0.000187
H37	H	1.758400	-0.155090	0.000197
O38	O	1.282641	-0.207192	0.000204
H39	H	1.282614	-0.143729	-0.129394
H40	H	1.020322	-0.224014	0.000154
H41	H	1.040274	-0.823504	0.465999
O42	O	1.807843	-0.888006	0.000137
H43	H	1.843930	-0.925738	-0.129479
O44	O	1.587398	-1.222510	0.000176
H45	H	1.547827	-1.287607	-0.129407
O46	O	1.375855	-1.122544	0.000213
H47	H	1.300330	-1.062284	0.000243
O48	O	1.362215	-0.519719	0.000238
H49	H	1.315875	-0.624068	0.000244
O50	O	1.514962	-0.287961	0.000205
H51	H	1.460485	-0.268877	-0.129399
O52	O	1.901763	-0.324496	0.000144
H53	H	1.977292	-0.384747	0.000155
