data_functionalizedCrystal
_audit_creation_method	'MofGen! by Chris Wilmer'
_symmetry_space_group_name_H-M	'P1'
_symmetry_Int_Tables_number	1
_symmetry_cell_setting	triclinic
loop_
_symmetry_equiv_pos_as_xyz
  x,y,z
_cell_length_a	15.995350
_cell_length_b	14.971506
_cell_length_c	13.448316
_cell_angle_alpha	89.992937
_cell_angle_beta	90.002483
_cell_angle_gamma	96.442619
loop_
_atom_site_label
_atom_site_type_symbol
_atom_site_fract_x
_atom_site_fract_y
_atom_site_fract_z
O1	O	-0.109197	1.186811	-0.082690
O2	O	0.390803	1.686811	0.417310
O3	O	-0.122246	0.926399	-0.082689
O4	O	0.377754	1.426399	0.417311
O5	O	0.006158	1.063724	-0.082693
O6	O	0.506158	1.563724	0.417307
O7	O	-0.237602	1.049487	-0.082685
O8	O	0.262398	1.549487	0.417315
O9	O	0.006166	1.063706	0.082691
O10	O	0.506166	1.563706	0.582691
O11	O	-0.122238	0.926382	0.082695
O12	O	0.377762	1.426382	0.582695
O13	O	-0.109189	1.186794	0.082694
O14	O	0.390811	1.686794	0.582694
Cu15	Cu	-0.115713	1.056586	0.097795
Cu16	Cu	0.384287	1.556586	0.597795
Cu17	Cu	-0.115722	1.056607	-0.097790
Cu18	Cu	0.384278	1.556607	0.402210
O19	O	-0.237594	1.049469	0.082698
O20	O	0.262406	1.549469	0.582698
C21	C	-0.121656	0.893067	0.000003
C22	C	0.378344	1.393067	0.500003
C23	C	-0.119898	0.793772	0.000003
C24	C	0.380102	1.293772	0.500003
C25	C	-0.188625	0.355411	-0.000005
C26	C	0.311375	0.855411	0.499995
C27	C	-0.190270	0.448710	-0.000009
C28	C	0.309730	0.948710	0.499991
C29	C	-0.114827	0.506016	-0.000007
C30	C	0.385173	1.006016	0.499993
C31	C	-0.037734	0.470019	-0.000011
C32	C	0.462266	0.970019	0.499989
C33	C	-0.036090	0.376723	-0.000014
C34	C	0.463910	0.876723	0.499986
C35	C	-0.041167	0.664478	-0.000003
C36	C	0.458833	1.164478	0.499997
C37	C	-0.042811	0.757782	0.000002
C38	C	0.457189	1.257782	0.500002
C39	C	-0.195347	0.736466	0.000002
C40	C	0.304653	1.236466	0.500002
C41	C	-0.193702	0.643169	-0.000001
C42	C	0.306298	1.143169	0.499999
C43	C	-0.116609	0.607179	-0.000003
C44	C	0.383391	1.107179	0.499997
C45	C	-0.268793	1.050067	0.000008
C46	C	0.231207	1.550067	0.500008
C47	C	-0.361745	1.051831	0.000010
C48	C	0.138255	1.551831	0.500010
C49	C	-0.699500	1.058168	-0.000005
C50	C	-0.199500	1.558168	0.499995
C51	C	-0.652170	1.155969	-0.000375
C52	C	-0.152170	1.655969	0.499625
C53	C	-0.555478	1.154204	0.000004
C54	C	-0.055478	1.654204	0.500004
C55	C	-0.531936	1.055025	0.000002
C56	C	-0.031936	1.555025	0.500002
C57	C	-0.572962	1.006777	0.094441
C58	C	-0.072962	1.506777	0.594441
C59	C	-0.669601	1.009233	0.094514
C60	C	-0.169601	1.509233	0.594514
C61	C	-0.669955	1.007233	-0.093558
C62	C	-0.169955	1.507233	0.406442
C63	C	-0.573010	1.007256	-0.094801
C64	C	-0.073010	1.507256	0.405199
C65	C	-0.437236	1.053243	0.000009
C66	C	0.062764	1.553243	0.500009
C67	C	-0.794199	1.059947	-0.000006
C68	C	-0.294199	1.559947	0.499994
C69	C	0.037358	1.063127	-0.000004
C70	C	0.537358	1.563127	0.499996
C71	C	0.130310	1.061362	-0.000014
C72	C	0.630310	1.561362	0.499986
C73	C	-0.109780	1.220127	0.000000
C74	C	0.390220	1.720127	0.500000
C75	C	-0.111538	1.319421	-0.000006
C76	C	0.388462	1.819421	0.499994
N77	N	-0.115706	1.056579	0.235360
N78	N	0.384294	1.556579	0.735360
N79	N	-0.115723	1.056622	-0.235354
N80	N	0.384277	1.556622	0.264646
C81	C	-0.058872	1.117405	0.287398
C82	C	0.441128	1.617405	0.787398
C83	C	-0.058871	1.117410	0.391502
C84	C	0.441129	1.617410	0.891502
C85	C	-0.115709	1.056593	0.443564
C86	C	0.384291	1.556593	0.943564
C87	C	-0.172546	0.995761	0.391519
C88	C	0.327454	1.495761	0.891519
C89	C	-0.172542	0.995751	0.287417
C90	C	0.327458	1.495751	0.787417
C91	C	-0.172552	0.995785	0.608499
C92	C	0.327448	1.495785	1.108499
C93	C	-0.172557	0.995795	0.712607
C94	C	0.327443	1.495795	1.212607
C95	C	-0.058881	1.117444	0.712583
C96	C	0.441119	1.617444	1.212583
C97	C	-0.058877	1.117435	0.608482
C98	C	0.441123	1.617435	1.108482
C99	C	-0.115715	1.056603	0.556443
C100	C	0.384285	1.556603	1.056443
H101	H	-0.527095	1.192134	-0.067690
H102	H	-0.027095	1.692134	0.432310
H103	H	-0.012592	1.166939	0.433871
H104	H	0.487408	1.666939	0.933871
H105	H	-0.671883	1.194913	0.066907
H106	H	-0.171883	1.694913	0.566907
H107	H	0.023692	0.516686	-0.000016
H108	H	0.523692	1.016686	0.499984
Br109	Br	-0.549296	0.885329	0.100297
Br110	Br	-0.049296	1.385329	0.600297
H111	H	0.018621	0.804439	-0.000005
H112	H	0.518621	1.304439	0.499995
H113	H	-0.012601	1.166975	0.754959
H114	H	0.487399	1.666975	1.254959
H115	H	-0.253041	0.478008	-0.000018
H116	H	0.246959	0.978008	0.499982
Br117	Br	-0.249680	0.913214	0.462171
Br118	Br	0.250320	1.413214	0.962171
H119	H	-0.250059	0.308758	0.000001
H120	H	0.249941	0.808758	0.500001
Br121	Br	0.018253	1.199980	0.537821
Br122	Br	0.518253	1.699980	1.037821
Br123	Br	-0.525730	1.062610	0.211588
Br124	Br	-0.025730	1.562610	0.711588
H125	H	-0.258119	0.765773	0.000004
H126	H	0.241881	1.265773	0.500004
Br127	Br	-0.249687	0.913222	0.537878
Br128	Br	0.250313	1.413222	1.037878
Br129	Br	-0.249698	0.913254	0.783256
Br130	Br	0.250302	1.413254	1.283256
H131	H	0.021610	0.635179	-0.000009
H132	H	0.521610	1.135179	0.499991
Br133	Br	-0.509097	1.217812	0.113038
Br134	Br	-0.009097	1.717812	0.613038
H135	H	-0.255134	0.596512	0.000004
H136	H	0.244866	1.096512	0.500004
H137	H	0.026682	0.347421	-0.000017
H138	H	0.526682	0.847421	0.499983
Br139	Br	-0.683119	1.221138	-0.113261
Br140	Br	-0.183119	1.721138	0.386739
H141	H	-0.557566	0.934933	-0.100508
H142	H	-0.057566	1.434933	0.399492
H143	H	-0.687940	1.044403	0.165111
H144	H	-0.187940	1.544403	0.665111
Br145	Br	-0.527572	1.065971	-0.211252
Br146	Br	-0.027572	1.565971	0.288748
Br147	Br	-0.704256	1.060530	-0.212867
Br148	Br	-0.204256	1.560530	0.287133
H149	H	-0.701772	0.937430	0.098807
H150	H	-0.201772	1.437430	0.598807
H151	H	-0.701626	0.935120	-0.094186
H152	H	-0.201626	1.435120	0.405814
Br153	Br	-0.249672	0.913192	0.216793
Br154	Br	0.250328	1.413192	0.716793
Br155	Br	0.018264	1.199954	0.216752
Br156	Br	0.518264	1.699954	0.716752
