data_functionalizedCrystal
_audit_creation_method	'MofGen! by Chris Wilmer'
_symmetry_space_group_name_H-M	'P1'
_symmetry_Int_Tables_number	1
_symmetry_cell_setting	triclinic
loop_
_symmetry_equiv_pos_as_xyz
  x,y,z
_cell_length_a	8.597314
_cell_length_b	15.624967
_cell_length_c	7.088899
_cell_angle_alpha	78.990792
_cell_angle_beta	75.493375
_cell_angle_gamma	92.846876
loop_
_atom_site_label
_atom_site_type_symbol
_atom_site_fract_x
_atom_site_fract_y
_atom_site_fract_z
O1	O	-2.090733	0.139270	0.088791
O2	O	-1.626537	0.145325	0.008136
O3	O	-1.879055	0.015973	0.139429
O4	O	-1.838216	0.268622	-0.042502
O5	O	-1.907178	0.032432	0.450622
O6	O	-1.654660	0.161784	0.319329
O7	O	-2.118856	0.155729	0.399985
Cu8	Cu	-1.889326	0.160259	0.388072
Cu9	Cu	-1.856068	0.140795	0.020049
O10	O	-1.866338	0.285081	0.268692
C11	C	-1.581341	0.151987	0.155059
C12	C	-1.404774	0.147306	0.129223
C13	C	-1.894053	-0.008200	0.317646
C14	C	-1.896826	-0.104750	0.385044
C15	C	-1.916064	-0.231867	0.649663
C16	C	-1.913456	-0.141145	0.586312
C17	C	-1.882805	-0.159070	0.247050
C18	C	-1.885417	-0.249796	0.310374
C19	C	-1.902046	-0.286187	0.511682
C20	C	-1.871399	-0.304116	0.172394
C21	C	-1.874004	-0.394833	0.235712
C22	C	-1.890626	-0.431231	0.437011
C23	C	-1.904650	-0.376904	0.575001
C24	C	-1.854760	-0.267723	-0.028916
C25	C	-1.840742	-0.322043	-0.166896
C26	C	-1.843357	-0.412763	-0.103577
C27	C	-1.859980	-0.449160	0.097722
C28	C	-1.829334	-0.467090	-0.241567
C29	C	-1.831938	-0.557807	-0.178248
C30	C	-1.862584	-0.539877	0.161040
C31	C	-1.164052	0.149066	0.253065
C32	C	-1.340621	0.153746	0.278911
C33	C	-1.851339	0.309254	0.090471
C34	C	-1.848566	0.405803	0.023060
N35	N	-1.832677	0.127098	-0.238794
N36	N	-1.912729	0.173949	0.646921
H37	H	-1.324608	0.138209	-0.018713
H38	H	-1.420780	0.162836	0.426843
H39	H	-1.827199	-0.292401	-0.330804
H40	H	-1.876134	-0.569509	0.324967
C41	C	-2.023577	0.238633	-0.271067
C42	C	-2.181180	0.215074	-0.277348
C43	C	-2.283335	0.274648	-0.201828
H44	H	-2.022173	0.237754	-0.137153
H45	H	-1.987381	0.295909	-0.349526
H46	H	-2.217368	0.157813	-0.198889
H47	H	-2.182636	0.215959	-0.411241
H48	H	-2.247138	0.331924	-0.280287
H49	H	-2.281917	0.273764	-0.067919
H50	H	-2.390277	0.258676	-0.206097
H51	H	-1.749721	0.078540	-0.300443
H52	H	-1.892733	-0.505098	0.488558
C53	C	-1.816399	-0.616685	-0.328294
C54	C	-1.669084	-0.592524	-0.473859
C55	C	-1.654688	-0.646741	-0.612122
H56	H	-1.820206	-0.675941	-0.261991
H57	H	-1.902750	-0.610583	-0.389678
H58	H	-1.582755	-0.598635	-0.412482
H59	H	-1.665244	-0.533278	-0.540213
H60	H	-1.741040	-0.640639	-0.673506
H61	H	-1.658502	-0.705993	-0.545801
H62	H	-1.554743	-0.630350	-0.710914
C63	C	-1.928907	-0.082087	0.735989
C64	C	-2.065714	-0.036940	0.737382
C65	C	-2.079976	0.017475	0.875222
H66	H	-1.939269	-0.116662	0.865037
H67	H	-1.835417	-0.041209	0.699472
H68	H	-2.159181	-0.077813	0.773910
H69	H	-2.055384	-0.002349	0.608368
H70	H	-1.986486	0.058353	0.838704
H71	H	-2.090333	-0.017106	1.004259
H72	H	-2.172790	0.048120	0.876172
H73	H	-1.918199	-0.406535	0.738928
H74	H	-1.929613	-0.261498	0.813590
H75	H	-1.869261	-0.129428	0.083143
H76	H	-1.852616	-0.193853	-0.080468
H77	H	-1.815780	-0.437445	-0.405475
