data_functionalizedCrystal
_audit_creation_method	'MofGen! by Chris Wilmer'
_symmetry_space_group_name_H-M	'P1'
_symmetry_Int_Tables_number	1
_symmetry_cell_setting	triclinic
loop_
_symmetry_equiv_pos_as_xyz
  x,y,z
_cell_length_a	12.827893
_cell_length_b	12.827892
_cell_length_c	12.759393
_cell_angle_alpha	89.969144
_cell_angle_beta	89.980487
_cell_angle_gamma	90.015363
loop_
_atom_site_label
_atom_site_type_symbol
_atom_site_fract_x
_atom_site_fract_y
_atom_site_fract_z
Zn1	Zn	1.597674	-0.415972	-0.594015
Zn2	Zn	2.097674	0.084028	-0.094015
Zn3	Zn	1.597567	-0.590753	-0.418337
Zn4	Zn	2.097567	-0.090753	0.081663
Zn5	Zn	1.422914	-0.416026	-0.418351
Zn6	Zn	1.922914	0.083974	0.081649
Zn7	Zn	1.422901	-0.590672	-0.593976
Zn8	Zn	1.922901	-0.090672	-0.093976
O9	O	1.510264	-0.503356	-0.506170
O10	O	2.010264	-0.003356	-0.006170
O11	O	1.743896	-0.439168	-0.570722
O12	O	2.243896	0.060832	-0.070722
O13	O	1.574360	-0.567632	-0.271318
O14	O	2.074360	-0.067632	0.228682
O15	O	1.446147	-0.269783	-0.441676
O16	O	1.946147	0.230217	0.058324
O17	O	1.743817	-0.567579	-0.441652
O18	O	2.243817	-0.067579	0.058348
O19	O	1.574542	-0.269743	-0.570735
O20	O	2.074542	0.230257	-0.070735
O21	O	1.446043	-0.439261	-0.271328
O22	O	1.946043	0.060739	0.228672
O23	O	1.276676	-0.439182	-0.441638
O24	O	1.776676	0.060818	0.058362
O25	O	1.446124	-0.567441	-0.741002
O26	O	1.946124	-0.067441	-0.241002
O27	O	1.276666	-0.567493	-0.570668
O28	O	1.776666	-0.067493	-0.070668
O29	O	1.574529	-0.439090	-0.741031
O30	O	2.074529	0.060910	-0.241031
O31	O	1.574347	-0.736978	-0.441614
O32	O	2.074347	-0.236978	0.058386
O33	O	1.446020	-0.736919	-0.570655
O34	O	1.946020	-0.236919	-0.070655
C35	C	1.238754	-0.503336	-0.506151
C36	C	1.738754	-0.003336	-0.006151
C37	C	1.122601	-0.503352	-0.506167
C38	C	1.622601	-0.003352	-0.006167
C39	C	0.950811	-0.439942	-0.570151
C40	C	1.450811	0.060058	-0.070151
C41	C	1.070861	-0.439923	-0.570135
C42	C	1.570861	0.060077	-0.070135
C43	C	1.510199	-0.774866	-0.506151
C44	C	2.010199	-0.274866	-0.006151
C45	C	1.510266	-0.891019	-0.506178
C46	C	2.010266	-0.391019	-0.006178
C47	C	1.573842	-0.942798	-0.442396
C48	C	2.073842	-0.442798	0.057604
C49	C	1.573913	-1.062849	-0.442423
C50	C	2.073913	-0.562849	0.057577
C51	C	1.782834	-0.503377	-0.506190
C52	C	2.282834	-0.003377	-0.006190
C53	C	1.898987	-0.503386	-0.506198
C54	C	2.398987	-0.003386	-0.006198
C55	C	1.510337	-0.503250	-0.780203
C56	C	2.010337	-0.003250	-0.280203
C57	C	1.510368	-0.503205	-0.896980
C58	C	2.010368	-0.003205	-0.396980
C59	C	1.510358	-0.230786	-0.506211
C60	C	2.010358	0.269214	-0.006211
C61	C	1.510398	-0.114632	-0.506229
C62	C	2.010398	0.385368	-0.006229
C63	C	1.577238	-0.436367	-0.951859
C64	C	2.077238	0.063633	-0.451859
C65	C	1.577263	-0.436329	-1.061583
C66	C	2.077263	0.063671	-0.561583
C67	C	1.443545	-0.569978	-1.061540
C68	C	1.943545	-0.069978	-0.561540
C69	C	1.443516	-0.570009	-0.951818
C70	C	1.943516	-0.070009	-0.451818
C71	C	1.654442	-0.359209	-0.951885
C72	C	2.154442	0.140791	-0.451885
C73	C	1.654467	-0.359171	-1.061609
C74	C	2.154467	0.140829	-0.561609
C75	C	1.510251	-0.503385	-0.233202
C76	C	2.010251	-0.003385	0.266798
C77	C	1.510422	-0.503136	-0.116426
C78	C	2.010422	-0.003136	0.383574
H79	H	0.906302	-0.385643	-0.624918
H80	H	1.406302	0.114357	-0.124918
H81	H	1.455962	-1.070111	-0.560835
H82	H	1.955962	-0.570111	-0.060835
F83	F	1.616501	-0.258709	-1.106116
F84	F	2.116501	0.241291	-0.606116
H85	H	1.455894	-0.935565	-0.560809
H86	H	1.955894	-0.435565	-0.060809
H87	H	1.389060	-0.624432	-0.907140
H88	H	1.889060	-0.124432	-0.407140
H89	H	0.943496	-0.557694	-0.451440
H90	H	1.443496	-0.057694	0.048560
F91	F	1.645054	-1.121048	-0.371040
F92	F	2.145054	-0.621048	0.128960
H93	H	1.389114	-0.624365	-1.106202
H94	H	1.889114	-0.124365	-0.606202
F95	F	1.760256	-0.387491	-1.100539
F96	F	2.260256	0.112509	-0.600539
F97	F	1.626142	-0.253430	-0.912984
F98	F	2.126142	0.246570	-0.412984
F99	F	1.754902	-0.397126	-0.907394
F100	F	2.254902	0.102874	-0.407394
F101	F	1.064359	-0.574348	-0.434592
F102	F	1.564359	-0.074348	0.065408
F103	F	1.129109	-0.368919	-0.641697
F104	F	1.629109	0.131081	-0.141697
H105	H	1.628223	-0.898255	-0.387773
H106	H	2.128223	-0.398255	0.112227
