data_functionalizedCrystal
_audit_creation_method	'MofGen! by Chris Wilmer'
_symmetry_space_group_name_H-M	'P1'
_symmetry_Int_Tables_number	1
_symmetry_cell_setting	triclinic
loop_
_symmetry_equiv_pos_as_xyz
  x,y,z
_cell_length_a	16.625547
_cell_length_b	29.839132
_cell_length_c	16.625539
_cell_angle_alpha	89.965692
_cell_angle_beta	90.024822
_cell_angle_gamma	89.954800
loop_
_atom_site_label
_atom_site_type_symbol
_atom_site_fract_x
_atom_site_fract_y
_atom_site_fract_z
Zn1	Zn	1.232553	0.178853	0.455967
Zn2	Zn	1.232402	0.253984	0.321120
Zn3	Zn	1.097715	0.178869	0.321138
Zn4	Zn	1.097631	0.253957	0.455900
O5	O	1.165075	0.216416	0.388531
O6	O	1.345365	0.188824	0.438100
O7	O	1.214508	0.244038	0.208290
O8	O	1.115699	0.116000	0.339058
O9	O	1.345255	0.244023	0.339029
O10	O	1.214764	0.115988	0.438117
O11	O	1.115553	0.188851	0.208303
O12	O	0.984871	0.188825	0.338993
O13	O	1.115557	0.243976	0.568741
O14	O	0.984810	0.243991	0.438003
O15	O	1.214683	0.188798	0.568791
O16	O	1.214427	0.316848	0.338964
O17	O	1.115411	0.316828	0.437986
C18	C	0.955584	0.216407	0.388493
C19	C	0.865963	0.216414	0.388496
C20	C	0.793181	0.216415	0.388506
C21	C	0.701872	0.216417	0.388526
C22	C	0.629096	0.216422	0.388547
C23	C	0.537782	0.216425	0.388566
C24	C	1.164916	0.333138	0.388483
C25	C	1.164921	0.383073	0.388490
C26	C	1.216669	0.692714	0.337013
C27	C	1.216746	0.880387	0.337031
O28	O	1.260657	0.904650	0.293249
N29	N	1.165160	0.903858	0.388544
C30	C	1.113554	0.880408	0.440061
O31	O	1.069684	0.904677	0.483882
C32	C	1.113482	0.692735	0.440046
C33	C	1.165066	0.669267	0.388523
C34	C	1.268250	0.669246	0.285495
C35	C	1.268227	0.622330	0.285488
C36	C	1.216623	0.598883	0.336998
C37	C	1.165043	0.622352	0.388516
C38	C	1.061881	0.669286	0.491566
C39	C	1.061869	0.622365	0.491559
C40	C	1.113453	0.598897	0.440036
C41	C	1.113417	0.551989	0.440020
N42	N	1.165003	0.528518	0.388506
C43	C	1.216607	0.551965	0.336996
C44	C	1.113595	0.978938	0.440064
C45	C	1.113612	1.025856	0.440066
C46	C	1.216805	1.025832	0.337038
C47	C	1.216783	0.978914	0.337031
C48	C	1.165181	0.955467	0.388550
C49	C	1.216554	0.453439	0.336984
C50	C	1.216524	0.406520	0.336979
C51	C	1.113335	0.406548	0.440010
C52	C	1.113361	0.453463	0.440013
C53	C	1.164977	0.476908	0.388497
O54	O	1.069535	0.527697	0.483785
O55	O	1.260482	0.527688	0.293193
C56	C	1.216692	0.739629	0.337020
C57	C	1.165112	0.763098	0.388538
C58	C	1.113508	0.739651	0.440048
C59	C	1.165128	0.810016	0.388540
C60	C	1.216732	0.833463	0.337030
C61	C	1.268318	0.809992	0.285517
C62	C	1.268295	0.763076	0.285509
C63	C	1.061922	0.763122	0.491561
C64	C	1.061948	0.810037	0.491564
C65	C	1.113552	0.833484	0.440053
C66	C	1.375384	0.216425	0.388570
C67	C	1.465005	0.216429	0.388586
C68	C	1.165227	1.099237	0.388580
C69	C	1.165215	1.049303	0.388556
C70	C	1.165128	0.216382	0.598840
C71	C	1.165150	0.216368	0.688461
C72	C	1.165069	0.216417	0.179040
C73	C	1.165203	0.216304	0.089420
C74	C	1.165187	0.216318	1.016637
C75	C	1.165175	0.216333	0.925329
C76	C	1.165169	0.216343	0.852552
C77	C	1.165156	0.216358	0.761238
H78	H	1.258530	0.387413	0.295020
H79	H	1.071317	0.387450	0.481947
O80	O	1.323942	0.737770	0.229944
H81	H	1.364934	0.716357	0.266072
H82	H	1.258587	0.472523	0.295037
H83	H	1.310333	0.829091	0.243572
O84	O	1.057713	0.478782	0.495565
H85	H	1.093785	0.500123	0.536626
H86	H	1.310233	0.603225	0.243536
H87	H	1.019935	0.829141	0.533519
O88	O	1.006246	0.694588	0.547145
H89	H	0.965238	0.715999	0.511030
O90	O	1.057920	0.953659	0.495629
H91	H	1.093962	0.932251	0.536704
H92	H	1.019901	0.744035	0.533509
H93	H	1.258788	0.959808	0.295078
O94	O	1.323906	0.694532	0.229927
H95	H	1.359760	0.670323	0.194105
H96	H	1.071599	1.044960	0.482014
O97	O	1.272480	1.051125	0.281492
H98	H	1.263828	1.087692	0.290164
O99	O	1.006201	0.597075	0.547116
H100	H	0.970332	0.621280	0.582932
