data_functionalizedCrystal
_audit_creation_method	'MofGen! by Chris Wilmer'
_symmetry_space_group_name_H-M	'P1'
_symmetry_Int_Tables_number	1
_symmetry_cell_setting	triclinic
loop_
_symmetry_equiv_pos_as_xyz
  x,y,z
_cell_length_a	17.639617
_cell_length_b	21.295417
_cell_length_c	17.640968
_cell_angle_alpha	78.765192
_cell_angle_beta	70.333968
_cell_angle_gamma	101.214475
loop_
_atom_site_label
_atom_site_type_symbol
_atom_site_fract_x
_atom_site_fract_y
_atom_site_fract_z
Zn1	Zn	1.354405	0.083269	-0.721260
Zn2	Zn	1.326406	-0.048705	-0.583391
Zn3	Zn	1.188682	0.029917	-0.555521
Zn4	Zn	1.216496	-0.048644	-0.693274
O5	O	1.271497	0.003959	-0.638362
O6	O	1.466044	0.088064	-0.726348
O7	O	1.284779	-0.060629	-0.464345
O8	O	1.210743	0.125104	-0.577555
O9	O	1.445474	-0.008896	-0.625056
O10	O	1.332498	0.164301	-0.699323
O11	O	1.183594	-0.002865	-0.443869
O12	O	1.077018	-0.002806	-0.550418
O13	O	1.258147	-0.008792	-0.812335
O14	O	1.097453	-0.060524	-0.651625
O15	O	1.359468	0.088124	-0.832897
O16	O	1.311749	-0.136806	-0.597919
O17	O	1.230998	-0.136761	-0.678649
C18	C	1.057326	-0.037448	-0.594960
C19	C	0.965706	-0.055174	-0.576413
C20	C	1.271380	-0.159622	-0.638294
C21	C	1.271411	-0.229583	-0.638308
C22	C	0.717977	0.138673	-0.779471
C23	C	0.631883	0.121998	-0.762026
C24	C	0.610454	0.021137	-0.656399
C25	C	0.696549	0.037802	-0.673838
C26	C	0.750303	0.096571	-0.735374
C27	C	0.728875	-0.004300	-0.629741
C28	C	0.814962	0.012366	-0.647176
C29	C	0.868721	0.071133	-0.708708
C30	C	0.836390	0.113237	-0.752809
C31	C	0.675118	-0.063066	-0.568201
C32	C	0.707445	-0.105168	-0.524104
C33	C	0.793534	-0.088505	-0.541543
C34	C	0.847293	-0.029738	-0.603075
C35	C	0.825865	-0.130609	-0.497442
C36	C	0.911951	-0.113943	-0.514876
C37	C	0.933379	-0.013072	-0.620509
C38	C	1.313515	-0.262433	-0.596335
C39	C	1.313558	-0.328164	-0.596362
C40	C	1.271479	-0.361048	-0.638349
C41	C	1.229373	-0.328189	-0.680331
C42	C	1.229338	-0.262456	-0.680311
N43	N	1.200639	-0.477043	-0.630020
N44	N	1.200673	-0.539487	-0.630035
C45	C	1.271581	-0.559095	-0.638415
N46	N	1.342452	-0.513904	-0.646764
N47	N	1.342417	-0.451456	-0.646744
C48	C	1.271512	-0.432323	-0.638377
C49	C	1.313735	-0.663218	-0.596469
C50	C	1.313780	-0.728950	-0.596502
C51	C	1.229587	-0.728975	-0.680465
C52	C	1.229550	-0.663243	-0.680439
C53	C	1.271622	-0.630370	-0.638436
C54	C	1.486505	0.045528	-0.681933
C55	C	1.578129	0.063243	-0.700500
C56	C	1.315033	0.045624	-0.853361
C57	C	1.333586	0.063379	-0.944981
C58	C	1.271641	0.168187	-0.638452
C59	C	1.271702	0.238172	-0.638491
C60	C	1.130872	-0.130520	-1.192787
C61	C	1.148322	-0.113825	-1.278882
C62	C	1.253819	-0.012915	-1.300280
C63	C	1.236375	-0.029600	-1.214185
C64	C	1.174901	-0.088404	-1.160445
C65	C	1.280404	0.012516	-1.181843
C66	C	1.262963	-0.004169	-1.095757
C67	C	1.201494	-0.062971	-1.042012
C68	C	1.157461	-0.105089	-1.074359
C69	C	1.341881	0.071317	-1.235586
C70	C	1.385910	0.113433	-1.203244
C71	C	1.368466	0.096750	-1.117155
C72	C	1.306997	0.037948	-1.063410
C73	C	1.412500	0.138868	-1.084808
C74	C	1.395059	0.122183	-0.998721
C75	C	1.289557	0.021263	-0.977323
C76	C	1.228178	-0.037489	-0.424208
C77	C	1.209785	-0.055035	-0.332621
H78	H	0.977151	0.034782	-0.670621
Cl79	Cl	1.366624	-0.621889	-0.543666
H80	H	1.348073	-0.755693	-0.562325
H81	H	1.195330	-0.755747	-0.714657
Cl82	Cl	0.976945	0.092090	-0.730621
Cl83	Cl	0.785562	0.212552	-0.856839
H84	H	1.080794	-0.178392	-1.149025
Cl85	Cl	1.179572	-0.083951	-0.933787
H86	H	1.112464	-0.148126	-1.305210
Cl87	Cl	1.080171	-0.179011	-1.006792
H88	H	1.195260	-0.636496	-0.714613
H89	H	1.239479	-0.026609	-0.933560
H90	H	1.303873	0.034961	-1.344047
H91	H	1.356081	0.084899	-1.305683
H92	H	1.435964	0.161310	-1.247010
H93	H	1.195051	-0.235709	-0.714491
Cl94	Cl	1.489786	0.212784	-1.152377
Cl95	Cl	1.450413	0.175128	-0.958059
Cl96	Cl	1.366492	-0.369470	-0.543590
Cl97	Cl	0.758277	-0.204482	-0.420076
Cl98	Cl	0.591246	0.174936	-0.817465
Cl99	Cl	0.903975	0.187116	-0.830177
H100	H	0.566675	-0.026711	-0.606293
Cl101	Cl	0.952596	-0.166876	-0.459448
H102	H	0.605018	-0.076623	-0.553989
H103	H	0.663666	-0.153017	-0.473999
H104	H	1.347775	-0.235668	-0.562137
H105	H	1.195114	-0.354966	-0.714520
