data_functionalizedCrystal
_audit_creation_method	'MofGen! by Chris Wilmer'
_symmetry_space_group_name_H-M	'P1'
_symmetry_Int_Tables_number	1
_symmetry_cell_setting	triclinic
loop_
_symmetry_equiv_pos_as_xyz
  x,y,z
_cell_length_a	10.489741
_cell_length_b	15.944551
_cell_length_c	8.965430
_cell_angle_alpha	89.999468
_cell_angle_beta	89.998843
_cell_angle_gamma	84.018956
loop_
_atom_site_label
_atom_site_type_symbol
_atom_site_fract_x
_atom_site_fract_y
_atom_site_fract_z
O1	O	1.692411	0.118500	-0.123951
O2	O	1.321061	0.129624	-0.123974
O3	O	1.516876	0.001848	-0.123948
O4	O	1.496595	0.246276	-0.123977
O5	O	1.516860	0.001857	0.124130
O6	O	1.321044	0.129633	0.124105
O7	O	1.692394	0.118509	0.124128
Cu8	Cu	1.506718	0.124071	0.146768
Cu9	Cu	1.506737	0.124061	-0.146614
O10	O	1.496578	0.246285	0.124102
C11	C	1.273532	0.128788	0.000062
C12	C	1.131938	0.126275	0.000054
C13	C	1.064925	0.044975	0.000077
C14	C	0.972274	0.083376	-0.122240
C15	C	0.972291	0.083403	0.122346
C16	C	1.041152	0.164709	-0.122364
C17	C	1.041179	0.164726	0.122332
C18	C	0.948554	0.203186	-0.000015
C19	C	1.516026	-0.029446	0.000091
C20	C	1.513502	-0.122708	0.000092
C21	C	1.386093	-0.338330	0.000063
C22	C	1.445249	-0.398988	0.122385
C23	C	1.508935	-0.293461	0.000080
C24	C	1.445294	-0.398979	-0.122201
C25	C	1.504515	-0.458400	0.000062
C26	C	1.568126	-0.352890	0.122503
C27	C	1.568154	-0.352875	-0.122193
C28	C	1.627399	-0.413515	0.000158
C29	C	1.511478	-0.198443	0.000092
C30	C	1.501982	-0.553417	0.000061
C31	C	1.739922	0.119345	0.000088
C32	C	1.881517	0.121858	0.000087
C33	C	1.497429	0.277579	0.000059
C34	C	1.499953	0.370841	0.000049
N35	N	1.506713	0.124078	0.353117
N36	N	1.506752	0.124048	-0.352963
C37	C	1.416127	0.183150	0.450411
C38	C	1.531388	0.200146	0.549830
C39	C	1.391501	0.107089	0.549826
C40	C	1.622032	0.141112	0.450347
C41	C	1.482069	0.048022	0.450334
C42	C	1.597413	0.064986	0.549708
H43	H	0.941743	0.048972	-0.225644
H44	H	1.461162	-0.016264	0.406597
O45	O	1.383315	-0.423180	-0.245685
C46	C	1.270828	-0.379084	-0.471334
C47	C	1.341024	-0.351568	-0.331580
H48	H	1.236592	-0.321198	-0.540803
H49	H	1.339000	-0.423841	-0.540578
H50	H	1.184837	-0.412587	-0.436019
H51	H	1.427012	-0.318029	-0.366762
H52	H	1.272766	-0.306850	-0.262370
O53	O	1.630109	-0.328343	-0.245444
C54	C	1.702735	-0.212434	-0.382835
C55	C	1.632585	-0.240107	-0.243158
H56	H	1.704736	-0.141092	-0.381050
H57	H	1.805072	-0.244514	-0.383910
H58	H	1.650244	-0.231213	-0.487018
H59	H	1.684969	-0.221333	-0.138901
H60	H	1.530244	-0.208033	-0.242216
H61	H	0.898203	0.270090	-0.000090
O62	O	1.689012	0.005359	0.601158
C63	C	1.857293	-0.103419	0.538027
C64	C	1.753623	-0.035915	0.479556
H65	H	1.909542	-0.136821	0.439741
H66	H	1.928721	-0.072122	0.609562
H67	H	1.810294	-0.151333	0.608082
H68	H	1.800511	0.012019	0.409437
H69	H	1.682206	-0.067272	0.408102
O70	O	1.275142	0.090055	0.601774
C71	C	1.048150	0.133144	0.610299
C72	C	1.179843	0.152515	0.551350
H73	H	0.971069	0.183641	0.569581
H74	H	1.026280	0.068828	0.567619
H75	H	1.049625	0.132648	0.737443
H76	H	1.178466	0.153056	0.424211
H77	H	1.201662	0.216817	0.594144
O78	O	1.077690	0.205858	0.245537
C79	C	1.178897	0.323596	0.341480
C80	C	1.137584	0.277117	0.201813
H81	H	1.227354	0.381208	0.306179
H82	H	1.091023	0.344528	0.412266
H83	H	1.248984	0.279417	0.409406
H84	H	1.067527	0.321247	0.133771
H85	H	1.225520	0.256171	0.131138
O86	O	0.936065	0.042245	0.245673
C87	C	0.954619	-0.087708	0.384960
C88	C	0.995768	-0.041182	0.245263
H89	H	1.002849	-0.155172	0.384659
H90	H	0.984358	-0.053763	0.489250
H91	H	0.846099	-0.088644	0.384340
H92	H	1.104283	-0.040233	0.245738
H93	H	0.965935	-0.075143	0.141036
H94	H	1.284128	-0.305636	0.000179
H95	H	1.393285	-0.419405	0.225792
O96	O	1.077493	0.205789	-0.245724
C97	C	1.179298	0.323185	-0.342052
C98	C	1.138235	0.276738	-0.202226
H99	H	1.228392	0.380567	-0.306934
H100	H	1.248686	0.278906	-0.410679
H101	H	1.091120	0.344498	-0.412073
H102	H	1.226336	0.255421	-0.132090
H103	H	1.068803	0.321048	-0.133711
O104	O	1.630171	-0.328582	0.245859
C105	C	1.807505	-0.260470	0.342179
C106	C	1.737354	-0.287937	0.202356
H107	H	1.894192	-0.227618	0.307057
H108	H	1.739630	-0.215182	0.410801
H109	H	1.840673	-0.318338	0.412206
H110	H	1.704180	-0.230119	0.132214
H111	H	1.805274	-0.333253	0.133846
O112	O	1.749217	-0.452228	0.000045
C113	C	1.952237	-0.471647	-0.127756
C114	C	1.814319	-0.427747	-0.127804
H115	H	2.004904	-0.451885	-0.231127
H116	H	2.004425	-0.452683	-0.023477
H117	H	1.949454	-0.542930	-0.128672
H118	H	1.816984	-0.356457	-0.126942
H119	H	1.762186	-0.446780	-0.232075
H120	H	1.339592	0.233152	0.406812
O121	O	1.738320	0.158467	0.398670
C122	C	1.896047	0.257992	0.391840
C123	C	1.764349	0.238423	0.450470
H124	H	1.917121	0.322643	0.433671
H125	H	1.973382	0.207979	0.433650
H126	H	1.895095	0.257860	0.264688
H127	H	1.765175	0.238568	0.577618
H128	H	1.687071	0.288439	0.408546
O129	O	1.556073	0.276918	0.601911
C130	C	1.488552	0.425996	0.610333
C131	C	1.460441	0.339101	0.551290
H132	H	1.411265	0.476296	0.569404
H133	H	1.489194	0.425110	0.737481
H134	H	1.586075	0.440915	0.567738
H135	H	1.362915	0.324127	0.593774
H136	H	1.459882	0.340030	0.424143
H137	H	1.115541	-0.021859	-0.000068
