data_functionalizedCrystal
_audit_creation_method	'MofGen! by Chris Wilmer'
_symmetry_space_group_name_H-M	'P1'
_symmetry_Int_Tables_number	1
_symmetry_cell_setting	triclinic
loop_
_symmetry_equiv_pos_as_xyz
  x,y,z
_cell_length_a	17.699104
_cell_length_b	12.503572
_cell_length_c	17.699083
_cell_angle_alpha	93.515225
_cell_angle_beta	83.287266
_cell_angle_gamma	86.486892
loop_
_atom_site_label
_atom_site_type_symbol
_atom_site_fract_x
_atom_site_fract_y
_atom_site_fract_z
O1	O	-1.008441	0.089365	-0.091398
O2	O	-0.758441	0.339365	0.158602
O3	O	-0.508441	0.589365	0.408602
O4	O	-0.258441	0.839365	0.658602
O5	O	-0.788064	0.089358	-0.103834
O6	O	-0.538064	0.339358	0.146166
O7	O	-0.288064	0.589358	0.396166
O8	O	-0.038064	0.839358	0.646166
O9	O	-0.904478	0.089353	0.012572
O10	O	-0.654478	0.339353	0.262572
O11	O	-0.404478	0.589353	0.512572
O12	O	-0.154478	0.839353	0.762572
O13	O	-0.892027	0.089371	-0.207804
O14	O	-0.642027	0.339371	0.042196
O15	O	-0.392027	0.589371	0.292196
O16	O	-0.142027	0.839371	0.542196
O17	O	-0.895723	-0.089289	0.003803
O18	O	-0.645723	0.160711	0.253803
O19	O	-0.395723	0.410711	0.503803
O20	O	-0.145723	0.660711	0.753803
O21	O	-0.779309	-0.089283	-0.112603
O22	O	-0.529309	0.160717	0.137397
O23	O	-0.279309	0.410717	0.387397
O24	O	-0.029309	0.660717	0.637397
O25	O	-0.999685	-0.089276	-0.100167
O26	O	-0.749685	0.160724	0.149833
O27	O	-0.499685	0.410724	0.399833
O28	O	-0.249685	0.660724	0.649833
Cu29	Cu	-0.888698	-0.105591	-0.107186
Cu30	Cu	-0.638698	0.144409	0.142814
Cu31	Cu	-0.388698	0.394409	0.392814
Cu32	Cu	-0.138698	0.644409	0.642814
Cu33	Cu	-0.899052	0.105673	-0.096815
Cu34	Cu	-0.649052	0.355673	0.153185
Cu35	Cu	-0.399052	0.605673	0.403185
Cu36	Cu	-0.149052	0.855673	0.653185
O37	O	-0.883272	-0.089270	-0.216573
O38	O	-0.633272	0.160730	0.033427
O39	O	-0.383272	0.410730	0.283427
O40	O	-0.133272	0.660730	0.533427
C41	C	-0.755490	0.000037	-0.107770
C42	C	-0.505490	0.250037	0.142230
C43	C	-0.255490	0.500037	0.392230
C44	C	-0.005490	0.750037	0.642230
C45	C	-0.671472	0.000034	-0.106426
C46	C	-0.421472	0.250034	0.143574
C47	C	-0.171472	0.500034	0.393574
C48	C	0.078528	0.750034	0.643574
C49	C	-0.146602	0.000039	-0.167169
C50	C	0.103398	0.250039	0.082831
C51	C	0.353398	0.500039	0.332831
C52	C	0.603398	0.750039	0.582831
C53	C	-0.225546	0.000044	-0.168428
C54	C	0.024454	0.250044	0.081572
C55	C	0.274454	0.500044	0.331572
C56	C	0.524454	0.750044	0.581572
C57	C	-0.274163	0.000039	-0.100093
C58	C	-0.024163	0.250039	0.149907
C59	C	0.225837	0.500039	0.399907
C60	C	0.475837	0.750039	0.649907
C61	C	-0.243833	0.000040	-0.030494
C62	C	0.006167	0.250040	0.219506
C63	C	0.256167	0.500040	0.469506
C64	C	0.506167	0.750040	0.719506
C65	C	-0.164891	0.000043	-0.029236
C66	C	0.085109	0.250043	0.220764
C67	C	0.335109	0.500043	0.470764
C68	C	0.585109	0.750043	0.720764
C69	C	-0.562199	0.000030	-0.035568
C70	C	-0.312199	0.250030	0.214432
C71	C	-0.062199	0.500030	0.464432
C72	C	0.187801	0.750030	0.714432
C73	C	-0.641146	0.000024	-0.036832
C74	C	-0.391146	0.250024	0.213168
C75	C	-0.141146	0.500024	0.463168
C76	C	0.108854	0.750024	0.713168
C77	C	-0.622853	0.000031	-0.174760
C78	C	-0.372853	0.250031	0.075240
C79	C	-0.122853	0.500031	0.325240
C80	C	0.127147	0.750031	0.575240
C81	C	-0.543911	0.000034	-0.173502
C82	C	-0.293911	0.250034	0.076498
C83	C	-0.043911	0.500034	0.326498
C84	C	0.206089	0.750034	0.576498
C85	C	-0.513589	0.000041	-0.103903
C86	C	-0.263589	0.250041	0.146097
C87	C	-0.013589	0.500041	0.396097
C88	C	0.236411	0.750041	0.646097
C89	C	-0.427989	0.000038	-0.102539
C90	C	-0.177989	0.250038	0.147461
C91	C	0.072011	0.500038	0.397461
C92	C	0.322011	0.750038	0.647461
C93	C	-0.359761	0.000035	-0.101457
C94	C	-0.109761	0.250035	0.148543
C95	C	0.140239	0.500035	0.398543
C96	C	0.390239	0.750035	0.648543
N97	N	-0.881421	-0.254183	-0.114479
N98	N	-0.631421	-0.004183	0.135521
N99	N	-0.381421	0.245817	0.385521
N100	N	-0.131421	0.495817	0.635521
C101	C	-0.870716	-0.473298	-0.125214
C102	C	-0.620716	-0.223298	0.124786
C103	C	-0.370716	0.026702	0.374786
C104	C	-0.120716	0.276702	0.624786
C105	C	-0.917037	-0.526627	-0.078783
C106	C	-0.667037	-0.276627	0.171217
C107	C	-0.417037	-0.026627	0.421217
C108	C	-0.167037	0.223373	0.671217
C109	C	-0.911080	-0.648550	-0.084756
C110	C	-0.661080	-0.398550	0.165244
C111	C	-0.411080	-0.148550	0.415244
C112	C	-0.161080	0.101450	0.665244
C113	C	-0.876672	-0.351364	-0.119242
C114	C	-0.626672	-0.101364	0.130758
C115	C	-0.376672	0.148636	0.380758
C116	C	-0.126672	0.398636	0.630758
C117	C	-0.032260	0.000043	-0.096231
C118	C	0.217740	0.250043	0.153769
C119	C	0.467740	0.500043	0.403769
C120	C	0.717740	0.750043	0.653769
C121	C	-0.116277	0.000037	-0.097576
C122	C	0.133723	0.250037	0.152424
C123	C	0.383723	0.500037	0.402424
C124	C	0.633723	0.750037	0.652424
C125	C	-0.899654	0.000032	0.036385
C126	C	-0.649654	0.250032	0.286385
C127	C	-0.399654	0.500032	0.536385
C128	C	-0.149654	0.750032	0.786385
C129	C	-0.898316	0.000031	0.120403
C130	C	-0.648316	0.250031	0.370403
C131	C	-0.398316	0.500031	0.620403
C132	C	-0.148316	0.750031	0.870403
N133	N	-0.906335	0.254265	-0.089516
N134	N	-0.656335	0.504265	0.160484
N135	N	-0.406335	0.754265	0.410484
N136	N	-0.156335	1.004265	0.660484
C137	C	-0.888095	0.000053	-0.240386
C138	C	-0.638095	0.250053	0.009614
C139	C	-0.388095	0.500053	0.259614
C140	C	-0.138095	0.750053	0.509614
C141	C	-0.889434	0.000060	-0.324403
C142	C	-0.639434	0.250060	-0.074403
C143	C	-0.389434	0.500060	0.175597
C144	C	-0.139434	0.750060	0.425597
C145	C	-0.966648	0.000032	0.169019
C146	C	-0.716648	0.250032	0.419019
C147	C	-0.466648	0.500032	0.669019
C148	C	-0.216648	0.750032	0.919019
C149	C	-0.965387	0.000041	0.247963
C150	C	-0.715387	0.250041	0.497963
C151	C	-0.465387	0.500041	0.747963
C152	C	-0.215387	0.750041	0.997963
C153	C	-0.895791	0.000042	0.278289
C154	C	-0.645791	0.250042	0.528289
C155	C	-0.395791	0.500042	0.778289
C156	C	-0.145791	0.750042	1.028289
C157	C	-0.827453	0.000045	0.229667
C158	C	-0.577453	0.250045	0.479667
C159	C	-0.327453	0.500045	0.729667
C160	C	-0.077453	0.750045	0.979667
C161	C	-0.828716	0.000043	0.150725
C162	C	-0.578716	0.250043	0.400725
C163	C	-0.328716	0.500043	0.650725
C164	C	-0.078716	0.750043	0.900725
C165	C	-0.822358	0.000054	0.548031
C166	C	-0.572358	0.250054	0.798031
C167	C	-0.322358	0.500054	1.048031
C168	C	-0.072358	0.750054	1.298031
C169	C	-0.821100	0.000052	0.626979
C170	C	-0.571100	0.250052	0.876979
C171	C	-0.321100	0.500052	1.126979
C172	C	-0.071100	0.750052	1.376979
C173	C	-0.959029	0.000052	0.645269
C174	C	-0.709029	0.250052	0.895269
C175	C	-0.459029	0.500052	1.145269
C176	C	-0.209029	0.750052	1.395269
C177	C	-0.960292	0.000050	0.566327
C178	C	-0.710292	0.250050	0.816327
C179	C	-0.460292	0.500050	1.066327
C180	C	-0.210292	0.750050	1.316327
C181	C	-0.891955	0.000058	0.517712
C182	C	-0.641955	0.250058	0.767712
C183	C	-0.391955	0.500058	1.017712
C184	C	-0.141955	0.750058	1.267712
C185	C	-0.893324	0.000050	0.432112
C186	C	-0.643324	0.250050	0.682112
C187	C	-0.393324	0.500050	0.932112
C188	C	-0.143324	0.750050	1.182112
C189	C	-0.894421	0.000043	0.363887
C190	C	-0.644421	0.250043	0.613887
C191	C	-0.394421	0.500043	0.863887
C192	C	-0.144421	0.750043	1.113887
H193	H	-0.250232	0.000056	-0.225097
H194	H	-0.000232	0.250056	0.024903
H195	H	0.249768	0.500056	0.274903
H196	H	0.499768	0.750056	0.524903
F197	F	-0.749628	0.000065	0.496301
F198	F	-0.499628	0.250065	0.746301
F199	F	-0.249628	0.500065	0.996301
F200	F	0.000372	0.750065	1.246301
F201	F	-0.974943	-0.466623	-0.021188
F202	F	-0.724943	-0.216623	0.228812
F203	F	-0.474943	0.033377	0.478812
F204	F	-0.224943	0.283377	0.728812
H205	H	-0.770787	0.000053	0.254365
H206	H	-0.520787	0.250053	0.504365
H207	H	-0.270787	0.500053	0.754365
H208	H	-0.020787	0.750053	1.004365
H209	H	-0.764424	0.000051	0.651666
H210	H	-0.514424	0.250051	0.901666
H211	H	-0.264424	0.500051	1.151666
H212	H	-0.014424	0.750051	1.401666
F213	F	-1.040722	0.000020	0.136751
F214	F	-0.790722	0.250020	0.386751
F215	F	-0.540722	0.500020	0.636751
F216	F	-0.290722	0.750020	0.886751
F217	F	-1.031760	0.000047	0.697015
F218	F	-0.781760	0.250047	0.947015
F219	F	-0.531760	0.500047	1.197015
F220	F	-0.281760	0.750047	1.447015
F221	F	-0.132618	0.000041	0.044835
F222	F	0.117382	0.250041	0.294835
F223	F	0.367382	0.500041	0.544835
F224	F	0.617382	0.750041	0.794835
H225	H	-0.826591	-0.519203	-0.169449
H226	H	-0.576591	-0.269203	0.080551
H227	H	-0.326591	-0.019203	0.330551
H228	H	-0.076591	0.230797	0.580551
H229	H	-0.537520	0.000032	0.021103
H230	H	-0.287520	0.250032	0.271103
H231	H	-0.037520	0.500032	0.521103
H232	H	0.212480	0.750032	0.771103
H233	H	-0.504330	0.000033	-0.229147
H234	H	-0.254330	0.250033	0.020853
H235	H	-0.004330	0.500033	0.270853
H236	H	0.245670	0.750033	0.520853
H237	H	-0.773072	0.000043	0.111142
H238	H	-0.523072	0.250043	0.361142
H239	H	-0.273072	0.500043	0.611142
H240	H	-0.023072	0.750043	0.861142
H241	H	-1.021030	0.000039	0.287543
H242	H	-0.771030	0.250039	0.537543
H243	H	-0.521030	0.500039	0.787543
H244	H	-0.271030	0.750039	1.037543
F245	F	-1.034365	0.000050	0.534056
F246	F	-0.784365	0.250050	0.784056
F247	F	-0.534365	0.500050	1.034056
F248	F	-0.284365	0.750050	1.284056
H249	H	-0.107022	0.000035	-0.222816
H250	H	0.142978	0.250035	0.027184
H251	H	0.392978	0.500035	0.277184
H252	H	0.642978	0.750035	0.527184
H253	H	-0.647551	0.000030	-0.231431
H254	H	-0.397551	0.250030	0.018569
H255	H	-0.147551	0.500030	0.268569
H256	H	0.102449	0.750030	0.518569
F257	F	-0.295578	0.000038	0.042233
F258	F	-0.045578	0.250038	0.292233
F259	F	0.204422	0.500038	0.542233
F260	F	0.454422	0.750038	0.792233
F261	F	-0.692887	0.000020	0.035903
F262	F	-0.442887	0.250020	0.285903
F263	F	-0.192887	0.500020	0.535903
F264	F	0.057113	0.750020	0.785903
