data_functionalizedCrystal
_audit_creation_method	'MofGen! by Chris Wilmer'
_symmetry_space_group_name_H-M	'P1'
_symmetry_Int_Tables_number	1
_symmetry_cell_setting	triclinic
loop_
_symmetry_equiv_pos_as_xyz
  x,y,z
_cell_length_a	10.654550
_cell_length_b	10.268362
_cell_length_c	10.654551
_cell_angle_alpha	90.002449
_cell_angle_beta	84.485132
_cell_angle_gamma	90.008099
loop_
_atom_site_label
_atom_site_type_symbol
_atom_site_fract_x
_atom_site_fract_y
_atom_site_fract_z
O1	O	1.667842	0.108399	0.176400
O2	O	1.302364	0.108377	0.193206
O3	O	1.493505	0.108389	0.002063
O4	O	1.476700	0.108386	0.367542
O5	O	1.493488	-0.108212	0.002055
O6	O	1.302347	-0.108224	0.193198
O7	O	1.667825	-0.108202	0.176391
Cu8	Cu	1.485084	-0.127990	0.184794
Cu9	Cu	1.485104	0.128165	0.184803
O10	O	1.476684	-0.108214	0.367534
C11	C	1.255557	0.000074	0.191968
C12	C	1.116114	0.000066	0.188276
N13	N	1.485080	-0.308156	0.184786
C14	C	1.036629	0.000084	0.300817
C15	C	0.905608	0.000107	0.297341
C16	C	0.933570	0.000098	0.068771
C17	C	1.064589	0.000066	0.072249
C18	C	1.088154	0.000084	0.416844
C19	C	1.008667	0.000103	0.529395
C20	C	0.877647	0.000126	0.525918
C21	C	0.826112	0.000129	0.409891
C22	C	1.485098	-0.573827	0.184801
C23	C	1.485084	-0.425989	0.184796
C24	C	1.714632	0.000104	0.177629
C25	C	1.854075	0.000120	0.181321
C26	C	1.492263	0.000091	-0.044739
C27	C	1.488570	0.000100	-0.184182
N28	N	1.485119	0.308331	0.184801
C29	C	1.486847	0.118167	-0.249689
C30	C	1.483367	0.118160	-0.380710
C31	C	1.483338	-0.117990	-0.380704
C32	C	1.486809	-0.117982	-0.249685
C33	C	1.488608	0.236248	-0.184186
C34	C	1.486886	0.354325	-0.249694
C35	C	1.483406	0.354319	-0.380714
C36	C	1.481647	0.236236	-0.446227
C37	C	1.477926	0.000086	0.414336
C38	C	1.481619	0.000086	0.553779
H39	H	1.050636	0.000090	0.623860
C40	C	1.598458	-0.254984	-0.115513
C41	C	1.488699	-0.247767	-0.177678
H42	H	1.599611	-0.335109	-0.071056
H43	H	1.670203	-0.250086	-0.175560
H44	H	1.599984	-0.184661	-0.057747
H45	H	1.487177	-0.318086	-0.235451
H46	H	1.416935	-0.252678	-0.117624
C47	C	0.714052	-0.111188	0.654618
C48	C	0.790273	0.000143	0.649629
H49	H	0.660119	-0.111173	0.730999
H50	H	0.664615	-0.111172	0.585034
H51	H	0.765733	-0.186723	0.651227
H52	H	0.738592	0.075679	0.653010
H53	H	0.839714	0.000140	0.719232
H54	H	1.194836	0.000071	0.419687
H55	H	0.891600	0.000122	-0.025693
C56	C	1.371732	0.491315	-0.514866
C57	C	1.481505	0.484103	-0.452721
H58	H	1.370562	0.571445	-0.559311
H59	H	1.370199	0.421004	-0.572627
H60	H	1.299989	0.486407	-0.454797
H61	H	1.553248	0.489001	-0.512791
H62	H	1.483050	0.554434	-0.394955
H63	H	1.481907	-0.214127	-0.434055
C64	C	1.492201	0.459193	-0.048850
C65	C	1.488789	0.484116	-0.177684
H66	H	1.493375	0.539325	-0.004399
H67	H	1.419670	0.410670	-0.018451
H68	H	1.565888	0.410699	-0.036327
H69	H	1.415097	0.532602	-0.190208
H70	H	1.561328	0.532659	-0.208093
C71	C	0.630850	0.111511	0.467125
C72	C	0.682092	0.000154	0.406062
H73	H	0.541941	0.111533	0.464752
H74	H	0.650155	0.111493	0.552321
H75	H	0.665689	0.187029	0.425696
H76	H	0.647259	-0.075364	0.447496
H77	H	0.662776	0.000161	0.320850
C78	C	1.385804	0.171974	0.016683
C79	C	1.492427	0.236256	-0.040167
H80	H	1.388169	0.171972	0.105593
H81	H	1.311931	0.215590	-0.004012
H82	H	1.385015	0.084757	-0.012965
H83	H	1.493211	0.323476	-0.010526
H84	H	1.566319	0.192643	-0.019462
H85	H	1.129308	0.000055	-0.019392
H86	H	1.478795	0.236241	-0.552910
