data_functionalizedCrystal
_audit_creation_method	'MofGen! by Chris Wilmer'
_symmetry_space_group_name_H-M	'P1'
_symmetry_Int_Tables_number	1
_symmetry_cell_setting	triclinic
loop_
_symmetry_equiv_pos_as_xyz
  x,y,z
_cell_length_a	11.026660
_cell_length_b	12.503572
_cell_length_c	11.026607
_cell_angle_alpha	85.701682
_cell_angle_beta	108.585426
_cell_angle_gamma	94.293564
loop_
_atom_site_label
_atom_site_type_symbol
_atom_site_fract_x
_atom_site_fract_y
_atom_site_fract_z
O1	O	1.732457	0.089322	0.527838
O2	O	2.232457	0.589322	1.027838
O3	O	1.365880	0.089323	0.467078
O4	O	1.865880	0.589323	0.967078
O5	O	1.518787	0.089318	0.314169
O6	O	2.018787	0.589318	0.814169
O7	O	1.579550	0.089326	0.680747
O8	O	2.079550	0.589326	1.180747
O9	O	1.507293	-0.089323	0.325693
O10	O	2.007293	0.410677	0.825693
O11	O	1.354386	-0.089319	0.478602
O12	O	1.854386	0.410681	0.978602
O13	O	1.720963	-0.089320	0.539362
O14	O	2.220963	0.410680	1.039362
Cu15	Cu	1.536625	-0.105631	0.510034
Cu16	Cu	2.036625	0.394369	1.010034
Cu17	Cu	1.550218	0.105634	0.496406
Cu18	Cu	2.050218	0.605634	0.996406
O19	O	1.568056	-0.089316	0.692271
O20	O	2.068056	0.410684	1.192271
C21	C	1.312474	0.000002	0.461631
C22	C	1.812474	0.500002	0.961631
C23	C	1.170461	0.000002	0.428216
C24	C	1.670461	0.500002	0.928216
C25	C	0.970035	0.000007	0.485957
C26	C	1.470035	0.500007	0.985957
C27	C	1.116813	0.000005	0.520496
C28	C	1.616813	0.500005	1.020496
N29	N	1.527073	-0.254223	0.519621
N30	N	2.027073	0.245777	1.019621
C31	C	1.513025	-0.473338	0.533734
C32	C	2.013025	0.026662	1.033734
C33	C	1.573823	-0.526667	0.472701
C34	C	2.073823	-0.026667	0.972701
C35	C	1.566006	-0.648590	0.480554
C36	C	2.066006	-0.148590	0.980554
C37	C	1.520840	-0.351404	0.525883
C38	C	2.020840	0.148596	1.025883
C39	C	1.774369	0.000003	0.544809
C40	C	2.274369	0.500003	1.044809
C41	C	1.916382	0.000010	0.578224
C42	C	2.416382	0.500010	1.078224
C43	C	1.501830	-0.000001	0.272271
C44	C	2.001830	0.499999	0.772271
C45	C	1.468414	0.000003	0.130257
C46	C	1.968414	0.500003	0.630257
N47	N	1.559778	0.254226	0.486811
N48	N	2.059778	0.754226	0.986811
C49	C	1.560683	0.000004	0.076607
C50	C	2.060683	0.500004	0.576607
C51	C	1.526147	0.000008	-0.070172
C52	C	2.026147	0.500008	0.429828
C53	C	1.585013	0.000006	0.734169
C54	C	2.085013	0.500006	1.234169
C55	C	1.618430	0.000009	0.876182
C56	C	2.118430	0.500009	1.376182
H57	H	0.979112	0.000005	0.682788
H58	H	1.479112	0.500005	1.182788
O59	O	1.699194	0.000009	0.159684
O60	O	2.199194	0.500009	0.659684
H61	H	1.714141	-0.072807	0.225652
H62	H	2.214141	0.427193	0.725652
O63	O	1.436319	-0.534138	0.610776
O64	O	1.936319	-0.034138	1.110776
H65	H	1.442157	-0.621746	0.604944
H66	H	1.942157	-0.121746	1.104944
O67	O	1.199885	-0.000005	0.659016
O68	O	1.699885	0.499995	1.159016
H69	H	1.183906	0.072801	0.702426
H70	H	1.683906	0.572801	1.202426
O71	O	1.650556	-0.465860	0.395681
O72	O	2.150556	0.034140	0.895681
H73	H	1.611099	-0.487365	0.294155
H74	H	2.111099	0.012635	0.794155
H75	H	1.421579	0.000015	-0.132900
H76	H	1.921579	0.500015	0.367100
O77	O	1.329904	-0.000006	0.047174
O78	O	1.829904	0.499994	0.547174
H79	H	1.314961	0.072801	-0.018807
H80	H	1.814961	0.572801	0.481193
O81	O	1.756951	0.000012	-0.040752
O82	O	2.256951	0.500012	0.459248
H83	H	1.771901	-0.072804	0.025215
H84	H	2.271901	0.427196	0.525215
O85	O	0.886960	0.000001	0.347444
O86	O	1.386960	0.500001	0.847444
H87	H	0.784712	0.000007	0.342052
H88	H	1.284712	0.500007	0.842052
H89	H	1.107742	0.000072	0.323640
H90	H	1.607742	0.500072	0.823640
