data_functionalizedCrystal
_audit_creation_method	'MofGen! by Chris Wilmer'
_symmetry_space_group_name_H-M	'P1'
_symmetry_Int_Tables_number	1
_symmetry_cell_setting	triclinic
loop_
_symmetry_equiv_pos_as_xyz
  x,y,z
_cell_length_a	14.519731
_cell_length_b	14.519731
_cell_length_c	9.482900
_cell_angle_alpha	99.351580
_cell_angle_beta	80.692239
_cell_angle_gamma	83.688853
loop_
_atom_site_label
_atom_site_type_symbol
_atom_site_fract_x
_atom_site_fract_y
_atom_site_fract_z
O1	O	1.238214	0.106568	-0.120901
O2	O	1.738214	0.606568	0.379099
O3	O	0.969741	0.120784	-0.120904
O4	O	1.469741	0.620784	0.379096
O5	O	1.111084	-0.020559	-0.120889
O6	O	1.611084	0.479441	0.379111
O7	O	1.096871	0.247911	-0.120916
O8	O	1.596871	0.747911	0.379084
O9	O	1.082374	0.008266	0.120900
O10	O	1.582374	0.508266	0.620900
O11	O	0.941032	0.149609	0.120886
O12	O	1.441032	0.649609	0.620886
O13	O	1.209504	0.135393	0.120888
O14	O	1.709504	0.635393	0.620888
Cu15	Cu	1.072647	0.145133	0.142964
Cu16	Cu	1.572647	0.645133	0.642964
Cu17	Cu	1.106599	0.111044	-0.142980
Cu18	Cu	1.606599	0.611044	0.357020
O19	O	1.068162	0.276736	0.120874
O20	O	1.568162	0.776736	0.620874
C21	C	1.096063	-0.040506	0.000006
C22	C	1.596063	0.459494	0.500006
C23	C	1.094067	-0.142886	0.000007
C24	C	1.594067	0.357114	0.500007
C25	C	0.921027	0.134530	-0.000009
C26	C	1.421027	0.634530	0.499991
C27	C	0.818647	0.132534	-0.000010
C28	C	1.318647	0.632534	0.499990
C29	C	1.092445	-0.226031	0.000003
C30	C	1.592445	0.273969	0.500003
C31	C	1.090420	-0.330341	-0.000008
C32	C	1.590420	0.169659	0.499992
C33	C	1.088813	-0.413482	-0.000017
C34	C	1.588813	0.086518	0.499983
C35	C	1.086788	-0.517798	-0.000025
C36	C	1.586788	-0.017798	0.499975
C37	C	0.735503	0.130911	-0.000015
C38	C	1.235503	0.630911	0.499985
C39	C	0.631194	0.128885	-0.000016
C40	C	1.131194	0.628885	0.499984
C41	C	0.548055	0.127276	-0.000016
C42	C	1.048055	0.627276	0.499984
C43	C	0.443740	0.125250	-0.000019
C44	C	0.943740	0.625250	0.499981
C45	C	1.258219	0.121646	-0.000009
C46	C	1.758219	0.621646	0.499991
C47	C	1.360601	0.123641	-0.000018
C48	C	1.860601	0.623641	0.499982
C49	C	1.083183	0.296682	-0.000024
C50	C	1.583183	0.796682	0.499976
C51	C	1.085180	0.399062	-0.000035
C52	C	1.585180	0.899062	0.499965
N53	N	1.048773	0.169109	0.344082
N54	N	1.548773	0.669109	0.844082
N55	N	1.130480	0.087060	-0.344097
N56	N	1.630480	0.587060	0.155903
C57	C	1.099551	0.118111	0.416287
C58	C	1.599551	0.618111	0.916287
C59	C	1.079694	0.138066	0.583702
C60	C	1.579694	0.638066	1.083702
H61	H	1.021514	0.196502	0.645820
H62	H	1.521514	0.696502	1.145820
Cl63	Cl	1.189161	0.027682	0.320383
Cl64	Cl	1.689161	0.527682	0.820383
Cl65	Cl	1.220500	-0.002969	0.560008
Cl66	Cl	1.720500	0.497031	1.060008
Cl67	Cl	0.958950	0.259327	0.439987
Cl68	Cl	1.458950	0.759327	0.939987
