data_functionalizedCrystal
_audit_creation_method	'MofGen! by Chris Wilmer'
_symmetry_space_group_name_H-M	'P1'
_symmetry_Int_Tables_number	1
_symmetry_cell_setting	triclinic
loop_
_symmetry_equiv_pos_as_xyz
  x,y,z
_cell_length_a	12.759401
_cell_length_b	12.594516
_cell_length_c	12.759393
_cell_angle_alpha	90.041627
_cell_angle_beta	89.981433
_cell_angle_gamma	89.980069
loop_
_atom_site_label
_atom_site_type_symbol
_atom_site_fract_x
_atom_site_fract_y
_atom_site_fract_z
Zn1	Zn	1.606210	0.423707	-0.593910
Zn2	Zn	1.606086	0.601726	-0.418199
Zn3	Zn	1.430512	0.423759	-0.418249
Zn4	Zn	1.430482	0.601641	-0.593840
O5	O	1.518322	0.512708	-0.506050
O6	O	1.753215	0.447335	-0.570610
O7	O	1.582756	0.578176	-0.271185
O8	O	1.453884	0.274806	-0.441601
O9	O	1.753123	0.578125	-0.441516
O10	O	1.582968	0.274768	-0.570658
O11	O	1.453763	0.447424	-0.271221
O12	O	1.283487	0.447341	-0.441533
O13	O	1.453832	0.577980	-0.740871
O14	O	1.283465	0.578030	-0.570540
O15	O	1.582939	0.447252	-0.740922
O16	O	1.582726	0.750660	-0.441448
O17	O	1.453711	0.750598	-0.570491
C18	C	1.245355	0.512683	-0.506035
C19	C	1.128578	0.512698	-0.506054
C20	C	1.073757	0.444724	-0.573377
C21	C	0.964033	0.444744	-0.573384
C22	C	0.963961	0.580722	-0.438741
C23	C	1.073683	0.580695	-0.438730
C24	C	1.128652	0.376727	-0.640701
C25	C	1.073831	0.308748	-0.708031
C26	C	0.964107	0.308769	-0.708037
C27	C	0.909204	0.376768	-0.640714
C28	C	1.518231	0.789249	-0.505980
C29	C	1.518287	0.907554	-0.505985
C30	C	1.588570	1.047567	-0.435902
C31	C	1.492703	0.976882	-0.410096
C32	C	1.614142	0.976668	-0.531743
C33	C	1.422452	1.047655	-0.480192
C34	C	1.543955	1.047447	-0.601884
C35	C	1.448023	0.976794	-0.576115
C36	C	1.792356	0.512734	-0.506065
C37	C	1.909132	0.512745	-0.506071
C38	C	1.518396	0.512601	-0.780083
C39	C	1.518427	0.512555	-0.896860
C40	C	1.518411	1.235087	-0.506109
C41	C	1.518368	1.116782	-0.506047
C42	C	1.585663	0.444479	-0.951750
C43	C	1.585688	0.444440	-1.061474
C44	C	1.451239	0.580563	-1.061408
C45	C	1.451210	0.580596	-0.951686
C46	C	1.652880	0.376438	-0.896924
C47	C	1.720122	0.308357	-0.951814
C48	C	1.720147	0.308319	-1.061539
C49	C	1.652930	0.376361	-1.116372
C50	C	1.518310	0.512738	-0.233082
C51	C	1.518482	0.512484	-0.116306
H52	H	1.118320	0.636046	-0.383909
Br53	Br	1.652948	0.376289	-1.265285
Br54	Br	1.359956	0.672982	-0.877185
H55	H	1.388553	0.945917	-0.635408
H56	H	1.774890	0.252876	-1.106227
Br57	Br	0.889708	0.216504	-0.799400
Br58	Br	1.456563	0.925205	-0.274972
H59	H	1.647897	1.078641	-0.376563
Br60	Br	1.287358	1.099396	-0.443767
Br61	Br	1.360025	0.672902	-1.135825
H62	H	1.565666	1.078470	-0.682934
Br63	Br	1.749191	0.924691	-0.568008
H64	H	1.652870	0.376464	-0.807581
H65	H	0.919251	0.636085	-0.383931
Br66	Br	1.811319	0.215998	-0.877401
H67	H	1.118540	0.253380	-0.762836
Br68	Br	1.277563	0.376703	-0.640703
H69	H	0.819859	0.376756	-0.640703
