data_functionalizedCrystal
_audit_creation_method	'MofGen! by Chris Wilmer'
_symmetry_space_group_name_H-M	'P1'
_symmetry_Int_Tables_number	1
_symmetry_cell_setting	triclinic
loop_
_symmetry_equiv_pos_as_xyz
  x,y,z
_cell_length_a	19.288840
_cell_length_b	11.792254
_cell_length_c	18.366186
_cell_angle_alpha	90.004646
_cell_angle_beta	90.012747
_cell_angle_gamma	83.662307
loop_
_atom_site_label
_atom_site_type_symbol
_atom_site_fract_x
_atom_site_fract_y
_atom_site_fract_z
O1	O	0.922168	0.141444	0.060672
O2	O	1.422168	0.641444	0.560672
O3	O	0.720014	0.160572	0.060647
O4	O	1.220014	0.660572	0.560647
O5	O	0.825992	-0.014237	0.060655
O6	O	1.325992	0.485763	0.560655
O7	O	0.816190	0.316253	0.060664
O8	O	1.316190	0.816253	0.560664
O9	O	0.825981	-0.014241	-0.060445
O10	O	1.325981	0.485759	0.439555
O11	O	0.720003	0.160568	-0.060453
O12	O	1.220003	0.660568	0.439547
O13	O	0.922157	0.141440	-0.060428
O14	O	1.422157	0.641440	0.439572
Zn15	Zn	0.821078	0.151003	-0.079667
Zn16	Zn	1.321078	0.651003	0.420333
Zn17	Zn	0.821093	0.151009	0.079886
Zn18	Zn	1.321093	0.651009	0.579886
O19	O	0.816178	0.316249	-0.060436
O20	O	1.316178	0.816249	0.439564
C21	C	0.694128	0.159960	0.000094
C22	C	1.194128	0.659960	0.500094
C23	C	0.617013	0.158126	0.000084
C24	C	1.117013	0.658126	0.500084
C25	C	0.580811	0.157248	0.066097
C26	C	1.080811	0.657248	0.566097
C27	C	0.508354	0.155512	0.066106
C28	C	1.008354	0.655512	0.566106
C29	C	0.472104	0.154633	0.000098
C30	C	0.972104	0.654633	0.500098
C31	C	0.508315	0.155518	-0.065924
C32	C	1.008315	0.655518	0.434076
C33	C	0.580769	0.157265	-0.065931
C34	C	1.080769	0.657265	0.434069
C35	C	0.362376	0.085387	-0.050465
C36	C	0.862376	0.585387	0.449535
C37	C	0.289924	0.083633	-0.050456
C38	C	0.789924	0.583633	0.449544
C39	C	0.248630	0.149250	0.000117
C40	C	0.748630	0.649250	0.500117
C41	C	0.279798	0.216606	0.050691
C42	C	0.779798	0.716606	0.550691
C43	C	0.352253	0.218353	0.050684
C44	C	0.852253	0.718353	0.550684
C45	C	0.393539	0.152739	0.000098
C46	C	0.893539	0.652739	0.500098
C47	C	0.133861	0.146492	0.066144
C48	C	0.633861	0.646492	0.566144
C49	C	0.061402	0.144763	0.066150
C50	C	0.561402	0.644763	0.566150
C51	C	0.061365	0.144757	-0.065882
C52	C	0.561365	0.644757	0.434118
C53	C	0.133822	0.146497	-0.065886
C54	C	0.633822	0.646497	0.434114
C55	C	0.170066	0.147359	0.000129
C56	C	0.670066	0.647359	0.500129
C57	C	0.825369	-0.056520	0.000105
C58	C	1.325369	0.443480	0.500105
C59	C	0.823521	-0.182505	0.000105
C60	C	1.323521	0.317495	0.500105
C61	C	0.822019	-0.284818	0.000108
C62	C	1.322019	0.215182	0.500108
C63	C	0.820141	-0.413176	0.000114
C64	C	1.320141	0.086824	0.500114
C65	C	0.948042	0.142052	0.000127
C66	C	1.448042	0.642052	0.500127
C67	C	1.025157	0.143886	0.000141
C68	C	1.525157	0.643886	0.500141
C69	C	0.816802	0.358532	0.000115
C70	C	1.316802	0.858532	0.500115
C71	C	0.818650	0.484517	0.000120
C72	C	1.318650	0.984517	0.500120
N73	N	0.821073	0.150999	-0.188559
N74	N	1.321073	0.650999	0.311441
C75	C	0.868032	0.073620	-0.773105
C76	C	1.368032	0.573620	-0.273105
C77	C	0.868032	0.073622	-0.696878
C78	C	1.368032	0.573622	-0.196878
C79	C	0.821093	0.150998	-0.658770
C80	C	1.321093	0.650998	-0.158770
C81	C	0.774161	0.228397	-0.696896
C82	C	1.274161	0.728397	-0.196896
C83	C	0.774166	0.228400	-0.773123
C84	C	1.274166	0.728400	-0.273123
C85	C	0.757886	0.166154	-0.538023
C86	C	1.257886	0.666154	-0.038023
C87	C	0.757880	0.166143	-0.461798
C88	C	1.257880	0.666143	0.038202
C89	C	0.821077	0.150996	-0.423662
C90	C	1.321077	0.650996	0.076338
C91	C	0.884283	0.135835	-0.461761
C92	C	1.384283	0.635835	0.038239
C93	C	0.884288	0.135838	-0.537987
C94	C	1.384288	0.635838	-0.037987
C95	C	0.821082	0.151004	-0.576115
C96	C	1.321082	0.651004	-0.076115
C97	C	0.868010	0.073610	-0.302890
C98	C	1.368010	0.573610	0.197110
C99	C	0.868012	0.073621	-0.226661
C100	C	1.368012	0.573621	0.273339
C101	C	0.774134	0.228390	-0.226681
C102	C	1.274134	0.728390	0.273319
C103	C	0.774139	0.228385	-0.302909
C104	C	1.274139	0.728385	0.197091
C105	C	0.821076	0.150989	-0.341009
C106	C	1.321076	0.650989	0.158991
N107	N	0.821103	0.151004	0.188777
N108	N	1.321103	0.651004	0.688777
H109	H	0.031927	0.144055	0.119908
H110	H	0.531927	0.644055	0.619908
H111	H	0.163372	0.147205	0.119897
H112	H	0.663372	0.647205	0.619897
H113	H	0.264552	0.028782	-0.091633
H114	H	0.764552	0.528782	0.408367
H115	H	0.735923	0.291394	-0.333946
H116	H	1.235923	0.791394	0.166054
C117	C	0.365109	-0.046260	-0.150432
C118	C	0.865109	0.453740	0.349568
C119	C	0.407764	0.013243	-0.106054
C120	C	0.907764	0.513243	0.393946
H121	H	0.393131	-0.090802	-0.184745
H122	H	0.893131	0.409198	0.315255
H123	H	0.332765	0.006506	-0.175475
H124	H	0.832765	0.506506	0.324525
H125	H	0.340513	-0.094853	-0.121174
H126	H	0.840513	0.405147	0.378826
H127	H	0.432357	0.061843	-0.135312
H128	H	0.932357	0.561843	0.364688
H129	H	0.440121	-0.039530	-0.081010
H130	H	0.940121	0.460470	0.418990
H131	H	0.377627	0.273199	0.091863
H132	H	0.877627	0.773199	0.591863
H133	H	0.706420	0.178495	-0.569067
H134	H	1.206420	0.678495	-0.069067
C135	C	0.632938	0.196127	-0.469492
C136	C	1.132938	0.696127	0.030508
C137	C	0.688406	0.182809	-0.419924
C138	C	1.188406	0.682809	0.080076
H139	H	0.590047	0.206422	-0.443640
H140	H	1.090047	0.706422	0.056360
H141	H	0.634092	0.130041	-0.499227
H142	H	1.134092	0.630041	0.000773
H143	H	0.637051	0.260964	-0.499217
H144	H	1.137051	0.760964	0.000783
H145	H	0.684296	0.117966	-0.390202
H146	H	1.184296	0.617966	0.109798
H147	H	0.687251	0.248902	-0.390177
H148	H	1.187251	0.748902	0.109823
H149	H	0.906231	0.010593	-0.333912
H150	H	1.406231	0.510593	0.166088
H151	H	0.935752	0.123497	-0.569004
H152	H	1.435752	0.623497	-0.069004
H153	H	0.735943	0.291400	-0.665865
H154	H	1.235943	0.791400	-0.165865
H155	H	0.735951	0.291417	-0.804158
H156	H	1.235951	0.791417	-0.304158
C157	C	0.908089	-0.123040	-0.796566
C158	C	1.408089	0.376960	-0.296566
C159	C	0.919636	-0.011440	-0.814979
C160	C	1.419636	0.488560	-0.314979
H161	H	0.939953	-0.175547	-0.822414
H162	H	1.439953	0.324453	-0.322414
H163	H	0.861698	-0.135163	-0.809084
H164	H	1.361698	0.364837	-0.309084
H165	H	0.914798	-0.134098	-0.745710
H166	H	1.414798	0.365902	-0.245710
H167	H	0.912922	-0.000379	-0.865835
H168	H	1.412922	0.499621	-0.365835
H169	H	0.966038	0.000687	-0.802466
H170	H	1.466038	0.500687	-0.302466
H171	H	0.610245	0.157981	-0.119689
H172	H	1.110245	0.657981	0.380311
C173	C	0.573564	0.157072	0.196604
C174	C	1.073564	0.657072	0.696604
C175	C	0.620648	0.158206	0.138660
C176	C	1.120648	0.658206	0.638660
H177	H	0.598160	0.157671	0.241400
H178	H	1.098160	0.657671	0.741400
H179	H	0.550360	0.090224	0.193857
H180	H	1.050360	0.590224	0.693857
H181	H	0.540248	0.222564	0.193857
H182	H	1.040248	0.722564	0.693857
H183	H	0.653962	0.092709	0.141403
H184	H	1.153962	0.592709	0.641403
H185	H	0.643864	0.225061	0.141408
H186	H	1.143864	0.725061	0.641408
H187	H	0.906230	0.010608	-0.195625
H188	H	1.406230	0.510608	0.304375
C189	C	0.434341	0.055992	0.142695
C190	C	0.934341	0.555992	0.642695
C191	C	0.468550	0.154540	0.138672
C192	C	0.968550	0.654540	0.638672
H193	H	0.409767	0.055397	0.187494
H194	H	0.909767	0.555397	0.687494
H195	H	0.467660	-0.009481	0.139947
H196	H	0.967660	0.490519	0.639947
H197	H	0.402387	0.055239	0.103379
H198	H	0.902387	0.555239	0.603379
H199	H	0.500508	0.155289	0.177986
H200	H	1.000508	0.655289	0.677986
H201	H	0.435227	0.220031	0.141428
H202	H	0.935227	0.720031	0.641428
C203	C	0.046487	0.046671	-0.178418
C204	C	0.546487	0.546671	0.321582
C205	C	0.021533	0.143791	-0.138443
C206	C	0.521533	0.643791	0.361557
H207	H	0.021896	0.046083	-0.223218
H208	H	0.521896	0.546083	0.276782
H209	H	0.039666	-0.019771	-0.151296
H210	H	0.539666	0.480229	0.348704
H211	H	0.094821	0.047846	-0.187860
H212	H	0.594821	0.547846	0.312140
H213	H	-0.026801	0.142611	-0.128997
H214	H	0.473199	0.642611	0.371003
H215	H	0.028348	0.210250	-0.165571
H216	H	0.528348	0.710250	0.334429
H217	H	0.246178	0.270043	0.091870
H218	H	0.746178	0.770043	0.591870
H219	H	0.163299	0.147205	-0.119641
H220	H	0.663299	0.647205	0.380359
C221	C	0.759645	0.382914	-0.140961
C222	C	1.259645	0.882914	0.359039
C223	C	0.722540	0.313451	-0.184803
C224	C	1.222540	0.813451	0.315197
H225	H	0.727792	0.435427	-0.115102
H226	H	1.227792	0.935427	0.384898
H227	H	0.788707	0.423606	-0.170689
H228	H	1.288707	0.923606	0.329311
H229	H	0.787592	0.336816	-0.107348
H230	H	1.287592	0.836816	0.392652
H231	H	0.694596	0.359549	-0.218419
H232	H	1.194596	0.859549	0.281581
H233	H	0.693466	0.272757	-0.155072
H234	H	1.193466	0.772757	0.344928
H235	H	0.906248	0.010605	-0.665837
H236	H	1.406248	0.510605	-0.165837
C237	C	0.493429	0.057431	-0.178460
C238	C	0.993429	0.557431	0.321540
C239	C	0.468474	0.154548	-0.138483
C240	C	0.968474	0.654548	0.361517
H241	H	0.468836	0.056842	-0.223258
H242	H	0.968836	0.556842	0.276742
H243	H	0.486613	-0.009013	-0.151338
H244	H	0.986613	0.490987	0.348662
H245	H	0.541763	0.058612	-0.187906
H246	H	1.041763	0.558612	0.312094
H247	H	0.420142	0.153362	-0.129033
H248	H	0.920142	0.653362	0.370967
H249	H	0.475284	0.221009	-0.165611
H250	H	0.975284	0.721009	0.334389
C251	C	0.959780	0.214856	-0.376064
C252	C	1.459780	0.714856	0.123936
C253	C	0.953769	0.119245	-0.419872
C254	C	1.453769	0.619245	0.080128
H255	H	1.002682	0.204628	-0.350212
H256	H	1.502682	0.704628	0.149788
H257	H	0.922156	0.223851	-0.342454
H258	H	1.422156	0.723851	0.157546
H259	H	0.958590	0.280929	-0.405821
H260	H	1.458590	0.780929	0.094179
H261	H	0.954954	0.053172	-0.390115
H262	H	1.454954	0.553172	0.109885
H263	H	0.991403	0.110237	-0.453487
H264	H	1.491403	0.610237	0.046513
