data_functionalizedCrystal
_audit_creation_method	'MofGen! by Chris Wilmer'
_symmetry_space_group_name_H-M	'P1'
_symmetry_Int_Tables_number	1
_symmetry_cell_setting	triclinic
loop_
_symmetry_equiv_pos_as_xyz
  x,y,z
_cell_length_a	14.853568
_cell_length_b	17.699092
_cell_length_c	16.776229
_cell_angle_alpha	90.001732
_cell_angle_beta	89.997045
_cell_angle_gamma	96.539222
loop_
_atom_site_label
_atom_site_type_symbol
_atom_site_fract_x
_atom_site_fract_y
_atom_site_fract_z
O1	O	-1.196006	0.098815	0.066233
O2	O	-0.696006	0.598815	0.566233
O3	O	-0.933504	0.110586	0.066246
O4	O	-0.433504	0.610586	0.566246
O5	O	-1.072167	-0.005469	0.066237
O6	O	-0.572167	0.494531	0.566237
O7	O	-1.057342	0.214870	0.066242
O8	O	-0.557342	0.714870	0.566242
O9	O	-1.072152	-0.005469	-0.066339
O10	O	-0.572152	0.494531	0.433661
O11	O	-0.933488	0.110586	-0.066331
O12	O	-0.433488	0.610586	0.433669
O13	O	-1.195990	0.098815	-0.066343
O14	O	-0.695990	0.598815	0.433657
Zn15	Zn	-1.064737	0.104700	-0.087386
Zn16	Zn	-0.564737	0.604700	0.412614
Zn17	Zn	-1.064757	0.104701	0.087289
Zn18	Zn	-0.564757	0.604701	0.587289
O19	O	-1.057327	0.214870	-0.066335
O20	O	-0.557327	0.714870	0.433665
C21	C	-0.899909	0.110052	-0.000041
C22	C	-0.399909	0.610052	0.499959
C23	C	-0.799831	0.108454	-0.000036
C24	C	-0.299831	0.608454	0.499964
C25	C	-0.387573	0.032757	-0.000056
C26	C	0.112427	0.532757	0.499944
C27	C	-0.365790	0.170634	-0.000053
C28	C	0.134210	0.670634	0.499947
C29	C	-0.459818	0.172137	-0.000050
C30	C	0.040182	0.672137	0.499950
C31	C	-0.517728	0.103949	-0.000049
C32	C	-0.017728	0.603949	0.499951
C33	C	-0.481611	0.034258	-0.000051
C34	C	0.018389	0.534258	0.499949
C35	C	-0.495943	0.241826	-0.000040
C36	C	0.004057	0.741826	0.499960
C37	C	-0.589976	0.243332	-0.000036
C38	C	-0.089976	0.743332	0.499964
C39	C	-0.647889	0.175143	-0.000041
C40	C	-0.147889	0.675143	0.499959
C41	C	-0.611766	0.105450	-0.000044
C42	C	-0.111766	0.605450	0.499956
C43	C	-0.669676	0.037262	-0.000043
C44	C	-0.169676	0.537262	0.499957
C45	C	-0.633555	-0.032432	-0.000052
C46	C	-0.133555	0.467568	0.499948
C47	C	-0.539523	-0.033930	-0.000056
C48	C	-0.039523	0.466070	0.499944
C49	C	-0.741921	0.176641	-0.000037
C50	C	-0.241921	0.676641	0.499963
C51	C	-0.763713	0.038763	-0.000038
C52	C	-0.263713	0.538763	0.499962
C53	C	-1.071627	-0.033667	-0.000050
C54	C	-0.571627	0.466333	0.499950
C55	C	-1.070029	-0.117689	-0.000046
C56	C	-0.570029	0.382311	0.499954
C57	C	-0.229585	0.099348	-0.000056
C58	C	0.270415	0.599348	0.499944
C59	C	-0.329663	0.100945	-0.000057
C60	C	0.170337	0.600945	0.499943
C61	C	-1.069290	-0.157158	0.072223
C62	C	-0.569290	0.342842	0.572223
C63	C	-1.067783	-0.236105	0.072224
C64	C	-0.567783	0.263895	0.572224
C65	C	-1.067022	-0.275582	-0.000045
C66	C	-0.567022	0.224418	0.499955
C67	C	-1.067760	-0.236107	-0.072319
C68	C	-0.567760	0.263893	0.427681
C69	C	-1.069260	-0.157161	-0.072319
C70	C	-0.569260	0.342839	0.427681
C71	C	-1.061708	-0.554488	-0.072320
C72	C	-0.561708	-0.054488	0.427680
C73	C	-1.060211	-0.633440	-0.072314
C74	C	-0.560211	-0.133440	0.427686
C75	C	-1.060231	-0.633432	0.072223
C76	C	-0.560231	-0.133432	0.572223
C77	C	-1.061731	-0.554486	0.072223
C78	C	-0.561731	-0.054486	0.572223
C79	C	-1.062464	-0.515017	-0.000051
C80	C	-0.562464	-0.015017	0.499949
C81	C	-1.064096	-0.429414	-0.000051
C82	C	-0.564096	0.070586	0.499949
C83	C	-1.065397	-0.361185	-0.000045
C84	C	-0.565397	0.138815	0.499955
C85	C	-1.057867	0.243068	-0.000046
C86	C	-0.557867	0.743068	0.499954
C87	C	-1.059464	0.327090	-0.000045
C88	C	-0.559464	0.827090	0.499955
N89	N	-1.064729	0.104699	-0.206598
N90	N	-0.564729	0.604699	0.293402
C91	C	-1.119303	0.150690	-0.248313
C92	C	-0.619303	0.650690	0.251687
C93	C	-1.119313	0.150687	-0.331765
C94	C	-0.619313	0.650687	0.168235
C95	C	-1.064744	0.104697	-0.373500
C96	C	-0.564744	0.604697	0.126500
C97	C	-1.010168	0.058702	-0.331779
C98	C	-0.510168	0.558702	0.168221
C99	C	-1.010163	0.058701	-0.248328
C100	C	-0.510163	0.558701	0.251672
C101	C	-1.010186	0.058703	-0.668326
C102	C	-0.510186	0.558703	-0.168326
C103	C	-1.010192	0.058709	-0.751783
C104	C	-0.510192	0.558709	-0.251783
C105	C	-1.119336	0.150688	-0.751763
C106	C	-0.619336	0.650688	-0.251763
C107	C	-1.119331	0.150688	-0.668312
C108	C	-0.619331	0.650688	-0.168312
C109	C	-1.064759	0.104690	-0.626598
C110	C	-0.564759	0.604690	-0.126598
C111	C	-1.064750	0.104692	-0.536110
C112	C	-0.564750	0.604692	-0.036110
C113	C	-1.064747	0.104698	-0.463987
C114	C	-0.564747	0.604698	0.036013
N115	N	-1.064772	0.104695	0.206500
N116	N	-0.564772	0.604695	0.706500
H117	H	-0.448786	0.297340	-0.000032
H118	H	0.051214	0.797340	0.499968
C119	C	-0.787377	-0.091340	-0.000041
C120	C	-0.287377	0.408660	0.499959
C121	C	-0.697217	-0.107383	-0.000051
C122	C	-0.197217	0.392617	0.499949
H123	H	-0.826679	-0.137611	-0.000046
H124	H	-0.326679	0.362389	0.499954
H125	H	-0.798297	-0.062775	0.046192
H126	H	-0.298297	0.437225	0.546192
H127	H	-0.798301	-0.062765	-0.046273
H128	H	-0.298301	0.437235	0.453727
H129	H	-0.686291	-0.135953	0.046184
H130	H	-0.186291	0.364047	0.546184
H131	H	-0.686292	-0.135960	-0.046289
H132	H	-0.186292	0.364040	0.453711
H133	H	-1.163764	0.188140	-0.634336
H134	H	-0.663764	0.688140	-0.134336
C135	C	-1.057886	-0.754462	-0.136489
C136	C	-0.557886	-0.254462	0.363511
C137	C	-1.059356	-0.676834	-0.151756
C138	C	-0.559356	-0.176834	0.348244
H139	H	-1.057362	-0.781251	-0.185532
H140	H	-0.557362	-0.281251	0.314468
H141	H	-1.005103	-0.761676	-0.106785
H142	H	-0.505103	-0.261676	0.393215
H143	H	-1.110208	-0.773108	-0.106808
H144	H	-0.610208	-0.273108	0.393192
H145	H	-1.007031	-0.658187	-0.181434
H146	H	-0.507031	-0.158187	0.318566
H147	H	-1.112145	-0.669615	-0.181473
H148	H	-0.612145	-0.169615	0.318527
H149	H	-0.358159	-0.023986	-0.000066
H150	H	0.141841	0.476014	0.499934
H151	H	-0.318634	0.226149	-0.000047
H152	H	0.181366	0.726149	0.499953
C153	C	-0.961651	0.017902	-0.459708
C154	C	-0.461651	0.517902	0.040292
C155	C	-0.950180	0.008149	-0.377650
C156	C	-0.450180	0.508149	0.122350
H157	H	-0.924609	-0.013304	-0.488023
H158	H	-0.424609	0.486696	0.011977
H159	H	-1.023352	0.003956	-0.473407
H160	H	-0.523352	0.503956	0.026593
H161	H	-0.944757	0.069667	-0.473346
H162	H	-0.444757	0.569667	0.026654
H163	H	-0.967081	-0.043616	-0.364011
H164	H	-0.467081	0.456384	0.135989
H165	H	-0.888466	0.022090	-0.363946
H166	H	-0.388466	0.522090	0.136054
H167	H	-0.965723	0.021251	-0.214365
H168	H	-0.465723	0.521251	0.285635
C169	C	-0.888916	0.053815	-0.574527
C170	C	-0.388916	0.553815	-0.074527
C171	C	-0.950165	0.008164	-0.622493
C172	C	-0.450165	0.508164	-0.122493
H173	H	-0.851856	0.022615	-0.546230
H174	H	-0.351856	0.522615	-0.046230
H175	H	-0.851932	0.088595	-0.607092
H176	H	-0.351932	0.588595	-0.107092
H177	H	-0.921426	0.081185	-0.537718
H178	H	-0.421426	0.581185	-0.037718
H179	H	-0.917655	-0.019203	-0.659305
H180	H	-0.417655	0.480797	-0.159305
H181	H	-0.987154	-0.026630	-0.589925
H182	H	-0.487154	0.473370	-0.089925
H183	H	-1.163773	0.188140	-0.785737
H184	H	-0.663773	0.688140	-0.285737
C185	C	-1.065468	-0.357130	-0.136499
C186	C	-0.565468	0.142870	0.363501
C187	C	-1.066932	-0.279500	-0.151758
C188	C	-0.566932	0.220500	0.348242
H189	H	-1.064966	-0.383916	-0.185544
H190	H	-0.564966	0.116084	0.314456
H191	H	-1.012675	-0.364351	-0.106812
H192	H	-0.512675	0.135649	0.393188
H193	H	-1.117780	-0.375772	-0.106803
H194	H	-0.617780	0.124228	0.393197
H195	H	-1.014616	-0.260856	-0.181450
H196	H	-0.514616	0.239144	0.318550
H197	H	-1.119730	-0.272274	-0.181458
H198	H	-0.619730	0.227726	0.318542
C199	C	-0.405053	-0.097448	-0.000053
C200	C	0.094947	0.402552	0.499947
C201	C	-0.499816	-0.110532	-0.000056
C202	C	0.000184	0.389468	0.499944
H203	H	-0.380539	-0.144739	-0.000047
H204	H	0.119461	0.355261	0.499953
H205	H	-0.385172	-0.069375	-0.046283
H206	H	0.114828	0.430625	0.453717
H207	H	-0.385180	-0.069365	0.046182
H208	H	0.114820	0.430635	0.546182
H209	H	-0.519689	-0.138611	-0.046295
H210	H	-0.019689	0.361389	0.453705
H211	H	-0.519705	-0.138617	0.046178
H212	H	-0.019705	0.361383	0.546178
C213	C	-0.683094	0.325008	-0.068167
C214	C	-0.183094	0.825008	0.431833
C215	C	-0.629688	0.319932	-0.000022
C216	C	-0.129688	0.819932	0.499978
H217	H	-0.707617	0.372296	-0.068152
H218	H	-0.207617	0.872296	0.431848
H219	H	-0.646863	0.321571	-0.114394
H220	H	-0.146863	0.821571	0.385606
H221	H	-0.731033	0.284606	-0.068162
H222	H	-0.231033	0.784606	0.431838
H223	H	-0.581745	0.360332	-0.000030
H224	H	-0.081745	0.860332	0.499970
H225	H	-0.665921	0.323377	0.046217
H226	H	-0.165921	0.823377	0.546217
H227	H	-0.810859	-0.016764	-0.000040
H228	H	-0.310859	0.483236	0.499960
H229	H	-0.771326	0.233385	-0.000031
H230	H	-0.271326	0.733385	0.499969
C231	C	-0.902316	-0.032233	-0.743428
C232	C	-0.402316	0.467767	-0.243428
C233	C	-0.950213	0.008147	-0.797662
C234	C	-0.450213	0.508147	-0.297662
H235	H	-0.865294	-0.063448	-0.771754
H236	H	-0.365294	0.436552	-0.271754
H237	H	-0.865291	0.002535	-0.710881
H238	H	-0.365291	0.502535	-0.210881
H239	H	-0.943882	-0.063180	-0.710876
H240	H	-0.443882	0.436820	-0.210876
H241	H	-0.908647	0.039099	-0.830210
H242	H	-0.408647	0.539099	-0.330210
H243	H	-0.987241	-0.026625	-0.830222
H244	H	-0.487241	0.473375	-0.330222
H245	H	-1.062323	-0.522364	-0.131169
H246	H	-0.562323	-0.022364	0.368831
H247	H	-1.069914	-0.125023	0.131072
H248	H	-0.569914	0.374977	0.631072
C249	C	-1.240529	0.155609	-0.154450
C250	C	-0.740529	0.655609	0.345550
C251	C	-1.179286	0.201244	-0.202439
C252	C	-0.679286	0.701244	0.297561
H253	H	-1.277557	0.186821	-0.126128
H254	H	-0.777557	0.686821	0.373872
H255	H	-1.277547	0.120842	-0.187003
H256	H	-0.777547	0.620842	0.312997
H257	H	-1.208015	0.128223	-0.117664
H258	H	-0.708015	0.628223	0.382336
H259	H	-1.211800	0.228625	-0.239229
H260	H	-0.711800	0.728625	0.260771
H261	H	-1.142264	0.236024	-0.169883
H262	H	-0.642264	0.736024	0.330117
H263	H	-1.067184	-0.268238	0.131072
H264	H	-0.567184	0.231762	0.631072
H265	H	-1.062355	-0.522348	0.131071
H266	H	-0.562355	-0.022348	0.631071
H267	H	-1.059630	-0.665577	0.131071
H268	H	-0.559630	-0.165577	0.631071
C269	C	-1.069078	-0.165092	-0.215192
C270	C	-0.569078	0.334908	0.284808
C271	C	-1.070064	-0.113773	-0.151759
C272	C	-0.570064	0.386227	0.348241
H273	H	-1.069572	-0.138304	-0.264235
H274	H	-0.569572	0.361696	0.235765
H275	H	-1.015949	-0.190172	-0.212175
H276	H	-0.515949	0.309828	0.287825
H277	H	-1.121054	-0.201597	-0.212191
H278	H	-0.621054	0.298403	0.287809
H279	H	-1.018084	-0.077271	-0.154756
H280	H	-0.518084	0.422729	0.345244
H281	H	-1.123198	-0.088680	-0.154777
H282	H	-0.623198	0.411320	0.345223
C283	C	-1.227182	0.241621	-0.323363
C284	C	-0.727182	0.741621	0.176637
C285	C	-1.179295	0.201247	-0.377619
C286	C	-0.679295	0.701247	0.122381
H287	H	-1.264208	0.272839	-0.351673
H288	H	-0.764208	0.772839	0.148327
H289	H	-1.264200	0.206850	-0.290815
H290	H	-0.764200	0.706850	0.209185
H291	H	-1.185609	0.272564	-0.290815
H292	H	-0.685609	0.772564	0.209185
H293	H	-1.220868	0.170299	-0.410163
H294	H	-0.720868	0.670299	0.089837
H295	H	-1.142273	0.236023	-0.410181
H296	H	-0.642273	0.736023	0.089819
