data_functionalizedCrystal
_audit_creation_method	'MofGen! by Chris Wilmer'
_symmetry_space_group_name_H-M	'P1'
_symmetry_Int_Tables_number	1
_symmetry_cell_setting	triclinic
loop_
_symmetry_equiv_pos_as_xyz
  x,y,z
_cell_length_a	13.897449
_cell_length_b	18.050590
_cell_length_c	13.897441
_cell_angle_alpha	90.022679
_cell_angle_beta	89.979267
_cell_angle_gamma	89.990680
loop_
_atom_site_label
_atom_site_type_symbol
_atom_site_fract_x
_atom_site_fract_y
_atom_site_fract_z
Zn1	Zn	1.474767	0.295610	-0.545434
Zn2	Zn	1.474688	0.419815	-0.384158
Zn3	Zn	1.313456	0.295646	-0.384153
Zn4	Zn	1.313465	0.419766	-0.545411
O5	O	1.394094	0.357709	-0.464789
O6	O	1.609738	0.312092	-0.524053
O7	O	1.453264	0.403379	-0.249176
O8	O	1.334884	0.191716	-0.405555
O9	O	1.609681	0.403344	-0.405564
O10	O	1.453398	0.191690	-0.524048
O11	O	1.334808	0.312152	-0.249172
O12	O	1.178476	0.312105	-0.405532
O13	O	1.334899	0.403261	-0.680395
O14	O	1.178483	0.403295	-0.524007
O15	O	1.453407	0.312045	-0.680413
O16	O	1.453273	0.523733	-0.405541
O17	O	1.334823	0.523697	-0.524012
C18	C	1.143480	0.357699	-0.464767
C19	C	1.036266	0.357713	-0.464780
C20	C	0.839971	0.357715	-0.464806
C21	C	0.949204	0.357712	-0.464789
C22	C	1.394149	0.164004	-0.464803
C23	C	1.394172	0.081458	-0.464809
C24	C	1.458617	-0.118007	-0.529266
C25	C	1.482186	-0.167376	-0.441268
C26	C	1.394163	-0.069673	-0.464814
C27	C	1.370629	-0.167385	-0.552815
C28	C	1.394155	-0.215658	-0.464827
C29	C	1.417777	-0.117955	-0.376770
C30	C	1.306180	-0.117959	-0.488376
C31	C	1.329715	-0.167306	-0.400318
C32	C	1.394169	0.014426	-0.464808
C33	C	1.394148	-0.299754	-0.464823
C34	C	1.645687	0.357720	-0.464812
C35	C	1.752901	0.357724	-0.464821
C36	C	1.394066	0.550661	-0.464796
C37	C	1.394142	0.633207	-0.464831
C38	C	1.394163	0.357643	-0.716382
C39	C	1.394192	0.357615	-0.823596
C40	C	1.394218	0.357565	-1.019891
C41	C	1.394201	0.357595	-0.910659
C42	C	1.394082	0.357721	-0.214175
C43	C	1.394239	0.357540	-0.106961
H44	H	1.513168	-0.096361	-0.583698
H45	H	1.556588	-0.189082	-0.421338
Br46	Br	1.451074	-0.081924	-0.252698
Br47	Br	1.238870	-0.203174	-0.309380
H48	H	1.231798	-0.096238	-0.508331
Br49	Br	1.337459	-0.203579	-0.676842
