data_functionalizedCrystal
_audit_creation_method	'MofGen! by Chris Wilmer'
_symmetry_space_group_name_H-M	'P1'
_symmetry_Int_Tables_number	1
_symmetry_cell_setting	triclinic
loop_
_symmetry_equiv_pos_as_xyz
  x,y,z
_cell_length_a	12.759401
_cell_length_b	25.639240
_cell_length_c	12.759393
_cell_angle_alpha	89.956840
_cell_angle_beta	89.979062
_cell_angle_gamma	90.034283
loop_
_atom_site_label
_atom_site_type_symbol
_atom_site_fract_x
_atom_site_fract_y
_atom_site_fract_z
Zn1	Zn	1.606135	-0.208104	-0.593928
Zn2	Zn	1.939468	0.125229	-0.260594
Zn3	Zn	2.272801	0.458562	0.072739
Zn4	Zn	1.605970	-0.295549	-0.418209
Zn5	Zn	1.939304	0.037784	-0.084876
Zn6	Zn	2.272637	0.371117	0.248458
Zn7	Zn	1.430433	-0.208132	-0.418263
Zn8	Zn	1.763767	0.125201	-0.084929
Zn9	Zn	2.097100	0.458535	0.248404
Zn10	Zn	1.430370	-0.295513	-0.593846
Zn11	Zn	1.763703	0.037821	-0.260513
Zn12	Zn	2.097036	0.371154	0.072821
O13	O	1.518227	-0.251825	-0.506061
O14	O	1.851560	0.081509	-0.172728
O15	O	2.184894	0.414842	0.160605
O16	O	1.753134	-0.219708	-0.570630
O17	O	2.086467	0.113626	-0.237296
O18	O	2.419800	0.446959	0.096037
O19	O	1.582643	-0.283980	-0.271195
O20	O	1.915976	0.049353	0.062138
O21	O	2.249309	0.382687	0.395472
O22	O	1.453836	-0.134963	-0.441622
O23	O	1.787169	0.198370	-0.108288
O24	O	2.120502	0.531704	0.225045
O25	O	1.753013	-0.283953	-0.441530
O26	O	2.086346	0.049380	-0.108197
O27	O	2.419680	0.382713	0.225137
O28	O	1.582923	-0.134943	-0.570682
O29	O	1.916256	0.198391	-0.237349
O30	O	2.249589	0.531724	0.095985
O31	O	1.453676	-0.219755	-0.271235
O32	O	1.787010	0.113578	0.062099
O33	O	2.120343	0.446912	0.395432
O34	O	1.283404	-0.219720	-0.441543
O35	O	1.616737	0.113614	-0.108209
O36	O	1.950070	0.446947	0.225124
O37	O	1.453728	-0.283891	-0.740878
O38	O	1.787061	0.049442	-0.407545
O39	O	2.120394	0.382776	-0.074211
O40	O	1.283357	-0.283918	-0.570543
O41	O	1.616691	0.049415	-0.237210
O42	O	1.950024	0.382749	0.096124
O43	O	1.582861	-0.219672	-0.740938
O44	O	1.916194	0.113661	-0.407605
O45	O	2.249528	0.446994	-0.074271
O46	O	1.582581	-0.368710	-0.441451
O47	O	1.915914	-0.035376	-0.108118
O48	O	2.249248	0.297957	0.225216
O49	O	1.453568	-0.368683	-0.570491
O50	O	1.786902	-0.035350	-0.237157
O51	O	2.120235	0.297984	0.096176
C52	C	1.245260	-0.251818	-0.506041
C53	C	1.578593	0.081515	-0.172707
C54	C	1.911926	0.414848	0.160626
C55	C	1.128483	-0.251828	-0.506057
C56	C	1.461816	0.081505	-0.172723
C57	C	1.795150	0.414839	0.160610
C58	C	1.518078	-0.387667	-0.505979
C59	C	1.851412	-0.054334	-0.172646
C60	C	2.184745	0.278999	0.160688
C61	C	1.518111	-0.445781	-0.505979
C62	C	1.851444	-0.112448	-0.172646
C63	C	2.184778	0.220885	0.160688
C64	C	1.073624	-0.285307	-0.573121
C65	C	1.406958	0.048026	-0.239788
C66	C	1.740291	0.381360	0.093545
C67	C	0.963900	-0.285309	-0.573142
C68	C	1.297233	0.048024	-0.239809
C69	C	1.630567	0.381358	0.093525
C70	C	0.963903	-0.218352	-0.439024
C71	C	1.297237	0.114982	-0.105691
C72	C	1.630570	0.448315	0.227642
C73	C	1.073625	-0.218347	-0.439010
C74	C	1.406959	0.114986	-0.105676
C75	C	1.740292	0.448319	0.227657
C76	C	1.585476	-0.806095	-0.573384
C77	C	1.918809	-0.472762	-0.240051
C78	C	2.252143	-0.139428	0.093282
C79	C	1.585507	-0.860699	-0.573406
C80	C	1.918840	-0.527366	-0.240072
C81	C	2.252174	-0.194033	0.093261
O82	O	1.642606	-0.888894	-0.630631
O83	O	1.975940	-0.555561	-0.297298
O84	O	2.309273	-0.222228	0.036035
N85	N	1.518373	-0.888064	-0.506163
N86	N	1.851706	-0.554730	-0.172830
N87	N	2.185039	-0.221397	0.160504
C88	C	1.451196	-0.860821	-0.438902
C89	C	1.784529	-0.527487	-0.105569
C90	C	2.117862	-0.194154	0.227765
O91	O	1.394095	-0.889110	-0.381710
O92	O	1.727428	-0.555777	-0.048376
O93	O	2.060762	-0.222443	0.284957
C94	C	1.451160	-0.806217	-0.438887
C95	C	1.784493	-0.472884	-0.105553
C96	C	2.117827	-0.139551	0.227780
C97	C	1.518306	-0.778856	-0.506126
C98	C	1.851640	-0.445523	-0.172793
C99	C	2.184973	-0.112189	0.160540
C100	C	1.652616	-0.778734	-0.640619
C101	C	1.985949	-0.445400	-0.307286
C102	C	2.319282	-0.112067	0.026047
C103	C	1.652586	-0.724133	-0.640596
C104	C	1.985919	-0.390800	-0.307263
C105	C	2.319253	-0.057466	0.026070
C106	C	1.585416	-0.696894	-0.573338
C107	C	1.918750	-0.363561	-0.240005
C108	C	2.252083	-0.030227	0.093328
C109	C	1.518276	-0.724255	-0.506103
C110	C	1.851610	-0.390922	-0.172770
C111	C	2.184943	-0.057589	0.160563
C112	C	1.383979	-0.778975	-0.371632
C113	C	1.717312	-0.445642	-0.038299
C114	C	2.050645	-0.112309	0.295035
C115	C	1.383948	-0.724368	-0.371623
C116	C	1.717282	-0.391035	-0.038290
C117	C	2.050615	-0.057702	0.295044
C118	C	1.451094	-0.697007	-0.438863
C119	C	1.784428	-0.363674	-0.105529
C120	C	2.117761	-0.030340	0.227804
C121	C	1.451077	-0.642416	-0.438822
C122	C	1.784410	-0.309083	-0.105489
C123	C	2.117744	0.024251	0.227844
N124	N	1.518211	-0.615052	-0.506065
N125	N	1.851544	-0.281718	-0.172732
N126	N	2.184878	0.051615	0.160602
C127	C	1.585381	-0.642291	-0.573323
C128	C	1.918714	-0.308957	-0.239990
C129	C	2.252047	0.024376	0.093344
C130	C	1.451274	-0.975491	-0.438941
C131	C	1.784607	-0.642158	-0.105607
C132	C	2.117941	-0.308825	0.227726
C133	C	1.451314	-1.030094	-0.438950
C134	C	1.784647	-0.696760	-0.105616
C135	C	2.117981	-0.363427	0.227717
C136	C	1.585624	-1.029969	-0.573455
C137	C	1.918958	-0.696635	-0.240122
C138	C	2.252291	-0.363302	0.093212
C139	C	1.585589	-0.975365	-0.573440
C140	C	1.918922	-0.642032	-0.240106
C141	C	2.252255	-0.308699	0.093227
C142	C	1.518408	-0.948127	-0.506183
C143	C	1.851742	-0.614794	-0.172850
C144	C	2.185075	-0.281460	0.160483
C145	C	1.585314	-0.527626	-0.573269
C146	C	1.918647	-0.194292	-0.239936
C147	C	2.251980	0.139041	0.093398
C148	C	1.585281	-0.473020	-0.573237
C149	C	1.918614	-0.139687	-0.239904
C150	C	2.251947	0.193646	0.093430
C151	C	1.450967	-0.473150	-0.438736
C152	C	1.784301	-0.139817	-0.105403
C153	C	2.117634	0.193517	0.227931
C154	C	1.451003	-0.527751	-0.438764
C155	C	1.784337	-0.194417	-0.105430
C156	C	2.117670	0.138916	0.227903
C157	C	1.518180	-0.554987	-0.506039
C158	C	1.851513	-0.221654	-0.172705
C159	C	2.184847	0.111679	0.160628
O160	O	1.394004	-0.614186	-0.381629
O161	O	1.727337	-0.280853	-0.048296
O162	O	2.060670	0.052481	0.285038
O163	O	1.642462	-0.613995	-0.630516
O164	O	1.975795	-0.280661	-0.297182
O165	O	2.309129	0.052672	0.036151
C166	C	1.792260	-0.251831	-0.506083
C167	C	2.125594	0.081502	-0.172750
C168	C	2.458927	0.414835	0.160584
C169	C	1.909037	-0.251834	-0.506092
C170	C	2.242370	0.081499	-0.172759
C171	C	2.575703	0.414832	0.160575
C172	C	1.518306	-0.251774	-0.780095
C173	C	1.851639	0.081559	-0.446762
C174	C	2.184972	0.414892	-0.113428
C175	C	1.518339	-0.251753	-0.896872
C176	C	1.851672	0.081580	-0.563538
C177	C	2.185006	0.414914	-0.230205
C178	C	1.518405	-0.115452	-0.506167
C179	C	1.851738	0.217882	-0.172834
C180	C	2.185071	0.551215	0.160500
C181	C	1.518480	-0.057337	-0.506212
C182	C	1.851814	0.275996	-0.172879
C183	C	2.185147	0.609329	0.160455
C184	C	1.585584	-0.218309	-0.951766
C185	C	1.918917	0.115024	-0.618433
C186	C	2.252251	0.448358	-0.285100
C187	C	1.585602	-0.218286	-1.061491
C188	C	1.918935	0.115047	-0.728157
C189	C	2.252268	0.448380	-0.394824
C190	C	1.451127	-0.285156	-1.061415
C191	C	1.784460	0.048177	-0.728082
C192	C	2.117794	0.381510	-0.394749
C193	C	1.451105	-0.285176	-0.951693
C194	C	1.784438	0.048157	-0.618360
C195	C	2.117771	0.381491	-0.285027
C196	C	1.518209	-0.251837	-0.233094
C197	C	1.851542	0.081496	0.100239
C198	C	2.184876	0.414830	0.433573
C199	C	1.518379	-0.251711	-0.116318
C200	C	1.851713	0.081622	0.217015
C201	C	2.185046	0.414956	0.550349
H202	H	1.118286	-0.312568	-0.627718
H203	H	1.451619	0.020766	-0.294384
H204	H	1.784953	0.354099	0.038949
H205	H	1.639963	-0.450744	-0.627991
H206	H	1.973296	-0.117411	-0.294658
H207	H	2.306630	0.215922	0.038675
H208	H	1.396336	-0.550030	-0.384003
H209	H	1.729669	-0.216696	-0.050670
H210	H	2.063003	0.116637	0.282663
H211	H	0.919239	-0.312570	-0.627754
H212	H	1.252572	0.020763	-0.294421
H213	H	1.585906	0.354097	0.038912
H214	H	1.640358	-0.191052	-1.106181
H215	H	1.973691	0.142281	-0.772848
H216	H	2.307024	0.475615	-0.439514
H217	H	1.329301	-0.801244	-0.316878
H218	H	1.662635	-0.467910	0.016456
H219	H	1.995968	-0.134577	0.349789
H220	H	0.919225	-0.191094	-0.384436
H221	H	1.252558	0.142240	-0.051102
H222	H	1.585891	0.475573	0.282231
H223	H	1.396338	-0.312410	-0.906997
H224	H	1.729672	0.020924	-0.573663
H225	H	2.063005	0.354257	-0.240330
H226	H	1.118293	-0.191082	-0.384397
H227	H	1.451626	0.142252	-0.051064
H228	H	1.784959	0.475585	0.282269
H229	H	1.640008	-0.549795	-0.628058
H230	H	1.973341	-0.216462	-0.294724
H231	H	2.306675	0.116872	0.038609
H232	H	1.707259	-0.701859	-0.695351
H233	H	2.040592	-0.368525	-0.362018
H234	H	2.373925	-0.035192	-0.028685
H235	H	1.640316	-1.052157	-0.628222
H236	H	1.973649	-0.718823	-0.294889
H237	H	2.306982	-0.385490	0.038445
H238	H	1.396389	-0.312369	-1.106065
H239	H	1.729723	0.020964	-0.772731
H240	H	2.063056	0.354297	-0.439398
H241	H	1.707313	-0.800906	-0.695395
H242	H	2.040647	-0.467573	-0.362062
H243	H	2.373980	-0.134239	-0.028728
H244	H	1.396648	-1.052367	-0.384185
H245	H	1.729982	-0.719033	-0.050852
H246	H	2.063315	-0.385700	0.282482
H247	H	1.640264	-0.953091	-0.628192
H248	H	1.973597	-0.619757	-0.294859
H249	H	2.306931	-0.286424	0.038474
H250	H	1.396281	-0.450964	-0.383972
H251	H	1.729615	-0.117630	-0.050639
H252	H	2.062948	0.215703	0.282695
H253	H	1.396571	-0.953317	-0.384163
H254	H	1.729904	-0.619983	-0.050830
H255	H	2.063237	-0.286650	0.282503
H256	H	1.329238	-0.702194	-0.316856
H257	H	1.662572	-0.368860	0.016478
H258	H	1.995905	-0.035527	0.349811
H259	H	1.640328	-0.191092	-0.907134
H260	H	1.973661	0.142241	-0.573801
H261	H	2.306994	0.475574	-0.240467
