data_functionalizedCrystal
_audit_creation_method	'MofGen! by Chris Wilmer'
_symmetry_space_group_name_H-M	'P1'
_symmetry_Int_Tables_number	1
_symmetry_cell_setting	triclinic
loop_
_symmetry_equiv_pos_as_xyz
  x,y,z
_cell_length_a	6.817900
_cell_length_b	16.417825
_cell_length_c	16.305550
_cell_angle_alpha	95.393303
_cell_angle_beta	103.455250
_cell_angle_gamma	103.385495
loop_
_atom_site_label
_atom_site_type_symbol
_atom_site_fract_x
_atom_site_fract_y
_atom_site_fract_z
V1	V	-4.025833	-0.116593	-0.263329
O2	O	-4.013858	0.004875	-0.258012
O3	O	-3.976882	-0.230485	-0.261820
O4	O	-3.977245	-0.115119	-0.378042
O5	O	-4.013493	-0.111289	-0.140986
V6	V	-4.509557	-0.102026	-0.248660
O7	O	-4.286651	-0.148546	-0.295506
O8	O	-4.698937	-0.070073	-0.216483
O9	O	-4.335302	0.011865	-0.250168
O10	O	-4.638929	-0.223495	-0.253977
O11	O	-4.639295	-0.107330	-0.371003
O12	O	-4.334939	-0.103501	-0.133947
C13	C	-3.821754	-0.258239	-0.257742
C14	C	-3.863016	-0.351349	-0.257273
C15	C	-3.917930	-0.553403	-0.178925
C16	C	-3.956722	-0.640891	-0.178491
C17	C	-4.036841	-0.665217	-0.333073
C18	C	-3.998063	-0.577730	-0.333506
C19	C	-3.938597	-0.521825	-0.256429
C20	C	-4.016167	-0.696800	-0.255563
C21	C	-4.058228	-0.791658	-0.255093
C22	C	-3.896538	-0.426960	-0.256899
C23	C	-3.822216	-0.111077	-0.405993
C24	C	-3.863770	-0.110625	-0.499774
C25	C	-4.014863	-0.108875	-0.840515
C26	C	-3.778833	-0.103678	-0.799573
C27	C	-3.735637	-0.104494	-0.702080
C28	C	-3.939902	-0.109743	-0.671469
C29	C	-4.106643	-0.192464	-0.722307
C30	C	-4.148508	-0.191996	-0.819855
C31	C	-4.069890	-0.032013	-0.794475
C32	C	-4.021963	-0.031358	-0.696631
C33	C	-3.897551	-0.110236	-0.575932
C34	C	-4.057223	-0.108387	-0.936052
C35	C	-4.153772	0.039616	-0.254245
C36	C	-4.091748	0.132725	-0.254719
C37	C	-4.153310	-0.107545	-0.105991
C38	C	-4.090995	-0.107992	-0.012210
H39	H	-4.085258	-0.710745	-0.395826
H40	H	-3.939892	-0.666597	-0.115380
N41	N	-4.020363	-0.543665	-0.417104
H42	H	-4.063903	-0.592354	-0.465866
H43	H	-3.882185	-0.504987	-0.417777
H44	H	-3.609350	-0.045018	-0.666905
H45	H	-3.672906	-0.043921	-0.811784
H46	H	-3.733547	-0.158900	-0.831226
N47	N	-3.647297	-0.178462	-0.680670
H48	H	-3.636319	-0.210669	-0.734603
H49	H	-3.742460	-0.217337	-0.653489
N50	N	-4.032943	-0.269560	-0.700238
H51	H	-4.021472	-0.302613	-0.753595
H52	H	-4.136352	-0.306569	-0.674965
H53	H	-3.869510	-0.507886	-0.116164
H54	H	-4.112157	-0.250183	-0.850385
H55	H	-4.322319	-0.199250	-0.847865
N56	N	-4.216972	-0.029948	-0.668292
H57	H	-4.255073	-0.080333	-0.638619
H58	H	-4.335496	-0.032590	-0.719737
H59	H	-4.259775	-0.199296	-0.703411
H60	H	-3.978710	0.030664	-0.807683
N61	N	-3.861903	0.049694	-0.650907
H62	H	-3.736754	0.035705	-0.614043
H63	H	-3.925473	0.082964	-0.613885
N64	N	-4.297787	-0.036073	-0.830002
H65	H	-4.365131	-0.087422	-0.875693
H66	H	-4.310105	0.016883	-0.855418
