data_functionalizedCrystal
_audit_creation_method	'MofGen! by Chris Wilmer'
_symmetry_space_group_name_H-M	'P1'
_symmetry_Int_Tables_number	1
_symmetry_cell_setting	triclinic
loop_
_symmetry_equiv_pos_as_xyz
  x,y,z
_cell_length_a	10.654554
_cell_length_b	11.792241
_cell_length_c	9.730223
_cell_angle_alpha	89.998500
_cell_angle_beta	89.999614
_cell_angle_gamma	84.340129
loop_
_atom_site_label
_atom_site_type_symbol
_atom_site_fract_x
_atom_site_fract_y
_atom_site_fract_z
O1	O	1.667380	0.159440	-0.114296
O2	O	1.301859	0.174623	-0.114298
O3	O	1.493489	0.001882	-0.114288
O4	O	1.475749	0.332182	-0.114307
O5	O	1.493487	0.001886	0.114292
O6	O	1.301857	0.174628	0.114282
O7	O	1.667377	0.159445	0.114284
Zn8	Zn	1.484617	0.167037	0.150575
Zn9	Zn	1.484620	0.167031	-0.150589
O10	O	1.475747	0.332186	0.114273
C11	C	1.255063	0.173510	-0.000008
C12	C	1.115630	0.170171	-0.000008
C13	C	1.492374	-0.040409	0.000002
C14	C	1.489038	-0.166431	0.000001
C15	C	0.933373	0.062185	-0.000014
C16	C	1.064386	0.065322	-0.000004
C17	C	1.035853	0.271890	-0.000009
C18	C	0.904843	0.268753	-0.000009
C19	C	0.882137	-0.042670	-0.000023
C20	C	0.961905	-0.144391	-0.000020
C21	C	1.092918	-0.141254	-0.000011
C22	C	1.144163	-0.036398	-0.000004
C23	C	1.482905	-0.397157	-0.000022
C24	C	1.486313	-0.268764	-0.000010
C25	C	1.714173	0.160559	-0.000009
C26	C	1.853607	0.163897	-0.000018
C27	C	1.476862	0.374477	-0.000019
C28	C	1.480198	0.500499	-0.000027
N29	N	1.484624	0.167040	0.356111
N30	N	1.484622	0.167019	-0.356126
C31	C	1.569500	0.090576	0.428042
C32	C	1.569496	0.090563	0.571925
C33	C	1.399737	0.243486	0.571934
C34	C	1.399736	0.243494	0.428053
C35	C	1.654388	0.014123	0.356100
C36	C	1.739272	-0.062346	0.428030
C37	C	1.739268	-0.062360	0.571913
C38	C	1.654381	0.014095	0.643865
H39	H	0.775462	-0.045236	-0.000035
C40	C	0.905541	-0.259728	-0.000023
C41	C	0.761436	-0.263186	-0.000037
C42	C	0.705077	-0.378526	-0.000037
C43	C	0.792822	-0.490408	-0.000024
C44	C	0.936936	-0.486954	-0.000010
C45	C	0.993296	-0.371614	-0.000009
H46	H	0.696474	-0.180360	-0.000047
H47	H	0.598394	-0.381082	-0.000048
H48	H	0.751101	-0.575789	-0.000025
H49	H	1.001898	-0.569780	-0.000000
H50	H	1.099979	-0.369058	0.000001
C51	C	1.306375	0.327591	0.651076
C52	C	1.306542	0.327738	0.809338
C53	C	1.213182	0.411848	0.888478
C54	C	1.119655	0.495810	0.809355
C55	C	1.119485	0.495666	0.651084
C56	C	1.212845	0.411557	0.571944
H57	H	1.375780	0.265581	0.867918
H58	H	1.213309	0.411954	1.005641
H59	H	1.050544	0.558073	0.867939
H60	H	1.050247	0.557824	0.592504
H61	H	1.212718	0.411451	0.454781
H62	H	1.157862	-0.224080	0.000005
H63	H	1.250843	-0.033853	0.000017
H64	H	1.808375	-0.124631	0.630478
H65	H	1.077588	0.357260	-0.000005
H66	H	0.839894	0.351576	-0.000006
H67	H	1.654401	0.014129	0.238943
H68	H	1.808377	-0.124600	0.369440
H69	H	1.654377	0.014070	0.761025
H70	H	1.330621	0.305757	0.369487
