data_functionalizedCrystal
_audit_creation_method	'MofGen! by Chris Wilmer'
_symmetry_space_group_name_H-M	'P1'
_symmetry_Int_Tables_number	1
_symmetry_cell_setting	triclinic
loop_
_symmetry_equiv_pos_as_xyz
  x,y,z
_cell_length_a	19.805407
_cell_length_b	17.637651
_cell_length_c	19.805399
_cell_angle_alpha	78.757390
_cell_angle_beta	89.980427
_cell_angle_gamma	101.218564
loop_
_atom_site_label
_atom_site_type_symbol
_atom_site_fract_x
_atom_site_fract_y
_atom_site_fract_z
Zn1	Zn	0.980303	-0.314779	-0.328177
Zn2	Zn	1.313637	0.018555	0.005156
Zn3	Zn	1.646970	0.351888	0.338489
Zn4	Zn	0.957355	-0.446994	-0.192080
Zn5	Zn	1.290689	-0.113661	0.141253
Zn6	Zn	1.624022	0.219673	0.474587
Zn7	Zn	0.867114	-0.314800	-0.214998
Zn8	Zn	1.200448	0.018533	0.118335
Zn9	Zn	1.533781	0.351866	0.451668
Zn10	Zn	0.844226	-0.446952	-0.305234
Zn11	Zn	1.177559	-0.113619	0.028099
Zn12	Zn	1.510892	0.219715	0.361433
O13	O	0.912250	-0.380881	-0.260122
O14	O	1.245583	-0.047548	0.073211
O15	O	1.578916	0.285785	0.406544
O16	O	1.071974	-0.332326	-0.310134
O17	O	1.405308	0.001008	0.023199
O18	O	1.738641	0.334341	0.356532
O19	O	0.945360	-0.429485	-0.100399
O20	O	1.278693	-0.096152	0.232934
O21	O	1.612026	0.237182	0.566268
O22	O	0.901312	-0.204159	-0.249205
O23	O	1.234645	0.129174	0.084128
O24	O	1.567979	0.462508	0.417462
O25	O	1.055114	-0.429464	-0.210144
O26	O	1.388448	-0.096130	0.123189
O27	O	1.721781	0.237203	0.456522
O28	O	0.984471	-0.204143	-0.332357
O29	O	1.317805	0.129190	0.000976
O30	O	1.651138	0.462524	0.334309
O31	O	0.879060	-0.332363	-0.117237
O32	O	1.212393	0.000971	0.216096
O33	O	1.545727	0.334304	0.549430
O34	O	0.769363	-0.332322	-0.226958
O35	O	1.102696	0.001011	0.106376
O36	O	1.436030	0.334345	0.439709
O37	O	0.862302	-0.429392	-0.402999
O38	O	1.195635	-0.096059	-0.069665
O39	O	1.528968	0.237274	0.263668
O40	O	0.752547	-0.429413	-0.293254
O41	O	1.085880	-0.096080	0.040080
O42	O	1.419214	0.237253	0.373413
O43	O	0.962277	-0.332285	-0.419855
O44	O	1.295611	0.001048	-0.086522
O45	O	1.628944	0.334382	0.246811
O46	O	0.923166	-0.557627	-0.187897
O47	O	1.256499	-0.224294	0.145436
O48	O	1.589832	0.109040	0.478770
O49	O	0.840050	-0.557596	-0.271031
O50	O	1.173383	-0.224263	0.062303
O51	O	1.506717	0.109071	0.395636
C52	C	0.736396	-0.380866	-0.260103
C53	C	1.069730	-0.047533	0.073230
C54	C	1.403063	0.285801	0.406563
C55	C	0.661162	-0.380879	-0.260108
C56	C	0.994495	-0.047545	0.073226
C57	C	1.327829	0.285788	0.406559
C58	C	0.617066	-0.431510	-0.294545
C59	C	0.950400	-0.098177	0.038789
C60	C	1.283733	0.235157	0.372122
C61	C	0.546378	-0.431512	-0.294554
C62	C	0.879711	-0.098178	0.038779
C63	C	1.213044	0.235155	0.372113
C64	C	0.519785	-0.380885	-0.260122
C65	C	0.853119	-0.047551	0.073212
C66	C	1.186452	0.285782	0.406545
C67	C	0.563887	-0.330248	-0.225684
C68	C	0.897220	0.003086	0.107649
C69	C	1.230554	0.336419	0.440983
C70	C	0.634575	-0.330243	-0.225679
C71	C	0.967908	0.003090	0.107654
C72	C	1.301242	0.336424	0.440988
C73	C	0.278811	-0.330265	-0.225703
C74	C	0.612144	0.003068	0.107630
C75	C	0.945477	0.336401	0.440963
C76	C	0.208117	-0.330276	-0.225709
C77	C	0.541450	0.003058	0.107624
C78	C	0.874784	0.336391	0.440958
C79	C	0.190613	-0.431534	-0.294578
C80	C	0.523947	-0.098200	0.038755
C81	C	0.857280	0.235133	0.372089
C82	C	0.261301	-0.431529	-0.294573
C83	C	0.594635	-0.098196	0.038760
C84	C	0.927968	0.235138	0.372093
C85	C	0.305397	-0.380889	-0.260139
C86	C	0.638731	-0.047556	0.073195
C87	C	0.972064	0.285777	0.406528
C88	C	0.382046	-0.380887	-0.260130
C89	C	0.715379	-0.047554	0.073203
C90	C	1.048713	0.285779	0.406537
C91	C	0.443137	-0.380890	-0.260126
C92	C	0.776471	-0.047557	0.073207
C93	C	1.109804	0.285776	0.406541
C94	C	0.876652	-0.586299	-0.224502
C95	C	1.209986	-0.252966	0.108831
C96	C	1.543319	0.080368	0.442165
C97	C	0.861485	-0.674177	-0.209286
C98	C	1.194819	-0.340844	0.124047
C99	C	1.528152	-0.007511	0.457381
C100	C	1.027910	-0.962863	-0.375930
C101	C	1.361244	-0.629529	-0.042596
C102	C	1.694577	-0.296196	0.290737
C103	C	1.013637	-1.045438	-0.361620
C104	C	1.346970	-0.712105	-0.028287
C105	C	1.680304	-0.378771	0.305046
C106	C	0.927101	-1.045562	-0.274950
C107	C	1.260434	-0.712229	0.058383
C108	C	1.593767	-0.378895	0.391717
C109	C	0.941369	-0.962985	-0.289250
C110	C	1.274702	-0.629652	0.044083
C111	C	1.608036	-0.296318	0.377417
C112	C	0.991774	-0.921642	-0.339741
C113	C	1.325107	-0.588309	-0.006408
C114	C	1.658440	-0.254975	0.326926
C115	C	0.905232	-0.921764	-0.253061
C116	C	1.238566	-0.588431	0.080272
C117	C	1.571899	-0.255098	0.413605
C118	C	0.919497	-0.839195	-0.267363
C119	C	1.252831	-0.505861	0.065971
C120	C	1.586164	-0.172528	0.399304
C121	C	0.969898	-0.797846	-0.317853
C122	C	1.303232	-0.464512	0.015480
C123	C	1.636565	-0.131179	0.348814
C124	C	1.006039	-0.839072	-0.354043
C125	C	1.339372	-0.505739	-0.020709
C126	C	1.672705	-0.172405	0.312624
C127	C	0.854824	-0.963109	-0.202574
C128	C	1.188158	-0.629776	0.130759
C129	C	1.521491	-0.296442	0.464093
C130	C	0.818688	-0.921888	-0.166385
C131	C	1.152021	-0.588555	0.166948
C132	C	1.485355	-0.255221	0.500281
C133	C	0.832956	-0.839317	-0.180683
C134	C	1.166289	-0.505984	0.152650
C135	C	1.499623	-0.172650	0.485984
C136	C	0.883357	-0.797968	-0.231173
C137	C	1.216690	-0.464635	0.102160
C138	C	1.550024	-0.131301	0.435493
C139	C	0.796816	-0.798090	-0.144494
C140	C	1.130149	-0.464757	0.188840
C141	C	1.463482	-0.131424	0.522173
C142	C	0.811080	-0.715521	-0.158795
C143	C	1.144414	-0.382187	0.174538
C144	C	1.477747	-0.048854	0.507872
C145	C	0.897622	-0.715398	-0.245475
C146	C	1.230955	-0.382065	0.087859
C147	C	1.564288	-0.048732	0.421192
C148	C	1.088790	-0.380897	-0.260142
C149	C	1.422123	-0.047564	0.073191
C150	C	1.755456	0.285770	0.406525
C151	C	1.164020	-0.380904	-0.260150
C152	C	1.497354	-0.047570	0.073183
C153	C	1.830687	0.285763	0.406516
C154	C	0.912296	-0.380831	-0.436674
C155	C	1.245630	-0.047498	-0.103341
C156	C	1.578963	0.285835	0.229993
C157	C	0.912316	-0.380810	-0.511910
C158	C	1.245649	-0.047477	-0.178576
C159	C	1.578983	0.285856	0.154757
C160	C	0.948005	-0.174661	-0.295897
C161	C	1.281338	0.158672	0.037436
C162	C	1.614671	0.492005	0.370770
C163	C	0.963241	-0.086783	-0.311142
C164	C	1.296575	0.246550	0.022192
C165	C	1.629908	0.579884	0.355525
C166	C	0.964375	-0.330244	-0.556032
C167	C	1.297708	0.003089	-0.222699
C168	C	1.631041	0.336423	0.110634
C169	C	0.964386	-0.330221	-0.626725
C170	C	1.297719	0.003112	-0.293392
C171	C	1.631052	0.336446	0.039942
C172	C	0.912340	-0.380769	-0.653292
C173	C	1.245673	-0.047436	-0.319959
C174	C	1.579007	0.285898	0.013374
C175	C	0.860276	-0.431337	-0.609164
C176	C	1.193609	-0.098004	-0.275831
C177	C	1.526943	0.235329	0.057502
C178	C	0.860263	-0.431356	-0.538474
C179	C	1.193596	-0.098022	-0.205141
C180	C	1.526930	0.235311	0.128193
C181	C	0.860327	-0.431264	-0.894250
C182	C	1.193660	-0.097930	-0.560917
C183	C	1.526994	0.235403	-0.227584
C184	C	0.860345	-0.431243	-0.964946
C185	C	1.193679	-0.097910	-0.631613
C186	C	1.527012	0.235424	-0.298280
C187	C	0.964450	-0.330129	-0.982501
C188	C	1.297783	0.003204	-0.649168
C189	C	1.631116	0.336538	-0.315835
C190	C	0.964437	-0.330147	-0.911811
C191	C	1.297770	0.003186	-0.578478
C192	C	1.631103	0.336519	-0.245144
C193	C	0.912371	-0.380712	-0.867690
C194	C	1.245704	-0.047379	-0.534356
C195	C	1.579038	0.285954	-0.201023
C196	C	0.912359	-0.380736	-0.791037
C197	C	1.245693	-0.047402	-0.457704
C198	C	1.579026	0.285931	-0.124371
C199	C	0.912354	-0.380750	-0.729943
C200	C	1.245687	-0.047417	-0.396609
C201	C	1.579021	0.285916	-0.063276
C202	C	0.912252	-0.380874	-0.084268
C203	C	1.245585	-0.047540	0.249066
C204	C	1.578919	0.285793	0.582399
C205	C	0.912402	-0.380672	-0.009071
C206	C	1.245735	-0.047339	0.324262
C207	C	1.579069	0.285994	0.657596
H208	H	0.154702	-0.472764	-0.322620
H209	H	0.488035	-0.139431	0.010714
H210	H	0.821369	0.193903	0.344047
F211	F	0.289598	-0.485416	-0.331218
F212	F	0.622931	-0.152082	0.002116
F213	F	0.956265	0.181251	0.335449
H214	H	0.817960	-0.472407	-0.986574
H215	H	1.151294	-0.139074	-0.653241
H216	H	1.484627	0.194260	-0.319908
H217	H	0.186469	-0.289044	-0.197671
H218	H	0.519803	0.044289	0.135662
H219	H	0.853136	0.377622	0.468996
F220	F	0.325732	-0.276368	-0.189057
F221	F	0.659066	0.056965	0.144277
F222	F	0.992399	0.390299	0.477610
H223	H	0.817898	-0.472491	-0.630802
H224	H	1.151231	-0.139158	-0.297468
H225	H	1.484564	0.194175	0.035865
H226	H	0.542231	-0.289023	-0.197652
H227	H	0.875564	0.044310	0.135681
H228	H	1.208897	0.377643	0.469015
F229	F	0.681506	-0.276352	-0.189028
F230	F	1.014839	0.056981	0.144305
F231	F	1.348172	0.390314	0.477638
H232	H	0.938672	-0.681735	-0.286585
H233	H	1.272005	-0.348402	0.046749
H234	H	1.605338	-0.015068	0.380082
F235	F	0.743165	-0.842101	-0.090768
F236	F	1.076498	-0.508768	0.242565
F237	F	1.409831	-0.175434	0.575899
F238	F	1.019832	-0.276350	-0.883540
F239	F	1.353166	0.056983	-0.550206
F240	F	1.686499	0.390316	-0.216873
H241	H	0.981512	-0.730612	-0.329496
H242	H	1.314845	-0.397279	0.003837
H243	H	1.648179	-0.063945	0.337171
F244	F	1.019812	-0.276429	-0.673676
F245	F	1.353146	0.056905	-0.340343
F246	F	1.686479	0.390238	-0.007010
H247	H	0.510477	-0.472742	-0.322595
H248	H	0.843810	-0.139408	0.010738
H249	H	1.177144	0.193925	0.344071
H250	H	0.777647	-0.955561	-0.125277
H251	H	1.110980	-0.622228	0.208056
H252	H	1.444313	-0.288894	0.541390
H253	H	1.047088	-0.805409	-0.395153
H254	H	1.380422	-0.472076	-0.061819
H255	H	1.713755	-0.138742	0.271514
H256	H	1.068960	-0.929200	-0.417040
H257	H	1.402293	-0.595866	-0.083706
H258	H	1.735627	-0.262533	0.249627
H259	H	0.781654	-0.681958	-0.129327
H260	H	1.114987	-0.348625	0.204006
H261	H	1.448320	-0.015292	0.537340
H262	H	1.043058	-1.078997	-0.391103
H263	H	1.376391	-0.745664	-0.057770
H264	H	1.709725	-0.412330	0.275564
F265	F	0.804854	-0.485173	-0.491515
F266	F	1.138187	-0.151840	-0.158182
F267	F	1.471520	0.181493	0.175151
F268	F	0.873453	-1.089571	-0.221220
F269	F	1.206787	-0.756237	0.112113
F270	F	1.540120	-0.422904	0.445446
F271	F	0.804914	-0.485080	-0.847302
F272	F	1.138248	-0.151746	-0.513969
F273	F	1.471581	0.181587	-0.180635
H274	H	0.638711	-0.472739	-0.322581
H275	H	0.972045	-0.139406	0.010753
H276	H	1.305378	0.193928	0.344086
H277	H	1.006842	-0.288953	-1.018435
H278	H	1.340175	0.044380	-0.685101
H279	H	1.673509	0.377713	-0.351768
H280	H	0.843205	-1.030342	-0.190938
H281	H	1.176539	-0.697009	0.142395
H282	H	1.509872	-0.363676	0.475729
H283	H	1.006758	-0.289084	-0.534407
H284	H	1.340092	0.044249	-0.201073
H285	H	1.673425	0.377582	0.132260
