data_functionalizedCrystal
_audit_creation_method	'MofGen! by Chris Wilmer'
_symmetry_space_group_name_H-M	'P1'
_symmetry_Int_Tables_number	1
_symmetry_cell_setting	triclinic
loop_
_symmetry_equiv_pos_as_xyz
  x,y,z
_cell_length_a	14.519709
_cell_length_b	17.699083
_cell_length_c	16.176319
_cell_angle_alpha	89.998611
_cell_angle_beta	89.992256
_cell_angle_gamma	83.481580
loop_
_atom_site_label
_atom_site_type_symbol
_atom_site_fract_x
_atom_site_fract_y
_atom_site_fract_z
O1	O	0.116624	1.004413	-0.068632
O2	O	0.131798	0.784078	-0.068660
O3	O	-0.010052	0.900087	-0.068638
O4	O	0.258474	0.888403	-0.068654
O5	O	-0.010061	0.900071	0.068855
O6	O	0.131789	0.784062	0.068833
O7	O	0.116615	1.004397	0.068861
Cu8	Cu	0.124201	0.894228	0.081401
Cu9	Cu	0.124212	0.894247	-0.081200
O10	O	0.258465	0.888387	0.068839
C11	C	0.131249	0.755871	0.000083
C12	C	0.129618	0.671848	0.000073
C13	C	0.212881	0.623466	0.000068
C14	C	0.211343	0.544518	0.000079
C15	C	0.126541	0.513954	0.000089
C16	C	0.043272	0.562343	0.000096
C17	C	0.044811	0.641289	0.000091
C18	C	0.037064	0.243962	0.000117
C19	C	0.035531	0.165010	0.000119
C20	C	0.203596	0.147191	0.000105
C21	C	0.205135	0.226137	0.000100
C22	C	0.121866	0.274519	0.000112
C23	C	0.123535	0.360123	0.000102
C24	C	0.124872	0.428352	0.000093
C25	C	-0.044414	0.899534	0.000109
C26	C	-0.146789	0.897903	0.000109
C27	C	-0.521659	0.891896	0.000087
C28	C	-0.417358	0.893564	0.000093
C29	C	-0.334227	0.894899	0.000099
C30	C	-0.229920	0.896568	0.000104
C31	C	0.292827	0.888940	0.000090
C32	C	0.395202	0.890572	0.000085
N33	N	0.124193	0.894220	0.195767
C34	C	0.117164	1.032603	0.000116
C35	C	0.118795	1.116626	0.000121
N36	N	0.124213	0.894260	-0.195565
C37	C	0.061408	0.945604	0.239040
C38	C	0.061407	0.945608	0.325588
C39	C	0.124196	0.894231	0.368859
C40	C	0.186985	0.842841	0.325579
C41	C	0.186981	0.842834	0.239034
C42	C	0.187002	0.842867	0.674608
C43	C	0.187003	0.842879	0.761159
C44	C	0.061428	0.945641	0.761161
C45	C	0.061424	0.945634	0.674616
C46	C	0.124209	0.894242	0.631343
C47	C	0.124208	0.894237	0.537499
C48	C	0.124202	0.894238	0.462702
H49	H	0.271397	0.107789	0.000100
H50	H	0.238125	0.801023	0.639382
O51	O	0.254715	0.787427	0.372245
H52	H	0.244179	0.796069	0.439696
O53	O	0.254703	0.787416	0.192353
H54	H	0.298372	0.751696	0.236981
O55	O	-0.052743	0.296142	0.000129
H56	H	-0.111966	0.261623	0.000130
O57	O	0.301152	0.492337	0.000073
H58	H	0.285838	0.432306	0.000089
H59	H	-0.033529	0.140129	0.000128
O60	O	-0.006311	1.001040	0.627944
H61	H	0.032444	1.037877	0.588502
H62	H	0.010302	0.987485	0.796403
O63	O	0.254746	0.787469	0.807827
H64	H	0.243088	0.728450	0.791240
O65	O	0.304347	0.656430	0.000066
H66	H	0.361985	0.609520	0.000075
O67	O	0.296598	0.259105	0.000102
H68	H	0.354240	0.212197	0.000112
H69	H	0.010281	0.987445	0.203814
O70	O	-0.044994	0.693478	0.000103
H71	H	-0.048312	0.729879	-0.055932
O72	O	-0.048197	0.529385	0.000110
H73	H	-0.035281	0.466360	0.000105
H74	H	0.010281	0.987449	0.360821
