data_functionalizedCrystal
_audit_creation_method	'MofGen! by Chris Wilmer'
_symmetry_space_group_name_H-M	'P1'
_symmetry_Int_Tables_number	1
_symmetry_cell_setting	triclinic
loop_
_symmetry_equiv_pos_as_xyz
  x,y,z
_cell_length_a	19.077105
_cell_length_b	13.032721
_cell_length_c	19.076919
_cell_angle_alpha	80.861841
_cell_angle_beta	89.923776
_cell_angle_gamma	95.201395
loop_
_atom_site_label
_atom_site_type_symbol
_atom_site_fract_x
_atom_site_fract_y
_atom_site_fract_z
Zn1	Zn	1.013397	-0.505360	0.481832
Zn2	Zn	1.513397	-0.005360	0.981832
Zn3	Zn	1.003124	-0.673317	0.378090
Zn4	Zn	1.503124	-0.173317	0.878090
Zn5	Zn	0.901858	-0.491366	0.358479
Zn6	Zn	1.401858	0.008634	0.858479
Zn7	Zn	0.881001	-0.672687	0.490791
Zn8	Zn	1.381001	-0.172687	0.990791
O9	O	0.949845	-0.585683	0.427298
O10	O	1.449845	-0.085683	0.927298
O11	O	1.109823	-0.533760	0.472529
O12	O	1.609823	-0.033760	0.972529
O13	O	0.994119	-0.643588	0.276699
O14	O	1.494119	-0.143588	0.776699
O15	O	0.929682	-0.347048	0.362886
O16	O	1.429682	0.152952	0.862886
O17	O	1.102275	-0.657157	0.396309
O18	O	1.602275	-0.157157	0.896309
O19	O	1.011630	-0.357329	0.453513
O20	O	1.511630	0.142671	0.953513
O21	O	0.919720	-0.509909	0.262291
O22	O	1.419720	-0.009909	0.762291
O23	O	0.801303	-0.509299	0.371572
O24	O	1.301303	-0.009299	0.871572
O25	O	0.894135	-0.656084	0.588392
O26	O	1.394135	-0.156084	1.088392
O27	O	0.785980	-0.642515	0.468781
O28	O	1.285980	-0.142515	0.968781
O29	O	0.991406	-0.533149	0.581810
O30	O	1.491406	-0.033149	1.081810
O31	O	0.973896	-0.819408	0.404996
O32	O	1.473896	-0.319408	0.904996
O33	O	0.884173	-0.818945	0.487797
O34	O	1.384173	-0.318945	0.987797
C35	C	0.768286	-0.574321	0.419021
C36	C	1.268286	-0.074321	0.919021
C37	C	0.690611	-0.569486	0.415499
C38	C	1.190611	-0.069486	0.915499
C39	C	0.925675	-0.857080	0.449513
C40	C	1.425675	-0.357080	0.949513
C41	C	0.915397	-0.973191	0.459043
C42	C	1.415397	-0.473191	0.959043
C43	C	0.646154	-0.636670	0.464393
C44	C	1.146154	-0.136670	0.964393
C45	C	0.573171	-0.632114	0.461086
C46	C	1.073171	-0.132114	0.961086
C47	C	0.544646	-0.560378	0.408881
C48	C	1.044646	-0.060378	0.908881
C49	C	0.589109	-0.493187	0.359985
C50	C	1.089109	0.006813	0.859985
C51	C	0.662091	-0.497739	0.363296
C52	C	1.162091	0.002261	0.863296
C53	C	0.327230	-0.539312	0.393562
C54	C	0.827230	-0.039312	0.893562
C55	C	0.254242	-0.534767	0.390254
C56	C	0.754242	-0.034767	0.890254
C57	C	0.238309	-0.673693	0.491357
C58	C	0.738309	-0.173693	0.991357
C59	C	0.311292	-0.678243	0.494660
C60	C	0.811292	-0.178243	0.994660
C61	C	0.355749	-0.611048	0.445766
C62	C	0.855749	-0.111048	0.945766
N63	N	0.470046	-0.555721	0.405499
N64	N	0.970046	-0.055721	0.905499
N65	N	0.430348	-0.615700	0.449153
N66	N	0.930348	-0.115700	0.949153
C67	C	0.955245	-1.025155	0.422357
C68	C	1.455245	-0.525155	0.922357
C69	C	0.944623	-1.145161	0.432206
C70	C	1.444623	-0.645161	0.932206
C71	C	1.132113	-0.597090	0.435607
C72	C	1.632113	-0.097090	0.935607
C73	C	1.209785	-0.601951	0.439148
C74	C	1.709785	-0.101951	0.939148
C75	C	0.941590	-0.596107	0.611432
C76	C	1.441590	-0.096107	1.111432
C77	C	0.938072	-0.600549	0.689899
C78	C	1.438072	-0.100549	1.189899
C79	C	0.974128	-0.313227	0.405012
C80	C	1.474128	0.186773	0.905012
C81	C	0.984476	-0.197123	0.395516
C82	C	1.484476	0.302877	0.895516
C83	C	0.958115	-0.575226	0.243875
C84	C	1.458115	-0.075226	0.743875
C85	C	0.961794	-0.570498	0.165391
C86	C	1.461794	-0.070498	0.665391
C87	C	0.987061	-0.538633	0.723338
C88	C	1.487061	-0.038633	1.223338
C89	C	0.983747	-0.542803	0.797065
C90	C	1.483747	-0.042803	1.297065
C91	C	0.931448	-0.608894	0.837354
C92	C	1.431448	-0.108894	1.337354
C93	C	0.882454	-0.670812	0.803910
C94	C	1.382454	-0.170812	1.303910
C95	C	0.885765	-0.666637	0.730183
C96	C	1.385765	-0.166637	1.230183
C97	C	0.916112	-0.628240	1.058220
C98	C	1.416112	-0.128240	1.558220
C99	C	0.912806	-0.632414	1.131952
C100	C	1.412806	-0.132414	1.631952
C101	C	1.014098	-0.504402	1.125102
C102	C	1.514098	-0.004402	1.625102
C103	C	1.017407	-0.500237	1.051375
C104	C	1.517407	-0.000237	1.551375
C105	C	0.968412	-0.562151	1.017937
C106	C	1.468412	-0.062151	1.517937
N107	N	0.928061	-0.613160	0.912715
N108	N	1.428061	-0.113160	1.412715
N109	N	0.971796	-0.557879	0.942576
N110	N	1.471796	-0.057879	1.442576
H111	H	0.669372	-0.695088	0.506902
H112	H	1.169372	-0.195088	1.006902
H113	H	0.997225	-0.980802	0.383660
H114	H	1.497225	-0.480802	0.883660
O115	O	0.889007	-1.203895	0.483468
O116	O	1.389007	-0.703895	0.983468
H117	H	0.889386	-1.288934	0.483153
H118	H	1.389386	-0.788934	0.983153
O119	O	1.040089	-1.138391	0.344250
O120	O	1.540089	-0.638391	0.844250
H121	H	1.039705	-1.053350	0.344555
H122	H	1.539705	-0.553350	0.844555
H123	H	0.873422	-1.017547	0.497745
H124	H	1.373422	-0.517547	0.997745
H125	H	1.029650	-0.484818	0.690541
H126	H	1.529650	0.015182	1.190541
O127	O	0.525206	-0.704767	0.513702
O128	O	1.025206	-0.204767	1.013702
H129	H	0.557298	-0.755492	0.550510
H130	H	1.057298	-0.255492	1.050510
H131	H	0.845867	-0.717044	0.702958
H132	H	1.345867	-0.217044	1.202958
H133	H	0.334511	-0.736660	0.537169
H134	H	0.834511	-0.236660	1.037169
O135	O	1.036588	-0.476029	0.833135
O136	O	1.536588	0.023971	1.333135
H137	H	1.073517	-0.429383	0.792735
H138	H	1.573517	0.070617	1.292735
H139	H	1.059997	-0.446421	1.018577
H140	H	1.559997	0.053579	1.518577
H141	H	1.053987	-0.453994	1.152335
H142	H	1.553987	0.046006	1.652335
O143	O	0.856388	-0.703688	1.175411
O144	O	1.356388	-0.203688	1.675411
H145	H	0.861687	-0.785622	1.168512
H146	H	1.361687	-0.285622	1.668512
O147	O	0.190362	-0.746154	0.544098
O148	O	0.690362	-0.246154	1.044098
H149	H	0.134821	-0.730934	0.533033
H150	H	0.634821	-0.230934	1.033033
O151	O	0.863239	-0.694960	1.022152
O152	O	1.363239	-0.194960	1.522152
H153	H	0.826310	-0.741603	1.062554
H154	H	1.326310	-0.241603	1.562554
H155	H	0.839869	-0.724621	0.836718
H156	H	1.339869	-0.224621	1.336718
H157	H	0.363418	-0.484604	0.353745
H158	H	0.863418	0.015396	0.853745
O159	O	0.223458	-0.457404	0.333947
O160	O	0.723458	0.042596	0.833947
H161	H	0.244197	-0.377004	0.340071
H162	H	0.744197	0.122996	0.840071
O163	O	0.558348	-0.415837	0.303660
O164	O	1.058348	0.084163	0.803660
H165	H	0.500129	-0.423974	0.309561
H166	H	1.000129	0.076026	0.809561
O167	O	0.710046	-0.425289	0.310554
O168	O	1.210046	0.074711	0.810554
H169	H	0.677951	-0.374651	0.273690
H170	H	1.177951	0.125349	0.773690
