data_functionalizedCrystal
_audit_creation_method	'MofGen! by Chris Wilmer'
_symmetry_space_group_name_H-M	'P1'
_symmetry_Int_Tables_number	1
_symmetry_cell_setting	triclinic
loop_
_symmetry_equiv_pos_as_xyz
  x,y,z
_cell_length_a	10.489741
_cell_length_b	10.489741
_cell_length_c	9.565339
_cell_angle_alpha	89.999484
_cell_angle_beta	89.999100
_cell_angle_gamma	95.460826
loop_
_atom_site_label
_atom_site_type_symbol
_atom_site_fract_x
_atom_site_fract_y
_atom_site_fract_z
O1	O	1.694053	-0.179959	-0.116173
O2	O	1.322857	-0.196852	-0.116194
O3	O	1.516901	-0.002807	-0.116175
O4	O	1.500009	-0.374003	-0.116192
O5	O	1.516886	-0.002819	0.116345
O6	O	1.322842	-0.196864	0.116326
O7	O	1.694038	-0.179971	0.116347
Zn8	Zn	1.508437	-0.188419	0.153254
Zn9	Zn	1.508458	-0.188403	-0.153101
O10	O	1.499993	-0.374015	0.116328
C11	C	1.275318	-0.195582	0.000063
C12	C	1.133688	-0.191765	0.000055
C13	C	1.065548	-0.068300	0.000074
C14	C	0.973429	-0.126617	-0.114571
C15	C	0.973448	-0.126659	0.114676
C16	C	1.043435	-0.250133	-0.114684
C17	C	1.043463	-0.250157	0.114665
C18	C	0.951371	-0.308564	-0.000007
C19	C	1.515618	0.044718	0.000084
C20	C	1.511801	0.186348	0.000082
C21	C	1.741577	-0.181241	0.000087
C22	C	1.883206	-0.185058	0.000086
C23	C	1.501277	-0.421541	0.000066
C24	C	1.505094	-0.563170	0.000059
N25	N	1.508433	-0.188429	0.362334
C26	C	1.388336	0.254488	0.000064
C27	C	1.446652	0.346604	0.114712
C28	C	1.446696	0.346591	-0.114534
C29	C	1.570168	0.276599	0.114824
C30	C	1.570195	0.276576	-0.114525
C31	C	1.628600	0.368665	0.000150
N32	N	1.508472	-0.188383	-0.362180
C33	C	1.418666	-0.278138	0.453528
C34	C	1.534163	-0.303949	0.546712
C35	C	1.392986	-0.162629	0.546704
C36	C	1.623988	-0.214298	0.453466
C37	C	1.482735	-0.072928	0.453451
C38	C	1.598314	-0.098690	0.546593
H39	H	1.074269	-0.302328	-0.211717
H40	H	1.460936	0.024699	0.412454
H41	H	1.115238	0.033196	-0.000065
H42	H	1.674328	-0.022802	0.587199
H43	H	1.721659	-0.236217	0.412683
C44	C	1.250320	0.330300	0.245337
C45	C	1.376126	0.388475	0.245548
H46	H	1.206775	0.356152	0.326103
H47	H	1.251564	0.239880	0.245854
H48	H	1.207294	0.355432	0.163917
H49	H	1.419155	0.363334	0.326964
H50	H	1.374888	0.478914	0.245044
H51	H	1.730204	0.418089	0.000220
H52	H	1.295338	-0.140828	0.587664
H53	H	1.074503	-0.302360	0.211590
C54	C	0.989728	0.069714	-0.245195
C55	C	0.931553	-0.056092	-0.245404
H56	H	0.963871	0.113258	-0.325959
H57	H	1.080147	0.068471	-0.245718
H58	H	0.964598	0.112740	-0.163773
H59	H	0.956691	-0.099121	-0.326821
H60	H	0.841114	-0.054855	-0.244895
H61	H	0.942463	-0.074401	0.211599
C62	C	1.747574	0.173565	0.205425
C63	C	1.640617	0.234979	0.245823
H64	H	1.791055	0.147862	0.286300
H65	H	1.803664	0.230815	0.151853
H66	H	1.720532	0.100352	0.150742
H67	H	1.667659	0.308197	0.300498
H68	H	1.584516	0.177725	0.299418
C69	C	0.919958	-0.510033	-0.120235
C70	C	0.884635	-0.445718	-0.000093
H71	H	0.878748	-0.594701	-0.120294
H72	H	1.010148	-0.513192	-0.121000
H73	H	0.894912	-0.465832	-0.200890
H74	H	0.909689	-0.489914	0.080562
H75	H	0.794426	-0.442565	0.000685
C76	C	1.186028	0.224289	-0.118639
C77	C	1.251300	0.187460	0.000204
H78	H	1.101428	0.182914	-0.118540
H79	H	1.229693	0.200465	-0.200165
H80	H	1.182678	0.314465	-0.117794
H81	H	1.254658	0.097284	-0.000646
H82	H	1.207624	0.211275	0.081752
C83	C	1.575840	0.269605	-0.365315
C84	C	1.640665	0.234655	-0.245367
H85	H	1.619335	0.243714	-0.446097
H86	H	1.573253	0.359861	-0.366723
H87	H	1.490972	0.228924	-0.364481
H88	H	1.725530	0.275345	-0.246197
H89	H	1.643266	0.144383	-0.243960
C90	C	1.374332	0.521718	-0.244645
C91	C	1.376160	0.388420	-0.245381
H92	H	1.330771	0.547533	-0.325416
H93	H	1.459671	0.561176	-0.244796
H94	H	1.331292	0.546842	-0.163230
H95	H	1.419208	0.363296	-0.326792
H96	H	1.290805	0.348948	-0.245243
C97	C	1.343542	-0.501494	0.445423
C98	C	1.316287	-0.380640	0.398341
H99	H	1.280346	-0.564773	0.411342
H100	H	1.343359	-0.502692	0.544712
H101	H	1.425398	-0.518985	0.412122
H102	H	1.234434	-0.363144	0.431651
H103	H	1.316457	-0.379439	0.299031
H104	H	1.555926	-0.401606	0.587676
