data_functionalizedCrystal
_audit_creation_method	'MofGen! by Chris Wilmer'
_symmetry_space_group_name_H-M	'P1'
_symmetry_Int_Tables_number	1
_symmetry_cell_setting	triclinic
loop_
_symmetry_equiv_pos_as_xyz
  x,y,z
_cell_length_a	18.050589
_cell_length_b	16.625548
_cell_length_c	16.625539
_cell_angle_alpha	90.020568
_cell_angle_beta	89.975176
_cell_angle_gamma	89.970711
loop_
_atom_site_label
_atom_site_type_symbol
_atom_site_fract_x
_atom_site_fract_y
_atom_site_fract_z
Zn1	Zn	-0.295637	-1.232648	-0.455929
Zn2	Zn	-0.045637	-0.982648	-0.205929
Zn3	Zn	0.204363	-0.732648	0.044071
Zn4	Zn	0.454363	-0.482648	0.294071
Zn5	Zn	-0.419835	-1.232538	-0.321104
Zn6	Zn	-0.169835	-0.982538	-0.071104
Zn7	Zn	0.080165	-0.732538	0.178896
Zn8	Zn	0.330165	-0.482538	0.428896
Zn9	Zn	-0.295665	-1.097810	-0.321109
Zn10	Zn	-0.045665	-0.847810	-0.071109
Zn11	Zn	0.204335	-0.597810	0.178891
Zn12	Zn	0.454335	-0.347810	0.428891
Zn13	Zn	-0.419792	-1.097767	-0.455894
Zn14	Zn	-0.169792	-0.847767	-0.205894
Zn15	Zn	0.080208	-0.597767	0.044106
Zn16	Zn	0.330208	-0.347767	0.294106
O17	O	-0.357732	-1.165191	-0.388509
O18	O	-0.107732	-0.915191	-0.138509
O19	O	0.142268	-0.665191	0.111491
O20	O	0.392268	-0.415191	0.361491
O21	O	-0.312118	-1.345466	-0.438056
O22	O	-0.062118	-1.095466	-0.188056
O23	O	0.187882	-0.845466	0.061944
O24	O	0.437882	-0.595466	0.311944
O25	O	-0.403393	-1.214638	-0.208272
O26	O	-0.153393	-0.964638	0.041728
O27	O	0.096607	-0.714638	0.291728
O28	O	0.346607	-0.464638	0.541728
O29	O	-0.191737	-1.115761	-0.339010
O30	O	0.058263	-0.865761	-0.089010
O31	O	0.308263	-0.615761	0.160990
O32	O	0.558263	-0.365761	0.410990
O33	O	-0.403366	-1.345385	-0.339001
O34	O	-0.153366	-1.095385	-0.089001
O35	O	0.096634	-0.845385	0.160999
O36	O	0.346634	-0.595385	0.410999
O37	O	-0.191716	-1.214826	-0.438061
O38	O	0.058284	-0.964826	-0.188061
O39	O	0.308284	-0.714826	0.061939
O40	O	0.558284	-0.464826	0.311939
O41	O	-0.312166	-1.115654	-0.208276
O42	O	-0.062166	-0.865654	0.041724
O43	O	0.187834	-0.615654	0.291724
O44	O	0.437834	-0.365654	0.541724
O45	O	-0.312125	-0.984972	-0.338976
O46	O	-0.062125	-0.734972	-0.088976
O47	O	0.187875	-0.484972	0.161024
O48	O	0.437875	-0.234972	0.411024
O49	O	-0.403293	-1.115687	-0.568731
O50	O	-0.153293	-0.865687	-0.318731
O51	O	0.096707	-0.615687	-0.068731
O52	O	0.346707	-0.365687	0.181269
O53	O	-0.403320	-0.984940	-0.438002
O54	O	-0.153320	-0.734940	-0.188002
O55	O	0.096680	-0.484940	0.061998
O56	O	0.346680	-0.234940	0.311998
O57	O	-0.312077	-1.214784	-0.568757
O58	O	-0.062077	-0.964784	-0.318757
O59	O	0.187923	-0.714784	-0.068757
O60	O	0.437923	-0.464784	0.181243
O61	O	-0.523754	-1.214596	-0.338968
O62	O	-0.273754	-0.964596	-0.088968
O63	O	-0.023754	-0.714596	0.161032
O64	O	0.226246	-0.464596	0.411032
O65	O	-0.523722	-1.115580	-0.437997
O66	O	-0.273722	-0.865580	-0.187997
O67	O	-0.023722	-0.615580	0.062003
O68	O	0.226278	-0.365580	0.312003
C69	C	-0.550684	-1.165093	-0.388496
C70	C	-0.300684	-0.915093	-0.138496
C71	C	-0.050684	-0.665093	0.111504
C72	C	0.199316	-0.415093	0.361504
C73	C	-0.633230	-1.165126	-0.388517
C74	C	-0.383230	-0.915126	-0.138517
C75	C	-0.133230	-0.665126	0.111483
C76	C	0.116770	-0.415126	0.361483
C77	C	-0.357722	-0.955700	-0.388487
C78	C	-0.107722	-0.705700	-0.138487
C79	C	0.142278	-0.455700	0.111513
C80	C	0.392278	-0.205700	0.361513
C81	C	-0.357735	-0.866079	-0.388496
C82	C	-0.107735	-0.616079	-0.138496
C83	C	0.142265	-0.366079	0.111504
C84	C	0.392265	-0.116079	0.361504
C85	C	-0.357677	-1.165243	-0.598818
C86	C	-0.107677	-0.915243	-0.348818
C87	C	0.142323	-0.665243	-0.098818
C88	C	0.392323	-0.415243	0.151182
C89	C	-0.357653	-1.165266	-0.688439
C90	C	-0.107653	-0.915266	-0.438439
C91	C	0.142347	-0.665266	-0.188439
C92	C	0.392347	-0.415266	0.061561
C93	C	-0.832691	-1.111334	-0.442350
C94	C	-0.582691	-0.861334	-0.192350
C95	C	-0.332691	-0.611334	0.057650
C96	C	-0.082691	-0.361334	0.307650
C97	C	-0.882133	-1.091677	-0.368775
C98	C	-0.632133	-0.841677	-0.118775
C99	C	-0.382133	-0.591677	0.131225
C100	C	-0.132133	-0.341677	0.381225
C101	C	-0.784360	-1.165205	-0.388528
C102	C	-0.534360	-0.915205	-0.138528
C103	C	-0.284360	-0.665205	0.111472
C104	C	-0.034360	-0.415205	0.361472
C105	C	-0.882000	-1.184901	-0.462112
C106	C	-0.632000	-0.934901	-0.212112
C107	C	-0.382000	-0.684901	0.037888
C108	C	-0.132000	-0.434901	0.287888
C109	C	-0.930346	-1.165280	-0.388544
C110	C	-0.680346	-0.915280	-0.138544
C111	C	-0.430346	-0.665280	0.111456
C112	C	-0.180346	-0.415280	0.361456
C113	C	-0.832715	-1.145510	-0.314913
C114	C	-0.582715	-0.895510	-0.064913
C115	C	-0.332715	-0.645510	0.185087
C116	C	-0.082715	-0.395510	0.435087
C117	C	-0.832578	-1.238767	-0.408300
C118	C	-0.582578	-0.988767	-0.158300
C119	C	-0.332578	-0.738767	0.091700
C120	C	-0.082578	-0.488767	0.341700
C121	C	-0.881998	-1.219139	-0.334673
C122	C	-0.631998	-0.969139	-0.084673
C123	C	-0.381998	-0.719139	0.165327
C124	C	-0.131998	-0.469139	0.415327
C125	C	-0.700262	-1.165160	-0.388519
C126	C	-0.450262	-0.915160	-0.138519
C127	C	-0.200262	-0.665160	0.111481
C128	C	0.049738	-0.415160	0.361481
C129	C	-1.014442	-1.165325	-0.388544
C130	C	-0.764442	-0.915325	-0.138544
C131	C	-0.514442	-0.665325	0.111456
C132	C	-0.264442	-0.415325	0.361456
C133	C	-0.164027	-1.165310	-0.388540
C134	C	0.085973	-0.915310	-0.138540
C135	C	0.335973	-0.665310	0.111460
C136	C	0.585973	-0.415310	0.361460
C137	C	-0.081481	-1.165361	-0.388553
C138	C	0.168519	-0.915361	-0.138553
C139	C	0.418519	-0.665361	0.111447
C140	C	0.668519	-0.415361	0.361447
C141	C	-0.357743	-1.375500	-0.388532
C142	C	-0.107743	-1.125500	-0.138532
C143	C	0.142257	-0.875500	0.111468
C144	C	0.392257	-0.625500	0.361468
C145	C	-0.357748	-1.465121	-0.388542
C146	C	-0.107748	-1.215121	-0.138542
C147	C	0.142252	-0.965121	0.111458
C148	C	0.392252	-0.715121	0.361458
C149	C	-0.357740	-0.537903	-0.388531
C150	C	-0.107740	-0.287903	-0.138531
C151	C	0.142260	-0.037903	0.111469
C152	C	0.392260	0.212097	0.361469
C153	C	-0.357736	-0.629212	-0.388518
C154	C	-0.107736	-0.379212	-0.138518
C155	C	0.142264	-0.129212	0.111482
C156	C	0.392264	0.120788	0.361482
C157	C	-0.357738	-0.701988	-0.388513
C158	C	-0.107738	-0.451988	-0.138513
C159	C	0.142262	-0.201988	0.111487
C160	C	0.392262	0.048012	0.361487
C161	C	-0.357734	-0.793302	-0.388502
C162	C	-0.107734	-0.543302	-0.138502
C163	C	0.142266	-0.293302	0.111498
C164	C	0.392266	-0.043302	0.361498
C165	C	-0.357570	-1.165303	-1.016615
C166	C	-0.107570	-0.915303	-0.766615
C167	C	0.142430	-0.665303	-0.516615
C168	C	0.392430	-0.415303	-0.266615
C169	C	-0.357596	-1.165290	-0.925307
C170	C	-0.107596	-0.915290	-0.675307
C171	C	0.142404	-0.665290	-0.425307
C172	C	0.392404	-0.415290	-0.175307
C173	C	-0.357612	-1.165285	-0.852530
C174	C	-0.107612	-0.915285	-0.602530
C175	C	0.142388	-0.665285	-0.352530
C176	C	0.392388	-0.415285	-0.102530
C177	C	-0.357637	-1.165271	-0.761216
C178	C	-0.107637	-0.915271	-0.511216
C179	C	0.142363	-0.665271	-0.261216
C180	C	0.392363	-0.415271	-0.011216
C181	C	-0.357734	-1.165185	-0.179018
C182	C	-0.107734	-0.915185	0.070982
C183	C	0.142266	-0.665185	0.320982
C184	C	0.392266	-0.415185	0.570982
C185	C	-0.357548	-1.165319	-0.089398
C186	C	-0.107548	-0.915319	0.160602
C187	C	0.142452	-0.665319	0.410602
C188	C	0.392452	-0.415319	0.660602
H189	H	-0.903916	-1.029503	-0.352066
H190	H	-0.653916	-0.779503	-0.102066
H191	H	-0.403916	-0.529503	0.147934
H192	H	-0.153916	-0.279503	0.397934
C193	C	-0.886038	-1.259903	-0.196211
C194	C	-0.636038	-1.009903	0.053789
C195	C	-0.386038	-0.759903	0.303789
C196	C	-0.136038	-0.509903	0.553789
C197	C	-0.911051	-1.280681	-0.273171
C198	C	-0.661051	-1.030681	-0.023171
C199	C	-0.411051	-0.780681	0.226829
C200	C	-0.161051	-0.530681	0.476829
H201	H	-0.903980	-1.297892	-0.158242
H202	H	-0.653980	-1.047892	0.091758
H203	H	-0.403980	-0.797892	0.341758
H204	H	-0.153980	-0.547892	0.591758
H205	H	-0.833421	-1.259900	-0.195568
H206	H	-0.583421	-1.009900	0.054432
H207	H	-0.333421	-0.759900	0.304432
H208	H	-0.083421	-0.509900	0.554432
H209	H	-0.903760	-1.207830	-0.182625
H210	H	-0.653760	-0.957830	0.067375
H211	H	-0.403760	-0.707830	0.317375
H212	H	-0.153760	-0.457830	0.567375
H213	H	-0.893324	-1.332752	-0.286759
H214	H	-0.643324	-1.082752	-0.036759
H215	H	-0.393324	-0.832752	0.213241
H216	H	-0.143324	-0.582752	0.463241
H217	H	-0.963678	-1.280693	-0.273816
H218	H	-0.713678	-1.030693	-0.023816
H219	H	-0.463678	-0.780693	0.226184
H220	H	-0.213678	-0.530693	0.476184
C221	C	-0.725603	-1.321908	-0.429918
C222	C	-0.475603	-1.071908	-0.179918
C223	C	-0.225603	-0.821908	0.070082
C224	C	0.024397	-0.571908	0.320082
C225	C	-0.803167	-1.322682	-0.430895
C226	C	-0.553167	-1.072682	-0.180895
C227	C	-0.303167	-0.822682	0.069105
C228	C	-0.053167	-0.572682	0.319105
H229	H	-0.707447	-1.373715	-0.443869
H230	H	-0.457447	-1.123715	-0.193869
H231	H	-0.207447	-0.873715	0.056131
H232	H	0.042553	-0.623715	0.306131
H233	H	-0.707992	-1.283488	-0.467614
H234	H	-0.457992	-1.033488	-0.217614
H235	H	-0.207992	-0.783488	0.032386
H236	H	0.042008	-0.533488	0.282386
H237	H	-0.708769	-1.308008	-0.377603
H238	H	-0.458769	-1.058008	-0.127603
H239	H	-0.208769	-0.808008	0.122397
H240	H	0.041231	-0.558008	0.372397
H241	H	-0.820001	-1.336576	-0.483213
H242	H	-0.570001	-1.086576	-0.233213
H243	H	-0.320001	-0.836576	0.016787
H244	H	-0.070001	-0.586576	0.266787
H245	H	-0.820786	-1.361114	-0.393198
H246	H	-0.570786	-1.111114	-0.143198
H247	H	-0.320786	-0.861114	0.106802
H248	H	-0.070786	-0.611114	0.356802
C249	C	-0.886329	-1.150819	-0.602356
C250	C	-0.636329	-0.900819	-0.352356
C251	C	-0.386329	-0.650819	-0.102356
C252	C	-0.136329	-0.400819	0.147644
C253	C	-0.911224	-1.207357	-0.546108
C254	C	-0.661224	-0.957357	-0.296108
C255	C	-0.411224	-0.707357	-0.046108
C256	C	-0.161224	-0.457357	0.203892
H257	H	-0.904366	-1.164682	-0.654212
H258	H	-0.654366	-0.914682	-0.404212
H259	H	-0.404366	-0.664682	-0.154212
H260	H	-0.154366	-0.414682	0.095788
H261	H	-0.904029	-1.098965	-0.587948
H262	H	-0.654029	-0.848965	-0.337948
H263	H	-0.404029	-0.598965	-0.087948
H264	H	-0.154029	-0.348965	0.162052
H265	H	-0.833707	-1.150476	-0.603061
H266	H	-0.583707	-0.900476	-0.353061
H267	H	-0.333707	-0.650476	-0.103061
H268	H	-0.083707	-0.400476	0.146939
H269	H	-0.963846	-1.207695	-0.545399
H270	H	-0.713846	-0.957695	-0.295399
H271	H	-0.463846	-0.707695	-0.045399
H272	H	-0.213846	-0.457695	0.204601
H273	H	-0.893528	-1.259224	-0.560520
H274	H	-0.643528	-1.009224	-0.310520
H275	H	-0.393528	-0.759224	-0.060520
H276	H	-0.143528	-0.509224	0.189480
H277	H	-0.811156	-1.128809	-0.252673
H278	H	-0.561156	-0.878809	-0.002673
H279	H	-0.311156	-0.628809	0.247327
H280	H	-0.061156	-0.378809	0.497327
H281	H	-0.811040	-1.065710	-0.487802
H282	H	-0.561040	-0.815710	-0.237802
H283	H	-0.311040	-0.565710	0.012198
H284	H	-0.061040	-0.315710	0.262198
