data_functionalizedCrystal
_audit_creation_method	'MofGen! by Chris Wilmer'
_symmetry_space_group_name_H-M	'P1'
_symmetry_Int_Tables_number	1
_symmetry_cell_setting	triclinic
loop_
_symmetry_equiv_pos_as_xyz
  x,y,z
_cell_length_a	27.732048
_cell_length_b	16.974800
_cell_length_c	16.053802
_cell_angle_alpha	91.074188
_cell_angle_beta	92.539157
_cell_angle_gamma	83.017409
loop_
_atom_site_label
_atom_site_type_symbol
_atom_site_fract_x
_atom_site_fract_y
_atom_site_fract_z
O1	O	0.061614	1.048327	0.001421
O2	O	0.069013	0.818776	-0.014097
O3	O	-0.005041	0.940680	-0.005840
O4	O	0.135668	0.926423	-0.006836
O5	O	-0.000981	0.933970	0.132564
O6	O	0.073073	0.812066	0.124307
O7	O	0.065674	1.041618	0.139826
Zn8	Zn	0.070018	0.925776	0.154041
Zn9	Zn	0.064669	0.934617	-0.028313
O10	O	0.139728	0.919713	0.131569
C11	C	0.070687	0.786062	0.053120
C12	C	0.069622	0.698582	0.047207
C13	C	0.071332	0.653831	0.119875
C14	C	0.070323	0.571637	0.114321
C15	C	0.067607	0.534193	0.036098
C16	C	0.065894	0.578951	-0.036575
C17	C	0.066900	0.661145	-0.031021
C18	C	0.064358	0.288763	0.011396
C19	C	0.063354	0.206562	0.005846
C20	C	0.067783	0.199254	0.156743
C21	C	0.068791	0.281449	0.162291
C22	C	0.067076	0.326200	0.089618
N23	N	0.066577	0.450177	0.030419
N24	N	0.068102	0.410216	0.095297
C25	C	-0.021020	0.937026	0.063344
C26	C	-0.074680	0.936124	0.063290
C27	C	-0.413107	1.002490	0.067734
C28	C	-0.614786	0.999147	0.067496
O29	O	-0.645687	1.059834	0.071562
N30	N	-0.634334	0.926862	0.062610
C31	C	-0.603458	0.855408	0.057778
O32	O	-0.624713	0.793849	0.053608
C33	C	-0.401780	0.858753	0.058009
C34	C	-0.382235	0.931042	0.062904
C35	C	-0.393561	1.074773	0.072627
C36	C	-0.343144	1.075608	0.072691
C37	C	-0.312273	1.004160	0.067862
C38	C	-0.331818	0.931877	0.062968
C39	C	-0.370906	0.787300	0.053171
C40	C	-0.320483	0.788143	0.053227
C41	C	-0.300938	0.860432	0.058122
C42	C	-0.250529	0.861263	0.058202
N43	N	-0.230982	0.933548	0.063089
C44	C	-0.261853	1.004996	0.067918
C45	C	-0.709343	0.853657	0.057658
C46	C	-0.759762	0.852821	0.057602
C47	C	-0.771087	0.996560	0.067318
C48	C	-0.720666	0.997395	0.067381
C49	C	-0.689795	0.925942	0.062544
C50	C	-0.155973	1.006744	0.068053
C51	C	-0.105551	1.007573	0.068120
C52	C	-0.094231	0.863834	0.058398
C53	C	-0.144649	0.863005	0.058336
C54	C	-0.175519	0.934467	0.063161
O55	O	-0.219600	0.800609	0.054129
O56	O	-0.240590	1.066547	0.072069
C57	C	-0.463524	1.001655	0.067670
C58	C	-0.483069	0.929372	0.062776
C59	C	-0.452197	0.857924	0.057947
C60	C	-0.533488	0.928536	0.062720
C61	C	-0.564360	0.999984	0.067550
C62	C	-0.544812	1.072269	0.072436
C63	C	-0.494395	1.073104	0.072500
C64	C	-0.471745	0.785639	0.053061
C65	C	-0.522163	0.784810	0.052998
C66	C	-0.553034	0.856258	0.057828
C67	C	0.155706	0.923367	0.062382
C68	C	0.209366	0.924269	0.062431
C69	C	0.064000	1.074331	0.072606
C70	C	0.065065	1.161811	0.078514
N71	N	0.073667	0.919749	0.278493
N72	N	0.061016	0.940651	-0.152764
C73	C	0.042169	0.971638	0.325702
C74	C	0.044726	0.967429	0.412823
C75	C	0.078785	0.911334	0.452735
C76	C	0.110286	0.859439	0.405520
C77	C	0.107725	0.863645	0.318400
C78	C	0.089956	0.892962	0.712900
C79	C	0.092515	0.888761	0.800027
C80	C	0.026954	0.996751	0.807325
C81	C	0.024399	1.000955	0.720202
C82	C	0.055897	0.949057	0.672995
N83	N	0.081402	0.907032	0.541787
N84	N	0.053279	0.953356	0.583944
H85	H	0.065508	0.697580	-0.090195
H86	H	0.061144	0.176078	-0.057855
Cl87	Cl	-0.080984	1.098457	0.074272
Cl88	Cl	0.005127	1.032661	0.472173
H89	H	-0.327236	1.134474	0.076674
Cl90	Cl	-0.670540	0.763821	0.051578
H91	H	0.071001	0.311930	0.225988
Cl92	Cl	-0.194774	1.096583	0.074120
Cl93	Cl	0.062203	0.345010	-0.079966
H94	H	-0.418693	1.132959	0.076557
H95	H	0.001309	1.039002	0.845769
H96	H	0.073548	0.684310	0.183572
H97	H	0.115604	0.850706	0.674471
H98	H	-0.478487	1.131969	0.076485
Cl99	Cl	0.072483	0.515380	0.205680
Cl100	Cl	0.069936	0.142992	0.248098
Cl101	Cl	-0.696101	1.088276	0.073533
H102	H	0.063679	0.548459	-0.100266
Cl103	Cl	-0.395464	0.696417	0.047012
Cl104	Cl	-0.583632	1.162088	0.078511
Cl105	Cl	-0.809906	1.086380	0.073386
H106	H	-0.003335	1.046632	0.687708
Cl107	Cl	0.153101	0.788915	0.455692
Cl108	Cl	-0.784326	0.761939	0.051464
H109	H	-0.295350	0.729956	0.049287
Cl110	Cl	-0.169220	0.772126	0.052198
Cl111	Cl	-0.055412	0.774019	0.052325
Cl112	Cl	-0.546726	0.693922	0.046848
H113	H	-0.446614	0.727456	0.049126
Cl114	Cl	-0.000649	1.042165	0.275537
H115	H	0.120252	0.843080	0.832518
H116	H	0.133374	0.821391	0.279963
