data_functionalizedCrystal
_audit_creation_method	'MofGen! by Chris Wilmer'
_symmetry_space_group_name_H-M	'P1'
_symmetry_Int_Tables_number	1
_symmetry_cell_setting	triclinic
loop_
_symmetry_equiv_pos_as_xyz
  x,y,z
_cell_length_a	21.395364
_cell_length_b	18.215405
_cell_length_c	21.395355
_cell_angle_alpha	89.983159
_cell_angle_beta	89.975484
_cell_angle_gamma	90.018496
loop_
_atom_site_label
_atom_site_type_symbol
_atom_site_fract_x
_atom_site_fract_y
_atom_site_fract_z
Zn1	Zn	0.957894	-0.293153	-0.354268
Zn2	Zn	1.457894	0.206847	0.145732
Zn3	Zn	0.957811	-0.416201	-0.249494
Zn4	Zn	1.457811	0.083799	0.250506
Zn5	Zn	0.853109	-0.293144	-0.249505
Zn6	Zn	1.353109	0.206856	0.250495
Zn7	Zn	0.853093	-0.416173	-0.354234
Zn8	Zn	1.353093	0.083827	0.145766
O9	O	0.905476	-0.354668	-0.301875
O10	O	1.405476	0.145332	0.198125
O11	O	1.045561	-0.309491	-0.340379
O12	O	1.545561	0.190509	0.159621
O13	O	0.943894	-0.399885	-0.161817
O14	O	1.443894	0.100115	0.338183
O15	O	0.867050	-0.190161	-0.263421
O16	O	1.367050	0.309839	0.236579
O17	O	1.045500	-0.399894	-0.263402
O18	O	1.545500	0.100106	0.236598
O19	O	0.944035	-0.190167	-0.340390
O20	O	1.444035	0.309833	0.159610
O21	O	0.866970	-0.309476	-0.161825
O22	O	1.366970	0.190524	0.338175
O23	O	0.765429	-0.309448	-0.263388
O24	O	1.265429	0.190552	0.236612
O25	O	0.867023	-0.399846	-0.441916
O26	O	1.367023	0.100154	0.058084
O27	O	0.765417	-0.399837	-0.340332
O28	O	1.265417	0.100163	0.159668
O29	O	0.944020	-0.309464	-0.441941
O30	O	1.444020	0.190536	0.058059
O31	O	0.943878	-0.519181	-0.263369
O32	O	1.443878	-0.019181	0.236631
O33	O	0.866942	-0.519161	-0.340321
O34	O	1.366942	-0.019161	0.159679
C35	C	0.742689	-0.354639	-0.301858
C36	C	1.242689	0.145361	0.198142
C37	C	0.673048	-0.354645	-0.301865
C38	C	1.173048	0.145355	0.198135
C39	C	0.905416	-0.545874	-0.301854
C40	C	1.405416	-0.045874	0.198146
C41	C	0.905448	-0.627673	-0.301865
C42	C	1.405448	-0.127673	0.198135
C43	C	0.171283	-0.307706	-0.342031
C44	C	0.671283	0.192294	0.157969
C45	C	0.236718	-0.307700	-0.342031
C46	C	0.736718	0.192300	0.157969
C47	C	0.269409	-0.354690	-0.301889
C48	C	0.769409	0.145310	0.198111
C49	C	0.236660	-0.401702	-0.261756
C50	C	0.736660	0.098298	0.238244
C51	C	0.171226	-0.401711	-0.261761
C52	C	0.671226	0.098289	0.238239
C53	C	0.373046	-0.360389	-0.245422
C54	C	0.873046	0.139611	0.254578
C55	C	0.438479	-0.360374	-0.245415
C56	C	0.938479	0.139626	0.254585
C57	C	0.471230	-0.354666	-0.301872
C58	C	0.971230	0.145334	0.198128
C59	C	0.438540	-0.348956	-0.358337
C60	C	0.938540	0.151044	0.141663
C61	C	0.373105	-0.348965	-0.358343
C62	C	0.873105	0.151035	0.141657
C63	C	0.340362	-0.354686	-0.301879
C64	C	0.840362	0.145314	0.198121
C65	C	0.574924	-0.307654	-0.342006
C66	C	1.074924	0.192346	0.157994
C67	C	0.640361	-0.307654	-0.342007
C68	C	1.140361	0.192346	0.157993
C69	C	0.640301	-0.401652	-0.261726
C70	C	1.140301	0.098348	0.238274
C71	C	0.574866	-0.401656	-0.261730
C72	C	1.074866	0.098344	0.238270
C73	C	0.542181	-0.354653	-0.301870
C74	C	1.042181	0.145347	0.198130
C75	C	0.945553	-0.815809	-0.341997
C76	C	1.445553	-0.315809	0.158003
C77	C	0.945576	-0.892668	-0.342009
C78	C	1.445576	-0.392668	0.157991
C79	C	0.865477	-0.892774	-0.261792
C80	C	1.365477	-0.392774	0.238208
C81	C	0.865452	-0.815917	-0.261784
C82	C	1.365452	-0.315917	0.238216
C83	C	0.905493	-0.777436	-0.301885
C84	C	1.405493	-0.277436	0.198115
C85	C	0.905541	-0.931152	-0.301905
C86	C	1.405541	-0.431152	0.198095
C87	C	0.905566	-1.014486	-0.301918
C88	C	1.405566	-0.514486	0.198082
C89	C	0.905468	-0.694097	-0.301874
C90	C	1.405468	-0.194097	0.198126
C91	C	1.068900	-0.354696	-0.301893
C92	C	1.568900	0.145304	0.198107
C93	C	1.138541	-0.354709	-0.301901
C94	C	1.638541	0.145291	0.198099
C95	C	0.905528	-0.354653	-0.465298
C96	C	1.405528	0.145347	0.034702
C97	C	0.905551	-0.354646	-0.534940
C98	C	1.405551	0.145354	-0.034940
C99	C	0.905554	-0.162715	-0.301911
C100	C	1.405554	0.337285	0.198089
C101	C	0.905587	-0.080916	-0.301926
C102	C	1.405587	0.419084	0.198074
C103	C	0.945641	-0.307582	-0.567667
C104	C	1.445641	0.192418	-0.067667
C105	C	0.945640	-0.307551	-0.633102
C106	C	1.445640	0.192449	-0.133102
C107	C	0.905556	-0.354596	-0.665808
C108	C	1.405556	0.145404	-0.165808
C109	C	0.865457	-0.401664	-0.633073
C110	C	1.365457	0.098336	-0.133073
C111	C	0.865455	-0.401689	-0.567639
C112	C	1.365455	0.098311	-0.067639
C113	C	0.900587	-0.420860	-0.769475
C114	C	1.400587	0.079140	-0.269475
C115	C	0.900594	-0.420836	-0.834908
C116	C	1.400594	0.079164	-0.334908
C117	C	0.905559	-0.354518	-0.867629
C118	C	1.405559	0.145482	-0.367629
C119	C	0.910531	-0.288223	-0.834909
C120	C	1.410531	0.211777	-0.334909
C121	C	0.910528	-0.288248	-0.769474
C122	C	1.410528	0.211752	-0.269474
C123	C	0.905553	-0.354574	-0.736761
C124	C	1.405553	0.145426	-0.236761
C125	C	0.945651	-0.307416	-0.971309
C126	C	1.445651	0.192584	-0.471309
C127	C	0.945646	-0.307383	-1.036745
C128	C	1.445646	0.192617	-0.536745
C129	C	0.865466	-0.401503	-1.036715
C130	C	1.365466	0.098497	-0.536715
C131	C	0.865468	-0.401529	-0.971279
C132	C	1.365468	0.098471	-0.471279
C133	C	0.905564	-0.354487	-0.938580
C134	C	1.405564	0.145513	-0.438580
C135	C	0.905461	-0.354629	-0.139088
C136	C	1.405461	0.145371	0.360912
C137	C	0.905560	-0.354428	-0.069447
C138	C	1.405560	0.145572	0.430553
H139	H	0.144675	-0.269436	-0.374719
H140	H	0.644675	0.230564	0.125281
H141	H	0.832818	-0.439966	-0.659706
H142	H	1.332818	0.060034	-0.159706
Cl143	Cl	0.130063	-0.460802	-0.211304
Cl144	Cl	0.630063	0.039198	0.288696
Cl145	Cl	0.815051	-0.460861	-0.526494
Cl146	Cl	1.315051	0.039139	-0.026494
H147	H	0.263381	-0.269422	-0.374710
H148	H	0.763381	0.230578	0.125290
Cl149	Cl	0.332011	-0.341794	-0.429324
Cl150	Cl	0.832011	0.158206	0.070676
Cl151	Cl	0.995936	-0.940905	-0.392441
Cl152	Cl	1.495936	-0.440905	0.107559
H153	H	0.832878	-0.924114	-0.229141
H154	H	1.332878	-0.424114	0.270859
H155	H	0.978296	-0.269107	-0.944684
H156	H	1.478296	0.230893	-0.444684
H157	H	0.832827	-0.784671	-0.229120
H158	H	1.332827	-0.284671	0.270880
H159	H	0.978290	-0.269276	-0.541047
H160	H	1.478290	0.230724	-0.041047
H161	H	0.667018	-0.269381	-0.374690
H162	H	1.167018	0.230619	0.125310
Cl163	Cl	0.996031	-0.248365	-0.674254
Cl164	Cl	1.496031	0.251635	-0.174254
H165	H	0.914575	-0.234268	-0.742836
H166	H	1.414575	0.265732	-0.242836
H167	H	0.978157	-0.784480	-0.374652
H168	H	1.478157	-0.284480	0.125348
Cl169	Cl	0.916776	-0.204846	-0.876036
Cl170	Cl	1.416776	0.295154	-0.376036
Cl171	Cl	0.996060	-0.248223	-1.077889
Cl172	Cl	1.496060	0.251777	-0.577889
Cl173	Cl	0.815067	-0.460640	-1.077824
Cl174	Cl	1.315067	0.039360	-0.577824
Cl175	Cl	0.815068	-0.460702	-0.930134
Cl176	Cl	1.315068	0.039298	-0.430134
H177	H	0.896550	-0.474818	-0.861544
H178	H	1.396550	0.025182	-0.361544
H179	H	0.548311	-0.269382	-0.374690
H180	H	1.048311	0.230618	0.125310
Cl181	Cl	0.479704	-0.341769	-0.429315
Cl182	Cl	0.979704	0.158231	0.070685
H183	H	0.666918	-0.439918	-0.229046
H184	H	1.166918	0.060082	0.270954
Cl185	Cl	0.533703	-0.460738	-0.211267
Cl186	Cl	1.033703	0.039262	0.288733
H187	H	0.896377	-0.474850	-0.742840
H188	H	1.396377	0.025150	-0.242840
H189	H	0.465091	-0.365019	-0.199438
H190	H	0.965091	0.134981	0.300562
Cl191	Cl	0.331881	-0.367578	-0.174442
Cl192	Cl	0.831881	0.132422	0.325558
H193	H	0.263281	-0.439963	-0.229073
H194	H	0.763281	0.060037	0.270927
