data_functionalizedCrystal
_audit_creation_method	'MofGen! by Chris Wilmer'
_symmetry_space_group_name_H-M	'P1'
_symmetry_Int_Tables_number	1
_symmetry_cell_setting	triclinic
loop_
_symmetry_equiv_pos_as_xyz
  x,y,z
_cell_length_a	16.109301
_cell_length_b	9.065215
_cell_length_c	7.540329
_cell_angle_alpha	90.001076
_cell_angle_beta	90.004610
_cell_angle_gamma	84.238089
loop_
_atom_site_label
_atom_site_type_symbol
_atom_site_fract_x
_atom_site_fract_y
_atom_site_fract_z
O1	O	0.121893	1.957449	0.147469
O2	O	0.131895	1.527921	0.147477
O3	O	0.005954	1.754485	0.147455
O4	O	0.247835	1.730886	0.147491
O5	O	0.005953	1.754477	-0.147511
O6	O	0.131894	1.527914	-0.147488
O7	O	0.121892	1.957441	-0.147497
Cu8	Cu	0.126893	1.742677	-0.174425
Cu9	Cu	0.126894	1.742686	0.174405
O10	O	0.247834	1.730878	-0.147474
C11	C	0.130934	1.472954	-0.000005
C12	C	0.128061	1.309180	-0.000002
C13	C	-0.025029	1.753525	-0.000029
C14	C	-0.117346	1.750659	-0.000031
C15	C	-0.338638	1.878433	-0.000006
C16	C	-0.425379	1.875729	0.000009
C17	C	-0.407568	1.606919	0.000007
C18	C	-0.320829	1.609625	0.000005
C19	C	-0.286366	1.745386	-0.000010
C20	C	-0.459847	1.739976	0.000006
C21	C	-0.553895	1.737043	0.000022
C22	C	-0.192311	1.748320	-0.000023
C23	C	0.278816	1.731838	0.000013
C24	C	0.371134	1.734703	0.000028
C25	C	0.122853	2.012408	-0.000011
C26	C	0.125726	2.176182	-0.000002
N27	N	0.126892	1.742681	-0.419773
N28	N	0.126889	1.742693	0.419754
H29	H	-0.467936	1.984069	0.000016
H30	H	-0.278267	1.501276	0.000007
O31	O	-0.441146	1.475140	0.000242
C32	C	-0.490766	1.465515	0.153027
H33	H	-0.511490	1.581802	0.203962
H34	H	-0.452941	1.400228	0.259997
C35	C	-0.542619	1.243282	0.044054
C36	C	-0.568077	1.386109	0.106605
H37	H	-0.590306	1.194295	0.015424
H38	H	-0.509187	1.249763	-0.058877
H39	H	-0.511097	1.188896	0.133207
H40	H	-0.599589	1.440499	0.017446
H41	H	-0.601517	1.379635	0.209521
O42	O	-0.305297	2.010434	0.000080
C43	C	-0.370038	2.127283	0.000048
H44	H	-0.429255	2.085945	0.055885
H45	H	-0.382007	2.168331	-0.141457
C46	C	-0.271864	2.306084	0.047159
C47	C	-0.344595	2.255316	0.115753
H48	H	-0.256170	2.385064	0.118524
H49	H	-0.228246	2.227362	0.047173
H50	H	-0.281848	2.340280	-0.070761
H51	H	-0.334607	2.221104	0.233662
H52	H	-0.388211	2.334035	0.115761
