data_functionalizedCrystal
_audit_creation_method	'MofGen! by Chris Wilmer'
_symmetry_space_group_name_H-M	'P1'
_symmetry_Int_Tables_number	1
_symmetry_cell_setting	triclinic
loop_
_symmetry_equiv_pos_as_xyz
  x,y,z
_cell_length_a	25.639239
_cell_length_b	19.077409
_cell_length_c	19.077174
_cell_angle_alpha	89.884052
_cell_angle_beta	92.270789
_cell_angle_gamma	92.340556
loop_
_atom_site_label
_atom_site_type_symbol
_atom_site_fract_x
_atom_site_fract_y
_atom_site_fract_z
Zn1	Zn	-0.186171	1.090118	-0.354303
Zn2	Zn	-0.270243	1.085290	-0.236796
Zn3	Zn	-0.186471	0.967898	-0.241514
Zn4	Zn	-0.277228	0.972547	-0.358966
O5	O	-0.230028	1.028963	-0.297895
O6	O	-0.194274	1.187811	-0.334790
O7	O	-0.256333	1.065752	-0.139091
O8	O	-0.113264	0.984186	-0.256498
O9	O	-0.256042	1.184264	-0.248458
O10	O	-0.113044	1.073980	-0.339364
O11	O	-0.194786	0.979505	-0.142557
O12	O	-0.201559	0.870182	-0.261019
O13	O	-0.267946	0.992108	-0.456678
O14	O	-0.268238	0.873597	-0.347311
O15	O	-0.201047	1.078488	-0.453253
O16	O	-0.344336	1.070260	-0.252980
O17	O	-0.349468	0.987427	-0.342737
C18	C	-0.235689	0.846393	-0.305184
C19	C	-0.238124	0.768289	-0.308319
C20	C	-0.255547	0.328842	-0.330836
C21	C	-0.253262	0.402228	-0.327878
C22	C	-0.217353	0.437123	-0.281545
C23	C	-0.183728	0.398628	-0.238164
C24	C	-0.186015	0.325242	-0.241119
C25	C	-0.206787	0.656408	-0.267893
C26	C	-0.204501	0.729799	-0.264942
C27	C	-0.274036	0.733394	-0.354655
C28	C	-0.276318	0.660007	-0.357610
C29	C	-0.242696	0.621518	-0.314226
N30	N	-0.215016	0.512136	-0.278521
N31	N	-0.245035	0.546507	-0.317246
C32	C	-0.365873	1.028844	-0.297867
C33	C	-0.423987	1.028858	-0.297876
C34	C	-0.781662	1.072214	-0.251230
C35	C	-0.836265	1.072242	-0.251238
O36	O	-0.862219	1.108981	-0.211547
N37	N	-0.866265	1.029089	-0.297936
C38	C	-0.841657	0.985910	-0.344634
O39	O	-0.872188	0.949208	-0.384356
C40	C	-0.787055	0.985887	-0.344629
C41	C	-0.757058	1.029038	-0.297923
C42	C	-0.751665	1.115363	-0.204528
C43	C	-0.697065	1.115334	-0.204519
C44	C	-0.672462	1.072157	-0.251212
C45	C	-0.702458	1.029009	-0.297914
C46	C	-0.762449	0.942712	-0.391329
C47	C	-0.707842	0.942693	-0.391320
C48	C	-0.677845	0.985844	-0.344614
C49	C	-0.623255	0.985803	-0.344597
N50	N	-0.593255	1.028957	-0.297899
C51	C	-0.617859	1.072134	-0.251206
C52	C	-0.956327	0.985964	-0.344643
C53	C	-1.010929	0.985983	-0.344645
C54	C	-1.005533	1.072316	-0.251250
C55	C	-0.950930	1.072292	-0.251245
C56	C	-0.926328	1.029117	-0.297945
C57	C	-0.503195	1.072070	-0.251191
C58	C	-0.448591	1.072035	-0.251184
C59	C	-0.453991	0.985705	-0.344581
C60	C	-0.508591	0.985736	-0.344586
C61	C	-0.533192	1.028924	-0.297888
O62	O	-0.597265	0.949085	-0.384270
O63	O	-0.587322	1.108836	-0.211498
C64	C	-0.093652	1.029103	-0.297937
C65	C	-0.035537	1.029163	-0.297955
C66	C	-0.235242	1.036355	-0.481175
C67	C	-0.237464	1.039505	-0.559278
C68	C	-0.224345	1.212247	-0.290578
C69	C	-0.221924	1.290351	-0.287460
C70	C	-0.206465	0.996082	-0.597774
C71	C	-0.208557	0.999039	-0.671160
C72	C	-0.241646	1.045423	-0.706048
C73	C	-0.272650	1.088847	-0.667546
C74	C	-0.270560	1.085886	-0.594162
C75	C	-0.251335	1.059091	-0.925332
C76	C	-0.253422	1.062050	-0.998721
C77	C	-0.189329	0.972240	-1.002330
C78	C	-0.187240	0.969286	-0.928944
C79	C	-0.218245	1.012708	-0.890449
N80	N	-0.243785	1.048448	-0.781061
N81	N	-0.216109	1.009679	-0.815438
C82	C	-0.224795	1.021641	-0.115326
C83	C	-0.222422	1.018627	-0.037218
H84	H	-0.284786	0.300436	-0.368569
F85	F	-0.284331	1.105308	-0.884371
H86	H	-0.523218	1.107239	-0.213166
F87	F	-0.307870	1.138209	-0.704679
F88	F	-1.042847	0.940047	-0.394349
F89	F	-0.919010	1.118219	-0.201535
F90	F	-0.289050	0.443189	-0.374044
F91	F	-0.314538	0.622875	-0.406923
H92	H	-0.160296	0.931514	-0.900544
F93	F	-0.150231	0.284279	-0.194949
F94	F	-0.309820	0.774362	-0.400820
F95	F	-0.427797	0.939757	-0.394274
H96	H	-0.295799	1.121251	-0.562818
F97	F	-0.665147	1.161270	-0.154815
H98	H	-1.025575	1.107475	-0.213233
F99	F	-0.540517	0.939797	-0.394283
F100	F	-0.166281	0.766935	-0.215624
H101	H	-0.771691	1.150526	-0.166505
H102	H	-0.424169	1.107173	-0.213148
F103	F	-0.170998	0.615455	-0.221725
H104	H	-0.154492	0.427045	-0.200436
H105	H	-0.936299	0.950799	-0.382670
H106	H	-0.786863	0.907571	-0.429359
F107	F	-0.681662	0.896740	-0.441027
H108	H	-0.179516	0.958316	-0.569374
H109	H	-0.183315	0.963677	-0.702501
H110	H	-0.280368	1.099824	-1.027125
F111	F	-0.156335	0.926029	-1.043305
