data_functionalizedCrystal
_audit_creation_method	'MofGen! by Chris Wilmer'
_symmetry_space_group_name_H-M	'P1'
_symmetry_Int_Tables_number	1
_symmetry_cell_setting	triclinic
loop_
_symmetry_equiv_pos_as_xyz
  x,y,z
_cell_length_a	10.654545
_cell_length_b	27.731996
_cell_length_c	9.730223
_cell_angle_alpha	89.989651
_cell_angle_beta	89.997167
_cell_angle_gamma	83.552233
loop_
_atom_site_label
_atom_site_type_symbol
_atom_site_fract_x
_atom_site_fract_y
_atom_site_fract_z
O1	O	1.664956	0.067877	-0.114296
O2	O	1.299202	0.074347	-0.114304
O3	O	1.493472	0.000784	-0.114270
O4	O	1.470685	0.141440	-0.114330
O5	O	1.493460	0.000782	0.114310
O6	O	1.299189	0.074345	0.114276
O7	O	1.664944	0.067875	0.114284
Zn8	Zn	1.482065	0.071110	0.150572
Zn9	Zn	1.482081	0.071112	-0.150592
O10	O	1.470673	0.141438	0.114250
C11	C	1.252418	0.073872	-0.000015
C12	C	1.113034	0.072452	-0.000016
C13	C	1.047552	0.071782	0.124584
C14	C	0.916589	0.070440	0.124585
C15	C	0.916603	0.070439	-0.124626
C16	C	1.047565	0.071777	-0.124625
C17	C	1.492998	-0.017227	0.000024
C18	C	1.491588	-0.070892	0.000038
C19	C	1.482724	-0.403662	-0.124628
C20	C	1.477370	-0.605354	-0.124652
O21	O	1.476630	-0.631428	-0.230620
N22	N	1.476698	-0.630576	-0.000054
C23	C	1.477357	-0.605372	0.124558
O24	O	1.476650	-0.631453	0.230536
C25	C	1.482702	-0.403681	0.124581
C26	C	1.483387	-0.378462	-0.000025
C27	C	1.483407	-0.378443	-0.249224
C28	C	1.484753	-0.328023	-0.249216
C29	C	1.485415	-0.302823	-0.124613
C30	C	1.484732	-0.328042	-0.000017
C31	C	1.483352	-0.378478	0.249192
C32	C	1.484685	-0.328052	0.249187
C33	C	1.485369	-0.302832	0.124581
C34	C	1.486740	-0.252423	0.124593
N35	N	1.487411	-0.227200	-0.000005
C36	C	1.486749	-0.252401	-0.124608
C37	C	1.474553	-0.711263	0.124538
C38	C	1.473219	-0.761686	0.124532
C39	C	1.473230	-0.761664	-0.124679
C40	C	1.474573	-0.711241	-0.124672
C41	C	1.475225	-0.686041	-0.000060
C42	C	1.489575	-0.146516	-0.124583
C43	C	1.490926	-0.096092	-0.124565
C44	C	1.490908	-0.096118	0.124645
C45	C	1.489564	-0.146538	0.124628
C46	C	1.488894	-0.171735	0.000003
O47	O	1.487467	-0.226317	0.230505
O48	O	1.487428	-0.226310	-0.230569
C49	C	1.481379	-0.454082	-0.124635
C50	C	1.480696	-0.479301	-0.000039
C51	C	1.481358	-0.454101	0.124564
C52	C	1.479362	-0.529724	-0.000045
C53	C	1.478700	-0.554924	-0.124648
C54	C	1.479371	-0.529702	-0.249246
C55	C	1.480717	-0.479282	-0.249238
C56	C	1.480687	-0.479323	0.249161
C57	C	1.479343	-0.529743	0.249144
C58	C	1.478680	-0.554943	0.124541
C59	C	1.711728	0.068351	-0.000009
C60	C	1.851111	0.069771	-0.000016
C61	C	1.471147	0.159449	-0.000048
C62	C	1.472557	0.213114	-0.000071
N63	N	1.482063	0.071108	0.356108
N64	N	1.482093	0.071111	-0.356129
C65	C	1.568114	0.038548	0.428049
C66	C	1.568127	0.038548	0.571932
C67	C	1.396032	0.103672	0.571921
C68	C	1.396014	0.103669	0.428040
H69	H	0.863282	0.069890	-0.226078
H70	H	1.638178	0.012034	0.369485
H71	H	1.638196	0.012034	0.630502
H72	H	1.489023	-0.167025	-0.226065
H73	H	1.100883	0.072321	-0.226096
H74	H	1.491486	-0.075561	-0.226038
H75	H	1.100853	0.072331	0.226049
H76	H	1.472681	-0.782216	0.225999
N77	N	0.845962	0.069715	0.258974
H78	H	0.907433	0.070004	0.337905
H79	H	0.781438	0.099245	0.264807
H80	H	1.485197	-0.307536	0.350663
H81	H	1.478795	-0.550272	0.350621
H82	H	1.482863	-0.398956	-0.350696
N83	N	1.485484	-0.300826	-0.383613
H84	H	1.484856	-0.324447	-0.462538
H85	H	1.408163	-0.276245	-0.389046
N86	N	1.475311	-0.684042	-0.259066
H87	H	1.474693	-0.707662	-0.337995
H88	H	1.397989	-0.659462	-0.264503
N89	N	1.472518	-0.788849	-0.259075
H90	H	1.471569	-0.824617	-0.240159
H91	H	1.394874	-0.776373	-0.313482
N92	N	1.303227	0.138791	0.649504
H93	H	1.316296	0.133853	0.751569
H94	H	1.317038	0.173131	0.624326
H95	H	1.475090	-0.690750	0.226017
N96	N	1.482616	-0.405670	0.383590
H97	H	1.483231	-0.382047	0.462513
H98	H	1.404183	-0.422929	0.389016
N99	N	1.488848	-0.173743	0.259019
H100	H	1.489477	-0.150126	0.337954
H101	H	1.410411	-0.190999	0.264444
N102	N	1.303187	0.138785	0.350434
H103	H	1.248683	0.159414	0.417833
H104	H	1.350816	0.160324	0.290706
N105	N	1.491634	-0.068934	0.259034
H106	H	1.492586	-0.033165	0.240120
H107	H	1.413520	-0.074087	0.313442
H108	H	1.481273	-0.458753	-0.350705
H109	H	1.478838	-0.550229	-0.350702
H110	H	1.481228	-0.458810	0.350630
