data_functionalizedCrystal
_audit_creation_method	'MofGen! by Chris Wilmer'
_symmetry_space_group_name_H-M	'P1'
_symmetry_Int_Tables_number	1
_symmetry_cell_setting	triclinic
loop_
_symmetry_equiv_pos_as_xyz
  x,y,z
_cell_length_a	15.297475
_cell_length_b	16.120484
_cell_length_c	15.298259
_cell_angle_alpha	82.663079
_cell_angle_beta	88.370891
_cell_angle_gamma	83.687474
loop_
_atom_site_label
_atom_site_type_symbol
_atom_site_fract_x
_atom_site_fract_y
_atom_site_fract_z
Zn1	Zn	1.227898	-0.409432	-0.744681
Zn2	Zn	1.242876	-0.573539	-0.605402
Zn3	Zn	1.106253	-0.417405	-0.573256
Zn4	Zn	1.074006	-0.527384	-0.724512
O5	O	1.162758	-0.481940	-0.661962
O6	O	1.351467	-0.447181	-0.748100
O7	O	1.244516	-0.575481	-0.479547
O8	O	1.129616	-0.301641	-0.590984
O9	O	1.362471	-0.567750	-0.645771
O10	O	1.218989	-0.295783	-0.716929
O11	O	1.144139	-0.460769	-0.455930
O12	O	0.980394	-0.416014	-0.571426
O13	O	1.074657	-0.489084	-0.848777
O14	O	0.956702	-0.496815	-0.682553
O15	O	1.187721	-0.402425	-0.863596
O16	O	1.213248	-0.682123	-0.626214
O17	O	1.089180	-0.648213	-0.713723
C18	C	0.937023	-0.452272	-0.621313
C19	C	0.840448	-0.439595	-0.603945
C20	C	0.519012	-0.572545	-0.786100
C21	C	0.609749	-0.584461	-0.802417
C22	C	0.667428	-0.548246	-0.752801
C23	C	0.634361	-0.500112	-0.686864
C24	C	0.543616	-0.488199	-0.670542
C25	C	0.692032	-0.463900	-0.637242
C26	C	0.658965	-0.415766	-0.571305
C27	C	0.568228	-0.403856	-0.554986
C28	C	0.510549	-0.440072	-0.604603
C29	C	0.782778	-0.475813	-0.653564
C30	C	0.807381	-0.391467	-0.538005
C31	C	0.716644	-0.379551	-0.521689
C32	C	1.149361	-0.694909	-0.671291
C33	C	1.143704	-0.786024	-0.675326
C34	C	1.133378	-0.952850	-0.682710
C35	C	1.192292	-1.010207	-0.641257
C36	C	1.186547	-1.103035	-0.645366
C37	C	1.139122	-0.860013	-0.678602
C38	C	1.389375	-0.511724	-0.702771
C39	C	1.485946	-0.524417	-0.720161
C40	C	1.125921	-0.439717	-0.888595
C41	C	1.110224	-0.421724	-0.985172
C42	C	1.176229	-0.268138	-0.652620
C43	C	1.181969	-0.177029	-0.648639
C44	C	1.275020	-0.609910	-1.306586
C45	C	1.289764	-0.626820	-1.215847
C46	C	1.244881	-0.575547	-1.158174
C47	C	1.185250	-0.507362	-1.191249
C48	C	1.170499	-0.490455	-1.281997
C49	C	1.140360	-0.456092	-1.133585
C50	C	1.080729	-0.387906	-1.166660
C51	C	1.065982	-0.371002	-1.257399
C52	C	1.110865	-0.422274	-1.315072
C53	C	1.155110	-0.472999	-1.042837
C54	C	1.050589	-0.353544	-1.018247
C55	C	1.035846	-0.336634	-1.108987
C56	C	1.199506	-0.523946	-0.436218
C57	C	1.215386	-0.541730	-0.339661
H58	H	0.741310	-0.557951	-0.766090
O59	O	0.869587	-0.352416	-0.484477
H60	H	0.831352	-0.316960	-0.435873
O61	O	0.645416	-0.636364	-0.873535
H62	H	0.590065	-0.659538	-0.905302
H63	H	1.014041	-0.311794	-0.971289
H64	H	1.078630	-0.973461	-0.721281
O65	O	0.532560	-0.351953	-0.483860
H66	H	0.487501	-0.297626	-0.513560
H67	H	0.689708	-0.340360	-0.468003
H68	H	1.247043	-0.989595	-0.602682
H69	H	1.203668	-0.528512	-1.015917
H70	H	1.256888	-0.589320	-1.084290
H71	H	1.338307	-0.682343	-1.188922
O72	O	1.323426	-0.665208	-1.368785
H73	H	1.303152	-0.641992	-1.437440
O74	O	1.095215	-0.404000	-1.412987
H75	H	1.069938	-0.459020	-1.436606
O76	O	1.001667	-0.297462	-1.293079
H77	H	0.972940	-0.264642	-1.237735
O78	O	0.971543	-0.263086	-1.144674
H79	H	0.918303	-0.286249	-1.179663
H80	H	0.472043	-0.602032	-0.826486
O81	O	0.818443	-0.527709	-0.724688
H82	H	0.799425	-0.592533	-0.709370
H83	H	0.436662	-0.430370	-0.591323
