data_functionalizedCrystal
_audit_creation_method	'MofGen! by Chris Wilmer'
_symmetry_space_group_name_H-M	'P1'
_symmetry_Int_Tables_number	1
_symmetry_cell_setting	triclinic
loop_
_symmetry_equiv_pos_as_xyz
  x,y,z
_cell_length_a	9.065218
_cell_length_b	10.654550
_cell_length_c	9.730223
_cell_angle_alpha	89.997176
_cell_angle_beta	89.996436
_cell_angle_gamma	84.750408
loop_
_atom_site_label
_atom_site_type_symbol
_atom_site_fract_x
_atom_site_fract_y
_atom_site_fract_z
O1	O	-1.959393	-0.184156	0.114293
O2	O	-1.530026	-0.199262	0.114295
O3	O	-1.754581	-0.009009	0.114285
O4	O	-1.734837	-0.374409	0.114303
O5	O	-1.754565	-0.009009	-0.114294
O6	O	-1.530010	-0.199262	-0.114285
O7	O	-1.959377	-0.184156	-0.114287
Zn8	Zn	-1.744691	-0.191709	-0.150578
Zn9	Zn	-1.744712	-0.191709	0.150586
O10	O	-1.734821	-0.374409	-0.114277
C11	C	-1.475039	-0.197810	0.000005
C12	C	-1.311220	-0.193469	0.000006
C13	C	-1.753124	0.037795	-0.000004
C14	C	-1.748786	0.177255	-0.000002
C15	C	-2.014364	-0.185608	0.000006
C16	C	-2.178183	-0.189949	0.000015
C17	C	-1.736279	-0.421213	0.000015
C18	C	-1.740616	-0.560673	0.000022
N19	N	-1.744687	-0.191708	-0.356114
C20	C	-1.881001	0.256217	-0.000002
C21	C	-1.876917	0.387254	0.000015
C22	C	-1.608391	0.360354	0.000026
C23	C	-1.612477	0.229320	0.000019
C24	C	-1.834949	-0.268948	-0.428032
C25	C	-1.834974	-0.268941	-0.571915
C26	C	-1.654461	-0.114452	-0.571950
C27	C	-1.654446	-0.114453	-0.428070
N28	N	-1.744727	-0.191700	0.356123
H29	H	-1.991993	0.213831	-0.000016
F30	F	-1.463329	0.415777	0.000049
H31	H	-1.908476	-0.331836	-0.630464
H32	H	-1.580988	-0.051555	-0.630553
H33	H	-1.504805	0.165025	0.000023
H34	H	-1.984580	0.451541	0.000018
F35	F	-1.931001	-0.351163	-0.351456
H36	H	-1.580942	-0.051549	-0.369513
