data_functionalizedCrystal
_audit_creation_method	'MofGen! by Chris Wilmer'
_symmetry_space_group_name_H-M	'P1'
_symmetry_Int_Tables_number	1
_symmetry_cell_setting	triclinic
loop_
_symmetry_equiv_pos_as_xyz
  x,y,z
_cell_length_a	9.730223
_cell_length_b	10.654550
_cell_length_c	10.654554
_cell_angle_alpha	84.485873
_cell_angle_beta	90.002720
_cell_angle_gamma	90.003749
loop_
_atom_site_label
_atom_site_type_symbol
_atom_site_fract_x
_atom_site_fract_y
_atom_site_fract_z
O1	O	-0.114408	-1.667837	-0.176393
O2	O	-0.114386	-1.302359	-0.193199
O3	O	-0.114384	-1.493498	-0.002057
O4	O	-0.114410	-1.476698	-0.367535
O5	O	0.114196	-1.493496	-0.002062
O6	O	0.114194	-1.302357	-0.193204
O7	O	0.114172	-1.667835	-0.176398
Zn8	Zn	0.150475	-1.485095	-0.184801
Zn9	Zn	-0.150689	-1.485098	-0.184795
O10	O	0.114170	-1.476696	-0.367540
C11	C	-0.000093	-1.255560	-0.191967
C12	C	-0.000085	-1.116116	-0.188275
N13	N	0.356011	-1.485102	-0.184805
N14	N	-0.356225	-1.485101	-0.184782
C15	C	0.427939	-1.569761	-0.100196
C16	C	0.571822	-1.569757	-0.100181
C17	C	0.571837	-1.400433	-0.269394
C18	C	0.427957	-1.400432	-0.269403
C19	C	0.427931	-1.667523	-0.002506
C20	C	0.571814	-1.667519	-0.002491
C21	C	-0.000093	-1.492262	0.044738
C22	C	-0.000091	-1.488568	0.184181
C23	C	-0.000124	-1.714634	-0.177629
C24	C	-0.000141	-1.854077	-0.181321
C25	C	-0.000113	-1.036633	-0.300817
C26	C	-0.000136	-0.905612	-0.297340
C27	C	-0.000109	-0.933571	-0.068771
C28	C	-0.000076	-1.064590	-0.072249
C29	C	-0.000135	-1.020489	-0.432779
C30	C	-0.000158	-0.889468	-0.429303
C31	C	-0.000124	-1.477932	-0.414335
C32	C	-0.000135	-1.481626	-0.553778
C33	C	-0.000114	-1.369081	0.366743
C34	C	-0.000097	-1.372552	0.235722
C35	C	-0.000116	-1.601121	0.263670
C36	C	-0.000143	-1.597649	0.394689
C37	C	-0.000097	-1.237118	0.350606
C38	C	-0.000079	-1.240589	0.219585
H39	H	0.630431	-1.331496	-0.338270
C40	C	-0.131790	-1.067794	-0.488901
C41	C	-0.219049	-0.965580	-0.522525
C42	C	-0.340336	-1.009108	-0.574238
H43	H	-0.176232	-1.125381	-0.428454
H44	H	-0.110428	-1.109054	-0.561642
H45	H	-0.240413	-0.924340	-0.449794
H46	H	-0.174650	-0.907983	-0.582984
H47	H	-0.318973	-1.050368	-0.646978
H48	H	-0.384765	-1.066696	-0.513784
H49	H	-0.399550	-0.939763	-0.597068
C50	C	0.349942	-1.308652	-0.361462
C51	C	0.384919	-1.330097	-0.485069
C52	C	0.313067	-1.245581	-0.569912
H53	H	0.373473	-1.224669	-0.347200
H54	H	0.253933	-1.320776	-0.349442
H55	H	0.480906	-1.317963	-0.497085
H56	H	0.361384	-1.414064	-0.499372
H57	H	0.217058	-1.257705	-0.557892
H58	H	0.336604	-1.161603	-0.555638
H59	H	0.336779	-1.260127	-0.653789
C60	C	0.631540	-1.627060	0.119149
C61	C	0.712473	-1.724634	0.177233
C62	C	0.767542	-1.687406	0.289274
H63	H	0.558984	-1.608728	0.174171
H64	H	0.686577	-1.553953	0.100723
H65	H	0.657439	-1.797719	0.195664
H66	H	0.785051	-1.742978	0.122247
H67	H	0.822579	-1.614299	0.270847
H68	H	0.694978	-1.669074	0.344285
H69	H	0.822471	-1.753599	0.328691
C70	C	0.131486	-0.828786	-0.482586
C71	C	0.218730	-0.922139	-0.521419
C72	C	0.340001	-0.866282	-0.570519
H73	H	0.175950	-0.786312	-0.419492
H74	H	0.110102	-0.770055	-0.552667
H75	H	0.240115	-0.980848	-0.451346
H76	H	0.174309	-0.964619	-0.584525
H77	H	0.318617	-0.807551	-0.640600
H78	H	0.384453	-0.823809	-0.507418
H79	H	0.399205	-0.929611	-0.596883
C80	C	-0.131728	-1.187309	0.158912
C81	C	-0.218968	-1.148485	0.252273
C82	C	-0.340244	-1.099388	0.196425
H83	H	-0.176192	-1.250403	0.116438
H84	H	-0.110349	-1.117224	0.100183
H85	H	-0.240349	-1.218562	0.310980
H86	H	-0.174547	-1.085379	0.294754
H87	H	-0.318865	-1.029303	0.137696
H88	H	-0.384695	-1.162489	0.153952
H89	H	-0.399446	-1.073030	0.259760
C90	C	0.375942	-1.638656	0.126147
C91	C	0.424068	-1.520078	0.152261
C92	C	0.376193	-1.493433	0.270753
H93	H	0.408448	-1.701074	0.188775
H94	H	0.278302	-1.638579	0.126173
H95	H	0.521688	-1.520165	0.152245
H96	H	0.391566	-1.457635	0.089664
H97	H	0.278553	-1.493356	0.270779
H98	H	0.408702	-1.555858	0.333371
H99	H	0.408829	-1.412972	0.288481
C100	C	0.127592	-1.174291	0.164170
C101	C	0.205670	-1.130270	0.261260
C102	C	0.323290	-1.069204	0.210262
H103	H	0.101204	-1.105175	0.106201
H104	H	0.180821	-1.231859	0.121702
H105	H	0.152451	-1.072705	0.303708
H106	H	0.232094	-1.199360	0.319237
H107	H	0.376519	-1.126772	0.167794
H108	H	0.296888	-1.000093	0.152293
H109	H	0.376287	-1.039338	0.276130
H110	H	0.383296	-1.758707	-0.033094
H111	H	0.098588	-1.195085	0.386258
H112	H	0.610857	-1.764031	-0.024009
H113	H	-0.000033	-1.129302	0.019393
H114	H	-0.000123	-0.891602	0.025694
C115	C	-0.000191	-1.727210	0.207959
C116	C	-0.000250	-1.825029	0.305612
C117	C	-0.000339	-1.941202	0.254343
H118	H	0.079503	-1.733499	0.157459
H119	H	-0.079929	-1.733379	0.157453
H120	H	0.079479	-1.818863	0.356096
H121	H	-0.079939	-1.818782	0.356120
H122	H	-0.080076	-1.947371	0.203837
H123	H	0.079357	-1.947477	0.203842
H124	H	-0.000391	-2.007586	0.320591
H125	H	0.095527	-1.049820	-0.484392
H126	H	-0.095829	-0.847737	-0.479022
H127	H	-0.000176	-1.689294	0.459397
H128	H	-0.095754	-1.185505	0.379945
