data_functionalizedCrystal
_audit_creation_method	'MofGen! by Chris Wilmer'
_symmetry_space_group_name_H-M	'P1'
_symmetry_Int_Tables_number	1
_symmetry_cell_setting	triclinic
loop_
_symmetry_equiv_pos_as_xyz
  x,y,z
_cell_length_a	16.959455
_cell_length_b	19.121063
_cell_length_c	16.959447
_cell_angle_alpha	92.406624
_cell_angle_beta	89.979626
_cell_angle_gamma	92.466224
loop_
_atom_site_label
_atom_site_type_symbol
_atom_site_fract_x
_atom_site_fract_y
_atom_site_fract_z
Zn1	Zn	1.194915	-0.279655	-0.460438
Zn2	Zn	1.189180	-0.397115	-0.333888
Zn3	Zn	1.062742	-0.279677	-0.328262
Zn4	Zn	1.057054	-0.397063	-0.466010
O5	O	1.125973	-0.338378	-0.397150
O6	O	1.304765	-0.295249	-0.443673
O7	O	1.172389	-0.381568	-0.222533
O8	O	1.085056	-0.181390	-0.341109
O9	O	1.300551	-0.381547	-0.350698
O10	O	1.182163	-0.181374	-0.438218
O11	O	1.079496	-0.295287	-0.218399
O12	O	0.951378	-0.295236	-0.346513
O13	O	1.075360	-0.381457	-0.575881
O14	O	0.947198	-0.381479	-0.447715
O15	O	1.176647	-0.295198	-0.571787
O16	O	1.166873	-0.495393	-0.356101
O17	O	1.069800	-0.495354	-0.453171
C18	C	0.920608	-0.338355	-0.397109
C19	C	0.832751	-0.338362	-0.397111
C20	C	0.459072	-0.383268	-0.348709
C21	C	0.463474	-0.293545	-0.445689
C22	C	0.546020	-0.293534	-0.445669
C23	C	0.585096	-0.338391	-0.397170
C24	C	0.541626	-0.383260	-0.348690
C25	C	0.589497	-0.248671	-0.494154
C26	C	0.672048	-0.248658	-0.494137
C27	C	0.711126	-0.293512	-0.445632
C28	C	0.667650	-0.338382	-0.397150
C29	C	0.706726	-0.383239	-0.348651
C30	C	0.663252	-0.428106	-0.300164
C31	C	0.580704	-0.428114	-0.300186
C32	C	0.793675	-0.293505	-0.445610
C33	C	0.789280	-0.383231	-0.348631
C34	C	1.117118	-0.520857	-0.405868
C35	C	1.113402	-0.598923	-0.409624
C36	C	1.162236	-0.635595	-0.360892
C37	C	1.158746	-0.708946	-0.364429
C38	C	1.106418	-0.745624	-0.416696
C39	C	1.057581	-0.708947	-0.465433
C40	C	1.061076	-0.635597	-0.461899
C41	C	1.093339	-0.967092	-0.429896
C42	C	1.089847	-1.040447	-0.433424
C43	C	1.191013	-1.040442	-0.332421
C44	C	1.194500	-0.967091	-0.328888
C45	C	1.145667	-0.930420	-0.377629
C46	C	1.102847	-0.820600	-0.420311
C47	C	1.149242	-0.855445	-0.374017
C48	C	1.332140	-0.338401	-0.397191
C49	C	1.419996	-0.338411	-0.397209
C50	C	1.126009	-0.338319	-0.603315
C51	C	1.126024	-0.338295	-0.691171
C52	C	1.134884	-0.155185	-0.388415
C53	C	1.138681	-0.077119	-0.384692
C54	C	1.073387	-0.383132	-1.064777
C55	C	1.178857	-0.293309	-1.060509
C56	C	1.178835	-0.293324	-0.977964
C57	C	1.126089	-0.338244	-0.938821
C58	C	1.073365	-0.383150	-0.982224
C59	C	1.231564	-0.248425	-0.934555
C60	C	1.231545	-0.248438	-0.852005
C61	C	1.178794	-0.293356	-0.812861
C62	C	1.126067	-0.338262	-0.856269
C63	C	1.073321	-0.383182	-0.817126
C64	C	1.020590	-0.428086	-0.860533
C65	C	1.020614	-0.428067	-0.943080
C66	C	1.178770	-0.293375	-0.730313
C67	C	1.073299	-0.383200	-0.734574
C68	C	1.125985	-0.338385	-0.191784
C69	C	1.126133	-0.338212	-0.103919
H70	H	0.695079	-0.464633	-0.260680
C71	C	1.323811	-1.062946	-0.295140
C72	C	1.244699	-1.080747	-0.278853
H73	H	1.356957	-1.087825	-0.262065
H74	H	1.334766	-1.074929	-0.348831
H75	H	1.333366	-1.014010	-0.285557
H76	H	1.235142	-1.129682	-0.288441
H77	H	1.233740	-1.068769	-0.225150
H78	H	0.423672	-0.419796	-0.309230
C79	C	1.023570	-0.612952	-0.594614
C80	C	1.007397	-0.595283	-0.515469
H81	H	0.990429	-0.588067	-0.627687
H82	H	1.077241	-0.600888	-0.605644
H83	H	1.013994	-0.661886	-0.604188
H84	H	1.016979	-0.546350	-0.505893
H85	H	0.953714	-0.607343	-0.504434
C86	C	1.261887	-0.642965	-0.261414
C87	C	1.219759	-0.595283	-0.303438
H88	H	1.297403	-0.618078	-0.225949
H89	H	1.226103	-0.671617	-0.232527
H90	H	1.290736	-0.671531	-0.297270
H91	H	1.190904	-0.566720	-0.267583
H92	H	1.255547	-0.566620	-0.332327
H93	H	0.557675	-0.212155	-0.533645
C94	C	0.668099	-0.159963	-0.589994
C95	C	0.719831	-0.199334	-0.547423
H96	H	0.697601	-0.129509	-0.622885
H97	H	0.634445	-0.190600	-0.621647
H98	H	0.637176	-0.133070	-0.554318
H99	H	0.750750	-0.226232	-0.583099
H100	H	0.753499	-0.168693	-0.515768
H101	H	1.191851	-0.825580	-0.331465
C102	C	0.877537	-0.477686	-0.341966
C103	C	0.832232	-0.432540	-0.295319
H104	H	0.904057	-0.508123	-0.309052
H105	H	0.844049	-0.504590	-0.377638
H106	H	0.915240	-0.450958	-0.370835
H107	H	0.794526	-0.459267	-0.266455
H108	H	0.865723	-0.405633	-0.259634
H109	H	0.545300	-0.464642	-0.260710
H110	H	0.431653	-0.257028	-0.485180
H111	H	0.829067	-0.256976	-0.485089
H112	H	1.198512	-0.738801	-0.324746
C113	C	1.234178	-0.944578	-0.194001
C114	C	1.252030	-0.926782	-0.271440
H115	H	1.269699	-0.919697	-0.158535
H116	H	1.181656	-0.932594	-0.181804
H117	H	1.239084	-0.993513	-0.189143
H118	H	1.247119	-0.877848	-0.276299
H119	H	1.304565	-0.938762	-0.283641
H120	H	1.047244	-1.070308	-0.476000
H121	H	1.053576	-0.937241	-0.469581
H122	H	1.014977	-0.738815	-0.507993
C123	C	1.087868	-0.903034	-0.530582
C124	C	1.045323	-0.860923	-0.477754
H125	H	1.052354	-0.927932	-0.566041
H126	H	1.123637	-0.874375	-0.559476
H127	H	1.116457	-0.935364	-0.502054
H128	H	1.016738	-0.828589	-0.506282
H129	H	1.009540	-0.889585	-0.448858
C130	C	0.969126	-0.471918	-1.060691
C131	C	1.015425	-0.432489	-1.112483
H132	H	0.933341	-0.502386	-1.090145
H133	H	1.002252	-0.498794	-1.029782
H134	H	0.940377	-0.441313	-1.027030
H135	H	1.044180	-0.463094	-1.146141
H136	H	0.982296	-0.405611	-1.143406
C137	C	0.969054	-0.471994	-0.747085
C138	C	1.015325	-0.432585	-0.691552
H139	H	0.933269	-0.502486	-0.720524
H140	H	0.940311	-0.441383	-0.777814
H141	H	1.002204	-0.498849	-0.780572
H142	H	0.982176	-0.405726	-0.658068
H143	H	1.044070	-0.463201	-0.660810
H144	H	0.977647	-0.464663	-0.828652
H145	H	0.977686	-0.464627	-0.978429
C146	C	1.225723	-0.253407	-1.185154
C147	C	1.236836	-0.243937	-1.103532
H148	H	1.261516	-0.222921	-1.211715
H149	H	1.235000	-0.300591	-1.200920
H150	H	1.173116	-0.243118	-1.198181
H151	H	1.289441	-0.254231	-1.090504
H152	H	1.227564	-0.196743	-1.087760
H153	H	1.274512	-0.211858	-0.966431
H154	H	1.274482	-0.211875	-0.816670
C155	C	1.283028	-0.204592	-0.734390
C156	C	1.236725	-0.244021	-0.682601
H157	H	1.318805	-0.174118	-0.704933
H158	H	1.311781	-0.235192	-0.768042
H159	H	1.249900	-0.177717	-0.765309
H160	H	1.269854	-0.270900	-0.651686
H161	H	1.207970	-0.213417	-0.648935
