data_functionalizedCrystal
_audit_creation_method	'MofGen! by Chris Wilmer'
_symmetry_space_group_name_H-M	'P1'
_symmetry_Int_Tables_number	1
_symmetry_cell_setting	triclinic
loop_
_symmetry_equiv_pos_as_xyz
  x,y,z
_cell_length_a	18.050589
_cell_length_b	10.686154
_cell_length_c	10.686551
_cell_angle_alpha	89.693980
_cell_angle_beta	85.596139
_cell_angle_gamma	85.593011
loop_
_atom_site_label
_atom_site_type_symbol
_atom_site_fract_x
_atom_site_fract_y
_atom_site_fract_z
Zn1	Zn	-0.181112	-1.972222	-0.562460
Zn2	Zn	-0.315532	-1.955940	-0.352708
Zn3	Zn	-0.200104	-1.746333	-0.368771
Zn4	Zn	-0.314022	-1.762371	-0.578479
O5	O	-0.252693	-1.859216	-0.465604
O6	O	-0.191627	-2.145607	-0.521209
O7	O	-0.308801	-1.914610	-0.179293
O8	O	-0.093655	-1.776399	-0.394483
O9	O	-0.290385	-2.133645	-0.367105
O10	O	-0.079702	-1.942359	-0.536785
O11	O	-0.223996	-1.760612	-0.191095
O12	O	-0.222532	-1.572915	-0.410016
O13	O	-0.287811	-1.803734	-0.751900
O14	O	-0.306227	-1.584698	-0.564088
O15	O	-0.190163	-1.957911	-0.740130
O16	O	-0.419262	-1.930161	-0.382639
O17	O	-0.418152	-1.787946	-0.548512
C18	C	-0.266277	-1.533290	-0.490534
C19	C	-0.272104	-1.393859	-0.501228
C20	C	-0.445652	-1.859063	-0.465595
C21	C	-0.528194	-1.859116	-0.465624
C22	C	-0.727066	-1.781860	-0.555791
C23	C	-0.783358	-1.742487	-0.443661
C24	C	-0.679319	-1.859240	-0.465631
C25	C	-0.770105	-1.898676	-0.577770
C26	C	-0.825298	-1.859359	-0.465648
C27	C	-0.734529	-1.819803	-0.353446
C28	C	-0.721265	-1.976051	-0.487627
C29	C	-0.777537	-1.936716	-0.375415
C30	C	-0.595224	-1.859169	-0.465624
C31	C	-0.909391	-1.859430	-0.465643
C32	C	-0.058977	-1.859406	-0.465639
C33	C	0.023573	-1.859487	-0.465653
C34	C	-0.236700	-1.884427	-0.792805
C35	C	-0.229885	-1.895171	-0.932238
C36	C	-0.239049	-1.186415	-0.440570
C37	C	-0.233218	-1.325846	-0.429881
C38	C	-0.268567	-1.834176	-0.139672
C39	C	-0.275162	-1.823675	-0.000221
H40	H	-0.195468	-1.374286	-0.360615
H41	H	-0.309862	-1.345412	-0.570491
C42	C	-0.697157	-1.693314	-0.658661
H43	H	-0.718590	-1.610382	-0.642826
H44	H	-0.709933	-1.720472	-0.738170
H45	H	-0.644491	-1.694446	-0.658429
C46	C	-0.819928	-1.609113	-0.418525
H47	H	-0.802631	-1.554190	-0.482651
H48	H	-0.807191	-1.580607	-0.339489
H49	H	-0.872526	-1.610257	-0.417957
C50	C	-0.334585	-1.729895	-0.934758
H51	H	-0.362083	-1.686494	-0.996101
H52	H	-0.310934	-1.671367	-0.887815
H53	H	-0.367412	-1.773984	-0.879976
C54	C	-0.684671	-2.109394	-0.512804
H55	H	-0.657644	-2.136369	-0.443418
H56	H	-0.651639	-2.108962	-0.586393
H57	H	-0.722161	-2.165125	-0.524120
H58	H	-0.785961	-1.931982	-0.672596
H59	H	-0.185907	-1.964610	-0.980711
H60	H	-0.718769	-1.786383	-0.258601
H61	H	-0.799545	-2.002199	-0.299096
