data_functionalizedCrystal
_audit_creation_method	'MofGen! by Chris Wilmer'
_symmetry_space_group_name_H-M	'P1'
_symmetry_Int_Tables_number	1
_symmetry_cell_setting	triclinic
loop_
_symmetry_equiv_pos_as_xyz
  x,y,z
_cell_length_a	19.077105
_cell_length_b	12.759394
_cell_length_c	19.076919
_cell_angle_alpha	87.724147
_cell_angle_beta	89.923776
_cell_angle_gamma	87.710378
loop_
_atom_site_label
_atom_site_type_symbol
_atom_site_fract_x
_atom_site_fract_y
_atom_site_fract_z
Zn1	Zn	1.058332	-0.508277	0.440442
Zn2	Zn	1.558332	-0.008277	0.940442
Zn3	Zn	1.062993	-0.677204	0.322943
Zn4	Zn	1.562993	-0.177204	0.822943
Zn5	Zn	0.945548	-0.494202	0.318235
Zn6	Zn	1.445548	0.005798	0.818235
Zn7	Zn	0.940815	-0.676570	0.435696
Zn8	Zn	1.440815	-0.176570	0.935696
O9	O	1.001922	-0.589063	0.379329
O10	O	1.501922	-0.089063	0.879329
O11	O	1.157283	-0.536841	0.428812
O12	O	1.657283	-0.036841	0.928812
O13	O	1.051345	-0.647303	0.223987
O14	O	1.551345	-0.147303	0.723987
O15	O	0.960540	-0.349051	0.334462
O16	O	1.460540	0.150949	0.834462
O17	O	1.160707	-0.660951	0.342487
O18	O	1.660707	-0.160951	0.842487
O19	O	1.043402	-0.359391	0.424247
O20	O	1.543402	0.140609	0.924247
O21	O	0.965059	-0.512853	0.220528
O22	O	1.465059	-0.012853	0.720528
O23	O	0.846588	-0.512239	0.329859
O24	O	1.346588	-0.012239	0.829859
O25	O	0.952472	-0.659871	0.534657
O26	O	1.452472	-0.159871	1.034657
O27	O	0.843110	-0.646224	0.416158
O28	O	1.343110	-0.146224	0.916158
O29	O	1.038812	-0.536226	0.538144
O30	O	1.538812	-0.036226	1.038144
O31	O	1.046755	-0.824138	0.337884
O32	O	1.546755	-0.324138	0.837884
O33	O	0.956991	-0.823673	0.420723
O34	O	1.456991	-0.323673	0.920723
C35	C	0.819352	-0.577636	0.371983
C36	C	1.319352	-0.077636	0.871983
C37	C	0.741248	-0.572773	0.368857
C38	C	1.241248	-0.072773	0.868857
C39	C	0.702764	-0.640345	0.412248
C40	C	1.202764	-0.140345	0.912248
C41	C	0.629376	-0.635763	0.409315
C42	C	1.129376	-0.135763	0.909315
C43	C	0.594473	-0.563613	0.362985
C44	C	1.094473	-0.063613	0.862985
C45	C	0.632962	-0.496034	0.319592
C46	C	1.132962	0.003966	0.819592
C47	C	0.706348	-0.500612	0.322530
C48	C	1.206348	-0.000612	0.822530
C49	C	0.375184	-0.542425	0.349391
C50	C	0.875184	-0.042425	0.849391
C51	C	0.301792	-0.537854	0.346455
C52	C	0.801792	-0.037854	0.846455
C53	C	0.298211	-0.677582	0.436180
C54	C	0.798211	-0.177582	0.936180
C55	C	0.371600	-0.682158	0.439110
C56	C	0.871600	-0.182158	0.939110
C57	C	0.410082	-0.614575	0.395720
C58	C	0.910082	-0.114575	0.895720
N59	N	0.519459	-0.558929	0.359984
N60	N	1.019459	-0.058929	0.859984
N61	N	0.485094	-0.619254	0.398725
N62	N	0.985094	-0.119254	0.898725
C63	C	1.001883	-0.862028	0.379316
C64	C	1.501883	-0.362028	0.879316
C65	C	1.001930	-0.978809	0.379336
C66	C	1.501930	-0.478809	0.879336
C67	C	1.088144	-0.989417	0.472894
C68	C	1.588144	-0.489417	0.972894
C69	C	1.131273	-1.049584	0.519679
C70	C	1.631273	-0.549584	1.019679
C71	C	1.131314	-1.159309	0.519696
C72	C	1.631314	-0.659309	1.019696
C73	C	1.088220	-1.208870	0.472924
C74	C	1.588220	-0.708870	0.972924
C75	C	1.045091	-1.148703	0.426139
C76	C	1.545091	-0.648703	0.926139
C77	C	1.045057	-1.038976	0.426126
C78	C	1.545057	-0.538976	0.926126
C79	C	0.958875	-1.138094	0.332586
C80	C	1.458875	-0.638094	0.832586
C81	C	0.958836	-1.028369	0.332564
C82	C	1.458836	-0.528369	0.832564
C83	C	0.915781	-1.187654	0.285814
C84	C	1.415781	-0.687654	0.785814
C85	C	0.872655	-1.127487	0.239024
C86	C	1.372655	-0.627487	0.739024
C87	C	0.872616	-1.017755	0.239009
C88	C	1.372616	-0.517755	0.739009
C89	C	0.915707	-0.968202	0.285779
C90	C	1.415707	-0.468202	0.785779
C91	C	1.185205	-0.600536	0.386704
C92	C	1.685205	-0.100536	0.886704
C93	C	1.263309	-0.605426	0.389847
C94	C	1.763309	-0.105426	0.889847
C95	C	0.994594	-0.599548	0.562610
C96	C	1.494594	-0.099548	1.062610
C97	C	0.991471	-0.604016	0.640713
C98	C	1.491471	-0.104016	1.140713
C99	C	1.001979	-0.315035	0.379358
C100	C	1.501979	0.184965	0.879358
C101	C	1.002004	-0.198261	0.379371
C102	C	1.502004	0.301739	0.879371
C103	C	1.009262	-0.578546	0.196763
C104	C	1.509262	-0.078546	0.696763
C105	C	1.012521	-0.573791	0.118665
C106	C	1.512521	-0.073791	0.618665
C107	C	1.034954	-0.541743	0.679223
C108	C	1.534954	-0.041743	1.179223
C109	C	1.032011	-0.545936	0.752609
C110	C	1.532011	-0.045936	1.252609
C111	C	0.985589	-0.612409	0.787484
C112	C	1.485589	-0.112409	1.287484
C113	C	0.942101	-0.674685	0.748969
C114	C	1.442101	-0.174685	1.248969
C115	C	0.945040	-0.670485	0.675584
C116	C	1.445040	-0.170485	1.175584
C117	C	0.971973	-0.631867	1.006766
C118	C	1.471973	-0.131867	1.506766
C119	C	0.969038	-0.636064	1.080156
C120	C	1.469038	-0.136064	1.580156
C121	C	1.058948	-0.507314	1.083791
C122	C	1.558948	-0.007314	1.583791
C123	C	1.061887	-0.503125	1.010404
C124	C	1.561887	-0.003125	1.510404
C125	C	1.018396	-0.565396	0.971896
C126	C	1.518396	-0.065396	1.471896
N127	N	0.982581	-0.616699	0.862496
N128	N	1.482581	-0.116699	1.362496
N129	N	1.021401	-0.561099	0.896885
N130	N	1.521401	-0.061099	1.396885
H131	H	0.273376	-0.479089	0.308733
H132	H	0.773376	0.020911	0.808733
Cl133	Cl	1.113616	-0.429031	1.132205
Cl134	Cl	1.613616	0.070969	1.632205
Cl135	Cl	1.120250	-0.419556	0.966567
Cl136	Cl	1.620250	0.080444	1.466567
Cl137	Cl	0.915933	-1.325595	0.285742
Cl138	Cl	1.415933	-0.825595	0.785742
Cl139	Cl	0.415472	-0.772867	0.497354
Cl140	Cl	0.915472	-0.272867	0.997354
H141	H	0.837567	-1.167848	0.200949
H142	H	1.337567	-0.667848	0.700949
H143	H	0.731177	-0.699101	0.449973
H144	H	1.231177	-0.199101	0.949973
Cl145	Cl	0.818390	-0.942126	0.180192
Cl146	Cl	1.318390	-0.442126	0.680192
H147	H	0.931233	-0.690197	1.108549
H148	H	1.431233	-0.190197	1.608549
H149	H	1.067422	-0.495229	0.783960
H150	H	1.567422	0.004771	1.283960
Cl151	Cl	0.915651	-0.830261	0.285774
Cl152	Cl	1.415651	-0.330261	0.785774
H153	H	0.266872	-0.732602	0.471507
H154	H	0.766872	-0.232602	0.971507
Cl155	Cl	1.093321	-0.458178	0.635387
Cl156	Cl	1.593321	0.041822	1.135387
Cl157	Cl	0.423551	-0.457460	0.294845
Cl158	Cl	0.923551	0.042540	0.794845
H159	H	0.604538	-0.437284	0.281872
H160	H	1.104538	0.062716	0.781872
Cl161	Cl	0.890371	-0.748771	0.627171
Cl162	Cl	1.390371	-0.248771	1.127171
H163	H	0.936570	-0.682589	0.975421
H164	H	1.436570	-0.182589	1.475421
Cl165	Cl	0.883738	-0.758247	0.792812
Cl166	Cl	1.383738	-0.258247	1.292812
H167	H	0.598046	-0.690788	0.444648
H168	H	1.098046	-0.190788	0.944648
Cl169	Cl	1.088086	-0.851477	0.472886
Cl170	Cl	1.588086	-0.351477	0.972886
H171	H	1.166359	-1.009223	0.557762
H172	H	1.666359	-0.509223	1.057762
Cl173	Cl	0.754728	-0.415658	0.267980
Cl174	Cl	1.254728	0.084342	0.767980
H175	H	1.166426	-1.208298	0.557800
H176	H	1.666426	-0.708298	1.057800
H177	H	1.088252	-1.298214	0.472948
H178	H	1.588252	-0.798214	0.972948
