data_functionalizedCrystal
_audit_creation_method	'MofGen! by Chris Wilmer'
_symmetry_space_group_name_H-M	'P1'
_symmetry_Int_Tables_number	1
_symmetry_cell_setting	triclinic
loop_
_symmetry_equiv_pos_as_xyz
  x,y,z
_cell_length_a	18.050590
_cell_length_b	18.050590
_cell_length_c	18.101389
_cell_angle_alpha	90.019149
_cell_angle_beta	90.003324
_cell_angle_gamma	90.007719
loop_
_atom_site_label
_atom_site_type_symbol
_atom_site_fract_x
_atom_site_fract_y
_atom_site_fract_z
Zn1	Zn	1.135372	-0.295952	0.418420
Zn2	Zn	1.468706	0.037381	0.751753
Zn3	Zn	1.802039	0.370715	1.085087
Zn4	Zn	1.135295	-0.420126	0.294577
Zn5	Zn	1.468628	-0.086793	0.627910
Zn6	Zn	1.801962	0.246540	0.961244
Zn7	Zn	1.011183	-0.295931	0.294626
Zn8	Zn	1.344516	0.037402	0.627960
Zn9	Zn	1.677849	0.370736	0.961293
Zn10	Zn	1.011160	-0.420081	0.418411
Zn11	Zn	1.344494	-0.086748	0.751744
Zn12	Zn	1.677827	0.246585	1.085077
O13	O	1.073253	-0.358023	0.356509
O14	O	1.406586	-0.024689	0.689842
O15	O	1.739919	0.308644	1.023175
O16	O	1.239287	-0.312452	0.401975
O17	O	1.572620	0.020882	0.735308
O18	O	1.905953	0.354215	1.068642
O19	O	1.118808	-0.403662	0.190950
O20	O	1.452142	-0.070328	0.524284
O21	O	1.785475	0.263005	0.857617
O22	O	1.027698	-0.192009	0.311073
O23	O	1.361032	0.141324	0.644406
O24	O	1.694365	0.474657	0.977739
O25	O	1.239230	-0.403682	0.310988
O26	O	1.572563	-0.070349	0.644321
O27	O	1.905897	0.262985	0.977655
O28	O	1.118940	-0.192025	0.402023
O29	O	1.452273	0.141309	0.735356
O30	O	1.785607	0.474642	1.068690
O31	O	1.027623	-0.312416	0.190987
O32	O	1.360957	0.020917	0.524320
O33	O	1.694290	0.354251	0.857654
O34	O	0.907255	-0.312372	0.311064
O35	O	1.240588	0.020961	0.644397
O36	O	1.573922	0.354294	0.977730
O37	O	1.027660	-0.403605	0.522045
O38	O	1.360994	-0.070272	0.855378
O39	O	1.694327	0.263061	1.188712
O40	O	0.907239	-0.403585	0.402007
O41	O	1.240572	-0.070252	0.735341
O42	O	1.573906	0.263082	1.068674
O43	O	1.118918	-0.312408	0.522052
O44	O	1.452252	0.020925	0.855385
O45	O	1.785585	0.354259	1.188718
O46	O	1.118787	-0.524045	0.310979
O47	O	1.452120	-0.190712	0.644312
O48	O	1.785453	0.142622	0.977646
O49	O	1.027586	-0.524012	0.401959
O50	O	1.360919	-0.190678	0.735293
O51	O	1.694252	0.142655	1.068626
C52	C	0.880301	-0.357972	0.356540
C53	C	1.213634	-0.024639	0.689874
C54	C	1.546967	0.308695	1.023207
C55	C	0.797755	-0.357968	0.356572
C56	C	1.131088	-0.024635	0.689905
C57	C	1.464421	0.308699	1.023238
C58	C	0.598317	-0.407712	0.405909
C59	C	0.931650	-0.074378	0.739243
C60	C	1.264983	0.258955	1.072576
C61	C	0.548914	-0.339998	0.424134
C62	C	0.882247	-0.006665	0.757467
C63	C	1.215580	0.326669	1.090801
C64	C	0.646624	-0.358010	0.356535
C65	C	0.979958	-0.024676	0.689869
C66	C	1.313291	0.308657	1.023202
C67	C	0.548946	-0.425762	0.338310
C68	C	0.882279	-0.092429	0.671643
C69	C	1.215613	0.240905	1.004977
C70	C	0.500639	-0.358056	0.356502
C71	C	0.833973	-0.024722	0.689835
C72	C	1.167306	0.308611	1.023169
C73	C	0.598308	-0.290260	0.374796
C74	C	0.931642	0.043073	0.708129
C75	C	1.264975	0.376407	1.041462
C76	C	0.598345	-0.376070	0.288940
C77	C	0.931678	-0.042736	0.622273
C78	C	1.265012	0.290597	0.955606
C79	C	0.548964	-0.308309	0.307139
C80	C	0.882298	0.025024	0.640472
C81	C	1.215631	0.358357	0.973806
C82	C	0.730723	-0.357984	0.356557
C83	C	1.064056	-0.024651	0.689890
C84	C	1.397389	0.308683	1.023223
C85	C	0.416543	-0.358074	0.356481
C86	C	0.749876	-0.024740	0.689814
C87	C	1.083209	0.308593	1.023147
C88	C	1.073196	-0.550975	0.356479
C89	C	1.406529	-0.217641	0.689812
C90	C	1.739862	0.115692	1.023146
C91	C	1.073239	-0.633521	0.356491
C92	C	1.406572	-0.300187	0.689824
C93	C	1.739906	0.033146	1.023158
C94	C	1.122937	-0.832962	0.307085
C95	C	1.456271	-0.499629	0.640418
C96	C	1.789604	-0.166296	0.973752
C97	C	1.141078	-0.882309	0.374670
C98	C	1.474411	-0.548976	0.708003
C99	C	1.807744	-0.215643	1.041337
C100	C	1.073281	-0.784651	0.356521
C101	C	1.406615	-0.451318	0.689854
C102	C	1.739948	-0.117984	1.023187
C103	C	1.055216	-0.882386	0.288966
C104	C	1.388550	-0.549052	0.622299
C105	C	1.721883	-0.215719	0.955633
C106	C	1.073323	-0.930636	0.356543
C107	C	1.406657	-0.597303	0.689877
C108	C	1.739990	-0.263969	1.023210
C109	C	1.091456	-0.832911	0.424141
C110	C	1.424790	-0.499577	0.757474
C111	C	1.758123	-0.166244	1.090808
C112	C	1.005564	-0.832983	0.338392
C113	C	1.338897	-0.499649	0.671725
C114	C	1.672230	-0.166316	1.005058
C115	C	1.023678	-0.882307	0.406023
C116	C	1.357011	-0.548974	0.739356
C117	C	1.690345	-0.215641	1.072690
C118	C	1.073259	-0.700553	0.356507
C119	C	1.406592	-0.367219	0.689840
C120	C	1.739926	-0.033886	1.023173
C121	C	1.073346	-1.014733	0.356565
C122	C	1.406679	-0.681399	0.689898
C123	C	1.740012	-0.348066	1.023231
C124	C	1.266958	-0.358074	0.356477
C125	C	1.600292	-0.024741	0.689810
C126	C	1.933625	0.308593	1.023144
C127	C	1.349504	-0.358096	0.356463
C128	C	1.682837	-0.024763	0.689797
C129	C	2.016171	0.308571	1.023130
C130	C	1.073296	-0.358004	0.549670
C131	C	1.406629	-0.024671	0.883004
C132	C	1.739962	0.308663	1.216337
C133	C	1.073314	-0.357996	0.631985
C134	C	1.406647	-0.024663	0.965318
C135	C	1.739980	0.308671	1.298651
C136	C	1.073330	-0.164317	0.356554
C137	C	1.406664	0.169016	0.689888
C138	C	1.739997	0.502350	1.023221
C139	C	1.073363	-0.081771	0.356574
C140	C	1.406697	0.251562	0.689907
C141	C	1.740030	0.584895	1.023241
C142	C	1.073253	-0.357988	0.164098
C143	C	1.406586	-0.024654	0.497431
C144	C	1.739919	0.308679	0.830765
C145	C	1.073378	-0.357787	0.081784
C146	C	1.406712	-0.024453	0.415118
C147	C	1.740045	0.308880	0.748451
C148	C	1.073357	-0.357857	0.931076
C149	C	1.406690	-0.024523	1.264409
C150	C	1.740024	0.308810	1.597742
C151	C	1.015742	-0.415053	0.899746
C152	C	1.349076	-0.081720	1.233080
C153	C	1.682409	0.251614	1.566413
C154	C	1.015898	-0.415318	0.814128
C155	C	1.349231	-0.081985	1.147461
C156	C	1.682565	0.251348	1.480795
C157	C	1.073335	-0.357926	0.782693
C158	C	1.406668	-0.024592	1.116026
C159	C	1.740002	0.308741	1.449360
C160	C	1.151585	-0.379184	0.813770
C161	C	1.484918	-0.045851	1.147103
C162	C	1.818251	0.287482	1.480437
C163	C	1.151264	-0.379560	0.899415
C164	C	1.484597	-0.046226	1.232748
C165	C	1.817930	0.287107	1.566082
C166	C	1.053402	-0.279275	0.899508
C167	C	1.386736	0.054059	1.232842
C168	C	1.720069	0.387392	1.566175
C169	C	1.051662	-0.279728	0.813858
C170	C	1.384995	0.053605	1.147191
C171	C	1.718328	0.386938	1.480525
C172	C	1.073327	-0.357964	0.698834
C173	C	1.406661	-0.024630	1.032167
C174	C	1.739994	0.308703	1.365500
C175	C	1.073370	-0.357821	1.014935
C176	C	1.406703	-0.024487	1.348269
C177	C	1.740037	0.308846	1.681602
H178	H	0.620074	-0.391351	0.231806
H179	H	0.953408	-0.058017	0.565140
H180	H	1.286741	0.275316	0.898473
Cl181	Cl	0.962750	-0.254979	0.782510
Cl182	Cl	1.296084	0.078354	1.115843
Cl183	Cl	1.629417	0.411688	1.449177
H184	H	0.957873	-0.402014	0.793117
H185	H	1.291207	-0.068680	1.126450
H186	H	1.624540	0.264653	1.459783
H187	H	1.090562	-0.234851	0.792460
H188	H	1.423896	0.098483	1.125794
H189	H	1.757229	0.431816	1.459127
H190	H	0.948295	-0.811298	0.323023
H191	H	1.281628	-0.477965	0.656357
H192	H	1.614961	-0.144632	0.989690
H193	H	1.106696	-0.811271	0.481330
H194	H	1.440029	-0.477937	0.814663
H195	H	1.773363	-0.144604	1.147996
Cl196	Cl	1.219748	-0.317994	0.931416
Cl197	Cl	1.553081	0.015340	1.264749
Cl198	Cl	1.886415	0.348673	1.598083
Cl199	Cl	1.219646	-0.316890	0.782336
Cl200	Cl	1.552979	0.016444	1.115670
Cl201	Cl	1.886312	0.349777	1.449003
H202	H	0.527259	-0.483040	0.322911
H203	H	0.860592	-0.149706	0.656244
H204	H	1.193926	0.183627	0.989577
Cl205	Cl	1.036283	-0.505238	0.782491
Cl206	Cl	1.369616	-0.171905	1.115824
Cl207	Cl	1.702949	0.161429	1.449157
Cl208	Cl	1.178153	-0.466933	0.780657
Cl209	Cl	1.511486	-0.133599	1.113991
Cl210	Cl	1.844820	0.199734	1.447324
H211	H	0.981704	-0.903837	0.447887
H212	H	1.315037	-0.570504	0.781221
H213	H	1.648370	-0.237171	1.114554
Cl214	Cl	1.177376	-0.468250	0.930261
Cl215	Cl	1.510709	-0.134916	1.263594
Cl216	Cl	1.844042	0.198417	1.596927
H217	H	0.997334	-0.259910	0.921115
H218	H	1.330667	0.073424	1.254448
H219	H	1.664000	0.406757	1.587782
Cl220	Cl	0.515389	-0.316435	0.512368
Cl221	Cl	0.848723	0.016898	0.845701
Cl222	Cl	1.182056	0.350232	1.179034
H223	H	0.619901	-0.232965	0.390261
H224	H	0.953234	0.100368	0.723594
H225	H	1.286567	0.433702	1.056928
H226	H	1.095366	-0.236661	0.919769
H227	H	1.428700	0.096673	1.253103
H228	H	1.762033	0.430006	1.586436
H229	H	0.619989	-0.449669	0.447710
H230	H	0.953322	-0.116336	0.781043
H231	H	1.286655	0.216997	1.114377
Cl232	Cl	1.031599	-0.915939	0.200749
Cl233	Cl	1.364932	-0.582606	0.534082
Cl234	Cl	1.698266	-0.249273	0.867415
H235	H	0.527431	-0.266249	0.265371
H236	H	0.860764	0.067084	0.598704
H237	H	1.194098	0.400417	0.932038
Cl238	Cl	1.187789	-0.799506	0.242605
Cl239	Cl	1.521122	-0.466173	0.575939
Cl240	Cl	1.854455	-0.132840	0.909272
Cl241	Cl	0.925882	-0.394720	0.931555
Cl242	Cl	1.259215	-0.061387	1.264888
Cl243	Cl	1.592549	0.271947	1.598221
Cl244	Cl	1.229524	-0.915747	0.398380
Cl245	Cl	1.562857	-0.582414	0.731713
Cl246	Cl	1.896191	-0.249081	1.065047
Cl247	Cl	1.035837	-0.504424	0.933025
Cl248	Cl	1.369171	-0.171090	1.266358
Cl249	Cl	1.702504	0.162243	1.599691
