data_functionalizedCrystal
_audit_creation_method	'MofGen! by Chris Wilmer'
_symmetry_space_group_name_H-M	'P1'
_symmetry_Int_Tables_number	1
_symmetry_cell_setting	triclinic
loop_
_symmetry_equiv_pos_as_xyz
  x,y,z
_cell_length_a	12.811438
_cell_length_b	17.019294
_cell_length_c	15.500237
_cell_angle_alpha	88.951865
_cell_angle_beta	92.565695
_cell_angle_gamma	84.089977
loop_
_atom_site_label
_atom_site_type_symbol
_atom_site_fract_x
_atom_site_fract_y
_atom_site_fract_z
O1	O	1.390519	0.107741	0.029144
O2	O	1.086594	0.118043	0.004526
O3	O	1.246461	-0.001449	0.025978
O4	O	1.230653	0.227233	0.007693
O5	O	1.236758	0.005774	0.168567
O6	O	1.076892	0.125266	0.147115
O7	O	1.380817	0.114964	0.171733
Cu8	Cu	1.227968	0.120775	0.172444
Cu9	Cu	1.239443	0.112233	0.003816
O10	O	1.220950	0.234456	0.150282
C11	C	1.042844	0.120855	0.072828
C12	C	0.926936	0.118464	0.063910
C13	C	1.240819	-0.027122	0.099391
C14	C	1.238450	-0.114379	0.105704
C15	C	0.768854	0.111156	-0.026374
C16	C	0.877761	0.113402	-0.018003
C17	C	0.867197	0.121277	0.137457
C18	C	0.758291	0.119030	0.129085
C19	C	0.709123	0.113971	0.047167
C20	C	0.600214	0.111730	0.038795
C21	C	0.589654	0.119599	0.194255
C22	C	0.698560	0.121846	0.202626
C23	C	1.242629	-0.159305	0.030945
C24	C	1.240396	-0.241291	0.036878
C25	C	1.233993	-0.278351	0.117571
C26	C	1.229811	-0.233418	0.192336
C27	C	1.232036	-0.151432	0.186401
C28	C	1.227004	-0.525697	0.139378
C29	C	1.224783	-0.607688	0.145308
C30	C	1.235366	-0.615556	-0.010151
C31	C	1.237597	-0.533569	-0.016078
C32	C	1.233409	-0.488643	0.058686
C33	C	1.231715	-0.362154	0.123638
C34	C	1.235680	-0.404840	0.052617
C35	C	1.424568	0.112152	0.103430
C36	C	1.540476	0.114543	0.112342
C37	C	1.226592	0.260129	0.076867
C38	C	1.228961	0.347385	0.070549
N39	N	1.219906	0.126782	0.291048
C40	C	1.287670	0.076168	0.345415
C41	C	1.281582	0.080719	0.435171
C42	C	1.207734	0.135888	0.470558
C43	C	1.139962	0.186504	0.416185
C44	C	1.146046	0.181949	0.326430
C45	C	1.185818	0.152284	0.741083
C46	C	1.179741	0.156837	0.830845
C47	C	1.321360	0.051050	0.849825
C48	C	1.327441	0.046503	0.760068
C49	C	1.259666	0.097117	0.705702
C50	C	1.201511	0.140543	0.562303
C51	C	1.265885	0.092458	0.613959
N52	N	1.247505	0.106223	0.885212
H53	H	0.560183	0.107614	-0.027907
H54	H	1.090864	0.223163	0.282165
H55	H	1.326008	0.047536	0.585144
H56	H	0.926390	0.111110	-0.077888
H57	H	0.907250	0.125387	0.204152
H58	H	0.738608	0.125962	0.269322
H59	H	1.243803	-0.277867	-0.023999
H60	H	1.141384	0.185464	0.591123
H61	H	0.541008	0.121895	0.254137
H62	H	0.728820	0.107045	-0.093076
N63	N	1.249545	-0.119337	-0.056089
H64	H	1.251851	-0.160242	-0.102547
H65	H	1.186040	-0.079591	-0.067453
N66	N	1.222501	-0.477248	0.220014
H67	H	1.218115	-0.513169	0.272031
H68	H	1.287855	-0.448963	0.226448
H69	H	1.226504	-0.392337	0.189340
H70	H	1.242812	-0.503401	-0.081787
H71	H	1.228619	-0.114853	0.247277
N72	N	1.060316	0.246008	0.454357
H73	H	1.073591	0.301084	0.435519
H74	H	0.987279	0.235525	0.433645
N75	N	1.239881	-0.664010	-0.090785
H76	H	1.237500	-0.721571	-0.074785
H77	H	1.177920	-0.645497	-0.131278
H78	H	1.119602	0.201766	0.859651
H79	H	1.224591	-0.263598	0.258038
N80	N	1.217885	-0.647666	0.232344
H81	H	1.151300	-0.625791	0.259785
H82	H	1.217166	-0.706414	0.224679
N83	N	1.242518	-0.364838	-0.034404
H84	H	1.308315	-0.336875	-0.034831
H85	H	1.244768	-0.405756	-0.080844
N86	N	1.367327	0.016669	0.307251
H87	H	1.409330	-0.014705	0.355315
H88	H	1.329763	-0.020272	0.269489
N89	N	1.354706	0.026156	0.493811
H90	H	1.402428	-0.009472	0.457775
H91	H	1.398421	0.058520	0.532379
H92	H	1.387574	0.001580	0.731258
H93	H	1.376538	0.009842	0.894098
N94	N	1.112715	0.206868	0.682453
H95	H	1.065013	0.242507	0.718493
H96	H	1.155318	0.240031	0.645728
