data_functionalizedCrystal
_audit_creation_method	'MofGen! by Chris Wilmer'
_symmetry_space_group_name_H-M	'P1'
_symmetry_Int_Tables_number	1
_symmetry_cell_setting	triclinic
loop_
_symmetry_equiv_pos_as_xyz
  x,y,z
_cell_length_a	16.992694
_cell_length_b	14.853567
_cell_length_c	16.053802
_cell_angle_alpha	92.572962
_cell_angle_beta	87.249047
_cell_angle_gamma	87.151577
loop_
_atom_site_label
_atom_site_type_symbol
_atom_site_fract_x
_atom_site_fract_y
_atom_site_fract_z
O1	O	1.043898	0.187626	-0.069313
O2	O	0.815612	0.185528	-0.069338
O3	O	0.935853	0.055778	-0.069327
O4	O	0.923657	0.317376	-0.069323
O5	O	0.929234	0.062888	0.069531
O6	O	0.808993	0.192638	0.069521
O7	O	1.037280	0.194737	0.069545
Zn8	Zn	0.922086	0.194816	0.091580
Zn9	Zn	0.930806	0.185448	-0.091372
O10	O	0.917038	0.324487	0.069535
C11	C	0.783087	0.186385	0.000088
C12	C	0.696035	0.178334	0.000078
C13	C	0.645879	0.256009	0.000080
C14	C	0.564083	0.248440	0.000092
C15	C	0.532446	0.163195	0.000095
C16	C	0.582608	0.085513	0.000096
C17	C	0.664401	0.093084	0.000091
C18	C	0.288813	0.131819	0.000117
C19	C	0.207013	0.124255	0.000120
C20	C	0.188494	0.287183	0.000117
C21	C	0.270290	0.294745	0.000107
C22	C	0.320445	0.217064	0.000112
N23	N	0.448838	0.155456	0.000104
N24	N	0.404051	0.224804	0.000109
C25	C	0.931991	0.025705	0.000099
C26	C	0.930335	-0.074496	0.000092
C27	C	0.851909	-0.492567	0.000099
C28	C	0.994758	-0.503761	0.000115
C29	C	0.996315	-0.409617	0.000110
C30	C	0.925668	-0.356944	0.000101
C31	C	0.853464	-0.398414	0.000097
C32	C	1.068518	-0.368139	0.000123
C33	C	1.070078	-0.273990	0.000119
C34	C	0.999430	-0.221316	0.000104
C35	C	0.927223	-0.262792	0.000099
C36	C	0.856576	-0.210118	0.000090
C37	C	0.784368	-0.251593	0.000079
C38	C	0.782816	-0.345740	0.000082
C39	C	1.000983	-0.127169	0.000101
C40	C	0.858131	-0.115966	0.000088
C41	C	1.069804	0.193880	0.000118
C42	C	1.156857	0.201930	0.000122
C43	C	0.920900	0.354559	0.000106
C44	C	0.922556	0.454760	0.000108
N45	N	0.916140	0.201210	0.216440
N46	N	0.936757	0.179048	-0.216232
C47	C	0.967322	0.146023	0.260138
C48	C	0.963170	0.150505	0.347544
C49	C	0.907840	0.210178	0.391251
C50	C	0.856653	0.265367	0.347546
C51	C	0.860801	0.260880	0.260141
C52	C	0.889719	0.229750	0.652659
C53	C	0.885576	0.234235	0.740070
C54	C	0.992092	0.119371	0.740062
C55	C	0.996239	0.114894	0.652655
C56	C	0.945049	0.170079	0.608958
N57	N	0.903597	0.214762	0.480594
N58	N	0.949289	0.165490	0.519617
H59	H	0.181257	0.054834	0.000122
H60	H	1.059773	-0.093404	0.000115
F61	F	0.775064	-0.536707	0.000081
F62	F	1.046567	0.060641	0.786572
H63	H	1.126034	-0.411032	0.000138
F64	F	1.026216	0.082515	0.213631
F65	F	0.548935	-0.005212	0.000105
F66	F	0.826683	0.297753	0.786580
H67	H	0.523249	0.311692	0.000092
F68	F	0.797762	0.328872	0.394063
H69	H	0.848039	0.274686	0.617088
H70	H	0.147649	0.350426	0.000115
H71	H	0.800601	-0.073086	0.000077
H72	H	0.705238	0.029832	0.000089
F73	F	0.342181	0.049143	0.000122
F74	F	1.017642	0.091768	0.394052
H75	H	0.296043	0.364160	0.000094
F76	F	1.055128	0.051384	0.606141
H77	H	1.052275	-0.546652	0.000129
H78	H	1.128874	-0.240230	0.000127
F79	F	0.709183	-0.195523	0.000076
F80	F	0.679542	0.346740	0.000071
F81	F	0.705975	-0.389886	0.000068
H82	H	0.819123	0.305817	0.224563
