data_functionalizedCrystal
_audit_creation_method	'MofGen! by Chris Wilmer'
_symmetry_space_group_name_H-M	'P1'
_symmetry_Int_Tables_number	1
_symmetry_cell_setting	triclinic
loop_
_symmetry_equiv_pos_as_xyz
  x,y,z
_cell_length_a	14.908571
_cell_length_b	16.959453
_cell_length_c	14.909227
_cell_angle_alpha	86.673128
_cell_angle_beta	83.209827
_cell_angle_gamma	86.716085
loop_
_atom_site_label
_atom_site_type_symbol
_atom_site_fract_x
_atom_site_fract_y
_atom_site_fract_z
Zn1	Zn	1.413375	-0.356325	-0.591512
Zn2	Zn	1.404535	-0.495724	-0.440138
Zn3	Zn	1.253268	-0.356343	-0.431443
Zn4	Zn	1.261975	-0.481243	-0.582741
O5	O	1.333288	-0.422409	-0.511458
O6	O	1.538869	-0.380870	-0.578742
O7	O	1.377126	-0.483302	-0.312316
O8	O	1.274562	-0.245731	-0.452708
O9	O	1.532375	-0.483285	-0.467528
O10	O	1.392192	-0.245718	-0.570310
O11	O	1.265991	-0.380900	-0.305927
O12	O	1.127756	-0.366859	-0.444203
O13	O	1.289401	-0.458605	-0.710573
O14	O	1.134152	-0.458622	-0.555361
O15	O	1.400634	-0.366828	-0.717017
O16	O	1.385569	-0.604412	-0.459023
O17	O	1.280830	-0.593774	-0.563793
C18	C	1.098111	-0.411172	-0.497887
C19	C	0.997502	-0.406382	-0.492103
C20	C	0.815148	-0.493100	-0.596827
C21	C	0.720617	-0.488603	-0.591395
C22	C	0.713908	-0.392886	-0.475813
C23	C	0.808439	-0.397383	-0.481245
C24	C	0.859055	-0.447493	-0.541753
C25	C	0.953587	-0.451995	-0.547179
C26	C	0.946877	-0.356274	-0.431602
C27	C	0.852347	-0.351776	-0.426170
C28	C	1.333211	-0.627773	-0.511421
C29	C	1.333262	-0.715631	-0.511440
C30	C	1.394618	-1.087040	-0.572807
C31	C	1.272218	-1.087180	-0.450258
C32	C	1.272184	-1.004633	-0.450236
C33	C	1.333366	-0.963286	-0.511501
C34	C	1.394584	-1.004486	-0.572788
C35	C	1.210961	-0.963427	-0.388955
C36	C	1.210924	-0.880876	-0.388931
C37	C	1.272111	-0.839528	-0.450192
C38	C	1.333332	-0.880732	-0.511482
C39	C	1.394514	-0.839385	-0.572747
C40	C	1.455740	-0.880589	-0.634032
C41	C	1.455771	-0.963138	-0.634050
C42	C	1.272080	-0.756978	-0.450175
C43	C	1.394479	-0.756831	-0.572728
C44	C	1.569384	-0.433690	-0.525083
C45	C	1.669994	-0.438498	-0.530889
C46	C	1.346975	-0.411099	-0.747558
C47	C	1.352807	-0.406280	-0.848169
C48	C	1.333392	-0.216243	-0.511517
C49	C	1.333436	-0.128387	-0.511542
C50	C	1.418934	-0.351710	-0.993332
C51	C	1.413459	-0.356235	-0.898799
C52	C	1.297629	-0.451805	-0.892079
C53	C	1.303104	-0.447279	-0.986612
C54	C	1.363758	-0.397229	-1.037235
C55	C	1.369228	-0.392700	-1.131770
C56	C	1.253403	-0.488274	-1.125048
C57	C	1.247928	-0.492799	-1.030515
C58	C	1.319707	-0.433620	-0.276281
C59	C	1.314050	-0.438225	-0.175680
H60	H	0.672681	-0.352084	-0.426556
Cl61	Cl	1.445470	-0.329774	-1.195410
H62	H	1.505617	-0.996693	-0.683946
Cl63	Cl	1.171682	-0.555715	-0.966866
Cl64	Cl	1.471586	-1.138836	-0.649846
H65	H	1.222227	-0.723434	-0.400281
H66	H	1.468311	-0.310948	-1.034550
H67	H	1.208465	-0.525330	-1.160804
H68	H	1.222403	-1.120849	-0.400383
Cl69	Cl	1.017218	-0.514991	-0.623243
Cl70	Cl	1.482828	-0.299009	-0.843609
Cl71	Cl	1.002081	-0.298943	-0.362354
Cl72	Cl	1.221387	-0.514721	-0.828423
H73	H	1.444305	-0.723171	-0.622614
H74	H	1.505551	-0.846914	-0.683919
H75	H	1.161148	-0.997098	-0.339079
Cl76	Cl	1.133955	-0.829084	-0.311889
H77	H	0.684871	-0.525739	-0.636244
Cl78	Cl	0.788707	-0.288782	-0.350111
Cl79	Cl	0.878782	-0.556102	-0.672882
