data_functionalizedCrystal
_audit_creation_method	'MofGen! by Chris Wilmer'
_symmetry_space_group_name_H-M	'P1'
_symmetry_Int_Tables_number	1
_symmetry_cell_setting	triclinic
loop_
_symmetry_equiv_pos_as_xyz
  x,y,z
_cell_length_a	21.295417
_cell_length_b	12.759393
_cell_length_c	12.759401
_cell_angle_alpha	90.019676
_cell_angle_beta	90.030933
_cell_angle_gamma	90.038095
loop_
_atom_site_label
_atom_site_type_symbol
_atom_site_fract_x
_atom_site_fract_y
_atom_site_fract_z
Zn1	Zn	-0.250572	0.593929	1.606151
Zn2	Zn	-0.355854	0.418226	1.605994
Zn3	Zn	-0.250603	0.418268	1.430450
Zn4	Zn	-0.355808	0.593867	1.430393
O5	O	-0.303209	0.506073	1.518247
O6	O	-0.264544	0.570630	1.753151
O7	O	-0.341924	0.271210	1.582665
O8	O	-0.162509	0.441614	1.453846
O9	O	-0.341894	0.441542	1.753035
O10	O	-0.162486	0.570671	1.582933
O11	O	-0.264597	0.271242	1.453694
O12	O	-0.264553	0.441553	1.283421
O13	O	-0.341815	0.740896	1.453750
O14	O	-0.341846	0.570565	1.283380
O15	O	-0.264499	0.740942	1.582878
O16	O	-0.443937	0.441482	1.582610
O17	O	-0.443903	0.570524	1.453597
C18	C	-0.466761	0.506014	1.518109
C19	C	-0.536729	0.506025	1.518146
C20	C	-0.303198	0.506058	1.245279
C21	C	-0.303209	0.506076	1.128503
C22	C	-0.303149	0.780106	1.518325
C23	C	-0.303123	0.896883	1.518359
C24	C	-0.569592	0.438901	1.585383
C25	C	-0.635335	0.438925	1.585432
C26	C	-0.668211	0.506061	1.518226
C27	C	-0.635340	0.573198	1.450985
C28	C	-0.569599	0.573180	1.450945
N29	N	-0.771477	0.514065	1.426319
N30	N	-0.833928	0.514076	1.426360
C31	C	-0.866286	0.506121	1.518344
N32	N	-0.833833	0.498134	1.610287
N33	N	-0.771376	0.498117	1.610245
C34	C	-0.739497	0.506089	1.518262
C35	C	-0.970435	0.439019	1.585639
C36	C	-1.036178	0.439050	1.585690
C37	C	-1.036183	0.573318	1.451233
C38	C	-0.970440	0.573293	1.451192
C39	C	-0.937570	0.506138	1.518393
C40	C	-0.139019	0.506154	1.518414
C41	C	-0.069051	0.506189	1.518485
C42	C	-0.303224	0.233105	1.518229
C43	C	-0.303072	0.116329	1.518399
C44	C	-0.262858	0.951770	1.585601
C45	C	-0.262831	1.061494	1.585619
C46	C	-0.343339	1.061434	1.451149
C47	C	-0.343363	0.951712	1.451127
C48	C	-0.263005	0.573396	1.073702
C49	C	-0.263012	0.573403	0.963978
C50	C	-0.343430	0.438767	0.963866
C51	C	-0.343420	0.438756	1.073588
C52	C	-0.303220	0.506088	1.792280
C53	C	-0.303225	0.506095	1.909057
H54	H	-0.542831	0.384222	1.640105
O55	O	-0.382409	1.114860	1.385948
C56	C	-0.373745	1.223474	1.400367
H57	H	-0.353130	1.238482	1.481473
H58	H	-0.340212	1.254620	1.338092
C59	C	-0.462743	1.261338	1.291068
C60	C	-0.437429	1.279772	1.390686
H61	H	-0.502026	1.296067	1.285092
H62	H	-0.468580	1.188163	1.281349
H63	H	-0.434794	1.287294	1.239183
H64	H	-0.465375	1.253805	1.442568
H65	H	-0.431600	1.352944	1.400413
H66	H	-0.662112	0.627862	1.396267
O67	O	-0.382570	0.898434	1.385918
C68	C	-0.445305	0.925230	1.408799
H69	H	-0.448483	0.955406	1.492732
H70	H	-0.461745	0.988899	1.352464
C71	C	-0.483430	0.790671	1.293424
C72	C	-0.487334	0.827725	1.396515
H73	H	-0.509357	0.730527	1.285842
H74	H	-0.441164	0.772619	1.278005
H75	H	-0.497129	0.843737	1.246490
H76	H	-0.473628	0.774664	1.443446
H77	H	-0.529599	0.845765	1.411942
O78	O	-0.223698	1.114649	1.651040
C79	C	-0.188177	1.042723	1.710351
H80	H	-0.213981	0.964498	1.713945
H81	H	-0.140369	1.031068	1.671928
C82	C	-0.147411	1.181642	1.817772
C83	C	-0.179106	1.085568	1.822194
H84	H	-0.141812	1.208072	1.886761
H85	H	-0.171340	1.230102	1.777811
H86	H	-0.107574	1.171917	1.785749
H87	H	-0.218945	1.095297	1.854204
H88	H	-0.155183	1.037111	1.862163
H89	H	-0.376160	0.383930	1.118208
O90	O	-0.938598	0.373760	1.651018
C91	C	-0.981705	0.314504	1.710363
H92	H	-1.028542	0.357559	1.714015
H93	H	-0.988762	0.234682	1.671933
C94	C	-0.898464	0.246563	1.817685
C95	C	-0.955989	0.299448	1.822177
H96	H	-0.882600	0.237271	1.886655
H97	H	-0.869421	0.286481	1.777701
H98	H	-0.904353	0.180051	1.785655
H99	H	-0.950098	0.365964	1.854194
H100	H	-0.985030	0.259540	1.862169
H101	H	-0.230260	0.628210	1.118410
H102	H	-0.662097	0.384265	1.640188
H103	H	-0.230273	0.628220	0.919363
O104	O	-0.382561	0.373533	0.910471
C105	C	-0.423257	0.433231	0.846986
H106	H	-0.427201	0.515961	0.880090
H107	H	-0.403805	0.436921	0.763844
C108	C	-0.483816	0.280090	0.804577
C109	C	-0.488665	0.381698	0.845240
H110	H	-0.524162	0.248301	0.803495
H111	H	-0.456397	0.239870	0.847344
H112	H	-0.467603	0.283180	0.735295
H113	H	-0.504870	0.378607	0.914524
H114	H	-0.516088	0.421917	0.802484
H115	H	-0.542841	0.627841	1.396192
O116	O	-1.068082	0.638688	1.386061
C117	C	-1.051938	0.743412	1.408941
H118	H	-1.033817	0.748782	1.492859
H119	H	-1.013794	0.770812	1.352576
C120	C	-1.132563	0.806945	1.293644
C121	C	-1.110312	0.813542	1.396717
H122	H	-1.168570	0.850206	1.286100
H123	H	-1.143438	0.736390	1.278226
H124	H	-1.100771	0.829777	1.246685
H125	H	-1.142101	0.790698	1.443673
H126	H	-1.099443	0.884095	1.412143
O127	O	-0.938443	0.638342	1.385817
C128	C	-0.900495	0.578453	1.317952
H129	H	-0.890667	0.498863	1.355044
H130	H	-0.925879	0.566849	1.240115
C131	C	-0.850098	0.733975	1.253305
C132	C	-0.838023	0.636224	1.298866
H133	H	-0.811563	0.769612	1.241527
H134	H	-0.875666	0.774324	1.299023
H135	H	-0.871253	0.724291	1.188446
H136	H	-0.816876	0.645910	1.363729
H137	H	-0.812450	0.595877	1.253157
H138	H	-1.062935	0.384392	1.640449
O139	O	-0.223733	0.898395	1.650752
C140	C	-0.183076	0.834962	1.590961
H141	H	-0.205281	0.818498	1.511318
H142	H	-0.136419	0.877276	1.579467
C143	C	-0.144425	0.750976	1.746576
C144	C	-0.171699	0.730747	1.648761
H145	H	-0.137404	0.686692	1.782231
H146	H	-0.171814	0.793714	1.786860
H147	H	-0.105547	0.786239	1.736984
H148	H	-0.210580	0.695496	1.658355
H149	H	-0.144316	0.688000	1.608480
