data_functionalizedCrystal
_audit_creation_method	'MofGen! by Chris Wilmer'
_symmetry_space_group_name_H-M	'P1'
_symmetry_Int_Tables_number	1
_symmetry_cell_setting	triclinic
loop_
_symmetry_equiv_pos_as_xyz
  x,y,z
_cell_length_a	12.827893
_cell_length_b	21.295417
_cell_length_c	12.827885
_cell_angle_alpha	89.961900
_cell_angle_beta	89.980728
_cell_angle_gamma	90.030477
loop_
_atom_site_label
_atom_site_type_symbol
_atom_site_fract_x
_atom_site_fract_y
_atom_site_fract_z
Zn1	Zn	1.597560	-0.250579	-0.590788
Zn2	Zn	2.097560	0.249421	-0.090788
Zn3	Zn	1.597408	-0.355861	-0.416023
Zn4	Zn	2.097408	0.144139	0.083977
Zn5	Zn	1.422801	-0.250610	-0.416062
Zn6	Zn	1.922801	0.249390	0.083938
Zn7	Zn	1.422740	-0.355814	-0.590723
Zn8	Zn	1.922740	0.144186	-0.090723
O9	O	1.510127	-0.303216	-0.503399
O10	O	2.010127	0.196784	-0.003399
O11	O	1.743776	-0.264552	-0.567616
O12	O	2.243776	0.235448	-0.067616
O13	O	1.574208	-0.341932	-0.269792
O14	O	2.074208	0.158068	0.230208
O15	O	1.446072	-0.162516	-0.439283
O16	O	1.946072	0.337484	0.060717
O17	O	1.743664	-0.341902	-0.439217
O18	O	2.243664	0.158098	0.060783
O19	O	1.574467	-0.162494	-0.567654
O20	O	2.074467	0.337506	-0.067654
O21	O	1.445925	-0.264604	-0.269821
O22	O	1.945925	0.235396	0.230179
O23	O	1.276557	-0.264559	-0.439220
O24	O	1.776557	0.235441	0.060780
O25	O	1.445969	-0.341822	-0.736968
O26	O	1.945969	0.158178	-0.236968
O27	O	1.276512	-0.341852	-0.567543
O28	O	1.776512	0.158148	-0.067543
O29	O	1.574408	-0.264506	-0.737016
O30	O	2.074408	0.235494	-0.237016
O31	O	1.574149	-0.443944	-0.439154
O32	O	2.074149	0.056056	0.060846
O33	O	1.445821	-0.443910	-0.567505
O34	O	1.945821	0.056090	-0.067505
C35	C	1.238617	-0.303204	-0.503379
C36	C	1.738617	0.196796	-0.003379
C37	C	1.122464	-0.303214	-0.503396
C38	C	1.622464	0.196786	-0.003396
C39	C	1.070685	-0.341521	-0.566796
C40	C	1.570685	0.158479	-0.066796
C41	C	0.950635	-0.341532	-0.566814
C42	C	1.450635	0.158468	-0.066814
C43	C	1.509990	-0.466768	-0.503341
C44	C	2.009990	0.033232	-0.003341
C45	C	1.510027	-0.536736	-0.503351
C46	C	2.010027	-0.036736	-0.003351
C47	C	1.576907	-0.569600	-0.436587
C48	C	2.076907	-0.069600	0.063413
C49	C	1.576956	-0.635342	-0.436611
C50	C	2.076956	-0.135342	0.063389
C51	C	1.510107	-0.668218	-0.503387
C52	C	2.010107	-0.168218	-0.003387
C53	C	1.443222	-0.635347	-0.570165
C54	C	1.943222	-0.135347	-0.070165
C55	C	1.443183	-0.569606	-0.570147
C56	C	1.943183	-0.069606	-0.070147
N57	N	1.418690	-0.771484	-0.511347
N58	N	1.918690	-0.271484	-0.011347
N59	N	1.418731	-0.833935	-0.511358
N60	N	1.918731	-0.333935	-0.011358
C61	C	1.510224	-0.866293	-0.503447
C62	C	2.010224	-0.366293	-0.003447
N63	N	1.601676	-0.833840	-0.495504
N64	N	2.101676	-0.333840	0.004496
N65	N	1.601635	-0.771383	-0.495488
N66	N	2.101635	-0.271383	0.004512
C67	C	1.510143	-0.739504	-0.503415
C68	C	2.010143	-0.239504	-0.003415
C69	C	1.577162	-0.970442	-0.436705
C70	C	2.077162	-0.470442	0.063295
C71	C	1.577213	-1.036186	-0.436736
C72	C	2.077213	-0.536186	0.063264
C73	C	1.443470	-1.036189	-0.570284
C74	C	1.943470	-0.536189	-0.070284
C75	C	1.443429	-0.970447	-0.570259
C76	C	1.943429	-0.470447	-0.070259
C77	C	1.510273	-0.937577	-0.503464
C78	C	2.010273	-0.437577	-0.003464
C79	C	1.782697	-0.303229	-0.503420
C80	C	2.282697	0.196771	-0.003420
C81	C	1.898851	-0.303234	-0.503428
C82	C	2.398851	0.196766	-0.003428
C83	C	1.510198	-0.303156	-0.775969
C84	C	2.010198	0.196844	-0.275969
C85	C	1.510229	-0.303130	-0.892123
C86	C	2.010229	0.196870	-0.392123
C87	C	1.510293	-0.139026	-0.503480
C88	C	2.010293	0.360974	-0.003480
C89	C	1.510364	-0.069058	-0.503515
C90	C	2.010364	0.430942	-0.003515
C91	C	1.573791	-0.264864	-0.943931
C92	C	2.073791	0.235136	-0.443931
C93	C	1.573824	-0.264837	-1.063982
C94	C	2.073824	0.235163	-0.563982
C95	C	1.510117	-0.303231	-0.231889
C96	C	2.010117	0.196769	0.268111
C97	C	1.510289	-0.303079	-0.115737
C98	C	2.010289	0.196921	0.384263
H99	H	0.943373	-0.270439	-0.449143
H100	H	1.443373	0.229561	0.050857
H101	H	1.628182	-0.232122	-0.899409
H102	H	2.128182	0.267878	-0.399409
H103	H	1.115232	-0.374306	-0.621065
H104	H	1.615232	0.125694	-0.121065
H105	H	1.388795	-0.662119	-0.624536
H106	H	1.888795	-0.162119	-0.124536
F107	F	1.648406	-1.071162	-0.365679
F108	F	2.148406	-0.571162	0.134321
H109	H	1.628246	-0.232078	-1.108535
H110	H	2.128246	0.267922	-0.608535
F111	F	1.439160	-0.345907	-1.057512
F112	F	1.939160	0.154093	-0.557512
H113	H	1.455828	-0.335866	-0.936644
H114	H	1.955828	0.164134	-0.436644
H115	H	0.906106	-0.374330	-0.621090
H116	H	1.406106	0.125670	-0.121090
F117	F	1.064244	-0.260353	-0.432469
F118	F	1.564244	0.239647	0.067531
H119	H	1.389045	-1.062957	-0.624660
H120	H	1.889045	-0.562957	-0.124660
F121	F	1.648061	-0.534621	-0.365509
F122	F	2.148061	-0.034621	0.134491
H123	H	1.388721	-0.542847	-0.624515
H124	H	1.888721	-0.042847	-0.124515
H125	H	1.631421	-0.662105	-0.382244
H126	H	2.131421	-0.162105	0.117756
F127	F	1.648302	-0.935458	-0.365617
F128	F	2.148302	-0.435458	0.134383
H129	H	1.388965	-0.943688	-0.624620
H130	H	1.888965	-0.443688	-0.124620
