data_functionalizedCrystal
_audit_creation_method	'MofGen! by Chris Wilmer'
_symmetry_space_group_name_H-M	'P1'
_symmetry_Int_Tables_number	1
_symmetry_cell_setting	triclinic
loop_
_symmetry_equiv_pos_as_xyz
  x,y,z
_cell_length_a	10.723024
_cell_length_b	26.210047
_cell_length_c	10.723023
_cell_angle_alpha	89.994436
_cell_angle_beta	95.532291
_cell_angle_gamma	89.990561
loop_
_atom_site_label
_atom_site_type_symbol
_atom_site_fract_x
_atom_site_fract_y
_atom_site_fract_z
O1	O	-1.657198	0.042432	0.175010
O2	O	-1.294046	0.042432	0.191763
O3	O	-1.483999	0.042430	0.001810
O4	O	-1.467245	0.042434	0.364962
O5	O	-1.483962	-0.042428	0.001839
O6	O	-1.294009	-0.042426	0.191792
O7	O	-1.657161	-0.042426	0.175039
Cu8	Cu	-1.475582	-0.050174	0.183418
Cu9	Cu	-1.475625	0.050180	0.183383
O10	O	-1.467208	-0.042424	0.364992
C11	C	-1.247528	0.000003	0.190558
C12	C	-1.108973	0.000003	0.186911
N13	N	-1.475560	-0.120758	0.183442
C14	C	-1.033991	0.000004	0.293198
C15	C	-0.890787	0.000004	0.289431
C16	C	-1.559728	-0.473273	0.099291
C17	C	-1.559755	-0.686932	0.099274
O18	O	-1.631270	-0.714555	0.027731
N19	N	-1.475632	-0.713652	0.183356
C20	C	-1.391489	-0.686955	0.267443
O21	O	-1.319929	-0.714584	0.338950
C22	C	-1.391457	-0.473297	0.267453
C23	C	-1.475595	-0.446579	0.183374
C24	C	-1.643858	-0.446556	0.015219
C25	C	-1.643855	-0.393144	0.015228
C26	C	-1.559722	-0.366450	0.099311
C27	C	-1.475592	-0.393168	0.183384
C28	C	-1.307310	-0.446600	0.351532
C29	C	-1.307307	-0.393183	0.351525
C30	C	-1.391445	-0.366465	0.267446
C31	C	-1.391456	-0.313063	0.267476
N32	N	-1.475579	-0.286342	0.183394
C33	C	-1.559713	-0.313036	0.099312
C34	C	-1.391514	-0.799128	0.267433
C35	C	-1.391523	-0.852542	0.267432
C36	C	-1.559788	-0.852516	0.099262
C37	C	-1.559784	-0.799101	0.099270
C38	C	-1.475638	-0.772408	0.183351
C39	C	-1.559701	-0.200868	0.099339
C40	C	-1.559693	-0.147452	0.099360
C41	C	-1.391425	-0.147483	0.267525
C42	C	-1.391436	-0.200895	0.267509
C43	C	-1.475578	-0.227586	0.183406
O44	O	-1.319969	-0.285407	0.338972
O45	O	-1.631244	-0.285397	0.027796
C46	C	-1.559731	-0.526685	0.099282
C47	C	-1.475601	-0.553402	0.183355
C48	C	-1.391468	-0.526709	0.267437
C49	C	-1.475610	-0.606816	0.183354
C50	C	-1.559744	-0.633510	0.099271
C51	C	-1.643867	-0.606790	0.015189
C52	C	-1.643864	-0.553379	0.015199
C53	C	-1.307344	-0.553429	0.351519
C54	C	-1.307355	-0.606840	0.351503
C55	C	-1.391488	-0.633534	0.267421
C56	C	-0.703679	0.000003	0.176243
C57	C	-0.842234	0.000003	0.179891
C58	C	-1.482762	0.000001	-0.044675
C59	C	-1.479114	0.000003	-0.183229
N60	N	-1.475657	0.120764	0.183350
C61	C	-1.477507	0.043963	-0.245010
C62	C	-1.473738	0.043965	-0.388213
C63	C	-1.468445	0.000006	0.411477
C64	C	-1.472093	0.000007	0.550031
H65	H	-1.075812	0.000002	0.386984
H66	H	-1.477691	-0.037630	-0.236353
H67	H	-1.712364	-0.371394	-0.053239
H68	H	-1.322990	-0.777398	0.335905
H69	H	-1.628213	-0.125700	0.030893
H70	H	-1.473481	-0.037630	-0.396848
H71	H	-1.628215	-0.222594	0.030853
H72	H	-0.826354	0.000007	0.380421
H73	H	-1.323024	-0.874292	0.335910
H74	H	-0.906659	0.000005	0.088896
H75	H	-1.712369	-0.468285	-0.053257
H76	H	-1.067152	0.000015	0.093125
H77	H	-1.478917	0.081596	-0.191885
H78	H	-1.628295	-0.874259	0.030800
H79	H	-1.628295	-0.777350	0.030805
H80	H	-1.322928	-0.125741	0.335988
H81	H	-1.238797	-0.468346	0.419996
H82	H	-1.238781	-0.371452	0.419993
H83	H	-1.322935	-0.222649	0.335986
H84	H	-1.712377	-0.531629	-0.053266
H85	H	-1.472362	0.081601	-0.441344
H86	H	-1.712377	-0.628533	-0.053270
H87	H	-1.238842	-0.628590	0.419981
H88	H	-1.238831	-0.531699	0.419988
