data_functionalizedCrystal
_audit_creation_method	'MofGen! by Chris Wilmer'
_symmetry_space_group_name_H-M	'P1'
_symmetry_Int_Tables_number	1
_symmetry_cell_setting	triclinic
loop_
_symmetry_equiv_pos_as_xyz
  x,y,z
_cell_length_a	15.297510
_cell_length_b	15.297621
_cell_length_c	15.297908
_cell_angle_alpha	72.638056
_cell_angle_beta	110.758068
_cell_angle_gamma	91.627519
loop_
_atom_site_label
_atom_site_type_symbol
_atom_site_fract_x
_atom_site_fract_y
_atom_site_fract_z
Zn1	Zn	0.754825	-1.401237	0.882793
Zn2	Zn	0.874094	-1.356616	0.744859
Zn3	Zn	0.691683	-1.228146	0.691120
Zn4	Zn	0.874012	-1.228077	0.873441
O5	O	0.798653	-1.303519	0.798053
O6	O	0.797106	-1.521551	0.890899
O7	O	0.823507	-1.320929	0.603703
O8	O	0.573839	-1.269809	0.697969
O9	O	0.884733	-1.488768	0.789561
O10	O	0.620229	-1.396978	0.838790
O11	O	0.689489	-1.226542	0.564221
O12	O	0.689409	-1.101903	0.688901
O13	O	0.884592	-1.269692	1.008708
O14	O	0.823365	-1.101853	0.822851
O15	O	0.797026	-1.396912	1.015579
O16	O	1.000304	-1.320862	0.780492
O17	O	1.000243	-1.226425	0.874960
C18	C	0.749527	-1.069147	0.749030
C19	C	0.728537	-0.968882	0.728084
C20	C	1.033010	-1.268822	0.832569
C21	C	1.133292	-1.254065	0.847384
C22	C	0.648851	-0.921809	0.648581
C23	C	0.629127	-0.827605	0.628899
C24	C	0.689083	-0.780466	0.688722
C25	C	0.768767	-0.827541	0.768231
C26	C	0.788497	-0.921752	0.787911
C27	C	0.828730	-0.780410	0.828051
C28	C	0.908414	-0.827484	0.907560
C29	C	0.928139	-0.921687	0.927236
C30	C	0.868183	-0.968826	0.867413
C31	C	0.809000	-0.686198	0.808371
C32	C	0.948646	-0.686141	0.947701
C33	C	0.968370	-0.780346	0.967383
C34	C	1.416047	-1.409365	0.692616
C35	C	1.321826	-1.423229	0.678691
C36	C	1.274688	-1.380939	0.720863
C37	C	1.321780	-1.324784	0.776962
C38	C	1.416009	-1.310913	0.790882
C39	C	1.274649	-1.282487	0.819130
C40	C	1.321742	-1.226332	0.875229
C41	C	1.415961	-1.212464	0.889146
C42	C	1.463099	-1.254754	0.846974
C43	C	1.180421	-1.296358	0.805210
C44	C	1.180382	-1.197906	0.903476
C45	C	1.274604	-1.184042	0.917401
C46	C	1.563391	-1.338372	0.763437
C47	C	1.463137	-1.353206	0.748708
C48	C	0.847843	-1.338272	1.047867
C49	C	0.868805	-1.353081	1.154323
C50	C	0.847965	-0.538805	0.847257
C51	C	0.868960	-0.639068	0.868198
C52	C	0.749601	-1.268963	0.549212
C53	C	0.728422	-1.254365	0.442755
C54	C	0.648794	-1.198267	1.372190
C55	C	0.629091	-1.184355	1.272168
C56	C	0.689018	-1.226535	1.242702
C57	C	0.768651	-1.282630	1.313268
C58	C	0.788352	-1.296548	1.413299
C59	C	0.828576	-1.324817	1.283811
C60	C	0.908209	-1.380912	1.354377
C61	C	0.927906	-1.394827	1.454398
C62	C	0.867980	-1.352647	1.483865
C63	C	0.808875	-1.310898	1.183779
C64	C	0.948432	-1.409180	1.224889
C65	C	0.968135	-1.423092	1.324910
H66	H	0.744118	-0.647879	0.743637
H67	H	1.142087	-1.342080	0.759533
C68	C	0.889655	-1.367939	1.593893
N69	N	0.905980	-1.379452	1.676768
C70	C	1.566747	-1.239502	0.862284
N71	N	1.644816	-1.228015	0.873811
H72	H	0.600047	-0.960196	0.599877
C73	C	1.467757	-1.150682	0.950847
N74	N	1.506767	-1.104147	0.997320
C75	C	1.326414	-1.122264	0.979099
N76	N	1.365439	-1.075730	1.025568
C77	C	1.014601	-0.634293	1.013512
N78	N	1.064275	-0.595236	1.063076
H79	H	0.992743	-1.440511	1.511852
C80	C	1.014357	-1.455579	1.192481
N81	N	1.064007	-1.490525	1.168064
H82	H	1.033250	-0.818687	1.032120
H83	H	0.884237	-1.045535	0.883436
H84	H	0.993030	-0.960010	0.991971
H85	H	1.197968	-1.392229	0.709521
C86	C	1.128535	-1.151386	0.949871
N87	N	1.089478	-1.116350	0.984812
C88	C	1.055845	-1.484626	1.402535
N89	N	1.121951	-1.530911	1.460999
C90	C	1.270025	-1.484980	0.616964
N91	N	1.231006	-1.531489	0.570462
C92	C	1.467901	-1.455866	0.646221
N93	N	1.506957	-1.490890	0.611270
H94	H	0.744036	-1.265227	1.126334
C95	C	0.667346	-1.211223	1.132674
N96	N	0.651022	-1.199683	1.049795
C97	C	0.582881	-1.151881	1.404612
N98	N	0.533230	-1.116941	1.429033
C99	C	0.667378	-0.676841	0.667074
N100	N	0.651023	-0.598787	0.650769
H101	H	0.564252	-0.789282	0.564159
C102	C	0.541500	-1.122650	1.194554
N103	N	0.475523	-1.076168	1.136092
