data_functionalizedCrystal
_audit_creation_method	'MofGen! by Chris Wilmer'
_symmetry_space_group_name_H-M	'P1'
_symmetry_Int_Tables_number	1
_symmetry_cell_setting	triclinic
loop_
_symmetry_equiv_pos_as_xyz
  x,y,z
_cell_length_a	8.559649
_cell_length_b	17.038272
_cell_length_c	7.681481
_cell_angle_alpha	83.842174
_cell_angle_beta	94.913240
_cell_angle_gamma	80.445110
loop_
_atom_site_label
_atom_site_type_symbol
_atom_site_fract_x
_atom_site_fract_y
_atom_site_fract_z
O1	O	2.102567	-0.018069	-0.146400
O2	O	1.642806	0.021983	-0.146410
O3	O	1.869955	-0.111695	-0.146391
O4	O	1.875418	0.115610	-0.146419
O5	O	1.897909	-0.128182	0.146469
O6	O	1.670760	0.005496	0.146450
O7	O	2.130521	-0.034556	0.146460
Zn8	Zn	1.905079	-0.017147	0.192953
Zn9	Zn	1.868248	0.004575	-0.192903
O10	O	1.903372	0.099123	0.146441
C11	C	1.597666	0.016775	0.000018
C12	C	1.421513	0.025810	0.000015
C13	C	1.878962	-0.148769	0.000039
C14	C	1.864132	-0.234673	0.000038
C15	C	2.000285	-0.292946	0.000043
C16	C	1.986340	-0.373660	0.000026
C17	C	1.836242	-0.396101	0.000016
C18	C	1.700079	-0.337821	0.000006
C19	C	1.714024	-0.257108	0.000010
C20	C	1.786975	-0.638906	-0.000009
C21	C	1.773041	-0.719626	-0.000008
C22	C	2.059303	-0.755459	0.000008
C23	C	2.073236	-0.674743	0.000023
C24	C	1.937072	-0.616470	0.000004
C25	C	1.821985	-0.478604	0.000004
C26	C	1.951329	-0.533968	0.000003
C27	C	2.175661	-0.029347	0.000028
C28	C	2.351812	-0.038381	0.000020
C29	C	1.894365	0.136197	0.000008
C30	C	1.909193	0.222102	-0.000003
N31	N	1.930226	-0.031973	0.456289
N32	N	1.843113	0.019394	-0.456239
H33	H	1.346417	0.087683	-0.000002
H34	H	1.426899	-0.100250	0.000019
H35	H	1.650810	-0.737894	0.000013
H36	H	2.019169	-0.084402	0.531503
H37	H	1.676100	-0.591469	-0.000025
C38	C	2.281835	-0.336478	0.000028
C39	C	2.165278	-0.268282	0.000041
H40	H	2.383694	-0.321251	0.000009
H41	H	2.280197	-0.372963	0.102149
H42	H	2.260672	-0.361461	-0.102105
H43	H	2.186434	-0.243302	0.102181
H44	H	2.166921	-0.231784	-0.102091
C45	C	2.118697	-0.455504	-0.150527
C46	C	2.116312	-0.509300	0.000015
H47	H	2.220549	-0.440267	-0.150505
H48	H	2.097587	-0.480499	-0.252636
H49	H	2.039585	-0.409254	-0.150517
H50	H	2.195417	-0.555553	-0.000001
H51	H	2.137441	-0.484306	0.102151
H52	H	1.754187	0.071824	0.468556
H53	H	1.577864	-0.356098	-0.000013
C54	C	2.240621	-0.596285	-0.150520
C55	C	2.238230	-0.650080	0.000022
H56	H	2.342482	-0.581058	-0.150507
H57	H	2.219490	-0.621276	-0.252629
H58	H	2.161526	-0.550029	-0.150500
H59	H	2.317318	-0.696339	-0.000004
H60	H	2.259380	-0.625089	0.102158
C61	C	2.195321	-0.858529	-0.150551
C62	C	2.208968	-0.819511	0.000005
H63	H	2.287727	-0.898068	-0.150560
H64	H	2.103948	-0.883445	-0.150538
H65	H	2.185057	-0.820534	-0.252661
H66	H	2.219219	-0.857505	0.102116
H67	H	2.300366	-0.794594	0.000009
H68	H	2.097211	-0.421103	0.000034
H69	H	1.603153	-0.209662	0.000006
H70	H	1.699775	-0.496884	0.000000
