data_functionalizedCrystal
_audit_creation_method	'MofGen! by Chris Wilmer'
_symmetry_space_group_name_H-M	'P1'
_symmetry_Int_Tables_number	1
_symmetry_cell_setting	triclinic
loop_
_symmetry_equiv_pos_as_xyz
  x,y,z
_cell_length_a	6.817900
_cell_length_b	15.301126
_cell_length_c	16.255661
_cell_angle_alpha	95.151573
_cell_angle_beta	103.488922
_cell_angle_gamma	104.177575
loop_
_atom_site_label
_atom_site_type_symbol
_atom_site_fract_x
_atom_site_fract_y
_atom_site_fract_z
V1	V	-4.030171	-0.125488	-0.264130
O2	O	-4.014045	0.005281	-0.258837
O3	O	-3.985102	-0.248101	-0.262578
O4	O	-3.981689	-0.123887	-0.379210
O5	O	-4.017482	-0.119793	-0.141398
V6	V	-4.513378	-0.109808	-0.249419
O7	O	-4.292123	-0.159884	-0.296399
O8	O	-4.701623	-0.075412	-0.217150
O9	O	-4.335240	0.012805	-0.250971
O10	O	-4.646901	-0.240576	-0.254712
O11	O	-4.643463	-0.115502	-0.372151
O12	O	-4.338653	-0.111409	-0.134339
C13	C	-3.830916	-0.277981	-0.258477
C14	C	-3.875354	-0.378220	-0.257975
C15	C	-4.078465	-0.429917	-0.261970
C16	C	-4.120209	-0.524103	-0.261504
C17	C	-3.958837	-0.566590	-0.257036
C18	C	-3.755710	-0.514886	-0.253043
C19	C	-3.713972	-0.420703	-0.253516
C20	C	-3.842718	-0.711194	-0.252056
C21	C	-3.884458	-0.805384	-0.251582
C22	C	-4.248956	-0.814595	-0.260044
C23	C	-4.207217	-0.720412	-0.260517
C24	C	-4.004092	-0.668714	-0.256522
C25	C	-3.826561	-0.119532	-0.407251
C26	C	-3.868227	-0.119034	-0.501331
C27	C	-3.778619	-0.113085	-0.724138
C28	C	-3.937152	-0.189861	-0.793772
C29	C	-3.944586	-0.118100	-0.673578
C30	C	-3.860320	-0.040446	-0.771579
C31	C	-4.018329	-0.117194	-0.839960
C32	C	-4.102602	-0.194945	-0.741983
C33	C	-4.025706	-0.045461	-0.719774
C34	C	-4.184375	-0.122259	-0.789389
C35	C	-3.902099	-0.118623	-0.577730
C36	C	-4.060833	-0.116679	-0.935807
C37	C	-4.152768	0.042680	-0.255070
C38	C	-4.087569	0.142919	-0.255577
C39	C	-4.157124	-0.115766	-0.106293
C40	C	-4.094696	-0.116260	-0.012212
H41	H	-4.338622	-0.685821	-0.264150
H42	H	-4.062617	0.015591	-0.687540
O43	O	-3.738524	0.037522	-0.787465
C44	C	-3.612065	0.091301	-0.709321
H45	H	-3.687808	0.072100	-0.655545
H46	H	-3.595896	0.166493	-0.714074
H47	H	-3.450238	0.078801	-0.695156
O48	O	-3.516528	-0.370609	-0.249589
C49	C	-3.383054	-0.428306	-0.245564
H50	H	-3.452135	-0.492247	-0.219539
H51	H	-3.221913	-0.390896	-0.201449
H52	H	-3.367180	-0.448428	-0.312448
H53	H	-3.624323	-0.549487	-0.249411
O54	O	-4.389520	-0.126788	-0.823104
C55	C	-4.436823	-0.051346	-0.783945
H56	H	-4.319640	-0.023956	-0.718705
H57	H	-4.602178	-0.073487	-0.775389
H58	H	-4.426906	0.004409	-0.826077
O59	O	-3.573665	-0.108735	-0.690204
C60	C	-3.527342	-0.185036	-0.728280
H61	H	-3.678026	-0.242602	-0.754937
H62	H	-3.412899	-0.208789	-0.678189
H63	H	-3.453644	-0.165416	-0.782501
H64	H	-3.677319	-0.669106	-0.248810
H65	H	-4.414343	-0.856690	-0.263284
O66	O	-3.892843	-0.262590	-0.832293
C67	C	-3.736564	-0.231420	-0.874612
H68	H	-3.736646	-0.159938	-0.889219
H69	H	-3.769981	-0.279593	-0.937006
H70	H	-3.576700	-0.229525	-0.831834
H71	H	-4.209875	-0.395331	-0.265600
O72	O	-4.317365	-0.574386	-0.265246
C73	C	-4.313819	-0.616672	-0.191545
H74	H	-4.148985	-0.622649	-0.163262
H75	H	-4.429008	-0.687643	-0.209554
H76	H	-4.360596	-0.573921	-0.142225
O77	O	-4.224092	-0.272898	-0.725937
C78	C	-4.182986	-0.272451	-0.636756
H79	H	-4.020490	-0.225086	-0.603821
H80	H	-4.189420	-0.344538	-0.622464
H81	H	-4.305804	-0.247368	-0.611870
O82	O	-3.727482	-0.846540	-0.247129
C83	C	-3.567855	-0.808303	-0.171002
H84	H	-3.576483	-0.737078	-0.147991
H85	H	-3.408386	-0.803676	-0.183718
H86	H	-3.589613	-0.853235	-0.119738
