data_functionalizedCrystal
_audit_creation_method	'MofGen! by Chris Wilmer'
_symmetry_space_group_name_H-M	'P1'
_symmetry_Int_Tables_number	1
_symmetry_cell_setting	triclinic
loop_
_symmetry_equiv_pos_as_xyz
  x,y,z
_cell_length_a	19.188905
_cell_length_b	19.188930
_cell_length_c	15.455301
_cell_angle_alpha	93.013164
_cell_angle_beta	93.015694
_cell_angle_gamma	83.139668
loop_
_atom_site_label
_atom_site_type_symbol
_atom_site_fract_x
_atom_site_fract_y
_atom_site_fract_z
O1	O	0.928882	0.089809	0.072285
O2	O	0.725567	0.101561	0.072256
O3	O	0.833091	-0.005972	0.072254
O4	O	0.821358	0.197342	0.072287
O5	O	0.827642	-0.011413	-0.072010
O6	O	0.720118	0.096119	-0.072008
O7	O	0.923433	0.084368	-0.071980
Cu8	Cu	0.821278	0.089747	-0.085166
Cu9	Cu	0.827722	0.096182	0.085443
O10	O	0.815909	0.191900	-0.071978
C11	C	0.696831	0.098462	0.000120
C12	C	0.619325	0.097328	0.000109
C13	C	0.829986	-0.034704	0.000120
C14	C	0.828845	-0.112208	0.000112
C15	C	0.585904	0.099750	0.078749
C16	C	0.513080	0.098677	0.078760
C17	C	0.473683	0.095169	0.000126
C18	C	0.507112	0.092751	-0.078526
C19	C	0.579933	0.093830	-0.078534
N20	N	0.362452	0.051532	-0.058401
N21	N	0.293276	0.050505	-0.058388
C22	C	0.254277	0.091917	0.000146
N23	N	0.287070	0.134385	0.058679
N24	N	0.356253	0.135409	0.058668
C25	C	0.394720	0.093998	0.000126
C26	C	0.141892	0.093176	0.078804
C27	C	0.069067	0.092108	0.078811
C28	C	0.063101	0.086174	-0.078477
C29	C	0.135924	0.087250	-0.078482
C30	C	0.175316	0.090748	0.000161
C31	C	0.891937	-0.157138	0.000117
C32	C	0.890866	-0.229961	0.000130
C33	C	0.826699	-0.257852	0.000122
C34	C	0.763599	-0.212913	0.000122
C35	C	0.764672	-0.140091	0.000117
N36	N	0.775796	-0.367705	-0.048981
N37	N	0.774781	-0.436883	-0.048978
C38	C	0.823461	-0.477260	0.000139
N39	N	0.873205	-0.445847	0.049242
N40	N	0.874223	-0.376662	0.049235
C41	C	0.825528	-0.336814	0.000128
C42	C	0.885396	-0.601153	0.000160
C43	C	0.884322	-0.673977	0.000179
C44	C	0.757053	-0.656927	0.000162
C45	C	0.758129	-0.584105	0.000152
C46	C	0.822302	-0.556222	0.000147
C47	C	0.952169	0.087466	0.000158
C48	C	1.029675	0.088601	0.000176
C49	C	0.819013	0.220632	0.000159
C50	C	0.820154	0.298137	0.000172
N51	N	0.816750	0.085220	-0.205164
C52	C	0.857253	0.125749	-0.250541
C53	C	0.853839	0.122321	-0.341351
C54	C	0.809917	0.078368	-0.386781
C55	C	0.769412	0.037835	-0.341396
C56	C	0.772831	0.041260	-0.250589
C57	C	0.795169	0.063594	-0.658368
C58	C	0.791752	0.060174	-0.749182
C59	C	0.876179	0.144659	-0.749130
C60	C	0.879591	0.148083	-0.658320
C61	C	0.839089	0.107547	-0.612944
N62	N	0.806424	0.074865	-0.479602
N63	N	0.842587	0.111047	-0.520124
N64	N	0.832255	0.100703	0.205440
H65	H	0.617972	0.102598	0.142787
H66	H	0.909154	0.177661	-0.786085
H67	H	0.706752	-0.547522	0.000143
Br68	Br	0.972485	-0.563308	0.000144
H69	H	0.944192	-0.134441	0.000115
Br70	Br	0.740173	0.008610	-0.596797
H71	H	0.893015	0.161544	-0.213559
H72	H	0.739849	0.008257	-0.213643
H73	H	0.935701	-0.710558	0.000188
H74	H	0.485863	0.100650	0.142801
Br75	Br	0.669967	-0.694771	0.000160
H76	H	0.475030	0.089896	-0.142550
H77	H	0.733654	0.002044	-0.378393
Br78	Br	0.625294	0.090545	-0.185269
H79	H	0.755982	0.024383	-0.786168
H80	H	0.886822	0.155322	-0.378293
H81	H	0.711353	-0.235626	0.000118
Br82	Br	0.939166	0.207771	-0.596672
H83	H	0.041857	0.094084	0.142852
Br84	Br	0.195356	0.097928	0.185530
H85	H	0.713293	-0.103508	0.000113
Br86	Br	0.009640	0.081423	-0.185198
H87	H	0.163137	0.085274	-0.142520
H88	H	0.942244	-0.266549	0.000138
