data_functionalizedCrystal
_audit_creation_method	'MofGen! by Chris Wilmer'
_symmetry_space_group_name_H-M	'P1'
_symmetry_Int_Tables_number	1
_symmetry_cell_setting	triclinic
loop_
_symmetry_equiv_pos_as_xyz
  x,y,z
_cell_length_a	10.654554
_cell_length_b	9.065218
_cell_length_c	9.730223
_cell_angle_alpha	90.000469
_cell_angle_beta	89.999646
_cell_angle_gamma	84.751315
loop_
_atom_site_label
_atom_site_type_symbol
_atom_site_fract_x
_atom_site_fract_y
_atom_site_fract_z
O1	O	1.668652	0.207260	-0.114289
O2	O	1.303252	0.226997	-0.114290
O3	O	1.493505	0.002445	-0.114287
O4	O	1.478399	0.431812	-0.114292
O5	O	1.493502	0.002451	0.114293
O6	O	1.303250	0.227003	0.114290
O7	O	1.668649	0.207266	0.114291
Zn8	Zn	1.485949	0.217135	0.150583
Zn9	Zn	1.485952	0.217128	-0.150581
O10	O	1.478397	0.431818	0.114288
C11	C	1.256447	0.225549	-0.000000
C12	C	1.116987	0.221209	-0.000001
C13	C	1.492052	-0.052531	0.000001
C14	C	1.487711	-0.216350	-0.000005
C15	C	0.906986	0.349349	-0.000005
C16	C	1.038024	0.353428	-0.000006
C17	C	1.064907	0.084903	-0.000010
C18	C	0.933872	0.080825	-0.000019
C19	C	0.891466	0.504381	0.000003
C20	C	1.022504	0.508459	0.000003
C21	C	1.715454	0.208713	-0.000002
C22	C	1.854914	0.213053	-0.000010
C23	C	1.479850	0.486794	-0.000003
C24	C	1.484190	0.650613	-0.000005
N25	N	1.485956	0.217139	0.356119
N26	N	1.485955	0.217112	-0.356118
C27	C	1.570222	0.117742	0.428047
C28	C	1.570219	0.117724	0.571929
C29	C	1.401680	0.316514	0.571945
C30	C	1.401678	0.316524	0.428064
C31	C	1.667531	0.002976	0.428039
C32	C	1.667528	0.002958	0.571922
H33	H	1.129210	-0.022752	-0.000019
O34	O	0.877713	-0.066184	-0.000044
H35	H	0.773331	-0.046810	-0.000064
O36	O	0.836506	0.581799	-0.126701
H37	H	0.786530	0.502729	-0.188777
O38	O	1.638520	-0.147231	0.376288
H39	H	1.624305	-0.220774	0.465059
H40	H	1.058334	0.557829	-0.098695
O41	O	1.310775	0.423712	0.350482
H42	H	1.364440	0.496009	0.284921
H43	H	0.846000	0.551222	0.098694
O44	O	1.061735	0.588722	0.126731
H45	H	0.977022	0.624771	0.188780
H46	H	1.333062	0.397429	0.630538
O47	O	1.788506	0.050545	0.368905
H48	H	1.852647	0.075753	0.453912
O49	O	1.626595	-0.139027	0.631013
H50	H	1.529542	-0.154170	0.595725
O51	O	1.795484	0.036467	0.623675
H52	H	1.868173	-0.049347	0.585599
