data_functionalizedCrystal
_audit_creation_method	'MofGen! by Chris Wilmer'
_symmetry_space_group_name_H-M	'P1'
_symmetry_Int_Tables_number	1
_symmetry_cell_setting	triclinic
loop_
_symmetry_equiv_pos_as_xyz
  x,y,z
_cell_length_a	12.503552
_cell_length_b	14.853567
_cell_length_c	14.853567
_cell_angle_alpha	96.365070
_cell_angle_beta	86.471599
_cell_angle_gamma	86.474799
loop_
_atom_site_label
_atom_site_type_symbol
_atom_site_fract_x
_atom_site_fract_y
_atom_site_fract_z
O1	O	0.089238	-1.201558	0.112504
O2	O	0.589238	-0.701558	0.612504
O3	O	0.089255	-0.939100	0.126524
O4	O	0.589255	-0.439100	0.626524
O5	O	0.089249	-1.077340	-0.011716
O6	O	0.589249	-0.577340	0.488284
O7	O	0.089243	-1.063318	0.250744
O8	O	0.589243	-0.563318	0.750744
O9	O	-0.089393	-1.066931	-0.001310
O10	O	0.410607	-0.566931	0.498690
O11	O	-0.089387	-0.928691	0.136930
O12	O	0.410613	-0.428691	0.636930
O13	O	-0.089404	-1.191150	0.122910
O14	O	0.410596	-0.691150	0.622910
Cu15	Cu	-0.105707	-1.058970	0.130870
Cu16	Cu	0.394293	-0.558970	0.630870
Cu17	Cu	0.105558	-1.071279	0.118564
Cu18	Cu	0.605558	-0.571279	0.618564
O19	O	-0.089399	-1.052910	0.261150
O20	O	0.410601	-0.552910	0.761150
C21	C	-0.000064	-0.900307	0.131092
C22	C	0.499936	-0.400307	0.631092
C23	C	-0.000057	-0.800224	0.129188
C24	C	0.499943	-0.300224	0.629188
N25	N	-0.254300	-1.050319	0.139525
N26	N	0.245700	-0.550319	0.639525
C27	C	-0.526735	-1.092659	0.097168
C28	C	-0.026735	-0.592659	0.597168
C29	C	-0.473408	-1.037601	0.152256
C30	C	0.026592	-0.537601	0.652256
C31	C	-0.351485	-1.044679	0.145170
C32	C	0.148515	-0.544679	0.645170
C33	C	-0.648669	-1.085582	0.104252
C34	C	-0.148669	-0.585582	0.604252
C35	C	-0.000069	-1.071500	-0.040102
C36	C	0.499931	-0.571500	0.459898
C37	C	-0.000059	-1.069597	-0.140186
C38	C	0.499941	-0.569597	0.359814
N39	N	0.254150	-1.079937	0.109902
N40	N	0.754150	-0.579937	0.609902
C41	C	-0.000083	-1.229943	0.118342
C42	C	0.499917	-0.729943	0.618342
C43	C	-0.000083	-1.330026	0.120246
C44	C	0.499917	-0.830026	0.620246
C45	C	-0.000079	-0.387688	0.039023
C46	C	0.499921	0.112312	0.539023
C47	C	-0.000081	-0.366407	0.203256
C48	C	0.499919	0.133593	0.703256
C49	C	-0.000078	-0.460441	0.205046
C50	C	0.499922	0.039559	0.705046
C51	C	-0.000073	-0.518103	0.123823
C52	C	0.499927	-0.018103	0.623823
C53	C	-0.000072	-0.481732	0.040810
C54	C	0.499928	0.018268	0.540810
C55	C	-0.000068	-0.496821	0.288057
C56	C	0.499932	0.003179	0.788057
C57	C	-0.000064	-0.590860	0.289850
C58	C	0.499936	-0.090860	0.789850
C59	C	-0.000067	-0.648524	0.208626
C60	C	0.499933	-0.148524	0.708626
C61	C	-0.000067	-0.612147	0.125610
C62	C	0.499933	-0.112147	0.625610
C63	C	-0.000062	-0.669809	0.044388
C64	C	0.499938	-0.169809	0.544388
C65	C	-0.000070	-0.633433	-0.038629
C66	C	0.499930	-0.133433	0.461371
C67	C	-0.000075	-0.539395	-0.040413
C68	C	0.499925	-0.039395	0.459587
C69	C	-0.000061	-0.742561	0.210410
C70	C	0.499939	-0.242561	0.710410
C71	C	-0.000056	-0.763852	0.046175
C72	C	0.499944	-0.263852	0.546175
C73	C	-0.000074	-0.979431	-0.552719
C74	C	0.499926	-0.479431	-0.052719
C75	C	-0.000085	-1.143663	-0.573999
C76	C	0.499915	-0.643663	-0.073999
C77	C	-0.000078	-1.145453	-0.479966
C78	C	0.499922	-0.645453	0.020034
C79	C	-0.000072	-1.064231	-0.422304
C80	C	0.499928	-0.564231	0.077696
C81	C	-0.000071	-0.981218	-0.458676
C82	C	0.499929	-0.481218	0.041324
C83	C	-0.000090	-1.228464	-0.443586
C84	C	0.499910	-0.728464	0.056414
C85	C	-0.000085	-1.230258	-0.349547
C86	C	0.499915	-0.730258	0.150453
C87	C	-0.000070	-1.149035	-0.291885
C88	C	0.499930	-0.649035	0.208115
C89	C	-0.000069	-1.066019	-0.328262
C90	C	0.499931	-0.566019	0.171738
C91	C	-0.000062	-0.984797	-0.270600
C92	C	0.499938	-0.484797	0.229400
C93	C	-0.000052	-0.901780	-0.306976
C94	C	0.499948	-0.401780	0.193024
C95	C	-0.000056	-0.899996	-0.401014
C96	C	0.499944	-0.399996	0.098986
C97	C	-0.000066	-1.150819	-0.197847
C98	C	0.499934	-0.650819	0.302153
C99	C	-0.000059	-0.986584	-0.176558
C100	C	0.499941	-0.486584	0.323442
C101	C	-0.000078	-1.058749	0.289536
C102	C	0.499922	-0.558749	0.789536
C103	C	-0.000081	-1.060653	0.389620
C104	C	0.499919	-0.560653	0.889620
H105	H	-0.519322	-0.985148	0.204740
H106	H	-0.019322	-0.485148	0.704740
H107	H	-0.000099	-1.209790	-0.620952
H108	H	0.499901	-0.709790	-0.120952
H109	H	-0.000059	-0.680394	-0.104761
H110	H	0.499941	-0.180394	0.395239
H111	H	-0.000091	-1.297854	-0.319939
H112	H	0.499909	-0.797854	0.180061
H113	H	-0.480826	-1.145109	0.044688
H114	H	0.019174	-0.645109	0.544688
H115	H	-0.000056	-0.810795	-0.019968
H116	H	0.499944	-0.310795	0.480032
H117	H	-0.000054	-0.835649	-0.260016
H118	H	0.499946	-0.335649	0.239984
H119	H	-0.000081	-1.218410	-0.168234
H120	H	0.499919	-0.718410	0.331766
H121	H	-0.000107	-0.509767	-0.107999
H122	H	0.499893	-0.009767	0.392001
H123	H	-0.000089	-0.358067	-0.028567
H124	H	0.499911	0.141933	0.471433
H125	H	-0.000076	-0.319454	0.269383
H126	H	0.499924	0.180546	0.769383
H127	H	-0.000061	-0.449867	0.354183
H128	H	0.499939	0.050133	0.854183
H129	H	-0.000057	-0.620469	0.357447
H130	H	0.499943	-0.120469	0.857447
H131	H	-0.000057	-0.772175	0.278001
H132	H	0.499943	-0.272175	0.778001
H133	H	-0.000048	-0.920443	-0.129615
H134	H	0.499952	-0.420443	0.370385
H135	H	-0.000050	-0.832408	-0.430640
H136	H	0.499950	-0.332408	0.069360
H137	H	-0.000062	-0.911841	-0.582341
H138	H	0.499938	-0.411841	-0.082341
H139	H	-0.000106	-1.294590	-0.490540
H140	H	0.499894	-0.794590	0.009460
