data_functionalizedCrystal
_audit_creation_method	'MofGen! by Chris Wilmer'
_symmetry_space_group_name_H-M	'P1'
_symmetry_Int_Tables_number	1
_symmetry_cell_setting	triclinic
loop_
_symmetry_equiv_pos_as_xyz
  x,y,z
_cell_length_a	29.839135
_cell_length_b	29.839131
_cell_length_c	16.625539
_cell_angle_alpha	89.967906
_cell_angle_beta	89.976179
_cell_angle_gamma	90.043950
loop_
_atom_site_label
_atom_site_type_symbol
_atom_site_fract_x
_atom_site_fract_y
_atom_site_fract_z
Zn1	Zn	0.686757	-0.178822	-0.455958
Zn2	Zn	1.186757	0.321178	0.044042
Zn3	Zn	0.686678	-0.253953	-0.321116
Zn4	Zn	1.186678	0.246047	0.178884
Zn5	Zn	0.611628	-0.178841	-0.321131
Zn6	Zn	1.111628	0.321159	0.178869
Zn7	Zn	0.611587	-0.253929	-0.455899
Zn8	Zn	1.111587	0.246071	0.044101
O9	O	0.649163	-0.216386	-0.388526
O10	O	1.149163	0.283614	0.111474
O11	O	0.749613	-0.188790	-0.438090
O12	O	1.249613	0.311210	0.061910
O13	O	0.676707	-0.244007	-0.208286
O14	O	1.176707	0.255993	0.291714
O15	O	0.621645	-0.115972	-0.339047
O16	O	1.121645	0.384028	0.160953
O17	O	0.749555	-0.243989	-0.339022
O18	O	1.249555	0.256011	0.160978
O19	O	0.676841	-0.115958	-0.438104
O20	O	1.176841	0.384042	0.061896
O21	O	0.621568	-0.188823	-0.208297
O22	O	1.121568	0.311177	0.291703
O23	O	0.548756	-0.188800	-0.338989
O24	O	1.048756	0.311200	0.161011
O25	O	0.621574	-0.243948	-0.568739
O26	O	1.121574	0.256052	-0.068739
O27	O	0.548726	-0.243967	-0.438003
O28	O	1.048726	0.256033	0.061997
O29	O	0.676801	-0.188767	-0.568783
O30	O	1.176801	0.311233	-0.068783
O31	O	0.676667	-0.316817	-0.338965
O32	O	1.176667	0.183183	0.161035
O33	O	0.621498	-0.316800	-0.437988
O34	O	1.121498	0.183200	0.062012
C35	C	0.532440	-0.216383	-0.388492
C36	C	1.032440	0.283617	0.111508
C37	C	0.482506	-0.216392	-0.388496
C38	C	0.982506	0.283608	0.111504
C39	C	0.172889	-0.187688	-0.440186
C40	C	0.672889	0.312312	0.059814
C41	C	-0.014784	-0.187691	-0.440209
C42	C	0.485216	0.312309	0.059791
O43	O	-0.039025	-0.163276	-0.484120
O44	O	0.460975	0.336724	0.015880
N45	N	-0.038280	-0.216387	-0.388556
N46	N	0.461720	0.283613	0.111444
C47	C	-0.014854	-0.245082	-0.336889
C48	C	0.485146	0.254918	0.163111
O49	O	-0.039145	-0.269486	-0.292948
O50	O	0.460855	0.230514	0.207052
C51	C	0.172818	-0.245076	-0.336862
C52	C	0.672818	0.254924	0.163138
C53	C	0.196311	-0.216382	-0.388525
C54	C	0.696311	0.283618	0.111475
C55	C	0.196383	-0.158996	-0.491845
C56	C	0.696383	0.341004	0.008155
C57	C	0.243298	-0.158997	-0.491841
C58	C	0.743298	0.341003	0.008159
C59	C	0.266720	-0.187691	-0.440180
C60	C	0.766720	0.312309	0.059820
C61	C	0.243227	-0.216383	-0.388522
C62	C	0.743227	0.283617	0.111478
C63	C	0.196242	-0.273768	-0.285192
C64	C	0.696242	0.226232	0.214808
C65	C	0.243163	-0.273763	-0.285188
C66	C	0.743163	0.226237	0.214812
C67	C	0.266657	-0.245069	-0.336851
C68	C	0.766657	0.254931	0.163149
C69	C	0.313564	-0.245078	-0.336858
C70	C	0.813564	0.254922	0.163142
N71	N	0.337060	-0.216382	-0.388511
N72	N	0.837060	0.283618	0.111489
C73	C	0.313638	-0.187689	-0.440173
C74	C	0.813638	0.312311	0.059827
C75	C	-0.113385	-0.245083	-0.336907
C76	C	0.386615	0.254917	0.163093
C77	C	-0.160303	-0.245085	-0.336915
C78	C	0.339697	0.254915	0.163085
C79	C	-0.160229	-0.187694	-0.440235
C80	C	0.339771	0.312306	0.059765
C81	C	-0.113310	-0.187695	-0.440231
C82	C	0.386690	0.312305	0.059769
C83	C	-0.089889	-0.216388	-0.388561
C84	C	0.410111	0.283612	0.111439
C85	C	0.412164	-0.187694	-0.440163
C86	C	0.912164	0.312306	0.059837
C87	C	0.459083	-0.187699	-0.440157
C88	C	0.959083	0.312301	0.059843
C89	C	0.459006	-0.245088	-0.336835
C90	C	0.959006	0.254912	0.163165
C91	C	0.412090	-0.245085	-0.336843
C92	C	0.912090	0.254915	0.163157
C93	C	0.388670	-0.216384	-0.388509
C94	C	0.888670	0.283616	0.111491
O95	O	0.337835	-0.269477	-0.292963
O96	O	0.837835	0.230523	0.207037
O97	O	0.337937	-0.163281	-0.484094
O98	O	0.837937	0.336719	0.015906
C99	C	0.125974	-0.187687	-0.440190
C100	C	0.625974	0.312313	0.059810
C101	C	0.102480	-0.216379	-0.388531
C102	C	0.602480	0.283621	0.111469
C103	C	0.125902	-0.245073	-0.336870
C104	C	0.625902	0.254927	0.163130
C105	C	0.055563	-0.216381	-0.388539
C106	C	0.555563	0.283619	0.111461
C107	C	0.032141	-0.187688	-0.440200
C108	C	0.532141	0.312312	0.059800
C109	C	0.055636	-0.158992	-0.491854
C110	C	0.555636	0.341008	0.008146
C111	C	0.102552	-0.158993	-0.491851
C112	C	0.602552	0.341007	0.008149
C113	C	0.102407	-0.273768	-0.285216
C114	C	0.602407	0.226232	0.214784
C115	C	0.055491	-0.273765	-0.285224
C116	C	0.555491	0.226235	0.214776
C117	C	0.032069	-0.245072	-0.336886
C118	C	0.532069	0.254928	0.163114
C119	C	0.649081	-0.333109	-0.388486
C120	C	1.149081	0.166891	0.111514
C121	C	0.649088	-0.383043	-0.388496
C122	C	1.149088	0.116957	0.111504
C123	C	0.677941	-0.692683	-0.337040
C124	C	1.177941	-0.192683	0.162960
C125	C	0.677997	-0.880356	-0.337071
C126	C	1.177997	-0.380356	0.162929
O127	O	0.702464	-0.904618	-0.293290
O128	O	1.202464	-0.404618	0.206710
N129	N	0.649256	-0.903828	-0.388587
N130	N	1.149256	-0.403828	0.111413
C131	C	0.620501	-0.880379	-0.440102
C132	C	1.120501	-0.380379	0.059898
O133	O	0.596060	-0.904650	-0.483926
O134	O	1.096060	-0.404650	0.016074
C135	C	0.620448	-0.692707	-0.440074
C136	C	1.120448	-0.192707	0.059926
C137	C	0.649188	-0.669238	-0.388549
C138	C	1.149188	-0.169238	0.111451
C139	C	0.706679	-0.669214	-0.285519
C140	C	1.206679	-0.169214	0.214481
C141	C	0.706663	-0.622298	-0.285509
C142	C	1.206663	-0.122298	0.214491
C143	C	0.677909	-0.598852	-0.337019
C144	C	1.177909	-0.098852	0.162981
C145	C	0.649172	-0.622322	-0.388539
C146	C	1.149172	-0.122322	0.111461
C147	C	0.591696	-0.669259	-0.491593
C148	C	1.091696	-0.169259	0.008407
C149	C	0.591686	-0.622338	-0.491583
C150	C	1.091686	-0.122338	0.008417
C151	C	0.620426	-0.598868	-0.440058
C152	C	1.120426	-0.098868	0.059942
C153	C	0.620402	-0.551961	-0.440038
C154	C	1.120402	-0.051961	0.059962
N155	N	0.649143	-0.528489	-0.388523
N156	N	1.149143	-0.028489	0.111477
C157	C	0.677897	-0.551935	-0.337013
C158	C	1.177897	-0.051935	0.162987
C159	C	0.620530	-0.978910	-0.440112
C160	C	1.120530	-0.478910	0.059888
C161	C	0.620543	-1.025828	-0.440118
C162	C	1.120543	-0.525828	0.059882
C163	C	0.678039	-1.025801	-0.337088
C164	C	1.178039	-0.525801	0.162912
C165	C	0.678024	-0.978883	-0.337078
C166	C	1.178024	-0.478883	0.162922
C167	C	0.649271	-0.955438	-0.388596
C168	C	1.149271	-0.455438	0.111404
C169	C	0.677861	-0.453409	-0.336994
C170	C	1.177861	0.046591	0.163006
C171	C	0.677841	-0.406489	-0.336986
C172	C	1.177841	0.093511	0.163014
C173	C	0.620347	-0.406520	-0.440019
C174	C	1.120347	0.093480	0.059981
C175	C	0.620365	-0.453435	-0.440025
C176	C	1.120365	0.046565	0.059975
C177	C	0.649125	-0.476879	-0.388510
C178	C	1.149125	0.023121	0.111490
O179	O	0.595951	-0.527670	-0.483803
O180	O	1.095951	-0.027670	0.016197
O181	O	0.702342	-0.527656	-0.293208
O182	O	1.202342	-0.027656	0.206792
C183	C	0.677957	-0.739599	-0.337050
C184	C	1.177957	-0.239599	0.162950
C185	C	0.649219	-0.763068	-0.388570
C186	C	1.149219	-0.263068	0.111430
C187	C	0.620466	-0.739623	-0.440080
C188	C	1.120466	-0.239623	0.059920
C189	C	0.649232	-0.809986	-0.388576
C190	C	1.149232	-0.309986	0.111424
C191	C	0.677985	-0.833432	-0.337067
C192	C	1.177985	-0.333432	0.162933
C193	C	0.706726	-0.809960	-0.285551
C194	C	1.206726	-0.309960	0.214449
C195	C	0.706711	-0.763044	-0.285540
C196	C	1.206711	-0.263044	0.214460
C197	C	0.591725	-0.763095	-0.491596
C198	C	1.091725	-0.263095	0.008404
C199	C	0.591743	-0.810010	-0.491602
C200	C	1.091743	-0.310010	0.008398
C201	C	0.620496	-0.833456	-0.440092
C202	C	1.120496	-0.333456	0.059908
C203	C	0.766341	-0.216390	-0.388561
C204	C	1.266341	0.283610	0.111439
C205	C	0.816275	-0.216392	-0.388576
C206	C	1.316275	0.283608	0.111424
C207	C	0.649192	-0.216353	-0.598835
C208	C	1.149192	0.283647	-0.098835
C209	C	0.649204	-0.216339	-0.688456
C210	C	1.149204	0.283661	-0.188456
C211	C	0.649256	-0.099208	-0.388584
C212	C	1.149256	0.400792	0.111416
C213	C	0.649296	-0.049274	-0.388608
C214	C	1.149296	0.450726	0.111392
C215	C	0.649225	-0.216288	-1.016632
C216	C	1.149225	0.283712	-0.516632
C217	C	0.649218	-0.216304	-0.925324
C218	C	1.149218	0.283696	-0.425324
C219	C	0.649215	-0.216314	-0.852547
C220	C	1.149215	0.283686	-0.352547
C221	C	0.649207	-0.216329	-0.761233
C222	C	1.149207	0.283671	-0.261233
C223	C	0.649159	-0.216387	-0.179035
C224	C	1.149159	0.283613	0.320965
C225	C	0.649234	-0.216275	-0.089415
C226	C	1.149234	0.283725	0.410585
H227	H	-0.094185	-0.164328	-0.482298
H228	H	0.405815	0.335672	0.017702
H229	H	0.568272	-0.603252	-0.533538
H230	H	1.068272	-0.103252	-0.033538
H231	H	-0.179307	-0.164331	-0.482300
H232	H	0.320693	0.335669	0.017700
H233	H	0.568291	-0.688360	-0.533547
H234	H	1.068291	-0.188360	-0.033547
H235	H	0.597115	-0.959824	-0.482065
H236	H	1.097115	-0.459824	0.017935
H237	H	0.177317	-0.135628	-0.533914
H238	H	0.677317	0.364372	-0.033914
O239	O	0.705965	-0.956037	-0.287143
O240	O	1.205965	-0.456037	0.212857
C241	C	0.766633	-0.903035	-0.276390
C242	C	1.266633	-0.403035	0.223610
C243	C	0.735009	-0.928868	-0.333033
C244	C	1.235009	-0.428868	0.166967
H245	H	0.790129	-0.881070	-0.313470
H246	H	1.290129	-0.381070	0.186530
H247	H	0.746042	-0.881074	-0.234201
H248	H	1.246042	-0.381074	0.265799
H249	H	0.787163	-0.927865	-0.239559
H250	H	1.287163	-0.427865	0.260441
H251	H	0.714473	-0.904070	-0.369916
H252	H	1.214473	-0.404070	0.130084
H253	H	0.755626	-0.950835	-0.375169
H254	H	1.255626	-0.450835	0.124831
O255	O	0.266047	-0.131076	-0.542045
O256	O	0.766047	0.368924	-0.042045
C257	C	0.261151	-0.074165	-0.644545
C258	C	0.761151	0.425835	-0.144545
C259	C	0.235336	-0.105760	-0.587720
C260	C	0.735336	0.394240	-0.087720
H261	H	0.236332	-0.053695	-0.681500
H262	H	0.736332	0.446305	-0.181500
H263	H	0.283109	-0.050617	-0.607637
H264	H	0.783109	0.449383	-0.107637
H265	H	0.283126	-0.094820	-0.686609
H266	H	0.783126	0.405180	-0.186609
H267	H	0.213336	-0.085141	-0.545645
H268	H	0.713336	0.414859	-0.045645
H269	H	0.213406	-0.129309	-0.624678
H270	H	0.713406	0.370691	-0.124678
H271	H	-0.179427	-0.268456	-0.294854
H272	H	0.320573	0.231544	0.205146
O273	O	0.592432	-0.476167	-0.490148
O274	O	1.092432	0.023833	0.009852
C275	C	0.535387	-0.471236	-0.592313
C276	C	1.035387	0.028764	-0.092313
C277	C	0.567001	-0.445441	-0.535593
C278	C	1.067001	0.054559	-0.035593
H279	H	0.514812	-0.446405	-0.629058
H280	H	1.014812	0.053595	-0.129058
H281	H	0.555989	-0.493146	-0.634570
H282	H	1.055989	0.006854	-0.134570
H283	H	0.511935	-0.493257	-0.555252
H284	H	1.011935	0.006743	-0.055252
H285	H	0.590460	-0.423395	-0.572589
H286	H	1.090460	0.076605	-0.072589
H287	H	0.546372	-0.423558	-0.493333
H288	H	1.046372	0.076442	0.006667
H289	H	0.568336	-0.829115	-0.533559
H290	H	1.068336	-0.329115	-0.033559
H291	H	0.262231	-0.297129	-0.243110
H292	H	0.762231	0.202871	0.256890
H293	H	0.121676	-0.135627	-0.533920
H294	H	0.621676	0.364373	-0.033920
H295	H	0.730066	-0.603192	-0.243555
H296	H	1.230066	-0.103192	0.256445
H297	H	0.036558	-0.135630	-0.533921
H298	H	0.536558	0.364370	-0.033921
H299	H	0.596935	-0.387423	-0.481956
H300	H	1.096935	0.112577	0.018044
H301	H	0.701451	-1.044899	-0.295147
H302	H	1.201451	-0.544899	0.204853
H303	H	0.036367	-0.297136	-0.243155
H304	H	0.536367	0.202864	0.256845
H305	H	0.478210	-0.164332	-0.482230
H306	H	0.978210	0.335668	0.017770
O307	O	-0.090706	-0.273002	-0.286689
O308	O	0.409294	0.226998	0.213311
C309	C	-0.095743	-0.329909	-0.184182
C310	C	0.404257	0.170091	0.315818
C311	C	-0.121479	-0.298319	-0.241022
C312	C	0.378521	0.201681	0.258978
H313	H	-0.120612	-0.350379	-0.147233
H314	H	0.379388	0.149621	0.352767
H315	H	-0.073797	-0.353457	-0.221078
H316	H	0.426203	0.146543	0.278922
H317	H	-0.073762	-0.309249	-0.142113
H318	H	0.426238	0.190751	0.357887
H319	H	-0.143485	-0.318943	-0.283102
H320	H	0.356515	0.181057	0.216898
H321	H	-0.143397	-0.274770	-0.204075
H322	H	0.356603	0.225230	0.295925
H323	H	0.177122	-0.297134	-0.243121
H324	H	0.677122	0.202866	0.256879
O325	O	0.734726	-0.832684	-0.235554
O326	O	1.234726	-0.332684	0.264446
C327	C	0.811168	-0.846985	-0.196609
C328	C	1.311168	-0.346985	0.303391
C329	C	0.779506	-0.821215	-0.253258
C330	C	1.279506	-0.321215	0.246742
H331	H	0.847380	-0.837728	-0.210914
H332	H	1.347380	-0.337728	0.289086
H333	H	0.803339	-0.837786	-0.131561
H334	H	1.303339	-0.337786	0.368439
H335	H	0.806222	-0.884548	-0.205451
H336	H	1.306222	-0.384548	0.294549
H337	H	0.784434	-0.783646	-0.244488
H338	H	1.284434	-0.283646	0.255512
H339	H	0.787343	-0.830451	-0.318285
H340	H	1.287343	-0.330451	0.181715
H341	H	0.392961	-0.268455	-0.294784
H342	H	0.892961	0.231545	0.205216
H343	H	0.730096	-0.688298	-0.243574
H344	H	1.230096	-0.188298	0.256426
O345	O	0.592669	-1.048603	-0.490280
O346	O	1.092669	-0.548603	0.009720
C347	C	0.570806	-1.062902	-0.627399
C348	C	1.070806	-0.562902	-0.127399
C349	C	0.602406	-1.037092	-0.570678
C350	C	1.102406	-0.537092	-0.070678
H351	H	0.578660	-1.053598	-0.692412
H352	H	1.078660	-0.553598	-0.192412
H353	H	0.575752	-1.100469	-0.618633
H354	H	1.075752	-0.600469	-0.118633
H355	H	0.534586	-1.053723	-0.613133
H356	H	1.034586	-0.553723	-0.113133
H357	H	0.638638	-1.046233	-0.584908
H358	H	1.138638	-0.546233	-0.084908
H359	H	0.597421	-0.999531	-0.579454
H360	H	1.097421	-0.499531	-0.079454
O361	O	0.481832	-0.272916	-0.286677
O362	O	0.981832	0.227084	0.213323
C363	C	0.554085	-0.298358	-0.240916
C364	C	1.054085	0.201642	0.259084
C365	C	0.528289	-0.266816	-0.297753
C366	C	1.028289	0.233184	0.202247
H367	H	0.591650	-0.293443	-0.249863
H368	H	1.091650	0.206557	0.250137
H369	H	0.544884	-0.290418	-0.175910
H370	H	1.044884	0.209582	0.324090
H371	H	0.544813	-0.334590	-0.254939
H372	H	1.044813	0.165410	0.245061
H373	H	0.537547	-0.230573	-0.283802
H374	H	1.037547	0.269427	0.216198
H375	H	0.537492	-0.274793	-0.362742
H376	H	1.037492	0.225207	0.137258
H377	H	0.121472	-0.297134	-0.243145
H378	H	0.621472	0.202866	0.256855
H379	H	0.393101	-0.164321	-0.482232
H380	H	0.893101	0.335679	0.017768
O381	O	0.563748	-0.740393	-0.541657
O382	O	1.063748	-0.240393	-0.041657
C383	C	0.506734	-0.745382	-0.643872
C384	C	1.006734	-0.245382	-0.143872
C385	C	0.538394	-0.771145	-0.587208
C386	C	1.038394	-0.271145	-0.087208
H387	H	0.486235	-0.770234	-0.680727
H388	H	0.986235	-0.270234	-0.180727
H389	H	0.483217	-0.723471	-0.606844
H390	H	0.983217	-0.223471	-0.106844
H391	H	0.527341	-0.723364	-0.686037
H392	H	1.027341	-0.223364	-0.186037
H393	H	0.517824	-0.793187	-0.545032
H394	H	1.017824	-0.293187	-0.045032
H395	H	0.561913	-0.793028	-0.624286
H396	H	1.061913	-0.293028	-0.124286
O397	O	0.705803	-0.383761	-0.286908
O398	O	1.205803	0.116239	0.213092
C399	C	0.762813	-0.388695	-0.184682
C400	C	1.262813	0.111305	0.315318
C401	C	0.731178	-0.414488	-0.241364
C402	C	1.231178	0.085512	0.258636
H403	H	0.783330	-0.413527	-0.147833
H404	H	1.283330	0.086473	0.352167
H405	H	0.786316	-0.366701	-0.221696
H406	H	1.286316	0.133299	0.278304
H407	H	0.742187	-0.366756	-0.142513
H408	H	1.242187	0.133244	0.357487
H409	H	0.751768	-0.436451	-0.283544
H410	H	1.251768	0.063549	0.216456
H411	H	0.707674	-0.436453	-0.204299
H412	H	1.207674	0.063547	0.295701
H413	H	0.701282	-0.472491	-0.295047
H414	H	1.201282	0.027509	0.204953
H415	H	0.730113	-0.743939	-0.243584
H416	H	1.230113	-0.243939	0.256416
