data_functionalizedCrystal
_audit_creation_method	'MofGen! by Chris Wilmer'
_symmetry_space_group_name_H-M	'P1'
_symmetry_Int_Tables_number	1
_symmetry_cell_setting	triclinic
loop_
_symmetry_equiv_pos_as_xyz
  x,y,z
_cell_length_a	12.827893
_cell_length_b	18.101395
_cell_length_c	12.827885
_cell_angle_alpha	90.032375
_cell_angle_beta	90.019272
_cell_angle_gamma	90.031265
loop_
_atom_site_label
_atom_site_type_symbol
_atom_site_fract_x
_atom_site_fract_y
_atom_site_fract_z
Zn1	Zn	1.597556	-0.294791	0.590830
Zn2	Zn	1.930889	0.038543	0.924163
Zn3	Zn	2.264222	0.371876	1.257497
Zn4	Zn	1.597402	-0.418650	0.416082
Zn5	Zn	1.930735	-0.085317	0.749416
Zn6	Zn	2.264068	0.248017	1.082749
Zn7	Zn	1.422797	-0.294827	0.416103
Zn8	Zn	1.756130	0.038506	0.749437
Zn9	Zn	2.089464	0.371840	1.082770
Zn10	Zn	1.422734	-0.418595	0.590782
Zn11	Zn	1.756068	-0.085262	0.924116
Zn12	Zn	2.089401	0.248072	1.257449
O13	O	1.510122	-0.356716	0.503449
O14	O	1.843455	-0.023382	0.836783
O15	O	2.176789	0.309951	1.170116
O16	O	1.743771	-0.311228	0.567660
O17	O	2.077104	0.022105	0.900994
O18	O	2.410438	0.355438	1.234327
O19	O	1.574202	-0.402263	0.269849
O20	O	1.907535	-0.068929	0.603182
O21	O	2.240868	0.264404	0.936516
O22	O	1.446070	-0.191189	0.439310
O23	O	1.779403	0.142144	0.772643
O24	O	2.112736	0.475477	1.105977
O25	O	1.743658	-0.402227	0.439274
O26	O	2.076991	-0.068894	0.772607
O27	O	2.410325	0.264439	1.105941
O28	O	1.574464	-0.191162	0.567681
O29	O	1.907797	0.142171	0.901014
O30	O	2.241131	0.475504	1.234347
O31	O	1.445920	-0.311291	0.269865
O32	O	1.779254	0.022043	0.603198
O33	O	2.112587	0.355376	0.936531
O34	O	1.276553	-0.311238	0.439264
O35	O	1.609886	0.022096	0.772597
O36	O	1.943219	0.355429	1.105931
O37	O	1.445963	-0.402134	0.737025
O38	O	1.779296	-0.068801	1.070358
O39	O	2.112630	0.264533	1.403691
O40	O	1.276507	-0.402169	0.567600
O41	O	1.609840	-0.068836	0.900933
O42	O	1.943173	0.264497	1.234266
O43	O	1.574403	-0.311175	0.737060
O44	O	1.907737	0.022158	1.070393
O45	O	2.241070	0.355491	1.403726
O46	O	1.574141	-0.522276	0.439228
O47	O	1.907474	-0.188942	0.772561
O48	O	2.240808	0.144391	1.105894
O49	O	1.445814	-0.522235	0.567579
O50	O	1.779147	-0.188902	0.900912
O51	O	2.112480	0.144431	1.234246
C52	C	1.238612	-0.356702	0.503430
C53	C	1.571946	-0.023369	0.836763
C54	C	1.905279	0.309965	1.170096
C55	C	1.122459	-0.356714	0.503446
C56	C	1.455792	-0.023381	0.836779
C57	C	1.789126	0.309953	1.170112
C58	C	1.070730	-0.311765	0.567074
C59	C	1.404063	0.021569	0.900408
C60	C	1.737397	0.354902	1.233741
C61	C	0.950680	-0.311776	0.567093
C62	C	1.284013	0.021557	0.900426
C63	C	1.617346	0.354891	1.233759
C64	C	1.509982	-0.549126	0.503419
C65	C	1.843316	-0.215793	0.836752
C66	C	2.176649	0.117540	1.170085
C67	C	1.510018	-0.631440	0.503440
C68	C	1.843351	-0.298107	0.836774
C69	C	2.176685	0.035226	1.170107
C70	C	1.510247	-0.930531	0.503497
C71	C	1.843581	-0.597198	0.836830
C72	C	2.176914	-0.263865	1.170163
C73	C	1.429695	-0.899212	0.584452
C74	C	1.763028	-0.565878	0.917786
C75	C	2.096361	-0.232545	1.251119
C76	C	1.429312	-0.813594	0.584199
C77	C	1.762645	-0.480260	0.917533
C78	C	2.095978	-0.146927	1.250866
C79	C	1.510134	-0.782149	0.503470
C80	C	1.843467	-0.448815	0.836803
C81	C	2.176800	-0.115482	1.170136
C82	C	1.480314	-0.813307	0.393335
C83	C	1.813647	-0.479974	0.726669
C84	C	2.146981	-0.146640	1.060002
C85	C	1.479795	-0.898952	0.393820
C86	C	1.813128	-0.565619	0.727153
C87	C	2.146461	-0.232286	1.060486
C88	C	1.620796	-0.898873	0.531706
C89	C	1.954130	-0.565540	0.865039
C90	C	2.287463	-0.232206	1.198373
C91	C	1.620146	-0.813222	0.534121
C92	C	1.953480	-0.479888	0.867455
C93	C	2.286813	-0.146555	1.200788
C94	C	1.510071	-0.698289	0.503448
C95	C	1.843404	-0.364956	0.836781
C96	C	2.176738	-0.031623	1.170114
C97	C	1.510307	-1.014391	0.503511
C98	C	1.843641	-0.681057	0.836845
C99	C	2.176974	-0.347724	1.170178
C100	C	1.782692	-0.356730	0.503470
C101	C	2.116026	-0.023397	0.836803
C102	C	2.449359	0.309937	1.170137
C103	C	1.898845	-0.356736	0.503479
C104	C	2.232179	-0.023403	0.836812
C105	C	2.565512	0.309931	1.170145
C106	C	1.510193	-0.356645	0.776020
C107	C	1.843527	-0.023311	1.109353
C108	C	2.176860	0.310022	1.442686
C109	C	1.510224	-0.356614	0.892173
C110	C	1.843557	-0.023281	1.225506
C111	C	2.176890	0.310052	1.558840
C112	C	1.510291	-0.163554	0.503503
C113	C	1.843624	0.169780	0.836836
C114	C	2.176958	0.503113	1.170170
C115	C	1.510363	-0.081240	0.503526
C116	C	1.843696	0.252094	0.836859
C117	C	2.177030	0.585427	1.170193
C118	C	1.510111	-0.356733	0.231940
C119	C	1.843445	-0.023400	0.565273
C120	C	2.176778	0.309934	0.898606
C121	C	1.510284	-0.356555	0.115787
C122	C	1.843617	-0.023221	0.449120
C123	C	2.176950	0.310112	0.782454
C124	C	1.573787	-0.311596	0.943975
C125	C	1.907120	0.021737	1.277308
C126	C	2.240454	0.355070	1.610642
C127	C	1.573820	-0.311564	1.064025
C128	C	1.907153	0.021770	1.397359
C129	C	2.240486	0.355103	1.730692
H130	H	1.115320	-0.273271	0.621532
H131	H	1.448653	0.060062	0.954865
H132	H	1.781986	0.393396	1.288198
H133	H	1.455822	-0.395127	0.936700
H134	H	1.789156	-0.061794	1.270033
H135	H	2.122489	0.271540	1.603367
H136	H	1.683338	-0.791813	0.479455
H137	H	2.016671	-0.458479	0.812788
H138	H	2.350004	-0.125146	1.146122
Cl139	Cl	1.713460	-0.930158	0.440690
Cl140	Cl	2.046793	-0.596824	0.774023
Cl141	Cl	2.380127	-0.263491	1.107356
Cl142	Cl	1.654870	-0.781776	0.659261
Cl143	Cl	1.988203	-0.448442	0.992594
Cl144	Cl	2.321536	-0.115109	1.325928
H145	H	0.943325	-0.395225	0.449007
H146	H	1.276658	-0.061891	0.782340
H147	H	1.609991	0.271442	1.115674
Cl148	Cl	0.882003	-0.252363	0.651208
Cl149	Cl	1.215336	0.080971	0.984541
Cl150	Cl	1.548670	0.414304	1.317875
Cl151	Cl	1.657746	-0.252106	0.875237
Cl152	Cl	1.991080	0.081227	1.208571
Cl153	Cl	2.324413	0.414560	1.541904
Cl154	Cl	1.657849	-0.252059	1.132799
Cl155	Cl	1.991182	0.081274	1.466132
Cl156	Cl	2.324515	0.414607	1.799466
H157	H	1.348251	-0.920799	0.566002
H158	H	1.681585	-0.587466	0.899336
H159	H	2.014918	-0.254133	1.232669
H160	H	1.077869	-0.395204	0.448982
H161	H	1.411203	-0.061870	0.782316
H162	H	1.744536	0.271463	1.115649
Cl163	Cl	1.458111	-0.781061	0.710283
Cl164	Cl	1.791445	-0.447728	1.043616
Cl165	Cl	2.124778	-0.114394	1.376950
Cl166	Cl	1.426263	-0.416070	1.047020
Cl167	Cl	1.759597	-0.082736	1.380354
Cl168	Cl	2.092930	0.250597	1.713687
Cl169	Cl	1.458206	-0.930930	0.710948
Cl170	Cl	1.791539	-0.597597	1.044281
Cl171	Cl	2.124872	-0.264264	1.377614
H172	H	1.398984	-0.918997	0.369923
H173	H	1.732317	-0.585663	0.703257
H174	H	2.065651	-0.252330	1.036590
H175	H	1.347370	-0.793172	0.565514
H176	H	1.680704	-0.459838	0.898847
H177	H	2.014037	-0.126505	1.232180
Cl178	Cl	1.566435	-0.930948	0.297510
Cl179	Cl	1.899768	-0.597614	0.630844
Cl180	Cl	2.233101	-0.264281	0.964177
H181	H	1.537139	-0.792941	0.331373
H182	H	1.870472	-0.459607	0.664706
H183	H	2.203806	-0.126274	0.998039
H184	H	1.400359	-0.791924	0.369010
H185	H	1.733692	-0.458591	0.702344
H186	H	2.067026	-0.125257	1.035677
H187	H	1.647982	-0.920416	0.610647
H188	H	1.981316	-0.587083	0.943981
H189	H	2.314649	-0.253749	1.277314
