data_functionalizedCrystal
_audit_creation_method	'MofGen! by Chris Wilmer'
_symmetry_space_group_name_H-M	'P1'
_symmetry_Int_Tables_number	1
_symmetry_cell_setting	triclinic
loop_
_symmetry_equiv_pos_as_xyz
  x,y,z
_cell_length_a	17.038272
_cell_length_b	14.519709
_cell_length_c	13.596369
_cell_angle_alpha	90.006934
_cell_angle_beta	89.999553
_cell_angle_gamma	87.395851
loop_
_atom_site_label
_atom_site_type_symbol
_atom_site_fract_x
_atom_site_fract_y
_atom_site_fract_z
O1	O	-1.037692	-0.200289	-0.081672
O2	O	-0.704359	0.133045	0.251661
O3	O	-0.371025	0.466378	0.584994
O4	O	-0.810056	-0.197108	-0.081701
O5	O	-0.476723	0.136225	0.251632
O6	O	-0.143390	0.469558	0.584966
O7	O	-0.929910	-0.064922	-0.081677
O8	O	-0.596576	0.268412	0.251656
O9	O	-0.263243	0.601745	0.584990
O10	O	-0.917839	-0.332475	-0.081696
O11	O	-0.584505	0.000858	0.251637
O12	O	-0.251172	0.334192	0.584970
O13	O	-0.929898	-0.064913	0.081906
O14	O	-0.596564	0.268420	0.415239
O15	O	-0.263231	0.601753	0.748573
O16	O	-0.810044	-0.197100	0.081882
O17	O	-0.476711	0.136233	0.415215
O18	O	-0.143378	0.469567	0.748548
O19	O	-1.037680	-0.200280	0.081911
O20	O	-0.704347	0.133053	0.415244
O21	O	-0.371014	0.466387	0.748577
Zn22	Zn	-0.923860	-0.198689	0.107869
Zn23	Zn	-0.590527	0.134645	0.441202
Zn24	Zn	-0.257194	0.467978	0.774535
Zn25	Zn	-0.923876	-0.198700	-0.107659
Zn26	Zn	-0.590543	0.134634	0.225674
Zn27	Zn	-0.257209	0.467967	0.559008
O28	O	-0.917827	-0.332467	0.081887
O29	O	-0.584493	0.000867	0.415220
O30	O	-0.251160	0.334200	0.748553
C31	C	-0.929341	-0.030515	0.000115
C32	C	-0.596008	0.302819	0.333448
C33	C	-0.262674	0.636152	0.666781
C34	C	-0.927655	0.071996	0.000115
C35	C	-0.594322	0.405329	0.333448
C36	C	-0.260989	0.738662	0.666782
C37	C	-0.780917	-0.194212	0.000087
C38	C	-0.447584	0.139122	0.333420
C39	C	-0.114251	0.472455	0.666753
C40	C	-0.694110	-0.185582	0.000076
C41	C	-0.360777	0.147752	0.333409
C42	C	-0.027444	0.481085	0.666743
C43	C	-1.066819	-0.203177	0.000121
C44	C	-0.733486	0.130156	0.333454
C45	C	-0.400152	0.463490	0.666787
C46	C	-1.153626	-0.211807	0.000125
C47	C	-0.820293	0.121526	0.333458
C48	C	-0.486959	0.454860	0.666792
C49	C	-0.644125	-0.264814	0.000071
C50	C	-0.310791	0.068519	0.333404
C51	C	0.022542	0.401852	0.666738
C52	C	-0.562561	-0.256700	0.000085
C53	C	-0.229228	0.076633	0.333419
C54	C	0.104106	0.409967	0.666752
C55	C	-0.530985	-0.169352	0.000097
C56	C	-0.197651	0.163981	0.333431
C57	C	0.135682	0.497314	0.666764
C58	C	-0.580977	-0.090114	0.000105
C59	C	-0.247644	0.243220	0.333439
C60	C	0.085690	0.576553	0.666772
C61	C	-0.662539	-0.098229	0.000098
C62	C	-0.329206	0.235105	0.333431
C63	C	0.004128	0.568438	0.666765
C64	C	-0.285180	-0.140683	0.000126
C65	C	0.048153	0.192650	0.333459
C66	C	0.381486	0.525983	0.666792
C67	C	-0.203612	-0.132574	0.000130
C68	C	0.129722	0.200759	0.333463
C69	C	0.463055	0.534093	0.666797
C70	C	-0.185201	-0.299161	0.000112
C71	C	0.148132	0.034172	0.333445
C72	C	0.481465	0.367505	0.666778
C73	C	-0.266766	-0.307269	0.000099
C74	C	0.066567	0.026065	0.333432
C75	C	0.399901	0.359398	0.666765
C76	C	-0.316751	-0.228030	0.000112
C77	C	0.016582	0.105303	0.333445
C78	C	0.349916	0.438637	0.666778
C79	C	-0.447614	-0.161056	0.000109
C80	C	-0.114280	0.172277	0.333442
C81	C	0.219053	0.505610	0.666775
C82	C	-0.400120	-0.236327	0.000107
C83	C	-0.066787	0.097006	0.333441
C84	C	0.266546	0.430340	0.666774
C85	C	-0.918395	-0.366874	0.000093
C86	C	-0.585062	-0.033540	0.333426
C87	C	-0.251729	0.299793	0.666760
C88	C	-0.920081	-0.469384	0.000086
C89	C	-0.586748	-0.136051	0.333419
C90	C	-0.253414	0.197283	0.666753
N91	N	-0.923855	-0.198681	0.254960
N92	N	-0.590522	0.134652	0.588294
N93	N	-0.257189	0.467986	0.921627
C94	C	-0.921449	0.447366	0.000089
C95	C	-0.588116	0.780699	0.333422
C96	C	-0.254783	1.114033	0.666755
C97	C	-0.923173	0.342926	0.000096
C98	C	-0.589839	0.676260	0.333429
C99	C	-0.256506	1.009593	0.666763
C100	C	-0.924552	0.259684	0.000103
C101	C	-0.591219	0.593017	0.333436
C102	C	-0.257885	0.926351	0.666769
C103	C	-0.926276	0.155238	0.000108
C104	C	-0.592943	0.488571	0.333442
C105	C	-0.259609	0.821904	0.666775
N106	N	-0.923887	-0.198701	-0.254751
N107	N	-0.590554	0.134633	0.078583
N108	N	-0.257221	0.467966	0.411916
C109	C	-0.923875	-0.198701	0.656251
C110	C	-0.590542	0.134633	0.989585
C111	C	-0.257208	0.467966	1.322918
C112	C	-0.923867	-0.198698	0.544600
C113	C	-0.590534	0.134635	0.877933
C114	C	-0.257201	0.467969	1.211267
C115	C	-0.923866	-0.198692	0.455609
C116	C	-0.590532	0.134642	0.788943
C117	C	-0.257199	0.467975	1.122276
C118	C	-0.923857	-0.198688	0.343951
C119	C	-0.590524	0.134646	0.677284
C120	C	-0.257190	0.467979	1.010618
H121	H	-0.669827	-0.335942	0.000061
H122	H	-0.336494	-0.002609	0.333394
H123	H	-0.003161	0.330725	0.666727
H124	H	-0.292469	-0.378396	0.000078
H125	H	0.040864	-0.045063	0.333411
H126	H	0.374198	0.288270	0.666744
C127	C	-0.717527	-0.011076	0.000102
C128	C	-0.384193	0.322257	0.333436
C129	C	-0.050860	0.655591	0.666769
H130	H	-0.770624	-0.028418	0.000107
H131	H	-0.437291	0.304915	0.333440
H132	H	-0.103957	0.638249	0.666773
H133	H	-0.707942	0.024479	-0.056936
H134	H	-0.374609	0.357812	0.276397
H135	H	-0.041276	0.691146	0.609730
H136	H	-0.707944	0.024475	0.057161
H137	H	-0.374611	0.357808	0.390494
H138	H	-0.041278	0.691141	0.723827
C139	C	-0.507580	-0.343856	0.000077
C140	C	-0.174247	-0.010523	0.333410
C141	C	0.159087	0.322810	0.666743
H142	H	-0.538067	-0.397039	0.000056
H143	H	-0.204734	-0.063706	0.333389
H144	H	0.128600	0.269628	0.666723
H145	H	-0.475384	-0.344156	0.057125
H146	H	-0.142050	-0.010823	0.390458
H147	H	0.191283	0.322510	0.723792
H148	H	-0.475376	-0.344152	-0.056972
H149	H	-0.142043	-0.010819	0.276361
H150	H	0.191290	0.322515	0.609694
C151	C	-0.130221	-0.386318	0.000102
C152	C	0.203112	-0.052985	0.333436
C153	C	0.536446	0.280349	0.666769
H154	H	-0.160709	-0.439500	0.000087
H155	H	0.172625	-0.106167	0.333420
H156	H	0.505958	0.227166	0.666754
H157	H	-0.098022	-0.386617	0.057148
H158	H	0.235312	-0.053283	0.390481
H159	H	0.568645	0.280050	0.723815
H160	H	-0.098021	-0.386616	-0.056949
H161	H	0.235313	-0.053283	0.276384
H162	H	0.568646	0.280050	0.609717
H163	H	-0.425833	-0.307445	0.000103
H164	H	-0.092500	0.025888	0.333436
H165	H	0.240833	0.359221	0.666770
H166	H	-0.177906	-0.061442	0.000139
H167	H	0.155427	0.271892	0.333472
H168	H	0.488761	0.605225	0.666805
C169	C	-0.340153	-0.053524	0.000133
C170	C	-0.006820	0.279809	0.333467
C171	C	0.326513	0.613143	0.666800
H172	H	-0.309664	-0.000343	0.000131
H173	H	0.023670	0.332990	0.333464
H174	H	0.357003	0.666323	0.666798
H175	H	-0.372356	-0.053221	0.057177
H176	H	-0.039022	0.280112	0.390510
H177	H	0.294311	0.613445	0.723843
H178	H	-0.372351	-0.053226	-0.056920
H179	H	-0.039017	0.280107	0.276413
H180	H	0.294316	0.613440	0.609746
H181	H	-0.555261	-0.018993	0.000129
H182	H	-0.221928	0.314340	0.333462
H183	H	0.111406	0.647674	0.666796
H184	H	-0.421895	-0.089937	0.000146
H185	H	-0.088562	0.243396	0.333480
H186	H	0.244772	0.576729	0.666813
