data_functionalizedCrystal
_audit_creation_method	'MofGen! by Chris Wilmer'
_symmetry_space_group_name_H-M	'P1'
_symmetry_Int_Tables_number	1
_symmetry_cell_setting	triclinic
loop_
_symmetry_equiv_pos_as_xyz
  x,y,z
_cell_length_a	17.639178
_cell_length_b	13.897447
_cell_length_c	17.640968
_cell_angle_alpha	78.773045
_cell_angle_beta	114.320204
_cell_angle_gamma	101.187848
loop_
_atom_site_label
_atom_site_type_symbol
_atom_site_fract_x
_atom_site_fract_y
_atom_site_fract_z
Zn1	Zn	1.354104	0.540145	0.720668
Zn2	Zn	1.326146	0.728568	0.582846
Zn3	Zn	1.188429	0.540193	0.555013
Zn4	Zn	1.216258	0.674287	0.692775
O5	O	1.271234	0.620798	0.637826
O6	O	1.465719	0.587837	0.725708
O7	O	1.284530	0.726317	0.463821
O8	O	1.210461	0.405213	0.577012
O9	O	1.445178	0.726270	0.624451
O10	O	1.332181	0.405177	0.698718
O11	O	1.183351	0.587919	0.443372
O12	O	1.076797	0.535284	0.549965
O13	O	1.257890	0.633756	0.811808
O14	O	1.097242	0.633802	0.651179
O15	O	1.359165	0.535202	0.832301
O16	O	1.311514	0.856342	0.597404
O17	O	1.230780	0.816462	0.678168
C18	C	1.057118	0.578659	0.594526
C19	C	0.965521	0.560651	0.576021
C20	C	1.271159	0.871400	0.637802
C21	C	1.271208	0.978618	0.637835
C22	C	1.486187	0.663103	0.681295
C23	C	1.577787	0.681131	0.699819
C24	C	1.314751	0.578419	0.852796
C25	C	1.333295	0.560359	0.944403
C26	C	1.717538	0.757829	0.778619
C27	C	1.631465	0.740883	0.761207
C28	C	1.610168	0.638305	0.655816
C29	C	1.696240	0.655246	0.673217
C30	C	1.749919	0.715009	0.734620
C31	C	1.728622	0.612425	0.629217
C32	C	1.814688	0.629362	0.646619
C33	C	1.868372	0.689119	0.708021
C34	C	1.835985	0.731945	0.752022
C35	C	1.674942	0.552658	0.567818
C36	C	1.707323	0.509837	0.523819
C37	C	1.793390	0.526779	0.541217
C38	C	1.847074	0.586536	0.602619
C39	C	1.825777	0.483952	0.497216
C40	C	1.911842	0.500889	0.514618
C41	C	1.933140	0.603472	0.620021
C42	C	1.271250	1.065691	0.637865
C43	C	1.271311	1.174929	0.637902
C44	C	1.271331	1.369216	0.637881
C45	C	1.271362	1.261998	0.637928
C46	C	1.227934	0.662953	0.423702
C47	C	1.209550	0.680773	0.332127
C48	C	1.130673	0.757534	1.192347
C49	C	1.148115	0.740555	1.278429
C50	C	1.253564	0.637941	1.299756
C51	C	1.236128	0.654907	1.213673
C52	C	1.174682	0.714705	1.159975
C53	C	1.280137	0.612078	1.181301
C54	C	1.262704	0.629047	1.095226
C55	C	1.201263	0.688845	1.041523
C56	C	1.157250	0.731675	1.073900
C57	C	1.341586	0.552285	1.235002
C58	C	1.385595	0.509457	1.202630
C59	C	1.368159	0.526420	1.116553
C60	C	1.306718	0.586218	1.062850
C61	C	1.412173	0.483591	1.084176
C62	C	1.394741	0.500560	0.998101
C63	C	1.289286	0.603188	0.976775
H64	H	1.976849	0.652142	0.670017
N65	N	1.552261	0.573866	0.589582
H66	H	1.569845	0.505369	0.605407
H67	H	1.492847	0.569723	0.585267
H68	H	1.355779	0.538474	1.305089
N69	N	1.596540	0.787086	0.808660
H70	H	1.533872	0.767291	0.788320
H71	H	1.623505	0.763429	0.870567
N72	N	1.064394	0.822026	1.134423
H73	H	1.080197	0.890509	1.151975
H74	H	1.060062	0.826196	1.075004
H75	H	1.430576	0.465683	0.971744
H76	H	1.112273	0.775436	1.304781
N77	N	1.319837	0.573449	1.357675
H78	H	1.324205	0.569198	1.417116
H79	H	1.303986	0.505005	1.340048
H80	H	1.782060	0.435287	0.447227
N81	N	1.582114	0.534398	0.549051
H82	H	1.549929	0.559191	0.488317
H83	H	1.564546	0.461159	0.560073
H84	H	1.462207	0.434911	1.127911
N85	N	1.961203	0.707395	0.726801
H86	H	1.985030	0.642323	0.746153
H87	H	1.970415	0.740386	0.674428
N88	N	1.893890	0.796414	0.818241
H89	H	1.860318	0.820979	0.843474
H90	H	1.937336	0.756660	0.863609
H91	H	1.435627	0.460772	1.246363
N92	N	1.649417	0.445405	0.457579
H93	H	1.620494	0.387072	0.483844
H94	H	1.606020	0.485207	0.412193
N95	N	1.775442	0.822299	0.844838
H96	H	1.741871	0.846864	0.870071
H97	H	1.818889	0.782545	0.890207
H98	H	1.938208	0.466011	0.478795
N99	N	1.223007	0.667679	0.918851
H100	H	1.238810	0.736162	0.936403
H101	H	1.218675	0.671849	0.859432
N102	N	1.182455	0.707118	0.948684
H103	H	1.121730	0.682339	0.916538
H104	H	1.193421	0.780357	0.931052
N105	N	1.090971	0.796166	1.015976
H106	H	1.106774	0.864649	1.033529
H107	H	1.086639	0.800336	0.956557
