data_functionalizedCrystal
_audit_creation_method	'MofGen! by Chris Wilmer'
_symmetry_space_group_name_H-M	'P1'
_symmetry_Int_Tables_number	1
_symmetry_cell_setting	triclinic
loop_
_symmetry_equiv_pos_as_xyz
  x,y,z
_cell_length_a	15.995350
_cell_length_b	14.971486
_cell_length_c	13.448316
_cell_angle_alpha	89.996136
_cell_angle_beta	89.998570
_cell_angle_gamma	83.553252
loop_
_atom_site_label
_atom_site_type_symbol
_atom_site_fract_x
_atom_site_fract_y
_atom_site_fract_z
O1	O	-1.111102	-0.115292	0.082608
O2	O	-0.611102	0.384708	0.582608
O3	O	-0.867341	-0.129529	0.082629
O4	O	-0.367341	0.370471	0.582629
O5	O	-0.995755	0.007797	0.082611
O6	O	-0.495755	0.507797	0.582611
O7	O	-0.982688	-0.252618	0.082626
O8	O	-0.482688	0.247382	0.582626
O9	O	-0.995742	0.007798	-0.082773
O10	O	-0.495742	0.507798	0.417227
O11	O	-0.867328	-0.129528	-0.082755
O12	O	-0.367328	0.370472	0.417245
O13	O	-1.111089	-0.115291	-0.082776
O14	O	-0.611089	0.384709	0.417224
Cu15	Cu	-0.989207	-0.122409	-0.097866
Cu16	Cu	-0.489207	0.377591	0.402134
Cu17	Cu	-0.989222	-0.122411	0.097719
Cu18	Cu	-0.489222	0.377589	0.597719
O19	O	-0.982675	-0.252617	-0.082758
O20	O	-0.482675	0.247383	0.417242
C21	C	-0.836139	-0.128940	-0.000061
C22	C	-0.336139	0.371060	0.499939
C23	C	-0.743187	-0.127175	-0.000053
C24	C	-0.243187	0.372825	0.499947
C25	C	-0.995164	0.041122	-0.000081
C26	C	-0.495164	0.541122	0.499919
C27	C	-0.993413	0.140417	-0.000080
C28	C	-0.493413	0.640417	0.499920
C29	C	-1.142291	-0.115880	-0.000084
C30	C	-0.642291	0.384120	0.499916
C31	C	-1.235243	-0.117645	-0.000085
C32	C	-0.735243	0.382355	0.499915
C33	C	-0.405433	-0.120838	-0.000074
C34	C	0.094567	0.379162	0.499926
C35	C	-0.452769	-0.023037	-0.000449
C36	C	0.047231	0.476963	0.499551
C37	C	-0.549461	-0.024802	-0.000069
C38	C	-0.049461	0.475198	0.499931
C39	C	-0.572997	-0.123982	-0.000064
C40	C	-0.072997	0.376018	0.499936
C41	C	-0.531965	-0.172221	0.094377
C42	C	-0.031965	0.327779	0.594377
C43	C	-0.435327	-0.169764	0.094449
C44	C	0.064673	0.330236	0.594449
C45	C	-0.434976	-0.171784	-0.093623
C46	C	0.065024	0.328216	0.406377
C47	C	-0.531921	-0.171760	-0.094865
C48	C	-0.031921	0.328240	0.405135
C49	C	-0.667696	-0.125763	-0.000055
C50	C	-0.167696	0.374237	0.499945
C51	C	-0.310733	-0.119060	-0.000076
C52	C	0.189267	0.380940	0.499924
C53	C	-0.983266	-0.285942	-0.000064
C54	C	-0.483266	0.214058	0.499936
C55	C	-0.985017	-0.385237	-0.000059
C56	C	-0.485017	0.114763	0.499941
N57	N	-0.989203	-0.122408	-0.235431
N58	N	-0.489203	0.377592	0.264569
C59	C	-1.068852	0.197728	-0.000087
C60	C	-0.568852	0.697728	0.499913
C61	C	-1.067202	0.291026	-0.000077
C62	C	-0.567202	0.791026	0.499923
C63	C	-0.990111	0.327010	-0.000067
C64	C	-0.490111	0.827010	0.499933
C65	C	-0.914666	0.269691	-0.000057
C66	C	-0.414666	0.769691	0.499943
C67	C	-0.916317	0.176395	-0.000060
C68	C	-0.416317	0.676395	0.499940
C69	C	-0.911229	0.464150	-0.000053
C70	C	-0.411229	0.964150	0.499947
C71	C	-0.909577	0.557452	-0.000052
C72	C	-0.409577	1.057452	0.499948
C73	C	-1.062114	0.578780	-0.000070
C74	C	-0.562114	1.078780	0.499930
C75	C	-1.063766	0.485484	-0.000073
C76	C	-0.563766	0.985484	0.499927
C77	C	-0.988320	0.428172	-0.000065
C78	C	-0.488320	0.928172	0.499935
C79	C	-1.040035	-0.176691	-0.287468
C80	C	-0.540035	0.323309	0.212532
C81	C	-1.040046	-0.176687	-0.391571
C82	C	-0.540046	0.323313	0.108429
C83	C	-0.989219	-0.122404	-0.443635
C84	C	-0.489219	0.377596	0.056365
C85	C	-0.938384	-0.068115	-0.391591
C86	C	-0.438384	0.431885	0.108409
C87	C	-0.938379	-0.068115	-0.287489
C88	C	-0.438379	0.431885	0.212511
C89	C	-0.938397	-0.068121	-0.608571
C90	C	-0.438397	0.431879	-0.108571
C91	C	-0.938401	-0.068122	-0.712679
C92	C	-0.438401	0.431878	-0.212679
C93	C	-1.040064	-0.176693	-0.712652
C94	C	-0.540064	0.323307	-0.212652
C95	C	-1.040059	-0.176693	-0.608551
C96	C	-0.540059	0.323307	-0.108551
C97	C	-0.989223	-0.122405	-0.556514
C98	C	-0.489223	0.377595	-0.056514
N99	N	-0.989234	-0.122405	0.235283
N100	N	-0.489234	0.377595	0.735283
H101	H	-0.434203	0.016057	-0.068177
H102	H	0.065797	0.516057	0.431823
C103	C	-0.570248	-0.126959	0.189324
C104	C	-0.070248	0.373041	0.689324
H105	H	-0.611225	-0.078671	0.171613
H106	H	-0.111225	0.421329	0.671613
H107	H	-0.596028	-0.169679	0.227537
H108	H	-0.096028	0.330321	0.727537
H109	H	-0.527103	-0.104583	0.227389
H110	H	-0.027103	0.395417	0.727389
H111	H	-0.854886	0.129732	-0.000054
H112	H	-0.354886	0.629732	0.499946
H113	H	-1.131629	0.168438	-0.000101
H114	H	-0.631629	0.668438	0.499899
C115	C	-1.095967	-0.236403	-0.551282
C116	C	-0.595967	0.263597	-0.051282
H117	H	-1.126249	-0.268729	-0.597181
H118	H	-0.626249	0.231271	-0.097181
H119	H	-1.061693	-0.277544	-0.510670
H120	H	-0.561693	0.222456	-0.010670
H121	H	-1.134465	-0.199764	-0.510673
H122	H	-0.634465	0.300236	-0.010673
H123	H	-1.126540	0.456189	-0.000088
H124	H	-0.626540	0.956189	0.499912
H125	H	-0.414403	-0.139810	-0.165207
H126	H	0.085597	0.360190	0.334793
C127	C	-1.095950	-0.236398	-0.230206
C128	C	-0.595950	0.263602	0.269794
H129	H	-1.126232	-0.268719	-0.276111
H130	H	-0.626232	0.231281	0.223889
H131	H	-1.061683	-0.277544	-0.189593
H132	H	-0.561683	0.222456	0.310407
H133	H	-1.134449	-0.199758	-0.189600
H134	H	-0.634449	0.300242	0.310400
C135	C	-0.882475	-0.008409	-0.551332
C136	C	-0.382475	0.491591	-0.051332
H137	H	-0.852198	0.023913	-0.597247
H138	H	-0.352198	0.523913	-0.097247
H139	H	-0.916740	0.032736	-0.510718
H140	H	-0.416740	0.532736	-0.010718
H141	H	-0.843973	-0.045049	-0.510727
H142	H	-0.343973	0.454951	-0.010727
H143	H	-0.897004	-0.023912	-0.433990
H144	H	-0.397004	0.476088	0.066010
H145	H	-0.896985	-0.023912	-0.245122
H146	H	-0.396985	0.476088	0.254878
C147	C	-0.392169	-0.269193	-0.094492
C148	C	0.107831	0.230807	0.405508
H149	H	-0.410272	-0.299638	-0.151184
H150	H	0.089728	0.200362	0.348816
H151	H	-0.332852	-0.268855	-0.096922
H152	H	0.167148	0.231145	0.403078
H153	H	-0.406986	-0.299187	-0.035902
H154	H	0.093014	0.200813	0.464098
C155	C	-1.150186	0.354065	-0.000095
C156	C	-0.650186	0.854065	0.499905
H157	H	-1.196334	0.319272	-0.000116
H158	H	-0.696334	0.819272	0.499884
H159	H	-1.152725	0.390900	0.057578
H160	H	-0.652725	0.890900	0.557578
H161	H	-1.152701	0.390904	-0.057775
H162	H	-0.652701	0.890904	0.442225
H163	H	-1.081453	-0.220900	-0.755026
H164	H	-0.581453	0.279100	-0.255026
C165	C	-0.551149	-0.270652	0.099138
C166	C	-0.051149	0.229348	0.599138
H167	H	-0.584436	-0.283231	0.043440
H168	H	-0.084436	0.216769	0.543440
H169	H	-0.499901	-0.309436	0.098261
H170	H	0.000099	0.190564	0.598261
H171	H	-0.580964	-0.280008	0.158647
H172	H	-0.080964	0.219992	0.658647
C173	C	-0.587055	0.026756	0.091545
C174	C	-0.087055	0.526756	0.591545
H175	H	-0.543223	0.048856	0.128681
H176	H	-0.043223	0.548856	0.628681
H177	H	-0.625977	0.075706	0.070488
H178	H	-0.125977	0.575706	0.570488
H179	H	-0.615147	-0.012495	0.132002
H180	H	-0.115147	0.487505	0.632002
H181	H	-0.897012	-0.023921	-0.755067
H182	H	-0.397012	0.476079	-0.255067
C183	C	-0.587812	0.026422	-0.091522
C184	C	-0.087812	0.526422	0.408478
H185	H	-0.544303	0.048505	-0.129239
H186	H	-0.044303	0.548505	0.370761
H187	H	-0.616139	-0.012999	-0.131472
H188	H	-0.116139	0.487001	0.368528
H189	H	-0.626645	0.075379	-0.070273
H190	H	-0.126645	0.575379	0.429727
C191	C	-0.426254	0.029538	0.090527
C192	C	0.073746	0.529538	0.590527
H193	H	-0.386463	-0.007857	0.128739
H194	H	0.113537	0.492143	0.628739
H195	H	-0.401658	0.081025	0.068806
H196	H	0.098342	0.581025	0.568806
H197	H	-0.474285	0.047865	0.130174
H198	H	0.025715	0.547865	0.630174
H199	H	-1.123545	0.625449	-0.000073
H200	H	-0.623545	1.125449	0.499927
C201	C	-0.568760	-0.124189	-0.189252
C202	C	-0.068760	0.375811	0.310748
H203	H	-0.609009	-0.075416	-0.170972
H204	H	-0.109009	0.424584	0.329028
H205	H	-0.524841	-0.102218	-0.226343
H206	H	-0.024841	0.397782	0.273657
H207	H	-0.595178	-0.165588	-0.228663
H208	H	-0.095178	0.334412	0.271337
H209	H	-0.416989	-0.134587	0.165042
H210	H	0.083011	0.365413	0.665042
H211	H	-0.846803	0.586747	-0.000059
H212	H	-0.346803	1.086747	0.499941
H213	H	-0.849793	0.417488	-0.000043
H214	H	-0.349793	0.917488	0.499957
H215	H	-0.403151	-0.241568	0.098738
H216	H	0.096849	0.258432	0.598738
H217	H	-0.547358	-0.244085	-0.100565
H218	H	-0.047358	0.255915	0.399435
C219	C	-0.829865	0.309267	-0.000038
C220	C	-0.329865	0.809267	0.499962
H221	H	-0.785172	0.261770	-0.000023
H222	H	-0.285172	0.761770	0.499977
H223	H	-0.826040	0.345224	-0.057707
H224	H	-0.326040	0.845224	0.442293
H225	H	-0.826060	0.345212	0.057646
H226	H	-0.326060	0.845212	0.557646
H227	H	-1.081440	-0.220888	-0.433935
H228	H	-0.581440	0.279112	0.066065
