data_functionalizedCrystal
_audit_creation_method	'MofGen! by Chris Wilmer'
_symmetry_space_group_name_H-M	'P1'
_symmetry_Int_Tables_number	1
_symmetry_cell_setting	triclinic
loop_
_symmetry_equiv_pos_as_xyz
  x,y,z
_cell_length_a	13.339070
_cell_length_b	13.339070
_cell_length_c	12.376457
_cell_angle_alpha	104.398083
_cell_angle_beta	75.589755
_cell_angle_gamma	115.629294
loop_
_atom_site_label
_atom_site_type_symbol
_atom_site_fract_x
_atom_site_fract_y
_atom_site_fract_z
O1	O	1.511964	0.535384	-0.094035
O2	O	1.197153	0.463125	-0.094030
O3	O	1.318428	0.341851	-0.094029
O4	O	1.390689	0.656659	-0.094037
O5	O	1.288108	0.372116	0.093983
O6	O	1.166834	0.493391	0.093982
O7	O	1.481644	0.565650	0.093976
Zn8	Zn	1.319425	0.534326	0.123830
Zn9	Zn	1.359372	0.494450	-0.123884
O10	O	1.360369	0.686924	0.093975
C11	C	1.140878	0.466052	-0.000024
C12	C	1.018364	0.429669	-0.000022
C13	C	0.732980	0.712564	-0.000047
C14	C	0.848090	0.746750	-0.000052
C15	C	0.890664	0.667483	-0.000044
C16	C	0.818117	0.554023	-0.000031
C17	C	0.702998	0.519831	-0.000035
C18	C	0.860682	0.474751	-0.000032
C19	C	0.788135	0.361291	-0.000020
C20	C	0.673027	0.327105	-0.000022
C21	C	0.630453	0.406372	-0.000030
C22	C	0.975801	0.508942	-0.000029
C23	C	0.945819	0.316210	-0.000017
C24	C	0.830709	0.282023	-0.000012
C25	C	1.291062	0.315868	-0.000024
C26	C	1.254679	0.193353	-0.000028
C27	C	1.537579	-0.092035	-0.000032
C28	C	1.571765	0.023075	-0.000022
C29	C	1.492496	0.065651	-0.000024
C30	C	1.379036	-0.006896	-0.000035
C31	C	1.344845	-0.122016	-0.000037
C32	C	1.299763	0.035669	-0.000028
C33	C	1.186303	-0.036877	-0.000040
C34	C	1.152118	-0.151986	-0.000042
C35	C	1.231386	-0.194561	-0.000040
C36	C	1.333954	0.150790	-0.000027
C37	C	1.141220	0.120808	-0.000031
C38	C	1.107034	0.005698	-0.000042
C39	C	1.537920	0.562723	-0.000033
C40	C	1.660435	0.599105	-0.000042
C41	C	1.387736	0.712907	-0.000032
C42	C	1.424120	0.835420	-0.000035
N43	N	1.292170	0.561541	0.292888
N44	N	1.386634	0.467227	-0.292942
C45	C	1.449896	0.404029	0.647875
C46	C	1.468966	0.384979	0.529535
C47	C	1.424768	0.429117	0.470367
C48	C	1.361498	0.492310	0.529551
C49	C	1.342434	0.511370	0.647902
C50	C	1.317306	0.536458	0.470395
C51	C	1.254035	0.599651	0.529579
C52	C	1.234974	0.618707	0.647918
C53	C	1.279171	0.574568	0.707086
C54	C	1.336370	0.517399	0.352044
C55	C	1.228907	0.624740	0.352071
C56	C	1.209837	0.643790	0.470411
H57	H	0.771627	0.189640	-0.000011
N58	N	1.694136	0.101302	-0.000028
H59	H	1.723856	0.138512	-0.069724
H60	H	1.701298	0.160884	0.069714
H61	H	0.984393	0.695324	-0.000051
H62	H	1.387885	0.465947	0.303867
H63	H	0.907151	0.839128	-0.000071
H64	H	1.014653	-0.053385	-0.000050
N65	N	1.054034	0.631311	-0.000026
H66	H	1.133419	0.640949	-0.000022
H67	H	1.051699	0.656195	-0.069726
N68	N	0.687065	0.798048	-0.000069
H69	H	0.603135	0.759168	-0.000074
H70	H	0.702483	0.857329	0.069625
N71	N	1.623054	-0.137963	-0.000015
H72	H	1.624406	-0.196276	-0.069708
H73	H	1.700075	-0.074480	0.000033
H74	H	1.440298	0.413604	0.374010
H75	H	1.076672	0.155473	-0.000027
N76	N	0.506290	0.369500	0.000003
H77	H	0.490332	0.436937	0.000010
H78	H	0.483977	0.312185	-0.069687
H79	H	1.520481	0.333529	0.481352
N80	N	1.497575	0.356440	0.711688
H81	H	1.475899	0.378108	0.795638
H82	H	1.466363	0.271639	0.691017
N83	N	1.258601	0.595117	0.834727
H84	H	1.296197	0.557561	0.863223
H85	H	1.290915	0.678825	0.863138
H86	H	0.613963	0.234717	-0.000025
N87	N	0.991723	0.230702	-0.000015
H88	H	1.075653	0.269578	-0.000011
H89	H	0.953814	0.193863	0.069684
H90	H	1.183466	0.670173	0.696106
H91	H	1.426333	0.209846	-0.000018
N92	N	1.529374	0.189803	-0.000029
H93	H	1.511020	0.200423	-0.069731
H94	H	1.488521	0.222793	0.069707
H95	H	1.203558	-0.288293	-0.000052
H96	H	1.059730	-0.211050	-0.000042
H97	H	1.158322	0.695244	0.518613
N98	N	1.181236	0.672358	0.288271
H99	H	1.202910	0.650693	0.204320
H100	H	1.096430	0.641096	0.308973
