data_functionalizedCrystal
_audit_creation_method	'MofGen! by Chris Wilmer'
_symmetry_space_group_name_H-M	'P1'
_symmetry_Int_Tables_number	1
_symmetry_cell_setting	triclinic
loop_
_symmetry_equiv_pos_as_xyz
  x,y,z
_cell_length_a	18.050589
_cell_length_b	11.169417
_cell_length_c	11.169409
_cell_angle_alpha	89.978351
_cell_angle_beta	90.032850
_cell_angle_gamma	89.973557
loop_
_atom_site_label
_atom_site_type_symbol
_atom_site_fract_x
_atom_site_fract_y
_atom_site_fract_z
Zn1	Zn	-0.295635	-1.834813	0.678597
Zn2	Zn	-0.045635	-1.584813	0.928597
Zn3	Zn	0.204365	-1.334813	1.178597
Zn4	Zn	0.454365	-1.084813	1.428597
Zn5	Zn	-0.419850	-1.834640	0.477912
Zn6	Zn	-0.169850	-1.584640	0.727912
Zn7	Zn	0.080150	-1.334640	0.977912
Zn8	Zn	0.330150	-1.084640	1.227912
Zn9	Zn	-0.295674	-1.634099	0.477925
Zn10	Zn	-0.045674	-1.384099	0.727925
Zn11	Zn	0.204326	-1.134099	0.977925
Zn12	Zn	0.454326	-0.884099	1.227925
Zn13	Zn	-0.419783	-1.634044	0.678550
Zn14	Zn	-0.169783	-1.384044	0.928550
Zn15	Zn	0.080217	-1.134044	1.178550
Zn16	Zn	0.330217	-0.884044	1.428550
O17	O	-0.357735	-1.734399	0.578246
O18	O	-0.107735	-1.484399	0.828246
O19	O	0.142265	-1.234399	1.078246
O20	O	0.392265	-0.984399	1.328246
O21	O	-0.312123	-2.002740	0.651990
O22	O	-0.062123	-1.752740	0.901990
O23	O	0.187877	-1.502740	1.151990
O24	O	0.437877	-1.252740	1.401990
O25	O	-0.403422	-1.807988	0.309964
O26	O	-0.153422	-1.557988	0.559964
O27	O	0.096578	-1.307988	0.809964
O28	O	0.346578	-1.057988	1.059964
O29	O	-0.191744	-1.660820	0.504569
O30	O	0.058256	-1.410820	0.754569
O31	O	0.308256	-1.160820	1.004569
O32	O	0.558256	-0.910820	1.254569
O33	O	-0.403383	-2.002613	0.504547
O34	O	-0.153383	-1.752613	0.754547
O35	O	0.096617	-1.502613	1.004547
O36	O	0.346617	-1.252613	1.254547
O37	O	-0.191715	-1.808284	0.652002
O38	O	0.058285	-1.558284	0.902002
O39	O	0.308285	-1.308284	1.152002
O40	O	0.558285	-1.058284	1.402002
O41	O	-0.312190	-1.660652	0.309973
O42	O	-0.062190	-1.410652	0.559973
O43	O	0.187810	-1.160652	0.809973
O44	O	0.437810	-0.910652	1.059973
O45	O	-0.312126	-1.466142	0.504524
O46	O	-0.062126	-1.216142	0.754524
O47	O	0.187874	-0.966142	1.004524
O48	O	0.437874	-0.716142	1.254524
O49	O	-0.403271	-1.660726	0.846506
O50	O	-0.153271	-1.410726	1.096506
O51	O	0.096729	-1.160726	1.346506
O52	O	0.346729	-0.910726	1.596506
O53	O	-0.403309	-1.466102	0.651923
O54	O	-0.153309	-1.216102	0.901923
O55	O	0.096691	-0.966102	1.151923
O56	O	0.346691	-0.716102	1.401923
O57	O	-0.312059	-1.808230	0.846540
O58	O	-0.062059	-1.558230	1.096540
O59	O	0.187941	-1.308230	1.346540
O60	O	0.437941	-1.058230	1.596540
O61	O	-0.523765	-1.807935	0.504502
O62	O	-0.273765	-1.557935	0.754502
O63	O	-0.023765	-1.307935	1.004502
O64	O	0.226235	-1.057935	1.254502
O65	O	-0.523717	-1.660558	0.651910
O66	O	-0.273717	-1.410558	0.901910
O67	O	-0.023717	-1.160558	1.151910
O68	O	0.226283	-0.910558	1.401910
C69	C	-0.357715	-1.422574	0.578221
C70	C	-0.107715	-1.172574	0.828221
C71	C	0.142285	-0.922574	1.078221
C72	C	0.392285	-0.672574	1.328221
C73	C	-0.357724	-1.289174	0.578238
C74	C	-0.107724	-1.039174	0.828238
C75	C	0.142276	-0.789174	1.078238
C76	C	0.392276	-0.539174	1.328238
C77	C	-0.550688	-1.734254	0.578226
C78	C	-0.300688	-1.484254	0.828226
C79	C	-0.050688	-1.234254	1.078226
C80	C	0.199312	-0.984254	1.328226
C81	C	-0.633233	-1.734302	0.578258
C82	C	-0.383233	-1.484302	0.828258
C83	C	-0.133233	-1.234302	1.078258
C84	C	0.116767	-0.984302	1.328258
C85	C	-0.832684	-1.654237	0.658390
C86	C	-0.582684	-1.404237	0.908390
C87	C	-0.332684	-1.154237	1.158390
C88	C	-0.082684	-0.904237	1.408390
C89	C	-0.882135	-1.624974	0.548874
C90	C	-0.632135	-1.374974	0.798874
C91	C	-0.382135	-1.124974	1.048874
C92	C	-0.132135	-0.874974	1.298874
C93	C	-0.784364	-1.734420	0.578273
C94	C	-0.534364	-1.484420	0.828273
C95	C	-0.284364	-1.234420	1.078273
C96	C	-0.034364	-0.984420	1.328273
C97	C	-0.881995	-1.763742	0.687802
C98	C	-0.631995	-1.513742	0.937802
C99	C	-0.381995	-1.263742	1.187802
C100	C	-0.131995	-1.013742	1.437802
C101	C	-0.930349	-1.734532	0.578298
C102	C	-0.680349	-1.484532	0.828298
C103	C	-0.430349	-1.234532	1.078298
C104	C	-0.180349	-0.984532	1.328298
C105	C	-0.832727	-1.705099	0.468699
C106	C	-0.582727	-1.455099	0.718699
C107	C	-0.332727	-1.205099	0.968699
C108	C	-0.082727	-0.955099	1.218699
C109	C	-0.832582	-1.843918	0.607701
C110	C	-0.582582	-1.593918	0.857701
C111	C	-0.332582	-1.343918	1.107701
C112	C	-0.082582	-1.093918	1.357701
C113	C	-0.882011	-1.814697	0.498109
C114	C	-0.632011	-1.564697	0.748109
C115	C	-0.382011	-1.314697	0.998109
C116	C	-0.132011	-1.064697	1.248109
C117	C	-0.700265	-1.734353	0.578261
C118	C	-0.450265	-1.484353	0.828261
C119	C	-0.200265	-1.234353	1.078261
C120	C	0.049735	-0.984353	1.328261
C121	C	-1.014445	-1.734599	0.578298
C122	C	-0.764445	-1.484599	0.828298
C123	C	-0.514445	-1.234599	1.078298
C124	C	-0.264445	-0.984599	1.328298
C125	C	-0.164030	-1.734577	0.578292
C126	C	0.085970	-1.484577	0.828292
C127	C	0.335970	-1.234577	1.078292
C128	C	0.585970	-0.984577	1.328292
C129	C	-0.081484	-1.734653	0.578312
C130	C	0.168516	-1.484653	0.828312
C131	C	0.418516	-1.234653	1.078312
C132	C	0.668516	-0.984653	1.328312
C133	C	-0.357653	-1.734491	0.891289
C134	C	-0.107653	-1.484491	1.141289
C135	C	0.142347	-1.234491	1.391289
C136	C	0.392347	-0.984491	1.641289
C137	C	-0.357618	-1.734531	1.024689
C138	C	-0.107618	-1.484531	1.274689
C139	C	0.142382	-1.234531	1.524689
C140	C	0.392382	-0.984531	1.774689
C141	C	-0.357749	-1.047441	0.578264
C142	C	-0.107749	-0.797441	0.828264
C143	C	0.142251	-0.547441	1.078264
C144	C	0.392251	-0.297441	1.328264
C145	C	-0.357736	-1.180841	0.578251
C146	C	-0.107736	-0.930841	0.828251
C147	C	0.142264	-0.680841	1.078251
C148	C	0.392264	-0.430841	1.328251
C149	C	-0.357764	-1.734376	0.266421
C150	C	-0.107764	-1.484376	0.516421
C151	C	0.142236	-1.234376	0.766421
C152	C	0.392236	-0.984376	1.016421
C153	C	-0.357590	-1.734570	0.133022
C154	C	-0.107590	-1.484570	0.383022
C155	C	0.142410	-1.234570	0.633022
C156	C	0.392410	-0.984570	0.883022
H157	H	-0.811026	-1.586330	0.726047
H158	H	-0.561026	-1.336330	0.976047
H159	H	-0.311026	-1.086330	1.226047
H160	H	-0.061026	-0.836330	1.476047
F161	F	-0.910583	-1.504002	0.516342
F162	F	-0.660583	-1.254002	0.766342
F163	F	-0.410583	-1.004002	1.016342
F164	F	-0.160583	-0.754002	1.266342
H165	H	-0.903532	-1.882552	0.430289
H166	H	-0.653532	-1.632552	0.680289
H167	H	-0.403532	-1.382552	0.930289
H168	H	-0.153532	-1.132552	1.180289
H169	H	-0.810802	-1.936444	0.632621
H170	H	-0.560802	-1.686444	0.882621
H171	H	-0.310802	-1.436444	1.132621
H172	H	-0.060802	-1.186444	1.382621
H173	H	-0.811175	-1.680236	0.376056
H174	H	-0.561175	-1.430236	0.626056
H175	H	-0.311175	-1.180236	0.876056
H176	H	-0.061175	-0.930236	1.126056
F177	F	-0.910285	-1.796100	0.808857
F178	F	-0.660285	-1.546100	1.058857
F179	F	-0.410285	-1.296100	1.308857
F180	F	-0.160285	-1.046100	1.558857
