data_functionalizedCrystal
_audit_creation_method	'MofGen! by Chris Wilmer'
_symmetry_space_group_name_H-M	'P1'
_symmetry_Int_Tables_number	1
_symmetry_cell_setting	triclinic
loop_
_symmetry_equiv_pos_as_xyz
  x,y,z
_cell_length_a	14.908571
_cell_length_b	14.908178
_cell_length_c	14.908308
_cell_angle_alpha	89.778379
_cell_angle_beta	90.175053
_cell_angle_gamma	89.820760
loop_
_atom_site_label
_atom_site_type_symbol
_atom_site_fract_x
_atom_site_fract_y
_atom_site_fract_z
Zn1	Zn	1.319970	-0.467728	-0.559107
Zn2	Zn	1.819970	0.032272	-0.059107
Zn3	Zn	1.320875	-0.609493	-0.400117
Zn4	Zn	1.820875	-0.109493	0.099883
Zn5	Zn	1.179218	-0.450513	-0.401153
Zn6	Zn	1.679218	0.049487	0.098847
Zn7	Zn	1.161960	-0.608428	-0.541833
Zn8	Zn	1.661960	-0.108428	-0.041833
O9	O	1.245506	-0.534041	-0.475552
O10	O	1.745506	-0.034041	0.024448
O11	O	1.445502	-0.494184	-0.544812
O12	O	1.945502	0.005816	-0.044812
O13	O	1.309684	-0.581645	-0.274841
O14	O	1.809684	-0.081645	0.225159
O15	O	1.204733	-0.327380	-0.429768
O16	O	1.704733	0.172620	0.070232
O17	O	1.446167	-0.598338	-0.428003
O18	O	1.946167	-0.098338	0.071997
O19	O	1.308143	-0.340028	-0.545817
O20	O	1.808143	0.159972	-0.045817
O21	O	1.205610	-0.464843	-0.275602
O22	O	1.705610	0.035157	0.224398
O23	O	1.051517	-0.463811	-0.413019
O24	O	1.551517	0.036189	0.086981
O25	O	1.175320	-0.596523	-0.669538
O26	O	1.675320	-0.096523	-0.169538
O27	O	1.038838	-0.579830	-0.516376
O28	O	1.538838	-0.079830	-0.016376
O29	O	1.291409	-0.493151	-0.682229
O30	O	1.791409	0.006849	-0.182229
O31	O	1.292951	-0.734769	-0.411253
O32	O	1.792951	-0.234769	0.088747
O33	O	1.176197	-0.733987	-0.515371
O34	O	1.676197	-0.233987	-0.015371
C35	C	1.012659	-0.519838	-0.462936
C36	C	1.512659	-0.019838	0.037064
C37	C	0.913044	-0.513784	-0.457558
C38	C	1.413044	-0.013784	0.042442
C39	C	0.712702	-0.623390	-0.554915
C40	C	1.212702	-0.123390	-0.054915
C41	C	0.619104	-0.617705	-0.549865
C42	C	1.119104	-0.117705	-0.049865
C43	C	0.632249	-0.496726	-0.442415
C44	C	1.132249	0.003274	0.057585
C45	C	0.725847	-0.502411	-0.447465
C46	C	1.225847	-0.002411	0.052535
C47	C	0.766070	-0.565746	-0.503715
C48	C	1.266070	-0.065746	-0.003715
C49	C	0.859669	-0.571434	-0.508760
C50	C	1.359669	-0.071434	-0.008760
C51	C	0.872812	-0.450452	-0.401315
C52	C	1.372812	0.049548	0.098685
C53	C	0.779214	-0.444767	-0.396265
C54	C	1.279214	0.055233	0.103735
C55	C	1.232822	-0.766900	-0.461346
C56	C	1.732822	-0.266900	0.038654
C57	C	1.227476	-0.866524	-0.455303
C58	C	1.727476	-0.366524	0.044697
C59	C	1.325018	-1.066751	-0.564907
C60	C	1.825018	-0.566751	-0.064907
C61	C	1.319998	-1.160358	-0.559232
C62	C	1.819998	-0.660358	-0.059232
C63	C	1.212412	-1.147346	-0.438283
C64	C	1.712412	-0.647346	0.061717
C65	C	1.217432	-1.053739	-0.443958
C66	C	1.717432	-0.553739	0.056042
C67	C	1.273738	-1.013445	-0.507271
C68	C	1.773738	-0.513445	-0.007271
C69	C	1.278762	-0.919837	-0.512941
C70	C	1.778762	-0.419837	-0.012941
C71	C	1.171172	-0.906827	-0.391998
C72	C	1.671172	-0.406827	0.108002
C73	C	1.166152	-1.000433	-0.386323
C74	C	1.666152	-0.500433	0.113677
C75	C	1.479261	-0.548300	-0.488219
C76	C	1.979261	-0.048300	0.011781
C77	C	1.578874	-0.554376	-0.493616
C78	C	2.078874	-0.054376	0.006384
C79	C	1.231338	-0.546639	-0.709311
C80	C	1.731338	-0.046639	-0.209311
C81	C	1.225301	-0.552007	-0.808925
C82	C	1.725301	-0.052007	-0.308925
C83	C	1.258262	-0.300275	-0.489835
C84	C	1.758262	0.199725	0.010165
C85	C	1.263698	-0.200658	-0.495921
C86	C	1.763698	0.299342	0.004079
C87	C	1.334839	-0.454433	-1.009328
C88	C	1.834839	0.045567	-0.509328
C89	C	1.329169	-0.459475	-1.102924
C90	C	1.829169	0.040525	-0.602924
C91	C	1.208289	-0.567126	-1.089716
C92	C	1.708289	-0.067126	-0.589716
C93	C	1.213958	-0.562085	-0.996119
C94	C	1.713958	-0.062085	-0.496119
C95	C	1.277237	-0.505737	-0.955929
C96	C	1.777237	-0.005737	-0.455929
C97	C	1.282910	-0.500701	-0.862330
C98	C	1.782910	-0.000701	-0.362330
C99	C	1.162026	-0.608347	-0.849124
C100	C	1.662026	-0.108347	-0.349124
C101	C	1.156356	-0.613389	-0.942720
C102	C	1.656356	-0.113389	-0.442720
C103	C	1.259673	-0.521430	-0.242710
C104	C	1.759673	-0.021430	0.257290
C105	C	1.265897	-0.515820	-0.143122
C106	C	1.765897	-0.015820	0.356878
H107	H	0.599483	-0.445157	-0.396624
H108	H	1.099483	0.054843	0.103376
H109	H	1.115123	-0.650125	-0.805636
H110	H	1.615123	-0.150125	-0.305636
F111	F	1.140944	-0.627083	-1.132505
F112	F	1.640944	-0.127083	-0.632505
H113	H	1.334435	-0.454822	-0.829609
H114	H	1.834435	0.045178	-0.329609
F115	F	0.736396	-0.377362	-0.336406
F116	F	1.236396	0.122638	0.163594
F117	F	0.929617	-0.389105	-0.346814
F118	F	1.429617	0.110895	0.153186
H119	H	1.129419	-0.863414	-0.345064
H120	H	1.629419	-0.363414	0.154936
F121	F	0.562309	-0.679056	-0.604361
F122	F	1.062309	-0.179056	-0.104361
H123	H	1.386367	-0.408558	-0.976604
H124	H	1.886367	0.091442	-0.476604
F125	F	1.338690	-0.876955	-0.580321
F126	F	1.838690	-0.376955	-0.080321
H127	H	1.370871	-1.033943	-0.616453
H128	H	1.870871	-0.533943	-0.116453
H129	H	1.361750	-1.203756	-0.606169
H130	H	1.861750	-0.703756	-0.106169
F131	F	1.390477	-0.404869	-1.159752
F132	F	1.890477	0.095131	-0.659752
F133	F	1.152474	-1.190245	-0.370924
F134	F	1.652474	-0.690245	0.129076
H135	H	1.104835	-0.659263	-0.975457
H136	H	1.604835	-0.159263	-0.475457
F137	F	0.902476	-0.638842	-0.568623
F138	F	1.402476	-0.138842	-0.068623
F139	F	1.106225	-1.043327	-0.318950
F140	F	1.606225	-0.543327	0.181050
F141	F	0.755512	-0.690802	-0.614771
F142	F	1.255512	-0.190802	-0.114771
