data_functionalizedCrystal
_audit_creation_method	'MofGen! by Chris Wilmer'
_symmetry_space_group_name_H-M	'P1'
_symmetry_Int_Tables_number	1
_symmetry_cell_setting	triclinic
loop_
_symmetry_equiv_pos_as_xyz
  x,y,z
_cell_length_a	12.759400
_cell_length_b	16.959455
_cell_length_c	12.759393
_cell_angle_alpha	90.022525
_cell_angle_beta	89.970739
_cell_angle_gamma	89.991201
loop_
_atom_site_label
_atom_site_type_symbol
_atom_site_fract_x
_atom_site_fract_y
_atom_site_fract_z
Zn1	Zn	-0.418362	-1.208474	-0.594074
Zn2	Zn	-0.594078	-1.208394	-0.418397
Zn3	Zn	-0.418397	-1.076286	-0.418404
Zn4	Zn	-0.593984	-1.076281	-0.594030
O5	O	-0.506205	-1.142358	-0.506226
O6	O	-0.441696	-1.319074	-0.570785
O7	O	-0.570827	-1.190837	-0.271377
O8	O	-0.271372	-1.093856	-0.441728
O9	O	-0.570793	-1.319015	-0.441717
O10	O	-0.271346	-1.190974	-0.570792
O11	O	-0.441756	-1.093778	-0.271382
O12	O	-0.441664	-0.965674	-0.441685
O13	O	-0.570633	-1.093848	-0.741057
O14	O	-0.570667	-0.965671	-0.570717
O15	O	-0.441605	-1.190970	-0.741089
O16	O	-0.741086	-1.190833	-0.441674
O17	O	-0.741017	-1.093770	-0.570711
C18	C	-0.506160	-0.936992	-0.506198
C19	C	-0.506166	-0.849136	-0.506211
C20	C	-0.438945	-0.477637	-0.439166
C21	C	-0.573485	-0.477683	-0.573319
C22	C	-0.573474	-0.560229	-0.573314
C23	C	-0.506199	-0.601483	-0.506233
C24	C	-0.438934	-0.560191	-0.439157
C25	C	-0.640744	-0.601527	-0.640382
C26	C	-0.640737	-0.684077	-0.640379
C27	C	-0.573456	-0.725333	-0.573302
C28	C	-0.506188	-0.684036	-0.506224
C29	C	-0.438913	-0.725290	-0.439143
C30	C	-0.371639	-0.683995	-0.372069
C31	C	-0.371653	-0.601446	-0.372080
C32	C	-0.573441	-0.807882	-0.573292
C33	C	-0.438902	-0.807844	-0.439134
C34	C	-0.779172	-1.142314	-0.506210
C35	C	-0.895949	-1.142367	-0.506238
C36	C	-1.060445	-1.192954	-0.573522
C37	C	-0.950721	-1.192913	-0.573498
C38	C	-0.950907	-1.091864	-0.438991
C39	C	-1.060629	-1.091910	-0.439010
C40	C	-0.232172	-1.142425	-0.506265
C41	C	-0.115395	-1.142453	-0.506282
C42	C	-0.506104	-1.142418	-0.780260
C43	C	-0.506061	-1.142443	-0.897036
C44	C	-0.506238	-0.348527	-0.506250
C45	C	-0.506220	-0.436383	-0.506247
C46	C	-0.438865	-1.193018	-0.951917
C47	C	-0.438820	-1.193031	-1.061641
C48	C	-0.573176	-1.091892	-1.061595
C49	C	-0.573215	-1.091876	-0.951872
C50	C	-0.506230	-1.142345	-0.233259
C51	C	-0.505977	-1.142473	-0.116483
H52	H	-0.384111	-0.841427	-0.384514
H53	H	-0.627852	-1.050724	-1.106255
H54	H	-0.627933	-1.050686	-0.907188
H55	H	-1.105032	-1.234106	-0.628303
C56	C	-0.379264	-1.237900	-0.783741
C57	C	-0.365041	-1.248591	-0.891638
H58	H	-0.333687	-1.272212	-0.746532
H59	H	-0.363885	-1.184798	-0.765755
H60	H	-0.449865	-1.249454	-0.765760
H61	H	-0.294442	-1.237032	-0.909621
H62	H	-0.380413	-1.301706	-0.909631
H63	H	-1.105371	-1.050785	-0.384250
H64	H	-0.384101	-1.234213	-1.106320
C65	C	-0.961564	-1.292789	-0.706464
C66	C	-0.890319	-1.248421	-0.647416
H67	H	-0.924273	-1.327055	-0.752103
H68	H	-1.004362	-1.323059	-0.660736
H69	H	-1.004365	-1.258340	-0.746612
H70	H	-0.847523	-1.282870	-0.607262
H71	H	-0.847503	-1.218148	-0.693150
C72	C	-0.782793	-1.046921	-0.379244
C73	C	-0.890705	-1.036301	-0.365059
H74	H	-0.745631	-1.012612	-0.333606
H75	H	-0.764776	-1.100020	-0.363925
H76	H	-0.764787	-1.035318	-0.449822
H77	H	-0.908712	-1.047910	-0.294482
H78	H	-0.908729	-0.983189	-0.380371
C79	C	-0.773722	-0.675821	-0.772994
C80	C	-0.714673	-0.729465	-0.714113
H81	H	-0.819359	-0.703845	-0.818520
H82	H	-0.813862	-0.643613	-0.727153
H83	H	-0.727987	-0.643635	-0.813254
H84	H	-0.760408	-0.761648	-0.673847
H85	H	-0.674530	-0.761688	-0.759959
H86	H	-0.316883	-0.567816	-0.317471
C87	C	-0.311897	-0.810522	-0.312496
C88	C	-0.297690	-0.729347	-0.298336
H89	H	-0.266241	-0.838521	-0.266981
H90	H	-0.382461	-0.824030	-0.296994
H91	H	-0.296607	-0.824068	-0.383116
H92	H	-0.312988	-0.715801	-0.227717
H93	H	-0.227110	-0.715834	-0.313830
H94	H	-0.384169	-0.444011	-0.384559
H95	H	-0.695524	-0.567931	-0.694988
C96	C	-0.633236	-0.351162	-0.632893
C97	C	-0.647430	-0.432338	-0.647052
H98	H	-0.678885	-0.323168	-0.678422
H99	H	-0.648536	-0.337615	-0.562286
H100	H	-0.562662	-0.337649	-0.648388
H101	H	-0.718003	-0.445852	-0.631549
H102	H	-0.632138	-0.445890	-0.717675
H103	H	-0.628218	-0.841501	-0.627899
