data_functionalizedCrystal
_audit_creation_method	'MofGen! by Chris Wilmer'
_symmetry_space_group_name_H-M	'P1'
_symmetry_Int_Tables_number	1
_symmetry_cell_setting	triclinic
loop_
_symmetry_equiv_pos_as_xyz
  x,y,z
_cell_length_a	16.625548
_cell_length_b	29.839131
_cell_length_c	16.625539
_cell_angle_alpha	89.967906
_cell_angle_beta	89.979432
_cell_angle_gamma	90.042488
loop_
_atom_site_label
_atom_site_type_symbol
_atom_site_fract_x
_atom_site_fract_y
_atom_site_fract_z
Zn1	Zn	1.232574	-0.178840	-0.455888
Zn2	Zn	1.232433	-0.253971	-0.321046
Zn3	Zn	1.097736	-0.178857	-0.321069
Zn4	Zn	1.097662	-0.253945	-0.455836
O5	O	1.165101	-0.216403	-0.388460
O6	O	1.345388	-0.188810	-0.438013
O7	O	1.214537	-0.244025	-0.208217
O8	O	1.115713	-0.115987	-0.338984
O9	O	1.345284	-0.244008	-0.338946
O10	O	1.214778	-0.115975	-0.438035
O11	O	1.115576	-0.188839	-0.208233
O12	O	0.984894	-0.188814	-0.338933
O13	O	1.115586	-0.243964	-0.568676
O14	O	0.984839	-0.243981	-0.437947
O15	O	1.214706	-0.188785	-0.568714
O16	O	1.214465	-0.316834	-0.338896
O17	O	1.115449	-0.316815	-0.437925
C18	C	0.955610	-0.216397	-0.388437
C19	C	0.865989	-0.216405	-0.388447
C20	C	0.537814	-0.216408	-0.388481
C21	C	0.629122	-0.216406	-0.388469
C22	C	0.701899	-0.216406	-0.388463
C23	C	0.793213	-0.216404	-0.388452
C24	C	1.164956	-0.333126	-0.388420
C25	C	1.164967	-0.383060	-0.388430
C26	C	1.216752	-0.692701	-0.336971
C27	C	1.216852	-0.880374	-0.337002
O28	O	1.260766	-0.904636	-0.293219
N29	N	1.165268	-0.903845	-0.388521
C30	C	1.113660	-0.880395	-0.440039
O31	O	1.069793	-0.904665	-0.483866
C32	C	1.113565	-0.692723	-0.440011
C33	C	1.165146	-0.669254	-0.388483
C34	C	1.268330	-0.669232	-0.285447
C35	C	1.268302	-0.622316	-0.285437
C36	C	1.216695	-0.598870	-0.336950
C37	C	1.165118	-0.622339	-0.388473
C38	C	1.061962	-0.669274	-0.491533
C39	C	1.061944	-0.622353	-0.491523
C40	C	1.113525	-0.598884	-0.439995
C41	C	1.113483	-0.551977	-0.439975
N42	N	1.165067	-0.528505	-0.388456
C43	C	1.216673	-0.551952	-0.336944
C44	C	1.113712	-0.978926	-0.440049
C45	C	1.113735	-1.025844	-0.440055
C46	C	1.216928	-1.025819	-0.337019
C47	C	1.216901	-0.978900	-0.337009
C48	C	1.165296	-0.955455	-0.388530
C49	C	1.216609	-0.453426	-0.336925
C50	C	1.216573	-0.406506	-0.336917
C51	C	1.113383	-0.406535	-0.439956
C52	C	1.113416	-0.453451	-0.439962
C53	C	1.165035	-0.476895	-0.388443
O54	O	1.069599	-0.527685	-0.483742
O55	O	1.260546	-0.527674	-0.293136
C56	C	1.216781	-0.739616	-0.336981
C57	C	1.165203	-0.763085	-0.388504
C58	C	1.113597	-0.739639	-0.440017
C59	C	1.165226	-0.810003	-0.388510
C60	C	1.216832	-0.833449	-0.336997
C61	C	1.268416	-0.809978	-0.285479
C62	C	1.268387	-0.763062	-0.285468
C63	C	1.062014	-0.763110	-0.491536
C64	C	1.062046	-0.810026	-0.491541
C65	C	1.113652	-0.833472	-0.440028
C66	C	1.375410	-0.216410	-0.388483
C67	C	1.465031	-0.216413	-0.388493
C68	C	1.165154	-0.216370	-0.598769
C69	C	1.165176	-0.216355	-0.688390
C70	C	1.165269	-0.099225	-0.388518
C71	C	1.165341	-0.049290	-0.388542
C72	C	1.165213	-0.216305	-1.016566
C73	C	1.165201	-0.216320	-0.925257
C74	C	1.165195	-0.216330	-0.852481
C75	C	1.165182	-0.216345	-0.761167
C76	C	1.165095	-0.216404	-0.178969
C77	C	1.165229	-0.216292	-0.089348
H78	H	1.258577	-0.387399	-0.294954
C79	C	1.004972	-0.506276	-0.451081
C80	C	1.056710	-0.479249	-0.496596
H81	H	0.969965	-0.522197	-0.486051
H82	H	1.035712	-0.526955	-0.420417
H83	H	0.974142	-0.488002	-0.415917
H84	H	1.087544	-0.497523	-0.531756
H85	H	1.025967	-0.458567	-0.527274
C86	C	1.318901	-0.983599	-0.235163
C87	C	1.273605	-0.953105	-0.280373
H88	H	1.353913	-0.967675	-0.200202
H89	H	1.283793	-1.001927	-0.204295
H90	H	1.349727	-1.001871	-0.270335
H91	H	1.242774	-0.934836	-0.245202
H92	H	1.308717	-0.934770	-0.311244
H93	H	1.019991	-0.744024	-0.533485
H94	H	1.071725	-1.044948	-0.482007
H95	H	1.019955	-0.688375	-0.533489
H96	H	1.258644	-0.472509	-0.294976
H97	H	1.020035	-0.829130	-0.533501
H98	H	1.310306	-0.603210	-0.243481
H99	H	1.071688	-0.959840	-0.482005
H100	H	1.019922	-0.603266	-0.533480
C101	C	1.370315	-0.664482	-0.183594
C102	C	1.325057	-0.694999	-0.228813
H103	H	1.405331	-0.680388	-0.148621
H104	H	1.401127	-0.646156	-0.218753
H105	H	1.335177	-0.646211	-0.152730
H106	H	1.360195	-0.713268	-0.259682
H107	H	1.294242	-0.713332	-0.193649
H108	H	1.258948	-1.044917	-0.295075
H109	H	1.071364	-0.387438	-0.481895
C110	C	1.314304	-0.881893	-0.239792
C111	C	1.325169	-0.835757	-0.228881
H112	H	1.349353	-0.897808	-0.204865
H113	H	1.260154	-0.889620	-0.227916
H114	H	1.326052	-0.889539	-0.293993
H115	H	1.313415	-0.828109	-0.174681
H116	H	1.379331	-0.828026	-0.240751
H117	H	1.310389	-0.743957	-0.243509
