data_functionalizedCrystal
_audit_creation_method	'MofGen! by Chris Wilmer'
_symmetry_space_group_name_H-M	'P1'
_symmetry_Int_Tables_number	1
_symmetry_cell_setting	triclinic
loop_
_symmetry_equiv_pos_as_xyz
  x,y,z
_cell_length_a	12.837943
_cell_length_b	11.792241
_cell_length_c	11.295483
_cell_angle_alpha	94.123059
_cell_angle_beta	85.461227
_cell_angle_gamma	89.511178
loop_
_atom_site_label
_atom_site_type_symbol
_atom_site_fract_x
_atom_site_fract_y
_atom_site_fract_z
O1	O	1.384055	0.288341	-0.099005
O2	O	1.082168	0.273757	-0.099012
O3	O	1.240437	0.116622	-0.099000
O4	O	1.225787	0.445476	-0.099017
O5	O	1.226536	0.130400	0.099050
O6	O	1.068267	0.287535	0.099038
O7	O	1.370154	0.302119	0.099045
Cu8	Cu	1.217941	0.296085	0.117125
Cu9	Cu	1.234381	0.279791	-0.117092
O10	O	1.211885	0.459254	0.099033
C11	C	1.036570	0.275719	0.000012
C12	C	0.921410	0.261025	0.000010
C13	C	0.681444	0.437671	0.000018
C14	C	0.573241	0.423870	0.000016
C15	C	0.596797	0.219624	0.000014
C16	C	0.705001	0.233425	0.000016
C17	C	0.747320	0.342452	0.000016
C18	C	0.855526	0.356251	0.000008
C19	C	0.879080	0.152006	0.000015
C20	C	0.770877	0.138205	0.000013
C21	C	1.232566	0.081127	0.000025
C22	C	1.229812	-0.045167	0.000023
C23	C	1.224748	-0.276394	0.000003
C24	C	1.227561	-0.147723	0.000014
C25	C	1.415753	0.300157	0.000018
C26	C	1.530913	0.314850	0.000013
C27	C	1.219756	0.494749	0.000006
C28	C	1.222512	0.621042	-0.000001
N29	N	1.206386	0.307545	0.281860
N30	N	1.245945	0.268322	-0.281827
C31	C	1.329126	0.185760	0.531159
C32	C	1.320401	0.194430	0.655822
C33	C	1.180207	0.333547	0.655852
C34	C	1.188932	0.324878	0.531189
C35	C	1.263395	0.250983	0.468847
C36	C	1.272124	0.242320	0.344181
C37	C	1.131925	0.381431	0.344213
C38	C	1.123200	0.390100	0.468876
H39	H	0.932729	0.074471	0.000005
C40	C	0.901607	0.474564	0.000193
C41	C	0.955913	0.495525	0.102069
C42	C	0.998385	0.604499	0.102274
H43	H	0.846977	0.529412	0.000258
H44	H	0.948229	0.479413	-0.068836
H45	H	0.909295	0.490687	0.171081
H46	H	1.010558	0.440706	0.102026
H47	H	1.045007	0.609348	0.033244
H48	H	0.943749	0.659337	0.102335
H49	H	1.035245	0.618731	0.171389
C50	C	1.352837	0.161877	0.276587
C51	C	1.333213	0.050573	0.306934
C52	C	1.407534	-0.023579	0.244696
H53	H	1.420748	0.182992	0.296960
H54	H	1.348637	0.165949	0.193399
H55	H	1.337423	0.046505	0.390103
H56	H	1.265316	0.029422	0.286558
H57	H	1.403334	-0.019507	0.161508
H58	H	1.475440	-0.002453	0.265074
H59	H	1.394224	-0.099108	0.265269
C60	C	0.551035	0.101170	0.000074
C61	C	0.631882	0.020729	0.000098
C62	C	0.589764	-0.088401	0.000166
H63	H	0.514170	0.086587	-0.068970
H64	H	0.504497	0.096288	0.069168
H65	H	0.678401	0.025607	-0.068989
H66	H	0.668753	0.035275	0.069137
H67	H	0.543227	-0.093284	0.069260
H68	H	0.552900	-0.102973	-0.068878
H69	H	0.644611	-0.142993	0.000194
C70	C	0.727476	0.555992	-0.000233
C71	C	0.796039	0.562799	-0.102140
C72	C	0.838451	0.671783	-0.102419
H73	H	0.764427	0.570539	0.068751
H74	H	0.672778	0.610760	-0.000301
H75	H	0.850728	0.508047	-0.102060
H76	H	0.759113	0.548273	-0.171140
H77	H	0.783754	0.726551	-0.102487
H78	H	0.875397	0.686321	-0.033431
H79	H	0.884968	0.676419	-0.171566
H80	H	0.736404	0.049439	0.000027
C81	C	1.391897	0.123562	0.723262
C82	C	1.458987	0.057015	0.641977
C83	C	1.524873	-0.008277	0.704058
H84	H	1.351034	0.075519	0.771906
H85	H	1.431961	0.172464	0.771857
H86	H	1.418927	0.008118	0.593403
H87	H	1.499873	0.105029	0.593330
H88	H	1.564938	0.040625	0.752653
H89	H	1.484002	-0.056313	0.752701
H90	H	1.570408	-0.053428	0.648917
H91	H	0.519607	0.501409	0.000021
H92	H	1.389764	0.125601	0.480399
C93	C	1.099194	0.413600	0.723495
C94	C	0.999291	0.381964	0.693215
C95	C	0.924632	0.455667	0.755520
H96	H	1.112157	0.489245	0.703130
H97	H	1.103345	0.409394	0.806673
H98	H	0.995143	0.386181	0.610056
H99	H	0.986294	0.306331	0.713583
H100	H	0.928783	0.451462	0.838699
H101	H	0.937605	0.531308	0.735151
H102	H	0.856839	0.434207	0.734993
C103	C	1.042195	0.470169	0.536508
C104	C	0.942288	0.438547	0.506229
C105	C	0.867639	0.512272	0.568518
H106	H	1.055172	0.545808	0.516130
H107	H	1.046341	0.465976	0.619688
H108	H	0.938145	0.442752	0.423068
H109	H	0.929278	0.362921	0.526611
H110	H	0.871785	0.508079	0.651699
H111	H	0.880626	0.587906	0.548135
H112	H	0.799843	0.490821	0.547992
H113	H	1.078406	0.434543	0.293464
