data_functionalizedCrystal
_audit_creation_method	'MofGen! by Chris Wilmer'
_symmetry_space_group_name_H-M	'P1'
_symmetry_Int_Tables_number	1
_symmetry_cell_setting	triclinic
loop_
_symmetry_equiv_pos_as_xyz
  x,y,z
_cell_length_a	17.038275
_cell_length_b	15.944551
_cell_length_c	15.021413
_cell_angle_alpha	89.992834
_cell_angle_beta	89.998872
_cell_angle_gamma	92.694739
loop_
_atom_site_label
_atom_site_type_symbol
_atom_site_fract_x
_atom_site_fract_y
_atom_site_fract_z
O1	O	-1.037425	0.182396	0.073887
O2	O	-0.809793	0.179499	0.073917
O3	O	-0.929825	0.059116	0.073907
O4	O	-0.917393	0.302778	0.073898
O5	O	-0.929807	0.059129	-0.074158
O6	O	-0.809775	0.179512	-0.074147
O7	O	-1.037406	0.182408	-0.074177
Zn8	Zn	-0.923588	0.180962	-0.097670
Zn9	Zn	-0.923612	0.180945	0.097411
O10	O	-0.917374	0.302791	-0.074166
C11	C	-0.780655	0.176871	-0.000111
C12	C	-0.693860	0.169011	-0.000099
C13	C	-0.643767	0.241169	-0.000101
C14	C	-0.562214	0.233779	-0.000112
C15	C	-0.530756	0.154231	-0.000114
C16	C	-0.580855	0.082068	-0.000114
C17	C	-0.662406	0.089459	-0.000109
C18	C	-0.284990	0.128122	-0.000132
C19	C	-0.203433	0.120736	-0.000134
C20	C	-0.184797	0.272448	-0.000134
C21	C	-0.266351	0.279832	-0.000124
C22	C	-0.316443	0.207669	-0.000129
C23	C	-0.447396	0.146676	-0.000122
C24	C	-0.399801	0.215225	-0.000127
C25	C	-0.066544	0.185036	-0.000143
C26	C	-0.153340	0.192894	-0.000136
C27	C	-0.929300	0.027792	-0.000122
C28	C	-0.927752	-0.065565	-0.000112
C29	C	-0.917900	0.334115	-0.000135
C30	C	-0.919447	0.427472	-0.000139
N31	N	-0.923577	0.180973	-0.230808
C32	C	-0.997547	0.647905	-0.000136
C33	C	-0.961271	0.706338	-0.073136
C34	C	-0.922246	0.598398	-0.000132
C35	C	-0.961271	0.706310	0.072844
C36	C	-0.924956	0.763504	-0.000121
C37	C	-0.885949	0.655601	-0.073192
C38	C	-0.885960	0.655567	0.072854
C39	C	-0.849630	0.713979	-0.000163
C40	C	-0.920687	0.503284	-0.000139
C41	C	-0.926508	0.858616	-0.000120
C42	C	-0.868534	0.237137	-0.529818
C43	C	-0.852713	0.160339	-0.470453
C44	C	-0.923611	0.180941	-0.587845
C45	C	-0.939378	0.257751	-0.470467
C46	C	-0.923592	0.180961	-0.412421
C47	C	-0.907755	0.104102	-0.529787
C48	C	-0.994451	0.201566	-0.529806
C49	C	-0.978660	0.124715	-0.470468
C50	C	-0.923620	0.180931	-0.688902
C51	C	-0.923584	0.180963	-0.311365
N52	N	-0.923629	0.180928	0.230548
H53	H	-0.177823	0.055956	-0.000134
H54	H	-0.325766	0.069361	-0.000137
H55	H	-0.854146	0.633161	0.134581
C56	C	-0.894682	0.376438	-0.382695
C57	C	-0.957397	0.345422	-0.435276
H58	H	-0.905800	0.430563	-0.360972
H59	H	-0.887612	0.339596	-0.333955
H60	H	-0.848102	0.380201	-0.417506
H61	H	-1.003976	0.341653	-0.400463
H62	H	-0.964476	0.382273	-0.484023
H63	H	-0.993112	0.728724	-0.134860
H64	H	-0.144004	0.331199	-0.000132
C65	C	-0.711853	0.688526	-0.000965
C66	C	-0.765181	0.752716	-0.000209
H67	H	-0.659720	0.712443	-0.001004
H68	H	-0.719673	0.654436	0.050424
H69	H	-0.719994	0.655174	-0.052840
H70	H	-0.757044	0.786065	0.051669
H71	H	-0.757357	0.786820	-0.051604
C72	C	-0.764936	0.009755	0.076010
C73	C	-0.717475	0.010144	-0.000104
H74	H	-0.798936	-0.039210	0.076006
H75	H	-0.732735	0.010013	0.127632
H76	H	-0.795336	0.058194	0.076001
H77	H	-0.687071	-0.038292	-0.000091
H78	H	-0.749680	0.009877	-0.051740
H79	H	-0.669373	0.305945	-0.000099
C80	C	-0.551986	0.384479	-0.000099
C81	C	-0.507152	0.313097	-0.000110
H82	H	-0.517991	0.433448	-0.000094
H83	H	-0.584182	0.384214	-0.051726
H84	H	-0.584181	0.384191	0.051541
H85	H	-0.474961	0.313382	-0.051754
H86	H	-0.474942	0.313363	0.051522
H87	H	-0.993142	0.728669	0.134556
C88	C	-1.125002	0.240466	-0.493194
C89	C	-1.075308	0.225144	-0.565036
H90	H	-1.174917	0.255034	-0.514946
H91	H	-1.130945	0.191405	-0.457497
H92	H	-1.102849	0.285363	-0.458424
H93	H	-1.097458	0.180243	-0.599802
H94	H	-1.069367	0.274211	-0.600747
H95	H	-0.821934	0.284592	-0.555877
H96	H	-0.555235	0.017298	-0.000128
C97	C	-0.474001	-0.002546	-0.000104
C98	C	-0.412815	0.059236	-0.000113
H99	H	-0.452648	-0.056526	-0.000105
H100	H	-0.505418	0.003487	0.051527
H101	H	-0.505425	0.003494	-0.051740
H102	H	-0.381394	0.053200	0.051526
H103	H	-0.381384	0.053200	-0.051750
H104	H	-0.291958	0.344608	-0.000112
C105	C	-1.121154	0.634504	-0.076795
C106	C	-1.081919	0.608956	-0.000242
H107	H	-1.173239	0.610453	-0.076864
H108	H	-1.122715	0.693971	-0.077317
H109	H	-1.094123	0.616401	-0.128121
H110	H	-1.108947	0.627065	0.051084
H111	H	-1.080363	0.549477	0.000288
C112	C	-0.714252	0.195708	-0.465201
C113	C	-0.771833	0.136792	-0.435249
H114	H	-0.664321	0.181177	-0.443464
H115	H	-0.713533	0.196028	-0.528427
H116	H	-0.725846	0.249877	-0.444012
H117	H	-0.760243	0.082624	-0.456444
H118	H	-0.772550	0.136463	-0.372011
H119	H	-0.894341	0.039135	-0.555735
C120	C	-0.841952	0.537803	-0.155866
C121	C	-0.842978	0.625561	-0.156598
H122	H	-0.815428	0.519259	-0.207360
H123	H	-0.815393	0.520015	-0.104089
H124	H	-0.894341	0.514620	-0.155667
H125	H	-0.790588	0.648744	-0.156790
H126	H	-0.869536	0.643358	-0.208389
H127	H	-1.025231	0.077146	-0.444575
H128	H	-0.425418	0.279993	-0.000131
