data_functionalizedCrystal
_audit_creation_method	'MofGen! by Chris Wilmer'
_symmetry_space_group_name_H-M	'P1'
_symmetry_Int_Tables_number	1
_symmetry_cell_setting	triclinic
loop_
_symmetry_equiv_pos_as_xyz
  x,y,z
_cell_length_a	11.792241
_cell_length_b	9.565339
_cell_length_c	11.792241
_cell_angle_alpha	89.999012
_cell_angle_beta	95.806584
_cell_angle_gamma	89.993067
loop_
_atom_site_label
_atom_site_type_symbol
_atom_site_fract_x
_atom_site_fract_y
_atom_site_fract_z
O1	O	1.506897	0.116125	-0.155563
O2	O	2.006897	0.616125	0.344437
O3	O	1.176556	0.116157	-0.171595
O4	O	1.676556	0.616157	0.328405
O5	O	1.349743	0.116130	0.001592
O6	O	1.849743	0.616130	0.501592
O7	O	1.333710	0.116152	-0.328750
O8	O	1.833710	0.616152	0.171250
O9	O	1.349751	-0.116390	0.001586
O10	O	1.849751	0.383610	0.501586
O11	O	1.176564	-0.116363	-0.171601
O12	O	1.676564	0.383637	0.328399
O13	O	1.506905	-0.116395	-0.155568
O14	O	2.006905	0.383605	0.344432
Zn15	Zn	1.341736	-0.153297	-0.163585
Zn16	Zn	1.841736	0.346703	0.336415
Zn17	Zn	1.341726	0.153059	-0.163578
Zn18	Zn	1.841726	0.653059	0.336422
O19	O	1.333718	-0.116368	-0.328755
O20	O	1.833718	0.383632	0.171245
C21	C	1.134269	-0.000099	-0.170591
C22	C	1.634269	0.499901	0.329409
C23	C	1.008255	-0.000086	-0.167576
C24	C	1.508255	0.499914	0.332424
N25	N	1.341751	-0.362376	-0.163589
N26	N	1.841751	0.137624	0.336411
C27	C	0.777543	-0.000127	-0.162034
C28	C	1.277543	0.499873	0.337966
C29	C	0.905928	-0.000105	-0.165113
C30	C	1.405928	0.499895	0.334887
C31	C	1.421870	-0.453554	-0.083501
C32	C	1.921870	0.046446	0.416499
C33	C	1.319170	-0.546716	-0.060824
C34	C	1.819170	-0.046716	0.439176
C35	C	1.444410	-0.546770	-0.186192
C36	C	1.944410	-0.046770	0.313808
C37	C	1.238999	-0.453486	-0.140861
C38	C	1.738999	0.046514	0.359139
C39	C	1.364307	-0.453532	-0.266273
C40	C	1.864307	0.046468	0.233727
C41	C	1.261533	-0.546651	-0.243640
C42	C	1.761533	-0.046651	0.256360
C43	C	1.549192	-0.000136	-0.156572
C44	C	2.049192	0.499864	0.343428
C45	C	1.675206	-0.000139	-0.159587
C46	C	2.175206	0.499861	0.340413
C47	C	1.348740	-0.000129	0.043880
C48	C	1.848740	0.499871	0.543880
C49	C	1.345726	-0.000127	0.169894
C50	C	1.845726	0.499873	0.669894
N51	N	1.341719	0.362138	-0.163565
N52	N	1.841719	0.862138	0.336435
C53	C	1.334721	-0.000106	-0.371043
C54	C	1.834721	0.499894	0.128957
C55	C	1.337736	-0.000098	-0.497057
C56	C	1.837736	0.499902	0.002943
C57	C	1.340183	-0.000103	0.400606
C58	C	1.840183	0.499897	0.900606
C59	C	1.343262	-0.000116	0.272221
C60	C	1.843262	0.499884	0.772221
H61	H	1.300070	-0.587648	0.026023
H62	H	1.800070	-0.087648	0.526023
H63	H	1.152147	-0.412683	-0.121635
H64	H	1.652147	0.087317	0.378365
H65	H	1.193691	-0.587270	-0.311361
H66	H	1.693691	-0.087270	0.188639
H67	H	1.531241	-0.587745	-0.205320
H68	H	2.031241	-0.087745	0.294680
N69	N	1.389642	-0.399258	-0.381276
N70	N	1.889642	0.100742	0.118724
H71	H	1.467262	-0.433129	-0.398289
H72	H	1.967262	0.066871	0.101711
H73	H	1.388658	-0.293685	-0.380559
H74	H	1.888658	0.206315	0.119441
H75	H	1.489559	-0.412675	-0.015738
H76	H	1.989559	0.087325	0.484262
