data_functionalizedCrystal
_audit_creation_method	'MofGen! by Chris Wilmer'
_symmetry_space_group_name_H-M	'P1'
_symmetry_Int_Tables_number	1
_symmetry_cell_setting	triclinic
loop_
_symmetry_equiv_pos_as_xyz
  x,y,z
_cell_length_a	13.032831
_cell_length_b	19.121063
_cell_length_c	13.032268
_cell_angle_alpha	99.247498
_cell_angle_beta	90.886977
_cell_angle_gamma	85.565596
loop_
_atom_site_label
_atom_site_type_symbol
_atom_site_fract_x
_atom_site_fract_y
_atom_site_fract_z
Zn1	Zn	1.465022	-0.473659	-0.806576
Zn2	Zn	1.479383	-0.578156	-0.640274
Zn3	Zn	1.316950	-0.444360	-0.611224
Zn4	Zn	1.285899	-0.574364	-0.790193
O5	O	1.386814	-0.517635	-0.712067
O6	O	1.609870	-0.501370	-0.803529
O7	O	1.476841	-0.549733	-0.491924
O8	O	1.343577	-0.350107	-0.631836
O9	O	1.620421	-0.578143	-0.681348
O10	O	1.452365	-0.371633	-0.775360
O11	O	1.357502	-0.451434	-0.470581
O12	O	1.169889	-0.447756	-0.615951
O13	O	1.290655	-0.571680	-0.936863
O14	O	1.147076	-0.543270	-0.747439
O15	O	1.422256	-0.497693	-0.948899
O16	O	1.446733	-0.675793	-0.665463
O17	O	1.304581	-0.673007	-0.775608
C18	C	1.121419	-0.491923	-0.676766
C19	C	1.007877	-0.480942	-0.661690
C20	C	0.946005	-0.523366	-0.719935
C21	C	0.828653	-0.512018	-0.704355
C22	C	1.373870	-0.699851	-0.721936
C23	C	1.368422	-0.777815	-0.726206
C24	C	1.439917	-0.815879	-0.670926
C25	C	1.434798	-0.889136	-0.674948
C26	C	1.358179	-0.924327	-0.734244
C27	C	1.286681	-0.886258	-0.789530
C28	C	1.291805	-0.813003	-0.785514
C29	C	1.339006	-1.145437	-0.749244
C30	C	1.333886	-1.218697	-0.753254
C31	C	1.482005	-1.221570	-0.638672
C32	C	1.487118	-1.148313	-0.634656
C33	C	1.415624	-1.110251	-0.689946
C34	C	1.352943	-0.999207	-0.738354
C35	C	1.420865	-1.035374	-0.685842
C36	C	1.653245	-0.543448	-0.747506
C37	C	1.766782	-0.554448	-0.762608
C38	C	1.351390	-0.537532	-0.981395
C39	C	1.336295	-0.546011	-1.096167
C40	C	1.399833	-0.334712	-0.702185
C41	C	1.405381	-0.256761	-0.697974
C42	C	1.394678	-0.513183	-1.153291
C43	C	1.379078	-0.521945	-1.271914
C44	C	1.422162	-0.497771	-0.443791
C45	C	1.437469	-0.489113	-0.329036
H46	H	0.800683	-0.599170	-0.824020
H47	H	0.979912	-0.568086	-0.781340
C48	C	1.431443	-0.411323	-1.028648
C49	C	1.477752	-0.466487	-1.100766
H50	H	1.482734	-0.382499	-0.996220
H51	H	1.383368	-0.383271	-1.063359
H52	H	1.396834	-0.430792	-0.977446
H53	H	1.512355	-0.447018	-1.151973
H54	H	1.525845	-0.494544	-1.066054
H55	H	0.973970	-0.436217	-0.600292
H56	H	1.271503	-1.247349	-0.801559
H57	H	1.274755	-0.580597	-1.135080
H58	H	1.317533	-0.556535	-1.310822
C59	C	0.675503	-0.452096	-0.622046
C60	C	0.782897	-0.451648	-0.621443
H61	H	0.647257	-0.414832	-0.570852
H62	H	0.649677	-0.445348	-0.688587
H63	H	0.656742	-0.496412	-0.607090
H64	H	0.801659	-0.407334	-0.636406
H65	H	0.808733	-0.458391	-0.554886
C66	C	1.158278	-0.718437	-0.776965
C67	C	1.213216	-0.771160	-0.846278
H68	H	1.109766	-0.692605	-0.814486
H69	H	1.123159	-0.739943	-0.728331
H70	H	1.204652	-0.687000	-0.741082
H71	H	1.166841	-0.802601	-0.882156
H72	H	1.248336	-0.749653	-0.894931
H73	H	1.499002	-0.454514	-1.290127
H74	H	1.502304	-0.787232	-0.622636
H75	H	1.493016	-0.920125	-0.629933
C76	C	1.561602	-1.117710	-0.465257
C77	C	1.571351	-1.109641	-0.569483
H78	H	1.613610	-1.093839	-0.425023
H79	H	1.495825	-1.097977	-0.440309
H80	H	1.568779	-1.166789	-0.459754
H81	H	1.564167	-1.060562	-0.574987
H82	H	1.637144	-1.129371	-0.594438
C83	C	1.615545	-1.316121	-0.647243
C84	C	1.560605	-1.263408	-0.577915
H85	H	1.664079	-1.341945	-0.609734
H86	H	1.569182	-1.347562	-0.683114
H87	H	1.650646	-1.294603	-0.695888
H88	H	1.525498	-1.284926	-0.529274
H89	H	1.606975	-1.231963	-0.542027
C90	C	1.192063	-1.149961	-0.862874
C91	C	1.260402	-1.103602	-0.809995
H92	H	1.143528	-1.124129	-0.900370
H93	H	1.229336	-1.185718	-0.909895
H94	H	1.156965	-1.171467	-0.814211
H95	H	1.295506	-1.082100	-0.858658
H96	H	1.223125	-1.067832	-0.762970
H97	H	1.224300	-0.914917	-0.837816
H98	H	1.483252	-1.006720	-0.637567
H99	H	1.290558	-1.027867	-0.786631
