data_functionalizedCrystal
_audit_creation_method	'MofGen! by Chris Wilmer'
_symmetry_space_group_name_H-M	'P1'
_symmetry_Int_Tables_number	1
_symmetry_cell_setting	triclinic
loop_
_symmetry_equiv_pos_as_xyz
  x,y,z
_cell_length_a	23.532407
_cell_length_b	17.699083
_cell_length_c	16.176319
_cell_angle_alpha	90.007696
_cell_angle_beta	89.997915
_cell_angle_gamma	96.934154
loop_
_atom_site_label
_atom_site_type_symbol
_atom_site_fract_x
_atom_site_fract_y
_atom_site_fract_z
O1	O	0.755526	-0.091879	-0.068645
O2	O	1.255526	0.408121	0.431355
O3	O	0.589701	-0.105173	-0.068670
O4	O	1.089701	0.394827	0.431330
O5	O	0.677298	0.011687	-0.068649
O6	O	1.177298	0.511687	0.431351
O7	O	0.667928	-0.208739	-0.068665
O8	O	1.167928	0.291261	0.431335
O9	O	0.677286	0.011694	0.068844
O10	O	1.177286	0.511694	0.568844
O11	O	0.589689	-0.105166	0.068824
O12	O	1.089689	0.394834	0.568824
O13	O	0.755514	-0.091872	0.068848
O14	O	1.255514	0.408128	0.568848
Cu15	Cu	0.672600	-0.098518	0.081390
Cu16	Cu	1.172600	0.401482	0.581390
Cu17	Cu	0.672614	-0.098527	-0.081212
Cu18	Cu	1.172614	0.401473	0.418788
O19	O	0.667916	-0.208732	0.068828
O20	O	1.167916	0.291268	0.568828
C21	C	0.568478	-0.104831	0.000074
C22	C	1.068478	0.395169	0.500074
C23	C	0.505258	-0.103813	0.000065
C24	C	1.005258	0.396187	0.500065
N25	N	0.672594	-0.098512	0.195755
N26	N	1.172594	0.401488	0.695755
C27	C	0.676956	0.039886	0.000097
C28	C	1.176956	0.539886	0.500097
C29	C	0.675949	0.123899	0.000097
C30	C	1.175949	0.623899	0.500097
C31	C	0.106335	-0.166585	0.000098
C32	C	0.606335	0.333415	0.500098
C33	C	0.046932	-0.165639	0.000103
C34	C	0.546932	0.334361	0.500103
O35	O	0.010354	-0.223829	0.000129
O36	O	0.510354	0.276171	0.500129
N37	N	0.024106	-0.096166	0.000107
N38	N	0.524106	0.403834	0.500107
C39	C	0.060687	-0.027634	0.000113
C40	C	0.560687	0.472366	0.500113
O41	O	0.035817	0.031545	0.000118
O42	O	0.535817	0.531545	0.500118
C43	C	0.120089	-0.028580	0.000114
C44	C	0.620089	0.471420	0.500114
C45	C	0.142911	-0.098058	0.000102
C46	C	0.642911	0.401942	0.500102
C47	C	0.129158	-0.236057	0.000087
C48	C	0.629158	0.263943	0.500087
C49	C	0.188557	-0.237002	0.000080
C50	C	0.688557	0.262998	0.500080
C51	C	0.225133	-0.168475	0.000084
C52	C	0.725133	0.331525	0.500084
C53	C	0.202310	-0.099003	0.000096
C54	C	0.702310	0.400997	0.500096
C55	C	0.156668	0.039951	0.000127
C56	C	0.656668	0.539951	0.500127
C57	C	0.216073	0.038999	0.000129
C58	C	0.716073	0.538999	0.500129
C59	C	0.238896	-0.030479	0.000116
C60	C	0.738896	0.469521	0.500116
C61	C	0.298285	-0.031421	0.000093
C62	C	0.798285	0.468579	0.500093
N63	N	0.321110	-0.100894	0.000090
N64	N	0.821110	0.399106	0.500090
C65	C	0.284534	-0.169421	0.000085
C66	C	0.784534	0.330579	0.500085
C67	C	-0.064061	-0.025652	0.000113
C68	C	0.435939	0.474348	0.500113
C69	C	-0.123462	-0.024705	0.000107
C70	C	0.376538	0.475295	0.500107
C71	C	-0.137213	-0.162710	0.000097
C72	C	0.362787	0.337290	0.500097
C73	C	-0.077811	-0.163657	0.000098
C74	C	0.422189	0.336343	0.500098
C75	C	-0.041236	-0.095125	0.000110
C76	C	0.458764	0.404875	0.500110
C77	C	0.409277	-0.171401	0.000070
C78	C	0.909277	0.328599	0.500070
C79	C	0.468682	-0.172340	0.000060
C80	C	0.968682	0.327660	0.500060
C81	C	0.482427	-0.034335	0.000074
C82	C	0.982427	0.465665	0.500074
C83	C	0.423028	-0.033395	0.000080
C84	C	0.923028	0.466605	0.500080
C85	C	0.386453	-0.101935	0.000081
C86	C	0.886453	0.398065	0.500081
O87	O	0.334897	0.026738	0.000071
O88	O	0.834897	0.526738	0.500071
O89	O	0.309412	-0.228591	0.000092
O90	O	0.809412	0.271409	0.500092
C91	C	0.776737	-0.092214	0.000103
C92	C	1.276737	0.407786	0.500103
C93	C	0.839957	-0.093232	0.000106
C94	C	1.339957	0.406768	0.500106
C95	C	0.668258	-0.236931	0.000079
C96	C	1.168258	0.263069	0.500079
C97	C	0.669265	-0.320944	0.000074
C98	C	1.169265	0.179056	0.500074
C99	C	0.727367	0.172781	0.000106
C100	C	1.227367	0.672781	0.500106
C101	C	0.726417	0.251719	0.000099
C102	C	1.226417	0.751719	0.500099
C103	C	0.674049	0.281774	0.000089
C104	C	1.174049	0.781774	0.500089
C105	C	0.622627	0.232886	0.000077
C106	C	1.122627	0.732886	0.500077
C107	C	0.623577	0.153949	0.000079
C108	C	1.123577	0.653949	0.500079
C109	C	0.618793	0.551230	0.000070
C110	C	1.118793	1.051230	0.500070
C111	C	0.617847	0.630173	0.000071
C112	C	1.117847	1.130173	0.500071
C113	C	0.721633	0.649000	0.000090
C114	C	1.221633	1.149000	0.500090
C115	C	0.722583	0.570063	0.000092
C116	C	1.222583	1.070063	0.500092
C117	C	0.671162	0.521181	0.000076
C118	C	1.171162	1.021181	0.500076
C119	C	0.672192	0.435587	0.000082
C120	C	1.172192	0.935587	0.500082
C121	C	0.673018	0.367366	0.000088
C122	C	1.173018	0.867366	0.500088
N123	N	0.672625	-0.098528	-0.195577
N124	N	1.172625	0.401472	0.304423
C125	C	0.711394	-0.046787	0.239028
C126	C	1.211394	0.453213	0.739028
C127	C	0.711397	-0.046786	0.325576
C128	C	1.211397	0.453214	0.825576
C129	C	0.672602	-0.098514	0.368848
C130	C	1.172602	0.401486	0.868848
C131	C	0.633798	-0.150241	0.325569
C132	C	1.133798	0.349759	0.825569
C133	C	0.633793	-0.150238	0.239023
C134	C	1.133793	0.349762	0.739023
C135	C	0.633818	-0.150255	0.674597
C136	C	1.133818	0.349745	1.174597
C137	C	0.633827	-0.150256	0.761149
C138	C	1.133827	0.349744	1.261149
C139	C	0.711422	-0.046804	0.761149
C140	C	1.211422	0.453196	1.261149
C141	C	0.711416	-0.046800	0.674604
C142	C	1.211416	0.453200	1.174604
C143	C	0.672611	-0.098524	0.631332
C144	C	1.172611	0.401476	1.131332
C145	C	0.672607	-0.098524	0.537488
C146	C	1.172607	0.401476	1.037488
C147	C	0.672608	-0.098519	0.462690
C148	C	1.172608	0.401481	0.962690
H149	H	0.487260	-0.228920	0.000050
H150	H	0.987260	0.271080	0.500050
F151	F	0.752708	0.008252	0.628554
F152	F	1.252708	0.508252	1.128554
H153	H	-0.059234	-0.220231	0.000093
H154	H	0.440766	0.279769	0.500093
H155	H	0.763503	0.688809	0.000098
H156	H	1.263503	1.188809	0.500098
F157	F	0.090238	-0.308999	0.000082
F158	F	0.590238	0.191001	0.500082
F159	F	-0.025139	0.047294	0.000117
F160	F	0.474861	0.547294	0.500117
H161	H	0.742990	-0.004668	0.360808
H162	H	1.242990	0.495332	0.860808
F163	F	0.212838	-0.310950	0.000071
F164	F	0.712838	0.189050	0.500071
H165	H	0.602208	-0.192357	0.360806
H166	H	1.102208	0.307643	0.860806
F167	F	0.752721	0.008249	0.807208
F168	F	1.252721	0.508249	1.307208
H169	H	0.765227	0.545597	0.000104
H170	H	1.265227	1.045597	0.500104
F171	F	0.592520	-0.205305	0.628551
F172	F	1.092520	0.294695	1.128551
F173	F	-0.147744	0.049243	0.000101
F174	F	0.352256	0.549243	0.500101
F175	F	-0.176150	-0.235643	0.000096
F176	F	0.323850	0.264357	0.500096
H177	H	0.602234	-0.192381	0.796379
H178	H	1.102234	0.307619	1.296379
H179	H	0.770011	0.148316	0.000120
H180	H	1.270011	0.648316	0.500120
H181	H	0.379504	-0.227212	0.000074
H182	H	0.879504	0.272788	0.500074
F183	F	0.132392	0.113900	0.000128
F184	F	0.632392	0.613900	0.500128
H185	H	0.602198	-0.192356	0.203791
H186	H	1.102198	0.307644	0.703791
F187	F	0.521364	0.038592	0.000080
F188	F	1.021364	0.538592	0.500080
H189	H	0.404445	0.023179	0.000077
H190	H	0.904445	0.523179	0.500077
F191	F	0.254997	0.111942	0.000143
F192	F	0.754997	0.611942	0.500143
F193	F	0.781143	0.303740	0.000110
F194	F	1.281143	0.803740	0.500110
H195	H	0.575200	0.654640	0.000064
H196	H	1.075200	1.154640	0.500064
F197	F	0.564065	0.499216	0.000051
F198	F	1.064065	0.999216	0.500051
F199	F	0.566892	0.264875	0.000057
F200	F	1.066892	0.764875	0.500057
H201	H	0.581708	0.114149	0.000071
H202	H	1.081708	0.614149	0.500071
H203	H	0.742987	-0.004667	0.203802
H204	H	1.242987	0.495333	0.703802
