data_functionalizedCrystal
_audit_creation_method	'MofGen! by Chris Wilmer'
_symmetry_space_group_name_H-M	'P1'
_symmetry_Int_Tables_number	1
_symmetry_cell_setting	triclinic
loop_
_symmetry_equiv_pos_as_xyz
  x,y,z
_cell_length_a	14.908795
_cell_length_b	17.637651
_cell_length_c	17.640968
_cell_angle_alpha	70.334811
_cell_angle_beta	76.219753
_cell_angle_gamma	103.761712
loop_
_atom_site_label
_atom_site_type_symbol
_atom_site_fract_x
_atom_site_fract_y
_atom_site_fract_z
Zn1	Zn	1.460237	-0.141474	-0.492260
Zn2	Zn	1.381359	-0.312208	-0.321528
Zn3	Zn	1.265430	-0.181710	-0.342082
Zn4	Zn	1.265409	-0.291636	-0.451962
O5	O	1.343109	-0.231757	-0.401958
O6	O	1.579827	-0.155892	-0.477875
O7	O	1.332979	-0.320345	-0.206817
O8	O	1.324291	-0.058915	-0.387470
O9	O	1.521876	-0.281330	-0.352439
O10	O	1.467415	-0.029354	-0.497805
O11	O	1.247806	-0.224469	-0.221918
O12	O	1.135374	-0.204521	-0.348395
O13	O	1.324256	-0.246268	-0.574745
O14	O	1.135359	-0.285284	-0.429124
O15	O	1.467395	-0.135945	-0.604352
O16	O	1.332959	-0.426936	-0.313364
O17	O	1.247771	-0.411822	-0.409193
C18	C	1.101645	-0.247037	-0.386617
C19	C	0.998346	-0.253590	-0.380070
C20	C	0.822581	-0.328062	-0.305470
C21	C	0.919639	-0.321909	-0.311621
C22	C	0.979990	-0.191418	-0.442371
C23	C	0.882932	-0.197571	-0.436220
C24	C	0.804230	-0.265896	-0.367768
C25	C	0.707171	-0.272053	-0.361621
C26	C	0.767523	-0.141559	-0.492367
C27	C	0.864581	-0.135405	-0.498518
C28	C	1.281834	-0.449829	-0.354695
C29	C	1.255713	-0.543109	-0.334509
C30	C	1.542225	-0.772604	-0.555610
C31	C	1.517646	-0.860260	-0.536626
C32	C	1.368661	-0.891167	-0.421635
C33	C	1.393229	-0.803512	-0.440607
C34	C	1.480012	-0.744237	-0.507596
C35	C	1.331016	-0.775145	-0.392592
C36	C	1.355580	-0.687497	-0.411566
C37	C	1.442357	-0.628216	-0.478553
C38	C	1.504576	-0.656589	-0.526569
C39	C	1.244231	-0.834421	-0.325608
C40	C	1.182018	-0.806054	-0.277594
C41	C	1.206585	-0.718405	-0.296563
C42	C	1.293362	-0.659124	-0.363550
C43	C	1.144366	-0.690033	-0.248547
C44	C	1.168930	-0.602385	-0.267520
C45	C	1.317926	-0.571476	-0.382524
C46	C	1.585516	-0.216417	-0.417359
C47	C	1.688815	-0.209881	-0.423923
C48	C	1.404622	-0.184324	-0.620850
C49	C	1.430835	-0.164110	-0.714129
C50	C	1.404654	-0.012828	-0.449425
C51	C	1.430881	0.080467	-0.469653
C52	C	1.144455	-0.384835	-0.943839
C53	C	1.169109	-0.365829	-1.031492
C54	C	1.318147	-0.250959	-1.062308
C55	C	1.293504	-0.269952	-0.974657
C56	C	1.206657	-0.336891	-0.915428
C57	C	1.355705	-0.222009	-0.946246
C58	C	1.331066	-0.241004	-0.858601
C59	C	1.244225	-0.307941	-0.799367
C60	C	1.182017	-0.355886	-0.827783
C61	C	1.442555	-0.155074	-1.005475
C62	C	1.504757	-0.107131	-0.977064
C63	C	1.480114	-0.126121	-0.889419
C64	C	1.393273	-0.193059	-0.830185
C65	C	1.542321	-0.078177	-0.861002
C66	C	1.517682	-0.097171	-0.773358
C67	C	1.368633	-0.212054	-0.742540
C68	C	1.281906	-0.278941	-0.183934
C69	C	1.255939	-0.298907	-0.090718
H70	H	0.758500	-0.383700	-0.249739
Cl71	Cl	1.090721	-0.566720	-0.207157
Cl72	Cl	1.213455	-0.944627	-0.301639
Cl73	Cl	1.595872	-0.895918	-0.596990
Cl74	Cl	1.259562	-0.965691	-0.337429
Cl75	Cl	1.259446	-0.296201	-0.668075
H76	H	1.111281	-0.410376	-0.779558
Cl77	Cl	1.473021	-0.517990	-0.502653
H78	H	1.575248	-0.608324	-0.581113
Cl79	Cl	0.942705	-0.400062	-0.233298
Cl80	Cl	1.213250	-0.331826	-0.689182
H81	H	1.612897	-0.724339	-0.610154
H82	H	1.575469	-0.052631	-1.025299
Cl83	Cl	1.078941	-0.105529	-0.528414
Cl84	Cl	1.072919	-0.880577	-0.193388
Cl85	Cl	0.963527	-0.049516	-0.584567
H86	H	0.752574	-0.090940	-0.543096
H87	H	1.073719	-0.439325	-0.895614
H88	H	1.118450	-0.404876	-1.054618
H89	H	1.388598	-0.523212	-0.437067
H90	H	1.073704	-0.738306	-0.194010
Cl91	Cl	1.427324	-0.166812	-1.136774
Cl92	Cl	1.473533	-0.131198	-1.115658
H93	H	1.613037	-0.023680	-0.909238
H94	H	0.643091	-0.327689	-0.305886
H95	H	1.568332	-0.058130	-0.750226
