data_functionalizedCrystal
_audit_creation_method	'MofGen! by Chris Wilmer'
_symmetry_space_group_name_H-M	'P1'
_symmetry_Int_Tables_number	1
_symmetry_cell_setting	triclinic
loop_
_symmetry_equiv_pos_as_xyz
  x,y,z
_cell_length_a	11.792241
_cell_length_b	12.837942
_cell_length_c	11.892095
_cell_angle_alpha	85.697431
_cell_angle_beta	86.078452
_cell_angle_gamma	90.488822
loop_
_atom_site_label
_atom_site_type_symbol
_atom_site_fract_x
_atom_site_fract_y
_atom_site_fract_z
O1	O	1.527863	-0.135586	-0.093891
O2	O	1.199010	-0.150236	-0.093918
O3	O	1.356144	0.008033	-0.093898
O4	O	1.370729	-0.293854	-0.093911
O5	O	1.343041	-0.005143	0.094108
O6	O	1.185906	-0.163411	0.094088
O7	O	1.514760	-0.148761	0.094114
Zn8	Zn	1.348253	-0.158178	0.123951
Zn9	Zn	1.365517	-0.140819	-0.123755
O10	O	1.357626	-0.307030	0.094095
C11	C	1.344666	0.040093	0.000104
C12	C	1.329972	0.155253	0.000101
C13	C	1.150074	-0.155903	0.000082
C14	C	1.023782	-0.153148	0.000072
N15	N	1.336478	-0.170025	0.293004
C16	C	0.792554	-0.148084	0.000105
C17	C	0.921226	-0.150898	0.000087
C18	C	1.563696	-0.143094	0.000112
C19	C	1.689989	-0.145849	0.000115
C20	C	1.369104	-0.339090	0.000091
C21	C	1.383798	-0.454249	0.000086
C22	C	1.506619	0.395219	0.000091
C23	C	1.492818	0.503423	0.000088
C24	C	1.288572	0.479866	0.000084
C25	C	1.302373	0.371663	0.000087
C26	C	1.411399	0.329343	0.000092
C27	C	1.425198	0.221137	0.000103
C28	C	1.220954	0.197583	0.000091
C29	C	1.207153	0.305787	0.000088
N30	N	1.377300	-0.128964	-0.292807
C31	C	1.459226	-0.046469	0.529667
C32	C	1.451005	-0.054757	0.648008
C33	C	1.311809	-0.194885	0.648029
C34	C	1.320030	-0.186596	0.529688
C35	C	1.393742	-0.112387	0.470511
C36	C	1.401969	-0.104104	0.352168
C37	C	1.262768	-0.244226	0.352191
C38	C	1.254547	-0.252515	0.470532
H39	H	1.595392	0.360762	0.000107
O40	O	1.473432	-0.031860	0.294757
C41	C	1.522982	0.150643	0.258679
C42	C	1.441958	0.068923	0.323726
H43	H	1.497580	0.232143	0.282094
H44	H	1.517627	0.145369	0.163915
H45	H	1.613784	0.134902	0.281933
H46	H	1.351121	0.084610	0.300566
H47	H	1.447411	0.074216	0.418474
O48	O	1.182782	-0.324488	0.527973
C49	C	0.989377	-0.386639	0.564160
C50	C	1.070519	-0.305050	0.499060
H51	H	0.898598	-0.370965	0.540790
H52	H	0.994647	-0.381238	0.658916
H53	H	1.014836	-0.468173	0.540908
H54	H	1.045115	-0.223479	0.522218
H55	H	1.065236	-0.310543	0.404320
H56	H	1.143419	0.143934	0.000100
O57	O	1.530850	0.025697	0.472351
C58	C	1.668111	0.163756	0.484815
C59	C	1.587021	0.082091	0.549863
H60	H	1.713565	0.209358	0.547455
H61	H	1.617377	0.219826	0.429450
H62	H	1.733485	0.122483	0.429371
H63	H	1.521631	0.123275	0.605369
H64	H	1.637831	0.026026	0.605157
H65	H	1.513973	0.186683	0.000112
H66	H	1.570356	0.557056	0.000084
H67	H	1.504327	-0.001079	0.696169
H68	H	1.251786	-0.255297	0.696226
O69	O	1.101182	0.346766	0.000233
C70	C	0.915632	0.352967	0.097666
C71	C	1.035595	0.306466	0.097626
H72	H	0.862578	0.320420	0.176412
H73	H	0.873385	0.331356	0.019041
H74	H	0.922151	0.441622	0.097606
H75	H	1.029177	0.217807	0.097727
H76	H	1.077797	0.328160	0.176244
H77	H	1.209450	-0.297904	0.304013
H78	H	1.199808	0.514343	0.000067
