data_functionalizedCrystal
_audit_creation_method	'MofGen! by Chris Wilmer'
_symmetry_space_group_name_H-M	'P1'
_symmetry_Int_Tables_number	1
_symmetry_cell_setting	triclinic
loop_
_symmetry_equiv_pos_as_xyz
  x,y,z
_cell_length_a	14.519709
_cell_length_b	7.681481
_cell_length_c	8.559649
_cell_angle_alpha	94.930900
_cell_angle_beta	103.270595
_cell_angle_gamma	95.739713
loop_
_atom_site_label
_atom_site_type_symbol
_atom_site_fract_x
_atom_site_fract_y
_atom_site_fract_z
O1	O	1.199063	-0.146196	-0.224489
O2	O	0.928812	-0.146249	-0.249156
O3	O	1.087747	-0.146216	-0.004288
O4	O	1.040128	-0.146229	-0.469357
O5	O	1.107314	0.146646	0.025920
O6	O	0.948379	0.146613	-0.218948
O7	O	1.218630	0.146666	-0.194281
Zn8	Zn	1.086611	0.193138	-0.201819
Zn9	Zn	1.060831	-0.192720	-0.241618
O10	O	1.059695	0.146633	-0.439149
C11	C	0.904318	0.000175	-0.232903
C12	C	0.802183	0.000155	-0.229461
N13	N	1.104212	0.456476	-0.174655
N14	N	1.043238	-0.456058	-0.268769
C15	C	0.428202	0.000235	-0.216774
C16	C	0.532256	0.000212	-0.220297
C17	C	0.615189	0.000193	-0.223117
C18	C	0.719249	0.000174	-0.226641
C19	C	1.243124	0.000238	-0.210534
C20	C	1.345258	0.000247	-0.213977
C21	C	1.101139	0.000213	0.070335
C22	C	1.111880	0.000205	0.247684
C23	C	1.046303	0.000201	-0.513773
C24	C	1.035561	0.000197	-0.691123
H25	H	0.980995	0.468732	-0.364830
Br26	Br	1.207974	0.581833	-0.014556
H27	H	0.962003	0.000188	0.225590
Br28	Br	1.234495	0.000261	0.386508
