data_functionalizedCrystal
_audit_creation_method	'MofGen! by Chris Wilmer'
_symmetry_space_group_name_H-M	'P1'
_symmetry_Int_Tables_number	1
_symmetry_cell_setting	triclinic
loop_
_symmetry_equiv_pos_as_xyz
  x,y,z
_cell_length_a	17.699083
_cell_length_b	10.654550
_cell_length_c	16.176319
_cell_angle_alpha	89.994395
_cell_angle_beta	89.998611
_cell_angle_gamma	83.883959
loop_
_atom_site_label
_atom_site_type_symbol
_atom_site_fract_x
_atom_site_fract_y
_atom_site_fract_z
O1	O	1.005088	0.158809	-0.068628
O2	O	0.784841	0.179470	-0.068655
O3	O	0.900029	-0.013688	-0.068638
O4	O	0.889901	0.351967	-0.068646
O5	O	0.900013	-0.013701	0.068855
O6	O	0.784825	0.179458	0.068838
O7	O	1.005072	0.158797	0.068865
Cu8	Cu	0.894947	0.169126	0.081406
Cu9	Cu	0.894966	0.169141	-0.081196
O10	O	0.889885	0.351955	0.068848
C11	C	0.756632	0.178724	0.000088
C12	C	0.672599	0.176503	0.000078
C13	C	0.624699	0.289883	0.000076
C14	C	0.545743	0.287788	0.000086
C15	C	0.514688	0.172313	0.000093
C16	C	0.562594	0.058924	0.000098
C17	C	0.641549	0.061020	0.000093
C18	C	0.244177	0.050470	0.000118
C19	C	0.165216	0.048383	0.000121
C20	C	0.148371	0.277239	0.000112
C21	C	0.227326	0.279334	0.000107
C22	C	0.275225	0.165946	0.000116
C23	C	0.360839	0.168219	0.000106
C24	C	0.429076	0.170039	0.000097
C25	C	0.899277	-0.060479	0.000107
C26	C	0.897052	-0.199884	0.000104
C27	C	0.964873	-0.280557	0.000115
C28	C	0.962778	-0.411541	0.000109
C29	C	0.825036	-0.381166	0.000085
C30	C	0.827132	-0.250185	0.000085
C31	C	1.034794	-0.230256	0.000134
C32	C	1.102620	-0.310930	0.000146
C33	C	1.100525	-0.441914	0.000140
C34	C	1.030603	-0.492224	0.000122
C35	C	1.033282	0.159543	0.000120
C36	C	1.117314	0.161764	0.000125
C37	C	0.890637	0.398746	0.000100
C38	C	0.892861	0.538151	0.000098
N39	N	0.894940	0.169115	0.195771
N40	N	0.894980	0.169142	-0.195561
C41	C	0.945960	0.083619	0.239042
C42	C	0.945964	0.083618	0.325590
C43	C	0.894950	0.169120	0.368863
C44	C	0.843924	0.254619	0.325586
C45	C	0.843917	0.254614	0.239040
C46	C	0.843950	0.254643	0.674614
C47	C	0.843962	0.254644	0.761165
C48	C	0.945997	0.083647	0.761163
C49	C	0.945990	0.083642	0.674618
C50	C	0.894962	0.169136	0.631348
C51	C	0.894957	0.169135	0.537503
C52	C	0.894958	0.169128	0.462706
H53	H	0.139935	-0.045657	0.000127
C54	C	1.179526	-0.255594	0.000165
H55	H	1.171062	-0.166031	0.000174
H56	H	1.207490	-0.283288	-0.047777
H57	H	1.207469	-0.283311	0.048122
H58	H	0.649978	0.383916	0.000069
H59	H	0.802402	0.324258	0.639390
C60	C	0.493056	0.412506	0.000081
H61	H	0.522859	0.481579	0.000066
H62	H	0.461907	0.416449	0.048031
H63	H	0.461903	0.416446	-0.047869
C64	C	1.002075	-0.010435	0.191449
H65	H	1.032456	-0.061361	0.229619
H66	H	1.033813	0.034667	0.157677
H67	H	0.974569	-0.062662	0.157698
H68	H	1.028903	-0.598881	0.000108
H69	H	0.771906	-0.184498	0.000077
H70	H	0.283168	-0.041858	0.000126
C71	C	1.002094	-0.010415	0.373185
H72	H	1.032483	-0.061324	0.335018
H73	H	0.974608	-0.062642	0.406957
H74	H	1.033835	0.034715	0.406935
C75	C	0.261482	0.406357	0.000103
H76	H	0.221646	0.473584	0.000111
H77	H	0.291933	0.411940	-0.047844
H78	H	0.291932	0.411919	0.048056
C79	C	1.002103	-0.010413	0.627021
H80	H	1.032485	-0.061341	0.665188
H81	H	1.033840	0.034690	0.593248
H82	H	0.974594	-0.062637	0.593272
H83	H	0.768109	-0.422140	0.000072
H84	H	0.537303	-0.035099	0.000115
H85	H	0.987545	0.014029	0.796403
C86	C	0.694239	-0.063698	0.000087
H87	H	0.664437	-0.132772	0.000083
H88	H	0.725394	-0.067646	0.048030
H89	H	0.725386	-0.067628	-0.047869
C90	C	0.787831	0.348678	0.808765
H91	H	0.757431	0.399582	0.770601
H92	H	0.815319	0.400910	0.842523
H93	H	0.756101	0.303537	0.842530
H94	H	1.155752	-0.507596	0.000141
H95	H	0.802384	0.324232	0.360824
H96	H	0.802370	0.324231	0.203809
H97	H	0.109361	0.369564	0.000109
C98	C	1.037097	-0.086178	0.000138
H99	H	0.986691	-0.045335	0.000133
H100	H	1.063017	-0.062144	-0.047801
H101	H	1.062994	-0.062167	0.048099
