data_functionalizedCrystal
_audit_creation_method	'MofGen! by Chris Wilmer'
_symmetry_space_group_name_H-M	'P1'
_symmetry_Int_Tables_number	1
_symmetry_cell_setting	triclinic
loop_
_symmetry_equiv_pos_as_xyz
  x,y,z
_cell_length_a	12.759401
_cell_length_b	13.032721
_cell_length_c	13.032268
_cell_angle_alpha	76.710373
_cell_angle_beta	82.834547
_cell_angle_gamma	97.204304
loop_
_atom_site_label
_atom_site_type_symbol
_atom_site_fract_x
_atom_site_fract_y
_atom_site_fract_z
Zn1	Zn	1.458905	-0.499071	0.654137
Zn2	Zn	1.458791	-0.654155	0.499084
Zn3	Zn	1.308770	-0.476567	0.476563
Zn4	Zn	1.257631	-0.676630	0.676635
O5	O	1.371024	-0.576606	0.576605
O6	O	1.605908	-0.519655	0.633578
O7	O	1.460244	-0.611773	0.347476
O8	O	1.350136	-0.330921	0.481277
O9	O	1.605824	-0.633595	0.519662
O10	O	1.460440	-0.347455	0.611740
O11	O	1.350025	-0.481300	0.330930
O12	O	1.154968	-0.503093	0.503094
O13	O	1.262976	-0.671901	0.822272
O14	O	1.117396	-0.650079	0.650086
O15	O	1.410852	-0.541448	0.805742
O16	O	1.410656	-0.805767	0.541478
O17	O	1.262865	-0.822279	0.671924
C18	C	1.331224	-0.852564	0.611609
C19	C	1.314289	-0.970625	0.626620
C20	C	1.098062	-0.576584	0.576588
C21	C	0.981280	-0.576604	0.576609
C22	C	1.379912	-1.015062	0.568818
C23	C	1.362410	-1.137084	0.584331
C24	C	0.906882	-0.653234	0.653050
C25	C	0.797155	-0.653249	0.653063
C26	C	0.836234	-0.499999	0.500186
C27	C	0.945959	-0.499981	0.500178
C28	C	0.942203	-0.729857	0.729481
C29	C	0.867804	-0.806494	0.805926
C30	C	0.758076	-0.806509	0.805940
C31	C	0.722748	-0.729887	0.729507
C32	C	1.645052	-0.576628	0.576623
C33	C	1.761827	-0.576637	0.576630
C34	C	1.331223	-0.611692	0.853620
C35	C	1.314261	-0.626643	0.971667
C36	C	1.411005	-0.299572	0.541487
C37	C	1.428042	-0.181517	0.526522
C38	C	1.410743	-0.541579	0.300658
C39	C	1.427950	-0.526328	0.182573
C40	C	1.379866	-0.568764	1.016118
C41	C	1.362337	-0.584216	1.138126
H42	H	1.293269	-1.189373	0.645310
H43	H	1.497093	-0.465326	1.130307
H44	H	1.449056	-0.962772	0.507851
H45	H	0.807460	-0.437618	0.437957
C46	C	1.471924	-0.487360	0.946287
C47	C	1.431351	-0.411285	0.873957
C48	C	1.516127	-0.336288	0.809605
H49	H	1.510870	-0.452934	0.989859
H50	H	1.518001	-0.522521	0.908108
H51	H	1.385293	-0.376128	0.912133
H52	H	1.392414	-0.445679	0.830362
H53	H	1.562204	-0.371449	0.771426
H54	H	1.555068	-0.301870	0.853185
H55	H	1.488611	-0.284668	0.760515
H56	H	1.497191	-1.129229	0.465551
H57	H	1.245152	-1.022918	0.687595
H58	H	1.293183	-0.645205	1.190392
H59	H	1.031547	-0.729855	0.729477
C60	C	1.222160	-0.707961	1.041540
C61	C	1.223109	-0.707149	1.148666
C62	C	1.138290	-0.782058	1.213062
H63	H	1.156326	-0.690222	1.021580
H64	H	1.229827	-0.777076	1.032526
H65	H	1.215433	-0.638049	1.157675
H66	H	1.288924	-0.724899	1.168659
H67	H	1.145957	-0.851173	1.204048
H68	H	1.072462	-0.764312	1.193093
H69	H	1.138928	-0.781524	1.285755
C70	C	0.906368	-0.889621	0.888789
C71	C	1.018384	-0.873227	0.872403
C72	C	1.053944	-0.949792	0.948709
H73	H	0.880474	-0.883306	0.958270
H74	H	0.880409	-0.959001	0.882171
H75	H	1.044332	-0.803864	0.879030
H76	H	1.044306	-0.879552	0.802937
H77	H	1.027985	-1.019172	0.942091
H78	H	1.028043	-0.943470	1.018184
H79	H	1.129950	-0.938685	0.937595
H80	H	0.697502	-0.868903	0.868192
C81	C	1.026786	-0.416676	0.417341
C82	C	1.090908	-0.356294	0.468957
C83	C	1.165366	-0.279530	0.392682
H84	H	1.070506	-0.451230	0.376104
H85	H	0.990072	-0.370993	0.371830
H86	H	1.127620	-0.401970	0.514449
H87	H	1.047217	-0.321716	0.510189
H88	H	1.128652	-0.233847	0.347172
H89	H	1.209079	-0.314094	0.351449
H90	H	1.208875	-0.238545	0.427692
C91	C	0.603569	-0.730077	0.729697
C92	C	0.545971	-0.813585	0.813002
C93	C	0.436184	-0.813792	0.813213
H94	H	0.585861	-0.663966	0.739543
H95	H	0.585870	-0.739702	0.663484
H96	H	0.563662	-0.803952	0.879200
H97	H	0.563646	-0.879709	0.803175
H98	H	0.418486	-0.823417	0.747000
H99	H	0.418488	-0.747677	0.823056
H100	H	0.397091	-0.870456	0.869728
