data_functionalizedCrystal
_audit_creation_method	'MofGen! by Chris Wilmer'
_symmetry_space_group_name_H-M	'P1'
_symmetry_Int_Tables_number	1
_symmetry_cell_setting	triclinic
loop_
_symmetry_equiv_pos_as_xyz
  x,y,z
_cell_length_a	12.759401
_cell_length_b	29.839131
_cell_length_c	12.759393
_cell_angle_alpha	90.044470
_cell_angle_beta	90.020938
_cell_angle_gamma	90.036753
loop_
_atom_site_label
_atom_site_type_symbol
_atom_site_fract_x
_atom_site_fract_y
_atom_site_fract_z
Zn1	Zn	1.606117	-0.178813	0.593918
Zn2	Zn	1.605945	-0.253950	0.418195
Zn3	Zn	1.430415	-0.178837	0.418253
Zn4	Zn	1.430344	-0.253919	0.593833
O5	O	1.518205	-0.216380	0.506050
O6	O	1.753115	-0.188784	0.570620
O7	O	1.582618	-0.244010	0.271182
O8	O	1.453824	-0.115967	0.441616
O9	O	1.752988	-0.243986	0.441517
O10	O	1.582911	-0.115949	0.570676
O11	O	1.453657	-0.188824	0.271224
O12	O	1.283385	-0.188794	0.441533
O13	O	1.453703	-0.243933	0.740865
O14	O	1.283333	-0.243956	0.570530
O15	O	1.582842	-0.188753	0.740928
O16	O	1.582549	-0.316813	0.441434
O17	O	1.453536	-0.316790	0.570474
C18	C	1.245238	-0.216375	0.506029
C19	C	1.128461	-0.216383	0.506045
C20	C	1.073599	-0.245150	0.573108
C21	C	0.963875	-0.245151	0.573129
C22	C	0.963884	-0.187618	0.439014
C23	C	1.073606	-0.187615	0.439000
C24	C	0.813966	-0.261272	0.696980
C25	C	0.759101	-0.290045	0.764034
C26	C	0.794661	-0.333888	0.779957
C27	C	0.885086	-0.348966	0.728811
C28	C	0.939946	-0.320195	0.661749
C29	C	0.904386	-0.276346	0.645846
C30	C	1.223518	-0.171499	0.315147
C31	C	1.278380	-0.142730	0.248079
C32	C	1.242821	-0.098886	0.232146
C33	C	1.152393	-0.083810	0.283274
C34	C	1.097531	-0.112579	0.350341
C35	C	1.133097	-0.156422	0.366277
C36	C	1.518045	-0.333103	0.505961
C37	C	1.518072	-0.383037	0.505958
C38	C	1.585406	-0.692636	0.573347
C39	C	1.585520	-0.880309	0.573410
O40	O	1.642613	-0.904537	0.630641
N41	N	1.518384	-0.903822	0.506166
C42	C	1.451209	-0.880414	0.438907
O43	O	1.394100	-0.904719	0.381721
C44	C	1.451090	-0.692741	0.438850
C45	C	1.518239	-0.669231	0.506091
C46	C	1.652548	-0.669126	0.640583
C47	C	1.652523	-0.622211	0.640563
C48	C	1.585356	-0.598805	0.573306
C49	C	1.518214	-0.622316	0.506070
C50	C	1.383911	-0.669334	0.371596
C51	C	1.383885	-0.622413	0.371590
C52	C	1.451034	-0.598903	0.438831
C53	C	1.451021	-0.551995	0.438793
N54	N	1.518158	-0.528482	0.506037
C55	C	1.585325	-0.551888	0.573293
C56	C	1.451277	-0.978944	0.438940
C57	C	1.451308	-1.025862	0.438953
C58	C	1.585618	-1.025755	0.573458
C59	C	1.585592	-0.978836	0.573439
C60	C	1.518414	-0.955432	0.506184
C61	C	1.585268	-0.453362	0.573245
C62	C	1.585240	-0.406442	0.573215
C63	C	1.450926	-0.406554	0.438714
C64	C	1.450958	-0.453469	0.438739
C65	C	1.518132	-0.476872	0.506013
O66	O	1.393950	-0.527739	0.381601
O67	O	1.642409	-0.527574	0.630487
C68	C	1.585431	-0.739552	0.573368
C69	C	1.518289	-0.763062	0.506132
C70	C	1.451122	-0.739657	0.438875
C71	C	1.518320	-0.809980	0.506144
C72	C	1.585487	-0.833385	0.573401
C73	C	1.652624	-0.809872	0.640645
C74	C	1.652599	-0.762957	0.640624
C75	C	1.383985	-0.763170	0.371631
C76	C	1.384017	-0.810085	0.371656
C77	C	1.451184	-0.833490	0.438913
C78	C	1.792238	-0.216386	0.506071
C79	C	1.909015	-0.216388	0.506081
C80	C	1.518284	-0.216337	0.780083
C81	C	1.518317	-0.216318	0.896860
C82	C	1.518395	-0.099202	0.506162
C83	C	1.518475	-0.049267	0.506209
C84	C	1.518187	-0.216391	0.233082
C85	C	1.518357	-0.216282	0.116306
C86	C	1.585565	-0.187582	0.951756
C87	C	1.585583	-0.187562	1.061481
C88	C	1.451102	-0.245020	1.061402
C89	C	1.451080	-0.245037	0.951680
C90	C	1.623239	-0.134558	1.211489
C91	C	1.690504	-0.105825	1.266389
C92	C	1.793022	-0.098936	1.230802
C93	C	1.828297	-0.120786	1.140316
C94	C	1.761039	-0.149522	1.085421
C95	C	1.658506	-0.156403	1.121007
C96	C	1.413434	-0.298042	0.801670
C97	C	1.346180	-0.326781	0.746773
C98	C	1.243660	-0.333675	0.782359
C99	C	1.208388	-0.311832	0.872848
C100	C	1.275642	-0.283093	0.927744
C101	C	1.378162	-0.276199	0.892152
H102	H	1.252485	-0.207199	0.328124
H103	H	0.914026	-0.384669	0.741772
H104	H	1.396571	-0.959891	0.384170
C105	C	1.133936	-0.276792	0.646868
N106	N	1.179378	-0.300625	0.702429
C107	C	1.377041	-0.380799	0.364740
N108	N	1.321384	-0.361399	0.309029
C109	C	1.310079	-0.737430	0.297651
N110	N	1.254408	-0.718045	0.241926
H111	H	1.911782	-0.115178	1.111353
H112	H	0.749983	-0.357316	0.834555
C113	C	1.095609	-0.319414	0.911995
N114	N	1.010663	-0.325127	0.941478
C115	C	0.659641	-0.273457	0.820300
N116	N	0.584728	-0.260964	0.862679
H117	H	1.707317	-0.828937	0.695404
C118	C	1.303154	-0.067245	0.158337
N119	N	1.348588	-0.043415	0.102740
H120	H	0.785011	-0.225570	0.684033
H121	H	1.639924	-0.387302	0.627971
C122	C	1.726453	-0.694864	0.714569
N123	N	1.782131	-0.714247	0.770292
H124	H	1.352011	-0.155009	0.206447
C125	C	1.377448	-1.051718	0.364974
N126	N	1.321808	-1.071191	0.309256
H127	H	1.789761	-0.167314	1.011753
C128	C	1.310142	-0.835941	0.297681
N129	N	1.254494	-0.855414	0.241971
C130	C	0.998061	-0.095992	0.406589
N131	N	0.923142	-0.083499	0.448957
H132	H	0.919208	-0.164197	0.384427
C133	C	1.659170	-0.479098	0.647242
N134	N	1.714839	-0.498482	0.702971
C135	C	1.659455	-0.952979	0.647413
N136	N	1.715091	-0.933506	0.703135
H137	H	1.847789	-0.075541	1.275509
C138	C	1.377097	-0.479331	0.364766
N139	N	1.321457	-0.498807	0.309055
C140	C	1.651693	-0.081786	1.365914
N141	N	1.622465	-0.063681	1.440876
C142	C	1.309984	-0.596671	0.297600
N143	N	1.254323	-0.577283	0.241869
C144	C	1.659519	-0.155987	0.891458
N145	N	1.715219	-0.132186	0.846044
H146	H	1.640310	-1.044819	0.628220
H147	H	1.329232	-0.688468	0.316841
H148	H	1.707198	-0.603071	0.695319
C149	C	1.113275	-0.035579	0.265748
N150	N	1.083814	0.000749	0.252544
C151	C	1.510458	-0.142128	1.250636
N152	N	1.425510	-0.147831	1.280127
C153	C	1.377143	-0.276608	1.121715
N154	N	1.321435	-0.300401	1.167141
C155	C	1.236837	-0.259064	1.027282
N156	N	1.207609	-0.240964	1.102253
C157	C	1.169683	-0.365291	0.721969
N158	N	1.113962	-0.389102	0.676485
C159	C	1.384986	-0.350811	0.647235
N160	N	1.414213	-0.368909	0.572263
H161	H	1.496913	-0.292428	0.772682
C162	C	1.039410	-0.336777	0.605494
N163	N	1.114333	-0.349268	0.563129
H164	H	1.707277	-0.743818	0.695378
