data_functionalizedCrystal
_audit_creation_method	'MofGen! by Chris Wilmer'
_symmetry_space_group_name_H-M	'P1'
_symmetry_Int_Tables_number	1
_symmetry_cell_setting	triclinic
loop_
_symmetry_equiv_pos_as_xyz
  x,y,z
_cell_length_a	12.827893
_cell_length_b	12.645330
_cell_length_c	12.827885
_cell_angle_alpha	89.968887
_cell_angle_beta	89.980918
_cell_angle_gamma	90.012807
loop_
_atom_site_label
_atom_site_type_symbol
_atom_site_fract_x
_atom_site_fract_y
_atom_site_fract_z
Zn1	Zn	1.597690	-0.421983	-0.590834
Zn2	Zn	1.597592	-0.599284	-0.416090
Zn3	Zn	1.422931	-0.422036	-0.416108
Zn4	Zn	1.422925	-0.599206	-0.590791
O5	O	1.510284	-0.510627	-0.503456
O6	O	1.743913	-0.445514	-0.567664
O7	O	1.574385	-0.575826	-0.269856
O8	O	1.446156	-0.273681	-0.439311
O9	O	1.743841	-0.575776	-0.439281
O10	O	1.574551	-0.273643	-0.567682
O11	O	1.446062	-0.445603	-0.269869
O12	O	1.276694	-0.445527	-0.439269
O13	O	1.446146	-0.575642	-0.737032
O14	O	1.276689	-0.575693	-0.567608
O15	O	1.574545	-0.445438	-0.737064
O16	O	1.574379	-0.747621	-0.439239
O17	O	1.446051	-0.747563	-0.567591
C18	C	1.238774	-0.510608	-0.503437
C19	C	1.122621	-0.510625	-0.503453
C20	C	0.950817	-0.575152	-0.566877
C21	C	1.070868	-0.575136	-0.566861
C22	C	1.510232	-0.786057	-0.503431
C23	C	1.510305	-0.903887	-0.503455
C24	C	1.590906	-1.071443	-0.422545
C25	C	1.591169	-0.948883	-0.422743
C26	C	1.540172	-0.948261	-0.613609
C27	C	1.540811	-1.070859	-0.613179
C28	C	1.399806	-1.071217	-0.475298
C29	C	1.400335	-0.948613	-0.472827
C30	C	1.782854	-0.510648	-0.503475
C31	C	1.899007	-0.510656	-0.503484
C32	C	1.510355	-0.510525	-0.776026
C33	C	1.510386	-0.510482	-0.892179
C34	C	1.510365	-0.234122	-0.503503
C35	C	1.510400	-0.116292	-0.503524
C36	C	1.573929	-0.446040	-0.943980
C37	C	1.573961	-0.445994	-1.064030
C38	C	1.510274	-0.510652	-0.231946
C39	C	1.510446	-0.510397	-0.115793
H40	H	1.078073	-0.455401	-0.449181
C41	C	1.319803	-1.109677	-0.554019
C42	C	1.274404	-1.022591	-0.603855
C43	C	1.200719	-1.057981	-0.676391
H44	H	1.267314	-1.149173	-0.519150
H45	H	1.353113	-1.153253	-0.604304
H46	H	1.241094	-0.979033	-0.553578
H47	H	1.326867	-0.983086	-0.638746
H48	H	1.234029	-1.101557	-0.726676
H49	H	1.148237	-1.097477	-0.641513
H50	H	1.169913	-0.998900	-0.710220
H51	H	1.628302	-0.390900	-0.899451
H52	H	0.943528	-0.455431	-0.449195
H53	H	1.377816	-0.919622	-0.391763
C54	C	1.648681	-1.108675	-0.645019
C55	C	1.712664	-1.021138	-0.664469
C56	C	1.812047	-1.055926	-0.693787
H57	H	1.643518	-1.150439	-0.706328
H58	H	1.677868	-1.149877	-0.590390
H59	H	1.683484	-0.979953	-0.719095
H60	H	1.717858	-0.979365	-0.603174
H61	H	1.841234	-1.097129	-0.639157
H62	H	1.806873	-1.097691	-0.755094
H63	H	1.855474	-0.996539	-0.706978
H64	H	0.906297	-0.630386	-0.621158
C65	C	1.363530	-1.112349	-0.369996
C66	C	1.347039	-1.027023	-0.302467
C67	C	1.313622	-1.064873	-0.205456
H68	H	1.415253	-1.157701	-0.341560
H69	H	1.300309	-1.150540	-0.378435
H70	H	1.410252	-0.988848	-0.294026
H71	H	1.295310	-0.981663	-0.330870
H72	H	1.250400	-1.103064	-0.213894
H73	H	1.365349	-1.110225	-0.177030
H74	H	1.302419	-1.006985	-0.159629
H75	H	1.672380	-1.102172	-0.441006
C76	C	1.566430	-0.908723	-0.313853
C77	C	1.649698	-0.847400	-0.277478
C78	C	1.626945	-0.810380	-0.177174
H79	H	1.555948	-0.967079	-0.268382
H80	H	1.504995	-0.866830	-0.315962
H81	H	1.711115	-0.889291	-0.275362
H82	H	1.660192	-0.789029	-0.322920
H83	H	1.565511	-0.768487	-0.179283
H84	H	1.616463	-0.868742	-0.131713
H85	H	1.683434	-0.768761	-0.152485
H86	H	1.572454	-1.101002	-0.340629
C87	C	1.700443	-0.909866	-0.447717
C88	C	1.766489	-0.996680	-0.462684
C89	C	1.867160	-0.960780	-0.485712
H90	H	1.725640	-0.868206	-0.391513
H91	H	1.698735	-0.868295	-0.509406
H92	H	1.768201	-1.038234	-0.401002
H93	H	1.741325	-1.038349	-0.518891
H94	H	1.865452	-0.919209	-0.547401
H95	H	1.892346	-0.919120	-0.429505
H96	H	1.911982	-1.019677	-0.495880
C97	C	1.130213	-0.648635	-0.639410
C98	C	1.103806	-0.625686	-0.742872
C99	C	1.158466	-0.693364	-0.809735
H100	H	1.112410	-0.719902	-0.624152
H101	H	1.203014	-0.638829	-0.629852
H102	H	1.031021	-0.635501	-0.752424
H103	H	1.121612	-0.554431	-0.758162
H104	H	1.231268	-0.683557	-0.800177
H105	H	1.140659	-0.764626	-0.794468
H106	H	1.140564	-0.677795	-0.879941
H107	H	1.628366	-0.390826	-1.108577
H108	H	1.456045	-0.565575	-1.071253
H109	H	1.484742	-1.100522	-0.675593
C110	C	1.438052	-0.584142	-0.951594
C111	C	1.497280	-0.652028	-1.014227
C112	C	1.430682	-0.719910	-1.068960
H113	H	1.392557	-0.543658	-0.994263
H114	H	1.398202	-0.624641	-0.903559
H115	H	1.537112	-0.611533	-1.062257
H116	H	1.542772	-0.692534	-0.971584
H117	H	1.390832	-0.760409	-1.020925
H118	H	1.385191	-0.679418	-1.111624
H119	H	1.470859	-0.765985	-1.111456
H120	H	1.483320	-0.919111	-0.675560
H121	H	1.337116	-0.917994	-0.527483
H122	H	1.620097	-0.917471	-0.637917
