data_functionalizedCrystal
_audit_creation_method	'MofGen! by Chris Wilmer'
_symmetry_space_group_name_H-M	'P1'
_symmetry_Int_Tables_number	1
_symmetry_cell_setting	triclinic
loop_
_symmetry_equiv_pos_as_xyz
  x,y,z
_cell_length_a	22.010155
_cell_length_b	10.540539
_cell_length_c	10.540539
_cell_angle_alpha	95.474508
_cell_angle_beta	89.986937
_cell_angle_gamma	90.000085
loop_
_atom_site_label
_atom_site_type_symbol
_atom_site_fract_x
_atom_site_fract_y
_atom_site_fract_z
O1	O	0.050493	-1.685885	0.178872
O2	O	0.550493	-1.185885	0.678872
O3	O	0.050501	-1.316472	0.195728
O4	O	0.550501	-0.816472	0.695728
O5	O	0.050496	-1.509607	0.002593
O6	O	0.550496	-1.009607	0.502593
O7	O	0.050498	-1.492751	0.372006
O8	O	0.550498	-0.992751	0.872006
O9	O	-0.050554	-1.509594	0.002644
O10	O	0.449446	-1.009594	0.502644
O11	O	-0.050550	-1.316459	0.195779
O12	O	0.449450	-0.816459	0.695779
O13	O	-0.050557	-1.685872	0.178923
O14	O	0.449443	-1.185872	0.678923
Cu15	Cu	-0.059780	-1.501165	0.187356
Cu16	Cu	0.440220	-1.001165	0.687356
Cu17	Cu	0.059724	-1.501180	0.187295
Cu18	Cu	0.559724	-1.001180	0.687295
O19	O	-0.050552	-1.492738	0.372057
O20	O	0.449448	-0.992738	0.872057
C21	C	-0.000024	-1.269163	0.194489
C22	C	0.499976	-0.769163	0.694489
C23	C	-0.000021	-1.128215	0.190707
C24	C	0.499979	-0.628215	0.690707
C25	C	-0.000028	-1.508336	-0.044684
C26	C	0.499972	-1.008336	0.455316
C27	C	-0.000025	-1.504554	-0.185632
C28	C	0.499975	-1.004554	0.314368
N29	N	-0.143833	-1.501163	0.187397
N30	N	0.356167	-1.001163	0.687397
C31	C	-0.436443	-1.415612	0.272816
C32	C	0.063557	-0.915612	0.772816
C33	C	-0.372835	-1.415609	0.272827
C34	C	0.127165	-0.915609	0.772827
O35	O	-0.339942	-1.342834	0.345505
O36	O	0.160058	-0.842834	0.845505
N37	N	-0.341017	-1.501153	0.187349
N38	N	0.158983	-1.001153	0.687349
C39	C	-0.372809	-1.586696	0.101845
C40	C	0.127191	-1.086696	0.601845
O41	O	-0.339905	-1.659456	0.029139
O42	O	0.160095	-1.159456	0.529139
C43	C	-0.436416	-1.586692	0.101829
C44	C	0.063584	-1.086692	0.601829
C45	C	-0.468231	-1.501152	0.187321
C46	C	0.031769	-1.001152	0.687321
C47	C	-0.468257	-1.330078	0.358301
C48	C	0.031743	-0.830078	0.858301
C49	C	-0.531861	-1.330083	0.358291
C50	C	-0.031861	-0.830083	0.858291
C51	C	-0.563649	-1.415622	0.272796
C52	C	-0.063649	-0.915622	0.772796
C53	C	-0.531834	-1.501157	0.187311
C54	C	-0.031834	-1.001157	0.687311
C55	C	-0.468207	-1.672228	0.016319
C56	C	0.031793	-1.172228	0.516319
C57	C	-0.531818	-1.672216	0.016310
C58	C	-0.031818	-1.172216	0.516310
C59	C	-0.563633	-1.586676	0.101802
C60	C	-0.063633	-1.086676	0.601802
C61	C	-0.627226	-1.586701	0.101806
C62	C	-0.127226	-1.086701	0.601806
N63	N	-0.659044	-1.501158	0.187284
N64	N	-0.159044	-1.001158	0.687284
C65	C	-0.627255	-1.415618	0.272779
C66	C	-0.127255	-0.915618	0.772779
C67	C	-0.239232	-1.586696	0.101885
C68	C	0.260768	-1.086696	0.601885
C69	C	-0.175626	-1.586707	0.101906
C70	C	0.324374	-1.086707	0.601906
C71	C	-0.175656	-1.415619	0.272888
C72	C	0.324344	-0.915619	0.772888
C73	C	-0.239263	-1.415615	0.272871
C74	C	0.260737	-0.915615	0.772871
C75	C	-0.271050	-1.501153	0.187363
C76	C	0.228950	-1.001153	0.687363
C77	C	-0.760827	-1.415636	0.272752
C78	C	-0.260827	-0.915636	0.772752
C79	C	-0.824436	-1.415652	0.272738
C80	C	-0.324436	-0.915652	0.772738
C81	C	-0.824400	-1.586736	0.101753
C82	C	-0.324400	-1.086736	0.601753
C83	C	-0.760797	-1.586725	0.101771
C84	C	-0.260797	-1.086725	0.601771
C85	C	-0.729012	-1.501164	0.187276
C86	C	-0.229012	-1.001164	0.687276
O87	O	-0.660159	-1.659435	0.029162
O88	O	-0.160159	-1.159435	0.529162
O89	O	-0.660168	-1.342859	0.345461
O90	O	-0.160168	-0.842859	0.845461
N91	N	0.143776	-1.501192	0.187243
N92	N	0.643776	-1.001192	0.687243
C93	C	-0.000031	-1.733182	0.180161
C94	C	0.499969	-1.233182	0.680161
C95	C	-0.000030	-1.874130	0.183943
C96	C	0.499970	-1.374130	0.683943
C97	C	-0.000257	-0.944788	0.045790
C98	C	0.499743	-0.444788	0.545790
C99	C	-0.000023	-1.091406	0.049624
C100	C	0.499977	-0.591406	0.549624
C101	C	0.057682	-1.066550	0.258573
C102	C	0.557682	-0.566550	0.758573
C103	C	0.057724	-0.920005	0.253758
C104	C	0.557724	-0.420005	0.753758
C105	C	-0.057189	-0.919502	0.256687
C106	C	0.442811	-0.419502	0.756687
C107	C	-0.057946	-1.066484	0.257986
C108	C	0.442054	-0.566484	0.757986
C109	C	0.000205	-1.359637	-0.369059
C110	C	0.500205	-0.859637	0.130941
C111	C	-0.000023	-1.363471	-0.222441
C112	C	0.499977	-0.863471	0.277559
C113	C	-0.057731	-1.572442	-0.247261
C114	C	0.442269	-1.072442	0.252739
C115	C	-0.057779	-1.567627	-0.393805
C116	C	0.442221	-1.067627	0.106195
C117	C	0.057134	-1.570512	-0.394382
C118	C	0.557134	-1.070512	0.105618
C119	C	0.057897	-1.571811	-0.247400
C120	C	0.557897	-1.071811	0.252600
C121	C	-0.000027	-1.494008	0.419335
C122	C	0.499973	-0.994008	0.919335
C123	C	-0.000026	-1.497790	0.560283
C124	C	0.499974	-0.997790	1.060283
H125	H	-0.850337	-1.345995	0.342361
H126	H	-0.350337	-0.845995	0.842361
H127	H	-0.061429	-1.090710	0.360847
H128	H	0.438571	-0.590710	0.860847
H129	H	-0.734954	-1.345964	0.342376
H130	H	-0.234954	-0.845964	0.842376
F131	F	-0.113742	-1.119890	0.193081
F132	F	0.386258	-0.619890	0.693081
F133	F	-0.273057	-1.677752	0.010878
F134	F	0.226943	-1.177752	0.510878
F135	F	0.061148	-0.857303	0.386376
F136	F	0.561148	-0.357303	0.886376
F137	F	-0.565715	-1.239035	0.449277
F138	F	-0.065715	-0.739035	0.949277
H139	H	-0.442313	-1.741881	-0.053297
H140	H	0.057687	-1.241881	0.446703
H141	H	-0.040943	-1.304127	-0.399246
H142	H	0.459057	-0.804127	0.100754
F143	F	-0.726938	-1.677781	0.010793
F144	F	-0.226938	-1.177781	0.510793
H145	H	-0.041455	-1.309667	-0.180664
H146	H	0.458545	-0.809667	0.319336
H147	H	-0.557696	-1.741870	-0.053325
H148	H	-0.057696	-1.241870	0.446675
F149	F	-0.858241	-1.677772	0.010769
F150	F	-0.358241	-1.177772	0.510769
H151	H	0.100871	-1.524856	-0.425957
H152	H	0.600871	-1.024856	0.074043
F153	F	-0.434435	-1.239027	0.449302
F154	F	0.065565	-0.739027	0.949302
H155	H	0.100625	-1.109144	0.211387
H156	H	0.600625	-0.609144	0.711387
H157	H	0.059829	-1.088903	0.362180
H158	H	0.559829	-0.588903	0.862180
F159	F	-0.114157	-1.502029	-0.430639
F160	F	0.385843	-1.002029	0.069361
H161	H	-0.057578	-0.872275	0.358590
H162	H	0.442422	-0.372275	0.858590
H163	H	0.041343	-1.310052	-0.179859
H164	H	0.541343	-0.810052	0.320141
F165	F	0.113703	-1.507394	-0.193429
F166	F	0.613703	-1.007394	0.306571
H167	H	-0.100927	-0.887950	0.211051
H168	H	0.399073	-0.387950	0.711051
F169	F	0.114101	-0.883136	0.188139
F170	F	0.614101	-0.383136	0.688139
F171	F	0.062453	-1.706257	-0.215738
F172	F	0.562453	-1.206257	0.284262
F173	F	-0.054347	-0.907412	-0.027033
F174	F	0.445653	-0.407412	0.472967
H175	H	0.057520	-1.672416	-0.441608
H176	H	0.557520	-1.172416	0.058392
F177	F	-0.061210	-1.700246	-0.456505
F178	F	0.438790	-1.200246	0.043495
H179	H	0.041587	-1.303911	-0.397680
H180	H	0.541587	-0.803911	0.102320
F181	F	-0.054088	-1.147103	-0.020178
F182	F	0.445912	-0.647103	0.479822
F183	F	0.053526	-0.905306	-0.026788
F184	F	0.553526	-0.405306	0.473212
H185	H	-0.059878	-1.676050	-0.224906
H186	H	0.440122	-1.176050	0.275094
H187	H	-0.100672	-1.525273	-0.204639
H188	H	0.399328	-1.025273	0.295361
F189	F	-0.273117	-1.324571	0.363862
F190	F	0.226883	-0.824571	0.863862
H191	H	-0.149727	-1.656375	0.032304
H192	H	0.350273	-1.156375	0.532304
F193	F	-0.141813	-1.324578	0.363877
F194	F	0.358187	-0.824578	0.863877
F195	F	0.054220	-1.145948	-0.020438
F196	F	0.554220	-0.645948	0.479562
