data_functionalizedCrystal
_audit_creation_method	'MofGen! by Chris Wilmer'
_symmetry_space_group_name_H-M	'P1'
_symmetry_Int_Tables_number	1
_symmetry_cell_setting	triclinic
loop_
_symmetry_equiv_pos_as_xyz
  x,y,z
_cell_length_a	10.908891
_cell_length_b	10.065875
_cell_length_c	17.699091
_cell_angle_alpha	98.772671
_cell_angle_beta	71.685082
_cell_angle_gamma	83.443185
loop_
_atom_site_label
_atom_site_type_symbol
_atom_site_fract_x
_atom_site_fract_y
_atom_site_fract_z
O1	O	-1.723043	0.113483	0.130444
O2	O	-1.223043	0.613483	0.630444
O3	O	-1.348998	0.113487	0.071317
O4	O	-0.848998	0.613487	0.571317
O5	O	-1.546582	0.113479	0.212387
O6	O	-1.046582	0.613479	0.712387
O7	O	-1.525459	0.113490	-0.010626
O8	O	-1.025459	0.613490	0.489374
O9	O	-1.508905	-0.113508	0.185398
O10	O	-1.008905	0.386492	0.685398
O11	O	-1.311321	-0.113501	0.044328
O12	O	-0.811321	0.386499	0.544328
O13	O	-1.685366	-0.113505	0.103455
O14	O	-1.185366	0.386495	0.603455
Zn15	Zn	-1.492362	-0.149542	0.069606
Zn16	Zn	-0.992362	0.350458	0.569606
Zn17	Zn	-1.542003	0.149524	0.105166
Zn18	Zn	-1.042003	0.649524	0.605166
O19	O	-1.487782	-0.113498	-0.037615
O20	O	-0.987782	0.386502	0.462385
C21	C	-1.282301	-0.000007	0.052297
C22	C	-0.782301	0.499993	0.552297
C23	C	-1.139698	-0.000005	0.035841
C24	C	-0.639698	0.499995	0.535841
C25	C	-1.090873	-0.000008	0.095884
C26	C	-0.590873	0.499992	0.595884
C27	C	-0.943486	-0.000006	0.078877
C28	C	-0.443486	0.499994	0.578877
N29	N	-1.458492	-0.353646	0.045340
N30	N	-0.958492	0.146354	0.545340
C31	C	-1.530210	-0.421428	0.096726
C32	C	-1.030210	0.078572	0.596726
C33	C	-1.504154	-0.578594	0.078046
C34	C	-1.004154	-0.078594	0.578046
C35	C	-0.752063	-0.000010	0.122475
C36	C	-0.252063	0.499990	0.622475
C37	C	-0.894666	-0.000008	0.138928
C38	C	-0.394666	0.499992	0.638928
C39	C	-1.526986	-0.000013	0.226995
C40	C	-1.026986	0.499987	0.726995
C41	C	-1.524711	-0.000008	0.310729
C42	C	-1.024711	0.499992	0.810729
N43	N	-1.575882	0.353628	0.129440
N44	N	-1.075882	0.853628	0.629440
C45	C	-1.544182	0.123724	0.364775
C46	C	-1.044182	0.623724	0.864775
C47	C	-1.542036	0.123724	0.443451
C48	C	-1.042036	0.623724	0.943451
C49	C	-1.520426	-0.000009	0.468080
C50	C	-1.020426	0.499991	0.968080
C51	C	-1.500949	-0.123750	0.414026
C52	C	-1.000949	0.376250	0.914026
C53	C	-1.503087	-0.123749	0.335351
C54	C	-1.003087	0.376251	0.835351
C55	C	-1.492327	-0.123757	0.731314
C56	C	-0.992327	0.376243	1.231314
C57	C	-1.490194	-0.123749	0.809997
C58	C	-0.990194	0.376251	1.309997
C59	C	-1.531275	0.123716	0.839414
C60	C	-1.031275	0.623716	1.339414
C61	C	-1.533413	0.123717	0.760739
C62	C	-1.033413	0.623717	1.260739
C63	C	-1.513929	-0.000024	0.706691
C64	C	-1.013929	0.499976	1.206691
C65	C	-1.516254	-0.000022	0.621382
C66	C	-1.016254	0.499978	1.121382
C67	C	-1.518110	-0.000011	0.553389
C68	C	-1.018110	0.499989	1.053389
C69	C	-1.507379	-0.000007	0.947778
C70	C	-1.007379	0.499993	1.447778
C71	C	-1.509657	-0.000016	0.864043
C72	C	-1.009657	0.499984	1.364043
H73	H	-0.876176	0.000003	0.014878
H74	H	-0.376176	0.500003	0.514878
O75	O	-0.983815	-0.000015	0.223706
O76	O	-0.483815	0.499985	0.723706
H77	H	-0.950252	-0.092530	0.243763
H78	H	-0.450252	0.407470	0.743763
H79	H	-1.483347	-0.224495	0.434084
H80	H	-0.983347	0.275505	0.934084
O81	O	-1.637077	-0.344163	0.173327
O82	O	-1.137077	0.155837	0.673327
H83	H	-1.732771	-0.371472	0.173216
H84	H	-1.232771	0.128528	0.673216
O85	O	-1.180027	-0.000027	0.180654
O86	O	-0.680027	0.499973	0.680654
H87	H	-1.257177	0.092481	0.202044
H88	H	-0.757177	0.592481	0.702044
O89	O	-1.397263	-0.655826	0.001441
O90	O	-0.897263	-0.155826	0.501441
H91	H	-1.393578	-0.767150	-0.001214
H92	H	-0.893578	-0.267150	0.498786
H93	H	-1.072384	0.000004	-0.028154
H94	H	-0.572384	0.500004	0.471846
H95	H	-1.656574	-0.588054	0.187270
H96	H	-1.156574	-0.088054	0.687270
H97	H	-1.377796	-0.411969	-0.012482
H98	H	-0.877796	0.088031	0.487518
O99	O	-1.567479	0.257179	0.338210
O100	O	-1.067479	0.757179	0.838210
H101	H	-1.580641	0.343217	0.389009
H102	H	-1.080641	0.843217	0.889009
H103	H	-1.476488	-0.224514	0.687322
H104	H	-0.976488	0.275486	1.187322
H105	H	-1.547133	0.224471	0.883429
H106	H	-1.047133	0.724471	1.383429
O107	O	-1.562973	0.257176	0.501733
O108	O	-1.062973	0.757176	1.001733
H109	H	-1.578350	0.343215	0.471388
H110	H	-1.078350	0.843215	0.971388
O111	O	-1.556704	0.257169	0.734169
O112	O	-1.056704	0.757169	1.234169
H113	H	-1.569866	0.343211	0.784966
H114	H	-1.069866	0.843211	1.284966
H115	H	-1.472593	-0.224513	0.830045
H116	H	-0.972593	0.275487	1.330045
O117	O	-1.482100	-0.257201	0.277055
O118	O	-0.982100	0.242799	0.777055
H119	H	-1.466730	-0.343241	0.307400
H120	H	-0.966730	0.156759	0.807400
