data_functionalizedCrystal
_audit_creation_method	'MofGen! by Chris Wilmer'
_symmetry_space_group_name_H-M	'P1'
_symmetry_Int_Tables_number	1
_symmetry_cell_setting	triclinic
loop_
_symmetry_equiv_pos_as_xyz
  x,y,z
_cell_length_a	12.645330
_cell_length_b	12.645331
_cell_length_c	12.645323
_cell_angle_alpha	90.013185
_cell_angle_beta	89.973156
_cell_angle_gamma	89.984155
loop_
_atom_site_label
_atom_site_type_symbol
_atom_site_fract_x
_atom_site_fract_y
_atom_site_fract_z
Zn1	Zn	-0.422063	-1.620722	-0.599203
Zn2	Zn	0.077937	-1.120722	-0.099203
Zn3	Zn	-0.599357	-1.620606	-0.421943
Zn4	Zn	-0.099357	-1.120606	0.078057
Zn5	Zn	-0.422102	-1.443439	-0.421974
Zn6	Zn	0.077898	-0.943439	0.078026
Zn7	Zn	-0.599279	-1.443418	-0.599185
Zn8	Zn	-0.099279	-0.943418	-0.099185
O9	O	-0.510700	-1.532046	-0.510576
O10	O	-0.010700	-1.032046	-0.010576
O11	O	-0.445597	-1.769054	-0.575683
O12	O	0.054403	-1.269054	-0.075683
O13	O	-0.575893	-1.597065	-0.273600
O14	O	-0.075893	-1.097065	0.226400
O15	O	-0.273750	-1.467013	-0.445504
O16	O	0.226250	-0.967013	0.054496
O17	O	-0.575854	-1.768969	-0.445451
O18	O	-0.075854	-1.268969	0.054549
O19	O	-0.273721	-1.597262	-0.575713
O20	O	0.226279	-1.097262	-0.075713
O21	O	-0.445664	-1.466901	-0.273622
O22	O	0.054336	-0.966901	0.226378
O23	O	-0.445589	-1.295089	-0.445487
O24	O	0.054411	-0.795089	0.054513
O25	O	-0.575722	-1.466978	-0.747535
O26	O	-0.075722	-0.966978	-0.247535
O27	O	-0.575760	-1.295074	-0.575683
O28	O	-0.075760	-0.795074	-0.075683
O29	O	-0.445522	-1.597242	-0.747548
O30	O	0.054478	-1.097242	-0.247548
O31	O	-0.747694	-1.597045	-0.445434
O32	O	-0.247694	-1.097045	0.054566
O33	O	-0.747636	-1.466865	-0.575653
O34	O	-0.247636	-0.966865	-0.075653
C35	C	-0.510671	-1.256617	-0.510587
C36	C	-0.010671	-0.756617	-0.010587
C37	C	-0.510684	-1.138787	-0.510617
C38	C	-0.010684	-0.638787	-0.010617
C39	C	-0.593020	-0.971248	-0.592101
C40	C	-0.093020	-0.471248	-0.092101
C41	C	-0.592757	-1.093808	-0.592438
C42	C	-0.092757	-0.593808	-0.092438
C43	C	-0.399027	-1.094308	-0.541139
C44	C	0.100973	-0.594308	-0.041139
C45	C	-0.399527	-0.971710	-0.541717
C46	C	0.100473	-0.471710	-0.041717
C47	C	-0.539098	-0.971543	-0.398362
C48	C	-0.039098	-0.471543	0.101638
C49	C	-0.541542	-1.094149	-0.398964
C50	C	-0.041542	-0.594149	0.101036
C51	C	-0.786130	-1.531969	-0.510561
C52	C	-0.286130	-1.031969	-0.010561
C53	C	-0.903960	-1.532033	-0.510590
C54	C	-0.403960	-1.032033	-0.010590
C55	C	-1.071532	-1.450475	-0.592764
C56	C	-0.571532	-0.950475	-0.092764
C57	C	-0.948972	-1.450058	-0.592500
C58	C	-0.448972	-0.950058	-0.092500
C59	C	-0.948557	-1.501789	-0.398873
C60	C	-0.448557	-1.001789	0.101127
C61	C	-1.071155	-1.501291	-0.399372
C62	C	-0.571155	-1.001291	0.100628
C63	C	-1.071052	-1.644334	-0.539228
C64	C	-0.571052	-1.144334	-0.039228
C65	C	-0.948445	-1.643645	-0.541671
C66	C	-0.448445	-1.143645	-0.041671
C67	C	-0.234195	-1.532153	-0.510614
C68	C	0.265805	-1.032153	-0.010614
C69	C	-0.116365	-1.532198	-0.510630
C70	C	0.383635	-1.032198	-0.010630
C71	C	-0.510609	-1.532120	-0.787081
C72	C	-0.010609	-1.032120	-0.287081
C73	C	-0.510570	-1.532152	-0.904912
C74	C	-0.010570	-1.032152	-0.404912
C75	C	-0.510725	-0.808552	-0.510573
C76	C	-0.010725	-0.308552	-0.010573
C77	C	-0.510724	-0.926382	-0.510591
C78	C	-0.010724	-0.426382	-0.010591
C79	C	-0.592462	-1.450207	-0.949785
C80	C	-0.092462	-0.950207	-0.449785
C81	C	-0.592154	-1.449919	-1.072345
C82	C	-0.092154	-0.949919	-0.572345
C83	C	-0.398670	-1.502282	-1.072818
C84	C	0.101330	-1.002282	-0.572818
C85	C	-0.399210	-1.501655	-0.950220
C86	C	0.100790	-1.001655	-0.450220
C87	C	-0.539461	-1.644240	-0.950086
C88	C	-0.039461	-1.144240	-0.450086
C89	C	-0.541859	-1.643672	-1.072692
C90	C	-0.041859	-1.143672	-0.572692
C91	C	-0.510715	-1.532034	-0.235146
C92	C	-0.010715	-1.032034	0.264854
C93	C	-0.510455	-1.532208	-0.117317
C94	C	-0.010455	-1.032208	0.382683
H95	H	-0.675556	-1.123881	-0.573309
H96	H	-0.175556	-0.623881	-0.073309
H97	H	-0.335952	-1.560154	-1.101946
H98	H	0.164048	-1.060154	-0.601946
H99	H	-0.479154	-0.942527	-0.337630
H100	H	0.020846	-0.442527	0.162370
H101	H	-0.375461	-0.943134	-0.623761
H102	H	0.124539	-0.443134	-0.123761
H103	H	-0.919736	-1.366926	-0.573554
H104	H	-0.419736	-0.866926	-0.073554
H105	H	-0.336090	-1.558765	-0.920534
H106	H	0.163910	-1.058765	-0.420534
H107	H	-0.919292	-1.666453	-0.623889
H108	H	-0.419292	-1.166453	-0.123889
H109	H	-0.373771	-1.421277	-1.103532
H110	H	0.126229	-0.921277	-0.603532
H111	H	-0.336013	-0.942030	-0.485071
H112	H	0.163987	-0.442030	0.014929
H113	H	-0.918816	-1.468980	-0.675338
H114	H	-0.418816	-0.968980	-0.175338
H115	H	-1.099845	-1.419320	-0.375143
H116	H	-0.599845	-0.919320	0.124857
H117	H	-0.574485	-0.940456	-0.674774
H118	H	-0.074485	-0.440456	-0.174774
H119	H	-1.100816	-1.558232	-0.336090
H120	H	-0.600816	-1.058232	0.163910
H121	H	-0.919402	-1.559426	-0.336006
H122	H	-0.419402	-1.059426	0.163994
H123	H	-0.573543	-1.367625	-0.918985
H124	H	-0.073543	-0.867625	-0.418985
H125	H	-0.572971	-1.366879	-1.101684
H126	H	-0.072971	-0.866879	-0.601684
H127	H	-0.619626	-1.671535	-0.919166
H128	H	-0.119626	-1.171535	-0.419166
H129	H	-0.486564	-1.707980	-1.103308
H130	H	0.013436	-1.207980	-0.603308
H131	H	-0.573980	-1.123156	-0.675593
H132	H	-0.073980	-0.623156	-0.175593
H133	H	-0.374764	-1.419734	-0.921634
H134	H	0.125236	-0.919734	-0.421634
H135	H	-0.485951	-1.124766	-0.334973
H136	H	0.014049	-0.624766	0.165027
H137	H	-1.100942	-1.469223	-0.675874
H138	H	-0.600942	-0.969223	-0.175874
H139	H	-1.101894	-1.671922	-0.619307
H140	H	-0.601894	-1.171922	-0.119307
H141	H	-1.102431	-1.367863	-0.574061
H142	H	-0.602431	-0.867863	-0.074061
H143	H	-0.917944	-1.420672	-0.374206
H144	H	-0.417944	-0.920672	0.125794
H145	H	-0.624129	-1.666242	-1.101772
H146	H	-0.124129	-1.166242	-0.601772
H147	H	-0.917798	-1.707740	-0.486205
H148	H	-0.417798	-1.207740	0.013795
H149	H	-0.479811	-1.705289	-0.921072
H150	H	0.020189	-1.205289	-0.421072
H151	H	-0.336045	-1.123442	-0.483624
H152	H	0.163955	-0.623442	0.016376
H153	H	-1.100044	-1.705220	-0.479407
H154	H	-0.600044	-1.205220	0.020593
H155	H	-0.374524	-1.125032	-0.622292
H156	H	0.125476	-0.625032	-0.122292
H157	H	-0.619128	-0.940621	-0.370621
H158	H	-0.119128	-0.440621	0.129379
H159	H	-0.623705	-1.123232	-0.375944
H160	H	-0.123705	-0.623232	0.124056
H161	H	-0.676093	-0.941757	-0.573184
H162	H	-0.176093	-0.441757	-0.073184
H163	H	-0.675633	-1.468654	-0.920306
H164	H	-0.175633	-0.968654	-0.420306
H165	H	-0.675033	-1.468602	-1.102433
H166	H	-0.175033	-0.968602	-0.602433
