data_functionalizedCrystal
_audit_creation_method	'MofGen! by Chris Wilmer'
_symmetry_space_group_name_H-M	'P1'
_symmetry_Int_Tables_number	1
_symmetry_cell_setting	triclinic
loop_
_symmetry_equiv_pos_as_xyz
  x,y,z
_cell_length_a	11.026607
_cell_length_b	27.731996
_cell_length_c	10.065875
_cell_angle_alpha	98.708141
_cell_angle_beta	79.302338
_cell_angle_gamma	95.603702
loop_
_atom_site_label
_atom_site_type_symbol
_atom_site_fract_x
_atom_site_fract_y
_atom_site_fract_z
O1	O	1.624151	0.196522	-0.113560
O2	O	2.124151	0.696522	0.386440
O3	O	1.271287	0.173512	-0.113554
O4	O	1.771287	0.673512	0.386446
O5	O	1.458707	0.115609	-0.113528
O6	O	1.958707	0.615609	0.386472
O7	O	1.436732	0.254424	-0.113586
O8	O	1.936732	0.754424	0.386414
O9	O	1.422967	0.126707	0.113456
O10	O	1.922967	0.626707	0.613456
O11	O	1.235547	0.184610	0.113430
O12	O	1.735547	0.684610	0.613430
O13	O	1.588412	0.207620	0.113424
O14	O	2.088412	0.707620	0.613424
Zn15	Zn	1.406305	0.197877	0.149465
Zn16	Zn	1.906305	0.697877	0.649465
Zn17	Zn	1.453394	0.183254	-0.149595
Zn18	Zn	1.953394	0.683254	0.350405
O19	O	1.400992	0.265522	0.113397
O20	O	1.900992	0.765522	0.613397
C21	C	1.208288	0.174816	-0.000061
C22	C	1.708288	0.674816	0.499939
C23	C	1.073816	0.162161	-0.000057
C24	C	1.573816	0.662161	0.499943
C25	C	1.440384	0.103110	-0.000031
C26	C	1.940384	0.603110	0.499969
C27	C	1.439022	0.049332	-0.000017
C28	C	1.939022	0.549332	0.499983
C29	C	0.999341	0.197102	-0.000073
C30	C	1.499341	0.697102	0.499927
C31	C	0.860358	0.184024	-0.000069
C32	C	1.360358	0.684024	0.499931
C33	C	1.449956	-0.290207	-0.123812
C34	C	1.949956	0.209793	0.376188
C35	C	1.444794	-0.492332	-0.123836
C36	C	1.944794	0.007668	0.376164
O37	O	1.460643	-0.523612	-0.229064
O38	O	1.960643	-0.023612	0.270936
N39	N	1.424671	-0.511557	-0.000109
N40	N	1.924671	-0.011557	0.499891
C41	C	1.405830	-0.480248	0.123634
C42	C	1.905830	0.019752	0.623634
O43	O	1.388583	-0.501239	0.228871
O44	O	1.888583	-0.001239	0.728871
C45	C	1.410983	-0.278125	0.123656
C46	C	1.910983	0.221875	0.623656
C47	C	1.431119	-0.258902	-0.000080
C48	C	1.931119	0.241098	0.499920
C49	C	1.470090	-0.270984	-0.247538
C50	C	1.970090	0.229016	0.252462
C51	C	1.471386	-0.220456	-0.247531
C52	C	1.971386	0.279544	0.252469
C53	C	1.452550	-0.189151	-0.123798
C54	C	1.952550	0.310849	0.376202
C55	C	1.432416	-0.208374	-0.000072
C56	C	1.932416	0.291626	0.499928
C57	C	1.392132	-0.246818	0.247397
C58	C	1.892132	0.253182	0.747397
C59	C	1.393419	-0.196284	0.247392
C60	C	1.893419	0.303716	0.747392
C61	C	1.413556	-0.177061	0.123656
C62	C	1.913556	0.322939	0.623656
C63	C	1.414876	-0.126541	0.123668
C64	C	1.914876	0.373459	0.623668
N65	N	1.434999	-0.107315	-0.000060
N66	N	1.934999	0.392685	0.499940
C67	C	1.453836	-0.138620	-0.123793
C68	C	1.953836	0.361380	0.376207
C69	C	1.403128	-0.586366	0.123613
C70	C	1.903128	-0.086366	0.623613
C71	C	1.401842	-0.636896	0.123608
C72	C	1.901842	-0.136896	0.623608
C73	C	1.440804	-0.648976	-0.123863
C74	C	1.940804	-0.148976	0.376137
C75	C	1.442099	-0.598445	-0.123856
C76	C	1.942099	-0.098445	0.376144
C77	C	1.423251	-0.567141	-0.000114
C78	C	1.923251	-0.067141	0.499886
C79	C	1.456559	-0.032507	-0.123768
C80	C	1.956559	0.467493	0.376232
C81	C	1.457859	0.018027	-0.123750
C82	C	1.957859	0.518027	0.376250
C83	C	1.418890	0.030102	0.123720
C84	C	1.918890	0.530102	0.623720
C85	C	1.417596	-0.020427	0.123702
C86	C	1.917596	0.479573	0.623702
C87	C	1.436428	-0.051730	-0.000053
C88	C	1.936428	0.448270	0.499947
O89	O	1.399023	-0.095232	0.228840
O90	O	1.899023	0.404768	0.728840
O91	O	1.471053	-0.117621	-0.229014
O92	O	1.971053	0.382379	0.270986
C93	C	1.448659	-0.340736	-0.123820
C94	C	1.948659	0.159264	0.376180
C95	C	1.428526	-0.359959	-0.000094
C96	C	1.928526	0.140041	0.499906
C97	C	1.409689	-0.328654	0.123639
C98	C	1.909689	0.171346	0.623639
C99	C	1.427240	-0.410489	-0.000099
C100	C	1.927240	0.089511	0.499901
C101	C	1.446076	-0.441794	-0.123832
C102	C	1.946076	0.058206	0.376168
C103	C	1.466199	-0.422569	-0.247560
C104	C	1.966199	0.077431	0.252440
C105	C	1.467496	-0.372041	-0.247553
C106	C	1.967496	0.127959	0.252447
C107	C	1.389566	-0.347879	0.247367
C108	C	1.889566	0.152121	0.747367
C109	C	1.388272	-0.398408	0.247349
C110	C	1.888272	0.101592	0.747349
C111	C	1.407109	-0.429713	0.123616
C112	C	1.907109	0.070287	0.623616
C113	C	1.651412	0.206315	-0.000072
C114	C	2.151412	0.706315	0.499928
C115	C	1.785884	0.218969	-0.000085
C116	C	2.285884	0.718969	0.499915
C117	C	1.419315	0.278021	-0.000102
C118	C	1.919315	0.778021	0.499898
C119	C	1.420679	0.331799	-0.000125
C120	C	1.920679	0.831799	0.499875
N121	N	1.374177	0.207856	0.353566
N122	N	1.874177	0.707856	0.853566
N123	N	1.485531	0.173272	-0.353696
N124	N	1.985531	0.673272	0.146304
C125	C	1.442208	0.186723	0.421355
C126	C	1.942208	0.686723	0.921355
C127	C	1.417491	0.194408	0.578519
C128	C	1.917491	0.694408	1.078519
H129	H	1.038473	0.236698	-0.000082
H130	H	1.538473	0.736698	0.499918
H131	H	1.374228	-0.322395	0.348127
H132	H	1.874228	0.177605	0.848127
F133	F	1.542042	0.155533	0.345138
F134	F	2.042042	0.655533	0.845138
H135	H	1.458494	-0.582797	-0.224613
H136	H	1.958494	-0.082797	0.275387
F137	F	1.585785	0.142282	0.570095
F138	F	2.085785	0.642282	1.070095
F139	F	1.317432	0.225493	0.654730
F140	F	1.817432	0.725493	1.154730
H141	H	1.375737	-0.262459	0.348156
H142	H	1.875737	0.237541	0.848156
F143	F	1.274124	0.238939	0.429783
F144	F	1.774124	0.738939	0.929783
H145	H	0.821236	0.144424	-0.000087
H146	H	1.321236	0.644424	0.499913
F147	F	1.373357	-0.162970	0.379099
F148	F	1.873357	0.337030	0.879099
H149	H	1.387784	-0.560881	0.224384
H150	H	1.887784	-0.060881	0.724384
F151	F	1.479295	0.038482	-0.255452
F152	F	1.979295	0.538482	0.244548
F153	F	0.837016	0.270729	-0.000090
F154	F	1.337016	0.770729	0.499910
H155	H	1.471888	-0.057989	-0.224541
H156	H	1.971888	0.442011	0.275459
F157	F	1.022672	0.110406	-0.000026
F158	F	1.522672	0.610406	0.499974
H159	H	1.487779	-0.204810	-0.348289
H160	H	1.987779	0.295190	0.151711
H161	H	1.485425	-0.296468	-0.348302
H162	H	1.985425	0.203532	0.151698
H163	H	1.456143	-0.674474	-0.224611
H164	H	1.956143	-0.174474	0.275389
F165	F	1.380432	-0.657348	0.255304
F166	F	1.880432	-0.157348	0.755304
F167	F	1.396187	-0.040885	0.255395
F168	F	1.896187	0.459115	0.755395
F169	F	1.398846	0.063428	0.255398
F170	F	1.898846	0.563428	0.755398
F171	F	1.366846	-0.418860	0.379056
F172	F	1.866846	0.081140	0.879056
H173	H	1.483893	-0.356395	-0.348311
H174	H	1.983893	0.143605	0.151689
H175	H	1.481542	-0.448066	-0.348308
H176	H	1.981542	0.051934	0.151692
