data_functionalizedCrystal
_audit_creation_method	'MofGen! by Chris Wilmer'
_symmetry_space_group_name_H-M	'P1'
_symmetry_Int_Tables_number	1
_symmetry_cell_setting	triclinic
loop_
_symmetry_equiv_pos_as_xyz
  x,y,z
_cell_length_a	10.685980
_cell_length_b	17.077402
_cell_length_c	17.077396
_cell_angle_alpha	89.970216
_cell_angle_beta	85.606160
_cell_angle_gamma	94.389298
loop_
_atom_site_label
_atom_site_type_symbol
_atom_site_fract_x
_atom_site_fract_y
_atom_site_fract_z
Zn1	Zn	1.929173	-0.220552	-0.535958
Zn2	Zn	1.929024	-0.351834	-0.404681
Zn3	Zn	1.718150	-0.230638	-0.394629
Zn4	Zn	1.718099	-0.361841	-0.525833
O5	O	1.823612	-0.291217	-0.465275
O6	O	2.105740	-0.229559	-0.526988
O7	O	1.901010	-0.335790	-0.293499
O8	O	1.746227	-0.119449	-0.413406
O9	O	2.105630	-0.326011	-0.430540
O10	O	1.901265	-0.112039	-0.517240
O11	O	1.746082	-0.246748	-0.286113
O12	O	1.541557	-0.256451	-0.403589
O13	O	1.746139	-0.343066	-0.637025
O14	O	1.541519	-0.352846	-0.499984
O15	O	1.901215	-0.239262	-0.644463
O16	O	1.900960	-0.463013	-0.420722
O17	O	1.745994	-0.470365	-0.509732
C18	C	1.495751	-0.306829	-0.449597
C19	C	1.355491	-0.313527	-0.442909
C20	C	1.823490	-0.495170	-0.465238
C21	C	1.823553	-0.582417	-0.465254
C22	C	1.904326	-0.619549	-0.418964
C23	C	1.904388	-0.701526	-0.418987
C24	C	1.823669	-0.746371	-0.465296
C25	C	1.742893	-0.709233	-0.511591
C26	C	1.742838	-0.627257	-0.511572
C27	C	1.743010	-0.880098	-0.511626
C28	C	1.743062	-0.962080	-0.511645
C29	C	1.904559	-0.954367	-0.419042
C30	C	1.904505	-0.872391	-0.419023
C31	C	1.823726	-0.835259	-0.465317
C32	C	2.152753	-0.275543	-0.481014
C33	C	2.293013	-0.268864	-0.487722
C34	C	1.823688	-0.291155	-0.670023
C35	C	1.823721	-0.291129	-0.757275
C36	C	1.823768	-0.086465	-0.465331
C37	C	1.823835	0.000788	-0.465355
C38	C	1.904471	-0.237074	-0.802139
C39	C	1.904486	-0.237047	-0.884121
C40	C	1.823756	-0.291079	-0.921236
C41	C	1.742997	-0.345137	-0.876365
C42	C	1.742976	-0.345160	-0.794385
C43	C	1.743047	-0.345088	-1.047237
C44	C	1.743069	-0.345066	-1.129223
C45	C	1.904558	-0.236975	-1.136973
C46	C	1.904537	-0.236997	-1.054993
C47	C	1.823779	-0.291056	-1.010128
C48	C	1.823608	-0.291218	-0.261327
C49	C	1.823820	-0.291011	-0.174088
H50	H	1.970051	-0.583042	-0.381251
H51	H	1.301671	-0.356892	-0.399420
C52	C	2.064085	-0.130222	-0.818042
C53	C	1.993211	-0.177676	-0.761346
H54	H	2.118862	-0.093548	-0.792858
H55	H	2.112336	-0.162117	-0.852315
H56	H	2.009120	-0.102809	-0.847396
H57	H	2.048177	-0.205094	-0.731996
H58	H	1.944957	-0.145778	-0.727060
C59	C	1.922112	-0.130578	-0.977160
C60	C	1.993244	-0.177618	-0.933428
H61	H	1.976909	-0.093881	-1.007593
H62	H	1.874055	-0.162749	-1.011000
H63	H	1.867146	-0.103191	-0.942541
H64	H	2.048205	-0.205009	-0.968047
H65	H	2.041323	-0.145442	-0.899585
H66	H	1.970161	-0.731755	-0.381293
H67	H	1.346826	-0.225498	-0.531203
C68	C	2.064154	-0.872996	-0.327497
C69	C	1.993234	-0.823096	-0.368122
H70	H	2.118939	-0.842561	-0.296078
H71	H	2.009227	-0.907636	-0.294820
H72	H	2.112410	-0.902625	-0.364043
H73	H	1.944971	-0.793471	-0.331576
H74	H	2.048168	-0.788443	-0.400801
H75	H	1.677208	-0.389170	-0.757856
C76	C	1.976267	-0.188917	-1.266079
C77	C	1.993308	-0.177539	-1.186285
H78	H	2.031050	-0.152221	-1.296522
H79	H	1.994711	-0.240768	-1.280386
H80	H	1.891485	-0.181467	-1.275443
H81	H	2.078089	-0.184995	-1.176919
H82	H	1.974874	-0.125676	-1.171972
H83	H	1.677235	-0.849868	-0.549327
H84	H	1.677176	-0.745752	-0.549300
H85	H	1.970282	-0.193003	-1.024777
H86	H	1.970336	-0.984604	-0.381351
H87	H	1.677357	-0.998589	-0.549369
H88	H	1.677329	-0.389063	-1.159440
H89	H	1.677266	-0.389097	-1.010709
H90	H	1.677066	-0.597025	-0.549266
H91	H	1.677260	-0.389129	-0.906590
