data_functionalizedCrystal
_audit_creation_method	'MofGen! by Chris Wilmer'
_symmetry_space_group_name_H-M	'P1'
_symmetry_Int_Tables_number	1
_symmetry_cell_setting	triclinic
loop_
_symmetry_equiv_pos_as_xyz
  x,y,z
_cell_length_a	14.560438
_cell_length_b	21.606444
_cell_length_c	14.560438
_cell_angle_alpha	89.997946
_cell_angle_beta	60.005846
_cell_angle_gamma	60.000494
loop_
_atom_site_label
_atom_site_type_symbol
_atom_site_fract_x
_atom_site_fract_y
_atom_site_fract_z
Zr1	Zr	1.005230	0.596250	-0.120410
O2	O	1.196809	0.497434	-0.267024
O3	O	0.813647	0.626538	-0.075484
O4	O	1.005232	0.626546	-0.267059
O5	O	1.005223	0.497425	0.075691
O6	O	1.005238	0.728396	-0.267064
O7	O	1.005223	0.497427	-0.075449
O8	O	0.662527	0.728382	0.075628
O9	O	1.347934	0.497438	-0.267002
O10	O	0.892454	0.715470	-0.056305
O11	O	0.892449	0.639459	0.056493
O12	O	1.118016	0.639468	-0.169061
O13	O	1.118011	0.563457	-0.056263
Zr14	Zr	1.005240	0.758685	0.120632
Zr15	Zr	1.005240	0.758688	-0.120419
Zr16	Zr	1.005229	0.596247	0.120641
Zr17	Zr	1.246257	0.596256	-0.120374
Zr18	Zr	0.764212	0.758679	0.120596
O19	O	1.196823	0.728397	0.075706
O20	O	1.196823	0.728401	-0.267036
O21	O	1.196808	0.497430	0.075719
O22	O	0.813661	0.857501	0.267246
O23	O	0.813661	0.857505	-0.075497
O24	O	0.813646	0.626534	0.267258
O25	O	1.005246	0.857510	-0.075469
O26	O	1.005237	0.728389	0.267281
O27	O	1.005231	0.626539	0.267286
O28	O	1.005246	0.857508	0.075671
O29	O	1.347942	0.626555	-0.267009
O30	O	0.662527	0.728380	0.267231
O31	O	0.662535	0.857497	0.267224
O32	O	0.662536	0.857499	0.075621
O33	O	1.347934	0.497436	-0.075399
O34	O	1.347942	0.626553	-0.075406
O35	O	0.892454	0.715467	0.169283
O36	O	0.892459	0.791478	0.056485
O37	O	1.118020	0.715476	-0.056271
O38	O	1.118015	0.639465	0.056526
C39	C	0.703746	0.677459	0.000067
C40	C	0.601423	0.677457	0.000052
C41	C	0.636546	0.621352	-0.083166
C42	C	0.540357	0.621365	-0.083110
C43	C	0.373923	0.733588	0.083393
C44	C	0.470111	0.733579	0.083331
C45	C	0.732635	0.556559	-0.179293
C46	C	0.636446	0.556571	-0.179236
C47	C	1.005222	0.474282	0.000122
C48	C	1.005217	0.405322	0.000126
C49	C	0.887477	0.412595	0.058979
C50	C	0.887481	0.347798	0.058980
C51	C	1.005226	0.275728	0.000120
C52	C	1.122975	0.268457	-0.058735
C53	C	1.122970	0.333254	-0.058729
C54	C	1.122998	0.007139	-0.058760
C55	C	1.122993	-0.057659	-0.058765
C56	C	0.887508	0.021683	0.058949
C57	C	0.887503	0.086480	0.058955
C58	C	1.005252	0.079203	0.000105
C59	C	1.005246	0.149464	0.000106
C60	C	1.005233	0.205468	0.000112
C61	C	1.306723	0.677476	0.000155
C62	C	1.409046	0.677478	0.000170
C63	C	1.005235	0.677472	-0.301406
C64	C	1.005235	0.677473	-0.403738
C65	C	1.005248	0.880653	0.000100
C66	C	1.005252	0.949613	0.000096
C67	C	1.005245	0.733579	-0.451826
C68	C	1.005239	0.733576	-0.547975
C69	C	1.005221	0.621353	-0.547944
C70	C	1.005217	0.621360	-0.451792
C71	C	1.005261	0.798369	-0.451847
C72	C	1.005255	0.798365	-0.547996
C73	C	1.005234	0.677463	0.301628
C74	C	1.005234	0.677462	0.403960
C75	C	0.703759	0.880645	0.000056
C76	C	0.601441	0.949602	0.000037
C77	C	0.703745	0.677455	0.301584
C78	C	0.601422	0.677451	0.403901
C79	C	0.703758	0.880641	0.301573
C80	C	0.601440	0.949596	0.403887
C81	C	1.306711	0.474294	-0.301351
C82	C	1.409029	0.405339	-0.403665
C83	C	1.306711	0.474290	0.000166
C84	C	1.409029	0.405333	0.000185
C85	C	1.306724	0.677480	-0.301362
C86	C	1.409047	0.677484	-0.403679
C87	C	0.553389	0.942309	-0.058857
C88	C	0.457263	1.007095	-0.058897
C89	C	0.409185	1.079173	-0.000036
C90	C	0.457247	1.086464	0.058860
C91	C	0.553377	1.021679	0.058893
C92	C	0.553393	1.021662	0.393055
C93	C	0.457267	1.086459	0.489180
C94	C	0.409184	1.079189	0.596136
C95	C	0.457240	1.007115	0.606966
C96	C	0.553371	0.942320	0.510841
C97	C	1.457088	0.333273	-0.392833
C98	C	1.553244	0.268476	-0.488958
C99	C	1.601332	0.275746	-0.595914
C100	C	1.553269	0.347820	-0.606744
C101	C	1.457122	0.412615	-0.510619
C102	C	1.457091	0.412626	0.059069
C103	C	1.553243	0.347840	0.059082
C104	C	1.601324	0.275762	0.000218
C105	C	1.553258	0.268471	-0.058673
C106	C	1.457115	0.333256	-0.058693
C107	C	0.553349	0.717126	0.510845
C108	C	0.457211	0.717116	0.606979
C109	C	0.457225	0.637756	0.489211
C110	C	0.553368	0.637762	0.393080
C111	C	0.553336	0.762946	0.578838
C112	C	0.457198	0.762936	0.674972
H113	H	0.441502	0.779270	0.151086
H114	H	1.218846	0.327327	-0.106640
H115	H	0.592533	0.883626	-0.106802
H116	H	1.679611	0.223016	0.000243
H117	H	1.592362	0.353791	0.107043
H118	H	0.592488	1.027627	0.106858
H119	H	0.418143	1.001144	-0.106857
H120	H	0.330908	1.131956	0.674397
H121	H	1.005193	0.575680	-0.412632
H122	H	1.005205	0.575667	-0.587079
H123	H	0.592528	1.027596	0.305974
H124	H	1.218845	0.209772	-0.106654
H125	H	0.911994	0.849897	-0.531201
H126	H	0.795611	0.562137	-0.261424
H127	H	0.418077	1.001207	0.694062
H128	H	1.218875	0.001204	-0.106700
H129	H	0.914872	0.853706	-0.380576
H130	H	0.592519	0.605446	0.306004
H131	H	1.679621	0.222979	-0.674175
H132	H	1.098525	0.787049	-0.468648
H133	H	0.367186	0.823601	0.727154
H134	H	0.418088	0.605442	0.480414
H135	H	0.330908	1.131919	-0.000071
H136	H	0.418087	1.145158	0.106782
H137	H	1.592360	0.209797	-0.480118
H138	H	1.095655	0.792778	-0.619285
H139	H	0.267000	0.779280	0.151196
H140	H	0.418149	1.145139	0.480342
H141	H	0.592478	0.883643	0.519677
H142	H	1.592421	0.209777	-0.106599
H143	H	1.417985	0.327308	-0.106640
H144	H	1.417940	0.327338	-0.305752
H145	H	0.517208	0.821606	0.570101
H146	H	0.493324	0.732710	0.725902
H147	H	1.592435	0.353730	-0.693839
H148	H	1.417993	0.471292	-0.519452
H149	H	0.643338	0.737465	0.578871
H150	H	0.792306	0.505027	-0.162494
H151	H	0.636414	0.567892	-0.255694
H152	H	0.647257	0.501238	-0.170924
H153	H	0.791595	0.471274	0.106915
H154	H	1.417950	0.471309	0.107011
H155	H	0.791623	0.145159	0.106882
H156	H	0.791632	0.027602	0.106871
H157	H	0.791605	0.353726	0.106907
H158	H	1.218881	-0.116343	-0.106698
