data_functionalizedCrystal
_audit_creation_method	'MofGen! by Chris Wilmer'
_symmetry_space_group_name_H-M	'P1'
_symmetry_Int_Tables_number	1
_symmetry_cell_setting	triclinic
loop_
_symmetry_equiv_pos_as_xyz
  x,y,z
_cell_length_a	11.792254
_cell_length_b	17.699077
_cell_length_c	16.176319
_cell_angle_alpha	90.005422
_cell_angle_beta	90.001003
_cell_angle_gamma	96.260413
loop_
_atom_site_label
_atom_site_type_symbol
_atom_site_fract_x
_atom_site_fract_y
_atom_site_fract_z
O1	O	-0.143488	1.004850	0.068728
O2	O	0.356512	1.504850	0.568728
O3	O	-0.162169	0.784571	0.068731
O4	O	0.337831	1.284571	0.568731
O5	O	0.012405	0.900051	0.068733
O6	O	0.512405	1.400051	0.568733
O7	O	-0.318062	0.889370	0.068725
O8	O	0.181938	1.389370	0.568725
O9	O	0.012406	0.900037	-0.068760
O10	O	0.512406	1.400037	0.431240
O11	O	-0.162168	0.784557	-0.068763
O12	O	0.337832	1.284557	0.431237
O13	O	-0.143488	1.004836	-0.068766
O14	O	0.356512	1.504836	0.431234
Cu15	Cu	-0.152828	0.894695	-0.081318
Cu16	Cu	0.347172	1.394695	0.418682
Cu17	Cu	-0.152829	0.894711	0.081283
Cu18	Cu	0.347171	1.394711	0.581283
O19	O	-0.318062	0.889356	-0.068768
O20	O	0.181938	1.389356	0.431232
C21	C	-0.161500	0.756363	-0.000016
C22	C	0.338500	1.256363	0.499984
C23	C	-0.159496	0.672334	-0.000014
C24	C	0.340504	1.172334	0.499986
C25	C	-0.158551	0.632854	-0.074962
C26	C	0.341449	1.132854	0.425038
C27	C	-0.156649	0.553902	-0.074963
C28	C	0.343351	1.053902	0.425037
C29	C	-0.155700	0.514429	-0.000015
C30	C	0.344300	1.014429	0.499985
C31	C	-0.156642	0.553915	0.074939
C32	C	0.343358	1.053915	0.574939
C33	C	-0.158535	0.632867	0.074939
C34	C	0.341465	1.132867	0.574939
C35	C	-0.149004	0.235511	0.074941
C36	C	0.350996	0.735511	0.574941
C37	C	-0.147114	0.156553	0.074935
C38	C	0.352886	0.656553	0.574935
C39	C	-0.147118	0.156545	-0.074961
C40	C	0.352882	0.656545	0.425039
C41	C	-0.149011	0.235497	-0.074961
C42	C	0.350989	0.735497	0.425039
C43	C	-0.149947	0.274977	-0.000008
C44	C	0.350053	0.774977	0.499992
C45	C	-0.152007	0.360586	-0.000008
C46	C	0.347993	0.860586	0.499992
C47	C	-0.153649	0.428821	-0.000014
C48	C	0.346351	0.928821	0.499986
C49	C	-0.360345	0.890036	-0.000022
C50	C	0.139655	1.390036	0.499978
C51	C	-0.486333	0.892050	-0.000025
C52	C	0.013667	1.392050	0.499975
C53	C	-0.588650	0.893686	-0.000020
C54	C	-0.088650	1.393686	0.499980
C55	C	-0.717012	0.895732	-0.000011
C56	C	-0.217012	1.395732	0.499989
C57	C	0.054688	0.899371	-0.000011
C58	C	0.554688	1.399371	0.499989
C59	C	0.180677	0.897357	-0.000003
C60	C	0.680677	1.397357	0.499997
C61	C	-0.144156	1.033043	-0.000018
C62	C	0.355844	1.533043	0.499982
C63	C	-0.146161	1.117072	-0.000014
C64	C	0.353839	1.617072	0.499986
N65	N	-0.152827	0.894689	-0.195684
N66	N	0.347173	1.394689	0.304316
C67	C	-0.221578	0.940873	-0.238947
C68	C	0.278422	1.440873	0.261053
C69	C	-0.221573	0.940881	-0.325494
C70	C	0.278427	1.440881	0.174506
C71	C	-0.152824	0.894701	-0.368776
C72	C	0.347176	1.394701	0.131224
C73	C	-0.084065	0.848516	-0.325507
C74	C	0.415935	1.348516	0.174493
C75	C	-0.084064	0.848512	-0.238962
C76	C	0.415936	1.348512	0.261038
C77	C	-0.084066	0.848530	-0.674535
C78	C	0.415934	1.348530	-0.174535
C79	C	-0.084075	0.848535	-0.761087
C80	C	0.415925	1.348535	-0.261087
C81	C	-0.221576	0.940899	-0.761067
C82	C	0.278424	1.440899	-0.261067
C83	C	-0.221575	0.940895	-0.674522
C84	C	0.278425	1.440895	-0.174522
C85	C	-0.152812	0.894713	-0.631260
C86	C	0.347188	1.394713	-0.131260
C87	C	-0.152816	0.894706	-0.537416
C88	C	0.347184	1.394706	-0.037416
C89	C	-0.152825	0.894704	-0.462619
C90	C	0.347175	1.394704	0.037381
N91	N	-0.152821	0.894723	0.195648
N92	N	0.347179	1.394723	0.695648
H93	H	-0.155861	0.521771	0.135964
H94	H	0.344139	1.021771	0.635964
H95	H	-0.159333	0.664986	-0.135994
H96	H	0.340667	1.164986	0.364006
H97	H	-0.277562	0.978504	-0.796301
H98	H	0.222438	1.478504	-0.296301
C99	C	-0.244066	0.124113	-0.202734
C100	C	0.255934	0.624113	0.297266
C101	C	-0.146077	0.113147	-0.157354
C102	C	0.353923	0.613147	0.342646
H103	H	-0.243427	0.097317	-0.253595
H104	H	0.256573	0.597317	0.246405
H105	H	-0.245324	0.176777	-0.213456
H106	H	0.254676	0.676777	0.286544
H107	H	-0.309904	0.105669	-0.171929
H108	H	0.190096	0.605669	0.328071
H109	H	-0.080239	0.131596	-0.188156
H110	H	0.419761	0.631596	0.311844
H111	H	-0.144808	0.060473	-0.146634
H112	H	0.355192	0.560473	0.353366
H113	H	-0.028087	0.810928	-0.796325
H114	H	0.471913	1.310928	-0.296325
H115	H	-0.028075	0.810926	-0.639322
H116	H	0.471925	1.310926	-0.139322
C117	C	-0.023073	0.807459	-0.458180
C118	C	0.476927	1.307459	0.041820
C119	C	-0.008494	0.797750	-0.373079
C120	C	0.491506	1.297750	0.126921
H121	H	0.023576	0.776112	-0.487545
H122	H	0.523576	1.276112	0.012455
H123	H	-0.001919	0.859145	-0.472384
H124	H	0.498081	1.359145	0.027616
H125	H	-0.100765	0.793690	-0.472327
H126	H	0.399235	1.293690	0.027673
H127	H	0.069196	0.811524	-0.358931
H128	H	0.569196	1.311524	0.141069
H129	H	-0.029641	0.746052	-0.358869
H130	H	0.470359	1.246052	0.141131
H131	H	-0.277562	0.978497	-0.639285
H132	H	0.222438	1.478497	-0.139285
H133	H	-0.028081	0.810905	-0.203738
H134	H	0.471919	1.310905	0.296262
H135	H	-0.149789	0.267631	-0.135992
H136	H	0.350211	0.767631	0.364008
C137	C	-0.156869	0.561822	-0.223133
C138	C	0.343131	1.061822	0.276867
C139	C	-0.155622	0.510504	-0.157349
C140	C	0.344378	1.010504	0.342651
H141	H	-0.156241	0.535028	-0.273996
H142	H	0.343759	1.035028	0.226004
H143	H	-0.091453	0.598116	-0.220019
H144	H	0.408547	1.098116	0.279981
H145	H	-0.223771	0.587115	-0.220004
H146	H	0.276229	1.087115	0.279996
H147	H	-0.088715	0.485215	-0.160475
H148	H	0.411285	0.985215	0.339525
H149	H	-0.221044	0.474197	-0.160465
H150	H	0.278956	0.974197	0.339535
C151	C	-0.147275	0.164489	0.223115
C152	C	0.352725	0.664489	0.723115
C153	C	-0.146061	0.113164	0.157325
C154	C	0.353939	0.613164	0.657325
H155	H	-0.146619	0.137701	0.273975
H156	H	0.353381	0.637701	0.773975
H157	H	-0.214167	0.189782	0.220005
H158	H	0.285833	0.689782	0.720005
H159	H	-0.081849	0.200785	0.219991
H160	H	0.418151	0.700785	0.719991
H161	H	-0.211492	0.076872	0.160446
H162	H	0.288508	0.576872	0.660446
H163	H	-0.079162	0.087859	0.160437
H164	H	0.420838	0.587859	0.660437
H165	H	-0.149762	0.267646	0.135973
H166	H	0.350238	0.767646	0.635973
H167	H	-0.159307	0.665010	0.135970
H168	H	0.340693	1.165010	0.635970
C169	C	-0.357487	1.032178	-0.247629
C170	C	0.142513	1.532178	0.252371
C171	C	-0.297149	0.991637	-0.191374
C172	C	0.202851	1.491637	0.308626
H173	H	-0.404135	1.063523	-0.218260
H174	H	0.095865	1.563523	0.281740
H175	H	-0.404060	0.997541	-0.281388
H176	H	0.095940	1.497541	0.218612
H177	H	-0.305182	1.062975	-0.281382
H178	H	0.194818	1.562975	0.218618
H179	H	-0.349455	0.960836	-0.157625
H180	H	0.150545	1.460836	0.342375
H181	H	-0.250573	1.026279	-0.157601
H182	H	0.249427	1.526279	0.342399
H183	H	-0.277555	0.978490	-0.360714
H184	H	0.222445	1.478490	0.139286
