data_functionalizedCrystal
_audit_creation_method	'MofGen! by Chris Wilmer'
_symmetry_space_group_name_H-M	'P1'
_symmetry_Int_Tables_number	1
_symmetry_cell_setting	triclinic
loop_
_symmetry_equiv_pos_as_xyz
  x,y,z
_cell_length_a	10.540539
_cell_length_b	10.654550
_cell_length_c	9.130313
_cell_angle_alpha	89.998468
_cell_angle_beta	89.998199
_cell_angle_gamma	95.494803
loop_
_atom_site_label
_atom_site_type_symbol
_atom_site_fract_x
_atom_site_fract_y
_atom_site_fract_z
O1	O	-1.685816	0.176986	-0.121731
O2	O	-1.316397	0.193663	-0.121750
O3	O	-1.509601	0.002588	-0.121729
O4	O	-1.492613	0.368061	-0.121752
O5	O	-1.509598	0.002593	0.121869
O6	O	-1.316395	0.193668	0.121849
O7	O	-1.685814	0.176992	0.121867
Cu8	Cu	-1.501104	0.185330	0.144101
Cu9	Cu	-1.501107	0.185324	-0.143983
O10	O	-1.492611	0.368066	0.121847
C11	C	-1.269094	0.192415	0.000048
C12	C	-1.128147	0.188673	0.000041
C13	C	-1.733118	0.178240	0.000067
C14	C	-1.874064	0.181981	0.000064
C15	C	-1.508352	-0.044208	0.000070
C16	C	-1.504620	-0.183652	0.000068
C17	C	-0.944772	0.045302	0.000618
C18	C	-1.091388	0.049095	0.000054
C19	C	-1.066451	0.255841	-0.139065
C20	C	-0.919909	0.251077	-0.139166
C21	C	-0.919416	0.253923	0.137852
C22	C	-1.066398	0.255208	0.139675
C23	C	-1.493859	0.414862	0.000045
C24	C	-1.497591	0.554306	0.000037
N25	N	-1.501112	0.185334	0.346724
C26	C	-1.383836	0.633752	0.000045
C27	C	-1.387350	0.764774	0.000056
C28	C	-1.618384	0.736892	0.000056
C29	C	-1.614869	0.605872	0.000035
C30	C	-1.250450	0.649851	0.000051
C31	C	-1.253964	0.780873	0.000062
N32	N	-1.501110	0.185311	-0.346606
C33	C	-1.586684	0.100755	0.423384
C34	C	-1.586681	0.100740	0.576721
C35	C	-1.415528	0.269893	0.576723
C36	C	-1.415526	0.269901	0.423389
C37	C	-1.685501	0.003099	0.423385
C38	C	-1.685498	0.003084	0.576722
H39	H	-1.134020	-0.003756	0.099771
F40	F	-0.878210	0.194881	0.275672
H41	H	-1.713868	0.778894	0.000029
F42	F	-1.657172	-0.123082	0.368983
H43	H	-1.107377	0.206140	0.242585
H44	H	-1.213660	0.826518	-0.105116
F45	F	-0.907428	-0.026769	0.131014
H46	H	-1.203714	0.822598	0.102014
H47	H	-1.088767	0.358344	-0.144246
H48	H	-1.345846	0.338745	0.639160
F49	F	-1.098007	0.388223	0.150644
F50	F	-0.905310	-0.026478	-0.129033
H51	H	-1.345836	0.338761	0.360973
F52	F	-1.194932	0.603236	0.137517
F53	F	-1.805963	0.043135	0.361218
F54	F	-1.645177	-0.116157	0.638882
H55	H	-1.783050	0.024637	0.618342
H56	H	-0.891717	0.201430	-0.243142
F57	F	-1.145950	-0.020196	-0.130706
F58	F	-0.857159	0.382282	-0.147427
H59	H	-1.109058	0.209178	-0.242584
H60	H	-1.707499	0.541191	0.000011
F61	F	-0.857642	0.385697	0.139073
H62	H	-1.198277	0.620491	-0.101894
