data_functionalizedCrystal
_audit_creation_method	'MofGen! by Chris Wilmer'
_symmetry_space_group_name_H-M	'P1'
_symmetry_Int_Tables_number	1
_symmetry_cell_setting	triclinic
loop_
_symmetry_equiv_pos_as_xyz
  x,y,z
_cell_length_a	18.215407
_cell_length_b	16.959454
_cell_length_c	16.959447
_cell_angle_alpha	90.025781
_cell_angle_beta	89.987342
_cell_angle_gamma	89.979606
loop_
_atom_site_label
_atom_site_type_symbol
_atom_site_fract_x
_atom_site_fract_y
_atom_site_fract_z
Zn1	Zn	1.125051	0.314720	-0.446899
Zn2	Zn	1.124973	0.446912	-0.314730
Zn3	Zn	1.001993	0.314746	-0.314740
Zn4	Zn	1.001954	0.446854	-0.446873
O5	O	1.063493	0.380808	-0.380810
O6	O	1.228025	0.332269	-0.429373
O7	O	1.108643	0.429415	-0.204121
O8	O	1.018366	0.204131	-0.332286
O9	O	1.227967	0.429390	-0.332270
O10	O	1.108776	0.204112	-0.429382
O11	O	1.018290	0.332313	-0.204128
O12	O	0.899003	0.332257	-0.332261
O13	O	1.018299	0.429291	-0.557487
O14	O	0.898975	0.429316	-0.429338
O15	O	1.108738	0.332212	-0.557506
O16	O	1.108605	0.557515	-0.332245
O17	O	1.018223	0.557473	-0.429329
C18	C	0.872286	0.380784	-0.380798
C19	C	0.790487	0.380792	-0.380812
C20	C	0.525434	0.431430	-0.431289
C21	C	0.602293	0.431423	-0.431286
C22	C	0.602292	0.330204	-0.330345
C23	C	0.525435	0.330215	-0.330346
C24	C	0.487008	0.380827	-0.380822
C25	C	0.640724	0.380809	-0.380818
C26	C	0.724058	0.380801	-0.380814
C27	C	0.403669	0.380836	-0.380826
C28	C	1.063421	0.586174	-0.380800
C29	C	1.063458	0.674031	-0.380823
C30	C	1.016468	1.045514	-0.431368
C31	C	1.110660	1.045498	-0.330356
C32	C	1.110638	0.962953	-0.330347
C33	C	1.063530	0.921684	-0.380849
C34	C	1.016443	0.962960	-0.431359
C35	C	1.157719	0.921669	-0.279832
C36	C	1.157698	0.839118	-0.279820
C37	C	1.110593	0.797848	-0.330327
C38	C	1.063505	0.839130	-0.380840
C39	C	1.016397	0.797861	-0.431342
C40	C	0.969312	0.839142	-0.481860
C41	C	0.969338	0.921690	-0.481866
C42	C	1.110567	0.715300	-0.330321
C43	C	1.016372	0.715308	-0.431333
C44	C	1.255445	0.380833	-0.380823
C45	C	1.337244	0.380843	-0.380829
C46	C	1.063523	0.380742	-0.586979
C47	C	1.063536	0.380714	-0.674835
C48	C	1.063572	1.174640	-0.380842
C49	C	1.063577	1.086783	-0.380866
C50	C	1.016537	0.431175	-1.046304
C51	C	1.110712	0.330087	-1.046319
C52	C	1.110692	0.330103	-0.963773
C53	C	1.063595	0.380658	-0.922488
C54	C	1.016517	0.431195	-0.963750
C55	C	1.157774	0.279572	-0.922505
C56	C	1.157757	0.279588	-0.839954
C57	C	1.110656	0.330139	-0.798668
C58	C	1.063575	0.380678	-0.839935
C59	C	1.016478	0.431232	-0.798651
C60	C	0.969394	0.481768	-0.839916
C61	C	0.969416	0.481746	-0.922465
C62	C	1.110634	0.330160	-0.716120
C63	C	1.016459	0.431252	-0.716097
C64	C	1.063504	0.380816	-0.175444
C65	C	1.063634	0.380621	-0.087588
H66	H	0.978013	0.681711	-0.472461
H67	H	0.494149	0.472641	-0.472390
H68	H	1.196123	0.238419	-0.956124
H69	H	0.978099	0.472413	-0.682489
H70	H	0.633576	0.472630	-0.472380
H71	H	1.148971	0.289017	-0.682525
F72	F	0.919174	0.795211	-0.535602
F73	F	0.484536	0.276356	-0.276627
H74	H	0.633589	0.288996	-0.289250
F75	F	0.919231	0.965629	-0.535624
F76	F	0.966363	1.089447	-0.485133
F77	F	1.207854	0.965594	-0.226091
H78	H	1.196037	0.805513	-0.238687
H79	H	0.931084	0.522892	-0.956070
H80	H	1.196096	0.238438	-0.806362
F81	F	1.160667	0.671370	-0.276553
F82	F	1.160793	1.089422	-0.276611
H83	H	0.931050	0.522933	-0.806292
F84	F	0.966426	0.484954	-1.090221
H85	H	1.149060	0.288932	-1.079937
