data_functionalizedCrystal
_audit_creation_method	'MofGen! by Chris Wilmer'
_symmetry_space_group_name_H-M	'P1'
_symmetry_Int_Tables_number	1
_symmetry_cell_setting	triclinic
loop_
_symmetry_equiv_pos_as_xyz
  x,y,z
_cell_length_a	16.109301
_cell_length_b	16.109301
_cell_length_c	14.586319
_cell_angle_alpha	89.986216
_cell_angle_beta	90.005889
_cell_angle_gamma	96.538468
loop_
_atom_site_label
_atom_site_type_symbol
_atom_site_fract_x
_atom_site_fract_y
_atom_site_fract_z
O1	O	1.103135	-0.106877	0.076193
O2	O	0.861073	-0.120176	0.076206
O3	O	0.988754	0.007505	0.076190
O4	O	0.975455	-0.234557	0.076209
O5	O	0.988736	0.007526	-0.076291
O6	O	0.861055	-0.120155	-0.076275
O7	O	1.103117	-0.106855	-0.076288
Cu8	Cu	0.982085	-0.113503	-0.090204
Cu9	Cu	0.982106	-0.113528	0.090122
O10	O	0.975437	-0.234536	-0.076272
C11	C	0.830089	-0.119627	-0.000033
C12	C	0.737794	-0.118011	-0.000028
C13	C	0.428796	-0.188494	-0.000038
C14	C	0.515516	-0.190020	-0.000033
C15	C	0.535389	-0.038531	-0.000033
C16	C	0.448671	-0.037007	-0.000032
C17	C	0.395376	-0.111991	-0.000039
C18	C	0.568815	-0.115041	-0.000035
C19	C	0.662841	-0.116694	-0.000029
C20	C	0.301344	-0.110338	-0.000043
C21	C	0.988206	0.038490	-0.000051
C22	C	0.986591	0.130785	-0.000052
C23	C	1.134101	-0.107405	-0.000047
C24	C	1.226396	-0.109020	-0.000046
C25	C	0.975984	-0.265522	-0.000029
C26	C	0.977599	-0.357817	-0.000021
N27	N	0.982076	-0.113485	-0.217036
C28	C	1.058599	0.353058	-0.000042
C29	C	1.057075	0.439778	-0.000034
C30	C	0.905586	0.419904	-0.000029
C31	C	0.907111	0.333185	-0.000030
C32	C	0.983620	0.299765	-0.000041
C33	C	0.980571	0.473204	-0.000033
C34	C	0.978918	0.567230	-0.000024
C35	C	0.985273	0.205733	-0.000048
C36	C	0.931693	-0.063080	-0.548066
C37	C	0.931687	-0.063068	-0.452085
C38	C	1.032510	-0.163947	-0.452022
C39	C	1.032520	-0.163953	-0.548002
C40	C	0.982107	-0.113521	-0.596021
C41	C	0.982090	-0.113503	-0.404061
C42	C	0.982083	-0.113491	-0.299993
C43	C	0.982115	-0.113532	-0.700095
N44	N	0.982121	-0.113540	0.216954
H45	H	0.578792	0.022518	-0.000029
O46	O	1.081597	-0.212845	-0.405417
C47	C	1.221500	-0.245389	-0.376044
C48	C	1.166010	-0.189937	-0.428862
H49	H	1.289758	-0.226900	-0.394995
H50	H	1.212905	-0.236717	-0.299196
H51	H	1.202903	-0.313651	-0.394889
H52	H	1.184572	-0.121654	-0.410094
H53	H	1.174612	-0.198680	-0.505697
H54	H	1.073578	-0.205030	-0.587048
H55	H	1.120897	0.325850	-0.000049
O56	O	0.377144	-0.261408	0.000005
C57	C	0.366589	-0.411824	-0.000039
C58	C	0.425177	-0.329310	-0.000071
H59	H	0.405400	-0.466745	-0.000119
H60	H	0.325514	-0.414966	0.063790
H61	H	0.325470	-0.414843	-0.063836
H62	H	0.466348	-0.326236	0.063683
H63	H	0.466195	-0.326203	-0.063942
O64	O	0.548015	-0.264317	0.000135
C65	C	0.634418	-0.353955	0.079124
C66	C	0.597656	-0.269788	0.079050
H67	H	0.674574	-0.358399	0.142910
H68	H	0.581457	-0.407312	0.079182
H69	H	0.674485	-0.358441	0.015287
H70	H	0.557599	-0.265221	0.142876
H71	H	0.650657	-0.216472	0.078944
H72	H	0.421461	0.025296	-0.000029
H73	H	0.890644	-0.022014	-0.587161
O74	O	0.882656	-0.014195	-0.405405
C75	C	0.770341	-0.009379	-0.297130
C76	C	0.825830	-0.064823	-0.349917
H77	H	0.724373	-0.050290	-0.252270
H78	H	0.811178	0.036527	-0.252137
H79	H	0.734354	0.026678	-0.347964
H80	H	0.861827	-0.100933	-0.299149
H81	H	0.784949	-0.110676	-0.394924
O82	O	1.129965	0.491461	0.000085
C83	C	1.258963	0.534990	0.079103
C84	C	1.176451	0.476399	0.079069
H85	H	1.296562	0.522845	0.142965
H86	H	1.296664	0.522846	0.015330
H87	H	1.244716	0.602706	0.079064
H88	H	1.190622	0.408662	0.079140
H89	H	1.138774	0.488615	0.142837
H90	H	0.843295	0.447126	-0.000022
O91	O	0.834195	0.281529	-0.000071
C92	C	0.683777	0.270960	-0.000009
C93	C	0.766287	0.329555	0.000011
H94	H	0.628852	0.309766	0.000077
H95	H	0.680642	0.229891	-0.063836
H96	H	0.680760	0.229835	0.063790
H97	H	0.769359	0.370733	-0.063745
H98	H	0.769388	0.370567	0.063880
