data_functionalizedCrystal
_audit_creation_method	'MofGen! by Chris Wilmer'
_symmetry_space_group_name_H-M	'P1'
_symmetry_Int_Tables_number	1
_symmetry_cell_setting	triclinic
loop_
_symmetry_equiv_pos_as_xyz
  x,y,z
_cell_length_a	19.805405
_cell_length_b	19.805407
_cell_length_c	19.805399
_cell_angle_alpha	89.980803
_cell_angle_beta	90.029301
_cell_angle_gamma	89.977440
loop_
_atom_site_label
_atom_site_type_symbol
_atom_site_fract_x
_atom_site_fract_y
_atom_site_fract_z
Zn1	Zn	-0.269548	-1.034736	0.382705
Zn2	Zn	0.063785	-0.701402	0.716038
Zn3	Zn	0.397118	-0.368069	1.049371
Zn4	Zn	-0.382737	-1.034650	0.269513
Zn5	Zn	-0.049403	-0.701317	0.602846
Zn6	Zn	0.283930	-0.367984	0.936180
Zn7	Zn	-0.269559	-0.921550	0.269530
Zn8	Zn	0.063774	-0.588217	0.602863
Zn9	Zn	0.397107	-0.254884	0.936197
Zn10	Zn	-0.382693	-0.921514	0.382661
Zn11	Zn	-0.049360	-0.588180	0.715994
Zn12	Zn	0.283973	-0.254847	1.049327
O13	O	-0.326134	-0.978113	0.326102
O14	O	0.007199	-0.644779	0.659435
O15	O	0.340532	-0.311446	0.992769
O16	O	-0.284577	-1.129441	0.367701
O17	O	0.048757	-0.796108	0.701034
O18	O	0.382090	-0.462774	1.034368
O19	O	-0.367746	-1.019627	0.174799
O20	O	-0.034413	-0.686294	0.508132
O21	O	0.298920	-0.352960	0.841465
O22	O	-0.174841	-0.936615	0.284569
O23	O	0.158492	-0.603282	0.617902
O24	O	0.491825	-0.269949	0.951235
O25	O	-0.367736	-1.129378	0.284540
O26	O	-0.034402	-0.796045	0.617873
O27	O	0.298931	-0.462712	0.951206
O28	O	-0.174833	-1.019772	0.367717
O29	O	0.158500	-0.686439	0.701051
O30	O	0.491833	-0.353106	1.034384
O31	O	-0.284596	-0.936533	0.174811
O32	O	0.048738	-0.603200	0.508145
O33	O	0.382071	-0.269866	0.841478
O34	O	-0.284553	-0.826829	0.284526
O35	O	0.048780	-0.493496	0.617859
O36	O	0.382113	-0.160162	0.951192
O37	O	-0.367661	-0.936553	0.477383
O38	O	-0.034328	-0.603220	0.810716
O39	O	0.299005	-0.269887	1.144050
O40	O	-0.367672	-0.826802	0.367642
O41	O	-0.034339	-0.493469	0.700976
O42	O	0.298995	-0.160135	1.034309
O43	O	-0.284534	-1.019737	0.477415
O44	O	0.048799	-0.686404	0.810749
O45	O	0.382132	-0.353070	1.144082
O46	O	-0.477448	-1.019592	0.284497
O47	O	-0.144114	-0.686258	0.617830
O48	O	0.189219	-0.352925	0.951163
O49	O	-0.477416	-0.936471	0.367626
O50	O	-0.144082	-0.603137	0.700959
O51	O	0.189251	-0.269804	1.034292
C52	C	-0.326110	-0.802257	0.326081
C53	C	0.007224	-0.468923	0.659415
C54	C	0.340557	-0.135590	0.992748
C55	C	-0.326115	-0.727025	0.326089
C56	C	0.007218	-0.393691	0.659422
C57	C	0.340551	-0.060358	0.992755
C58	C	-0.282890	-0.691714	0.369456
C59	C	0.050443	-0.358380	0.702789
C60	C	0.383776	-0.025047	1.036122
C61	C	-0.282892	-0.621025	0.369457
C62	C	0.050441	-0.287692	0.702790
C63	C	0.383774	0.045641	1.036123
C64	C	-0.326124	-0.585649	0.326093
C65	C	0.007210	-0.252316	0.659427
C66	C	0.340543	0.081018	0.992760
C67	C	-0.369350	-0.620965	0.282721
C68	C	-0.036017	-0.287632	0.616055
C69	C	0.297316	0.045702	0.949388
C70	C	-0.369344	-0.691652	0.282718
C71	C	-0.036011	-0.358319	0.616051
C72	C	0.297322	-0.024985	0.949384
C73	C	-0.369375	-0.335892	0.282735
C74	C	-0.036042	-0.002558	0.616069
C75	C	0.297292	0.330775	0.949402
C76	C	-0.369379	-0.265199	0.282744
C77	C	-0.036046	0.068134	0.616077
C78	C	0.297287	0.401467	0.949410
C79	C	-0.282923	-0.265265	0.369474
C80	C	0.050410	0.068069	0.702808
C81	C	0.383744	0.401402	1.036141
C82	C	-0.282917	-0.335952	0.369470
C83	C	0.050416	-0.002619	0.702804
C84	C	0.383750	0.330715	1.036137
C85	C	-0.326141	-0.371262	0.326096
C86	C	0.007192	-0.037928	0.659430
C87	C	0.340525	0.295405	0.992763
C88	C	-0.326137	-0.447910	0.326095
C89	C	0.007196	-0.114577	0.659428
C90	C	0.340529	0.218757	0.992762
C91	C	-0.326131	-0.509002	0.326098
C92	C	0.007202	-0.175669	0.659431
C93	C	0.340535	0.157665	0.992764
C94	C	-0.501991	-0.978036	0.326069
C95	C	-0.168657	-0.644703	0.659403
C96	C	0.164676	-0.311370	0.992736
C97	C	-0.577222	-0.978066	0.326078
C98	C	-0.243889	-0.644732	0.659411
C99	C	0.089444	-0.311399	0.992745
C100	C	-0.612561	-1.021389	0.282838
C101	C	-0.279227	-0.688056	0.616171
C102	C	0.054106	-0.354722	0.949505
C103	C	-0.683249	-1.021418	0.282853
C104	C	-0.349916	-0.688084	0.616186
C105	C	-0.016583	-0.354751	0.949520
C106	C	-0.718598	-0.978119	0.326105
C107	C	-0.385265	-0.644786	0.659438
C108	C	-0.051931	-0.311453	0.992772
C109	C	-0.683255	-0.934794	0.369350
C110	C	-0.349921	-0.601461	0.702683
C111	C	-0.016588	-0.268128	1.036016
C112	C	-0.612568	-0.934769	0.369338
C113	C	-0.279234	-0.601436	0.702671
C114	C	0.054099	-0.268103	1.036004
C115	C	-0.968328	-0.934894	0.369400
C116	C	-0.634995	-0.601561	0.702733
C117	C	-0.301661	-0.268227	1.036067
C118	C	-1.039020	-0.934921	0.369407
C119	C	-0.705687	-0.601587	0.702740
C120	C	-0.372353	-0.268254	1.036074
C121	C	-1.039010	-1.021542	0.282915
C122	C	-0.705676	-0.688209	0.616249
C123	C	-0.372343	-0.354876	0.949582
C124	C	-0.968322	-1.021517	0.282903
C125	C	-0.634989	-0.688184	0.616237
C126	C	-0.301656	-0.354851	0.949570
C127	C	-0.932985	-0.978195	0.326150
C128	C	-0.599652	-0.644862	0.659483
C129	C	-0.266319	-0.311529	0.992817
C130	C	-0.856337	-0.978165	0.326134
C131	C	-0.523004	-0.644832	0.659468
C132	C	-0.189670	-0.311499	0.992801
C133	C	-0.795245	-0.978145	0.326118
C134	C	-0.461912	-0.644812	0.659451
C135	C	-0.128578	-0.311478	0.992785
C136	C	-0.149592	-0.978207	0.326150
C137	C	0.183742	-0.644874	0.659483
C138	C	0.517075	-0.311541	0.992816
C139	C	-0.074360	-0.978248	0.326170
C140	C	0.258974	-0.644915	0.659503
C141	C	0.592307	-0.311581	0.992837
C142	C	-0.326092	-0.978151	0.502645
C143	C	0.007242	-0.644817	0.835978
C144	C	0.340575	-0.311484	1.169312
C145	C	-0.326074	-0.978167	0.577877
C146	C	0.007260	-0.644833	0.911210
C147	C	0.340593	-0.311500	1.244544
C148	C	-0.326155	-0.154655	0.326117
C149	C	0.007179	0.178678	0.659451
C150	C	0.340512	0.512011	0.992784
C151	C	-0.326150	-0.229887	0.326108
C152	C	0.007183	0.103446	0.659441
C153	C	0.340516	0.436779	0.992775
C154	C	-0.326128	-0.978114	0.150246
C155	C	0.007205	-0.644780	0.483579
C156	C	0.340539	-0.311447	0.816913
C157	C	-0.325956	-0.978229	0.075015
C158	C	0.007378	-0.644895	0.408348
C159	C	0.340711	-0.311562	0.741681
C160	C	-0.282787	-1.021481	0.613239
C161	C	0.050546	-0.688148	0.946572
C162	C	0.383879	-0.354815	1.279906
C163	C	-0.282768	-1.021488	0.683928
C164	C	0.050566	-0.688155	1.017261
C165	C	0.383899	-0.354822	1.350594
C166	C	-0.326038	-0.978184	0.719253
C167	C	0.007295	-0.644850	1.052586
C168	C	0.340628	-0.311517	1.385919
C169	C	-0.369327	-0.934864	0.683886
C170	C	-0.035993	-0.601531	1.017219
C171	C	0.297340	-0.268197	1.350552
C172	C	-0.369342	-0.934854	0.613198
C173	C	-0.036009	-0.601521	0.946532
C174	C	0.297324	-0.268188	1.279865
C175	C	-0.369264	-0.934902	0.968959
C176	C	-0.035930	-0.601569	1.302292
C177	C	0.297403	-0.268236	1.635626
C178	C	-0.369246	-0.934917	1.039651
C179	C	-0.035913	-0.601584	1.372984
C180	C	0.297421	-0.268250	1.706318
C181	C	-0.282689	-1.021536	1.039688
C182	C	0.050644	-0.688203	1.373022
C183	C	0.383978	-0.354870	1.706355
C184	C	-0.282705	-1.021527	0.969001
C185	C	0.050629	-0.688193	1.302334
C186	C	0.383962	-0.354860	1.635668
C187	C	-0.325990	-0.978205	0.933640
C188	C	0.007343	-0.644872	1.266973
C189	C	0.340677	-0.311538	1.600307
C190	C	-0.326010	-0.978197	0.856992
C191	C	0.007323	-0.644864	1.190325
C192	C	0.340657	-0.311530	1.523658
C193	C	-0.326022	-0.978194	0.795900
C194	C	0.007311	-0.644861	1.129233
C195	C	0.340644	-0.311528	1.462566
H196	H	-0.247696	-0.592278	0.404772
H197	H	0.085638	-0.258945	0.738105
H198	H	0.418971	0.074389	1.071438
C199	C	-0.235361	-0.374862	0.417168
C200	C	0.097972	-0.041529	0.750501
C201	C	0.431306	0.291804	1.083834
H202	H	-0.209613	-0.343708	0.442992
H203	H	0.123721	-0.010374	0.776325
H204	H	0.457054	0.322959	1.109658
H205	H	-0.261286	-0.402443	0.446610
H206	H	0.072047	-0.069110	0.779943
H207	H	0.405380	0.264224	1.113277
H208	H	-0.205832	-0.402434	0.391321
H209	H	0.127501	-0.069100	0.724654
H210	H	0.460834	0.264233	1.057987
C211	C	-0.573683	-1.069019	0.235261
C212	C	-0.240350	-0.735685	0.568594
C213	C	0.092983	-0.402352	0.901928
H214	H	-0.604856	-1.094829	0.209516
H215	H	-0.271523	-0.761496	0.542850
H216	H	0.061810	-0.428162	0.876183
H217	H	-0.546146	-1.043138	0.205740
H218	H	-0.212813	-0.709805	0.539073
H219	H	0.120520	-0.376471	0.872407
H220	H	-0.546070	-1.098487	0.261181
H221	H	-0.212737	-0.765154	0.594514
H222	H	0.120596	-0.431821	0.927848
C223	C	-0.722119	-1.069070	0.235286
C224	C	-0.388785	-0.735736	0.568619
C225	C	-0.055452	-0.402403	0.901952
H226	H	-0.690942	-1.094846	0.209519
H227	H	-0.357609	-0.761513	0.542852
H228	H	-0.024276	-0.428180	0.876185
H229	H	-0.749654	-1.098558	0.261206
H230	H	-0.416321	-0.765225	0.594539
H231	H	-0.082987	-0.431892	0.927872
H232	H	-0.749733	-1.043199	0.205775
H233	H	-0.416399	-0.709866	0.539108
H234	H	-0.083066	-0.376532	0.872441
C235	C	-0.416897	-0.730494	0.235019
C236	C	-0.083564	-0.397161	0.568353
C237	C	0.249769	-0.063827	0.901686
H238	H	-0.442651	-0.699303	0.209199
H239	H	-0.109317	-0.365969	0.542533
H240	H	0.224016	-0.032636	0.875866
H241	H	-0.390968	-0.758068	0.205573
H242	H	-0.057635	-0.424734	0.538907
H243	H	0.275699	-0.091401	0.872240
H244	H	-0.446422	-0.758068	0.260863
H245	H	-0.113088	-0.424734	0.594196
H246	H	0.220245	-0.091401	0.927530
C247	C	-1.077882	-1.069201	0.235348
C248	C	-0.744549	-0.735868	0.568682
C249	C	-0.411216	-0.402535	0.902015
H250	H	-1.125044	-1.063022	0.241552
H251	H	-0.791710	-0.729689	0.574886
H252	H	-0.458377	-0.396356	0.908219
H253	H	-1.066335	-1.059316	0.189861
H254	H	-0.733002	-0.725983	0.523194
H255	H	-0.399669	-0.392649	0.856528
H256	H	-1.066255	-1.114671	0.245296
H257	H	-0.732921	-0.781338	0.578630
H258	H	-0.399588	-0.448004	0.911963
C259	C	-0.235338	-0.730624	0.417156
C260	C	0.097995	-0.397291	0.750490
C261	C	0.431328	-0.063958	1.083823
H262	H	-0.241529	-0.777781	0.410949
H263	H	0.091805	-0.444448	0.744283
H264	H	0.425138	-0.111114	1.077616
H265	H	-0.189849	-0.719051	0.407336
H266	H	0.143484	-0.385717	0.740669
H267	H	0.476818	-0.052384	1.074003
H268	H	-0.245310	-0.719053	0.462618
H269	H	0.088023	-0.385720	0.795951
H270	H	0.421356	-0.052386	1.129285
H271	H	-0.247471	-1.056792	0.940243
H272	H	0.085862	-0.723459	1.273576
H273	H	0.419195	-0.390125	1.606909
H274	H	-0.247441	-1.056809	1.068488
H275	H	0.085892	-0.723475	1.401821
H276	H	0.419225	-0.390142	1.735154
C277	C	-0.235171	-1.069150	0.722826
C278	C	0.098162	-0.735817	1.056160
C279	C	0.431496	-0.402483	1.389493
H280	H	-0.241356	-1.062954	0.769984
H281	H	0.091977	-0.729621	1.103317
H282	H	0.425310	-0.396288	1.436651
H283	H	-0.245102	-1.114615	0.711241
H284	H	0.088231	-0.781281	1.044574
H285	H	0.421564	-0.447948	1.377908
H286	H	-0.189687	-1.059280	0.711258
H287	H	0.143646	-0.725946	1.044592
H288	H	0.476979	-0.392613	1.377925
H289	H	-0.404571	-0.364632	0.247418
H290	H	-0.071238	-0.031299	0.580751
H291	H	0.262095	0.302034	0.914085
H292	H	-0.247553	-1.056747	0.584482
H293	H	0.085780	-0.723414	0.917816
H294	H	0.419113	-0.390081	1.251149
H295	H	-0.712041	-0.899543	0.404569
H296	H	-0.378708	-0.566210	0.737902
H297	H	-0.045375	-0.232876	1.071236
H298	H	-0.939544	-1.056773	0.247681
H299	H	-0.606210	-0.723439	0.581014
H300	H	-0.272877	-0.390106	0.914348
C301	C	-0.416925	-0.887228	0.722738
C302	C	-0.083591	-0.553895	1.056071
C303	C	0.249742	-0.220562	1.389405
H304	H	-0.442703	-0.861426	0.691552
H305	H	-0.109369	-0.528093	1.024885
H306	H	0.223964	-0.194759	1.358218
H307	H	-0.446414	-0.913108	0.750309
H308	H	-0.113081	-0.579774	1.083642
H309	H	0.220253	-0.246441	1.416976
H310	H	-0.391019	-0.857753	0.750315
H311	H	-0.057685	-0.524419	1.083648
H312	H	0.275648	-0.191086	1.416981
C313	C	-0.235370	-0.226422	0.417179
C314	C	0.097963	0.106911	0.750513
C315	C	0.431296	0.440244	1.083846
H316	H	-0.241557	-0.179257	0.410968
H317	H	0.091776	0.154076	0.744301
H318	H	0.425109	0.487410	1.077635
H319	H	-0.245335	-0.238021	0.462637
H320	H	0.087998	0.095312	0.795971
H321	H	0.421331	0.428646	1.129304
H322	H	-0.189877	-0.238020	0.407352
H323	H	0.143456	0.095313	0.740686
H324	H	0.476789	0.428646	1.074019
C325	C	-1.077903	-0.887296	0.416992
C326	C	-0.744569	-0.553963	0.750326
C327	C	-0.411236	-0.220630	1.083659
H328	H	-1.046734	-0.861496	0.442752
H329	H	-0.713401	-0.528163	0.776086
H330	H	-0.380067	-0.194830	1.109419
H331	H	-1.105518	-0.857828	0.391081
H332	H	-0.772185	-0.524495	0.724415
H333	H	-0.438851	-0.191162	1.057748
H334	H	-1.105438	-0.913190	0.446509
H335	H	-0.772104	-0.579857	0.779843
H336	H	-0.438771	-0.246524	1.113176
H337	H	-0.583796	-0.899492	0.404549
H338	H	-0.250462	-0.566159	0.737882
H339	H	0.082871	-0.232826	1.071216
H340	H	-0.939562	-0.899618	0.404612
H341	H	-0.606229	-0.566285	0.737945
H342	H	-0.272895	-0.232952	1.071278
H343	H	-0.404547	-0.592156	0.247411
H344	H	-0.071213	-0.258823	0.580744
H345	H	0.262120	0.074511	0.914078
C346	C	-0.416841	-0.887275	1.078508
C347	C	-0.083508	-0.553941	1.411841
C348	C	0.249826	-0.220608	1.745174
H349	H	-0.442618	-0.861467	1.047325
H350	H	-0.109284	-0.528134	1.380658
H351	H	0.224049	-0.194800	1.713991
H352	H	-0.446331	-0.913152	1.106079
H353	H	-0.112998	-0.579818	1.439413
H354	H	0.220335	-0.246485	1.772746
H355	H	-0.390929	-0.857804	1.106084
H356	H	-0.057596	-0.524471	1.439418
H357	H	0.275738	-0.191137	1.772751
C358	C	-0.416862	-0.887237	0.930071
C359	C	-0.083528	-0.553904	1.263404
C360	C	0.249805	-0.220570	1.596737
H361	H	-0.442628	-0.861449	0.961235
H362	H	-0.109295	-0.528116	1.294568
H363	H	0.224039	-0.194782	1.627902
H364	H	-0.390957	-0.857760	0.902508
H365	H	-0.057623	-0.524427	1.235841
H366	H	0.275710	-0.191093	1.569174
H367	H	-0.446372	-0.913094	0.902483
H368	H	-0.113039	-0.579761	1.235816
H369	H	0.220294	-0.246427	1.569150
C370	C	-0.416974	-0.887225	0.574300
C371	C	-0.083641	-0.553892	0.907633
C372	C	0.249693	-0.220558	1.240967
H373	H	-0.442751	-0.861444	0.605461
H374	H	-0.109418	-0.528111	0.938794
H375	H	0.223915	-0.194777	1.272128
H376	H	-0.391098	-0.857739	0.546719
H377	H	-0.057765	-0.524406	0.880052
H378	H	0.275569	-0.191073	1.213385
H379	H	-0.446473	-0.913115	0.546730
H380	H	-0.113139	-0.579781	0.880063
H381	H	0.220194	-0.246448	1.213397
H382	H	-0.404585	-0.236398	0.247430
H383	H	-0.071252	0.096935	0.580763
H384	H	0.262082	0.430269	0.914096
