data_functionalizedCrystal
_audit_creation_method	'MofGen! by Chris Wilmer'
_symmetry_space_group_name_H-M	'P1'
_symmetry_Int_Tables_number	1
_symmetry_cell_setting	triclinic
loop_
_symmetry_equiv_pos_as_xyz
  x,y,z
_cell_length_a	18.215407
_cell_length_b	12.827892
_cell_length_c	18.215387
_cell_angle_alpha	90.084384
_cell_angle_beta	89.944679
_cell_angle_gamma	89.985226
loop_
_atom_site_label
_atom_site_type_symbol
_atom_site_fract_x
_atom_site_fract_y
_atom_site_fract_z
Zn1	Zn	1.125386	0.415461	-0.416104
Zn2	Zn	1.625386	0.915461	0.083896
Zn3	Zn	1.125229	0.590413	-0.293053
Zn4	Zn	1.625229	1.090413	0.206947
Zn5	Zn	1.002237	0.415679	-0.293057
Zn6	Zn	1.502237	0.915679	0.206943
Zn7	Zn	1.002301	0.590153	-0.416083
Zn8	Zn	1.502301	1.090153	0.083917
O9	O	1.063789	0.502926	-0.354574
O10	O	1.563789	1.002926	0.145426
O11	O	1.228350	0.438686	-0.399788
O12	O	1.728350	0.938686	0.100212
O13	O	1.108822	0.567435	-0.190069
O14	O	1.608822	1.067435	0.309931
O15	O	1.018612	0.269414	-0.309390
O16	O	1.518612	0.769414	0.190610
O17	O	1.228234	0.567223	-0.309383
O18	O	1.728234	1.067223	0.190617
O19	O	1.109089	0.269254	-0.399792
O20	O	1.609089	0.769254	0.100208
O21	O	1.018460	0.439059	-0.190072
O22	O	1.518460	0.939059	0.309928
O23	O	0.899262	0.438806	-0.309369
O24	O	1.399262	0.938806	0.190631
O25	O	1.018721	0.566779	-0.519070
O26	O	1.518721	1.066779	-0.019070
O27	O	0.899308	0.566991	-0.399756
O28	O	1.399308	1.066991	0.100244
O29	O	1.109151	0.438433	-0.519086
O30	O	1.609151	0.938433	-0.019086
O31	O	1.108884	0.736615	-0.309363
O32	O	1.608884	1.236615	0.190637
O33	O	1.018569	0.736423	-0.399752
O34	O	1.518569	1.236423	0.100248
C35	C	0.872582	0.502894	-0.354561
C36	C	1.372582	1.002894	0.145439
C37	C	0.790783	0.502906	-0.354573
C38	C	1.290783	1.002906	0.145427
C39	C	0.602648	0.436114	-0.401722
C40	C	1.102648	0.936114	0.098278
C41	C	0.525790	0.436123	-0.401724
C42	C	1.025790	0.936123	0.098276
C43	C	0.525681	0.569768	-0.307440
C44	C	1.025681	1.069768	0.192560
C45	C	0.602538	0.569753	-0.307434
C46	C	1.102538	1.069753	0.192566
C47	C	0.641020	0.502928	-0.354579
C48	C	1.141020	1.002928	0.145421
C49	C	0.487304	0.502952	-0.354587
C50	C	0.987304	1.002952	0.145413
C51	C	0.403970	0.502962	-0.354590
C52	C	0.903970	1.002962	0.145410
C53	C	0.724359	0.502916	-0.354576
C54	C	1.224359	1.002916	0.145424
C55	C	1.063736	0.774436	-0.354571
C56	C	1.563736	1.274436	0.145429
C57	C	1.063781	0.890589	-0.354594
C58	C	1.563781	1.390589	0.145406
C59	C	1.108523	0.942434	-0.309918
C60	C	1.608523	1.442434	0.190082
C61	C	1.108571	1.062485	-0.309941
C62	C	1.608571	1.562485	0.190059
C63	C	1.255741	0.502959	-0.354588
C64	C	1.755741	1.002959	0.145412
C65	C	1.337540	0.502974	-0.354593
C66	C	1.837540	1.002974	0.145407
C67	C	1.063961	0.502553	-0.546528
C68	C	1.563961	1.002553	-0.046528
C69	C	1.064034	0.502393	-0.628327
C70	C	1.564034	1.002393	-0.128327
C71	C	1.063855	1.230356	-0.354603
C72	C	1.563855	1.730356	0.145397
C73	C	1.063868	1.114203	-0.354637
C74	C	1.563868	1.614203	0.145363
C75	C	1.063659	0.503224	-0.163368
C76	C	1.563659	1.003224	0.336632
C77	C	1.063729	0.503089	-0.081569
C78	C	1.563729	1.003089	0.418431
C79	C	1.110649	0.435382	0.183287
C80	C	1.610649	0.935382	0.683287
C81	C	1.110597	0.435497	0.106428
C82	C	1.610597	0.935497	0.606428
C83	C	1.017108	0.570103	0.106823
C84	C	1.517108	1.070103	0.606823
C85	C	1.017157	0.569982	0.183681
C86	C	1.517157	1.069982	0.683681
C87	C	1.063932	0.502623	0.221910
C88	C	1.563932	1.002623	0.721910
C89	C	1.063830	0.502859	0.068194
C90	C	1.563830	1.002859	0.568194
C91	C	1.063773	0.502985	-0.015139
C92	C	1.563773	1.002985	0.484861
C93	C	1.063989	0.502495	0.305249
C94	C	1.563989	1.002495	0.805249
H95	H	0.633978	0.381697	-0.440108
H96	H	1.133978	0.881697	0.059892
H97	H	0.633781	0.624162	-0.269041
H98	H	1.133781	1.124162	0.230959
O99	O	0.971696	0.635157	0.221237
O100	O	1.471696	1.135157	0.721237
C101	C	0.872494	0.650072	0.308235
C102	C	1.372494	1.150072	0.808235
C103	C	0.923920	0.576152	0.265735
C104	C	1.423920	1.076152	0.765735
H105	H	0.833865	0.602397	0.344234
H106	H	1.333865	1.102397	0.844234
H107	H	0.839005	0.698225	0.267743
H108	H	1.339005	1.198225	0.767743
H109	H	0.906582	0.704335	0.344230
H110	H	1.406582	1.204335	0.844230
H111	H	0.889888	0.521825	0.229739
H112	H	1.389888	1.021825	0.729739
H113	H	0.957412	0.528072	0.306267
H114	H	1.457412	1.028072	0.806267
O115	O	0.971610	0.635574	0.069800
O116	O	1.471610	1.135574	0.569800
C117	C	0.878923	0.769123	0.078305
C118	C	1.378923	1.269123	0.578305
C119	C	0.930399	0.695008	0.120323
C120	C	1.430399	1.195008	0.620323
H121	H	0.845602	0.817210	0.119135
H122	H	1.345602	1.317210	0.619135
H123	H	0.840140	0.721645	0.042316
H124	H	1.340140	1.221645	0.542316
H125	H	0.912964	0.823436	0.042348
H126	H	1.412964	1.323436	0.542348
H127	H	0.896418	0.640680	0.156319
H128	H	1.396418	1.140680	0.656319
H129	H	0.969184	0.742552	0.156266
H130	H	1.469184	1.242552	0.656266
H131	H	0.494551	0.381715	-0.440111
H132	H	0.994551	0.881715	0.059889
H133	H	1.148637	0.380741	0.074984
H134	H	1.648637	0.880741	0.574984
O135	O	0.488184	0.634652	-0.261719
O136	O	0.988184	1.134652	0.238281
C137	C	0.369733	0.693866	-0.219912
C138	C	0.869733	1.193866	0.280088
C139	C	0.412104	0.620346	-0.271740
C140	C	0.912104	1.120346	0.228260
H141	H	0.308215	0.682309	-0.227985
H142	H	0.808215	1.182309	0.272015
H143	H	0.384797	0.778152	-0.232740
H144	H	0.884797	1.278152	0.267260
H145	H	0.384828	0.675511	-0.160598
H146	H	0.884828	1.175511	0.339402
H147	H	0.397032	0.638606	-0.331071
H148	H	0.897032	1.138606	0.168929
H149	H	0.397036	0.536081	-0.258848
H150	H	0.897036	1.036081	0.241152
H151	H	1.146798	0.897946	-0.271654
H152	H	1.646798	1.397946	0.228346
O153	O	1.018203	1.061143	-0.400376
O154	O	1.518203	1.561143	0.099624
C155	C	0.982533	1.027223	-0.525504
C156	C	1.482533	1.527223	-0.025504
C157	C	1.034282	1.087407	-0.473787
C158	C	1.534282	1.587407	0.026213
H159	H	0.995525	1.048419	-0.584868
H160	H	1.495525	1.548419	-0.084868
H161	H	0.923173	1.048742	-0.512609
H162	H	1.423173	1.548742	-0.012609
H163	H	0.990626	0.939885	-0.517316
H164	H	1.490626	1.439885	-0.017316
H165	H	1.026255	1.174760	-0.481946
H166	H	1.526255	1.674760	0.018054
H167	H	1.093623	1.065802	-0.486695
H168	H	1.593623	1.565802	0.013305
O169	O	1.154271	1.115826	-0.264399
O170	O	1.654271	1.615826	0.235601
C171	C	1.195963	1.284118	-0.222875
C172	C	1.695963	1.784118	0.277125
C173	C	1.144168	1.223837	-0.274488
C174	C	1.644168	1.723837	0.225512
H175	H	1.187802	1.371454	-0.231003
H176	H	1.687802	1.871454	0.268997
H177	H	1.255317	1.262674	-0.235865
H178	H	1.755317	1.762674	0.264135
H179	H	1.183080	1.262841	-0.163501
H180	H	1.683080	1.762841	0.336499
H181	H	1.156985	1.245081	-0.333878
H182	H	1.656985	1.745081	0.166122
H183	H	1.084830	1.245286	-0.261434
H184	H	1.584830	1.745286	0.238566
O185	O	1.018020	0.943541	-0.400212
O186	O	1.518020	1.443541	0.099788
C187	C	0.892873	0.977250	-0.435782
C188	C	1.392873	1.477250	0.064218
C189	C	0.944615	0.917203	-0.384083
C190	C	1.444615	1.417203	0.115917
H191	H	0.833514	0.955995	-0.422750
H192	H	1.333514	1.455995	0.077250
H193	H	0.905719	0.955668	-0.495157
H194	H	1.405719	1.455668	0.004843
H195	H	0.901085	1.064610	-0.427680
H196	H	1.401085	1.564610	0.072320
H197	H	0.936432	0.829830	-0.392120
H198	H	1.436432	1.329830	0.107880
H199	H	0.931757	0.938873	-0.324728
H200	H	1.431757	1.438873	0.175272
H201	H	1.148735	0.380531	0.214411
H202	H	1.648735	0.880531	0.714411
