data_functionalizedCrystal
_audit_creation_method	'MofGen! by Chris Wilmer'
_symmetry_space_group_name_H-M	'P1'
_symmetry_Int_Tables_number	1
_symmetry_cell_setting	triclinic
loop_
_symmetry_equiv_pos_as_xyz
  x,y,z
_cell_length_a	19.188905
_cell_length_b	18.266242
_cell_length_c	9.065218
_cell_angle_alpha	89.996786
_cell_angle_beta	95.924779
_cell_angle_gamma	90.016065
loop_
_atom_site_label
_atom_site_type_symbol
_atom_site_fract_x
_atom_site_fract_y
_atom_site_fract_z
O1	O	0.927590	0.060999	-0.184000
O2	O	0.724469	0.060974	-0.208832
O3	O	0.830228	0.060985	0.018373
O4	O	0.821831	0.060987	-0.411205
O5	O	0.830210	-0.060777	0.018379
O6	O	0.724451	-0.060788	-0.208825
O7	O	0.927572	-0.060763	-0.183994
Zn8	Zn	0.826008	-0.080108	-0.196408
Zn9	Zn	0.826032	0.080319	-0.196417
O10	O	0.821813	-0.060775	-0.411198
C11	C	0.698442	0.000089	-0.208031
C12	C	0.620918	0.000080	-0.205635
C13	C	0.584528	0.066454	-0.204488
C14	C	0.511686	0.066463	-0.202221
C15	C	0.475240	0.000094	-0.201071
C16	C	0.511639	-0.066289	-0.202227
C17	C	0.584478	-0.066296	-0.204509
N18	N	0.365533	-0.049298	-0.113534
N19	N	0.296339	-0.049287	-0.111363
C20	C	0.255780	0.000112	-0.194199
N21	N	0.287031	0.049510	-0.279269
N22	N	0.356231	0.049501	-0.281433
C23	C	0.396259	0.000095	-0.198598
C24	C	0.140407	0.066501	-0.190595
C25	C	0.067564	0.066507	-0.188337
C26	C	0.067519	-0.066247	-0.188328
C27	C	0.140360	-0.066252	-0.190601
C28	C	0.176800	0.000124	-0.191728
N29	N	0.825997	-0.189595	-0.196402
C30	C	0.868900	-0.227892	-0.285654
C31	C	0.868912	-0.304537	-0.285650
C32	C	0.826007	-0.342882	-0.196411
C33	C	0.783101	-0.304576	-0.107140
C34	C	0.783096	-0.227933	-0.107136
N35	N	0.764831	-0.463242	-0.192788
N36	N	0.764837	-0.536050	-0.192801
C37	C	0.826021	-0.573804	-0.196416
N38	N	0.887199	-0.536000	-0.200047
N39	N	0.887191	-0.463185	-0.200043
C40	C	0.826008	-0.425989	-0.196405
C41	C	0.868940	-0.695208	-0.285669
C42	C	0.868953	-0.771855	-0.285654
C43	C	0.783137	-0.771892	-0.107153
C44	C	0.783130	-0.695247	-0.107159
C45	C	0.826031	-0.656910	-0.196425
C46	C	0.953598	0.000123	-0.184795
C47	C	1.031122	0.000137	-0.187190
C48	C	0.829412	0.000105	0.073335
C49	C	0.826999	0.000109	0.237093
N50	N	0.826049	0.189805	-0.196412
C51	C	0.822629	0.000107	-0.466160
C52	C	0.825042	0.000108	-0.629919
H53	H	0.169990	-0.120301	-0.191526
C54	C	0.038131	0.179670	-0.314402
C55	C	0.027562	0.139473	-0.187075
H56	H	0.013439	0.224719	-0.313614
H57	H	0.021393	0.152405	-0.400027
H58	H	0.086730	0.189157	-0.315901
H59	H	-0.021036	0.129982	-0.185582
H60	H	0.044296	0.166744	-0.101428
H61	H	0.903873	-0.663992	-0.358353
C62	C	-0.044152	-0.125181	-0.184797
C63	C	0.027467	-0.139203	-0.187048
H64	H	-0.068879	-0.170224	-0.183997
H65	H	-0.060866	-0.097919	-0.270434
H66	H	-0.051283	-0.097902	-0.098416
H67	H	0.034598	-0.166477	-0.273435
H68	H	0.044185	-0.166477	-0.101403
C69	C	0.953763	-0.764114	-0.462122
C70	C	0.916115	-0.813954	-0.383771
H71	H	0.982875	-0.790106	-0.522703
H72	H	0.981943	-0.734213	-0.394083
H73	H	0.922001	-0.734229	-0.522737
H74	H	0.947877	-0.843835	-0.323148
H75	H	0.887933	-0.843867	-0.451819
C76	C	0.665807	-0.671707	-0.049891
C77	C	0.735956	-0.653151	-0.009069
H78	H	0.636683	-0.645717	0.010666
H79	H	0.659680	-0.722835	-0.037119
H80	H	0.653482	-0.659142	-0.150902
H81	H	0.748282	-0.665722	0.091940
H82	H	0.742086	-0.602012	-0.021828
C83	C	0.953728	-0.235559	-0.462088
C84	C	0.916065	-0.185752	-0.383755
H85	H	0.982850	-0.209541	-0.522641
H86	H	0.921981	-0.265457	-0.522716
H87	H	0.981906	-0.265449	-0.394027
H88	H	0.887883	-0.155865	-0.451817
H89	H	0.947816	-0.155842	-0.323123
H90	H	0.903849	-0.335724	-0.358334
H91	H	0.748158	-0.196752	-0.034454
H92	H	0.614193	0.120503	-0.205405
H93	H	0.481960	-0.120327	-0.201294
H94	H	0.748169	-0.335802	-0.034480
C95	C	0.482233	0.179623	-0.328288
C96	C	0.471674	0.139426	-0.200956
H97	H	0.457534	0.224668	-0.327499
H98	H	0.465496	0.152355	-0.413909
H99	H	0.530830	0.189117	-0.329794
H100	H	0.423077	0.129928	-0.199455
H101	H	0.488406	0.166700	-0.115313
H102	H	0.614107	-0.120348	-0.205444
H103	H	0.170077	0.120548	-0.191528
H104	H	0.748204	-0.803112	-0.034491
