data_functionalizedCrystal
_audit_creation_method	'MofGen! by Chris Wilmer'
_symmetry_space_group_name_H-M	'P1'
_symmetry_Int_Tables_number	1
_symmetry_cell_setting	triclinic
loop_
_symmetry_equiv_pos_as_xyz
  x,y,z
_cell_length_a	14.395555
_cell_length_b	14.560438
_cell_length_c	14.560438
_cell_angle_alpha	60.000905
_cell_angle_beta	90.000916
_cell_angle_gamma	60.001246
loop_
_atom_site_label
_atom_site_type_symbol
_atom_site_fract_x
_atom_site_fract_y
_atom_site_fract_z
Zr1	Zr	0.894873	1.005317	-0.120528
O2	O	0.746546	1.196913	-0.267170
O3	O	0.940343	0.813717	-0.075577
O4	O	0.940338	1.005321	-0.267178
O5	O	0.746554	1.005307	0.075572
O6	O	1.093205	1.005328	-0.267181
O7	O	0.746550	1.005309	-0.075569
O8	O	1.093213	0.662584	0.075557
O9	O	0.746546	1.348051	-0.267167
O10	O	1.073818	0.892531	-0.056406
O11	O	0.959738	0.892524	0.056392
O12	O	0.959733	1.118113	-0.169193
O13	O	0.845653	1.118106	-0.056396
Zr14	Zr	1.138684	1.005324	0.120518
Zr15	Zr	1.138678	1.005328	-0.120534
Zr16	Zr	0.894879	1.005313	0.120524
Zr17	Zr	0.894873	1.246364	-0.120524
Zr18	Zr	1.138684	0.764276	0.120514
O19	O	1.093214	1.196923	0.075567
O20	O	1.093206	1.196929	-0.267178
O21	O	0.746554	1.196908	0.075575
O22	O	1.287012	0.813727	0.267160
O23	O	1.287003	0.813733	-0.075585
O24	O	0.940351	0.813712	0.267168
O25	O	1.287003	1.005334	-0.075582
O26	O	1.093219	1.005319	0.267168
O27	O	0.940352	1.005312	0.267172
O28	O	1.287007	1.005331	0.075559
O29	O	0.940339	1.348060	-0.267171
O30	O	1.093218	0.662580	0.267162
O31	O	1.287011	0.662589	0.267157
O32	O	1.287006	0.662592	0.075553
O33	O	0.746551	1.348048	-0.075562
O34	O	0.940344	1.348057	-0.075567
O35	O	1.073824	0.892527	0.169184
O36	O	1.187904	0.892534	0.056386
O37	O	1.073819	1.118116	-0.056401
O38	O	0.959739	1.118109	0.056396
C39	C	1.016778	0.703806	-0.000010
C40	C	1.016778	0.601475	-0.000012
C41	C	1.076324	0.553403	-0.058892
C42	C	1.076329	0.457244	-0.058881
C43	C	0.957231	0.457241	0.058889
C44	C	0.957234	0.553392	0.058885
C45	C	0.711815	1.005307	0.000002
C46	C	0.608313	1.005302	0.000005
C47	C	0.609929	0.882305	0.061500
C48	C	0.516914	0.943790	0.106077
C49	C	0.516899	0.943822	-0.044540
C50	C	0.516662	1.066788	0.044644
C51	C	0.516661	1.066802	-0.106032
C52	C	0.423629	1.128377	-0.061481
C53	C	1.321742	1.005334	-0.000012
C54	C	1.425244	1.005338	-0.000014
C55	C	1.016771	1.005325	-0.301524
C56	C	1.016768	1.005327	-0.403857
C57	C	1.016779	1.306834	0.000001
C58	C	1.016779	1.409165	0.000003
C59	C	0.957218	1.123076	-0.510808
C60	C	0.957231	1.123070	-0.606956
C61	C	1.076347	0.887555	-0.489191
C62	C	1.076339	0.887562	-0.393044
C63	C	1.016786	1.005315	0.301515
C64	C	1.016789	1.005313	0.403848
C65	C	1.321742	0.703820	-0.000018
C66	C	1.425243	0.601494	-0.000022
C67	C	1.016786	0.703801	0.301509
C68	C	1.016788	0.601469	0.403840
C69	C	1.321749	0.703815	0.301502
C70	C	1.425254	0.601487	0.403830
C71	C	0.711808	1.306825	-0.301512
C72	C	0.608304	1.409154	-0.403840
C73	C	0.711816	1.306820	0.000008
C74	C	0.608314	1.409147	0.000012
C75	C	1.016771	1.306839	-0.301519
C76	C	1.016769	1.409172	-0.403850
C77	C	1.414320	0.553416	-0.058898
C78	C	1.511574	0.457277	-0.058906
C79	C	1.630673	0.457298	0.058847
C80	C	1.533419	0.553442	0.058848
C81	C	1.076340	0.553392	0.510792
C82	C	1.076329	0.457249	0.606939
C83	C	0.957213	0.457263	0.489169
C84	C	0.957218	0.553411	0.393024
C85	C	1.533429	0.553414	0.393029
C86	C	1.630678	0.457274	0.489181
C87	C	1.511563	0.457285	0.606934
C88	C	1.414316	0.553429	0.510783
H89	H	0.908743	0.592532	0.106836
H90	H	0.517628	1.118741	-0.195680
H91	H	1.124841	0.592522	0.519605
H92	H	1.718759	0.418161	0.106778
H93	H	0.908752	0.418082	0.106840
H94	H	0.515990	0.891806	0.195744
H95	H	1.124821	0.418111	0.694020
H96	H	1.502670	0.418139	-0.106850
H97	H	0.908741	1.218953	-0.694037
H98	H	0.908716	0.418121	0.480376
H99	H	1.124846	0.791675	-0.480401
H100	H	0.908718	0.592559	0.305933
H101	H	1.542340	0.592542	0.305947
H102	H	0.689685	0.778299	0.113573
H103	H	1.718757	0.418138	0.480378
H104	H	1.542322	0.592590	0.106791
H105	H	1.124818	0.418104	-0.106824
H106	H	0.517489	1.118733	0.082412
H107	H	1.502672	0.418143	0.694024
H108	H	1.124838	0.791671	-0.305954
H109	H	1.326229	0.592574	0.519586
H110	H	0.344000	1.232467	-0.113482
H111	H	0.515988	0.891816	-0.082206
H112	H	1.124810	0.592548	-0.106847
H113	H	0.908711	1.218968	-0.519618
H114	H	1.326242	0.592549	-0.106845
