data_functionalizedCrystal
_audit_creation_method	'MofGen! by Chris Wilmer'
_symmetry_space_group_name_H-M	'P1'
_symmetry_Int_Tables_number	1
_symmetry_cell_setting	triclinic
loop_
_symmetry_equiv_pos_as_xyz
  x,y,z
_cell_length_a	19.188905
_cell_length_b	19.188924
_cell_length_c	7.540329
_cell_angle_alpha	89.994348
_cell_angle_beta	89.989921
_cell_angle_gamma	83.138260
loop_
_atom_site_label
_atom_site_type_symbol
_atom_site_fract_x
_atom_site_fract_y
_atom_site_fract_z
O1	O	0.926152	0.087084	-0.147783
O2	O	0.722838	0.098836	-0.147723
O3	O	0.830365	-0.008697	-0.147734
O4	O	0.818626	0.194616	-0.147772
O5	O	0.830359	-0.008698	0.147231
O6	O	0.722832	0.098835	0.147242
O7	O	0.926146	0.087082	0.147182
Cu8	Cu	0.824488	0.092959	0.174145
Cu9	Cu	0.824496	0.092960	-0.174686
O10	O	0.818619	0.194615	0.147193
C11	C	0.696824	0.098458	-0.000233
C12	C	0.619318	0.097324	-0.000209
C13	C	0.829982	-0.034708	-0.000249
C14	C	0.828844	-0.112213	-0.000244
C15	C	0.582930	0.096780	-0.160999
C16	C	0.510106	0.095707	-0.161021
C17	C	0.473676	0.095164	-0.000244
C18	C	0.510072	0.095712	0.160568
C19	C	0.582894	0.096792	0.160585
N20	N	0.364654	0.053735	0.119415
N21	N	0.295477	0.052707	0.119388
C22	C	0.254269	0.091911	-0.000286
N23	N	0.284853	0.132173	-0.119958
N24	N	0.354037	0.133198	-0.119936
C25	C	0.394713	0.093993	-0.000245
C26	C	0.138917	0.090205	-0.161111
C27	C	0.066092	0.089136	-0.161126
C28	C	0.066060	0.089134	0.160467
C29	C	0.138883	0.090210	0.160478
C30	C	0.175308	0.090742	-0.000316
C31	C	0.828316	-0.148611	-0.161030
C32	C	0.827236	-0.221434	-0.161043
C33	C	0.826698	-0.257857	-0.000261
C34	C	0.827222	-0.221450	0.160545
C35	C	0.828295	-0.148628	0.160554
N36	N	0.864744	-0.377524	0.119393
N37	N	0.863726	-0.446703	0.119374
C38	C	0.823464	-0.477266	-0.000278
N39	N	0.784267	-0.436039	-0.119937
N40	N	0.785288	-0.366855	-0.119923
C41	C	0.825534	-0.336821	-0.000253
C42	C	0.821764	-0.592627	-0.161089
C43	C	0.820680	-0.665450	-0.161095
C44	C	0.820673	-0.665466	0.160498
C45	C	0.821750	-0.592643	0.160500
C46	C	0.822299	-0.556228	-0.000298
C47	C	0.952160	0.087461	-0.000312
C48	C	1.029666	0.088594	-0.000347
C49	C	0.819002	0.220627	-0.000295
C50	C	0.820141	0.298132	-0.000312
N51	N	0.824488	0.092957	0.419493
N52	N	0.824502	0.092956	-0.420034
H53	H	0.480473	0.095265	-0.291960
O54	O	0.826667	-0.260700	-0.334475
H55	H	0.825824	-0.317455	-0.307463
O56	O	0.470741	0.095464	0.333982
H57	H	0.413974	0.094738	0.306957
H58	H	0.820246	-0.695084	-0.292032
O59	O	0.822327	-0.553379	0.333920
H60	H	0.870391	-0.526572	0.341588
O61	O	0.178133	0.090790	0.333910
H62	H	0.234889	0.091639	0.306913
H63	H	0.036398	0.088696	0.291375
O64	O	0.828896	-0.109341	-0.334467
H65	H	0.876964	-0.082540	-0.342187
O66	O	0.820099	-0.704744	0.333915
H67	H	0.772035	-0.731553	0.341615
H68	H	0.612583	0.097214	-0.291930
H69	H	0.612521	0.097236	0.291523
H70	H	0.168575	0.090646	-0.292039
O71	O	0.828877	-0.109364	0.333979
H72	H	0.828327	-0.146923	0.445784
O73	O	0.026842	0.088525	-0.334557
H74	H	0.064409	0.089061	-0.446355
H75	H	0.826782	-0.251110	0.291455
O76	O	0.822342	-0.553340	-0.334508
H77	H	0.821780	-0.590886	-0.446320
