data_functionalizedCrystal
_audit_creation_method	'MofGen! by Chris Wilmer'
_symmetry_space_group_name_H-M	'P1'
_symmetry_Int_Tables_number	1
_symmetry_cell_setting	triclinic
loop_
_symmetry_equiv_pos_as_xyz
  x,y,z
_cell_length_a	12.594517
_cell_length_b	16.959454
_cell_length_c	16.959447
_cell_angle_alpha	90.026736
_cell_angle_beta	89.984240
_cell_angle_gamma	89.980125
loop_
_atom_site_label
_atom_site_type_symbol
_atom_site_fract_x
_atom_site_fract_y
_atom_site_fract_z
Zn1	Zn	1.627179	0.314670	-0.446959
Zn2	Zn	1.627074	0.446863	-0.314788
Zn3	Zn	1.449200	0.314702	-0.314793
Zn4	Zn	1.449152	0.446810	-0.446924
O5	O	1.538151	0.380761	-0.380866
O6	O	1.776111	0.332215	-0.429439
O7	O	1.603455	0.429366	-0.204178
O8	O	1.472873	0.204086	-0.332342
O9	O	1.776034	0.429336	-0.332334
O10	O	1.603633	0.204063	-0.429443
O11	O	1.472772	0.332268	-0.204181
O12	O	1.300248	0.332217	-0.332308
O13	O	1.472792	0.429246	-0.557539
O14	O	1.300213	0.429277	-0.429383
O15	O	1.603587	0.332164	-0.557565
O16	O	1.603409	0.557467	-0.332300
O17	O	1.472690	0.557428	-0.429379
C18	C	1.261610	0.380745	-0.380843
C19	C	1.143305	0.380758	-0.380851
C20	C	1.538062	0.586127	-0.380852
C21	C	1.538121	0.673984	-0.380873
C22	C	1.538196	0.380696	-0.587034
C23	C	1.538215	0.380668	-0.674891
C24	C	1.074040	0.327895	-0.328153
C25	C	1.003225	0.399995	-0.308711
C26	C	1.003321	0.308693	-0.400306
C27	C	1.074048	0.452896	-0.361372
C28	C	1.074151	0.361545	-0.453001
C29	C	1.003367	0.433695	-0.433587
C30	C	1.815772	0.380778	-0.380890
C31	C	1.934078	0.380785	-0.380900
C32	C	1.538270	0.174593	-0.380897
C33	C	1.538320	0.086736	-0.380910
C34	C	1.470185	1.045469	-0.431410
C35	C	1.606414	1.045450	-0.330403
C36	C	1.606377	0.962904	-0.330395
C37	C	1.538242	0.921637	-0.380895
C38	C	1.470143	0.962916	-0.431402
C39	C	1.674466	0.921619	-0.279884
C40	C	1.674431	0.839068	-0.279874
C41	C	1.606300	0.797799	-0.330378
C42	C	1.538200	0.839083	-0.380888
C43	C	1.470065	0.797816	-0.431388
C44	C	1.401969	0.839099	-0.481902
C45	C	1.402013	0.921647	-0.481907
C46	C	1.606257	0.715251	-0.330373
C47	C	1.470023	0.715263	-0.431380
C48	C	1.470243	0.431131	-1.046356
C49	C	1.606441	0.330038	-1.046378
C50	C	1.606413	0.330055	-0.963832
C51	C	1.538299	0.380611	-0.922544
C52	C	1.470214	0.431151	-0.963802
C53	C	1.674504	0.279522	-0.922567
C54	C	1.674479	0.279537	-0.840016
C55	C	1.606360	0.330090	-0.798727
C56	C	1.538271	0.380631	-0.839990
C57	C	1.470158	0.431188	-0.798703
C58	C	1.402063	0.481725	-0.839964
C59	C	1.402095	0.481704	-0.922513
C60	C	1.606328	0.330111	-0.716179
C61	C	1.470130	0.431207	-0.716149
C62	C	1.538168	0.380769	-0.175500
C63	C	1.538356	0.380574	-0.087644
H64	H	1.105071	0.283234	-0.283532
H65	H	1.729925	0.238386	-0.806428
H66	H	1.104986	0.513869	-0.344870
H67	H	0.972072	0.416262	-0.247716
H68	H	1.414653	0.472370	-0.682538
H69	H	1.661772	0.288967	-0.682587
O70	O	1.404152	0.480332	-1.086345
C71	C	1.352456	0.614778	-1.111607
C72	C	1.427352	0.559147	-1.066255
H73	H	1.371201	0.678513	-1.095393
H74	H	1.266617	0.600962	-1.095358
H75	H	1.364151	0.606040	-1.177695
H76	H	1.415752	0.567854	-1.000156
H77	H	1.513163	0.572978	-1.082570
O78	O	0.966749	0.487157	-0.486787
C79	C	1.011701	0.585412	-0.583793
C80	C	1.053316	0.524906	-0.523564
H81	H	1.081669	0.615937	-0.613556
H82	H	0.960740	0.631182	-0.552253
H83	H	0.961872	0.553864	-0.630200
H84	H	1.103189	0.556385	-0.477141
H85	H	1.104219	0.479139	-0.555159
H86	H	1.414543	0.681668	-0.472507
O87	O	1.111304	0.341977	-0.525721
C88	C	1.117433	0.243869	-0.628445
C89	C	1.075304	0.265933	-0.546076
H90	H	1.088325	0.182394	-0.644934
H91	H	1.207943	0.244562	-0.627877
H92	H	1.087157	0.288351	-0.673530
H93	H	1.105500	0.221473	-0.500944
H94	H	0.984795	0.265265	-0.546709
H95	H	1.729964	0.238366	-0.956190
O96	O	1.335935	0.530761	-0.799732
C97	C	1.275600	0.575625	-0.672541
C98	C	1.350521	0.520041	-0.718010
H99	H	1.287383	0.566990	-0.606461
H100	H	1.189761	0.561734	-0.688705
H101	H	1.294243	0.639351	-0.688806
H102	H	1.331974	0.456297	-0.701770
H103	H	1.436337	0.534001	-0.701842
O104	O	1.336013	0.530905	-0.962509
C105	C	1.284330	0.665353	-0.987781
C106	C	1.359212	0.609721	-0.942417
H107	H	1.303075	0.729087	-0.971566
H108	H	1.198487	0.651539	-0.971544
H109	H	1.296042	0.656613	-1.053867
H110	H	1.347595	0.618430	-0.876320
H111	H	1.445028	0.623548	-0.958720
O112	O	1.672453	0.280850	-1.086518
C113	C	1.686871	0.174153	-1.179790
C114	C	1.611988	0.229798	-1.134362
H115	H	1.638016	0.132874	-1.218495
H116	H	1.735510	0.137975	-1.136158
H117	H	1.742538	0.210458	-1.218391
H118	H	1.556257	0.193554	-1.095760
H119	H	1.563423	0.265978	-1.178036
O120	O	0.966383	0.235915	-0.419827
C121	C	0.960349	0.097943	-0.386256
C122	C	1.002268	0.180316	-0.364078
H123	H	0.989327	0.052972	-0.341187
H124	H	0.990770	0.081055	-0.447290
H125	H	0.869842	0.098834	-0.386684
H126	H	1.092773	0.179489	-0.363604
H127	H	0.971766	0.197172	-0.303058
O128	O	1.672725	1.085461	-0.281387
C129	C	1.853806	1.110737	-0.243161
C130	C	1.778836	1.065347	-0.298710
H131	H	1.939613	1.094505	-0.257158
H132	H	1.835246	1.094542	-0.179397
H133	H	1.842054	1.176820	-0.251840
H134	H	1.790546	0.999255	-0.290102
H135	H	1.797414	1.081609	-0.362454
O136	O	1.335937	0.798972	-0.531040
C137	C	1.321490	0.705664	-0.637692
C138	C	1.396387	0.751078	-0.582108
H139	H	1.370332	0.666918	-0.678983
H140	H	1.272845	0.749306	-0.673858
H141	H	1.265828	0.667105	-0.601338
H142	H	1.452113	0.789638	-0.618400
H143	H	1.444958	0.707393	-0.545939
H144	H	1.346572	0.955267	-0.523032
H145	H	1.414746	1.079085	-0.472539
H146	H	1.729931	0.955224	-0.238764
O147	O	1.740683	0.799092	-0.230787
C148	C	1.875771	0.807791	-0.130573
C149	C	1.800810	0.853163	-0.186132
H150	H	1.924387	0.851488	-0.094443
H151	H	1.931447	0.769121	-0.166863
H152	H	1.826911	0.769167	-0.089239
H153	H	1.849584	0.891830	-0.227477
H154	H	1.745131	0.891784	-0.149792
O155	O	1.672491	0.675272	-0.281282
C156	C	1.807553	0.683968	-0.181047
C157	C	1.732611	0.729341	-0.236620
H158	H	1.856163	0.727663	-0.144912
H159	H	1.863235	0.645292	-0.217328
H160	H	1.758677	0.645348	-0.139719
H161	H	1.781401	0.768004	-0.277960
H162	H	1.676926	0.767967	-0.200291
