data_functionalizedCrystal
_audit_creation_method	'MofGen! by Chris Wilmer'
_symmetry_space_group_name_H-M	'P1'
_symmetry_Int_Tables_number	1
_symmetry_cell_setting	triclinic
loop_
_symmetry_equiv_pos_as_xyz
  x,y,z
_cell_length_a	19.121414
_cell_length_b	16.994731
_cell_length_c	19.120904
_cell_angle_alpha	87.508523
_cell_angle_beta	85.249629
_cell_angle_gamma	92.385909
loop_
_atom_site_label
_atom_site_type_symbol
_atom_site_fract_x
_atom_site_fract_y
_atom_site_fract_z
Zn1	Zn	1.059000	-0.280193	0.352367
Zn2	Zn	1.064084	-0.406227	0.234851
Zn3	Zn	0.946362	-0.280214	0.239727
Zn4	Zn	0.941465	-0.417935	0.357492
O5	O	1.002728	-0.346142	0.296109
O6	O	1.158131	-0.292002	0.332592
O7	O	1.052644	-0.384621	0.137032
O8	O	0.961226	-0.169829	0.254565
O9	O	1.161865	-0.384600	0.246254
O10	O	1.043981	-0.169813	0.337321
O11	O	0.966155	-0.292040	0.140614
O12	O	0.847256	-0.303392	0.259535
O13	O	0.952880	-0.404554	0.455278
O14	O	0.843659	-0.404575	0.346056
O15	O	1.039232	-0.303355	0.451513
O16	O	1.047896	-0.518163	0.251224
O17	O	0.957809	-0.526765	0.341328
C18	C	0.819929	-0.355257	0.303881
C19	C	0.741726	-0.359177	0.307223
C20	C	1.002764	-0.640403	0.296159
C21	C	1.002822	-0.551083	0.296250
Zn22	Zn	1.063883	-0.774309	0.234609
Zn23	Zn	1.058997	-0.912315	0.352108
Zn24	Zn	0.946155	-0.911839	0.239672
Zn25	Zn	0.941451	-0.786097	0.357437
O26	O	1.002621	-0.846140	0.295957
O27	O	1.161697	-0.787881	0.245847
O28	O	1.043952	-1.022631	0.337082
O29	O	0.965786	-0.888463	0.140542
O30	O	1.158108	-0.889274	0.332173
O31	O	1.052279	-0.787420	0.136822
O32	O	0.961048	-1.022281	0.254476
O33	O	0.847069	-0.899894	0.259643
O34	O	0.957768	-0.674154	0.341255
O35	O	0.843612	-0.807512	0.346164
O36	O	1.047718	-0.665493	0.251014
O37	O	1.039391	-0.900704	0.451274
O38	O	0.953030	-0.807973	0.455189
C39	C	0.706836	-0.308265	0.263819
C40	C	0.633356	-0.311954	0.266959
C41	C	0.594768	-0.366552	0.313506
C42	C	0.629663	-0.417469	0.356911
C43	C	0.703142	-0.413783	0.353767
C44	C	0.372817	-0.380324	0.325244
C45	C	0.299333	-0.384005	0.328386
C46	C	0.303031	-0.278491	0.238433
C47	C	0.376511	-0.274806	0.235296
C48	C	0.411400	-0.325726	0.278699
C49	C	0.519659	-0.370323	0.316718
C50	C	0.486507	-0.321959	0.275483
C51	C	1.186240	-0.336993	0.288307
C52	C	1.264443	-0.333093	0.284983
C53	C	0.994943	-0.355258	0.479640
C54	C	0.991625	-0.359143	0.557851
C55	C	1.002577	-0.140400	0.295913
C56	C	1.002514	-0.051077	0.295829
C57	C	1.010523	-0.337003	0.113290
C58	C	1.013977	-0.332889	0.035075
C59	C	1.035024	-0.308282	0.592634
C60	C	1.031898	-0.311929	0.666122
C61	C	0.985377	-0.366442	0.704823
C62	C	0.941974	-0.417306	0.670034
C63	C	0.945096	-0.413654	0.596549
C64	C	0.973696	-0.380101	0.926800
C65	C	0.970578	-0.383751	1.000291
C66	C	1.060502	-0.278372	0.996373
C67	C	1.063623	-0.274729	0.922886
C68	C	1.020218	-0.325589	0.888104
C69	C	0.982182	-0.370174	0.779939
C70	C	1.023409	-0.321854	0.812990
C71	C	0.819810	-0.854930	0.304032
C72	C	0.741602	-0.858672	0.307503
C73	C	0.995172	-0.855671	0.478761
C74	C	0.992005	-0.859771	0.556964
C75	C	1.186147	-0.837316	0.287851
C76	C	1.264354	-0.833555	0.284396
C77	C	1.010102	-0.836574	0.112439
C78	C	1.013290	-0.832497	0.034234
C79	C	0.703088	-0.812406	0.354249
C80	C	0.629603	-0.815906	0.357511
C81	C	0.594633	-0.865677	0.314029
C82	C	0.633153	-0.911945	0.267278
C83	C	0.706636	-0.908440	0.264013
C84	C	1.035524	-0.909932	0.591629
C85	C	1.032563	-0.913783	0.665108
C86	C	0.986078	-0.867476	0.703923
C87	C	0.942557	-0.817309	0.669253
C88	C	0.945522	-0.813455	0.595775
C89	C	1.302954	-0.778993	0.237829
C90	C	1.376438	-0.775444	0.234583
C91	C	1.411322	-0.826461	0.277903
C92	C	1.372716	-0.881025	0.324476
C93	C	1.299233	-0.884570	0.327724
C94	C	0.969749	-0.883190	-0.000558
C95	C	0.972731	-0.879361	-0.074039
C96	C	1.019257	-0.824841	-0.112726
C97	C	1.062800	-0.774142	-0.077928
C98	C	1.059814	-0.777968	-0.004449
H99	H	0.738249	-0.263800	0.225921
H100	H	1.068004	-0.954637	0.693326
Cl101	Cl	0.912086	-0.452283	1.048944
Cl102	Cl	0.535019	-0.253326	0.216967
Cl103	Cl	1.250717	-0.953174	0.386267
H104	H	0.931861	-0.927589	0.030931
Cl105	Cl	0.259166	-0.214484	0.183871
Cl106	Cl	1.259117	-0.714849	0.183362
Cl107	Cl	0.982358	-0.872333	0.796297
Cl108	Cl	0.581193	-0.757740	0.416292
H109	H	1.101508	-0.230340	0.891380
Cl110	Cl	0.919129	-0.444042	0.883083
Cl111	Cl	0.747033	-0.749828	0.408918
H112	H	0.937271	-0.920648	-0.102361
Cl113	Cl	1.424956	-0.706846	0.176029
H114	H	0.904710	-0.779608	0.700867
H115	H	1.021682	-0.821734	-0.172558
Cl116	Cl	0.755045	-0.966610	0.205240
Cl117	Cl	0.502252	-0.870077	0.318144
Cl118	Cl	0.589180	-0.974513	0.212621
Cl119	Cl	1.503702	-0.821994	0.273810
H120	H	1.401130	-0.922562	0.359744
H121	H	1.100681	-0.729753	-0.109438
Cl122	Cl	0.883487	-0.485835	0.718688
H123	H	0.598239	-0.461927	0.394807
H124	H	1.067239	-0.270514	0.694439
H125	H	1.095275	-0.736688	0.023873
H126	H	0.604951	-0.270501	0.231611
H127	H	1.073385	-0.947636	0.560035
H128	H	0.407924	-0.230352	0.197388
H129	H	0.401215	-0.421787	0.360586
Cl130	Cl	0.250823	-0.452645	0.386909
H131	H	0.910080	-0.772610	0.567557
H132	H	0.731549	-0.455241	0.389111
H133	H	1.061283	-0.277466	0.781476
Cl134	Cl	1.093514	-0.239751	0.543988
Cl135	Cl	0.471143	-0.438968	0.375223
H136	H	1.095839	-0.236963	1.024701
H137	H	0.944308	-0.414562	0.811458
Cl138	Cl	0.890534	-0.477595	0.552820
