data_functionalizedCrystal
_audit_creation_method	'MofGen! by Chris Wilmer'
_symmetry_space_group_name_H-M	'P1'
_symmetry_Int_Tables_number	1
_symmetry_cell_setting	triclinic
loop_
_symmetry_equiv_pos_as_xyz
  x,y,z
_cell_length_a	21.295417
_cell_length_b	16.120530
_cell_length_c	16.120297
_cell_angle_alpha	90.128140
_cell_angle_beta	92.867002
_cell_angle_gamma	87.125778
loop_
_atom_site_label
_atom_site_type_symbol
_atom_site_fract_x
_atom_site_fract_y
_atom_site_fract_z
Zn1	Zn	-0.318915	1.247391	-0.534523
Zn2	Zn	-0.419125	1.254326	-0.395453
Zn3	Zn	-0.308278	1.115383	-0.388443
Zn4	Zn	-0.418545	1.108282	-0.527422
O5	O	-0.366216	1.181345	-0.461460
O6	O	-0.336903	1.364676	-0.521981
O7	O	-0.400212	1.241769	-0.278158
O8	O	-0.221604	1.132963	-0.407859
O9	O	-0.410526	1.369771	-0.419806
O10	O	-0.229419	1.229949	-0.515184
O11	O	-0.318773	1.139688	-0.273008
O12	O	-0.318211	0.998075	-0.400973
O13	O	-0.409538	1.120862	-0.644729
O14	O	-0.399224	0.992859	-0.503081
O15	O	-0.336340	1.223064	-0.649946
O16	O	-0.507133	1.234884	-0.412921
O17	O	-0.506707	1.127586	-0.509878
C18	C	-0.357501	0.965295	-0.450496
C19	C	-0.353788	0.872866	-0.445825
C20	C	-0.529761	1.181239	-0.461409
C21	C	-0.599731	1.181268	-0.461418
C22	C	-0.346996	0.703638	-0.437305
C23	C	-0.385485	0.659891	-0.485677
C24	C	-0.381705	0.565726	-0.480936
C25	C	-0.350774	0.797811	-0.442045
C26	C	-0.632802	1.237182	-0.410990
C27	C	-0.698547	1.237220	-0.411010
C28	C	-0.731217	1.181329	-0.461450
C29	C	-0.698138	1.125411	-0.511889
C30	C	-0.632395	1.125380	-0.511873
N31	N	-0.831783	1.108264	-0.464098
N32	N	-0.894236	1.108296	-0.464108
C33	C	-0.929297	1.181420	-0.461503
N34	N	-0.899546	1.254514	-0.458870
N35	N	-0.837087	1.254481	-0.458855
C36	C	-0.802504	1.181357	-0.461473
C37	C	-1.033657	1.237380	-0.411094
C38	C	-1.099403	1.237419	-0.411120
C39	C	-1.098992	1.125603	-0.511994
C40	C	-1.033248	1.125571	-0.511973
C41	C	-1.000584	1.181459	-0.461518
C42	C	-0.202033	1.181474	-0.461531
C43	C	-0.132068	1.181529	-0.461562
C44	C	-0.374061	1.170397	-0.678353
C45	C	-0.377404	1.165731	-0.770780
C46	C	-0.374966	1.398240	-0.472468
C47	C	-0.378694	1.490667	-0.477159
C48	C	-0.383493	1.157183	-0.940004
C49	C	-0.348757	1.205672	-0.983777
C50	C	-0.352144	1.200915	-1.077938
C51	C	-0.380106	1.161938	-0.845834
C52	C	-0.358358	1.192299	-0.245413
C53	C	-0.354844	1.197126	-0.152995
H54	H	-0.311209	0.670373	-0.392335
H55	H	-0.316473	1.250756	-0.950533
O56	O	-0.422081	1.103521	-0.979699
C57	C	-0.510053	1.087423	-1.077345
C58	C	-0.466405	1.148283	-1.032419
H59	H	-0.545890	1.123588	-1.119992
H60	H	-0.535726	1.051674	-1.029576
H61	H	-0.480820	1.041937	-1.115769
H62	H	-0.495591	1.193819	-0.993995
H63	H	-0.440728	1.183972	-1.080229
O64	O	-0.428167	0.699703	-0.539256
C65	C	-0.470854	0.831219	-0.592947
C66	C	-0.422499	0.786234	-0.532223
H67	H	-0.466278	0.901186	-0.587294
H68	H	-0.520407	0.814971	-0.577377
H69	H	-0.461644	0.810793	-0.659177
H70	H	-0.431650	0.806636	-0.465973
H71	H	-0.372961	0.802483	-0.547865
H72	H	-1.006319	1.080037	-0.553033
H73	H	-0.606210	1.282691	-0.369908
H74	H	-0.725479	1.282755	-0.369945
H75	H	-0.724742	1.079906	-0.552959
O76	O	-1.001861	1.291708	-0.362208
C77	C	-0.931714	1.404545	-0.356793
C78	C	-0.967674	1.343053	-0.412250
H79	H	-0.904076	1.446085	-0.397230
H80	H	-0.897829	1.368631	-0.311349
H81	H	-0.966660	1.444483	-0.320738
H82	H	-0.932775	1.303100	-0.448358
H83	H	-1.001569	1.379018	-0.457641
H84	H	-0.605468	1.079847	-0.552939
H85	H	-1.126329	1.282957	-0.370057
H86	H	-1.125592	1.080099	-0.553068
