data_functionalizedCrystal
_audit_creation_method	'MofGen! by Chris Wilmer'
_symmetry_space_group_name_H-M	'P1'
_symmetry_Int_Tables_number	1
_symmetry_cell_setting	triclinic
loop_
_symmetry_equiv_pos_as_xyz
  x,y,z
_cell_length_a	19.805407
_cell_length_b	16.959454
_cell_length_c	19.805399
_cell_angle_alpha	89.977613
_cell_angle_beta	89.980427
_cell_angle_gamma	90.020075
loop_
_atom_site_label
_atom_site_type_symbol
_atom_site_fract_x
_atom_site_fract_y
_atom_site_fract_z
Zn1	Zn	1.034765	-0.314700	-0.382744
Zn2	Zn	1.368099	0.018633	-0.049411
Zn3	Zn	1.701432	0.351967	0.283923
Zn4	Zn	1.034693	-0.446882	-0.269566
Zn5	Zn	1.368026	-0.113549	0.063767
Zn6	Zn	1.701359	0.219784	0.397101
Zn7	Zn	0.921580	-0.314722	-0.269569
Zn8	Zn	1.254913	0.018612	0.063765
Zn9	Zn	1.588247	0.351945	0.397098
Zn10	Zn	0.921556	-0.446840	-0.382713
Zn11	Zn	1.254889	-0.113507	-0.049380
Zn12	Zn	1.588223	0.219826	0.283954
O13	O	0.978149	-0.380786	-0.326148
O14	O	1.311482	-0.047453	0.007185
O15	O	1.644815	0.285881	0.340519
O16	O	1.129472	-0.332243	-0.367743
O17	O	1.462806	0.001091	-0.034409
O18	O	1.796139	0.334424	0.298924
O19	O	1.019668	-0.429378	-0.174850
O20	O	1.353001	-0.096044	0.158484
O21	O	1.686334	0.237289	0.491817
O22	O	0.936635	-0.204108	-0.284596
O23	O	1.269968	0.129225	0.048738
O24	O	1.603302	0.462559	0.382071
O25	O	1.129419	-0.429356	-0.284591
O26	O	1.462752	-0.096023	0.048742
O27	O	1.796086	0.237310	0.382075
O28	O	1.019792	-0.204092	-0.367745
O29	O	1.353125	0.129241	-0.034412
O30	O	1.686458	0.462575	0.298921
O31	O	0.936564	-0.332280	-0.174852
O32	O	1.269898	0.001054	0.158482
O33	O	1.603231	0.334387	0.491815
O34	O	0.826860	-0.332239	-0.284565
O35	O	1.160194	0.001094	0.048768
O36	O	1.493527	0.334428	0.382101
O37	O	0.936594	-0.429285	-0.477434
O38	O	1.269927	-0.095951	-0.144100
O39	O	1.603261	0.237382	0.189233
O40	O	0.826843	-0.429306	-0.367692
O41	O	1.160176	-0.095973	-0.034359
O42	O	1.493509	0.237361	0.298975
O43	O	1.019768	-0.332202	-0.477457
O44	O	1.353102	0.001131	-0.144123
O45	O	1.686435	0.334465	0.189210
O46	O	1.019645	-0.557488	-0.284561
O47	O	1.352978	-0.224154	0.048772
O48	O	1.686311	0.109179	0.382106
O49	O	0.936524	-0.557457	-0.367690
O50	O	1.269857	-0.224123	-0.034356
O51	O	1.603190	0.109210	0.298977
C52	C	0.802293	-0.380771	-0.326126
C53	C	1.135626	-0.047438	0.007207
C54	C	1.468959	0.285896	0.340541
C55	C	0.727061	-0.380783	-0.326133
C56	C	1.060394	-0.047450	0.007201
C57	C	1.393727	0.285883	0.340534
C58	C	0.691725	-0.431402	-0.369347
C59	C	1.025058	-0.098069	-0.036013
C60	C	1.358392	0.235264	0.297320
C61	C	0.621037	-0.431404	-0.369356
C62	C	0.954370	-0.098070	-0.036023
C63	C	1.287703	0.235263	0.297310
C64	C	0.585685	-0.380790	-0.326148
C65	C	0.919018	-0.047456	0.007185
C66	C	1.252352	0.285877	0.340519
C67	C	0.621026	-0.330165	-0.282932
C68	C	0.954359	0.003168	0.050401
C69	C	1.287692	0.336501	0.383735
C70	C	0.691713	-0.330160	-0.282926
C71	C	1.025046	0.003173	0.050407
C72	C	1.358379	0.336506	0.383740
C73	C	0.335952	-0.330183	-0.282954
C74	C	0.669286	0.003151	0.050379
C75	C	1.002619	0.336484	0.383712
C76	C	0.265260	-0.330193	-0.282962
C77	C	0.598594	0.003140	0.050371
C78	C	0.931927	0.336474	0.383705
C79	C	0.265276	-0.431426	-0.369384
C80	C	0.598609	-0.098093	-0.036051
C81	C	0.931943	0.235241	0.297282
C82	C	0.335963	-0.431421	-0.369379
C83	C	0.669297	-0.098088	-0.036045
C84	C	1.002630	0.235246	0.297288
C85	C	0.371298	-0.380794	-0.326166
C86	C	0.704631	-0.047461	0.007168
C87	C	1.037964	0.285873	0.340501
C88	C	0.447946	-0.380792	-0.326157
C89	C	0.781279	-0.047459	0.007177
C90	C	1.114613	0.285874	0.340510
C91	C	0.509038	-0.380795	-0.326153
C92	C	0.842371	-0.047462	0.007180
C93	C	1.175705	0.285872	0.340514
C94	C	0.978092	-0.586152	-0.326136
C95	C	1.311425	-0.252819	0.007197
C96	C	1.644759	0.080514	0.340530
C97	C	0.978130	-0.674009	-0.326154
C98	C	1.311463	-0.340676	0.007179
C99	C	1.644796	-0.007342	0.340513
C100	C	0.934930	-1.045498	-0.369428
C101	C	1.268264	-0.712165	-0.036095
C102	C	1.601597	-0.378832	0.297238
C103	C	1.021555	-1.045470	-0.282937
C104	C	1.354889	-0.712137	0.050397
C105	C	1.688222	-0.378804	0.383730
C106	C	1.021532	-0.962925	-0.282930
C107	C	1.354865	-0.629591	0.050403
C108	C	1.688199	-0.296258	0.383736
C109	C	0.978206	-0.921662	-0.326173
C110	C	1.311539	-0.588328	0.007160
C111	C	1.644873	-0.254995	0.340494
C112	C	0.934904	-0.962945	-0.369422
C113	C	1.268237	-0.629611	-0.036089
C114	C	1.601571	-0.296278	0.297245
C115	C	1.064828	-0.921635	-0.239677
C116	C	1.398162	-0.588302	0.093656
C117	C	1.731495	-0.254969	0.426989
C118	C	1.064806	-0.839085	-0.239669
C119	C	1.398139	-0.505751	0.093665
C120	C	1.731473	-0.172418	0.426998
C121	C	1.021483	-0.797820	-0.282915
C122	C	1.354816	-0.464487	0.050418
C123	C	1.688150	-0.131153	0.383751
C124	C	0.978180	-0.839108	-0.326167
C125	C	1.311513	-0.505775	0.007167
C126	C	1.644846	-0.172442	0.340500
C127	C	0.934854	-0.797845	-0.369409
C128	C	1.268187	-0.464512	-0.036076
C129	C	1.601521	-0.131179	0.297257
C130	C	0.891553	-0.839132	-0.412665
C131	C	1.224887	-0.505799	-0.079331
C132	C	1.558220	-0.172465	0.254002
C133	C	0.891581	-0.921680	-0.412669
C134	C	1.224914	-0.588347	-0.079335
C135	C	1.558248	-0.255014	0.253998
C136	C	1.021455	-0.715272	-0.282911
C137	C	1.354789	-0.381938	0.050422
C138	C	1.688122	-0.048605	0.383755
C139	C	0.934827	-0.715292	-0.369403
C140	C	1.268161	-0.381959	-0.036070
C141	C	1.601494	-0.048625	0.297264
C142	C	1.154691	-0.380802	-0.326170
C143	C	1.488025	-0.047468	0.007163
C144	C	1.821358	0.285865	0.340496
C145	C	1.229923	-0.380808	-0.326180
C146	C	1.563257	-0.047475	0.007154
C147	C	1.896590	0.285858	0.340487
C148	C	0.978187	-0.380736	-0.502691
C149	C	1.311520	-0.047403	-0.169357
C150	C	1.644853	0.285930	0.163976
C151	C	0.978203	-0.380715	-0.577923
C152	C	1.311536	-0.047382	-0.244589
C153	C	1.644869	0.285952	0.088744
C154	C	0.978224	-0.174618	-0.326174
C155	C	1.311557	0.158716	0.007159
C156	C	1.644891	0.492049	0.340492
C157	C	0.978256	-0.086761	-0.326186
C158	C	1.311589	0.246572	0.007148
C159	C	1.644923	0.579906	0.340481
C160	C	1.021513	-0.330161	-0.613280
C161	C	1.354846	0.003172	-0.279947
C162	C	1.688179	0.336505	0.053387
C163	C	1.021520	-0.330138	-0.683968
C164	C	1.354853	0.003195	-0.350635
C165	C	1.688186	0.336528	-0.017302
C166	C	0.978220	-0.380674	-0.719298
C167	C	1.311553	-0.047340	-0.385965
C168	C	1.644886	0.285993	-0.052632
C169	C	0.934905	-0.431230	-0.683936
C170	C	1.268238	-0.097896	-0.350603
C171	C	1.601572	0.235437	-0.017270
C172	C	0.934895	-0.431248	-0.613249
C173	C	1.268228	-0.097915	-0.279916
C174	C	1.601562	0.235419	0.053418
C175	C	0.934943	-0.431156	-0.969010
C176	C	1.268276	-0.097823	-0.635676
C177	C	1.601610	0.235511	-0.302343
C178	C	0.934958	-0.431135	-1.039702
C179	C	1.268291	-0.097802	-0.706368
C180	C	1.601624	0.235531	-0.373035
C181	C	1.021568	-0.330046	-1.039729
C182	C	1.354901	0.003287	-0.706396
C183	C	1.688234	0.336620	-0.373062
C184	C	1.021558	-0.330065	-0.969042
C185	C	1.354891	0.003269	-0.635709
C186	C	1.688224	0.336602	-0.302375
C187	C	0.978241	-0.380617	-0.933686
C188	C	1.311574	-0.047284	-0.600353
C189	C	1.644908	0.286049	-0.267019
C190	C	0.978233	-0.380641	-0.857037
C191	C	1.311566	-0.047307	-0.523704
C192	C	1.644900	0.286026	-0.190371
C193	C	0.978230	-0.380655	-0.795946
C194	C	1.311564	-0.047322	-0.462612
C195	C	1.644897	0.286012	-0.129279
C196	C	0.978150	-0.380779	-0.150292
C197	C	1.311483	-0.047445	0.183041
C198	C	1.644816	0.285888	0.516375
C199	C	0.978265	-0.380577	-0.075060
C200	C	1.311598	-0.047244	0.258273
C201	C	1.644931	0.286090	0.591606
H202	H	0.236479	-0.288972	-0.247776
H203	H	0.569812	0.044361	0.085557
H204	H	0.903146	0.377695	0.418890
N205	N	0.888207	-0.485741	-0.722041
N206	N	1.221540	-0.152407	-0.388707
N207	N	1.554874	0.180926	-0.055374
H208	H	0.860768	-0.517769	-0.688914
H209	H	1.194102	-0.184435	-0.355581
H210	H	1.527435	0.148898	-0.022247
H211	H	0.856900	-0.453558	-0.751370
H212	H	1.190233	-0.120224	-0.418037
H213	H	1.523567	0.213109	-0.084703
H214	H	0.592269	-0.472623	-0.404545
H215	H	0.925603	-0.139290	-0.071211
H216	H	1.258936	0.194043	0.262122
N217	N	0.888187	-0.485781	-0.575113
N218	N	1.221520	-0.152447	-0.241779
N219	N	1.554854	0.180886	0.091554
H220	H	0.894749	-0.478123	-0.524972
H221	H	1.228083	-0.144790	-0.191639
H222	H	1.561416	0.188543	0.141695
H223	H	0.839854	-0.473470	-0.587461
H224	H	1.173187	-0.140137	-0.254128
H225	H	1.506520	0.193196	0.079206
N226	N	0.374086	-0.486013	-0.415986
N227	N	0.707419	-0.152679	-0.082652
N228	N	1.040753	0.180654	0.250681
H229	H	0.403435	-0.453935	-0.447395
H230	H	0.736769	-0.120601	-0.114062
H231	H	1.070102	0.212732	0.219272
H232	H	0.403355	-0.522590	-0.388377
H233	H	0.736688	-0.189257	-0.055044
H234	H	1.070021	0.144077	0.278289
N235	N	0.374055	-0.275592	-0.236337
N236	N	0.707389	0.057742	0.096996
N237	N	1.040722	0.391075	0.430330
H238	H	0.424200	-0.283263	-0.242887
H239	H	0.757533	0.050070	0.090446
H240	H	1.090867	0.383403	0.423779
H241	H	0.361716	-0.219156	-0.246952
H242	H	0.695049	0.114177	0.086382
H243	H	1.028383	0.447510	0.419715
N244	N	0.729852	-0.485999	-0.415946
N245	N	1.063185	-0.152666	-0.082612
N246	N	1.396519	0.180667	0.250721
H247	H	0.696738	-0.518065	-0.443323
H248	H	1.030071	-0.184732	-0.109990
H249	H	1.363404	0.148602	0.223343
H250	H	0.759203	-0.453872	-0.447314
H251	H	1.092536	-0.120539	-0.113980
H252	H	1.425869	0.212795	0.219353
N253	N	0.888090	-0.670792	-0.416040
N254	N	1.221424	-0.337458	-0.082707
N255	N	1.554757	-0.004125	0.250627
H256	H	0.894640	-0.612232	-0.409472
H257	H	1.227973	-0.278899	-0.076139
H258	H	1.561307	0.054435	0.257194
H259	H	0.898601	-0.685181	-0.464392
H260	H	1.231934	-0.351848	-0.131058
H261	H	1.565267	-0.018515	0.202275
N262	N	0.844818	-0.794624	-0.459297
N263	N	1.178151	-0.461291	-0.125964
N264	N	1.511484	-0.127958	0.207369
H265	H	0.851371	-0.736066	-0.452724
H266	H	1.184705	-0.402733	-0.119390
H267	H	1.518038	-0.069400	0.213943
H268	H	0.855326	-0.809008	-0.507651
H269	H	1.188659	-0.475674	-0.174318
H270	H	1.521993	-0.142341	0.159016
N271	N	0.582903	-0.275578	-0.236321
N272	N	0.916236	0.057755	0.097012
N273	N	1.249569	0.391088	0.430346
H274	H	0.595191	-0.287786	-0.187945
H275	H	0.928524	0.045547	0.145388
H276	H	1.261857	0.378880	0.478721
H277	H	0.595238	-0.219138	-0.246969
H278	H	0.928571	0.114195	0.086364
H279	H	1.261904	0.447528	0.419697
N280	N	0.888254	-0.485644	-1.077810
N281	N	1.221587	-0.152310	-0.744477
N282	N	1.554920	0.181023	-0.411144
H283	H	0.860809	-0.517670	-1.044687
H284	H	1.194143	-0.184337	-0.711354
H285	H	1.527476	0.148996	-0.378020
H286	H	0.856952	-0.453454	-1.107140
H287	H	1.190285	-0.120120	-0.773806
H288	H	1.523619	0.213213	-0.440473
H289	H	0.236498	-0.472646	-0.404573
H290	H	0.569832	-0.139313	-0.071240
H291	H	0.903165	0.194021	0.262094
N292	N	1.068287	-1.089963	-0.236297
N293	N	1.401620	-0.756630	0.097037
N294	N	1.734953	-0.423297	0.430370
H295	H	1.057799	-1.075629	-0.187926
H296	H	1.391133	-0.742296	0.145407
H297	H	1.724466	-0.408962	0.478741
H298	H	1.061714	-1.148509	-0.242916
H299	H	1.395048	-0.815176	0.090418
H300	H	1.728381	-0.481843	0.423751
H301	H	1.056836	-0.288881	-1.068524
H302	H	1.390169	0.044452	-0.735191
H303	H	1.723503	0.377785	-0.401858
N304	N	0.729828	-0.275559	-0.236322
N305	N	1.063162	0.057774	0.097011
N306	N	1.396495	0.391107	0.430344
H307	H	0.696709	-0.243496	-0.208950
H308	H	1.030042	0.089838	0.124383
H309	H	1.363375	0.423171	0.457716
H310	H	0.759139	-0.307679	-0.204949
H311	H	1.092472	0.025654	0.128385
H312	H	1.425805	0.358987	0.461718
N313	N	0.888203	-0.485652	-0.930881
N314	N	1.221536	-0.152318	-0.597547
N315	N	1.554870	0.181015	-0.264214
H316	H	0.860770	-0.517655	-0.963990
H317	H	1.194104	-0.184321	-0.630657
H318	H	1.527437	0.149012	-0.297324
H319	H	0.915711	-0.522252	-0.901538
H320	H	1.249044	-0.188919	-0.568204
H321	H	1.582378	0.144415	-0.234871
H322	H	0.856327	-0.955303	-0.447884
H323	H	1.189661	-0.621970	-0.114550
H324	H	1.522994	-0.288637	0.218783
H325	H	0.899678	-1.079117	-0.404647
H326	H	1.233011	-0.745784	-0.071314
H327	H	1.566345	-0.412451	0.262019
H328	H	1.056819	-0.288916	-0.940280
H329	H	1.390153	0.044417	-0.606946
H330	H	1.723486	0.377750	-0.273613
N331	N	1.068239	-0.275609	-0.722092
N332	N	1.401572	0.057725	-0.388758
N333	N	1.734906	0.391058	-0.055425
H334	H	1.099599	-0.307721	-0.751424
H335	H	1.432932	0.025612	-0.418091
H336	H	1.766265	0.358945	-0.084757
H337	H	1.040706	-0.238970	-0.751377
H338	H	1.374040	0.094363	-0.418043
H339	H	1.707373	0.427696	-0.084710
H340	H	1.100097	-0.955238	-0.204466
H341	H	1.433430	-0.621904	0.128867
H342	H	1.766764	-0.288571	0.462200
N343	N	1.111515	-0.794557	-0.193028
N344	N	1.444848	-0.461224	0.140306
N345	N	1.778182	-0.127891	0.473639
H346	H	1.084023	-0.760344	-0.161631
H347	H	1.417356	-0.427011	0.171703
H348	H	1.750689	-0.093677	0.505036
H349	H	1.138956	-0.833275	-0.165682
H350	H	1.472289	-0.499941	0.167651
H351	H	1.805623	-0.166608	0.500985
N352	N	1.068147	-0.670740	-0.236260
N353	N	1.401480	-0.337407	0.097074
N354	N	1.734813	-0.004074	0.430407
H355	H	1.095594	-0.709406	-0.208864
H356	H	1.428928	-0.376073	0.124469
H357	H	1.762261	-0.042740	0.457803
H358	H	1.099446	-0.636450	-0.263836
H359	H	1.432779	-0.303116	0.069497
H360	H	1.766112	0.030217	0.402831
N361	N	1.068224	-0.275663	-0.575179
N362	N	1.401558	0.057670	-0.241846
N363	N	1.734891	0.391004	0.091488
H364	H	1.061653	-0.283349	-0.525033
H365	H	1.394986	0.049984	-0.191700
H366	H	1.728319	0.383318	0.141634
H367	H	1.116557	-0.287979	-0.587550
H368	H	1.449891	0.045354	-0.254217
H369	H	1.783224	0.378687	0.079117
