data_functionalizedCrystal
_audit_creation_method	'MofGen! by Chris Wilmer'
_symmetry_space_group_name_H-M	'P1'
_symmetry_Int_Tables_number	1
_symmetry_cell_setting	triclinic
loop_
_symmetry_equiv_pos_as_xyz
  x,y,z
_cell_length_a	11.804365
_cell_length_b	17.699083
_cell_length_c	17.699092
_cell_angle_alpha	96.715309
_cell_angle_beta	78.191748
_cell_angle_gamma	78.182163
loop_
_atom_site_label
_atom_site_type_symbol
_atom_site_fract_x
_atom_site_fract_y
_atom_site_fract_z
O1	O	0.098853	-1.019370	0.080428
O2	O	0.098892	-0.798998	0.092874
O3	O	0.098869	-0.915406	-0.023537
O4	O	0.098877	-0.902962	0.196839
O5	O	-0.099181	-0.884761	0.007079
O6	O	-0.099158	-0.768352	0.123490
O7	O	-0.099196	-0.988724	0.111043
Cu8	Cu	-0.117261	-0.875740	0.120062
Cu9	Cu	0.116956	-0.911982	0.083855
O10	O	-0.099173	-0.872316	0.227455
C11	C	-0.000128	-0.755479	0.107735
C12	C	-0.000113	-0.671463	0.106394
N13	N	-0.281996	-0.850255	0.145528
C14	C	-0.000154	-0.899637	-0.036427
C15	C	-0.000148	-0.898297	-0.120445
C16	C	-0.655974	-0.998673	-0.002782
C17	C	-0.531316	-1.017952	-0.022050
C18	C	-0.468980	-0.976029	0.019842
C19	C	-0.531314	-0.914824	0.081006
C20	C	-0.655984	-0.895548	0.100280
C21	C	-0.468990	-0.872904	0.122905
C22	C	-0.531324	-0.811699	0.184069
C23	C	-0.655982	-0.792425	0.203339
C24	C	-0.718318	-0.834348	0.161447
C25	C	-0.344320	-0.892180	0.103631
C26	C	-0.344330	-0.789055	0.206694
C27	C	-0.468988	-0.769776	0.225962
N28	N	0.281692	-0.937473	0.058384
C29	C	-0.000174	-1.032244	0.096182
C30	C	-0.000181	-1.116261	0.097522
C31	C	-0.000111	-0.622844	0.174727
C32	C	-0.000127	-0.543899	0.173467
C33	C	-0.000136	-0.513574	0.103872
C34	C	-0.000141	-0.562199	0.035535
C35	C	-0.000134	-0.641142	0.036797
C36	C	-0.000171	-0.243831	0.030444
C37	C	-0.000174	-0.164882	0.029187
C38	C	-0.000163	-0.146588	0.167114
C39	C	-0.000156	-0.225531	0.168376
C40	C	-0.000168	-0.274147	0.100040
C41	C	-0.000154	-0.359749	0.101408
C42	C	-0.000142	-0.427976	0.102503
C43	C	0.107810	-0.914374	-0.176602
C44	C	0.107812	-0.913109	-0.255545
C45	C	-0.000146	-0.895772	-0.278331
C46	C	-0.108113	-0.879692	-0.222167
C47	C	-0.108114	-0.880951	-0.143225
C48	C	-0.108114	-0.874611	-0.540532
C49	C	-0.108105	-0.873355	-0.619482
C50	C	0.107811	-0.906769	-0.652852
C51	C	0.107811	-0.908028	-0.573910
C52	C	-0.000155	-0.891944	-0.517753
C53	C	-0.000156	-0.893314	-0.432154
C54	C	-0.000147	-0.894408	-0.363929
C55	C	-0.000148	-0.888086	0.240344
C56	C	-0.000146	-0.889427	0.324361
H57	H	-0.293579	-0.942013	0.053832
H58	H	-0.367478	-0.991729	0.004152
F59	F	0.222720	-0.923885	-0.712625
H60	H	-0.706734	-0.742595	0.253148
F61	F	-0.464980	-1.083087	-0.087141
H62	H	-0.293577	-0.754919	0.240808
H63	H	-0.000103	-0.647528	0.231399
F64	F	-0.000119	-0.492159	0.246196
F65	F	-0.000183	-0.295562	-0.042286
H66	H	-0.000166	-0.537500	-0.021128
H67	H	-0.196015	-0.865572	-0.240725
F68	F	-0.000140	-0.257800	0.242447
H69	H	-0.706737	-1.032805	-0.036882
H70	H	-0.519756	-0.719942	0.275763
H71	H	-0.819825	-0.818650	0.177132
F72	F	-0.000155	-0.094840	0.239845
F73	F	-0.000184	-0.132612	-0.044889
F74	F	0.222716	-0.930221	-0.315308
F75	F	-0.223021	-0.857483	-0.480774
F76	F	-0.223018	-0.863839	-0.083458
H77	H	-0.000135	-0.680727	-0.018847
H78	H	0.195722	-0.928495	-0.158057
F79	F	-0.223015	-0.854902	-0.643728
F80	F	0.222714	-0.926484	-0.549665
