data_functionalizedCrystal
_audit_creation_method	'MofGen! by Chris Wilmer'
_symmetry_space_group_name_H-M	'P1'
_symmetry_Int_Tables_number	1
_symmetry_cell_setting	triclinic
loop_
_symmetry_equiv_pos_as_xyz
  x,y,z
_cell_length_a	14.519709
_cell_length_b	8.559649
_cell_length_c	7.088929
_cell_angle_alpha	95.325015
_cell_angle_beta	96.243584
_cell_angle_gamma	103.270595
loop_
_atom_site_label
_atom_site_type_symbol
_atom_site_fract_x
_atom_site_fract_y
_atom_site_fract_z
O1	O	0.020642	2.103670	-0.158950
O2	O	0.520642	2.603670	0.341050
O3	O	-0.026977	1.638600	-0.158976
O4	O	0.473023	2.138600	0.341024
O5	O	0.131960	1.883471	-0.158909
O6	O	0.631960	2.383471	0.341091
O7	O	-0.138295	1.858799	-0.159017
O8	O	0.361705	2.358799	0.340983
O9	O	0.153243	1.916196	0.159075
O10	O	0.653243	2.416196	0.659075
O11	O	-0.005694	1.671324	0.159009
O12	O	0.494306	2.171324	0.659009
O13	O	0.041926	2.136395	0.159034
O14	O	0.541926	2.636395	0.659034
Cu15	Cu	0.020059	1.906847	0.188056
Cu16	Cu	0.520059	2.406847	0.688056
Cu17	Cu	-0.005111	1.868147	-0.187997
Cu18	Cu	0.494889	2.368147	0.312003
O19	O	-0.117011	1.891523	0.158967
O20	O	0.382989	2.391523	0.658967
C21	C	0.176879	1.898685	0.000093
C22	C	0.676879	2.398685	0.500093
C23	C	0.279015	1.895244	0.000122
C24	C	0.779015	2.395244	0.500122
C25	C	-0.019944	1.595442	0.000014
C26	C	0.480056	2.095442	0.500014
C27	C	-0.030686	1.418092	0.000007
C28	C	0.469314	1.918092	0.500007
C29	C	0.653004	1.882570	0.000173
C30	C	1.153004	2.382570	0.500173
C31	C	0.548948	1.886090	0.000159
C32	C	1.048948	2.386090	0.500159
C33	C	0.466013	1.888907	0.000149
C34	C	0.966013	2.388907	0.500149
C35	C	0.361950	1.892427	0.000132
C36	C	0.861950	2.392427	0.500132
C37	C	0.838073	1.876316	0.000029
C38	C	1.338073	2.376316	0.500029
C39	C	0.735950	1.879777	0.000191
C40	C	1.235950	2.379777	0.500191
C41	C	0.034893	2.179552	0.000040
C42	C	0.534893	2.679552	0.500040
C43	C	0.045634	2.356901	0.000035
C44	C	0.545634	2.856901	0.500035
N45	N	0.037764	1.934079	0.452551
N46	N	0.537764	2.434079	0.952551
N47	N	-0.022807	1.840928	-0.452493
N48	N	0.477193	2.340928	0.047507
H49	H	0.119192	1.440189	0.000055
H50	H	0.619192	1.940189	0.500055
H51	H	-0.104251	1.334792	-0.000033
H52	H	0.395749	1.834792	0.499967
N53	N	0.120907	2.061982	0.560735
N54	N	0.620907	2.561982	1.060735
H55	H	0.159298	2.121027	0.467106
H56	H	0.659298	2.621027	0.967106
H57	H	0.096160	2.141283	0.643750
H58	H	0.596160	2.641283	1.143750
N59	N	-0.105955	1.713045	0.439339
N60	N	0.394045	2.213045	0.939339
H61	H	-0.104699	1.714963	0.297390
H62	H	0.395301	2.214963	0.797390
H63	H	-0.101068	1.603218	0.474250
H64	H	0.398932	2.103218	0.974250
