data_functionalizedCrystal
_audit_creation_method	'MofGen! by Chris Wilmer'
_symmetry_space_group_name_H-M	'P1'
_symmetry_Int_Tables_number	1
_symmetry_cell_setting	triclinic
loop_
_symmetry_equiv_pos_as_xyz
  x,y,z
_cell_length_a	10.654554
_cell_length_b	10.723023
_cell_length_c	9.130313
_cell_angle_alpha	89.999732
_cell_angle_beta	89.998999
_cell_angle_gamma	84.477195
loop_
_atom_site_label
_atom_site_type_symbol
_atom_site_fract_x
_atom_site_fract_y
_atom_site_fract_z
O1	O	1.667804	0.175297	-0.121822
O2	O	1.302323	0.191990	-0.121819
O3	O	1.493494	0.002069	-0.121814
O4	O	1.476633	0.365219	-0.121826
O5	O	1.493492	0.002074	0.121784
O6	O	1.302321	0.191995	0.121780
O7	O	1.667801	0.175302	0.121777
Cu8	Cu	1.485061	0.183649	0.144021
Cu9	Cu	1.485064	0.183643	-0.144063
O10	O	1.476630	0.365224	0.121772
C11	C	1.255525	0.190766	-0.000019
C12	C	1.116082	0.187095	-0.000018
C13	C	0.933539	0.068370	-0.000033
C14	C	1.064560	0.071818	-0.000018
C15	C	1.036576	0.298931	-0.000017
C16	C	0.905558	0.295482	-0.000022
C17	C	0.949696	-0.062752	-0.000040
C18	C	1.080717	-0.059304	-0.000025
C19	C	1.492266	-0.044428	-0.000017
C20	C	1.488596	-0.182983	-0.000021
C21	C	1.486961	-0.244752	-0.126215
C22	C	1.483167	-0.387956	-0.126222
C23	C	1.714600	0.176527	-0.000026
C24	C	1.854043	0.180198	-0.000037
C25	C	1.477858	0.411721	-0.000029
C26	C	1.481529	0.550276	-0.000034
N27	N	1.485068	0.183653	0.346644
N28	N	1.485066	0.183630	-0.346686
C29	C	1.569741	0.099585	0.423297
C30	C	1.569737	0.099570	0.576634
C31	C	1.400385	0.267702	0.576650
C32	C	1.400383	0.267710	0.423316
C33	C	1.667519	0.002518	0.423290
C34	C	1.667515	0.002503	0.576627
H35	H	0.920340	-0.114033	0.101900
H36	H	1.482942	-0.396613	0.108011
Br37	Br	1.285457	0.381772	0.680712
Br38	Br	1.486233	-0.271531	0.180053
H39	H	1.331426	0.336154	0.360905
H40	H	0.840836	0.386543	-0.000008
Br41	Br	1.489337	-0.156206	-0.306289
Br42	Br	0.890311	-0.132338	-0.175348
H43	H	1.646091	-0.093400	0.381673
Br44	Br	1.616666	-0.148559	0.655896
Br45	Br	1.106498	0.455381	0.000005
Br46	Br	1.150340	-0.141624	-0.169943
Br47	Br	1.819476	0.053200	0.344004
H48	H	1.764023	0.023886	0.618242
Br49	Br	1.156805	-0.125328	0.175288
H50	H	1.481767	-0.441076	-0.234261
