data_functionalizedCrystal
_audit_creation_method	'MofGen! by Chris Wilmer'
_symmetry_space_group_name_H-M	'P1'
_symmetry_Int_Tables_number	1
_symmetry_cell_setting	triclinic
loop_
_symmetry_equiv_pos_as_xyz
  x,y,z
_cell_length_a	27.732064
_cell_length_b	16.109301
_cell_length_c	14.586319
_cell_angle_alpha	90.002454
_cell_angle_beta	89.995864
_cell_angle_gamma	83.055504
loop_
_atom_site_label
_atom_site_type_symbol
_atom_site_fract_x
_atom_site_fract_y
_atom_site_fract_z
O1	O	0.641336	0.098991	0.076075
O2	O	0.500606	0.114018	0.076112
O3	O	0.574837	-0.014574	0.076089
O4	O	0.567105	0.227583	0.076097
O5	O	0.574832	-0.014576	-0.076392
O6	O	0.500601	0.114017	-0.076369
O7	O	0.641330	0.098989	-0.076406
Cu8	Cu	0.570965	0.106503	-0.090310
Cu9	Cu	0.570971	0.106505	0.090016
O10	O	0.567100	0.227581	-0.076384
C11	C	0.482596	0.113700	-0.000124
C12	C	0.428937	0.112744	-0.000110
C13	C	0.051519	0.030242	-0.000164
C14	C	0.253194	0.033762	-0.000140
O15	O	0.284179	-0.030256	-0.000177
N16	N	0.272641	0.110015	-0.000134
C17	C	0.241665	0.185393	-0.000139
O18	O	0.262833	0.250331	-0.000143
C19	C	0.039991	0.181873	-0.000170
C20	C	0.020547	0.105615	-0.000167
C21	C	0.032075	-0.046009	-0.000163
C22	C	-0.018341	-0.046888	-0.000164
C23	C	-0.049313	0.028484	-0.000166
C24	C	-0.029868	0.104736	-0.000168
C25	C	0.009016	0.257250	-0.000182
C26	C	-0.041405	0.256363	-0.000192
C27	C	-0.060848	0.180106	-0.000189
C28	C	-0.111256	0.179229	-0.000172
N29	N	-0.130702	0.102977	-0.000178
C30	C	-0.099731	0.027604	-0.000176
C31	C	0.347547	0.187236	-0.000122
C32	C	0.397965	0.188116	-0.000112
C33	C	0.409491	0.036485	-0.000115
C34	C	0.359072	0.035605	-0.000118
C35	C	0.328101	0.110983	-0.000128
C36	C	-0.205608	0.025764	-0.000177
C37	C	-0.256029	0.024891	-0.000174
C38	C	-0.267550	0.176522	-0.000176
C39	C	-0.217134	0.177395	-0.000174
C40	C	-0.186163	0.102009	-0.000178
O41	O	-0.142269	0.243213	-0.000146
O42	O	-0.120908	-0.037325	-0.000193
C43	C	0.101935	0.031122	-0.000163
C44	C	0.121379	0.107373	-0.000165
C45	C	0.090407	0.182746	-0.000168
C46	C	0.171797	0.108253	-0.000156
C47	C	0.202769	0.032881	-0.000153
C48	C	0.183322	-0.043372	-0.000160
C49	C	0.132906	-0.044251	-0.000161
C50	C	0.109854	0.258998	-0.000161
C51	C	0.160270	0.259871	-0.000159
C52	C	0.191242	0.184499	-0.000157
C53	C	0.574521	-0.045546	-0.000150
C54	C	0.573582	-0.137829	-0.000146
C55	C	0.659341	0.099308	-0.000169
C56	C	0.713000	0.100264	-0.000177
C57	C	0.567416	0.258553	-0.000143
C58	C	0.568355	0.350837	-0.000140
N59	N	0.570965	0.106501	-0.217142
C60	C	0.527377	0.660338	-0.000126
C61	C	0.526491	0.573629	-0.000127
C62	C	0.614563	0.552674	-0.000164
C63	C	0.615449	0.639382	-0.000169
C64	C	0.571855	0.693212	-0.000145
C65	C	0.570082	0.519795	-0.000141
C66	C	0.569121	0.425781	-0.000143
C67	C	0.572816	0.787233	-0.000145
C68	C	0.603845	0.049579	-0.452159
C69	C	0.603846	0.049577	-0.548140
C70	C	0.538092	0.163425	-0.548129
C71	C	0.538089	0.163422	-0.452150
C72	C	0.570968	0.106500	-0.404167
C73	C	0.570973	0.106501	-0.596128
C74	C	0.570974	0.106499	-0.700195
C75	C	0.570966	0.106501	-0.300093
N76	N	0.570976	0.106500	0.216848
H77	H	-0.180398	-0.035623	-0.000180
H78	H	0.651670	0.666147	-0.000187
O79	O	0.635764	-0.005828	-0.594657
C80	C	0.627914	-0.088040	-0.571224
H81	H	0.609281	-0.087717	-0.501536
H82	H	0.603862	-0.113470	-0.625242
C83	C	0.699885	-0.144323	-0.652385
C84	C	0.677004	-0.143928	-0.566789
H85	H	0.730165	-0.178800	-0.649653
H86	H	0.705173	-0.088936	-0.668176
H87	H	0.679837	-0.165513	-0.697391
H88	H	0.697049	-0.122729	-0.521786
H89	H	0.671720	-0.199313	-0.550990
O90	O	0.485077	0.712747	-0.000071
C91	C	0.495394	0.796329	-0.000101
H92	H	0.533361	0.799171	0.028754
H93	H	0.493555	0.821426	-0.073255
C94	C	0.411231	0.846396	0.024265
C95	C	0.457861	0.849888	0.059713
H96	H	0.388077	0.879436	0.061157
H97	H	0.404279	0.790086	0.024282
H98	H	0.409705	0.867309	-0.036696
H99	H	0.459388	0.828965	0.120668
H100	H	0.464812	0.906196	0.059707
O101	O	0.483315	0.541598	0.000019
C102	C	0.480169	0.492089	0.079004
H103	H	0.518271	0.470001	0.105313
H104	H	0.458786	0.530680	0.134313
C105	C	0.407348	0.442846	0.022717
C106	C	0.454146	0.415711	0.055026
H107	H	0.391294	0.395735	0.007928
H108	H	0.409466	0.476203	-0.030495
H109	H	0.389535	0.475005	0.068813
H110	H	0.471960	0.383562	0.008926
H111	H	0.452031	0.382347	0.108230
H112	H	0.024838	0.319347	-0.000180
H113	H	0.511324	0.209771	-0.587206
H114	H	0.511314	0.209775	-0.413072
O115	O	0.317534	0.260539	-0.000085
C116	C	0.345516	0.328021	-0.000098
H117	H	0.383142	0.306411	0.028774
H118	H	0.349114	0.351425	-0.073248
C119	C	0.274182	0.425853	0.024241
C120	C	0.320394	0.399313	0.059709
H121	H	0.258685	0.469831	0.061129
H122	H	0.255330	0.380390	0.024246
H123	H	0.277187	0.445351	-0.036717
H124	H	0.317388	0.379806	0.120661
H125	H	0.339246	0.444774	0.059715
O126	O	0.635741	-0.005671	-0.405405
C127	C	0.628672	0.006498	-0.310399
H128	H	0.610625	0.072828	-0.297269
H129	H	0.604407	-0.040243	-0.283200
C130	C	0.700272	-0.088137	-0.277224
C131	C	0.678110	-0.006667	-0.261097
H132	H	0.730767	-0.096261	-0.246811
H133	H	0.705034	-0.096338	-0.341231
H134	H	0.680046	-0.127079	-0.254558
H135	H	0.698333	0.032273	-0.283773
H136	H	0.673352	0.001541	-0.197092
O137	O	-0.274835	-0.049263	-0.000215
C138	C	-0.236683	-0.115597	-0.000192
H139	H	-0.202433	-0.092741	-0.029059
H140	H	-0.229552	-0.138811	0.072961
C141	C	-0.292976	-0.215644	-0.024536
C142	C	-0.250910	-0.187574	-0.059998
H143	H	-0.301752	-0.260046	-0.061423
H144	H	-0.318680	-0.170955	-0.024548
H145	H	-0.287027	-0.234984	0.036424
H146	H	-0.256861	-0.168226	-0.120952
H147	H	-0.225207	-0.232262	-0.059998
H148	H	-0.034167	-0.108985	-0.000165
H149	H	0.208548	-0.104743	-0.000152
O150	O	0.656863	0.500265	-0.000138
C151	C	0.646545	0.416684	-0.000150
H152	H	0.608581	0.413848	0.028733
H153	H	0.648376	0.391574	-0.073302
C154	C	0.730710	0.366617	0.024162
C155	C	0.684084	0.363133	0.059644
H156	H	0.753868	0.333583	0.061042
H157	H	0.737663	0.422927	0.024166
H158	H	0.732229	0.345694	-0.036797
H159	H	0.682564	0.384066	0.120597
H160	H	0.677132	0.306826	0.059651
H161	H	0.057288	-0.107390	-0.000164
H162	H	0.343245	-0.026490	-0.000116
H163	H	0.413792	0.250213	-0.000102
O164	O	-0.071470	0.329610	-0.000035
C165	C	-0.062650	0.375960	0.078923
H166	H	-0.045421	0.331844	0.134121
H167	H	-0.036975	0.423738	0.061068
C168	C	-0.132130	0.475826	0.046934
C169	C	-0.110974	0.421642	0.114732
H170	H	-0.161938	0.504008	0.069021
H171	H	-0.138072	0.444601	-0.006264
H172	H	-0.110730	0.515634	0.032061
H173	H	-0.132371	0.381829	0.129596
H174	H	-0.105037	0.452861	0.167933
O175	O	0.114103	-0.118402	-0.000205
C176	C	0.152258	-0.184729	-0.000179
H177	H	0.186508	-0.161866	-0.029042
H178	H	0.159390	-0.207943	0.072974
C179	C	0.095974	-0.284789	-0.024532
C180	C	0.138039	-0.256710	-0.059989
H181	H	0.087202	-0.329192	-0.061421
H182	H	0.070267	-0.240104	-0.024545
H183	H	0.101922	-0.304128	0.036428
H184	H	0.132088	-0.237362	-0.120943
H185	H	0.163744	-0.301394	-0.059986
H186	H	0.434717	-0.024886	-0.000110
H187	H	-0.292776	0.237889	-0.000174
O188	O	0.179074	0.334027	-0.000201
C189	C	0.140920	0.400358	-0.000183
H190	H	0.106673	0.377494	-0.029045
H191	H	0.133783	0.423585	0.072968
C192	C	0.197211	0.500408	-0.024542
C193	C	0.155148	0.472327	-0.059998
H194	H	0.205988	0.544804	-0.061435
H195	H	0.222916	0.455720	-0.024551
H196	H	0.191257	0.519758	0.036416
H197	H	0.161104	0.452968	-0.120950
H198	H	0.129444	0.517013	-0.060000
O199	O	0.079724	0.332166	-0.000034
C200	C	0.050223	0.336208	0.078952
H201	H	0.047666	0.270252	0.105272
H202	H	0.066814	0.373949	0.134254
C203	C	0.002179	0.459744	0.022649
C204	C	-0.000965	0.378735	0.054970
H205	H	-0.029395	0.485980	0.007858
H206	H	0.022055	0.457023	-0.030565
H207	H	0.016006	0.491184	0.068739
H208	H	-0.014786	0.347293	0.008876
H209	H	-0.020845	0.381451	0.108175
H210	H	-0.201302	0.239490	-0.000175
