data_functionalizedCrystal
_audit_creation_method	'MofGen! by Chris Wilmer'
_symmetry_space_group_name_H-M	'P1'
_symmetry_Int_Tables_number	1
_symmetry_cell_setting	triclinic
loop_
_symmetry_equiv_pos_as_xyz
  x,y,z
_cell_length_a	13.033286
_cell_length_b	19.120786
_cell_length_c	13.032268
_cell_angle_alpha	94.409956
_cell_angle_beta	105.163409
_cell_angle_gamma	85.589488
loop_
_atom_site_label
_atom_site_type_symbol
_atom_site_fract_x
_atom_site_fract_y
_atom_site_fract_z
Zn1	Zn	1.522551	-0.440946	-0.369032
Zn2	Zn	2.022551	0.059054	0.130968
Zn3	Zn	1.539171	-0.544179	-0.185614
Zn4	Zn	2.039171	-0.044179	0.314386
Zn5	Zn	1.368980	-0.414778	-0.215518
Zn6	Zn	1.868980	0.085222	0.284482
Zn7	Zn	1.339087	-0.544152	-0.385769
Zn8	Zn	1.839087	-0.044152	0.114231
O9	O	1.442447	-0.486014	-0.288983
O10	O	1.942447	0.013986	0.211017
O11	O	1.672761	-0.465603	-0.325182
O12	O	2.172761	0.034397	0.174818
O13	O	1.536061	-0.516073	-0.041568
O14	O	2.036061	-0.016073	0.458432
O15	O	1.394905	-0.320902	-0.241393
O16	O	1.894905	0.179098	0.258607
O17	O	1.684972	-0.541448	-0.190425
O18	O	2.184972	-0.041448	0.309575
O19	O	1.507733	-0.340128	-0.354179
O20	O	2.007733	0.159872	0.145821
O21	O	1.411022	-0.421003	-0.063539
O22	O	1.911022	0.078997	0.436461
O23	O	1.217008	-0.420976	-0.257622
O24	O	1.717008	0.079024	0.242378
O25	O	1.343958	-0.541401	-0.531561
O26	O	1.843958	-0.041401	-0.031561
O27	O	1.195047	-0.516027	-0.382704
O28	O	1.695047	-0.016027	0.117296
O29	O	1.478748	-0.465577	-0.519265
O30	O	1.978748	0.034423	-0.019265
O31	O	1.507076	-0.641522	-0.206654
O32	O	2.007076	-0.141522	0.293346
O33	O	1.360075	-0.641502	-0.353707
O34	O	1.860075	-0.141502	0.146293
C35	C	1.167651	-0.465660	-0.325225
C36	C	1.667651	0.034340	0.174775
C37	C	1.050088	-0.456971	-0.340753
C38	C	1.550088	0.043029	0.159247
C39	C	1.003734	-0.490550	-0.280905
C40	C	1.503734	0.009450	0.219095
C41	C	0.882226	-0.481571	-0.296953
C42	C	1.382226	0.018429	0.203047
C43	C	1.432161	-0.666757	-0.278771
C44	C	1.932161	-0.166757	0.221229
C45	C	1.427852	-0.744089	-0.274425
C46	C	1.927852	-0.244089	0.225575
C47	C	1.484514	-0.790370	-0.331166
C48	C	1.984514	-0.290370	0.168834
C49	C	1.480461	-0.863031	-0.327085
C50	C	1.980461	-0.363031	0.172915
C51	C	1.419752	-0.889411	-0.266255
C52	C	1.919752	-0.389411	0.233745
C53	C	1.363084	-0.843125	-0.209512
C54	C	1.863084	-0.343125	0.290488
C55	C	1.367131	-0.770464	-0.213600
C56	C	1.867131	-0.270464	0.286400
C57	C	1.404590	-1.108301	-0.250977
C58	C	1.904590	-0.608301	0.249023
C59	C	1.400550	-1.180967	-0.246890
C60	C	1.900550	-0.680967	0.253110
C61	C	1.517926	-1.200869	-0.364465
C62	C	2.017926	-0.700869	0.135535
C63	C	1.521973	-1.128206	-0.368543
C64	C	2.021973	-0.628206	0.131457
C65	C	1.465300	-1.081926	-0.311804
C66	C	1.965300	-0.581926	0.188196
C67	C	1.415611	-0.963683	-0.262079
C68	C	1.915611	-0.463683	0.237921
C69	C	1.469436	-1.007656	-0.315987
C70	C	1.969436	-0.507656	0.184013
C71	C	1.718316	-0.506448	-0.252601
C72	C	2.218316	-0.006448	0.247399
C73	C	1.835875	-0.515155	-0.237097
C74	C	2.335875	-0.015155	0.262903
C75	C	1.406165	-0.506405	-0.564864
C76	C	1.906165	-0.006405	-0.064864
C77	C	1.390704	-0.515095	-0.682428
C78	C	1.890704	-0.015095	-0.182428
C79	C	1.452800	-0.304569	-0.299255
C80	C	1.952800	0.195431	0.200745
C81	C	1.457211	-0.227248	-0.303632
C82	C	1.957211	0.272752	0.196368
C83	C	1.450502	-0.481452	-0.728757
C84	C	1.950502	0.018548	-0.228757
C85	C	1.434523	-0.490432	-0.850265
C86	C	1.934523	0.009568	-0.350265
C87	C	1.478652	-0.465656	-0.014171
C88	C	1.978652	0.034344	0.485829
C89	C	1.494329	-0.456785	0.103408
C90	C	1.994329	0.043215	0.603408
H91	H	0.886138	-0.550561	-0.173981
H92	H	1.386138	-0.050561	0.326019
C93	C	0.982182	-0.409146	-0.426021
C94	C	1.482182	0.090854	0.073979
N95	N	0.931036	-0.373121	-0.490243
N96	N	1.431036	0.126879	0.009757
H97	H	1.533955	-0.768897	-0.380695
H98	H	2.033955	-0.268897	0.119305
C99	C	1.542810	-0.913938	-0.389490
C100	C	2.042810	-0.413938	0.110510
N101	N	1.589779	-0.952280	-0.436491
N102	N	2.089779	-0.452280	0.063509
C103	C	1.588780	-1.099195	-0.435438
C104	C	2.088780	-0.599195	0.064562
N105	N	1.639110	-1.077344	-0.485814
N106	N	2.139110	-0.577344	0.014186
H107	H	1.366185	-0.985169	-0.212548
H108	H	1.866185	-0.485169	0.287452
C109	C	1.580254	-1.251782	-0.426882
C110	C	2.080254	-0.751782	0.073118
N111	N	1.627197	-1.290131	-0.473901
N112	N	2.127197	-0.790131	0.026099
C113	C	1.333757	-1.209982	-0.179975
C114	C	1.833757	-0.709982	0.320025
N115	N	1.283452	-1.231836	-0.129577
N116	N	1.783452	-0.731836	0.370423
C117	C	1.535645	-0.433556	-0.660821
C118	C	2.035645	0.066444	-0.160821
N119	N	1.599777	-0.397480	-0.609652
N120	N	2.099777	0.102520	-0.109652
H121	H	1.358447	-1.070625	-0.204775
H122	H	1.858447	-0.570625	0.295225
H123	H	1.320990	-0.732782	-0.167397
H124	H	1.820990	-0.232782	0.332603
C125	C	1.579482	-0.408889	-0.828661
C126	C	2.079482	0.091111	-0.328661
N127	N	1.643619	-0.372816	-0.777494
N128	N	2.143619	0.127184	-0.277494
H129	H	1.054003	-0.525950	-0.217790
H130	H	1.554003	-0.025950	0.282210
C131	C	0.814323	-0.433744	-0.382225
C132	C	1.314323	0.066256	0.117775
N133	N	0.763178	-0.397719	-0.446448
N134	N	1.263178	0.102281	0.053552
C135	C	1.305554	-0.562986	-0.750365
C136	C	1.805554	-0.062986	-0.250365
N137	N	1.241417	-0.599058	-0.801534
N138	N	1.741417	-0.099058	-0.301534
H139	H	1.313648	-0.864608	-0.159988
H140	H	1.813648	-0.364608	0.340012
H141	H	1.518861	-0.986175	-0.365519
H142	H	2.018861	-0.486175	0.134481
H143	H	1.371487	-0.525881	-0.900555
H144	H	1.871487	-0.025881	-0.400555
