data_functionalizedCrystal
_audit_creation_method	'MofGen! by Chris Wilmer'
_symmetry_space_group_name_H-M	'P1'
_symmetry_Int_Tables_number	1
_symmetry_cell_setting	triclinic
loop_
_symmetry_equiv_pos_as_xyz
  x,y,z
_cell_length_a	6.817900
_cell_length_b	16.418049
_cell_length_c	17.078481
_cell_angle_alpha	96.278060
_cell_angle_beta	99.306161
_cell_angle_gamma	103.389670
loop_
_atom_site_label
_atom_site_type_symbol
_atom_site_fract_x
_atom_site_fract_y
_atom_site_fract_z
V1	V	-3.979125	-0.115690	-0.247640
O2	O	-3.968071	0.005761	-0.242639
O3	O	-3.930462	-0.229588	-0.246223
O4	O	-3.910179	-0.113822	-0.355519
O5	O	-3.988494	-0.110806	-0.132587
V6	V	-4.465449	-0.101174	-0.233846
O7	O	-4.234238	-0.147533	-0.277901
O8	O	-4.660533	-0.069331	-0.203585
O9	O	-4.290905	0.012724	-0.235263
O10	O	-4.593900	-0.222625	-0.238847
O11	O	-4.573476	-0.106058	-0.348899
O12	O	-4.311188	-0.103042	-0.125967
C13	C	-3.776063	-0.257356	-0.242388
C14	C	-3.817426	-0.350469	-0.241948
C15	C	-4.093892	-0.568956	-0.244920
C16	C	-4.132743	-0.656445	-0.244514
C17	C	-3.770039	-0.647907	-0.236571
C18	C	-3.731192	-0.560420	-0.236983
C19	C	-3.893124	-0.520946	-0.241154
C20	C	-3.970822	-0.695923	-0.240335
C21	C	-4.012945	-0.790783	-0.239895
C22	C	-3.851000	-0.426080	-0.241595
C23	C	-3.750190	-0.109685	-0.381804
C24	C	-3.775100	-0.108911	-0.469997
C25	C	-3.968126	-0.112729	-0.515482
C26	C	-3.991520	-0.112002	-0.598349
C27	C	-3.821889	-0.107463	-0.635730
C28	C	-3.628847	-0.103642	-0.590238
C29	C	-3.605452	-0.104364	-0.507372
C30	C	-3.872411	-0.104852	-0.883126
C31	C	-3.895823	-0.104133	-0.965999
C32	C	-4.258494	-0.112491	-0.974103
C33	C	-4.235085	-0.113217	-0.891237
C34	C	-4.042044	-0.109392	-0.845752
N35	N	-3.845799	-0.106722	-0.720433
N36	N	-4.018134	-0.110127	-0.761049
C37	C	-4.108646	0.040488	-0.239096
C38	C	-4.046521	0.133599	-0.239541
C39	C	-4.134521	-0.107182	-0.099677
C40	C	-4.088848	-0.107951	-0.011484
H41	H	-3.567697	-0.521330	-0.233918
H42	H	-3.757677	-0.100434	-0.996431
C43	C	-3.591923	-0.691335	-0.231969
N44	N	-3.457759	-0.724043	-0.228497
C45	C	-3.442208	-0.098560	-0.631346
N46	N	-3.301613	-0.094703	-0.662304
C47	C	-4.421691	-0.118201	-0.850123
N48	N	-4.562246	-0.121953	-0.819156
C49	C	-4.470824	-0.116688	-1.024142
N50	N	-4.630757	-0.119844	-1.061830
H51	H	-4.106265	-0.116431	-0.485054
H52	H	-4.225750	-0.536819	-0.248315
C53	C	-3.393112	-0.100167	-0.457339
N54	N	-3.233170	-0.097004	-0.419655
H55	H	-4.296225	-0.695531	-0.247583
H56	H	-4.148696	-0.115106	-0.635379
H57	H	-3.715243	-0.101767	-0.846107
