data_functionalizedCrystal
_audit_creation_method	'MofGen! by Chris Wilmer'
_symmetry_space_group_name_H-M	'P1'
_symmetry_Int_Tables_number	1
_symmetry_cell_setting	triclinic
loop_
_symmetry_equiv_pos_as_xyz
  x,y,z
_cell_length_a	10.489741
_cell_length_b	15.995350
_cell_length_c	14.472310
_cell_angle_alpha	89.998838
_cell_angle_beta	90.010370
_cell_angle_gamma	84.015774
loop_
_atom_site_label
_atom_site_type_symbol
_atom_site_fract_x
_atom_site_fract_y
_atom_site_fract_z
O1	O	-1.692417	-0.118125	-0.076779
O2	O	-1.321067	-0.129214	-0.076793
O3	O	-1.516893	-0.001843	-0.076785
O4	O	-1.496591	-0.245496	-0.076787
O5	O	-1.516843	-0.001850	0.076897
O6	O	-1.321016	-0.129221	0.076889
O7	O	-1.692367	-0.118132	0.076903
Cu8	Cu	-1.506687	-0.123677	0.090929
Cu9	Cu	-1.506747	-0.123669	-0.090818
O10	O	-1.496540	-0.245503	0.076895
C11	C	-1.273521	-0.128380	0.000046
C12	C	-1.131927	-0.125874	0.000041
C13	C	-1.516029	0.029353	0.000055
C14	C	-1.513512	0.122319	0.000049
C15	C	-1.739912	-0.118966	0.000062
C16	C	-1.881507	-0.121472	0.000061
C17	C	-1.064921	-0.044832	0.000051
C18	C	-0.972283	-0.083112	-0.075721
C19	C	-0.972267	-0.083138	0.075797
C20	C	-1.041154	-0.164188	-0.075793
C21	C	-1.041148	-0.164203	0.075793
C22	C	-0.948537	-0.202542	0.000003
C23	C	-1.497405	-0.276699	0.000054
C24	C	-1.499921	-0.369665	0.000053
N25	N	-1.506654	-0.123683	0.218760
C26	C	-1.504476	0.460121	0.000052
C27	C	-1.365012	0.413528	-0.000298
C28	C	-1.367528	0.316822	0.000049
C29	C	-1.508958	0.292533	0.000050
C30	C	-1.577718	0.333192	0.087811
C31	C	-1.574214	0.429849	0.087885
C32	C	-1.577153	0.430197	-0.086881
C33	C	-1.577120	0.333252	-0.088040
C34	C	-1.511499	0.197820	0.000052
C35	C	-1.501939	0.554834	0.000056
N36	N	-1.506789	-0.123657	-0.218649
C37	C	-1.506745	-0.123666	0.592851
C38	C	-1.401611	-0.191586	0.553681
C39	C	-1.401853	-0.191838	0.446592
C40	C	-1.506699	-0.123674	0.407260
C41	C	-1.639784	-0.143558	0.446102
C42	C	-1.639193	-0.144042	0.553223
C43	C	-1.479981	-0.035665	0.553380
C44	C	-1.476929	-0.036232	0.446252
C45	C	-1.506681	-0.123677	0.302372
C46	C	-1.506771	-0.123664	0.697739
H47	H	-0.941770	-0.048818	-0.139781
O48	O	-1.295421	0.280341	0.083530
H49	H	-1.194720	0.295673	0.080478
O50	O	-1.571794	0.033935	0.410808
H51	H	-1.566970	0.036002	0.334239
O52	O	-1.671778	-0.227644	0.410572
H53	H	-1.593107	-0.255403	0.365261
O54	O	-1.709833	0.471756	0.093195
H55	H	-1.730340	0.511951	0.031343
H56	H	-1.309290	0.432398	-0.063233
O57	O	-1.423928	-0.277585	0.589311
H58	H	-1.509577	-0.272163	0.634795
O59	O	-1.581484	0.031330	0.586939
H60	H	-1.677068	0.016341	0.563085
O61	O	-1.291467	0.439902	0.082602
H62	H	-1.353813	0.486050	0.124054
H63	H	-1.719870	-0.096566	0.579132
H64	H	-0.941748	-0.048836	0.139856
O65	O	-1.507730	0.454498	0.174772
H66	H	-1.478374	0.397405	0.216340
H67	H	-1.719887	-0.095438	0.420622
O68	O	-1.354197	-0.010612	0.589188
H69	H	-1.309349	-0.060610	0.635522
H70	H	-1.662778	-0.208245	0.578199
H71	H	-1.681621	0.318439	0.091076
O72	O	-1.514418	0.295981	0.174326
H73	H	-1.433996	0.248541	0.155040
O74	O	-1.081628	-0.209583	0.160653
H75	H	-1.033141	-0.274663	0.161240
H76	H	-1.115543	0.021790	-0.000044
H77	H	-1.418944	-0.257125	0.420958
O78	O	-1.081370	-0.209540	-0.160767
H79	H	-1.186922	-0.211005	-0.160133
O80	O	-1.347243	-0.016264	0.412644
H81	H	-1.304162	-0.068391	0.368346
H82	H	-0.898180	-0.269234	-0.000039
O83	O	-1.295908	0.279597	-0.083269
H84	H	-1.259155	0.330663	-0.124171
H85	H	-1.531577	0.451015	-0.153398
H86	H	-1.526848	0.306310	-0.152964
H87	H	-1.680258	0.317269	-0.093338
H88	H	-1.302928	-0.179872	0.420333
H89	H	-1.302365	-0.179806	0.579465
O90	O	-1.713360	0.471441	-0.087676
H91	H	-1.712707	0.540745	-0.090319
