data_functionalizedCrystal
_audit_creation_method	'MofGen! by Chris Wilmer'
_symmetry_space_group_name_H-M	'P1'
_symmetry_Int_Tables_number	1
_symmetry_cell_setting	triclinic
loop_
_symmetry_equiv_pos_as_xyz
  x,y,z
_cell_length_a	19.188930
_cell_length_b	14.519709
_cell_length_c	18.266242
_cell_angle_alpha	89.992715
_cell_angle_beta	89.977082
_cell_angle_gamma	83.412462
loop_
_atom_site_label
_atom_site_type_symbol
_atom_site_fract_x
_atom_site_fract_y
_atom_site_fract_z
O1	O	-0.926559	-0.115137	0.061118
O2	O	-0.723303	-0.130636	0.061068
O3	O	-0.830320	0.011385	0.061088
O4	O	-0.819542	-0.257158	0.061098
O5	O	-0.830302	0.011393	-0.060674
O6	O	-0.723285	-0.130629	-0.060694
O7	O	-0.926541	-0.115130	-0.060644
Zn8	Zn	-0.824910	-0.122878	-0.080001
Zn9	Zn	-0.824934	-0.122888	0.080425
O10	O	-0.819524	-0.257151	-0.060664
C11	C	-0.697281	-0.130131	0.000181
C12	C	-0.619771	-0.128624	0.000161
C13	C	-0.829809	0.045746	0.000206
C14	C	-0.828304	0.148118	0.000206
C15	C	-0.952563	-0.115635	0.000245
C16	C	-1.030073	-0.117142	0.000269
C17	C	-0.575144	-0.211957	0.000176
C18	C	-0.502315	-0.210542	0.000184
C19	C	-0.474117	-0.125788	0.000192
C20	C	-0.518754	-0.042444	0.000173
C21	C	-0.591581	-0.043861	0.000158
N22	N	-0.365912	-0.061007	0.041660
N23	N	-0.296729	-0.059666	0.041676
C24	C	-0.254693	-0.121511	0.000237
N25	N	-0.284453	-0.184762	-0.041210
N26	N	-0.353642	-0.186106	-0.041223
C27	C	-0.395149	-0.124241	0.000208
C28	C	-0.131096	-0.203315	0.000259
C29	C	-0.058266	-0.201896	0.000262
C30	C	-0.074706	-0.033796	0.000259
C31	C	-0.147535	-0.035217	0.000248
C32	C	-0.175725	-0.119980	0.000252
N33	N	-0.824899	-0.122871	-0.189488
C34	C	-0.820035	-0.291511	0.000219
C35	C	-0.821541	-0.393883	0.000225
C36	C	-0.822762	0.522979	0.000223
C37	C	-0.824301	0.418681	0.000218
C38	C	-0.825533	0.335552	0.000214
C39	C	-0.827072	0.231247	0.000210
C40	C	-0.872302	-0.060015	-0.227788
C41	C	-0.872306	-0.060010	-0.304433
C42	C	-0.824914	-0.122878	-0.342775
C43	C	-0.777503	-0.185739	-0.304466
C44	C	-0.777495	-0.185736	-0.227822
N45	N	-0.816129	-0.204517	-0.463106
N46	N	-0.816141	-0.204517	-0.535914
C47	C	-0.824934	-0.122892	-0.573698
N48	N	-0.833729	-0.041263	-0.535923
N49	N	-0.833721	-0.041263	-0.463108
C50	C	-0.824917	-0.122889	-0.425882
C51	C	-0.872344	-0.060025	-0.695105
C52	C	-0.872344	-0.060020	-0.771751
C53	C	-0.777544	-0.185757	-0.771782
C54	C	-0.777541	-0.185755	-0.695137
C55	C	-0.824945	-0.122890	-0.656803
N56	N	-0.824951	-0.122887	0.189912
H57	H	-0.598091	-0.280978	0.000180
O58	O	-0.731439	-0.246863	-0.808905
C59	C	-0.637440	-0.371612	-0.800847
C60	C	-0.689608	-0.302446	-0.758710
H61	H	-0.603616	-0.416582	-0.760283
H62	H	-0.602469	-0.331958	-0.836732
H63	H	-0.667655	-0.417544	-0.836728
H64	H	-0.659451	-0.256496	-0.722789
H65	H	-0.724579	-0.342158	-0.722871
H66	H	-0.910899	-0.008824	-0.196579
H67	H	-0.627917	0.024001	0.000146
O68	O	-0.459054	-0.291581	0.000237
C69	C	-0.450428	-0.458461	0.000219
C70	C	-0.499498	-0.366755	0.000172
H71	H	-0.483107	-0.519263	0.000150
H72	H	-0.415967	-0.462052	0.051198
H73	H	-0.415874	-0.461953	-0.050716
H74	H	-0.534096	-0.363201	0.051073
H75	H	-0.533911	-0.363201	-0.050841
H76	H	-0.910908	-0.008823	-0.335623
H77	H	-0.738915	-0.236926	-0.335688
O78	O	-0.491332	0.039863	0.000313
C79	C	-0.418651	0.138992	0.063389
C80	C	-0.449672	0.045754	0.063335
H81	H	-0.384950	0.143777	0.114330
H82	H	-0.463033	0.198350	0.063424
H83	H	-0.384965	0.143847	0.012418
H84	H	-0.483350	0.040809	0.114298
H85	H	-0.405256	-0.013559	0.063263
H86	H	-0.183871	0.032642	0.000240
H87	H	-0.738893	-0.236922	-0.196638
O88	O	-0.918410	0.001134	-0.657975
C89	C	-1.012464	0.125812	-0.666032
C90	C	-0.960321	0.056614	-0.708169
H91	H	-1.046372	0.170672	-0.706595
H92	H	-0.982298	0.171848	-0.630189
H93	H	-1.047356	0.086092	-0.630108
H94	H	-0.925416	0.096258	-0.744133
H95	H	-0.990530	0.010579	-0.743965
H96	H	-0.910943	-0.008830	-0.802936
H97	H	-0.021931	-0.269760	0.000270
O98	O	-0.158369	-0.285730	0.000222
C99	C	-0.134379	-0.452310	0.000269
C100	C	-0.103401	-0.359042	0.000293
H101	H	-0.089952	-0.511607	0.000341
H102	H	-0.168013	-0.457235	-0.050705
H103	H	-0.168113	-0.457130	0.051209
H104	H	-0.069635	-0.354159	-0.050613
H105	H	-0.069807	-0.354157	0.051301
O106	O	-0.047208	0.048455	0.000300
C107	C	0.057701	0.125140	0.000279
C108	C	0.026648	0.031925	0.000251
H109	H	0.117417	0.111808	0.000223
H110	H	0.039351	0.166316	0.051245
H111	H	0.039314	0.166312	-0.050670
H112	H	0.045020	-0.009322	0.051165
H113	H	0.044994	-0.009181	-0.050749
O114	O	-0.731596	-0.246864	-0.657850
C115	C	-0.716886	-0.372904	-0.571348
C116	C	-0.768998	-0.303732	-0.613515
H117	H	-0.747106	-0.418913	-0.535505
H118	H	-0.681964	-0.333256	-0.535437
H119	H	-0.683002	-0.417797	-0.611931
H120	H	-0.802928	-0.258822	-0.572985
H121	H	-0.803872	-0.343437	-0.649437
