data_functionalizedCrystal
_audit_creation_method	'MofGen! by Chris Wilmer'
_symmetry_space_group_name_H-M	'P1'
_symmetry_Int_Tables_number	1
_symmetry_cell_setting	triclinic
loop_
_symmetry_equiv_pos_as_xyz
  x,y,z
_cell_length_a	15.297475
_cell_length_b	25.639239
_cell_length_c	25.639234
_cell_angle_alpha	90.021106
_cell_angle_beta	99.674402
_cell_angle_gamma	80.340538
loop_
_atom_site_label
_atom_site_type_symbol
_atom_site_fract_x
_atom_site_fract_y
_atom_site_fract_z
Zn1	Zn	1.378947	-0.346740	0.433676
Zn2	Zn	1.378822	-0.434150	0.346228
Zn3	Zn	1.228114	-0.331589	0.331153
Zn4	Zn	1.228013	-0.418983	0.418533
O5	O	1.303474	-0.382865	0.382397
O6	O	1.505169	-0.371023	0.434723
O7	O	1.358820	-0.420552	0.271062
O8	O	1.248218	-0.260443	0.344781
O9	O	1.505076	-0.435243	0.370475
O10	O	1.359034	-0.271575	0.420105
O11	O	1.248096	-0.345201	0.259986
O12	O	1.101863	-0.330494	0.330097
O13	O	1.248045	-0.409393	0.493708
O14	O	1.101789	-0.394701	0.394295
O15	O	1.358936	-0.356316	0.504834
O16	O	1.358722	-0.505294	0.355791
O17	O	1.247924	-0.494150	0.408913
C18	C	1.069094	-0.359308	0.358917
C19	C	0.968825	-0.349243	0.348885
C20	C	0.686129	-0.454808	0.454102
C21	C	0.780336	-0.464268	0.463527
C22	C	0.827463	-0.435513	0.434867
C23	C	0.780373	-0.397295	0.396781
C24	C	0.686156	-0.387836	0.387353
C25	C	0.827491	-0.368541	0.368118
C26	C	0.780400	-0.330323	0.330032
C27	C	0.686193	-0.320866	0.320605
C28	C	0.639066	-0.349622	0.349265
C29	C	0.921707	-0.378000	0.377546
C30	C	0.921735	-0.311028	0.310797
C31	C	0.827527	-0.301567	0.301372
C32	C	1.303323	-0.518693	0.382358
C33	C	1.303340	-0.576809	0.382367
C34	C	1.361317	-0.942990	0.354809
C35	C	1.361352	-0.997598	0.354819
O36	O	1.410489	-1.030766	0.331346
N37	N	1.303633	-1.019120	0.382448
C38	C	1.245881	-0.986033	0.410072
O39	O	1.196790	-1.009354	0.433574
C40	C	1.245851	-0.931426	0.410064
C41	C	1.303568	-0.909906	0.382430
C42	C	1.419030	-0.921469	0.327177
C43	C	1.418994	-0.866865	0.327165
C44	C	1.361245	-0.833782	0.354786
C45	C	1.303532	-0.855302	0.382418
C46	C	1.188105	-0.898340	0.437692
C47	C	1.188080	-0.843731	0.437682
C48	C	1.245797	-0.822211	0.410047
C49	C	1.245746	-0.767614	0.410028
N50	N	1.303466	-0.746092	0.382399
C51	C	1.361215	-0.779175	0.354779
C52	C	1.245949	-1.100710	0.410087
C53	C	1.245973	-1.155315	0.410092
C54	C	1.361446	-1.166876	0.354840
C55	C	1.361417	-1.112270	0.354832
C56	C	1.303668	-1.079187	0.382458
C57	C	1.361134	-0.664502	0.354757
C58	C	1.361089	-0.609892	0.354746
C59	C	1.245620	-0.598336	0.410001
C60	C	1.245661	-0.652941	0.410009
C61	C	1.303425	-0.686023	0.382386
O62	O	1.196637	-0.734414	0.433491
O63	O	1.410306	-0.755848	0.331287
C64	C	1.538770	-0.406515	0.405969
C65	C	1.639039	-0.416593	0.416014
C66	C	1.303493	-0.382853	0.518772
C67	C	1.303502	-0.382847	0.576887
C68	C	1.303651	-0.246510	0.382450
C69	C	1.303726	-0.188404	0.382473
C70	C	1.303507	-0.382846	0.246558
C71	C	1.303674	-0.382721	0.188461
C72	C	1.245821	-0.410424	0.822288
C73	C	1.245805	-0.410434	0.767682
O74	O	1.196677	-0.433925	0.734511
N75	N	1.303536	-0.382808	0.746165
C76	C	1.361280	-0.355166	0.779256
O77	O	1.410382	-0.331668	0.755939
C78	C	1.361290	-0.355153	0.833860
C79	C	1.303562	-0.382785	0.855375
C80	C	1.188097	-0.438054	0.843803
C81	C	1.188114	-0.438044	0.898405
C82	C	1.245856	-0.410405	0.931492
C83	C	1.303580	-0.382776	0.909977
C84	C	1.419029	-0.327508	0.866950
C85	C	1.419034	-0.327497	0.921557
C86	C	1.361306	-0.355129	0.943072
C87	C	1.361338	-0.355127	0.997667
N88	N	1.303608	-0.382753	1.019184
C89	C	1.245866	-0.410392	0.986097
C90	C	1.361252	-0.355194	0.664582
C91	C	1.361247	-0.355210	0.609979
C92	C	1.245771	-0.410478	0.598409
C93	C	1.245781	-0.410465	0.653014
C94	C	1.303521	-0.382820	0.686100
C95	C	1.245907	-0.410371	1.100766
C96	C	1.245932	-0.410360	1.155374
C97	C	1.361405	-0.355091	1.166939
C98	C	1.361383	-0.355103	1.112336
C99	C	1.303627	-0.382744	1.079250
O100	O	1.410439	-0.331647	1.030869
O101	O	1.196764	-0.433880	1.009420
H102	H	1.408172	-0.691432	0.332265
H103	H	1.198753	-0.432982	0.571459
H104	H	1.465994	-0.849348	0.304665
H105	H	1.198869	-0.432873	1.073833
O106	O	0.918976	-0.444749	0.444105
C107	C	1.054156	-0.495092	0.494236
C108	C	0.950515	-0.484676	0.483832
H109	H	1.079687	-0.527381	0.526347
H110	H	1.079825	-0.457212	0.507762
H111	H	1.079684	-0.508419	0.456268
H112	H	0.924910	-0.471364	0.521780
H113	H	0.924907	-0.522567	0.470283
H114	H	1.198773	-0.432965	0.670527
H115	H	1.408264	-0.332716	0.592468
O116	O	1.189765	-0.437211	1.176183
C117	C	1.075267	-0.492056	1.158938
C118	C	1.138813	-0.461662	1.135303
H119	H	1.034068	-0.511842	1.125899
H120	H	1.028074	-0.463328	1.179766
H121	H	1.116668	-0.523529	1.188657
H122	H	1.097485	-0.430188	1.105563
H123	H	1.186008	-0.490422	1.114508
O124	O	1.131944	-0.464889	0.919211
C125	C	1.017437	-0.519727	0.901954
C126	C	1.080996	-0.489338	0.878327
H127	H	0.976242	-0.539512	0.868912
H128	H	0.970241	-0.490998	0.922778
H129	H	1.058826	-0.551202	0.931675
H130	H	1.039679	-0.457863	0.848585
H131	H	1.128194	-0.518101	0.857536
O132	O	1.417439	-0.328337	0.696649
C133	C	1.531940	-0.273498	0.702347
C134	C	1.468372	-0.303902	0.665977
H135	H	1.573122	-0.253726	0.677563
H136	H	1.579147	-0.302215	0.732621
H137	H	1.490558	-0.242012	0.723784
H138	H	1.509681	-0.335388	0.644505
H139	H	1.421162	-0.275152	0.635736
H140	H	0.818671	-0.495387	0.494536
H141	H	0.647750	-0.478220	0.477430
O142	O	1.417441	-1.091421	0.327913
C143	C	1.461298	-1.079118	0.243387
C144	C	1.397804	-1.102763	0.273810
H145	H	1.445432	-1.088270	0.199637
H146	H	1.534046	-1.097130	0.259848
H147	H	1.451380	-1.034410	0.248152
H148	H	1.407642	-1.147470	0.269057
H149	H	1.325079	-1.084710	0.257341
H150	H	1.198916	-1.073775	0.432581
O151	O	1.475159	-0.953524	0.300295
C152	C	1.589713	-0.959212	0.245510
C153	C	1.526181	-0.922854	0.275928
H154	H	1.630994	-0.934432	0.225811
H155	H	1.548389	-0.980644	0.213977
H156	H	1.636837	-0.989488	0.274261
H157	H	1.479044	-0.892549	0.247218
H158	H	1.567560	-0.901461	0.307469
O159	O	1.475131	-0.300616	0.846142
C160	C	1.589687	-0.245811	0.863407
C161	C	1.526180	-0.276237	0.887038
H162	H	1.630990	-0.226102	0.896461
H163	H	1.548341	-0.214286	0.833723
H164	H	1.636791	-0.274555	0.842541
H165	H	1.479063	-0.247533	0.907930
H166	H	1.567582	-0.307769	0.916694
H167	H	1.408472	-1.193824	0.332351
O168	O	1.132012	-0.919152	0.464585
C169	C	1.017455	-0.901896	0.519371
C170	C	1.080951	-0.878260	0.488943
H171	H	0.976142	-0.868844	0.539063
H172	H	1.058810	-0.931561	0.550911
H173	H	0.970359	-0.922783	0.490628
H174	H	1.128060	-0.857346	0.517645
H175	H	1.039541	-0.848622	0.457395
H176	H	0.960039	-0.409117	0.408557
O177	O	1.131936	-0.811534	0.464442
C178	C	1.010048	-0.737741	0.459208
C179	C	1.073590	-0.774155	0.428841
H180	H	0.962847	-0.707518	0.430436
H181	H	1.051365	-0.716254	0.490694
H182	H	0.968851	-0.762522	0.478974
H183	H	1.114801	-0.749413	0.409043
H184	H	1.032222	-0.795644	0.397384
H185	H	1.408089	-0.592373	0.332241
H186	H	0.562354	-0.341920	0.341594
O187	O	0.640588	-0.283709	0.283604
C188	C	0.650560	-0.218303	0.218370
C189	C	0.702317	-0.260358	0.260267
H190	H	0.700446	-0.199420	0.199483
H191	H	0.606514	-0.186543	0.237993
H192	H	0.606393	-0.237842	0.186590
H193	H	0.746534	-0.240866	0.292059
H194	H	0.746306	-0.292114	0.240607
O195	O	0.781879	-0.264482	0.264311
C196	C	0.752982	-0.236093	0.172529
C197	C	0.804749	-0.278123	0.214448
H198	H	0.771439	-0.247112	0.132204
H199	H	0.771565	-0.195804	0.183603
H200	H	0.677558	-0.234265	0.170743
H201	H	0.880185	-0.279998	0.216256
H202	H	0.786091	-0.318391	0.203357
H203	H	0.960105	-0.287614	0.287459
H204	H	1.466050	-0.304982	0.948494
O205	O	1.132130	-0.464945	0.811622
C206	C	1.119892	-0.534355	0.748779
C207	C	1.183373	-0.503929	0.785186
H208	H	1.161297	-0.565887	0.727405
H209	H	1.072753	-0.505656	0.718460
H210	H	1.078624	-0.554071	0.773554
H211	H	1.224700	-0.484211	0.760455
H212	H	1.230452	-0.532652	0.815508
H213	H	1.198966	-1.172830	0.432589
O214	O	1.189564	-0.673764	0.436897
C215	C	1.074999	-0.656524	0.491678
C216	C	1.138487	-0.632878	0.461253
H217	H	1.033673	-0.623477	0.511369
H218	H	1.116360	-0.686185	0.523220
H219	H	1.027915	-0.677417	0.462935
H220	H	1.185584	-0.611957	0.489956
H221	H	1.097070	-0.603244	0.429704
O222	O	1.417493	-0.328219	1.091518
C223	C	1.532066	-0.273424	1.108767
C224	C	1.468560	-0.303844	1.132407
H225	H	1.573384	-0.253718	1.141816
H226	H	1.490718	-0.241897	1.079085
H227	H	1.579156	-0.302173	1.087896
H228	H	1.421457	-0.275136	1.153305
H229	H	1.509964	-0.335377	1.162062
H230	H	1.198599	-0.571390	0.432487
H231	H	1.408419	-0.332590	1.193889
