data_functionalizedCrystal
_audit_creation_method	'MofGen! by Chris Wilmer'
_symmetry_space_group_name_H-M	'P1'
_symmetry_Int_Tables_number	1
_symmetry_cell_setting	triclinic
loop_
_symmetry_equiv_pos_as_xyz
  x,y,z
_cell_length_a	10.654546
_cell_length_b	11.792241
_cell_length_c	9.130313
_cell_angle_alpha	89.998583
_cell_angle_beta	89.998822
_cell_angle_gamma	84.338449
loop_
_atom_site_label
_atom_site_type_symbol
_atom_site_fract_x
_atom_site_fract_y
_atom_site_fract_z
O1	O	1.667386	0.159396	-0.121832
O2	O	1.301864	0.174589	-0.121828
O3	O	1.493495	0.001842	-0.121820
O4	O	1.475755	0.332142	-0.121840
O5	O	1.493493	0.001847	0.121779
O6	O	1.301861	0.174593	0.121771
O7	O	1.667383	0.159401	0.121767
Cu8	Cu	1.484622	0.166997	0.144011
Cu9	Cu	1.484625	0.166992	-0.144073
O10	O	1.475752	0.332147	0.121759
C11	C	1.255068	0.173476	-0.000028
C12	C	1.115634	0.170141	-0.000026
C13	C	1.050145	0.168561	-0.132819
C14	C	0.919133	0.165418	-0.132830
C15	C	0.919111	0.165432	0.132755
C16	C	1.050119	0.168583	0.132765
C17	C	1.050157	0.168547	-0.286152
C18	C	0.919145	0.165405	-0.286164
C19	C	1.492379	-0.040449	-0.000021
C20	C	1.489044	-0.166470	-0.000022
C21	C	1.482911	-0.397197	-0.000047
C22	C	1.486318	-0.268804	-0.000034
C23	C	1.714179	0.160513	-0.000037
C24	C	1.853613	0.163848	-0.000048
C25	C	1.476868	0.374438	-0.000044
C26	C	1.480203	0.500460	-0.000052
N27	N	1.484629	0.167001	0.346634
N28	N	1.484628	0.166980	-0.346695
C29	C	1.569505	0.090535	0.423289
C30	C	1.569502	0.090521	0.576626
C31	C	1.399742	0.243449	0.576638
C32	C	1.399741	0.243456	0.423304
C33	C	1.667519	0.002246	0.423284
C34	C	1.667515	0.002232	0.576620
H35	H	1.102108	0.087714	-0.333714
H36	H	0.894557	0.085257	-0.345030
H37	H	1.646323	-0.084995	0.381669
O38	O	0.848171	0.164154	0.275823
H39	H	0.798928	0.085639	0.282407
H40	H	1.330628	0.305697	0.639080
H41	H	1.758624	0.029889	0.375722
O42	O	1.120748	0.170305	0.275995
H43	H	1.222851	0.172771	0.253699
H44	H	0.867205	0.246235	-0.333761
H45	H	1.074750	0.248689	-0.345029
H46	H	1.330617	0.305711	0.360893
H47	H	1.637235	-0.080210	0.624173
O48	O	1.795271	0.027998	0.631766
H49	H	1.857816	0.040635	0.537158
