data_functionalizedCrystal
_audit_creation_method	'MofGen! by Chris Wilmer'
_symmetry_space_group_name_H-M	'P1'
_symmetry_Int_Tables_number	1
_symmetry_cell_setting	triclinic
loop_
_symmetry_equiv_pos_as_xyz
  x,y,z
_cell_length_a	25.639242
_cell_length_b	25.639240
_cell_length_c	17.077396
_cell_angle_alpha	90.038257
_cell_angle_beta	90.028365
_cell_angle_gamma	90.028283
loop_
_atom_site_label
_atom_site_type_symbol
_atom_site_fract_x
_atom_site_fract_y
_atom_site_fract_z
Zn1	Zn	0.799279	-0.208213	0.443975
Zn2	Zn	0.799202	-0.295651	0.312687
Zn3	Zn	0.711845	-0.208224	0.312703
Zn4	Zn	0.711809	-0.295613	0.443890
O5	O	0.755534	-0.251925	0.378313
O6	O	0.872434	-0.219823	0.426588
O7	O	0.787597	-0.284074	0.202842
O8	O	0.723491	-0.135058	0.330159
O9	O	0.872377	-0.284063	0.330131
O10	O	0.787728	-0.135049	0.426604
O11	O	0.723416	-0.219842	0.202853
O12	O	0.638675	-0.219805	0.330076
O13	O	0.723429	-0.283998	0.553748
O14	O	0.638649	-0.284009	0.426459
O15	O	0.787693	-0.219786	0.553811
O16	O	0.787561	-0.368811	0.330049
O17	O	0.723354	-0.368783	0.426443
C18	C	0.619691	-0.251905	0.378260
C19	C	0.561577	-0.251908	0.378256
C20	C	0.755460	-0.387768	0.378252
C21	C	0.755476	-0.445882	0.378252
C22	C	0.201209	-0.285412	0.428452
C23	C	0.146605	-0.285415	0.428465
O24	O	0.118364	-0.313876	0.471098
N25	N	0.119295	-0.251940	0.378365
C26	C	0.146592	-0.218455	0.328255
O27	O	0.118348	-0.189981	0.285642
C28	C	0.201195	-0.218449	0.328247
C29	C	0.228502	-0.251931	0.378344
C30	C	0.228516	-0.318890	0.478547
C31	C	0.283117	-0.318888	0.478533
C32	C	0.310410	-0.285407	0.428425
C33	C	0.283103	-0.251928	0.378331
C34	C	0.228491	-0.184962	0.278141
C35	C	0.283098	-0.184960	0.278138
C36	C	0.310405	-0.218441	0.328236
C37	C	0.364997	-0.218445	0.328209
N38	N	0.392307	-0.251920	0.378309
C39	C	0.365013	-0.285401	0.428417
C40	C	0.031921	-0.218468	0.328276
C41	C	-0.022681	-0.218476	0.328279
C42	C	-0.022664	-0.285436	0.428491
C43	C	0.031939	-0.285430	0.428483
C44	C	0.059231	-0.251944	0.378376
C45	C	0.479678	-0.285393	0.428384
C46	C	0.534284	-0.285389	0.428364
C47	C	0.534262	-0.218428	0.328156
C48	C	0.479662	-0.218434	0.328173
C49	C	0.452371	-0.251918	0.378294
O50	O	0.393272	-0.189997	0.285600
O51	O	0.393263	-0.313865	0.471030
C52	C	0.788998	-0.806202	0.428623
C53	C	0.789014	-0.860806	0.428639
O54	O	0.817428	-0.889007	0.471403
N55	N	0.755606	-0.888164	0.378389
C56	C	0.722177	-0.860915	0.328126
O57	O	0.693763	-0.889199	0.285387
C58	C	0.722160	-0.806312	0.328115
C59	C	0.755573	-0.778957	0.378362
C60	C	0.822409	-0.778847	0.478867
C61	C	0.822394	-0.724246	0.478850
C62	C	0.788969	-0.697001	0.428589
C63	C	0.755558	-0.724356	0.378345
C64	C	0.688729	-0.779063	0.277856
C65	C	0.688713	-0.724456	0.277849
C66	C	0.722127	-0.697101	0.328097
C67	C	0.722118	-0.642510	0.328067
N68	N	0.755526	-0.615152	0.378316
C69	C	0.788951	-0.642398	0.428577
C70	C	0.722216	-0.975586	0.328155
C71	C	0.722236	-1.030188	0.328162
C72	C	0.789072	-1.030076	0.428676
C73	C	0.789055	-0.975472	0.428665
C74	C	0.755624	-0.948228	0.378405
C75	C	0.788918	-0.527733	0.428537
C76	C	0.788901	-0.473127	0.428513
C77	C	0.722064	-0.473244	0.328002
C78	C	0.722082	-0.527845	0.328023
C79	C	0.755510	-0.555088	0.378297
O80	O	0.693717	-0.614275	0.285326
O81	O	0.817356	-0.614107	0.471317
C82	C	0.891907	-0.251946	0.378367
C83	C	0.950021	-0.251955	0.378390
C84	C	0.755565	-0.251887	0.583058
C85	C	0.755579	-0.251870	0.670308
C86	C	0.755622	-0.115552	0.378392
C87	C	0.755660	-0.057438	0.378426
C88	C	0.755532	-0.251926	0.174366
C89	C	0.755620	-0.251795	0.087116
C90	C	0.789042	-0.218432	0.711332
C91	C	0.789048	-0.218415	0.793312
C92	C	0.755594	-0.251838	0.834267
C93	C	0.722127	-0.285278	0.793237
C94	C	0.722118	-0.285292	0.711258
C95	C	0.722148	-0.285246	0.964108
C96	C	0.722157	-0.285233	1.046092
C97	C	0.789078	-0.218369	1.046161
C98	C	0.789069	-0.218383	0.964182
C99	C	0.755603	-0.251824	0.923158
H100	H	0.556515	-0.312656	0.469160
H101	H	0.816135	-0.549907	0.469480
C102	C	0.061974	-0.322257	0.483595
C103	C	0.054438	-0.381689	0.477019
C104	C	0.084470	-0.418516	0.532135
C105	C	0.122039	-0.395911	0.593829
C106	C	0.129577	-0.336475	0.600409
C107	C	0.099545	-0.299648	0.545292
H108	H	0.026625	-0.398426	0.431347
H109	H	0.078889	-0.462514	0.527264
H110	H	0.144271	-0.423172	0.634630
H111	H	0.157390	-0.319739	0.646080
H112	H	0.105126	-0.255650	0.550163
C113	C	0.825860	-0.181631	0.838435
C114	C	0.885293	-0.185912	0.827191
C115	C	0.922105	-0.149125	0.872312
C116	C	0.899483	-0.108057	0.928676
C117	C	0.840047	-0.103775	0.939922
C118	C	0.803235	-0.140562	0.894801
H119	H	0.902041	-0.216314	0.785465
H120	H	0.966104	-0.152295	0.863987
H121	H	0.926734	-0.080825	0.962077
H122	H	0.823298	-0.073372	0.981648
H123	H	0.759236	-0.137392	0.903127
C124	C	0.449664	-0.322229	0.483512
C125	C	0.457150	-0.381659	0.476922
C126	C	0.427135	-0.418497	0.532044
C127	C	0.389635	-0.395905	0.593756
C128	C	0.382147	-0.336472	0.600349
C129	C	0.412162	-0.299634	0.545227
H130	H	0.484911	-0.398386	0.431236
H131	H	0.432678	-0.462494	0.527163
H132	H	0.367416	-0.423175	0.634561
H133	H	0.354386	-0.319745	0.646035
H134	H	0.406619	-0.255637	0.550108
H135	H	0.694885	-0.312490	0.826590
C136	C	0.061941	-0.181637	0.273144
C137	C	0.099443	-0.204237	0.211441
C138	C	0.129460	-0.167407	0.156311
C139	C	0.121974	-0.107976	0.162883
C140	C	0.084470	-0.085372	0.224589
C141	C	0.054453	-0.122203	0.279719
H142	H	0.104986	-0.248235	0.206574
H143	H	0.157223	-0.184140	0.110632
H144	H	0.144195	-0.080711	0.122072
H145	H	0.078927	-0.041375	0.229456
H146	H	0.026690	-0.105470	0.325397
H147	H	0.556494	-0.191170	0.287357
C148	C	0.825844	-0.181665	0.666285
C149	C	0.866874	-0.204336	0.609936
C150	C	0.903676	-0.167566	0.564893
C151	C	0.899447	-0.108126	0.576199
C152	C	0.858415	-0.085452	0.632550
C153	C	0.821614	-0.122222	0.677594
H154	H	0.870006	-0.248339	0.601565
H155	H	0.934050	-0.184351	0.523178
H156	H	0.926690	-0.080907	0.542855
H157	H	0.855284	-0.041449	0.640921
H158	H	0.791239	-0.105437	0.719309
H159	H	0.305346	-0.346151	0.519329
H160	H	0.694995	-0.953406	0.287221
C161	C	0.825891	-0.181583	1.091284
C162	C	0.825901	-0.181562	1.181457
C163	C	0.862715	-0.144779	1.226584
C164	C	0.899519	-0.108018	1.181536
C165	C	0.899510	-0.108038	1.091357
C166	C	0.862696	-0.144820	1.046231
H167	H	0.798656	-0.208776	1.214809
H168	H	0.862721	-0.144765	1.293340
H169	H	0.926770	-0.080790	1.214941
H170	H	0.926755	-0.080824	1.058006
H171	H	0.862689	-0.144835	0.979475
C172	C	0.685484	-1.060274	0.272883
C173	C	0.689782	-1.052809	0.183652
C174	C	0.653026	-1.082893	0.128375
C175	C	0.611971	-1.120442	0.162330
C176	C	0.607672	-1.127908	0.251566
C177	C	0.644428	-1.097825	0.306842
H178	H	0.720175	-1.025012	0.158512
H179	H	0.656209	-1.077365	0.062317
H180	H	0.584762	-1.142711	0.121411
H181	H	0.577279	-1.155706	0.276705
H182	H	0.641245	-1.103352	0.372901
C183	C	-0.052694	-0.322264	0.483616
C184	C	-0.112755	-0.322263	0.483623
C185	C	-0.142786	-0.359089	0.538744
C186	C	-0.112755	-0.395916	0.593856
C187	C	-0.052690	-0.395918	0.593850
C188	C	-0.022660	-0.359092	0.538730
H189	H	-0.134989	-0.295000	0.442824
H190	H	-0.187250	-0.359087	0.538748
H191	H	-0.134986	-0.423176	0.634660
H192	H	-0.030457	-0.423181	0.634650
H193	H	0.021804	-0.359094	0.538726
C194	C	0.313120	-0.148123	0.223019
C195	C	0.305638	-0.088693	0.229605
C196	C	0.335659	-0.051858	0.174486
C197	C	0.373162	-0.074454	0.112780
C198	C	0.380646	-0.133888	0.106191
C199	C	0.350625	-0.170723	0.161310
H200	H	0.277874	-0.071963	0.275285
H201	H	0.330118	-0.007861	0.179364
H202	H	0.395385	-0.047186	0.071978
H203	H	0.408409	-0.150617	0.060511
H204	H	0.356165	-0.214720	0.156432
C205	C	0.685375	-0.322017	1.091145
C206	C	0.648574	-0.358811	1.046024
C207	C	0.611802	-0.395605	1.091077
C208	C	0.611832	-0.395605	1.181251
C209	C	0.648634	-0.358810	1.226377
C210	C	0.685406	-0.322016	1.181324
H211	H	0.648552	-0.358812	0.979268
H212	H	0.584559	-0.422843	1.057672
H213	H	0.584611	-0.422842	1.214602
H214	H	0.648656	-0.358809	1.293133
H215	H	0.712649	-0.294777	1.214729
C216	C	0.685340	-0.322032	0.918973
C217	C	0.625905	-0.317762	0.930207
C218	C	0.589102	-0.354548	0.885069
C219	C	0.611733	-0.395605	0.828697
C220	C	0.671171	-0.399877	0.817460
C221	C	0.707974	-0.363090	0.862598
H222	H	0.609148	-0.287368	0.971940
H223	H	0.545102	-0.351386	0.893388
H224	H	0.584490	-0.422837	0.795283
H225	H	0.687928	-0.430271	0.775727
H226	H	0.751975	-0.366253	0.854279
H227	H	0.457427	-0.191171	0.287378
H228	H	0.694864	-0.312516	0.677858
C229	C	0.859183	-0.808812	0.534155
C230	C	0.836529	-0.846335	0.595765
C231	C	0.873310	-0.876296	0.651051
C232	C	0.932746	-0.868733	0.644726
C233	C	0.955403	-0.831208	0.583113
C234	C	0.918622	-0.801247	0.527827
H235	H	0.792528	-0.851936	0.600450
H236	H	0.856537	-0.904075	0.696661
H237	H	0.959974	-0.890912	0.685651
H238	H	0.999404	-0.825608	0.578428
H239	H	0.935395	-0.773468	0.482217
C240	C	0.859143	-0.694163	0.534137
C241	C	0.918585	-0.701633	0.527844
C242	C	0.955333	-0.671554	0.583140
C243	C	0.932639	-0.634006	0.644728
C244	C	0.873194	-0.626535	0.651024
C245	C	0.836445	-0.656613	0.595728
H246	H	0.935387	-0.729429	0.482250
H247	H	0.999338	-0.677085	0.578479
H248	H	0.959842	-0.611740	0.685661
H249	H	0.856391	-0.598738	0.696617
H250	H	0.792440	-0.651082	0.600388
C251	C	0.651965	-0.809142	0.222590
C252	C	0.656250	-0.801674	0.133358
C253	C	0.619481	-0.831750	0.078091
C254	C	0.578427	-0.869294	0.112056
C255	C	0.574140	-0.876764	0.201293
C256	C	0.610909	-0.846688	0.256560
H257	H	0.686643	-0.773879	0.108210
H258	H	0.622655	-0.826220	0.012032
H259	H	0.551208	-0.891558	0.071144
H260	H	0.543747	-0.904558	0.226440
H261	H	0.607735	-0.852218	0.322619
H262	H	0.694878	-0.550119	0.287101
C263	C	0.651940	-0.694488	0.222559
C264	C	0.656241	-0.702045	0.133331
C265	C	0.619469	-0.672077	0.078040
C266	C	0.578396	-0.634552	0.111977
C267	C	0.574093	-0.626993	0.201209
C268	C	0.610865	-0.656961	0.256500
H269	H	0.686648	-0.729824	0.108205
H270	H	0.622655	-0.677673	0.011985
H271	H	0.551175	-0.612368	0.071048
H272	H	0.543686	-0.599214	0.226336
H273	H	0.607679	-0.651365	0.322556
H274	H	0.206300	-0.346155	0.519355
H275	H	-0.044910	-0.191217	0.287477
H276	H	0.816112	-0.450856	0.469430
H277	H	0.206267	-0.157700	0.237344
H278	H	0.816262	-0.953203	0.469581
H279	H	0.816288	-1.052269	0.469603
H280	H	0.694851	-0.451053	0.287078
H281	H	0.816314	-0.191170	0.930839
