data_functionalizedCrystal
_audit_creation_method	'MofGen! by Chris Wilmer'
_symmetry_space_group_name_H-M	'P1'
_symmetry_Int_Tables_number	1
_symmetry_cell_setting	triclinic
loop_
_symmetry_equiv_pos_as_xyz
  x,y,z
_cell_length_a	27.731993
_cell_length_b	27.732048
_cell_length_c	16.053802
_cell_angle_alpha	92.539157
_cell_angle_beta	87.452272
_cell_angle_gamma	82.631525
loop_
_atom_site_label
_atom_site_type_symbol
_atom_site_fract_x
_atom_site_fract_y
_atom_site_fract_z
O1	O	0.642993	0.055347	-0.069212
O2	O	1.142993	0.555347	0.430788
O3	O	0.502197	0.064118	-0.069265
O4	O	1.002197	0.564118	0.430735
O5	O	0.576967	-0.010664	-0.069221
O6	O	1.076967	0.489336	0.430779
O7	O	0.568222	0.130130	-0.069256
O8	O	1.068222	0.630130	0.430744
O9	O	0.572852	-0.006565	0.069635
O10	O	1.072852	0.493435	0.569635
O11	O	0.498081	0.068218	0.069592
O12	O	0.998081	0.568218	0.569592
O13	O	0.638877	0.059446	0.069644
O14	O	1.138877	0.559446	0.569644
Zn15	Zn	0.567826	0.064483	0.091664
Zn16	Zn	1.067826	0.564483	0.591664
Zn17	Zn	0.573248	0.059082	-0.091285
Zn18	Zn	1.073248	0.559082	0.408715
O19	O	0.564107	0.134229	0.069600
O20	O	1.064107	0.634229	0.569600
C21	C	0.482132	0.065988	0.000157
C22	C	0.982132	0.565988	0.500157
C23	C	0.428476	0.065445	0.000138
C24	C	0.928476	0.565445	0.500138
C25	C	0.574726	-0.026621	0.000209
C26	C	1.074726	0.473379	0.500209
C27	C	0.574173	-0.080276	0.000216
C28	C	1.074173	0.419724	0.500216
C29	C	0.047558	0.059281	-0.075511
C30	C	0.547558	0.559281	0.424489
C31	C	0.249216	0.061347	-0.075534
C32	C	0.749216	0.561347	0.424466
O33	O	0.277197	0.059695	-0.139908
O34	O	0.777197	0.559695	0.360092
N35	N	0.272193	0.063841	0.000154
N36	N	0.772193	0.563841	0.500154
C37	C	0.244753	0.065814	0.075855
C38	C	0.744753	0.565814	0.575855
O39	O	0.268924	0.067977	0.140232
O40	O	0.768924	0.567977	0.640232
C41	C	0.043096	0.063744	0.075877
C42	C	0.543096	0.563744	0.575877
C43	C	0.020121	0.061256	0.000183
C44	C	0.520121	0.561256	0.500183
C45	C	0.024583	0.056792	-0.151199
C46	C	0.524583	0.556792	0.348801
C47	C	-0.025829	0.056278	-0.151192
C48	C	0.474171	0.556278	0.348808
C49	C	-0.053266	0.058253	-0.075498
C50	C	0.446734	0.558253	0.424502
C51	C	-0.030291	0.060742	0.000189
C52	C	0.469709	0.560742	0.500189
C53	C	0.015657	0.065714	0.151576
C54	C	0.515657	0.565714	0.651576
C55	C	-0.034760	0.065195	0.151575
C56	C	0.465240	0.565195	0.651575
C57	C	-0.057735	0.062707	0.075881
C58	C	0.442265	0.562707	0.575881
C59	C	-0.108139	0.062203	0.075890
C60	C	0.391861	0.562203	0.575890
N61	N	-0.131116	0.059710	0.000201
N62	N	0.368884	0.559710	0.500201
C63	C	-0.103679	0.057735	-0.075493
C64	C	0.396321	0.557735	0.424507
C65	C	0.350626	0.066902	0.075837
C66	C	0.850626	0.566902	0.575837
C67	C	0.401039	0.067420	0.075832
C68	C	0.901039	0.567420	0.575832
C69	C	0.405499	0.062952	-0.075557
C70	C	0.905499	0.562952	0.424443
C71	C	0.355084	0.062437	-0.075551
C72	C	0.855084	0.562437	0.424449
C73	C	0.327649	0.064408	0.000149
C74	C	0.827649	0.564408	0.500149
C75	C	-0.209548	0.056656	-0.075473
C76	C	0.290452	0.556656	0.424527
C77	C	-0.259965	0.056145	-0.075460
C78	C	0.240035	0.556145	0.424540
C79	C	-0.264420	0.060610	0.075929
C80	C	0.235580	0.560610	0.575929
C81	C	-0.214008	0.061124	0.075916
C82	C	0.285992	0.561124	0.575916
C83	C	-0.186573	0.059145	0.000208
C84	C	0.313427	0.559145	0.500208
O85	O	-0.136150	0.063849	0.140230
O86	O	0.363850	0.563849	0.640230
O87	O	-0.127858	0.055561	-0.139861
O88	O	0.372142	0.555561	0.360139
C89	C	0.097970	0.059795	-0.075518
C90	C	0.597970	0.559795	0.424482
C91	C	0.120945	0.062284	0.000170
C92	C	0.620945	0.562284	0.500170
C93	C	0.093508	0.064259	0.075864
C94	C	0.593508	0.564259	0.575864
C95	C	0.171359	0.062802	0.000164
C96	C	0.671359	0.562802	0.500164
C97	C	0.198796	0.060827	-0.075530
C98	C	0.698796	0.560827	0.424470
C99	C	0.175819	0.058334	-0.151219
C100	C	0.675819	0.558334	0.348781
C101	C	0.125407	0.057820	-0.151212
C102	C	0.625407	0.557820	0.348788
C103	C	0.116485	0.066752	0.151553
C104	C	0.616485	0.566752	0.651553
C105	C	0.166897	0.067266	0.151540
C106	C	0.666897	0.567266	0.651540
C107	C	0.194334	0.065291	0.075846
C108	C	0.694334	0.565291	0.575846
C109	C	0.614878	-0.419100	0.000188
C110	C	1.114878	0.080900	0.500188
C111	C	0.612828	-0.620759	0.000176
C112	C	1.112828	-0.120759	0.500176
O113	O	0.650050	-0.652023	0.000153
O114	O	1.150050	-0.152023	0.500153
N115	N	0.568492	-0.639875	0.000160
N116	N	1.068492	-0.139875	0.500160
C117	C	0.524666	-0.608572	0.000142
C118	C	1.024666	-0.108572	0.500142
O119	O	0.486908	-0.629459	0.000120
O120	O	0.986908	-0.129459	0.500120
C121	C	0.526717	-0.406914	0.000149
C122	C	1.026717	0.093086	0.500149
C123	C	0.571056	-0.387801	0.000173
C124	C	1.071056	0.112199	0.500173
C125	C	0.659213	-0.399987	0.000212
C126	C	1.159213	0.100013	0.500212
C127	C	0.659725	-0.349575	0.000219
C128	C	1.159725	0.150425	0.500219
C129	C	0.615903	-0.318276	0.000204
C130	C	1.115903	0.181724	0.500204
C131	C	0.571568	-0.337389	0.000180
C132	C	1.071568	0.162611	0.500180
C133	C	0.482891	-0.375612	0.000125
C134	C	0.982891	0.124388	0.500125
C135	C	0.483408	-0.325195	0.000124
C136	C	0.983408	0.174805	0.500124
C137	C	0.527747	-0.306082	0.000148
C138	C	1.027747	0.193918	0.500148
C139	C	0.528257	-0.255678	0.000173
C140	C	1.028257	0.244322	0.500173
N141	N	0.572593	-0.236563	0.000188
N142	N	1.072593	0.263437	0.500188
C143	C	0.616416	-0.267861	0.000204
C144	C	1.116416	0.232139	0.500204
C145	C	0.523592	-0.714446	0.000140
C146	C	1.023592	-0.214446	0.500140
C147	C	0.523079	-0.764861	0.000140
C148	C	1.023079	-0.264861	0.500140
C149	C	0.611241	-0.777044	0.000173
C150	C	1.111241	-0.277044	0.500173
C151	C	0.611753	-0.726629	0.000179
C152	C	1.111753	-0.226629	0.500179
C153	C	0.567928	-0.695331	0.000156
C154	C	1.067928	-0.195331	0.500156
C155	C	0.617488	-0.161992	0.000221
C156	C	1.117488	0.338008	0.500221
C157	C	0.617996	-0.111575	0.000232
C158	C	1.117996	0.388425	0.500232
C159	C	0.529834	-0.099396	0.000195
C160	C	1.029834	0.400604	0.500195
C161	C	0.529325	-0.149808	0.000188
C162	C	1.029325	0.350192	0.500188
C163	C	0.573156	-0.181106	0.000198
C164	C	1.073156	0.318894	0.500198
O165	O	0.491055	-0.224386	0.000186
O166	O	0.991055	0.275614	0.500186
O167	O	0.654168	-0.246966	0.000207
O168	O	1.154168	0.253034	0.500207
C169	C	0.614366	-0.469512	0.000181
C170	C	1.114366	0.030488	0.500181
C171	C	0.570031	-0.488625	0.000157
C172	C	1.070031	0.011375	0.500157
C173	C	0.526208	-0.457326	0.000142
C174	C	1.026208	0.042674	0.500142
C175	C	0.569518	-0.539040	0.000157
C176	C	1.069518	-0.039040	0.500157
C177	C	0.613341	-0.570338	0.000173
C178	C	1.113341	-0.070338	0.500173
C179	C	0.657677	-0.551223	0.000189
C180	C	1.157677	-0.051223	0.500189
C181	C	0.658189	-0.500811	0.000196
C182	C	1.158189	-0.000811	0.500196
C183	C	0.481873	-0.476442	0.000126
C184	C	0.981873	0.023558	0.500126
C185	C	0.481364	-0.526855	0.000120
C186	C	0.981364	-0.026855	0.500120
C187	C	0.525187	-0.558153	0.000135
C188	C	1.025187	-0.058153	0.500135
C189	C	0.658942	0.057577	0.000220
C190	C	1.158942	0.557577	0.500220
C191	C	0.712598	0.058120	0.000234
C192	C	1.212598	0.558120	0.500234
C193	C	0.566348	0.150186	0.000168
C194	C	1.066348	0.650186	0.500168
C195	C	0.566902	0.203841	0.000156
C196	C	1.066902	0.703841	0.500156
N197	N	0.564129	0.068169	0.216523
N198	N	1.064129	0.568169	0.716523
N199	N	0.576949	0.055392	-0.216143
N200	N	1.076949	0.555392	0.283857
C201	C	0.595955	0.036360	0.260235
C202	C	1.095955	0.536360	0.760235
C203	C	0.593374	0.038943	0.347640
C204	C	1.093374	0.538943	0.847640
C205	C	0.558968	0.073337	0.391331
C206	C	1.058968	0.573337	0.891331
C207	C	0.527138	0.105148	0.347613
C208	C	1.027138	0.605148	0.847613
C209	C	0.529718	0.102562	0.260209
C210	C	1.029718	0.602562	0.760209
C211	C	0.547699	0.084617	0.652735
C212	C	1.047699	0.584617	1.152735
C213	C	0.545123	0.087201	0.740144
C214	C	1.045123	0.587201	1.240144
C215	C	0.611358	0.020995	0.740166
C216	C	1.111358	0.520995	1.240166
C217	C	0.613937	0.018415	0.652760
C218	C	1.113937	0.518415	1.152760
C219	C	0.582105	0.050224	0.609049
C220	C	1.082105	0.550224	1.109049
N221	N	0.556329	0.075979	0.480674
N222	N	1.056329	0.575979	0.980674
N223	N	0.584742	0.047579	0.519709
N224	N	1.084742	0.547579	1.019709
H225	H	-0.278669	0.054120	-0.137102
H226	H	0.221331	0.554120	0.362898
H227	H	0.694901	-0.425466	0.000221
H228	H	1.194901	0.074534	0.500221
F229	F	0.664138	-0.195294	0.000231
F230	F	1.164138	0.304706	0.500231
F231	F	0.425484	0.070078	0.156396
F232	F	0.925484	0.570078	0.656396
F233	F	0.436761	-0.291888	0.000098
F234	F	0.936761	0.208112	0.500098
F235	F	0.435700	-0.395942	0.000095
F236	F	0.935700	0.104058	0.500095
F237	F	0.632577	-0.000246	0.213744
F238	F	1.132577	0.499754	0.713744
F239	F	-0.180357	0.054551	-0.156050
F240	F	0.319643	0.554551	0.343950
F241	F	0.658944	-0.706292	0.000204
F242	F	1.158944	-0.206292	0.500204
H243	H	0.695831	-0.334018	0.000235
H244	H	1.195831	0.165982	0.500235
H245	H	0.641953	-0.009592	0.617189
H246	H	1.141953	0.490408	1.117189
H247	H	0.517104	0.115211	0.775714
H248	H	1.017104	0.615211	1.275714
H249	H	0.493220	-0.165370	0.000192
H250	H	0.993220	0.334630	0.500192
F251	F	0.495842	0.136417	0.213688
F252	F	0.995842	0.636417	0.713688
F253	F	0.645232	-0.012857	0.786691
F254	F	1.145232	0.487143	1.286691
H255	H	-0.057096	0.066805	0.213220
H256	H	0.442904	0.566805	0.713220
F257	F	0.627246	0.005087	0.394163
F258	F	1.127246	0.505087	0.894163
F259	F	0.513824	0.118471	0.606221
F260	F	1.013824	0.618471	1.106221
F261	F	0.040098	0.068363	0.232141
F262	F	0.540098	0.568363	0.732141
H263	H	0.185598	0.069296	0.213184
H264	H	0.685598	0.569296	0.713184
F265	F	-0.050274	0.053627	-0.231757
F266	F	0.449726	0.553627	0.268243
F267	F	0.330637	0.059788	-0.156114
F268	F	0.830637	0.559788	0.343886
F269	F	0.053776	0.054689	-0.231771
F270	F	0.553776	0.554689	0.268229
F271	F	0.434708	0.060852	-0.156117
F272	F	0.934708	0.560852	0.343883
H273	H	0.499121	0.133151	0.383191
H274	H	0.999121	0.633151	0.883191
F275	F	0.476943	-0.681142	0.000116
F276	F	0.976943	-0.181142	0.500116
H277	H	0.328292	0.068505	0.137485
H278	H	0.828292	0.568505	0.637485
H279	H	0.693359	-0.576715	0.000205
H280	H	1.193359	-0.076715	0.500205
F281	F	-0.189557	0.063779	0.156477
F282	F	0.310443	0.563779	0.656477
H283	H	-0.286769	0.062220	0.137557
H284	H	0.213231	0.562220	0.637557
F285	F	0.705381	-0.480476	0.000217
F286	F	1.205381	0.019524	0.500217
H287	H	0.198166	0.056729	-0.212852
H288	H	0.698166	0.556729	0.287148
F289	F	0.100962	0.055171	-0.231777
F290	F	0.600962	0.555171	0.268223
H291	H	0.094151	0.068357	0.213194
H292	H	0.594151	0.568357	0.713194
F293	F	0.665189	-0.091237	0.000257
F294	F	1.165189	0.408763	0.500257
F295	F	0.475887	-0.785196	0.000130
F296	F	0.975887	-0.285196	0.500130
F297	F	0.483197	-0.066077	0.000179
F298	F	0.983197	0.433923	0.500179
F299	F	0.657881	-0.810363	0.000187
F300	F	1.157881	-0.310363	0.500187
H301	H	0.446186	-0.450963	0.000112
H302	H	0.946186	0.049037	0.500112
F303	F	0.434169	-0.547189	0.000099
F304	F	0.934169	-0.047189	0.500099
