data_functionalizedCrystal
_audit_creation_method	'MofGen! by Chris Wilmer'
_symmetry_space_group_name_H-M	'P1'
_symmetry_Int_Tables_number	1
_symmetry_cell_setting	triclinic
loop_
_symmetry_equiv_pos_as_xyz
  x,y,z
_cell_length_a	14.971486
_cell_length_b	14.519709
_cell_length_c	14.048226
_cell_angle_alpha	89.992623
_cell_angle_beta	89.998499
_cell_angle_gamma	83.647137
loop_
_atom_site_label
_atom_site_type_symbol
_atom_site_fract_x
_atom_site_fract_y
_atom_site_fract_z
O1	O	1.187015	0.120184	-0.079053
O2	O	0.926623	0.134576	-0.079079
O3	O	1.063722	-0.006863	-0.079057
O4	O	1.049915	0.261622	-0.079076
O5	O	1.063706	-0.006871	0.079264
O6	O	0.926606	0.134568	0.079242
O7	O	1.186998	0.120175	0.079268
Zn8	Zn	1.056799	0.127370	0.104392
Zn9	Zn	1.056821	0.127381	-0.104203
O10	O	1.049898	0.261614	0.079246
C11	C	0.893289	0.133928	0.000078
C12	C	0.793991	0.131999	0.000068
C13	C	1.063071	-0.041226	0.000104
C14	C	1.061142	-0.143606	0.000104
C15	C	0.736812	0.215091	0.000064
C16	C	0.643512	0.213273	0.000078
C17	C	0.607392	0.128363	0.000090
C18	C	0.664578	0.045265	0.000097
C19	C	0.757876	0.047084	0.000090
C20	C	0.470113	0.041480	0.000111
C21	C	0.376808	0.039661	0.000116
C22	C	0.355749	0.207669	0.000099
C23	C	0.449047	0.209488	0.000092
C24	C	0.506227	0.126390	0.000097
C25	C	1.054043	-0.518498	0.000079
C26	C	1.056015	-0.414191	0.000086
C27	C	1.057593	-0.331055	0.000092
C28	C	1.059564	-0.226742	0.000098
C29	C	1.220331	0.120823	0.000109
C30	C	1.319630	0.122752	0.000112
C31	C	1.050550	0.295978	0.000083
C32	C	1.052478	0.398358	0.000076
N33	N	1.056791	0.127362	0.246753
N34	N	1.056837	0.127382	-0.246564
C35	C	1.117518	0.064759	0.296581
C36	C	1.117524	0.064758	0.396238
C37	C	1.056807	0.127366	0.446066
C38	C	0.996073	0.189972	0.396231
C39	C	0.996064	0.189968	0.296575
C40	C	0.996099	0.189979	0.603945
C41	C	0.996110	0.189985	0.703608
C42	C	1.117560	0.064770	0.703608
C43	C	1.117550	0.064765	0.603952
C44	C	1.056817	0.127373	0.554124
H45	H	0.596960	0.280934	0.000074
H46	H	1.167010	0.013793	0.744184
O47	O	0.771937	0.297552	-0.000119
C48	C	0.865081	0.397094	-0.082131
C49	C	0.825350	0.303682	-0.082056
H50	H	0.908289	0.402073	-0.148360
H51	H	0.808217	0.456205	-0.082192
H52	H	0.908200	0.402132	-0.015849
H53	H	0.782241	0.298554	-0.148327
H54	H	0.882256	0.244616	-0.081946
H55	H	0.309188	0.275331	0.000099
O56	O	0.813295	-0.033717	0.000047
C57	C	0.824343	-0.200550	0.000117
C58	C	0.761480	-0.109110	0.000139
H59	H	0.782476	-0.261529	0.000212
H60	H	0.868530	-0.203959	-0.066159
H61	H	0.868570	-0.203850	0.066356
H62	H	0.717196	-0.105749	-0.066055
H63	H	0.717354	-0.105739	0.066459
O64	O	1.176314	0.003724	0.555553
C65	C	1.194804	-0.122546	0.443451
C66	C	1.128219	-0.053330	0.498115
H67	H	1.155945	-0.168706	0.397014
H68	H	1.239677	-0.082984	0.396606
H69	H	1.238092	-0.167236	0.496326
H70	H	1.084872	-0.008623	0.445309
H71	H	1.083407	-0.092949	0.544974
O72	O	0.937072	0.250886	0.555689
C73	C	0.816585	0.375056	0.566200
C74	C	0.883391	0.306141	0.620969
H75	H	0.773153	0.419734	0.618955
H76	H	0.855225	0.421253	0.519557
H77	H	0.771877	0.335146	0.519529
H78	H	0.928116	0.345975	0.667691
H79	H	0.844695	0.259944	0.667551
O80	O	0.525623	-0.039265	-0.000057
C81	C	0.572134	-0.182317	-0.082055
C82	C	0.509232	-0.090904	-0.081986
H83	H	0.558891	-0.224102	-0.148277
H84	H	0.645038	-0.166485	-0.082124
H85	H	0.558997	-0.224069	-0.015765
H86	H	0.522288	-0.049107	-0.148264
H87	H	0.436349	-0.106801	-0.081867
H88	H	0.946613	0.240944	0.256006
H89	H	0.946666	0.240966	0.744173
H90	H	0.946632	0.240946	0.436807
H91	H	0.347403	-0.029481	0.000127
O92	O	0.484249	0.291907	0.000191
C93	C	0.577350	0.391478	0.082192
C94	C	0.537557	0.298100	0.082193
H95	H	0.620443	0.396524	0.148493
H96	H	0.620556	0.396524	0.015970
H97	H	0.520451	0.450550	0.082139
H98	H	0.594399	0.238975	0.082280
H99	H	0.494328	0.293135	0.148409
H100	H	1.166972	0.013782	0.436808
O101	O	1.176411	0.003795	0.248246
C102	C	1.228581	-0.156496	0.217895
C103	C	1.161821	-0.087541	0.272657
H104	H	1.216821	-0.230356	0.237626
H105	H	1.218166	-0.145856	0.138091
H106	H	1.300230	-0.144316	0.237476
H107	H	1.090146	-0.099680	0.253156
H108	H	1.172315	-0.098198	0.352448
H109	H	0.635162	-0.023871	0.000121
