data_functionalizedCrystal
_audit_creation_method	'MofGen! by Chris Wilmer'
_symmetry_space_group_name_H-M	'P1'
_symmetry_Int_Tables_number	1
_symmetry_cell_setting	triclinic
loop_
_symmetry_equiv_pos_as_xyz
  x,y,z
_cell_length_a	18.101398
_cell_length_b	18.101395
_cell_length_c	18.101389
_cell_angle_alpha	89.983159
_cell_angle_beta	89.975673
_cell_angle_gamma	90.026371
loop_
_atom_site_label
_atom_site_type_symbol
_atom_site_fract_x
_atom_site_fract_y
_atom_site_fract_z
Zn1	Zn	1.132121	-0.295001	-0.418847
Zn2	Zn	1.465454	0.038333	-0.085514
Zn3	Zn	1.798788	0.371666	0.247820
Zn4	Zn	1.132017	-0.418826	-0.295009
Zn5	Zn	1.465350	-0.085493	0.038325
Zn6	Zn	1.798684	0.247840	0.371658
Zn7	Zn	1.008280	-0.294993	-0.295008
Zn8	Zn	1.341613	0.038340	0.038325
Zn9	Zn	1.674947	0.371674	0.371659
Zn10	Zn	1.008231	-0.418795	-0.418797
Zn11	Zn	1.341564	-0.085461	-0.085464
Zn12	Zn	1.674897	0.247872	0.247869
O13	O	1.070162	-0.356904	-0.356915
O14	O	1.403495	-0.023570	-0.023582
O15	O	1.736829	0.309763	0.309751
O16	O	1.235740	-0.311443	-0.402440
O17	O	1.569073	0.021890	-0.069107
O18	O	1.902407	0.355224	0.264226
O19	O	1.115580	-0.402410	-0.191376
O20	O	1.448913	-0.069076	0.141958
O21	O	1.782247	0.264257	0.475291
O22	O	1.024772	-0.191361	-0.311456
O23	O	1.358105	0.141972	0.021877
O24	O	1.691439	0.475305	0.355211
O25	O	1.235664	-0.402417	-0.311457
O26	O	1.568997	-0.069084	0.021876
O27	O	1.902330	0.264249	0.355210
O28	O	1.115757	-0.191367	-0.402440
O29	O	1.449091	0.141966	-0.069106
O30	O	1.782424	0.475300	0.264227
O31	O	1.024671	-0.311430	-0.191375
O32	O	1.358004	0.021903	0.141958
O33	O	1.691338	0.355237	0.475292
O34	O	0.904641	-0.311399	-0.311408
O35	O	1.237974	0.021934	0.021925
O36	O	1.571307	0.355268	0.355259
O37	O	1.024688	-0.402363	-0.522437
O38	O	1.358021	-0.069030	-0.189103
O39	O	1.691355	0.264303	0.144230
O40	O	0.904604	-0.402356	-0.402355
O41	O	1.237938	-0.069022	-0.069022
O42	O	1.571271	0.264311	0.264311
O43	O	1.115710	-0.311412	-0.522473
O44	O	1.449043	0.021921	-0.189140
O45	O	1.782376	0.355254	0.144193
O46	O	1.115532	-0.522455	-0.311409
O47	O	1.448866	-0.189122	0.021924
O48	O	1.782199	0.144212	0.355258
O49	O	1.024587	-0.522432	-0.402356
O50	O	1.357920	-0.189099	-0.069023
O51	O	1.691254	0.144235	0.264311
C52	C	0.877752	-0.356874	-0.356877
C53	C	1.211085	-0.023540	-0.023543
C54	C	1.544418	0.309793	0.309790
C55	C	0.795437	-0.356879	-0.356878
C56	C	1.128771	-0.023545	-0.023544
C57	C	1.462104	0.309788	0.309789
C58	C	1.070063	-0.549314	-0.356893
C59	C	1.403396	-0.215981	-0.023560
C60	C	1.736730	0.117352	0.309773
C61	C	1.070088	-0.631628	-0.356909
C62	C	1.403422	-0.298295	-0.023576
C63	C	1.736755	0.035038	0.309758
C64	C	0.496347	-0.356925	-0.356940
C65	C	0.829680	-0.023592	-0.023606
C66	C	1.163013	0.309742	0.309727
C67	C	0.527670	-0.299412	-0.299997
C68	C	0.861003	0.033922	0.033336
C69	C	1.194336	0.367255	0.366669
C70	C	0.613288	-0.299566	-0.299754
C71	C	0.946621	0.033768	0.033579
C72	C	1.279955	0.367101	0.366912
C73	C	0.644729	-0.356901	-0.356909
C74	C	0.978062	-0.023568	-0.023576
C75	C	1.311396	0.309765	0.309758
C76	C	0.613611	-0.434909	-0.335587
C77	C	0.946944	-0.101576	-0.002253
C78	C	1.280278	0.231757	0.331080
C79	C	0.527966	-0.434590	-0.335191
C80	C	0.861299	-0.101256	-0.001857
C81	C	1.194632	0.232077	0.331476
C82	C	0.527961	-0.337109	-0.435339
C83	C	0.861294	-0.003775	-0.102005
C84	C	1.194628	0.329558	0.231328
C85	C	0.613612	-0.335371	-0.434911
C86	C	0.946945	-0.002038	-0.101577
C87	C	1.280279	0.331295	0.231756
C88	C	0.728589	-0.356893	-0.356893
C89	C	1.061922	-0.023559	-0.023559
C90	C	1.395255	0.309774	0.309774
C91	C	0.412487	-0.356939	-0.356954
C92	C	0.745820	-0.023605	-0.023621
C93	C	1.079154	0.309728	0.309712
C94	C	1.070251	-0.930719	-0.356949
C95	C	1.403584	-0.597386	-0.023615
C96	C	1.736918	-0.264053	0.309718
C97	C	1.013163	-0.899410	-0.414312
C98	C	1.346497	-0.566077	-0.080979
C99	C	1.679830	-0.232744	0.252354
C100	C	1.012892	-0.813792	-0.414133
C101	C	1.346225	-0.480459	-0.080799
C102	C	1.679559	-0.147126	0.252534
C103	C	1.070170	-0.782337	-0.356930
C104	C	1.403504	-0.449003	-0.023596
C105	C	1.736837	-0.115670	0.309737
C106	C	1.049041	-0.813472	-0.278878
C107	C	1.382374	-0.480139	0.054455
C108	C	1.715708	-0.146806	0.387789
C109	C	1.048673	-0.899117	-0.279221
C110	C	1.382006	-0.565784	0.054112
C111	C	1.715340	-0.232451	0.387445
C112	C	1.148593	-0.899073	-0.376950
C113	C	1.481926	-0.565740	-0.043617
C114	C	1.815259	-0.232407	0.289717
C115	C	1.148132	-0.813422	-0.378661
C116	C	1.481465	-0.480089	-0.045328
C117	C	1.814799	-0.146756	0.288005
C118	C	1.070126	-0.698477	-0.356914
C119	C	1.403459	-0.365144	-0.023581
C120	C	1.736793	-0.031811	0.309753
C121	C	1.070293	-1.014579	-0.356959
C122	C	1.403627	-0.681245	-0.023626
C123	C	1.736960	-0.347912	0.309707
C124	C	1.263324	-0.356934	-0.356954
C125	C	1.596657	-0.023601	-0.023621
C126	C	1.929991	0.309732	0.309712
C127	C	1.345638	-0.356948	-0.356971
C128	C	1.678971	-0.023614	-0.023638
C129	C	2.012305	0.309719	0.309696
C130	C	1.070205	-0.356885	-0.550077
C131	C	1.403538	-0.023552	-0.216744
C132	C	1.736872	0.309782	0.116589
C133	C	1.070223	-0.356877	-0.632391
C134	C	1.403556	-0.023544	-0.299058
C135	C	1.736890	0.309790	0.034275
C136	C	1.070282	-0.163742	-0.356953
C137	C	1.403615	0.169591	-0.023620
C138	C	1.736948	0.502925	0.309713
C139	C	1.070333	-0.081428	-0.356970
C140	C	1.403666	0.251906	-0.023636
C141	C	1.736999	0.585239	0.309697
C142	C	1.070266	-0.356738	-0.931482
C143	C	1.403600	-0.023405	-0.598149
C144	C	1.736933	0.309928	-0.264816
C145	C	1.012801	-0.413780	-0.900134
C146	C	1.346134	-0.080447	-0.566801
C147	C	1.679467	0.252887	-0.233468
C148	C	1.012956	-0.414045	-0.814516
C149	C	1.346289	-0.080711	-0.481183
C150	C	1.679623	0.252622	-0.147849
C151	C	1.070244	-0.356807	-0.783100
C152	C	1.403578	-0.023474	-0.449767
C153	C	1.736911	0.309860	-0.116433
C154	C	1.148270	-0.377998	-0.814206
C155	C	1.481603	-0.044664	-0.480873
C156	C	1.814936	0.288669	-0.147539
C157	C	1.147949	-0.378372	-0.899851
C158	C	1.481283	-0.045039	-0.566518
C159	C	1.814616	0.288295	-0.233184
C160	C	1.050385	-0.278379	-0.899905
C161	C	1.383718	0.054954	-0.566571
C162	C	1.717052	0.388288	-0.233238
C163	C	1.048649	-0.278832	-0.814254
C164	C	1.381982	0.054502	-0.480920
C165	C	1.715315	0.387835	-0.147587
C166	C	1.070237	-0.356845	-0.699240
C167	C	1.403570	-0.023511	-0.365907
C168	C	1.736903	0.309822	-0.032574
C169	C	1.070279	-0.356702	-1.015342
C170	C	1.403613	-0.023369	-0.682009
C171	C	1.736946	0.309964	-0.348675
C172	C	1.070162	-0.356869	-0.164505
C173	C	1.403495	-0.023536	0.168829
C174	C	1.736829	0.309798	0.502162
C175	C	1.070287	-0.356668	-0.082191
C176	C	1.403621	-0.023335	0.251142
C177	C	1.736954	0.309998	0.584476
H178	H	0.634329	-0.241719	-0.313119
H179	H	0.967662	0.091614	0.020214
H180	H	1.300995	0.424948	0.353547
H181	H	1.089313	-0.793097	-0.234972
H182	H	1.422646	-0.459764	0.098361
H183	H	1.755980	-0.126431	0.431694
H184	H	1.092240	-0.235880	-0.920179
H185	H	1.425574	0.097453	-0.586846
H186	H	1.758907	0.430787	-0.253513
F187	F	0.937726	-0.927629	-0.397225
F188	F	1.271060	-0.594295	-0.063892
F189	F	1.604393	-0.260962	0.269441
H190	H	1.191125	-0.919319	-0.335170
H191	H	1.524458	-0.585986	-0.001837
H192	H	1.857792	-0.252652	0.331497
F193	F	0.936991	-0.787085	-0.396818
F194	F	1.270324	-0.453752	-0.063485
F195	F	1.603658	-0.120418	0.269848
H196	H	0.635026	-0.452008	-0.278892
H197	H	0.968359	-0.118675	0.054441
H198	H	1.301692	0.214659	0.387774
H199	H	1.088449	-0.919830	-0.235023
H200	H	1.421783	-0.586497	0.098310
H201	H	1.755116	-0.253163	0.431643
H202	H	1.026082	-0.472127	-0.794035
H203	H	1.359415	-0.138794	-0.460702
H204	H	1.692749	0.194540	-0.127369
F205	F	0.977309	-0.253146	-0.928116
F206	F	1.310642	0.080187	-0.594782
F207	F	1.643976	0.413520	-0.261449
F208	F	1.099370	-0.220332	-0.786310
F209	F	1.432704	0.113002	-0.452977
F210	F	1.766037	0.446335	-0.119644
F211	F	1.205739	-0.325401	-0.787614
F212	F	1.539072	0.007933	-0.454280
F213	F	1.872405	0.341266	-0.120947
F214	F	0.640212	-0.260344	-0.455933
F215	F	0.973546	0.072990	-0.122600
F216	F	1.306879	0.406323	0.210733
F217	F	0.641586	-0.386138	-0.493338
F218	F	0.974919	-0.052804	-0.160005
F219	F	1.308252	0.280529	0.173328
F220	F	0.973593	-0.257946	-0.787686
F221	F	1.306926	0.075387	-0.454353
F222	F	1.640260	0.408720	-0.121020
H223	H	0.507705	-0.378999	-0.477766
H224	H	0.841038	-0.045666	-0.144433
H225	H	1.174371	0.287667	0.188900
F226	F	1.205779	-0.326393	-0.926961
F227	F	1.539112	0.006941	-0.593628
F228	F	1.872445	0.340274	-0.260295
F229	F	0.499491	-0.316327	-0.224509
F230	F	0.832824	0.017006	0.108824
F231	F	1.166158	0.350340	0.442158
F232	F	0.500784	-0.223569	-0.317272
F233	F	0.834117	0.109765	0.016061
F234	F	1.167451	0.443098	0.349395
F235	F	0.499768	-0.264052	-0.460678
F236	F	0.833101	0.069282	-0.127345
F237	F	1.166434	0.402615	0.205989
F238	F	1.030169	-0.786273	-0.489779
F239	F	1.363502	-0.452940	-0.156445
F240	F	1.696835	-0.119606	0.176888
F241	F	1.170683	-0.452073	-0.786183
F242	F	1.504016	-0.118740	-0.452850
F243	F	1.837349	0.214593	-0.119517
F244	F	1.030267	-0.926284	-0.490205
F245	F	1.363600	-0.592951	-0.156871
F246	F	1.696934	-0.259618	0.176462
H247	H	0.991406	-0.919153	-0.262279
H248	H	1.324739	-0.585819	0.071054
H249	H	1.658072	-0.252486	0.404387
H250	H	0.992380	-0.792080	-0.261633
H251	H	1.325714	-0.458746	0.071701
H252	H	1.659047	-0.125413	0.405034
F253	F	0.640220	-0.492421	-0.388103
F254	F	0.973554	-0.159087	-0.054770
F255	F	1.306887	0.174246	0.278563
F256	F	0.937331	-0.396708	-0.787022
F257	F	1.270664	-0.063374	-0.453689
F258	F	1.603998	0.269959	-0.120356
H259	H	0.633741	-0.312665	-0.241661
H260	H	0.967075	0.020668	0.091672
H261	H	1.300408	0.354002	0.425005
H262	H	1.167856	-0.920633	-0.432895
H263	H	1.501190	-0.587300	-0.099562
H264	H	1.834523	-0.253966	0.233771
F265	F	0.501807	-0.456556	-0.260278
F266	F	0.835140	-0.123222	0.073055
F267	F	1.168473	0.210111	0.406389
F268	F	1.168960	-0.786823	-0.453742
F269	F	1.502294	-0.453490	-0.120409
F270	F	1.835627	-0.120156	0.212925
H271	H	0.954768	-0.400655	-0.920720
H272	H	1.288101	-0.067321	-0.587386
H273	H	1.621434	0.266012	-0.254053
F274	F	0.500878	-0.492498	-0.387032
F275	F	0.834212	-0.159164	-0.053699
F276	F	1.167545	0.174169	0.279634
H277	H	1.192915	-0.792007	-0.339927
H278	H	1.526248	-0.458673	-0.006593
H279	H	1.859582	-0.125340	0.326740
H280	H	1.025796	-0.471508	-0.921661
H281	H	1.359130	-0.138174	-0.588328
H282	H	1.692463	0.195159	-0.254995
F283	F	1.169978	-0.453243	-0.925975
F284	F	1.503311	-0.119910	-0.592642
F285	F	1.836645	0.213424	-0.259308
