data_functionalizedCrystal
_audit_creation_method	'MofGen! by Chris Wilmer'
_symmetry_space_group_name_H-M	'P1'
_symmetry_Int_Tables_number	1
_symmetry_cell_setting	triclinic
loop_
_symmetry_equiv_pos_as_xyz
  x,y,z
_cell_length_a	16.956995
_cell_length_b	10.967829
_cell_length_c	10.065918
_cell_angle_alpha	111.730848
_cell_angle_beta	100.398608
_cell_angle_gamma	80.479919
loop_
_atom_site_label
_atom_site_type_symbol
_atom_site_fract_x
_atom_site_fract_y
_atom_site_fract_z
O1	O	1.070358	0.069121	0.129845
O2	O	0.839424	0.114328	0.140458
O3	O	0.956136	-0.096419	0.090897
O4	O	0.953646	0.279868	0.179406
O5	O	0.934396	-0.127894	-0.143497
O6	O	0.817684	0.082854	-0.093935
O7	O	1.048617	0.037646	-0.104549
Zn8	Zn	0.929699	0.055253	-0.136457
Zn9	Zn	0.958343	0.096722	0.172367
O10	O	0.931905	0.248394	-0.054987
C11	C	0.798909	0.100905	0.023804
C12	C	0.710574	0.107786	0.025415
C13	C	0.212674	0.159278	0.037577
C14	C	0.295674	0.152801	0.036053
C15	C	0.343465	0.031234	0.007448
C16	C	0.308255	-0.083862	-0.019620
C17	C	0.225257	-0.077383	-0.018085
C18	C	0.592366	-0.000831	-0.000118
C19	C	0.675368	-0.007302	-0.001655
C20	C	0.662782	0.229363	0.054021
C21	C	0.579783	0.235830	0.055544
C22	C	0.544580	0.120735	0.028484
N23	N	0.428304	0.024610	0.005884
N24	N	0.459744	0.127361	0.030058
C25	C	0.943442	-0.160079	-0.037569
C26	C	0.937998	-0.302872	-0.071149
C27	C	0.946834	-0.350223	0.035305
C28	C	0.941208	-0.497806	0.000602
C29	C	1.089133	0.051069	0.012109
C30	C	1.177469	0.044190	0.010507
C31	C	0.944600	0.312054	0.073482
C32	C	0.950044	0.454848	0.107071
N33	N	0.910156	0.026950	-0.347221
C34	C	0.936510	0.065088	-0.563191
C35	C	0.951544	0.086884	-0.400896
N36	N	0.977892	0.125013	0.383128
H37	H	0.691454	0.323068	0.076054
F38	F	0.528927	0.365221	0.085999
H39	H	0.889954	-0.002358	-0.637386
F40	F	0.359120	-0.213244	-0.050059
H41	H	0.998108	0.154324	-0.326708
H42	H	0.863594	-0.040496	-0.421409
F43	F	1.038753	0.213157	-0.519904
F44	F	0.187790	-0.199876	-0.046897
H45	H	0.173767	0.258270	0.060860
F46	F	0.726231	-0.136697	-0.032101
F47	F	0.333139	0.275296	0.064872
H48	H	0.961765	-0.476432	0.223910
F49	F	0.554914	-0.123323	-0.028892
F50	F	0.922661	-0.392689	-0.223858
H51	H	0.958560	-0.281500	0.152136
H52	H	0.929472	-0.566523	-0.116236
