data_functionalizedCrystal
_audit_creation_method	'MofGen! by Chris Wilmer'
_symmetry_space_group_name_H-M	'P1'
_symmetry_Int_Tables_number	1
_symmetry_cell_setting	triclinic
loop_
_symmetry_equiv_pos_as_xyz
  x,y,z
_cell_length_a	15.944499
_cell_length_b	15.944493
_cell_length_c	10.868271
_cell_angle_alpha	90.000739
_cell_angle_beta	89.993092
_cell_angle_gamma	83.476327
loop_
_atom_site_label
_atom_site_type_symbol
_atom_site_fract_x
_atom_site_fract_y
_atom_site_fract_z
O1	O	1.114528	0.108129	-0.102380
O2	O	0.869970	0.121531	-0.102364
O3	O	0.998953	-0.007450	-0.102383
O4	O	0.985546	0.237109	-0.102361
O5	O	0.998942	-0.007455	0.102262
O6	O	0.869959	0.121526	0.102281
O7	O	1.114518	0.108124	0.102265
Zn8	Zn	0.992237	0.114824	0.134765
Zn9	Zn	0.992251	0.114830	-0.134864
O10	O	0.985535	0.237104	0.102283
C11	C	0.838670	0.120979	-0.000040
C12	C	0.745422	0.119334	-0.000035
C13	C	0.453871	0.194269	-0.000047
C14	C	0.514913	0.155318	-0.100953
C15	C	0.409787	0.113358	-0.000064
C16	C	0.514889	0.155292	0.100811
C17	C	0.574695	0.116299	-0.000047
C18	C	0.469601	0.074385	-0.101053
C19	C	0.469570	0.074370	0.100801
C20	C	0.530595	0.035361	-0.000130
C21	C	0.314787	0.111666	-0.000074
C22	C	0.669694	0.117984	-0.000046
C23	C	0.998400	-0.038747	-0.000065
C24	C	0.996757	-0.131995	-0.000081
C25	C	1.072679	-0.367769	-0.000063
C26	C	1.031742	-0.418327	-0.100960
C27	C	0.993713	-0.302716	-0.000066
C28	C	1.031713	-0.418308	0.100804
C29	C	0.990778	-0.467625	-0.000046
C30	C	0.952797	-0.352045	-0.101046
C31	C	0.952780	-0.352023	0.100808
C32	C	0.911785	-0.402548	-0.000114
C33	C	0.995405	-0.207716	-0.000078
C34	C	0.989079	-0.562622	-0.000042
C35	C	1.145818	0.108675	-0.000062
C36	C	1.239066	0.110320	-0.000075
C37	C	0.986088	0.268401	-0.000036
C38	C	0.987731	0.361650	-0.000029
N39	N	0.992234	0.114819	0.318779
N40	N	0.992261	0.114829	-0.318878
C41	C	0.992247	0.114829	0.569785
C42	C	0.992237	0.114826	0.430107
H43	H	0.420527	0.261416	-0.000138
H44	H	0.563787	-0.031847	-0.000189
H45	H	1.065074	-0.447248	0.186099
H46	H	0.843713	-0.418002	-0.000165
H47	H	0.449634	0.040197	-0.186457
C48	C	0.442388	0.028177	0.216036
H49	H	0.457711	0.057004	0.287667
H50	H	0.469715	-0.027957	0.216757
H51	H	0.382957	0.027006	0.214794
H52	H	0.534952	0.189525	0.186116
H53	H	0.919456	-0.323058	0.186118
C54	C	1.164562	-0.346665	-0.000202
H55	H	1.192498	-0.369487	-0.071987
H56	H	1.192880	-0.370345	0.070748
H57	H	1.164991	-0.287136	0.000520
C58	C	1.076796	-0.457444	-0.216194
H59	H	1.133926	-0.445810	-0.216078
H60	H	1.049312	-0.433875	-0.287847
H61	H	1.074962	-0.516789	-0.215732
C62	C	0.542067	0.201548	-0.216181
H63	H	0.579764	0.164112	-0.263691
H64	H	0.569497	0.248762	-0.191920
H65	H	0.493686	0.220281	-0.264031
C66	C	0.907793	-0.313110	-0.216417
H67	H	0.909157	-0.253699	-0.215743
H68	H	0.850818	-0.325216	-0.216711
H69	H	0.935658	-0.336388	-0.287980
