data_functionalizedCrystal
_audit_creation_method	'MofGen! by Chris Wilmer'
_symmetry_space_group_name_H-M	'P1'
_symmetry_Int_Tables_number	1
_symmetry_cell_setting	triclinic
loop_
_symmetry_equiv_pos_as_xyz
  x,y,z
_cell_length_a	19.288865
_cell_length_b	10.654545
_cell_length_c	9.130313
_cell_angle_alpha	89.994938
_cell_angle_beta	89.988256
_cell_angle_gamma	83.809663
loop_
_atom_site_label
_atom_site_type_symbol
_atom_site_fract_x
_atom_site_fract_y
_atom_site_fract_z
O1	O	0.097542	1.665758	-0.121804
O2	O	0.106839	1.300080	-0.121812
O3	O	0.001129	1.493485	-0.121778
O4	O	0.203252	1.472353	-0.121837
O5	O	0.001122	1.493466	0.121821
O6	O	0.106832	1.300060	0.121787
O7	O	0.097535	1.665738	0.121795
Cu8	Cu	0.102183	1.482898	0.144034
Cu9	Cu	0.102191	1.482921	-0.144050
O10	O	0.203245	1.472333	0.121762
C11	C	0.106154	1.253287	-0.000013
C12	C	0.104113	1.113887	-0.000014
C13	C	0.103149	1.048392	0.132772
C14	C	0.101220	0.917414	0.132773
C15	C	0.101223	0.917436	-0.132812
C16	C	0.103147	1.048413	-0.132811
C17	C	-0.024755	1.492796	0.000025
C18	C	-0.101872	1.490754	0.000038
C19	C	-0.145826	1.604236	0.000048
C20	C	-0.218286	1.602318	0.000025
C21	C	-0.246788	1.486913	0.000021
C22	C	-0.202824	1.373416	0.000003
C23	C	-0.130366	1.375337	0.000012
C24	C	-0.355671	1.396183	0.085347
C25	C	-0.428128	1.394267	0.085347
C26	C	-0.470272	1.480983	-0.000012
C27	C	-0.439952	1.569637	-0.085352
C28	C	-0.367494	1.571558	-0.085344
C29	C	-0.325356	1.484817	0.000011
C30	C	-0.592796	1.592393	-0.000029
C31	C	-0.665257	1.590471	-0.000062
C32	C	-0.649793	1.361565	-0.000068
C33	C	-0.577334	1.363491	-0.000051
C34	C	-0.548840	1.478908	-0.000024
C35	C	0.229129	1.473023	-0.000045
C36	C	0.306246	1.475064	-0.000067
C37	C	0.098220	1.712532	-0.000007
C38	C	0.100261	1.851932	-0.000015
N39	N	0.102177	1.482890	0.346656
C40	C	0.059671	1.406998	0.576714
C41	C	0.059662	1.406985	0.423377
C42	C	0.144699	1.558824	0.423281
C43	C	0.144705	1.558844	0.576615
N44	N	0.102192	1.482924	0.653327
H45	H	0.100437	0.864111	-0.240930
H46	H	0.025037	1.345160	0.361005
H47	H	-0.672999	1.267600	-0.000078
Br48	Br	-0.554121	1.749026	0.000021
Br49	Br	0.202410	1.661903	0.680600
Br50	Br	-0.724912	1.744496	-0.000064
H51	H	0.179312	1.620634	0.360802
Br52	Br	-0.517678	1.209471	-0.000062
H53	H	0.100435	0.864094	0.240901
H54	H	0.103936	1.101697	0.240904
H55	H	0.103930	1.101741	-0.240948
Br56	Br	-0.469270	1.273962	0.201174
Br57	Br	-0.107159	1.760873	0.000043
H58	H	-0.254080	1.694731	0.000027
H59	H	-0.226035	1.279452	-0.000003
H60	H	-0.094578	1.282924	0.000005
H61	H	0.025054	1.345180	0.639169
H62	H	-0.342811	1.643740	-0.154833
H63	H	-0.474265	1.640249	-0.154860
H64	H	-0.321362	1.325565	0.154864
