data_functionalizedCrystal
_audit_creation_method	'MofGen! by Chris Wilmer'
_symmetry_space_group_name_H-M	'P1'
_symmetry_Int_Tables_number	1
_symmetry_cell_setting	triclinic
loop_
_symmetry_equiv_pos_as_xyz
  x,y,z
_cell_length_a	17.699083
_cell_length_b	12.837932
_cell_length_c	16.176319
_cell_angle_alpha	89.996832
_cell_angle_beta	89.998611
_cell_angle_gamma	89.056359
loop_
_atom_site_label
_atom_site_type_symbol
_atom_site_fract_x
_atom_site_fract_y
_atom_site_fract_z
O1	O	1.013708	0.131067	-0.068624
O2	O	0.794583	0.148120	-0.068650
O3	O	0.899286	-0.011297	-0.068639
O4	O	0.909005	0.290484	-0.068636
O5	O	0.899269	-0.011307	0.068855
O6	O	0.794566	0.148109	0.068843
O7	O	1.013691	0.131057	0.068869
Cu8	Cu	0.904127	0.139582	0.081410
Cu9	Cu	0.904147	0.139594	-0.081192
O10	O	0.908988	0.290474	0.068857
C11	C	0.766332	0.147503	0.000093
C12	C	0.682180	0.145670	0.000082
C13	C	0.640433	0.239245	0.000083
C14	C	0.561363	0.237516	0.000094
C15	C	0.524040	0.142212	0.000098
C16	C	0.565792	0.048631	0.000099
C17	C	0.644861	0.050360	0.000095
C18	C	0.246917	0.041654	0.000120
C19	C	0.167842	0.039931	0.000122
C20	C	0.163419	0.228809	0.000119
C21	C	0.242487	0.230539	0.000114
C22	C	0.284232	0.136958	0.000120
C23	C	0.369969	0.138833	0.000110
C24	C	0.438305	0.140336	0.000102
C25	C	0.895994	-0.049915	0.000106
C26	C	0.886203	-0.164967	0.000099
C27	C	0.804365	-0.314604	0.000090
C28	C	0.813560	-0.206501	0.000090
C29	C	0.949656	-0.231545	0.000106
C30	C	0.940460	-0.339648	0.000106
C31	C	0.867813	-0.381173	0.000099
C32	C	0.858619	-0.489278	0.000106
C33	C	0.994713	-0.514320	0.000115
C34	C	1.003908	-0.406217	0.000115
C35	C	1.041942	0.131673	0.000124
C36	C	1.126094	0.133506	0.000129
C37	C	0.912280	0.329091	0.000111
C38	C	0.922071	0.444144	0.000112
N39	N	0.904119	0.139573	0.195775
N40	N	0.904161	0.139595	-0.195557
C41	C	0.950499	0.069012	0.239045
C42	C	0.950503	0.069011	0.325592
C43	C	0.904130	0.139577	0.368868
C44	C	0.857744	0.210141	0.325592
C45	C	0.857737	0.210137	0.239047
C46	C	0.857772	0.210161	0.674621
C47	C	0.857784	0.210162	0.761172
C48	C	0.950537	0.069035	0.761166
C49	C	0.950530	0.069031	0.674620
C50	C	0.904142	0.139591	0.631352
C51	C	0.904137	0.139590	0.537508
C52	C	0.904138	0.139584	0.462710
H53	H	0.678850	-0.025837	0.000093
Cl54	Cl	0.120923	-0.079889	0.000127
H55	H	0.820019	0.267627	0.796406
H56	H	0.799465	-0.523086	0.000108
Cl57	Cl	0.713040	-0.366811	0.000096
H58	H	1.063056	-0.372392	0.000124
Cl59	Cl	1.008804	-0.019700	0.184650
Cl60	Cl	0.110934	0.346456	0.000116
H61	H	0.988306	0.011578	0.796404
H62	H	0.988268	0.011555	0.360821
Cl63	Cl	1.040976	-0.179323	0.000099
H64	H	0.820002	0.267615	0.639399
Cl65	Cl	1.008832	-0.019680	0.620219
Cl66	Cl	0.799442	0.298849	0.379995
Cl67	Cl	0.799425	0.298842	0.184652
H68	H	0.280896	-0.034546	0.000125
Cl69	Cl	0.518872	-0.071181	0.000109
Cl70	Cl	0.733793	-0.122816	0.000075
H71	H	0.670816	0.316852	0.000080
H72	H	0.527377	0.313714	0.000094
H73	H	1.046377	-0.568534	0.000124
Cl74	Cl	0.289403	0.350354	0.000105
