data_functionalizedCrystal
_audit_creation_method	'MofGen! by Chris Wilmer'
_symmetry_space_group_name_H-M	'P1'
_symmetry_Int_Tables_number	1
_symmetry_cell_setting	triclinic
loop_
_symmetry_equiv_pos_as_xyz
  x,y,z
_cell_length_a	9.065218
_cell_length_b	14.750779
_cell_length_c	9.065218
_cell_angle_alpha	102.831257
_cell_angle_beta	85.015885
_cell_angle_gamma	77.167641
loop_
_atom_site_label
_atom_site_type_symbol
_atom_site_fract_x
_atom_site_fract_y
_atom_site_fract_z
O1	O	1.928800	0.079824	0.247942
O2	O	1.499514	0.079825	0.265689
O3	O	1.723031	0.079822	0.042172
O4	O	1.705283	0.079826	0.471458
O5	O	1.786217	-0.079829	-0.021007
O6	O	1.562700	-0.079826	0.202510
O7	O	1.991985	-0.079827	0.184763
Zn8	Zn	1.787375	-0.105175	0.183606
Zn9	Zn	1.704125	0.105172	0.266846
O10	O	1.768469	-0.079825	0.408280
C11	C	1.476121	-0.000001	0.232394
C12	C	1.312277	-0.000000	0.227294
N13	N	1.844201	-0.248731	0.126796
C14	C	1.488601	-0.600545	0.482242
C15	C	1.528432	-0.701045	0.442443
C16	C	1.726399	-0.701010	0.244593
C17	C	1.686579	-0.600508	0.284371
C18	C	1.567680	-0.550284	0.403197
C19	C	1.765658	-0.550247	0.205326
C20	C	1.725846	-0.449754	0.245106
C21	C	1.606956	-0.399523	0.363931
C22	C	1.527869	-0.449791	0.442977
C23	C	1.884564	-0.600473	0.086507
C24	C	1.963643	-0.550212	0.007463
C25	C	1.923824	-0.449717	0.047235
C26	C	1.804933	-0.399486	0.166060
C27	C	2.002911	-0.399448	-0.031811
C28	C	1.963100	-0.298956	0.007969
C29	C	1.765122	-0.298993	0.205840
C30	C	2.015378	0.000000	0.218059
C31	C	2.179219	0.000006	0.223161
C32	C	1.752918	-0.000002	-0.044403
C33	C	1.747816	0.000003	-0.208244
N34	N	1.647310	0.248729	0.323645
C35	C	1.738581	0.000001	0.494856
C36	C	1.743680	0.000003	0.658700
H37	H	1.574547	-0.317695	0.396323
O38	O	1.923481	-0.698092	0.047712
C39	C	2.045362	-0.731644	-0.074130
H40	H	2.109964	-0.673715	-0.075704
H41	H	2.126304	-0.798866	-0.058417
H42	H	1.998378	-0.749482	-0.186791
H43	H	2.027496	-0.258032	-0.056397
O44	O	2.079018	-0.598902	-0.108131
C45	C	2.043316	-0.574364	-0.244816
H46	H	1.957549	-0.501405	-0.216538
H47	H	2.151878	-0.570913	-0.314593
H48	H	1.991655	-0.630930	-0.313845
O49	O	1.842070	-0.749754	0.129323
C50	C	1.978712	-0.725157	0.165032
H51	H	1.970089	-0.697542	0.294114
H52	H	2.078713	-0.791231	0.122911
H53	H	1.997827	-0.666811	0.106946
H54	H	2.099730	-0.440354	-0.128551
O55	O	1.412529	-0.401036	0.558590
C56	C	1.448155	-0.425604	0.695273
H57	H	1.577231	-0.453218	0.686722
H58	H	1.405994	-0.359516	0.795243
H59	H	1.390050	-0.483943	0.714382
O60	O	1.649775	-0.250088	0.321367
C61	C	1.706978	-0.191966	0.436535
H62	H	1.815692	-0.176900	0.385348
H63	H	1.617717	-0.121305	0.486973
H64	H	1.733779	-0.230690	0.530409
O65	O	1.373262	-0.551790	0.597854
C66	C	1.408888	-0.576359	0.734538
H67	H	1.537964	-0.603973	0.725986
H68	H	1.366726	-0.510271	0.834508
H69	H	1.350782	-0.634697	0.753647
O70	O	1.451378	-0.749831	0.519087
C71	C	1.295274	-0.725277	0.502802
H72	H	1.282038	-0.697643	0.395595
H73	H	1.247637	-0.791379	0.492564
H74	H	1.229917	-0.666959	0.607076
