data_functionalizedCrystal
_audit_creation_method	'MofGen! by Chris Wilmer'
_symmetry_space_group_name_H-M	'P1'
_symmetry_Int_Tables_number	1
_symmetry_cell_setting	triclinic
loop_
_symmetry_equiv_pos_as_xyz
  x,y,z
_cell_length_a	14.971506
_cell_length_b	13.448316
_cell_length_c	11.792241
_cell_angle_alpha	89.993264
_cell_angle_beta	83.907902
_cell_angle_gamma	89.995875
loop_
_atom_site_label
_atom_site_type_symbol
_atom_site_fract_x
_atom_site_fract_y
_atom_site_fract_z
O1	O	1.187529	-0.082631	0.148019
O2	O	1.687529	0.417369	0.648019
O3	O	0.927202	-0.082647	0.165707
O4	O	1.427202	0.417353	0.665707
O5	O	1.063683	-0.082632	-0.008348
O6	O	1.563683	0.417368	0.491652
O7	O	1.051048	-0.082646	0.322074
O8	O	1.551048	0.417354	0.822074
O9	O	1.063666	0.082752	-0.008359
O10	O	1.563666	0.582752	0.491641
O11	O	0.927185	0.082737	0.165696
O12	O	1.427185	0.582737	0.665696
O13	O	1.187512	0.082752	0.148008
O14	O	1.687512	0.582752	0.648008
Cu15	Cu	1.057347	0.097846	0.156851
Cu16	Cu	1.557347	0.597846	0.656851
Cu17	Cu	1.057367	-0.097740	0.156864
Cu18	Cu	1.557367	0.402260	0.656864
O19	O	1.051031	0.082737	0.322063
O20	O	1.551031	0.582737	0.822063
C21	C	0.893866	0.000043	0.164907
C22	C	1.393866	0.500043	0.664907
C23	C	0.794560	0.000037	0.162524
C24	C	1.294560	0.500037	0.662524
N25	N	1.057339	0.235410	0.156842
N26	N	1.557339	0.735410	0.656842
C27	C	1.062881	0.000060	-0.050639
C28	C	1.562881	0.500060	0.449361
C29	C	1.060505	0.000059	-0.176638
C30	C	1.560505	0.500059	0.323362
C31	C	1.220848	0.000060	0.148808
C32	C	1.720848	0.500060	0.648808
C33	C	1.320154	0.000059	0.151191
C34	C	1.820154	0.500059	0.651191
C35	C	1.758063	0.000042	0.058031
C36	C	2.258063	0.500042	0.558031
C37	C	1.664754	0.000040	0.055801
C38	C	2.164754	0.500040	0.555801
C39	C	1.607944	0.000041	0.158065
C40	C	2.107944	0.500041	0.658065
C41	C	1.644447	0.000034	0.262566
C42	C	2.144447	0.500034	0.762566
C43	C	1.737755	0.000028	0.264794
C44	C	2.237755	0.500028	0.764794
C45	C	1.449965	0.000047	0.257913
C46	C	1.949965	0.500047	0.757913
C47	C	1.356651	0.000055	0.255684
C48	C	1.856651	0.500055	0.755684
C49	C	1.376965	0.000060	0.048919
C50	C	1.876965	0.500060	0.548919
C51	C	1.470272	0.000054	0.051148
C52	C	1.970272	0.500054	0.551148
C53	C	1.506769	0.000048	0.155649
C54	C	2.006769	0.500048	0.655649
N55	N	1.057382	-0.235304	0.156865
N56	N	1.557382	0.264696	0.656865
C57	C	1.117792	0.287457	0.079802
C58	C	1.617792	0.787457	0.579802
C59	C	1.117797	0.391560	0.079801
C60	C	1.617797	0.891560	0.579801
C61	C	1.057354	0.443614	0.156846
C62	C	1.557354	0.943614	0.656846
C63	C	0.996895	0.391560	0.233889
C64	C	1.496895	0.891560	0.733889
C65	C	0.996886	0.287459	0.233884
C66	C	1.496886	0.787459	0.733884
C67	C	0.996920	0.608540	0.233897
C68	C	1.496920	1.108540	0.733897
C69	C	0.996930	0.712649	0.233904
C70	C	1.496930	1.212649	0.733904
C71	C	1.117831	0.712642	0.079814
C72	C	1.617831	1.212642	0.579814
C73	C	1.117822	0.608540	0.079809
C74	C	1.617822	1.108540	0.579809
C75	C	1.057364	0.556493	0.156854
C76	C	1.557364	1.056493	0.656854
C77	C	1.056137	0.000042	-0.407322
C78	C	1.556137	0.500042	0.092678
C79	C	1.058564	0.000051	-0.278952
C80	C	1.558564	0.500051	0.221048
C81	C	1.051833	0.000044	0.364354
C82	C	1.551833	0.500044	0.864354
C83	C	1.054209	0.000038	0.490353
C84	C	1.554209	0.500038	0.990353
H85	H	1.804312	0.000046	-0.025245
H86	H	2.304312	0.500046	0.474755
H87	H	1.167022	0.433936	0.017069
H88	H	1.667022	0.933936	0.517069
Cl89	Cl	0.920903	0.456998	0.330743
Cl90	Cl	1.420903	0.956998	0.830743
H91	H	1.167044	0.566158	0.017078
H92	H	1.667044	1.066158	0.517078
Cl93	Cl	1.193836	0.778075	-0.017039
Cl94	Cl	1.693836	1.278075	0.482961
H95	H	1.635043	0.000043	-0.029287
H96	H	2.135043	0.500043	0.470713
Cl97	Cl	0.920881	0.222029	0.330735
Cl98	Cl	1.420881	0.722029	0.830735
Cl99	Cl	1.285234	0.000061	0.384246
Cl100	Cl	1.785234	0.500061	0.884246
Cl101	Cl	1.331084	0.000070	-0.082454
Cl102	Cl	1.831084	0.500070	0.417546
H103	H	1.516526	0.000062	-0.032125
H104	H	2.016526	0.500062	0.467875
Cl105	Cl	1.495845	0.000038	0.389288
Cl106	Cl	1.995845	0.500038	0.889288
Cl107	Cl	0.920938	0.778081	0.330763
Cl108	Cl	1.420938	1.278081	0.830763
H109	H	1.598185	0.000028	0.345830
H110	H	2.098185	0.500028	0.845830
H111	H	1.767468	0.000029	0.349883
H112	H	2.267468	0.500029	0.849883
H113	H	1.167016	0.245081	0.017067
H114	H	1.667016	0.745081	0.517067
Cl115	Cl	0.920910	0.543114	0.330754
Cl116	Cl	1.420910	1.043114	0.830754
