data_functionalizedCrystal
_audit_creation_method	'MofGen! by Chris Wilmer'
_symmetry_space_group_name_H-M	'P1'
_symmetry_Int_Tables_number	1
_symmetry_cell_setting	triclinic
loop_
_symmetry_equiv_pos_as_xyz
  x,y,z
_cell_length_a	14.519709
_cell_length_b	19.288865
_cell_length_c	18.366186
_cell_angle_alpha	90.011479
_cell_angle_beta	89.996571
_cell_angle_gamma	96.591803
loop_
_atom_site_label
_atom_site_type_symbol
_atom_site_fract_x
_atom_site_fract_y
_atom_site_fract_z
O1	O	1.223296	-0.091051	-0.060464
O2	O	1.723296	0.408949	0.439536
O3	O	0.954751	-0.101773	-0.060487
O4	O	1.454751	0.398227	0.439513
O5	O	1.096783	0.004690	-0.060460
O6	O	1.596783	0.504690	0.439540
O7	O	1.081264	-0.197514	-0.060490
O8	O	1.581264	0.302486	0.439510
O9	O	1.096759	0.004696	0.060639
O10	O	1.596759	0.504696	0.560639
O11	O	0.954727	-0.101768	0.060613
O12	O	1.454727	0.398232	0.560613
O13	O	1.223272	-0.091046	0.060636
O14	O	1.723272	0.408954	0.560636
Zn15	Zn	1.088995	-0.096406	0.079851
Zn16	Zn	1.588995	0.403594	0.579851
Zn17	Zn	1.089027	-0.096413	-0.079702
Zn18	Zn	1.589027	0.403587	0.420298
O19	O	1.081240	-0.197509	0.060609
O20	O	1.581240	0.302491	0.560609
C21	C	0.920382	-0.101271	0.000060
C22	C	1.420382	0.398729	0.500060
C23	C	0.818010	-0.099773	0.000052
C24	C	1.318010	0.400227	0.500052
N25	N	1.088981	-0.096401	0.188742
N26	N	1.588981	0.403599	0.688742
C27	C	1.096272	0.030571	0.000092
C28	C	1.596272	0.530571	0.500092
C29	C	1.094773	0.107680	0.000098
C30	C	1.594773	0.607680	0.500098
C31	C	0.443150	-0.094261	0.000086
C32	C	0.943150	0.405739	0.500086
C33	C	0.547448	-0.095792	0.000076
C34	C	1.047448	0.404208	0.500076
C35	C	0.630577	-0.097017	0.000068
C36	C	1.130577	0.402983	0.500068
C37	C	0.734882	-0.098548	0.000060
C38	C	1.234882	0.401452	0.500060
C39	C	1.257640	-0.091548	0.000087
C40	C	1.757640	0.408452	0.500087
C41	C	1.360012	-0.093045	0.000091
C42	C	1.860012	0.406955	0.500091
C43	C	1.081751	-0.223390	0.000056
C44	C	1.581751	0.276610	0.500056
C45	C	1.083250	-0.300499	0.000045
C46	C	1.583250	0.199501	0.500045
C47	C	1.178111	0.152077	0.000109
C48	C	1.678111	0.652077	0.500109
C49	C	1.176702	0.224529	0.000097
C50	C	1.676702	0.724529	0.500097
C51	C	1.091951	0.252581	0.000089
C52	C	1.591951	0.752581	0.500089
C53	C	1.008602	0.208175	0.000074
C54	C	1.508602	0.708175	0.500074
C55	C	1.010013	0.135725	0.000079
C56	C	1.510013	0.635725	0.500079
C57	C	1.025319	0.361110	0.042502
C58	C	1.525319	0.861110	0.542502
C59	C	1.023911	0.433560	0.042502
C60	C	1.523911	0.933560	0.542502
C61	C	1.087597	0.476043	0.000073
C62	C	1.587597	0.976043	0.500073
C63	C	1.152705	0.446068	-0.042348
C64	C	1.652705	0.946068	0.457652
C65	C	1.154116	0.373618	-0.042343
C66	C	1.654116	0.873618	0.457657
C67	C	1.090412	0.331141	0.000084
C68	C	1.590412	0.831141	0.500084
C69	C	1.169414	0.599000	0.000070
C70	C	1.669414	1.099000	0.500070
C71	C	1.168002	0.671454	0.000054
C72	C	1.668002	1.171454	0.500054
C73	C	0.999899	0.655098	0.000038
C74	C	1.499899	1.155098	0.500038
C75	C	1.001314	0.582647	0.000047
C76	C	1.501314	1.082647	0.500047
C77	C	1.086073	0.554602	0.000066
C78	C	1.586073	1.054602	0.500066
N79	N	1.089049	-0.096413	-0.188594
N80	N	1.589049	0.403587	0.311406
C81	C	1.151893	-0.049282	0.226855
C82	C	1.651893	0.450718	0.726855
C83	C	1.151899	-0.049279	0.303082
C84	C	1.651899	0.450721	0.803082
C85	C	1.089001	-0.096406	0.341195
C86	C	1.589001	0.403594	0.841195
C87	C	1.026077	-0.143529	0.303074
C88	C	1.526077	0.356471	0.803074
C89	C	1.026067	-0.143526	0.226847
C90	C	1.526067	0.356474	0.726847
C91	C	1.076656	-0.159650	0.461945
C92	C	1.576656	0.340350	0.961945
C93	C	1.076672	-0.159654	0.538170
C94	C	1.576672	0.340346	1.038170
C95	C	1.089027	-0.096415	0.576303
C96	C	1.589027	0.403585	1.076303
C97	C	1.101385	-0.033170	0.538201
C98	C	1.601385	0.466830	1.038201
C99	C	1.101375	-0.033167	0.461974
C100	C	1.601375	0.466833	0.961974
C101	C	1.089005	-0.096415	0.423850
C102	C	1.589005	0.403585	0.923850
C103	C	1.151949	-0.049289	0.697070
C104	C	1.651949	0.450711	1.197070
C105	C	1.151949	-0.049285	0.773299
C106	C	1.651949	0.450715	1.273299
C107	C	1.026131	-0.143541	0.773289
C108	C	1.526131	0.356459	1.273289
C109	C	1.026128	-0.143539	0.697061
C110	C	1.526128	0.356461	1.197061
C111	C	1.089041	-0.096414	0.658956
C112	C	1.589041	0.403586	1.158956
H113	H	1.244568	0.260683	0.000103
H114	H	1.744568	0.760683	0.500103
C115	C	1.225719	0.340647	-0.089009
C116	C	1.725719	0.840647	0.410991
H117	H	1.263444	0.376319	-0.114285
H118	H	1.763444	0.876319	0.385715
H119	H	1.263500	0.316010	-0.058420
H120	H	1.763500	0.816010	0.441580
H121	H	1.194380	0.309277	-0.123127
H122	H	1.694380	0.809277	0.376873
H123	H	0.970893	0.457959	0.077039
H124	H	1.470893	0.957959	0.577039
H125	H	1.066579	-0.211150	0.430904
H126	H	1.566579	0.288850	0.930904
H127	H	0.973456	0.326526	0.077057
H128	H	1.473456	0.826526	0.577057
C129	C	1.063081	-0.229217	0.580079
C130	C	1.563081	0.270783	1.080079
H131	H	1.064868	-0.220163	0.630937
H132	H	1.564868	0.279837	1.130937
H133	H	1.004811	-0.253884	0.567590
H134	H	1.504811	0.246116	1.067590
H135	H	1.111194	-0.256518	0.567571
H136	H	1.611194	0.243482	1.067571
H137	H	0.939597	0.231020	0.000066
H138	H	1.439597	0.731020	0.500066
C139	C	1.221141	0.002552	0.655151
C140	C	1.721141	0.502552	1.155151
H141	H	1.258601	0.030624	0.688770
H142	H	1.758601	0.530624	1.188770
H143	H	1.259421	-0.022496	0.625405
H144	H	1.759421	0.477504	1.125405
H145	H	1.188079	0.031524	0.625427
H146	H	1.688079	0.531524	1.125427
H147	H	0.942147	0.099576	0.000070
H148	H	1.442147	0.599576	0.500070
C149	C	1.259679	0.720290	0.000067
C150	C	1.759679	1.220290	0.500067
H151	H	1.310356	0.693208	0.000086
H152	H	1.810356	1.193208	0.500086
H153	H	1.262639	0.748884	-0.042165
H154	H	1.762639	1.248884	0.457835
H155	H	1.262605	0.748902	0.042301
H156	H	1.762605	1.248902	0.542301
C157	C	1.222758	0.492789	-0.089027
C158	C	1.722758	0.992789	0.410973
H159	H	1.212588	0.540230	-0.082964
H160	H	1.712588	1.040230	0.417036
H161	H	1.284004	0.486859	-0.074107
H162	H	1.784004	0.986859	0.425893
H163	H	1.214885	0.480110	-0.138814
H164	H	1.714885	0.980110	0.361186
C165	C	1.221116	0.002535	0.184940
C166	C	1.721116	0.502535	0.684940
H167	H	1.212115	-0.004220	0.134083
H168	H	1.712115	0.495780	0.634083
H169	H	1.211332	0.048918	0.197435
H170	H	1.711332	0.548918	0.697435
H171	H	1.282621	-0.005142	0.197435
H172	H	1.782621	0.494858	0.697435
C173	C	1.221158	0.002547	0.815223
C174	C	1.721158	0.502547	1.315223
H175	H	1.258628	0.030606	0.781609
H176	H	1.758628	0.530606	1.281609
H177	H	1.188118	0.031520	0.844970
H178	H	1.688118	0.531520	1.344970
H179	H	1.259440	-0.022514	0.844947
H180	H	1.759440	0.477486	1.344947
C181	C	0.909643	0.533806	0.000040
C182	C	1.409643	1.033806	0.500040
H183	H	0.922621	0.486640	0.000037
H184	H	1.422621	0.986640	0.500037
H185	H	0.874865	0.542327	0.042264
H186	H	1.374865	1.042327	0.542264
H187	H	0.874892	0.542312	-0.042201
H188	H	1.374892	1.042312	0.457799
C189	C	1.221106	0.002553	0.345015
C190	C	1.721106	0.502553	0.845015
H191	H	1.258576	0.030616	0.311403
H192	H	1.758576	0.530616	0.811403
H193	H	1.188063	0.031522	0.374765
H194	H	1.688063	0.531522	0.874765
H195	H	1.259391	-0.022509	0.374737
H196	H	1.759391	0.477491	0.874737
C197	C	1.271342	0.121231	0.000117
C198	C	1.771342	0.621231	0.500117
H199	H	1.320774	0.158053	0.000114
H200	H	1.820774	0.658053	0.500114
H201	H	1.275383	0.093315	0.042346
H202	H	1.775383	0.593315	0.542346
H203	H	1.275392	0.093303	-0.042119
H204	H	1.775392	0.593303	0.457881
H205	H	0.974835	-0.181896	0.195816
H206	H	1.474835	0.318104	0.695816
H207	H	1.238430	0.576166	0.000082
H208	H	1.738430	1.076166	0.500082
C209	C	1.114969	0.036396	0.580135
C210	C	1.614969	0.536396	1.080135
H211	H	1.113193	0.027339	0.630990
H212	H	1.613193	0.527339	1.130990
H213	H	1.173231	0.061070	0.567646
H214	H	1.673231	0.561070	1.067646
H215	H	1.066845	0.063690	0.567651
H216	H	1.566845	0.563690	1.067651
H217	H	0.974915	-0.181911	0.804320
H218	H	1.474915	0.318089	1.304320
C219	C	0.956942	-0.195382	0.655132
C220	C	1.456942	0.304618	1.155132
H221	H	0.965942	-0.188630	0.604277
H222	H	1.465942	0.311370	1.104277
H223	H	0.966770	-0.241754	0.667615
H224	H	1.466770	0.258246	1.167615
H225	H	0.895423	-0.187738	0.667630
H226	H	1.395423	0.312262	1.167630
C227	C	0.906675	0.685947	0.000027
C228	C	1.406675	1.185947	0.500027
H229	H	0.917769	0.735455	0.000029
H230	H	1.417769	1.235455	0.500029
H231	H	0.872381	0.670703	-0.042205
H232	H	1.372381	1.170703	0.457795
H233	H	0.872365	0.670725	0.042261
H234	H	1.372365	1.170725	0.542261
C235	C	0.956894	-0.195370	0.344994
C236	C	1.456894	0.304630	0.844994
H237	H	0.965917	-0.188628	0.395851
H238	H	1.465917	0.311372	0.895851
H239	H	0.895378	-0.187723	0.332515
H240	H	1.395378	0.312277	0.832515
H241	H	0.966717	-0.241745	0.332486
H242	H	1.466717	0.258255	0.832486
H243	H	1.111435	0.018329	0.430955
H244	H	1.611435	0.518329	0.930955
