data_functionalizedCrystal
_audit_creation_method	'MofGen! by Chris Wilmer'
_symmetry_space_group_name_H-M	'P1'
_symmetry_Int_Tables_number	1
_symmetry_cell_setting	triclinic
loop_
_symmetry_equiv_pos_as_xyz
  x,y,z
_cell_length_a	10.654556
_cell_length_b	13.262508
_cell_length_c	9.730223
_cell_angle_alpha	105.913923
_cell_angle_beta	89.998368
_cell_angle_gamma	84.460031
loop_
_atom_site_label
_atom_site_type_symbol
_atom_site_fract_x
_atom_site_fract_y
_atom_site_fract_z
O1	O	1.667066	0.147454	-0.059115
O2	O	1.301516	0.161492	-0.053881
O3	O	1.493490	0.001752	-0.113581
O4	O	1.475092	0.307194	0.000584
O5	O	1.493477	0.001748	0.114998
O6	O	1.301503	0.161488	0.174697
O7	O	1.667054	0.147449	0.169463
Zn8	Zn	1.484277	0.154468	0.208372
Zn9	Zn	1.484293	0.154474	-0.092790
O10	O	1.475080	0.307189	0.229162
C11	C	1.254717	0.160458	0.060020
C12	C	1.115290	0.157370	0.058861
C13	C	0.918774	0.153024	-0.067352
C14	C	1.049781	0.155919	-0.066278
C15	C	1.049787	0.155914	0.182930
C16	C	0.918783	0.153012	0.181852
C17	C	1.492453	-0.037361	-0.013913
C18	C	1.489368	-0.153898	-0.057480
C19	C	1.480639	-0.482420	0.318119
C20	C	1.483528	-0.372926	0.359054
C21	C	1.484988	-0.318164	0.254924
C22	C	1.483560	-0.372906	0.109852
C23	C	1.480661	-0.482409	0.068913
C24	C	1.485010	-0.318153	0.005718
C25	C	1.483581	-0.372895	-0.139354
C26	C	1.480684	-0.482387	-0.180286
C27	C	1.479223	-0.537150	-0.076156
C28	C	1.487909	-0.208650	0.046657
C29	C	1.487930	-0.208639	-0.202549
C30	C	1.485042	-0.318132	-0.243484
C31	C	1.713853	0.148484	0.055559
C32	C	1.853279	0.151572	0.056709
C33	C	1.476116	0.346302	0.129492
C34	C	1.479201	0.462839	0.173050
N35	N	1.484275	0.154463	0.413906
N36	N	1.484305	0.154470	-0.298328
C37	C	1.569310	0.083761	0.459409
C38	C	1.569322	0.083761	0.603292
C39	C	1.399261	0.225176	0.656161
C40	C	1.399243	0.225170	0.512278
H41	H	1.103102	0.157100	-0.167302
H42	H	1.489111	-0.164051	-0.287341
H43	H	0.865456	0.151828	0.282884
C44	C	1.483459	-0.378361	-0.403061
N45	N	1.482265	-0.423727	-0.523254
H46	H	1.479441	-0.527016	0.402886
H47	H	1.484704	-0.328365	0.477171
H48	H	0.865445	0.151851	-0.169252
C49	C	1.305751	0.303001	0.462243
N50	N	1.235354	0.361636	0.424561
H51	H	1.487338	-0.229009	0.288263
C52	C	1.121844	0.157554	0.320601
N53	N	1.176114	0.158809	0.424306
H54	H	1.330032	0.282745	0.736270
H55	H	1.489061	-0.164088	0.164776
H56	H	1.638546	0.026186	0.379316
C57	C	1.476041	-0.657600	-0.121178
N58	N	1.473642	-0.748324	-0.155085
C59	C	1.479178	-0.542607	-0.339873
N60	N	1.478074	-0.587966	-0.460075
H61	H	1.638564	0.026187	0.640333
