data_functionalizedCrystal
_audit_creation_method	'MofGen! by Chris Wilmer'
_symmetry_space_group_name_H-M	'P1'
_symmetry_Int_Tables_number	1
_symmetry_cell_setting	triclinic
loop_
_symmetry_equiv_pos_as_xyz
  x,y,z
_cell_length_a	18.050591
_cell_length_b	19.120786
_cell_length_c	18.050582
_cell_angle_alpha	92.465003
_cell_angle_beta	90.020922
_cell_angle_gamma	92.460873
loop_
_atom_site_label
_atom_site_type_symbol
_atom_site_fract_x
_atom_site_fract_y
_atom_site_fract_z
Zn1	Zn	1.122689	-0.279748	0.407398
Zn2	Zn	1.622689	0.220252	0.907398
Zn3	Zn	1.117309	-0.397198	0.277904
Zn4	Zn	1.617309	0.102802	0.777904
Zn5	Zn	0.998508	-0.279751	0.283209
Zn6	Zn	1.498508	0.220249	0.783209
Zn7	Zn	0.993167	-0.397160	0.402042
Zn8	Zn	1.493167	0.102840	0.902042
O9	O	1.057918	-0.338464	0.342638
O10	O	1.557918	0.161536	0.842638
O11	O	1.225899	-0.295342	0.390242
O12	O	1.725899	0.204658	0.890242
O13	O	1.101533	-0.381635	0.174683
O14	O	1.601533	0.118365	0.674683
O15	O	1.019469	-0.181461	0.304145
O16	O	1.519469	0.318539	0.804145
O17	O	1.221946	-0.381632	0.295104
O18	O	1.721946	0.118368	0.795104
O19	O	1.110704	-0.181458	0.395386
O20	O	1.610704	0.318542	0.895386
O21	O	1.014251	-0.295347	0.178580
O22	O	1.514251	0.204653	0.678580
O23	O	0.893876	-0.295311	0.298951
O24	O	1.393876	0.204689	0.798951
O25	O	1.010365	-0.381569	0.506677
O26	O	1.510365	0.118431	1.006677
O27	O	0.889951	-0.381571	0.386256
O28	O	1.389951	0.118429	0.886256
O29	O	1.105524	-0.295306	0.510613
O30	O	1.605524	0.204694	1.010613
O31	O	1.096354	-0.495482	0.289909
O32	O	1.596354	0.004518	0.789909
O33	O	1.005147	-0.495455	0.381112
O34	O	1.505147	0.004545	0.881112
C35	C	0.864967	-0.338438	0.342598
C36	C	1.364967	0.161562	0.842598
C37	C	0.782421	-0.338444	0.342598
C38	C	1.282421	0.161556	0.842598
C39	C	0.585086	-0.291481	0.295238
C40	C	1.085086	0.208519	0.795238
C41	C	0.532780	-0.355544	0.274069
C42	C	1.032780	0.144456	0.774069
C43	C	0.631290	-0.338465	0.342631
C44	C	1.131290	0.161535	0.842631
C45	C	0.536513	-0.274424	0.363797
C46	C	1.036513	0.225576	0.863797
C47	C	0.485304	-0.338480	0.342661
C48	C	0.985304	0.161520	0.842661
C49	C	0.580070	-0.402562	0.321425
C50	C	1.080070	0.097438	0.821425
C51	C	0.583809	-0.321399	0.411186
C52	C	1.083809	0.178601	0.911186
C53	C	0.531524	-0.385506	0.390041
C54	C	1.031524	0.114494	0.890041
C55	C	0.715389	-0.338455	0.342612
C56	C	1.215389	0.161545	0.842612
C57	C	0.401207	-0.338497	0.342680
C58	C	0.901207	0.161503	0.842680
C59	C	1.049607	-0.520954	0.334370
C60	C	1.549607	-0.020954	0.834370
C61	C	1.046119	-0.599024	0.330858
C62	C	1.546119	-0.099024	0.830858
C63	C	1.091947	-0.635640	0.376751
C64	C	1.591947	-0.135640	0.876751
C65	C	1.088667	-0.708995	0.373452
C66	C	1.588667	-0.208995	0.873452
C67	C	1.039563	-0.745733	0.324256
C68	C	1.539563	-0.245733	0.824256
C69	C	0.993730	-0.709112	0.278361
C70	C	1.493730	-0.209112	0.778361
C71	C	0.997007	-0.635758	0.281664
C72	C	1.497007	-0.135758	0.781664
C73	C	1.027291	-0.967217	0.311907
C74	C	1.527291	-0.467217	0.811907
C75	C	1.024019	-1.040576	0.308606
C76	C	1.524019	-0.540576	0.808606
C77	C	1.118955	-1.040454	0.403698
C78	C	1.618955	-0.540454	0.903698
C79	C	1.122231	-0.967099	0.406994
C80	C	1.622231	-0.467099	0.906994
C81	C	1.076395	-0.930484	0.361102
C82	C	1.576395	-0.430484	0.861102
C83	C	1.036210	-0.820713	0.320881
C84	C	1.536210	-0.320713	0.820881
C85	C	1.079744	-0.855505	0.364481
C86	C	1.579744	-0.355505	0.864481
C87	C	1.251623	-0.338491	0.342679
C88	C	1.751623	0.161509	0.842679
C89	C	1.334168	-0.338502	0.342696
C90	C	1.834168	0.161498	0.842696
C91	C	1.057949	-0.338433	0.536345
C92	C	1.557949	0.161567	1.036345
C93	C	1.057962	-0.338420	0.618892
C94	C	1.557962	0.161580	1.118892
C95	C	1.066282	-0.155262	0.350955
C96	C	1.566282	0.344738	0.850955
C97	C	1.069846	-0.077191	0.354499
C98	C	1.569846	0.422809	0.854499
C99	C	1.057933	-0.338444	0.149687
C100	C	1.557933	0.161556	0.649687
C101	C	1.058073	-0.338260	0.067150
C102	C	1.558073	0.161740	0.567150
C103	C	1.006255	-0.385265	0.816205
C104	C	1.506255	0.114735	1.316205
C105	C	1.073236	-0.402439	0.864828
C106	C	1.573236	0.097561	1.364828
C107	C	1.058001	-0.338366	0.770025
C108	C	1.558001	0.161634	1.270025
C109	C	0.991057	-0.321173	0.868484
C110	C	1.491057	0.178827	1.368484
C111	C	1.058032	-0.338316	0.916012
C112	C	1.558032	0.161684	1.416012
C113	C	1.125016	-0.355573	0.817559
C114	C	1.625016	0.144427	1.317559
C115	C	1.042793	-0.274278	0.821212
C116	C	1.542793	0.225722	1.321212
C117	C	1.109822	-0.291427	0.869814
C118	C	1.609822	0.208573	1.369814
C119	C	1.057981	-0.338397	0.685925
C120	C	1.557981	0.161603	1.185925
C121	C	1.058059	-0.338285	1.000110
C122	C	1.558059	0.161715	1.500110
H123	H	0.599207	-0.456743	0.303471
H124	H	1.099207	0.043257	0.803471
H125	H	1.153644	-0.251744	0.893146
H126	H	1.653644	0.248256	1.393146
H127	H	0.996232	-0.850634	0.280823
H128	H	1.496232	-0.350634	0.780823
H129	H	0.508210	-0.425291	0.430130
H130	H	1.008210	0.074709	0.930130
C131	C	0.592236	-0.234745	0.511455
C132	C	1.092236	0.265255	1.011455
C133	C	0.614067	-0.301872	0.489411
C134	C	1.114067	0.198128	0.989411
H135	H	0.610922	-0.222684	0.559746
H136	H	1.110922	0.277316	1.059746
H137	H	0.539647	-0.234189	0.511946
H138	H	1.039647	0.265811	1.011946
H139	H	0.611346	-0.201835	0.477626
H140	H	1.111346	0.298165	0.977626
H141	H	0.594952	-0.334783	0.523237
H142	H	1.094952	0.165217	1.023237
H143	H	0.666667	-0.302433	0.488925
H144	H	1.166667	0.197567	0.988925
H145	H	1.181657	-0.370156	0.795304
H146	H	1.681657	0.129844	1.295304
H147	H	0.984029	-1.070485	0.268544
H148	H	1.484029	-0.570485	0.768544
C149	C	0.537673	-0.152189	0.338226
C150	C	1.037673	0.347811	0.838226
C151	C	0.510556	-0.201305	0.387955
C152	C	1.010556	0.298695	0.887955
H153	H	0.521653	-0.107048	0.353139
H154	H	1.021653	0.392952	0.853139
H155	H	0.519435	-0.164640	0.289868
H156	H	1.019435	0.335360	0.789868
H157	H	0.590323	-0.151562	0.337954
H158	H	1.090323	0.348438	0.837954
H159	H	0.457906	-0.201936	0.388222
H160	H	0.957906	0.298064	0.888222
H161	H	0.528791	-0.188851	0.436325
H162	H	1.028791	0.311149	0.936325
C163	C	1.031573	-0.501476	0.933424
C164	C	1.531573	-0.001476	1.433424
C165	C	1.090624	-0.475572	0.890830
C166	C	1.590624	0.024428	1.390830
H167	H	1.042306	-0.546625	0.949478
H168	H	1.542306	-0.046625	1.449478
H169	H	0.987613	-0.504662	0.904319
H170	H	1.487613	-0.004662	1.404319
H171	H	1.024760	-0.470714	0.975372
H172	H	1.524760	0.029286	1.475372
H173	H	1.097434	-0.506332	0.848879
H174	H	1.597434	-0.006332	1.348879
H175	H	1.134597	-0.472391	0.919937
H176	H	1.634597	0.027609	1.419937
H177	H	1.131936	-0.605733	0.416808
H178	H	1.631936	-0.105733	0.916808
C179	C	0.884713	-0.356290	0.939939
C180	C	1.384713	0.143710	1.439939
C181	C	0.914616	-0.301565	0.898647
C182	C	1.414616	0.198435	1.398647
H183	H	0.837519	-0.344190	0.958554
H184	H	1.337519	0.155810	1.458554
H185	H	0.916864	-0.364055	0.980155
H186	H	1.416864	0.135945	1.480155
H187	H	0.879466	-0.397738	0.909105
H188	H	1.379466	0.102262	1.409105
H189	H	0.919868	-0.260118	0.929483
H190	H	1.419868	0.239882	1.429483
H191	H	0.882458	-0.293792	0.858426
H192	H	1.382458	0.206208	1.358426
C193	C	1.182861	-0.701507	0.467749
C194	C	1.682861	-0.201507	0.967749
C195	C	1.139058	-0.749243	0.423883
C196	C	1.639058	-0.249243	0.923883
H197	H	1.213978	-0.726356	0.498877
H198	H	1.713978	-0.226356	0.998877
H199	H	1.151770	-0.672913	0.497423
H200	H	1.651770	-0.172913	0.997423
H201	H	1.212552	-0.672884	0.436694
H202	H	1.712552	-0.172884	0.936694
H203	H	1.109363	-0.777862	0.454938
H204	H	1.609363	-0.277862	0.954938
H205	H	1.170153	-0.777849	0.394206
H206	H	1.670153	-0.277849	0.894206
H207	H	1.162215	-0.937188	0.447053
H208	H	1.662215	-0.437188	0.947053
H209	H	1.029890	-0.220116	0.801941
H210	H	1.529890	0.279884	1.301941
H211	H	0.510391	-0.369990	0.216106
H212	H	1.010391	0.130010	0.716106
H213	H	1.156270	-1.070273	0.441062
H214	H	1.656270	-0.570273	0.941062
H215	H	0.989971	-0.937411	0.274539
H216	H	1.489971	-0.437411	0.774539
C217	C	0.946560	-0.821610	0.231067
C218	C	1.446560	-0.321610	0.731067
C219	C	0.939756	-0.749492	0.224281
C220	C	1.439756	-0.249492	0.724281
H221	H	0.913242	-0.846537	0.197674
H222	H	1.413242	-0.346537	0.697674
H223	H	0.935119	-0.833614	0.280407
H224	H	1.435119	-0.333614	0.780407
H225	H	0.995934	-0.833590	0.219711
H226	H	1.495934	-0.333590	0.719711
H227	H	0.890383	-0.737511	0.235643
H228	H	1.390383	-0.237511	0.735643
H229	H	0.951192	-0.737484	0.174930
H230	H	1.451192	-0.237484	0.674930
C231	C	0.902840	-0.643242	0.187337
C232	C	1.402840	-0.143242	0.687337
C233	C	0.946632	-0.595507	0.231218
C234	C	1.446632	-0.095507	0.731218
H235	H	0.871741	-0.618391	0.156193
H236	H	1.371741	-0.118391	0.656193
H237	H	0.873138	-0.671858	0.218377
H238	H	1.373138	-0.171858	0.718377
H239	H	0.933946	-0.671841	0.157673
H240	H	1.433946	-0.171841	0.657673
H241	H	0.915527	-0.566910	0.260886
H242	H	1.415527	-0.066910	0.760886
H243	H	0.976337	-0.566879	0.200174
H244	H	1.476337	-0.066879	0.700174
H245	H	0.608531	-0.251791	0.255112
H246	H	1.108531	0.248209	0.755112
C247	C	0.895313	-0.404323	0.743381
C248	C	1.395313	0.095677	1.243381
C249	C	0.947230	-0.438871	0.784514
C250	C	1.447230	0.061129	1.284514
H251	H	0.858875	-0.437418	0.723820
H252	H	1.358875	0.062582	1.223820
H253	H	0.919699	-0.381620	0.703838
H254	H	1.419699	0.118380	1.203838
H255	H	0.872147	-0.370509	0.774596
H256	H	1.372147	0.129491	1.274596
H257	H	0.970400	-0.472681	0.753298
H258	H	1.470400	0.027319	1.253298
H259	H	0.922841	-0.461586	0.824062
H260	H	1.422841	0.038414	1.324062
H261	H	1.119722	-0.825591	0.404539
H262	H	1.619722	-0.325591	0.904539
