data_functionalizedCrystal
_audit_creation_method	'MofGen! by Chris Wilmer'
_symmetry_space_group_name_H-M	'P1'
_symmetry_Int_Tables_number	1
_symmetry_cell_setting	triclinic
loop_
_symmetry_equiv_pos_as_xyz
  x,y,z
_cell_length_a	14.560438
_cell_length_b	14.560438
_cell_length_c	14.560438
_cell_angle_alpha	60.004541
_cell_angle_beta	90.000534
_cell_angle_gamma	59.999446
loop_
_atom_site_label
_atom_site_type_symbol
_atom_site_fract_x
_atom_site_fract_y
_atom_site_fract_z
Zr1	Zr	0.884787	1.005217	-0.120419
O2	O	0.738143	1.196809	-0.267050
O3	O	0.929738	0.813625	-0.075482
O4	O	0.929742	1.005216	-0.267066
O5	O	0.738139	1.005219	0.075674
O6	O	1.080882	1.005215	-0.267064
O7	O	0.738139	1.005219	-0.075465
O8	O	1.080875	0.662494	0.075645
O9	O	0.738146	1.347940	-0.267035
O10	O	1.061707	0.892428	-0.056300
O11	O	0.948913	0.892430	0.056493
O12	O	0.948918	1.118003	-0.169073
O13	O	0.836124	1.118005	-0.056281
Zr14	Zr	1.125839	1.005215	0.120634
Zr15	Zr	1.125838	1.005215	-0.120416
Zr16	Zr	0.884787	1.005218	0.120631
Zr17	Zr	0.884793	1.246253	-0.120396
Zr18	Zr	1.125833	0.764179	0.120610
O19	O	1.080888	1.196807	0.075696
O20	O	1.080887	1.196806	-0.267046
O21	O	0.738144	1.196810	0.075692
O22	O	1.272483	0.813623	0.267264
O23	O	1.272482	0.813622	-0.075478
O24	O	0.929739	0.813626	0.267260
O25	O	1.272486	1.005213	-0.075459
O26	O	1.080884	1.005216	0.267280
O27	O	0.929743	1.005217	0.267279
O28	O	1.272487	1.005214	0.075680
O29	O	0.929750	1.347938	-0.267033
O30	O	1.080876	0.662494	0.267247
O31	O	1.272479	0.662492	0.267250
O32	O	1.272479	0.662492	0.075647
O33	O	0.738147	1.347940	-0.075433
O34	O	0.929750	1.347939	-0.075430
O35	O	1.061708	0.892429	0.169288
O36	O	1.174502	0.892428	0.056495
O37	O	1.061712	1.118003	-0.056278
O38	O	0.948918	1.118004	0.056514
C39	C	1.005306	0.703717	0.000078
C40	C	1.005304	0.601391	0.000069
C41	C	0.922055	0.540361	-0.083134
C42	C	0.922043	0.636537	-0.083171
C43	C	1.088575	0.470058	0.083357
C44	C	1.088582	0.373884	0.083397
C45	C	0.825912	0.636478	-0.179280
C46	C	0.825900	0.732654	-0.179317
C47	C	0.703795	1.005219	0.000104
C48	C	0.601462	1.005220	0.000103
C49	C	0.553386	1.005223	-0.083163
C50	C	0.457238	1.005214	-0.083157
C51	C	0.457249	1.005206	0.083386
C52	C	0.553399	1.005205	0.083383
C53	C	0.363670	0.929538	-0.145357
C54	C	0.315580	0.929563	-0.228639
C55	C	0.308934	1.005259	-0.339999
C56	C	0.350362	1.080962	-0.368098
C57	C	0.398442	1.080948	-0.284821
C58	C	0.405104	1.005222	-0.173448
C59	C	0.646963	1.080892	0.145573
C60	C	0.695040	1.080888	0.228846
C61	C	0.701684	1.005200	0.340210
C62	C	0.660244	0.929517	0.368308
C63	C	0.612166	0.929521	0.285035
C64	C	0.605530	1.005207	0.173671
C65	C	1.306831	1.005213	0.000111
C66	C	1.409164	1.005212	0.000112
C67	C	1.005312	1.005216	-0.301409
C68	C	1.005312	1.005215	-0.403741
C69	C	1.005320	1.306715	0.000136
C70	C	1.005322	1.409041	0.000146
C71	C	0.922049	1.005211	-0.451813
C72	C	0.922047	1.005216	-0.547968
C73	C	1.088581	1.005226	-0.547968
C74	C	1.088577	1.005229	-0.451819
C75	C	0.825905	1.005200	-0.451811
C76	C	0.825903	1.005205	-0.547966
C77	C	1.005313	1.005217	0.301624
C78	C	1.005314	1.005217	0.403956
C79	C	1.306824	0.703714	0.000082
C80	C	1.409155	0.601387	0.000073
C81	C	1.005307	0.703718	0.301595
C82	C	1.005304	0.601392	0.403917
C83	C	1.306825	0.703715	0.301598
C84	C	1.409155	0.601388	0.403922
C85	C	0.703801	1.306717	-0.301384
C86	C	0.601470	1.409044	-0.403707
C87	C	0.703801	1.306718	0.000133
C88	C	0.601471	1.409045	0.000141
C89	C	1.005319	1.306715	-0.301380
C90	C	1.005321	1.409040	-0.403703
C91	C	1.398355	0.553311	-0.058805
C92	C	1.494509	0.457171	-0.058817
C93	C	1.612259	0.457189	0.058937
C94	C	1.516106	0.553334	0.058941
C95	C	1.330374	0.553295	-0.126786
C96	C	1.426528	0.457156	-0.126797
C97	C	1.064183	0.553314	0.510866
C98	C	1.064172	0.457173	0.607005
C99	C	0.946403	0.457193	0.489232
C100	C	0.946408	0.553339	0.393096
C101	C	1.132180	0.553297	0.578862
C102	C	1.132169	0.457157	0.675001
C103	C	1.516108	0.553310	0.393120
C104	C	1.612254	0.457169	0.489268
C105	C	1.494482	0.457190	0.607015
C106	C	1.398338	0.553335	0.510869
C107	C	1.584104	0.553293	0.325140
C108	C	1.680250	0.457153	0.421288
H109	H	0.834183	0.795640	-0.261443
O110	O	1.268262	0.660596	-0.234236
C111	C	1.251620	0.759446	-0.430036
C112	C	1.322080	0.637855	-0.308406
H113	H	1.295092	0.741093	-0.490038
H114	H	1.242934	0.845594	-0.437937
H115	H	1.164616	0.781640	-0.452181
H116	H	1.409120	0.615542	-0.286181
H117	H	1.330672	0.551779	-0.300569
H118	H	1.699348	0.418053	0.106865
H119	H	0.281853	0.867917	-0.205751
H120	H	1.584123	0.643300	0.272951
H121	H	1.222195	0.367137	0.727192
O122	O	0.846116	0.893882	-0.360518
C123	C	0.966763	0.705882	-0.171637
C124	C	0.944031	0.831891	-0.274959
H125	H	1.045913	0.655740	-0.102427
H126	H	0.978970	0.638449	-0.196182
H127	H	0.892174	0.730225	-0.139785
H128	H	1.018586	0.807669	-0.306861
H129	H	0.931777	0.899288	-0.250353
H130	H	1.731173	0.493282	0.430014
H131	H	1.156361	0.441448	0.151138
O132	O	1.526396	0.600212	0.116043
C133	C	1.430455	0.748254	0.168320
C134	C	1.418638	0.695309	0.103574
H135	H	1.343346	0.825129	0.158281
H136	H	1.478330	0.793365	0.133433
H137	H	1.478451	0.665380	0.261257
H138	H	1.370617	0.778110	0.010628
H139	H	1.370807	0.650159	0.138552
H140	H	1.311255	0.592489	0.519673
H141	H	0.749424	0.792325	-0.162522
H142	H	1.087315	0.493286	0.725927
O143	O	1.235965	0.510203	0.568286
C144	C	1.350053	0.472124	0.454548
C145	C	1.232468	0.520934	0.466401
H146	H	1.347259	0.480808	0.372168
H147	H	1.412933	0.366184	0.528005
H148	H	1.377002	0.533336	0.454669
H149	H	1.205415	0.459818	0.466251
H150	H	1.169659	0.626892	0.392946
O151	O	1.484179	0.410322	0.710987
C152	C	1.580097	0.262278	0.911290
C153	C	1.591931	0.315218	0.793613
H154	H	1.667201	0.185397	0.978126
H155	H	1.532215	0.217177	0.921495
H156	H	1.532101	0.345153	0.921363
H157	H	1.639952	0.232415	0.783460
H158	H	1.639768	0.360357	0.783462
H159	H	0.743785	1.095594	-0.470912
O160	O	1.169416	1.005131	-0.404908
C161	C	1.210509	1.116220	-0.351456
C162	C	1.118779	1.116733	-0.404822
H163	H	1.169602	1.206426	-0.351348
H164	H	1.270211	1.116157	-0.402118
H165	H	1.259628	1.025630	-0.261313
H166	H	1.069577	1.207307	-0.494960
H167	H	1.059154	1.116727	-0.354077
O168	O	1.426392	0.349839	-0.081598
C169	C	1.329468	0.250956	0.000635
C170	C	1.329489	0.372565	-0.050511
H171	H	1.251118	0.269297	0.025761
H172	H	1.407715	0.164824	0.078091
H173	H	1.329525	0.228747	-0.064166
H174	H	1.329393	0.394894	0.014206
H175	H	1.251249	0.458626	-0.127990
O176	O	1.573887	0.510013	0.264485
C177	C	1.653091	0.330135	0.249088
C178	C	1.664813	0.378988	0.317874
H179	H	1.726581	0.224188	0.292237
H180	H	1.653218	0.391278	0.160914
H181	H	1.570738	0.338757	0.243225
H182	H	1.747160	0.370369	0.323826
H183	H	1.664620	0.317838	0.406009
H184	H	0.898450	0.592493	0.306016
H185	H	0.749428	1.098475	-0.624417
H186	H	1.156373	1.005238	-0.587124
H187	H	0.834189	0.914805	-0.528867
O188	O	0.889288	0.410333	0.478925
C189	C	0.837003	0.262308	0.574831
C190	C	0.901758	0.315233	0.586669
H191	H	0.847042	0.185430	0.661928
H192	H	0.871888	0.217205	0.526944
H193	H	0.744061	0.345190	0.526841
H194	H	0.994708	0.232422	0.634682
H195	H	0.866782	0.360373	0.634511
O196	O	1.086948	0.660822	0.578679
C197	C	0.940035	0.888904	0.481813
C198	C	0.991160	0.767243	0.481872
H199	H	0.862568	0.974970	0.403565
H200	H	1.004780	0.911195	0.481749
H201	H	0.914869	0.870585	0.560139
H202	H	1.016322	0.785468	0.403559
H203	H	0.926383	0.744988	0.481994
H204	H	1.732442	0.367129	0.421282
H205	H	0.743795	0.647305	-0.170986
O206	O	1.169435	0.246364	0.164446
C207	C	1.255756	0.074669	0.362741
C208	C	1.164155	0.219118	0.271066
H209	H	1.251502	0.052589	0.448963
H210	H	1.342054	0.052462	0.358692
H211	H	1.241473	0.011990	0.348423
H212	H	1.178331	0.281893	0.285324
H213	H	1.077888	0.241221	0.275139
O214	O	0.845921	0.636652	-0.270580
C215	C	0.883681	0.735376	-0.442099
C216	C	0.861003	0.735345	-0.338773
H217	H	0.895905	0.815143	-0.497250
H218	H	0.809145	0.753753	-0.492413
H219	H	0.962868	0.637177	-0.413081
H220	H	0.781853	0.833518	-0.367694
H221	H	0.935601	0.716896	-0.288482
H222	H	0.592517	1.005232	-0.150974
H223	H	0.369095	0.867878	-0.054678
O224	O	0.438512	1.154639	-0.312091
C225	C	0.426102	1.328161	-0.316358
C226	C	0.380600	1.244819	-0.285438
H227	H	0.379316	1.401074	-0.294800
H228	H	0.413042	1.382375	-0.410270
H229	H	0.519704	1.262659	-0.266818
H230	H	0.286991	1.310228	-0.334902
H231	H	0.393747	1.190593	-0.191510
H232	H	1.279458	0.517162	-0.081928
H233	H	0.344929	1.142611	-0.458783
O234	O	0.410383	1.005259	0.164164
C235	C	0.262299	1.005186	0.238015
C236	C	0.315244	1.005151	0.146453
H237	H	0.185383	1.005071	0.223741
H238	H	0.235928	1.095606	0.233886
H239	H	0.326451	0.914804	0.324260
H240	H	0.251151	1.095471	0.060165
H241	H	0.341640	0.914671	0.150682
O242	O	0.571991	0.855900	0.312523
C243	C	0.542436	0.705864	0.459613
C244	C	0.588015	0.789138	0.428647
H245	H	0.555353	0.651886	0.553495
H246	H	0.589266	0.632750	0.438271
H247	H	0.448861	0.771392	0.409967
H248	H	0.681580	0.723713	0.478275
H249	H	0.541101	0.862263	0.449962
H250	H	0.269772	1.005278	-0.407808
H251	H	0.665650	0.867890	0.458989
H252	H	0.740824	1.005214	0.408009
H253	H	0.728772	1.142528	0.205958
H254	H	1.435254	0.493290	-0.213847
H255	H	0.641562	1.142523	0.054892
