data_functionalizedCrystal
_audit_creation_method	'MofGen! by Chris Wilmer'
_symmetry_space_group_name_H-M	'P1'
_symmetry_Int_Tables_number	1
_symmetry_cell_setting	triclinic
loop_
_symmetry_equiv_pos_as_xyz
  x,y,z
_cell_length_a	17.699077
_cell_length_b	23.532407
_cell_length_c	16.776229
_cell_angle_alpha	89.988688
_cell_angle_beta	89.993415
_cell_angle_gamma	83.064627
loop_
_atom_site_label
_atom_site_type_symbol
_atom_site_fract_x
_atom_site_fract_y
_atom_site_fract_z
O1	O	1.003716	0.072004	-0.066286
O2	O	1.503716	0.572004	0.433714
O3	O	0.783289	0.081377	-0.066291
O4	O	1.283289	0.581377	0.433709
O5	O	0.900150	-0.006222	-0.066274
O6	O	1.400150	0.493778	0.433726
O7	O	0.886856	0.159603	-0.066303
O8	O	1.386856	0.659603	0.433697
O9	O	0.900134	-0.006228	0.066303
O10	O	1.400134	0.493772	0.566303
O11	O	0.783274	0.081372	0.066286
O12	O	1.283274	0.581372	0.566286
O13	O	1.003701	0.071998	0.066291
O14	O	1.503701	0.571998	0.566291
Zn15	Zn	0.893485	0.076684	0.087338
Zn16	Zn	1.393485	0.576684	0.587338
Zn17	Zn	0.893505	0.076691	-0.087338
Zn18	Zn	1.393505	0.576691	0.412662
O19	O	0.886840	0.159598	0.066273
O20	O	1.386840	0.659598	0.566273
C21	C	0.755086	0.081039	-0.000003
C22	C	1.255086	0.581039	0.499997
C23	C	0.671073	0.080033	-0.000004
C24	C	1.171073	0.580033	0.499996
C25	C	0.631600	0.079556	0.072264
C26	C	1.131600	0.579556	0.572264
C27	C	0.552662	0.078602	0.072265
C28	C	1.052662	0.578602	0.572265
C29	C	0.513198	0.078129	-0.000003
C30	C	1.013198	0.578129	0.499997
C31	C	0.552678	0.078604	-0.072277
C32	C	1.052678	0.578604	0.427723
C33	C	0.631615	0.079554	-0.072277
C34	C	1.131615	0.579554	0.427723
C35	C	0.234334	0.074772	-0.072278
C36	C	0.734334	0.574772	0.427722
C37	C	0.155391	0.073823	-0.072272
C38	C	0.655391	0.573823	0.427728
C39	C	0.155381	0.073820	0.072265
C40	C	0.655381	0.573820	0.572265
C41	C	0.234318	0.074770	0.072264
C42	C	0.734318	0.574770	0.572264
C43	C	0.273791	0.075242	-0.000009
C44	C	0.773791	0.575242	0.499991
C45	C	0.359384	0.076275	-0.000009
C46	C	0.859384	0.576275	0.499991
C47	C	0.427606	0.077099	-0.000004
C48	C	0.927606	0.577099	0.499996
C49	C	0.899803	-0.027442	0.000017
C50	C	1.399803	0.472558	0.500017
C51	C	0.898786	-0.090662	0.000023
C52	C	1.398786	0.409338	0.500023
C53	C	0.961557	-0.489586	-0.000019
C54	C	1.461557	0.010414	0.499981
C55	C	0.960612	-0.548989	-0.000025
C56	C	1.460612	-0.048989	0.499975
O57	O	1.018802	-0.585567	-0.000054
O58	O	1.518802	-0.085567	0.499946
N59	N	0.891138	-0.571813	-0.000026
N60	N	1.391138	-0.071813	0.499974
C61	C	0.822606	-0.535231	-0.000030
C62	C	1.322606	-0.035231	0.499970
O63	O	0.763427	-0.560100	-0.000032
O64	O	1.263427	-0.060100	0.499968
C65	C	0.823552	-0.475830	-0.000029
C66	C	1.323552	0.024170	0.499971
C67	C	0.893030	-0.453009	-0.000020
C68	C	1.393030	0.046991	0.499980
C69	C	1.031029	-0.466764	-0.000011
C70	C	1.531029	0.033236	0.499989
C71	C	1.031975	-0.407365	-0.000004
C72	C	1.531975	0.092635	0.499996
C73	C	0.963448	-0.370788	-0.000004
C74	C	1.463448	0.129212	0.499996
C75	C	0.893975	-0.393610	-0.000012
C76	C	1.393975	0.106390	0.499988
C77	C	0.755021	-0.439249	-0.000038
C78	C	1.255021	0.060751	0.499962
C79	C	0.755973	-0.379844	-0.000038
C80	C	1.255973	0.120156	0.499962
C81	C	0.825451	-0.357023	-0.000029
C82	C	1.325451	0.142977	0.499971
C83	C	0.826393	-0.297634	-0.000006
C84	C	1.326393	0.202366	0.499994
N85	N	0.895867	-0.274809	-0.000005
N86	N	1.395867	0.225191	0.499995
C87	C	0.964394	-0.311386	-0.000004
C88	C	1.464394	0.188614	0.499996
C89	C	0.820624	-0.659980	-0.000032
C90	C	1.320624	-0.159980	0.499968
C91	C	0.819677	-0.719380	-0.000026
C92	C	1.319677	-0.219380	0.499974
C93	C	0.957683	-0.733133	-0.000024
C94	C	1.457683	-0.233133	0.499976
C95	C	0.958629	-0.673732	-0.000023
C96	C	1.458629	-0.173732	0.499977
C97	C	0.890097	-0.637155	-0.000031
C98	C	1.390097	-0.137155	0.499969
C99	C	0.966374	-0.186644	0.000013
C100	C	1.466374	0.313356	0.500013
C101	C	0.967313	-0.127239	0.000023
C102	C	1.467313	0.372761	0.500023
C103	C	0.829307	-0.113491	0.000017
C104	C	1.329307	0.386509	0.500017
C105	C	0.828368	-0.172891	0.000010
C106	C	1.328368	0.327109	0.500010
C107	C	0.896907	-0.209466	0.000005
C108	C	1.396907	0.290534	0.500005
O109	O	0.768234	-0.261021	0.000019
O110	O	1.268234	0.238979	0.500019
O111	O	1.023563	-0.286509	-0.000012
O112	O	1.523563	0.213491	0.499988
C113	C	1.031904	0.072336	0.000001
C114	C	1.531904	0.572336	0.500001
C115	C	1.115917	0.073342	-0.000003
C116	C	1.615917	0.573342	0.499997
C117	C	0.887187	0.180817	-0.000019
C118	C	1.387187	0.680817	0.499981
C119	C	0.888204	0.244037	-0.000030
C120	C	1.388204	0.744037	0.499970
N121	N	0.893477	0.076679	0.206549
N122	N	1.393477	0.576679	0.706549
N123	N	0.893519	0.076692	-0.206549
N124	N	1.393519	0.576692	0.293451
C125	C	0.945238	0.037906	0.248274
C126	C	1.445238	0.537906	0.748274
C127	C	0.945242	0.037905	0.331726
C128	C	1.445242	0.537905	0.831726
C129	C	0.893488	0.076681	0.373452
C130	C	1.393488	0.576681	0.873452
C131	C	0.841721	0.115456	0.331721
C132	C	1.341721	0.615456	0.831721
C133	C	0.841714	0.115454	0.248270
C134	C	1.341714	0.615454	0.748270
C135	C	0.841748	0.115467	0.668268
C136	C	1.341748	0.615467	1.168268
C137	C	0.841761	0.115468	0.751725
C138	C	1.341761	0.615468	1.251725
C139	C	0.945277	0.037919	0.751724
C140	C	1.445277	0.537919	1.251724
C141	C	0.945269	0.037917	0.668273
C142	C	1.445269	0.537917	1.168273
C143	C	0.893500	0.076689	0.626550
C144	C	1.393500	0.576689	1.126550
C145	C	0.893495	0.076689	0.536061
C146	C	1.393495	0.576689	1.036061
C147	C	0.893496	0.076685	0.463939
C148	C	1.393496	0.576685	0.963939
H149	H	1.023892	-0.108662	0.000033
H150	H	1.523892	0.391338	0.500033
H151	H	0.663725	0.079946	0.131113
H152	H	1.163725	0.579946	0.631113
O153	O	0.514207	0.078106	0.142396
O154	O	1.014207	0.578106	0.642396
C155	C	0.392593	0.076653	0.206459
C156	C	0.892593	0.576653	0.706459
C157	C	0.436050	0.077207	0.126977
C158	C	0.936050	0.577207	0.626977
H159	H	0.329393	0.075939	0.194021
H160	H	0.829393	0.575939	0.694021
H161	H	0.415295	0.036986	0.242108
H162	H	0.915295	0.536986	0.742108
H163	H	0.400920	0.116668	0.242098
H164	H	0.900920	0.616668	0.742098
H165	H	0.427742	0.037219	0.091274
H166	H	0.927742	0.537219	0.591274
H167	H	0.413339	0.116900	0.091388
H168	H	0.913339	0.616900	0.591388
H169	H	0.799598	0.147039	0.634304
H170	H	1.299598	0.647039	1.134304
H171	H	0.987415	0.006344	0.634302
H172	H	1.487415	0.506344	1.134302
H173	H	0.799614	0.147045	0.785697
H174	H	1.299614	0.647045	1.285697
O175	O	0.272540	0.075202	0.142537
O176	O	0.772540	0.575202	0.642537
C177	C	0.264192	0.075128	0.285903
C178	C	0.764192	0.575128	0.785903
C179	C	0.220816	0.074626	0.206376
C180	C	0.720816	0.574626	0.706376
H181	H	0.222389	0.074674	0.337538
H182	H	0.722389	0.574674	0.837538
H183	H	0.308358	0.035722	0.289576
H184	H	0.808358	0.535722	0.789576
H185	H	0.293941	0.115403	0.289466
H186	H	0.793941	0.615403	0.789466
H187	H	0.191020	0.034377	0.202760
H188	H	0.691020	0.534377	0.702760
H189	H	0.176692	0.114059	0.202737
H190	H	0.676692	0.614059	0.702737
H191	H	0.987385	0.006333	0.214306
H192	H	1.487385	0.506333	0.714306
H193	H	0.799578	0.147026	0.365699
H194	H	1.299578	0.647026	0.865699
O195	O	0.687462	-0.461313	-0.000086
O196	O	1.187462	0.038687	0.499914
C197	C	0.550682	-0.441377	-0.000059
C198	C	1.050682	0.058623	0.499941
C199	C	0.627143	-0.416315	-0.000022
C200	C	1.127143	0.083685	0.499978
H201	H	0.501893	-0.405008	0.000009
H202	H	1.001893	0.094992	0.500009
H203	H	0.546742	-0.468812	-0.055559
H204	H	1.046742	0.031188	0.444441
H205	H	0.546809	-0.468871	0.055407
H206	H	1.046809	0.031129	0.555407
H207	H	0.631066	-0.388795	-0.055451
H208	H	1.131066	0.111205	0.444549
H209	H	0.631050	-0.388913	0.055514
H210	H	1.131050	0.111087	0.555514
H211	H	0.123233	0.073432	0.131113
H212	H	0.623233	0.573432	0.631113
O213	O	1.097653	-0.502232	-0.000114
O214	O	1.597653	-0.002232	0.499886
C215	C	1.215316	-0.532161	-0.068805
C216	C	1.715316	-0.032161	0.431195
C217	C	1.139895	-0.491959	-0.068787
C218	C	1.639895	0.008041	0.431213
H219	H	1.249483	-0.523878	-0.124330
H220	H	1.749483	-0.023878	0.375670
H221	H	1.249566	-0.523866	-0.013356
H222	H	1.749566	-0.023866	0.486644
H223	H	1.202705	-0.578537	-0.068766
H224	H	1.702705	-0.078537	0.431234
H225	H	1.152438	-0.445569	-0.068855
H226	H	1.652438	0.054431	0.431145
H227	H	1.105668	-0.500303	-0.124232
H228	H	1.605668	-0.000303	0.375768
H229	H	0.987389	0.006333	0.365698
H230	H	1.487389	0.506333	0.865698
H231	H	0.764813	-0.630201	-0.000031
H232	H	1.264813	-0.130201	0.499969
H233	H	0.987428	0.006347	0.785704
H234	H	1.487428	0.506347	1.285704
H235	H	0.123262	0.073437	-0.131125
H236	H	0.623262	0.573437	0.368875
O237	O	1.033021	-0.222086	0.000046
O238	O	1.533021	0.277914	0.500046
C239	C	1.170002	-0.229442	0.000012
C240	C	1.670002	0.270558	0.500012
C241	C	1.094582	-0.189239	-0.000014
C242	C	1.594582	0.310761	0.499986
H243	H	1.219794	-0.202902	-0.000053
H244	H	1.719794	0.297098	0.499947
H245	H	1.173059	-0.257596	0.055506
H246	H	1.673059	0.242404	0.555506
H247	H	1.172984	-0.257599	-0.055460
H248	H	1.672984	0.242401	0.444540
H249	H	1.091550	-0.161047	0.055421
H250	H	1.591550	0.338953	0.555421
H251	H	1.091557	-0.161125	-0.055545
H252	H	1.591557	0.338875	0.444455
O253	O	0.689419	-0.344290	-0.000184
O254	O	1.189419	0.155710	0.499816
C255	C	0.610420	-0.269207	-0.068843
C256	C	1.110420	0.230793	0.431157
C257	C	0.685810	-0.309446	-0.068789
C258	C	1.185810	0.190554	0.431211
H259	H	0.607485	-0.241017	-0.124296
H260	H	1.107485	0.258983	0.375704
H261	H	0.560576	-0.295698	-0.068901
H262	H	1.060576	0.204302	0.431099
H263	H	0.607411	-0.241089	-0.013332
H264	H	1.107411	0.258911	0.486668
H265	H	0.688893	-0.337573	-0.124290
H266	H	1.188893	0.162427	0.375710
H267	H	0.735619	-0.282922	-0.068689
H268	H	1.235619	0.217078	0.431311
H269	H	0.266463	0.075154	-0.131127
H270	H	0.766463	0.575154	0.368873
O271	O	0.791406	0.153174	0.207860
O272	O	1.291406	0.653174	0.707860
C273	C	0.688699	0.230073	0.216663
C274	C	1.188699	0.730073	0.716663
C275	C	0.745648	0.187395	0.262525
C276	C	1.245648	0.687395	0.762525
H277	H	0.651678	0.257743	0.260840
H278	H	1.151678	0.757743	0.760840
H279	H	0.721115	0.258531	0.177597
H280	H	1.221115	0.758531	0.677597
H281	H	0.651109	0.205507	0.177590
H282	H	1.151109	0.705507	0.677590
H283	H	0.783252	0.211914	0.301642
H284	H	1.283252	0.711914	0.801642
H285	H	0.713185	0.158937	0.301541
H286	H	1.213185	0.658937	0.801541
H287	H	0.771793	-0.191472	0.000025
H288	H	1.271793	0.308528	0.500025
O289	O	1.099420	-0.385135	-0.000112
O290	O	1.599420	0.114865	0.499888
C291	C	1.180621	-0.326087	-0.068829
C292	C	1.680621	0.173913	0.431171
C293	C	1.104200	-0.351207	-0.068791
C294	C	1.604200	0.148793	0.431209
H295	H	1.184518	-0.298661	-0.124358
H296	H	1.684518	0.201339	0.375642
H297	H	1.184533	-0.298592	-0.013385
H298	H	1.684533	0.201408	0.486615
H299	H	1.229414	-0.362452	-0.068794
H300	H	1.729414	0.137548	0.431206
H301	H	1.055363	-0.314879	-0.068854
H302	H	1.555363	0.185121	0.431146
H303	H	1.100354	-0.378718	-0.124230
H304	H	1.600354	0.121282	0.375770
H305	H	0.520541	0.078215	-0.131119
H306	H	1.020541	0.578215	0.368881
H307	H	0.663753	0.079944	-0.131126
H308	H	1.163753	0.579944	0.368874
H309	H	1.015204	-0.655155	-0.000017
H310	H	1.515204	-0.155155	0.499983
H311	H	1.013481	-0.762926	-0.000026
H312	H	1.513481	-0.262926	0.499974
H313	H	0.773514	-0.083700	0.000019
H314	H	1.273514	0.416300	0.500019
O315	O	0.752119	-0.741450	-0.000062
O316	O	1.252119	-0.241450	0.499938
C317	C	0.615338	-0.721523	-0.000017
C318	C	1.115338	-0.221523	0.499983
C319	C	0.691795	-0.696456	0.000011
C320	C	1.191795	-0.196456	0.500011
H321	H	0.566545	-0.685158	0.000059
H322	H	1.066545	-0.185158	0.500059
H323	H	0.611394	-0.748958	-0.055516
H324	H	1.111394	-0.248958	0.444484
H325	H	0.611476	-0.749020	0.055450
H326	H	1.111476	-0.249020	0.555450
H327	H	0.695709	-0.668934	-0.055418
H328	H	1.195709	-0.168934	0.444582
H329	H	0.695706	-0.669055	0.055547
H330	H	1.195706	-0.169055	0.555547
