data_functionalizedCrystal
_audit_creation_method	'MofGen! by Chris Wilmer'
_symmetry_space_group_name_H-M	'P1'
_symmetry_Int_Tables_number	1
_symmetry_cell_setting	triclinic
loop_
_symmetry_equiv_pos_as_xyz
  x,y,z
_cell_length_a	10.489741
_cell_length_b	10.540539
_cell_length_c	9.616153
_cell_angle_alpha	90.004388
_cell_angle_beta	89.999503
_cell_angle_gamma	84.532333
loop_
_atom_site_label
_atom_site_type_symbol
_atom_site_fract_x
_atom_site_fract_y
_atom_site_fract_z
O1	O	-1.694028	-0.179106	-0.115552
O2	O	-1.322830	-0.195918	-0.115573
O3	O	-1.516897	-0.002807	-0.115561
O4	O	-1.499960	-0.372218	-0.115565
O5	O	-1.516890	-0.002793	0.115731
O6	O	-1.322822	-0.195904	0.115718
O7	O	-1.694020	-0.179093	0.115739
Zn8	Zn	-1.508420	-0.187496	0.152451
Zn9	Zn	-1.508430	-0.187514	-0.152285
O10	O	-1.499952	-0.372204	0.115726
C11	C	-1.275294	-0.194641	0.000070
C12	C	-1.133665	-0.190843	0.000061
C13	C	-1.741555	-0.180369	0.000093
C14	C	-1.883184	-0.184168	0.000092
N15	N	-1.508422	-0.187483	0.360426
C16	C	-1.065540	-0.067971	0.000076
C17	C	-0.973410	-0.126021	-0.113961
C18	C	-0.973436	-0.126037	0.114075
C19	C	-1.043401	-0.248943	-0.114069
C20	C	-1.043437	-0.248942	0.114068
C21	C	-0.951334	-0.307081	0.000004
C22	C	-1.515623	0.044503	0.000082
C23	C	-1.511823	0.185452	0.000075
C24	C	-1.501226	-0.419514	0.000080
C25	C	-1.505026	-0.560463	0.000079
C26	C	-1.366206	0.368896	-0.000453
C27	C	-1.370058	0.222277	0.000068
C28	C	-1.580042	0.247109	0.132157
C29	C	-1.575204	0.393654	0.132268
C30	C	-1.578096	0.394157	-0.130753
C31	C	-1.579402	0.247174	-0.132499
N32	N	-1.508438	-0.187517	-0.360260
C33	C	-1.612624	-0.084539	0.580759
C34	C	-1.612342	-0.084145	0.419592
C35	C	-1.375076	-0.157337	0.418949
C36	C	-1.375696	-0.156615	0.580167
C37	C	-1.536399	-0.320936	0.580300
C38	C	-1.539408	-0.320064	0.419072
H39	H	-1.115242	0.033036	-0.000066
H40	H	-1.631623	-0.349613	0.620954
H41	H	-1.594888	0.013884	0.621289
H42	H	-1.680492	0.441370	-0.131636
H43	H	-1.684150	0.224743	0.137074
Cl44	Cl	-1.497347	0.437215	0.284692
H45	H	-1.712038	-0.102399	0.619525
Cl46	Cl	-1.738979	0.209755	-0.144815
H47	H	-1.351235	-0.059277	0.617784
Cl48	Cl	-1.584544	0.068682	0.360057
H49	H	-1.711425	-0.102277	0.380022
H50	H	-1.310209	0.397497	-0.095172
Cl51	Cl	-1.286587	0.157818	0.146482
Cl52	Cl	-1.252306	-0.267907	0.640414
H53	H	-1.460439	-0.397584	0.618449
Cl54	Cl	-1.506869	0.181364	0.283908
H55	H	-0.901898	-0.408195	-0.000059
Cl56	Cl	-1.279847	0.416096	0.144527
Cl57	Cl	-1.252407	-0.269964	0.359783
Cl58	Cl	-1.690860	-0.355353	0.360004
H59	H	-1.350044	-0.061095	0.378586
H60	H	-0.942462	-0.074020	0.210484
H61	H	-0.942405	-0.074038	-0.210371
H62	H	-1.677159	0.441611	0.138266
Cl63	Cl	-1.090984	-0.329156	-0.263089
H64	H	-1.468532	-0.400375	0.378794
Cl65	Cl	-1.507250	0.442851	-0.285317
H66	H	-1.074473	-0.300883	0.210483
H67	H	-1.316379	0.179675	-0.094614
H68	H	-1.529486	0.206316	-0.230210
