data_functionalizedCrystal
_audit_creation_method	'MofGen! by Chris Wilmer'
_symmetry_space_group_name_H-M	'P1'
_symmetry_Int_Tables_number	1
_symmetry_cell_setting	triclinic
loop_
_symmetry_equiv_pos_as_xyz
  x,y,z
_cell_length_a	14.044191
_cell_length_b	10.489716
_cell_length_c	13.101039
_cell_angle_alpha	93.400284
_cell_angle_beta	86.337551
_cell_angle_gamma	88.860456
loop_
_atom_site_label
_atom_site_type_symbol
_atom_site_fract_x
_atom_site_fract_y
_atom_site_fract_z
O1	O	1.264956	0.301341	-0.085148
O2	O	0.988912	0.290226	-0.085161
O3	O	1.133228	0.110822	-0.085158
O4	O	1.120640	0.480745	-0.085151
O5	O	1.122873	0.123717	0.085272
O6	O	0.978558	0.303121	0.085268
O7	O	1.254602	0.314237	0.085282
Zn8	Zn	1.114936	0.310726	0.112335
Zn9	Zn	1.128578	0.293736	-0.112214
O10	O	1.110286	0.493641	0.085279
C11	C	0.948388	0.291811	0.000052
C12	C	0.843064	0.277307	0.000046
C13	C	0.593293	0.353654	0.000058
C14	C	0.650227	0.250813	0.000054
C15	C	0.757531	0.265558	0.000050
C16	C	0.485979	0.338911	0.000062
C17	C	1.127105	0.069641	0.000054
C18	C	1.124276	-0.072277	0.000044
C19	C	1.212774	-0.160971	0.000058
C20	C	1.171115	-0.249435	-0.083972
C21	C	1.160886	-0.236687	0.084058
C22	C	1.082658	-0.158877	-0.084055
C23	C	1.072437	-0.146117	0.084050
C24	C	1.030714	-0.234539	-0.000001
C25	C	1.295126	0.312651	0.000067
C26	C	1.400450	0.327154	0.000066
C27	C	1.116409	0.534821	0.000065
C28	C	1.119238	0.676739	0.000067
N29	N	1.105632	0.322322	0.265583
N30	N	1.137889	0.282132	-0.265462
C31	C	1.092974	0.338109	0.474625
C32	C	1.150544	0.266348	0.525502
C33	C	1.143501	0.275132	0.641820
C34	C	1.100016	0.329326	0.358296
H35	H	0.625137	0.452765	0.000056
H36	H	1.038403	0.406139	0.518421
H37	H	0.618386	0.151689	-0.000020
O38	O	1.314739	-0.117916	-0.000047
H39	H	1.355508	-0.159554	-0.069908
O40	O	1.226312	-0.309178	-0.178063
H41	H	1.301812	-0.279882	-0.177887
H42	H	1.049640	-0.124743	-0.155175
H43	H	0.953680	-0.266790	-0.000050
H44	H	1.193947	-0.270992	0.155097
O45	O	1.017279	-0.086346	0.178148
H46	H	1.049950	-0.117360	0.247807
H47	H	1.205120	0.198315	0.481701
