data_functionalizedCrystal
_audit_creation_method	'MofGen! by Chris Wilmer'
_symmetry_space_group_name_H-M	'P1'
_symmetry_Int_Tables_number	1
_symmetry_cell_setting	triclinic
loop_
_symmetry_equiv_pos_as_xyz
  x,y,z
_cell_length_a	12.594516
_cell_length_b	16.959455
_cell_length_c	16.959447
_cell_angle_alpha	89.982507
_cell_angle_beta	89.978419
_cell_angle_gamma	90.013000
loop_
_atom_site_label
_atom_site_type_symbol
_atom_site_fract_x
_atom_site_fract_y
_atom_site_fract_z
Zn1	Zn	-0.423845	1.208431	-0.446937
Zn2	Zn	-0.601841	1.208355	-0.314770
Zn3	Zn	-0.423868	1.076252	-0.314775
Zn4	Zn	-0.601773	1.076233	-0.446909
O5	O	-0.512832	1.142318	-0.380848
O6	O	-0.447476	1.319031	-0.429415
O7	O	-0.578271	1.190808	-0.204160
O8	O	-0.274919	1.093825	-0.332320
O9	O	-0.578249	1.318976	-0.332313
O10	O	-0.274902	1.190936	-0.429419
O11	O	-0.447514	1.093752	-0.204163
O12	O	-0.447448	0.965638	-0.332293
O13	O	-0.578132	1.093793	-0.557524
O14	O	-0.578154	0.965625	-0.429371
O15	O	-0.447410	1.190918	-0.557544
O16	O	-0.750778	1.190789	-0.332286
O17	O	-0.750728	1.093720	-0.429367
C18	C	-0.512797	0.936951	-0.380830
C19	C	-0.512807	0.849095	-0.380841
C20	C	-0.444717	0.477602	-0.330405
C21	C	-0.581034	0.477636	-0.431336
C22	C	-0.581018	0.560182	-0.431332
C23	C	-0.512853	0.601442	-0.380862
C24	C	-0.444702	0.560155	-0.330396
C25	C	-0.649175	0.601475	-0.481790
C26	C	-0.649164	0.684026	-0.481787
C27	C	-0.580992	0.725287	-0.431320
C28	C	-0.512838	0.683995	-0.380854
C29	C	-0.444672	0.725255	-0.330384
C30	C	-0.376511	0.683965	-0.279920
C31	C	-0.376530	0.601416	-0.279930
C32	C	-0.580973	0.807835	-0.431311
C33	C	-0.444657	0.807808	-0.330376
C34	C	-0.789373	1.142266	-0.380840
C35	C	-0.907678	1.142316	-0.380863
C36	C	-0.976942	1.089515	-0.433629
C37	C	-1.047799	1.070259	-0.361503
C38	C	-1.047621	1.161644	-0.453001
C39	C	-0.976976	1.123022	-0.308699
C40	C	-0.976792	1.214440	-0.400246
C41	C	-1.047616	1.195212	-0.328071
C42	C	-0.235211	1.142391	-0.380873
C43	C	-0.116905	1.142422	-0.380884
C44	C	-0.512761	1.142362	-0.587016
C45	C	-0.512731	1.142381	-0.674873
C46	C	-0.512868	1.348486	-0.380866
C47	C	-0.512883	1.436342	-0.380874
C48	C	-0.580779	1.091822	-0.716138
C49	C	-0.444648	1.192953	-0.716162
C50	C	-0.444613	1.192969	-0.798707
C51	C	-0.512661	1.142410	-0.839972
C52	C	-0.580744	1.091835	-0.798691
C53	C	-0.376523	1.243538	-0.839995
C54	C	-0.376485	1.243555	-0.922546
C55	C	-0.444539	1.193000	-0.963812
C56	C	-0.512626	1.142424	-0.922526
C57	C	-0.580674	1.091865	-0.963791
C58	C	-0.648767	1.041292	-0.922506
C59	C	-0.648798	1.041280	-0.839957
C60	C	-0.444508	1.193012	-1.046361
C61	C	-0.580639	1.091878	-1.046344
C62	C	-0.512825	1.142319	-0.175482
C63	C	-0.512556	1.142453	-0.087625
H64	H	-0.636471	0.841450	-0.472394
O65	O	-0.310545	1.292635	-0.799790
C66	C	-0.250280	1.337434	-0.672624
C67	C	-0.325060	1.281792	-0.718062
H68	H	-0.261973	1.328675	-0.606539
H69	H	-0.268995	1.401180	-0.688816
H70	H	-0.164447	1.323602	-0.688887
H71	H	-0.410918	1.295553	-0.701823
H72	H	-0.306254	1.218063	-0.701866
O73	O	-0.939372	1.287092	-0.419773
C74	C	-0.785198	1.368548	-0.441014
C75	C	-0.827433	1.286238	-0.418861
H76	H	-0.694691	1.367880	-0.440301
H77	H	-0.815419	1.413789	-0.396659
H78	H	-0.814227	1.384899	-0.502544
H79	H	-0.798421	1.269813	-0.357349
H80	H	-0.797220	1.241045	-0.463267
O81	O	-0.646712	1.042841	-1.086548
C82	C	-0.706952	0.998008	-1.213709
C83	C	-0.632086	1.053593	-1.168278
H84	H	-0.695137	1.006670	-1.279795
H85	H	-0.792807	1.011876	-1.197536
H86	H	-0.688282	0.934281	-1.197421
H87	H	-0.650660	1.117338	-1.184541
H88	H	-0.546253	1.039657	-1.184454
H89	H	-0.321041	1.284736	-0.956153
H90	H	-0.704235	1.000105	-0.806336
H91	H	-1.078652	1.177948	-0.513999
O92	O	-0.378335	1.242205	-1.086342
C93	C	-0.243255	1.342469	-1.077650
C94	C	-0.318162	1.286807	-1.032274
H95	H	-0.194569	1.378532	-1.033956
H96	H	-0.292053	1.383852	-1.116278
H97	H	-0.187632	1.306181	-1.116318
H98	H	-0.373799	1.323032	-0.993563
H99	H	-0.269297	1.245422	-0.993696
H100	H	-0.389141	0.841396	-0.289281
H101	H	-0.389241	1.234112	-0.682559
O102	O	-1.084469	1.248623	-0.274899
C103	C	-1.187761	1.366326	-0.253788
C104	C	-1.146070	1.305912	-0.314092
H105	H	-1.237592	1.412649	-0.285450
H106	H	-1.117862	1.396169	-0.223249
H107	H	-1.238754	1.334846	-0.208003
H108	H	-1.095093	1.337331	-0.359924
H109	H	-1.216017	1.276071	-0.344570
H110	H	-1.079012	1.009314	-0.345126
H111	H	-0.704680	0.567875	-0.522874
H112	H	-0.636221	1.050649	-0.682520
O113	O	-0.940297	1.103504	-0.235853
C114	C	-0.985140	1.067719	-0.102417
C115	C	-1.026824	1.089833	-0.184868
H116	H	-1.055076	1.056643	-0.061177
H117	H	-0.934692	1.118041	-0.078286
H118	H	-0.934780	1.012041	-0.106765
H119	H	-1.077229	1.145491	-0.180587
H120	H	-1.077215	1.039465	-0.208968
H121	H	-0.321016	0.717569	-0.238824
O122	O	-0.939733	1.036215	-0.486778
C123	C	-0.785794	0.976867	-0.546751
C124	C	-0.827790	1.037270	-0.486552
H125	H	-0.695284	0.977687	-0.546576
H126	H	-0.815987	0.992690	-0.608110
H127	H	-0.815032	0.915458	-0.530090
H128	H	-0.798569	1.098700	-0.503139
H129	H	-0.797606	1.021378	-0.425209
O130	O	-0.715474	0.724168	-0.530697
C131	C	-0.859124	0.817407	-0.541161
C132	C	-0.784117	0.771980	-0.485677
H133	H	-0.914625	0.856086	-0.504786
H134	H	-0.907924	0.773774	-0.577221
H135	H	-0.810290	0.856033	-0.582563
H136	H	-0.832869	0.733352	-0.444227
H137	H	-0.735314	0.815655	-0.449672
O138	O	-0.310477	0.561268	-0.230834
C139	C	-0.295982	0.467973	-0.124189
C140	C	-0.370907	0.513413	-0.179724
H141	H	-0.344808	0.429260	-0.082864
H142	H	-0.247265	0.511598	-0.088057
H143	H	-0.240388	0.429380	-0.160579
H144	H	-0.426565	0.552007	-0.143395
H145	H	-0.419548	0.469746	-0.215859
O146	O	-0.647090	0.437520	-0.480443
C147	C	-0.661595	0.344313	-0.587110
C148	C	-0.586666	0.389715	-0.531555
H149	H	-0.612774	0.305639	-0.628437
H150	H	-0.710285	0.387962	-0.623240
H151	H	-0.717214	0.305683	-0.550737
H152	H	-0.530983	0.428346	-0.567867
H153	H	-0.538052	0.346024	-0.495422
O154	O	-0.715015	0.992219	-0.962507
C155	C	-0.896052	0.953851	-0.987808
C156	C	-0.821150	1.009461	-0.942441
H157	H	-0.981879	0.967783	-0.971614
H158	H	-0.877456	0.890103	-0.971554
H159	H	-0.884266	0.962535	-1.053894
H160	H	-0.832894	1.000847	-0.876344
H161	H	-0.839765	1.073189	-0.958761
H162	H	-0.389220	0.443980	-0.289321
