data_functionalizedCrystal
_audit_creation_method	'MofGen! by Chris Wilmer'
_symmetry_space_group_name_H-M	'P1'
_symmetry_Int_Tables_number	1
_symmetry_cell_setting	triclinic
loop_
_symmetry_equiv_pos_as_xyz
  x,y,z
_cell_length_a	14.853567
_cell_length_b	11.792241
_cell_length_c	13.930277
_cell_angle_alpha	89.995317
_cell_angle_beta	89.995755
_cell_angle_gamma	83.914173
loop_
_atom_site_label
_atom_site_type_symbol
_atom_site_fract_x
_atom_site_fract_y
_atom_site_fract_z
O1	O	1.196945	0.148181	-0.079765
O2	O	0.934554	0.165833	-0.079782
O3	O	1.072117	-0.008203	-0.079766
O4	O	1.059382	0.322217	-0.079780
O5	O	1.072098	-0.008206	0.079896
O6	O	0.934535	0.165829	0.079880
O7	O	1.196926	0.148177	0.079897
Zn8	Zn	1.065728	0.157003	0.105238
Zn9	Zn	1.065753	0.157008	-0.105123
O10	O	1.059363	0.322213	0.079881
C11	C	0.900953	0.165032	0.000047
C12	C	0.800860	0.162635	0.000041
C13	C	1.071308	-0.050491	0.000064
C14	C	1.068913	-0.176489	0.000063
C15	C	0.387884	0.049122	0.000068
C16	C	0.367408	0.255880	0.000058
C17	C	0.461451	0.258134	0.000055
C18	C	0.518715	0.155880	0.000056
C19	C	0.481936	0.051372	0.000062
C20	C	0.498237	0.362640	0.000040
C21	C	0.592285	0.364898	0.000035
C22	C	0.649550	0.262642	0.000044
C23	C	0.612766	0.158131	0.000050
C24	C	0.670030	0.055877	0.000052
C25	C	0.633248	-0.048637	0.000065
C26	C	0.539201	-0.050883	0.000070
C27	C	0.743596	0.264889	0.000039
C28	C	0.764081	0.058127	0.000046
C29	C	1.064511	-0.407174	0.000047
C30	C	1.066957	-0.278804	0.000056
C31	C	1.230527	0.148979	0.000066
C32	C	1.330621	0.151376	0.000066
C33	C	1.060173	0.364501	0.000049
C34	C	1.062567	0.490500	0.000044
N35	N	1.065717	0.156999	0.248804
N36	N	1.065771	0.157003	-0.248689
C37	C	1.004838	0.234041	0.701067
C38	C	1.126693	0.079966	0.701050
C39	C	1.126682	0.079963	0.600554
C40	C	1.065749	0.157000	0.550310
C41	C	1.004827	0.234042	0.600562
C42	C	1.187610	0.002930	0.550295
C43	C	1.187602	0.002925	0.449793
C44	C	1.126664	0.079958	0.399547
C45	C	1.065738	0.157001	0.449805
C46	C	1.004805	0.234039	0.399561
C47	C	0.943875	0.311078	0.449817
C48	C	0.943889	0.311075	0.550316
C49	C	1.126650	0.079961	0.299048
C50	C	1.004794	0.234040	0.299056
H51	H	0.810700	-0.025142	0.000052
H52	H	1.237214	-0.059805	0.408881
C53	C	0.750897	-0.166037	-0.082017
C54	C	0.696201	-0.161031	0.000065
H55	H	0.789767	-0.235420	-0.082012
H56	H	0.713779	-0.162631	-0.137678
H57	H	0.786251	-0.103463	-0.082017
H58	H	0.660842	-0.223600	0.000062
H59	H	0.733323	-0.164448	0.055741
H60	H	1.176308	0.017250	0.741962
H61	H	0.773540	0.349982	0.000030
H62	H	1.237224	-0.059786	0.591207
C63	C	0.320999	0.431418	0.082122
C64	C	0.304471	0.368278	0.000051
H65	H	0.282146	0.500814	0.082112
H66	H	0.309784	0.388574	0.137791
H67	H	0.382277	0.447704	0.082111
H68	H	0.243195	0.351984	0.000065
H69	H	0.315680	0.411131	-0.055633
H70	H	0.509244	-0.135972	0.000104
H71	H	0.451606	0.445889	0.000028
H72	H	0.357932	-0.035970	0.000082
C73	C	1.247105	-0.072327	0.309131
C74	C	1.193617	-0.004713	0.243807
H75	H	1.288444	-0.124608	0.275026
H76	H	1.279762	-0.025002	0.348314
H77	H	1.209379	-0.113240	0.348345
H78	H	1.231342	0.036207	0.204598
H79	H	1.160957	-0.052043	0.204608
H80	H	0.622224	0.449998	0.000025
C81	C	0.884344	0.386341	0.309168
C82	C	0.937815	0.318727	0.243832
H83	H	0.842999	0.438627	0.275073
H84	H	0.851692	0.339018	0.348370
H85	H	0.922080	0.427249	0.348363
H86	H	0.900080	0.277812	0.204642
H87	H	0.970470	0.366057	0.204613
H88	H	0.894266	0.373808	0.408897
H89	H	0.894282	0.373798	0.591241
C90	C	0.882277	0.258382	0.814105
C91	C	0.937867	0.318718	0.756307
H92	H	0.840936	0.310660	0.848212
H93	H	0.849620	0.211075	0.774905
H94	H	0.918576	0.212505	0.858407
H95	H	0.901568	0.364589	0.711999
H96	H	0.970526	0.366045	0.795510
