data_functionalizedCrystal
_audit_creation_method	'MofGen! by Chris Wilmer'
_symmetry_space_group_name_H-M	'P1'
_symmetry_Int_Tables_number	1
_symmetry_cell_setting	triclinic
loop_
_symmetry_equiv_pos_as_xyz
  x,y,z
_cell_length_a	23.532355
_cell_length_b	23.532407
_cell_length_c	10.268362
_cell_angle_alpha	89.990068
_cell_angle_beta	90.001234
_cell_angle_gamma	82.838088
loop_
_atom_site_label
_atom_site_type_symbol
_atom_site_fract_x
_atom_site_fract_y
_atom_site_fract_z
O1	O	0.755279	0.068995	-0.108136
O2	O	0.589411	0.079029	-0.108180
O3	O	0.677347	-0.008921	-0.108133
O4	O	0.667343	0.156944	-0.108183
O5	O	0.677339	-0.008925	0.108468
O6	O	0.589404	0.079025	0.108421
O7	O	0.755271	0.068991	0.108464
Cu8	Cu	0.672337	0.074008	0.128220
Cu9	Cu	0.672346	0.074012	-0.127935
O10	O	0.667336	0.156941	0.108418
C11	C	0.568191	0.078776	0.000116
C12	C	0.504972	0.078022	0.000100
C13	C	0.112954	0.073282	0.118225
C14	C	0.053555	0.072565	0.118230
O15	O	0.022833	0.072172	0.218642
N16	N	0.023850	0.072211	0.000162
C17	C	0.053549	0.072569	-0.117920
O18	O	0.022829	0.072201	-0.218346
C19	C	0.112948	0.073282	-0.117923
C20	C	0.142649	0.073641	0.000153
C21	C	0.142655	0.073641	0.236292
C22	C	0.202050	0.074359	0.236286
C23	C	0.231745	0.074719	0.118214
C24	C	0.202044	0.074360	0.000147
C25	C	0.142647	0.073636	-0.236004
C26	C	0.202050	0.074349	-0.235997
C27	C	0.231750	0.074708	-0.117921
C28	C	0.291134	0.075438	-0.117931
N29	N	0.320838	0.075792	0.000137
C30	C	0.291143	0.075432	0.118210
C31	C	-0.071192	0.071069	-0.117902
C32	C	-0.130591	0.070360	-0.117900
C33	C	-0.130581	0.070355	0.118251
C34	C	-0.071182	0.071069	0.118247
C35	C	-0.041488	0.071423	0.000166
C36	C	0.415877	0.076942	0.118189
C37	C	0.475278	0.077663	0.118172
C38	C	0.475263	0.077664	-0.117977
C39	C	0.415868	0.076947	-0.117962
C40	C	0.386177	0.076583	0.000132
O41	O	0.321894	0.075828	-0.218292
O42	O	0.321872	0.075792	0.218619
C43	C	0.677088	-0.030139	0.000171
C44	C	0.676322	-0.093356	0.000181
C45	C	0.723557	-0.492468	0.000122
C46	C	0.722845	-0.551868	0.000112
O47	O	0.766632	-0.588620	0.000075
N48	N	0.670568	-0.574484	0.000099
C49	C	0.618998	-0.537697	0.000083
O50	O	0.574467	-0.562388	0.000070
C51	C	0.619710	-0.478298	0.000084
C52	C	0.671991	-0.455685	0.000110
C53	C	0.775834	-0.469854	0.000146
C54	C	0.776545	-0.410458	0.000159
C55	C	0.724979	-0.373676	0.000147
C56	C	0.672703	-0.396289	0.000122
C57	C	0.568141	-0.441512	0.000059
C58	C	0.568858	-0.382110	0.000058
C59	C	0.621139	-0.359497	0.000084
C60	C	0.621848	-0.300110	0.000123
N61	N	0.674126	-0.277494	0.000135
C62	C	0.725691	-0.314277	0.000147
C63	C	0.617507	-0.662439	0.000079
C64	C	0.616794	-0.721837	0.000088
C65	C	0.720642	-0.736004	0.000114
C66	C	0.721354	-0.676605	0.000115
C67	C	0.669784	-0.639823	0.000092
C68	C	0.727181	-0.189540	0.000175
C69	C	0.727888	-0.130138	0.000193
C70	C	0.624041	-0.115977	0.000160
C71	C	0.623334	-0.175373	0.000149
C72	C	0.674909	-0.212154	0.000152
O73	O	0.578084	-0.263323	0.000154
O74	O	0.770216	-0.289577	0.000143
C75	C	0.776492	0.069244	0.000166
C76	C	0.839710	0.069998	0.000173
C77	C	0.667594	0.178158	0.000111
C78	C	0.668360	0.241375	0.000093
N79	N	0.672335	0.074004	0.308386
N80	N	0.672352	0.074011	-0.308101
C81	C	0.672343	0.074011	0.574057
C82	C	0.672336	0.074009	0.426219
H83	H	-0.047004	0.071362	0.214395
O84	O	-0.162630	0.070091	0.245608
H85	H	-0.208928	0.069575	0.225763
H86	H	-0.154769	0.070077	-0.214049
H87	H	-0.047020	0.071364	-0.214064
O88	O	0.776263	-0.775681	0.000122
H89	H	0.778424	-0.803069	-0.088170
O90	O	0.110567	0.073367	0.363586
H91	H	0.088748	0.034259	0.369383
H92	H	0.574222	-0.740243	0.000089
O93	O	0.110625	0.073218	-0.363358
H94	H	0.141264	0.073571	-0.445448
H95	H	0.525569	-0.459912	0.000030
O96	O	0.777744	-0.652222	0.000123
H97	H	0.780558	-0.625508	0.088409
O98	O	0.383829	0.076567	-0.245312
H99	H	0.362068	0.037417	-0.250942
H100	H	0.226223	0.074638	-0.332155
H101	H	0.391709	0.076651	0.214352
H102	H	0.770463	-0.111731	0.000217
H103	H	0.499451	0.077960	-0.214109
O104	O	0.782806	-0.229207	0.000197
H105	H	0.819273	-0.203495	0.000232
O106	O	0.832936	-0.386076	0.000174
H107	H	0.824778	-0.338592	0.000185
H108	H	0.526863	-0.352164	0.000038
O109	O	0.831455	-0.509523	0.000178
H110	H	0.867920	-0.483809	0.000208
O111	O	0.234080	0.074759	0.363639
H112	H	0.203444	0.074390	0.445732
O113	O	0.561883	-0.622767	0.000089
H114	H	0.525415	-0.648478	0.000097
H115	H	0.580762	-0.193785	0.000164
H116	H	0.582057	-0.086018	0.000155
H117	H	0.499457	0.077957	0.214328
