data_functionalizedCrystal
_audit_creation_method	'MofGen! by Chris Wilmer'
_symmetry_space_group_name_H-M	'P1'
_symmetry_Int_Tables_number	1
_symmetry_cell_setting	triclinic
loop_
_symmetry_equiv_pos_as_xyz
  x,y,z
_cell_length_a	14.519709
_cell_length_b	14.519731
_cell_length_c	10.868271
_cell_angle_alpha	89.993226
_cell_angle_beta	89.998733
_cell_angle_gamma	96.315500
loop_
_atom_site_label
_atom_site_type_symbol
_atom_site_fract_x
_atom_site_fract_y
_atom_site_fract_z
O1	O	1.223877	-0.120886	0.102177
O2	O	1.473877	0.129114	0.352177
O3	O	1.723877	0.379114	0.602177
O4	O	1.973877	0.629114	0.852177
O5	O	0.955401	-0.135122	0.102217
O6	O	1.205401	0.114878	0.352217
O7	O	1.455401	0.364878	0.602217
O8	O	1.705401	0.614878	0.852217
O9	O	1.096747	0.006233	0.102171
O10	O	1.346747	0.256233	0.352171
O11	O	1.596747	0.506233	0.602171
O12	O	1.846747	0.756233	0.852171
O13	O	1.082531	-0.262241	0.102223
O14	O	1.332531	-0.012241	0.352223
O15	O	1.582531	0.237759	0.602223
O16	O	1.832531	0.487759	0.852223
O17	O	1.096734	0.006229	-0.102474
O18	O	1.346734	0.256229	0.147526
O19	O	1.596734	0.506229	0.397526
O20	O	1.846734	0.756229	0.647526
O21	O	0.955388	-0.135127	-0.102428
O22	O	1.205388	0.114873	0.147572
O23	O	1.455388	0.364873	0.397572
O24	O	1.705388	0.614873	0.647572
O25	O	1.223864	-0.120890	-0.102468
O26	O	1.473864	0.129110	0.147532
O27	O	1.723864	0.379110	0.397532
O28	O	1.973864	0.629110	0.647532
Zn29	Zn	1.089624	-0.128009	-0.134940
Zn30	Zn	1.339624	0.121991	0.115060
Zn31	Zn	1.589624	0.371991	0.365060
Zn32	Zn	1.839624	0.621991	0.615060
Zn33	Zn	1.089641	-0.128003	0.134689
Zn34	Zn	1.339641	0.121997	0.384689
Zn35	Zn	1.589641	0.371997	0.634689
Zn36	Zn	1.839641	0.621997	0.884689
O37	O	1.082518	-0.262245	-0.102422
O38	O	1.332518	-0.012245	0.147578
O39	O	1.582518	0.237755	0.397578
O40	O	1.832518	0.487755	0.647578
C41	C	0.921035	-0.134461	-0.000101
C42	C	1.171035	0.115539	0.249899
C43	C	1.421035	0.365539	0.499899
C44	C	1.671035	0.615539	0.749899
C45	C	0.818654	-0.132473	-0.000087
C46	C	1.068654	0.117527	0.249913
C47	C	1.318654	0.367527	0.499913
C48	C	1.568654	0.617527	0.749913
C49	C	0.443757	-0.125153	-0.000145
C50	C	0.693757	0.124847	0.249855
C51	C	0.943757	0.374847	0.499855
C52	C	1.193757	0.624847	0.749855
C53	C	0.548065	-0.127186	-0.000128
C54	C	0.798065	0.122814	0.249872
C55	C	1.048065	0.372814	0.499872
C56	C	1.298065	0.622814	0.749872
C57	C	0.631202	-0.128813	-0.000115
C58	C	0.881202	0.121187	0.249885
C59	C	1.131202	0.371187	0.499885
C60	C	1.381202	0.621187	0.749885
C61	C	0.735517	-0.130846	-0.000101
C62	C	0.985517	0.119154	0.249899
C63	C	1.235517	0.369154	0.499899
C64	C	1.485517	0.619154	0.749899
C65	C	1.096075	0.040591	-0.000155
C66	C	1.346075	0.290591	0.249845
C67	C	1.596075	0.540591	0.499845
C68	C	1.846075	0.790591	0.749845
C69	C	1.094079	0.142971	-0.000166
C70	C	1.344079	0.392971	0.249834
C71	C	1.594079	0.642971	0.499834
C72	C	1.844079	0.892971	0.749834
C73	C	1.258230	-0.121551	-0.000147
C74	C	1.508230	0.128449	0.249853
C75	C	1.758230	0.378449	0.499853
C76	C	2.008230	0.628449	0.749853
C77	C	1.360612	-0.123539	-0.000153
C78	C	1.610612	0.126461	0.249847
C79	C	1.860612	0.376461	0.499847
C80	C	2.110612	0.626461	0.749847
N81	N	1.089619	-0.128013	-0.318954
N82	N	1.339619	0.121987	-0.068954
N83	N	1.589619	0.371987	0.181046
N84	N	1.839619	0.621987	0.431046
C85	C	1.092457	0.226115	-0.000171
C86	C	1.342457	0.476115	0.249829
C87	C	1.592457	0.726115	0.499829
C88	C	1.842457	0.976115	0.749829
C89	C	1.090430	0.330424	-0.000172
C90	C	1.340430	0.580424	0.249828
C91	C	1.590430	0.830424	0.499828
C92	C	1.840430	1.080424	0.749828
C93	C	1.088822	0.413563	-0.000173
C94	C	1.338822	0.663563	0.249827
C95	C	1.588822	0.913563	0.499827
C96	C	1.838822	1.163563	0.749827
C97	C	1.086795	0.517878	-0.000176
C98	C	1.336795	0.767878	0.249824
C99	C	1.586795	1.017878	0.499824
C100	C	1.836795	1.267878	0.749824
C101	C	1.083191	0.703397	-0.000119
C102	C	1.333191	0.953397	0.249881
C103	C	1.583191	1.203397	0.499881
C104	C	1.833191	1.453397	0.749881
C105	C	1.085187	0.601017	-0.000176
C106	C	1.335187	0.851017	0.249824
C107	C	1.585187	1.101017	0.499824
C108	C	1.835187	1.351017	0.749824
C109	C	1.089627	-0.128013	-0.430291
C110	C	1.339627	0.121987	-0.180291
C111	C	1.589627	0.371987	0.069709
C112	C	1.839627	0.621987	0.319709
C113	C	1.089639	-0.128004	-0.569969
C114	C	1.339639	0.121996	-0.319969
C115	C	1.589639	0.371996	-0.069969
C116	C	1.839639	0.621996	0.180031
N117	N	1.089653	-0.127992	0.318703
N118	N	1.339653	0.122008	0.568703
N119	N	1.589653	0.372008	0.818703
N120	N	1.839653	0.622008	1.068703
