data_functionalizedCrystal
_audit_creation_method	'MofGen! by Chris Wilmer'
_symmetry_space_group_name_H-M	'P1'
_symmetry_Int_Tables_number	1
_symmetry_cell_setting	triclinic
loop_
_symmetry_equiv_pos_as_xyz
  x,y,z
_cell_length_a	16.109301
_cell_length_b	27.732064
_cell_length_c	26.809956
_cell_angle_alpha	89.984712
_cell_angle_beta	89.982309
_cell_angle_gamma	83.055452
loop_
_atom_site_label
_atom_site_type_symbol
_atom_site_fract_x
_atom_site_fract_y
_atom_site_fract_z
O1	O	1.102386	0.062139	-0.041443
O2	O	0.860229	0.069871	-0.041451
O3	O	0.988821	-0.004360	-0.041449
O4	O	0.973794	0.136370	-0.041445
O5	O	0.988776	-0.004380	0.041510
O6	O	0.860184	0.069851	0.041508
O7	O	1.102341	0.062119	0.041516
Zn8	Zn	0.981255	0.065982	0.054684
Zn9	Zn	0.981315	0.066008	-0.054619
O10	O	0.973749	0.136349	0.041514
C11	C	0.829236	0.069548	0.000028
C12	C	0.736952	0.068609	0.000025
C13	C	0.514165	0.110472	0.000032
C14	C	0.427456	0.109586	0.000035
C15	C	0.448412	0.021514	0.000031
C16	C	0.535119	0.022401	0.000031
C17	C	0.567994	0.066881	0.000029
C18	C	0.394576	0.065109	0.000032
C19	C	0.300562	0.064148	0.000035
C20	C	0.662014	0.067843	0.000026
C21	C	0.988481	-0.022378	0.000029
C22	C	0.987525	-0.076036	0.000025
C23	C	0.905024	-0.453454	0.000020
C24	C	0.908543	-0.251779	0.000020
O25	O	0.844525	-0.220795	-0.000002
N26	N	0.984796	-0.232333	0.000022
C27	C	1.060174	-0.263308	0.000021
O28	O	1.125113	-0.242140	0.000018
C29	C	1.056654	-0.464982	0.000018
C30	C	0.980396	-0.484426	0.000021
C31	C	0.828772	-0.472898	0.000022
C32	C	0.827893	-0.523314	0.000025
C33	C	0.903266	-0.554286	0.000026
C34	C	0.979517	-0.534842	0.000024
C35	C	1.132031	-0.495957	0.000013
C36	C	1.131144	-0.546378	0.000011
C37	C	1.054887	-0.565822	0.000014
C38	C	1.054011	-0.616229	0.000027
N39	N	0.977758	-0.635676	0.000025
C40	C	0.902385	-0.604704	0.000024
C41	C	1.062017	-0.157426	0.000023
C42	C	1.062897	-0.107008	0.000025
C43	C	0.911266	-0.095482	0.000023
C44	C	0.910386	-0.145902	0.000025
C45	C	0.985764	-0.176873	0.000021
C46	C	0.900545	-0.710581	0.000031
C47	C	0.899673	-0.761002	0.000035
C48	C	1.051304	-0.772523	0.000035
C49	C	1.052176	-0.722107	0.000033
C50	C	0.976790	-0.691137	0.000029
O51	O	1.117995	-0.647242	0.000043
O52	O	0.837456	-0.625882	0.000016
C53	C	0.905903	-0.403039	0.000017
C54	C	0.982154	-0.383594	0.000015
C55	C	1.057527	-0.414566	0.000016
C56	C	0.983035	-0.333176	0.000017
C57	C	0.907662	-0.302204	0.000016
C58	C	0.831409	-0.321651	0.000014
C59	C	0.830530	-0.372067	0.000017
C60	C	1.133780	-0.395119	0.000018
C61	C	1.134652	-0.344703	0.000016
C62	C	1.059280	-0.313731	0.000015
C63	C	1.133334	0.062442	0.000036
C64	C	1.225618	0.063381	0.000036
C65	C	0.974089	0.154368	0.000035
C66	C	0.975045	0.208026	0.000036
N67	N	0.981220	0.065963	0.129280
N68	N	0.981357	0.066023	-0.129215
C69	C	0.931252	0.036660	0.526170
C70	C	0.931213	0.036646	0.317293
O71	O	0.888673	0.011691	0.290298
N72	N	0.981254	0.065971	0.291158
C73	C	1.031311	0.095298	0.317246
O74	O	1.073879	0.120236	0.290225
C75	C	1.031355	0.095308	0.526123
C76	C	0.981305	0.065986	0.552255
C77	C	0.881207	0.007339	0.552302
C78	C	0.881214	0.007345	0.604519
C79	C	0.931266	0.036671	0.630603
C80	C	0.981311	0.065992	0.604471
C81	C	1.081416	0.124633	0.552210
C82	C	1.081424	0.124632	0.604433
C83	C	1.031374	0.095309	0.630565
C84	C	1.031370	0.095323	0.682772
N85	N	0.981330	0.065999	0.708906
C86	C	0.931278	0.036673	0.682822
C87	C	1.031284	0.095291	0.207583
C88	C	1.031272	0.095289	0.155364
C89	C	0.931175	0.036637	0.155414
C90	C	0.931183	0.036642	0.207634
C91	C	0.981244	0.065967	0.233718
C92	C	0.931296	0.036687	0.792480
C93	C	0.931305	0.036697	0.844701
C94	C	1.031405	0.095347	0.844646
C95	C	1.031393	0.095340	0.792430
C96	C	0.981336	0.066006	0.766348
O97	O	1.073895	0.120262	0.709798
O98	O	0.888730	0.011731	0.709853
C99	C	0.931246	0.036654	0.473954
C100	C	0.981291	0.065975	0.447822
C101	C	1.031343	0.095301	0.473907
C102	C	0.981279	0.065973	0.395603
C103	C	0.931227	0.036647	0.369519
C104	C	0.881187	0.007322	0.395653
C105	C	0.881194	0.007328	0.447870
C106	C	1.081383	0.124625	0.447772
C107	C	1.081371	0.124617	0.395556
C108	C	1.031319	0.095291	0.369471
H109	H	0.383631	0.145083	0.000038
H110	H	0.890535	0.012801	0.771250
H111	H	0.421634	-0.014700	0.000035
F112	F	0.748543	-0.439943	0.000020
F113	F	0.549150	0.157812	0.000031
F114	F	1.142250	-0.190383	0.000022
F115	F	0.592412	-0.023997	0.000031
H116	H	0.849895	-0.070256	0.000025
H117	H	0.837572	-0.776830	0.000040
F118	F	0.820311	-0.677627	0.000027
H119	H	1.122192	0.148512	0.625667
F120	F	1.084666	0.126559	0.872416
H121	H	0.765796	-0.539140	0.000023
H122	H	0.890544	0.012819	0.865975
F123	F	0.829224	-0.166590	0.000027
H124	H	1.072136	0.119223	0.771152
F125	F	1.144061	-0.086320	0.000029
F126	F	1.213197	-0.475275	0.000002
H127	H	1.192528	-0.571593	0.000006
H128	H	1.114272	-0.706275	0.000038
H129	H	1.112670	-0.797749	0.000038
H130	H	0.768433	-0.387893	0.000019
F131	F	0.827923	-0.023881	0.475675
H132	H	1.195158	-0.420332	0.000018
F133	F	1.084566	0.126506	0.235337
F134	F	0.751192	-0.288680	0.000015
H135	H	1.196755	-0.328877	0.000017
H136	H	0.840461	-0.016534	0.625790
H137	H	0.840449	-0.016544	0.531070
H138	H	0.890428	0.012765	0.228907
F139	F	0.827914	-0.023887	0.367883
F140	F	0.877906	0.005426	0.127644
H141	H	1.072018	0.119172	0.134092
H142	H	1.122174	0.148509	0.530943
H143	H	1.122126	0.148500	0.374284
H144	H	1.122144	0.148505	0.469005
