data_functionalizedCrystal
_audit_creation_method	'MofGen! by Chris Wilmer'
_symmetry_space_group_name_H-M	'P1'
_symmetry_Int_Tables_number	1
_symmetry_cell_setting	triclinic
loop_
_symmetry_equiv_pos_as_xyz
  x,y,z
_cell_length_a	10.654550
_cell_length_b	17.699083
_cell_length_c	9.730223
_cell_angle_alpha	89.997786
_cell_angle_beta	89.996251
_cell_angle_gamma	83.883958
loop_
_atom_site_label
_atom_site_type_symbol
_atom_site_fract_x
_atom_site_fract_y
_atom_site_fract_z
O1	O	1.665973	0.106299	-0.114406
O2	O	1.300318	0.116427	-0.114384
O3	O	1.493476	0.001240	-0.114384
O4	O	1.472815	0.221487	-0.114407
O5	O	1.493474	0.001243	0.114196
O6	O	1.300315	0.116430	0.114196
O7	O	1.665971	0.106302	0.114174
Zn8	Zn	1.483143	0.111366	0.150477
Zn9	Zn	1.483146	0.111363	-0.150687
O10	O	1.472813	0.221490	0.114173
C11	C	1.253531	0.115685	-0.000091
C12	C	1.114127	0.113460	-0.000083
C13	C	1.033454	0.181281	-0.000110
C14	C	0.902470	0.179185	-0.000133
C15	C	0.932845	0.041443	-0.000108
C16	C	1.063826	0.043539	-0.000075
C17	C	1.015917	0.260805	-0.000130
C18	C	0.884933	0.258710	-0.000154
C19	C	1.492735	-0.026961	-0.000093
C20	C	1.490514	-0.110993	-0.000093
C21	C	1.603894	-0.158893	-0.000097
C22	C	1.601799	-0.237850	-0.000109
C23	C	1.486324	-0.268905	-0.000107
C24	C	1.372935	-0.220998	-0.000106
C25	C	1.375031	-0.142043	-0.000104
C26	C	1.364481	-0.539415	-0.000117
C27	C	1.362394	-0.618376	-0.000115
C28	C	1.591249	-0.635222	-0.000122
C29	C	1.593345	-0.556266	-0.000120
C30	C	1.479957	-0.508367	-0.000127
C31	C	1.482229	-0.422753	-0.000116
C32	C	1.484050	-0.354517	-0.000107
C33	C	1.712757	0.107044	-0.000122
C34	C	1.852161	0.109269	-0.000140
C35	C	1.473554	0.249690	-0.000120
C36	C	1.475775	0.333722	-0.000130
N37	N	1.483150	0.111369	0.356013
N38	N	1.483149	0.111355	-0.356223
C39	C	1.568702	0.060381	0.427940
C40	C	1.568699	0.060372	0.571823
C41	C	1.397587	0.162345	0.571840
C42	C	1.397585	0.162349	0.427960
C43	C	1.667496	0.001510	0.427931
C44	C	1.667493	0.001501	0.571814
H45	H	0.891873	-0.015484	-0.000123
N46	N	1.640439	-0.075542	0.376198
H47	H	1.640435	-0.075570	0.272398
H48	H	1.707633	-0.115563	0.410863
N49	N	1.628386	-0.071324	0.630927
H50	H	1.540251	-0.078455	0.598906
H51	H	1.688976	-0.115585	0.598860
H52	H	1.129507	-0.011687	-0.000033
H53	H	1.697927	-0.133615	-0.000091
N54	N	0.823849	0.290551	0.130541
H55	H	0.779373	0.250086	0.177676
H56	H	0.890740	0.307484	0.193617
H57	H	1.758357	0.019944	0.383297
H58	H	1.044703	0.291908	0.095532
N59	N	1.717890	-0.522768	-0.000131
H60	H	1.723860	-0.490388	0.084604
H61	H	1.789329	-0.565135	-0.000192
N62	N	1.062578	0.294339	-0.130852
H63	H	0.988783	0.309002	-0.194037
H64	H	1.105711	0.340888	-0.108028
H65	H	1.272153	-0.500424	-0.000122
N66	N	1.795024	0.018676	0.623548
H67	H	1.851935	0.026353	0.542855
H68	H	1.784636	0.066362	0.681257
N69	N	1.724087	-0.289514	-0.000107
H70	H	1.797557	-0.257860	-0.000096
H71	H	1.728190	-0.322642	0.084631
H72	H	0.842676	0.288672	-0.095824
H73	H	1.268354	-0.643658	-0.000110
N74	N	1.713546	-0.686890	-0.000119
H75	H	1.717788	-0.720021	-0.084856
H76	H	1.786947	-0.655185	-0.000060
N77	N	1.248383	-0.254489	-0.000112
H78	H	1.264257	-0.311775	-0.000110
H79	H	1.198778	-0.237009	0.084627
H80	H	1.282705	-0.103043	-0.000100
H81	H	1.327911	0.203861	0.369399
N82	N	1.305300	0.217327	0.649440
H83	H	1.318278	0.209586	0.751502
H84	H	1.319632	0.271103	0.624297
