data_functionalizedCrystal
_audit_creation_method	'MofGen! by Chris Wilmer'
_symmetry_space_group_name_H-M	'P1'
_symmetry_Int_Tables_number	1
_symmetry_cell_setting	triclinic
loop_
_symmetry_equiv_pos_as_xyz
  x,y,z
_cell_length_a	10.654550
_cell_length_b	11.892095
_cell_length_c	10.654550
_cell_angle_alpha	86.070149
_cell_angle_beta	84.484929
_cell_angle_gamma	93.933548
loop_
_atom_site_label
_atom_site_type_symbol
_atom_site_fract_x
_atom_site_fract_y
_atom_site_fract_z
O1	O	1.675794	0.093911	0.168448
O2	O	1.310317	0.093931	0.185252
O3	O	1.501458	0.093921	-0.005889
O4	O	1.484652	0.093920	0.359589
O5	O	1.485521	-0.094085	0.010023
O6	O	1.294380	-0.094076	0.201164
O7	O	1.659856	-0.094096	0.184360
Zn8	Zn	1.474588	-0.123936	0.195289
Zn9	Zn	1.495586	0.123771	0.174323
O10	O	1.468715	-0.094086	0.375501
C11	C	1.255550	-0.000070	0.191974
C12	C	1.116108	-0.000062	0.188281
C13	C	1.036622	-0.000065	0.300823
C14	C	0.905600	-0.000085	0.297348
C15	C	0.933562	-0.000093	0.068780
C16	C	1.064581	-0.000081	0.072256
N17	N	1.460266	-0.292989	0.209596
C18	C	1.609571	-0.529645	0.060377
C19	C	1.599570	-0.647986	0.070387
C20	C	1.430257	-0.648016	0.239619
C21	C	1.440258	-0.529674	0.229609
C22	C	1.529920	-0.470493	0.139986
C23	C	1.539926	-0.352149	0.129983
C24	C	1.370608	-0.352181	0.299209
C25	C	1.360607	-0.470522	0.309219
C26	C	1.714623	-0.000093	0.177638
C27	C	1.854066	-0.000093	0.181330
C28	C	1.492256	-0.000079	-0.044731
C29	C	1.488565	-0.000071	-0.184175
N30	N	1.509917	0.292824	0.160006
C31	C	1.492035	0.102403	-0.389389
C32	C	1.495517	0.102410	-0.258369
C33	C	1.478142	-0.102566	-0.241009
C34	C	1.474669	-0.102571	-0.372027
C35	C	1.477918	-0.000083	0.414343
C36	C	1.481609	-0.000084	0.553787
H37	H	1.078570	-0.000058	0.395299
H38	H	1.612936	-0.303965	0.057011
H39	H	1.497684	0.185855	-0.449788
C40	C	0.876871	-0.000104	-0.058842
N41	N	0.834173	-0.000108	-0.154970
C42	C	1.506982	0.215153	-0.195869
N43	N	1.515618	0.300076	-0.148794
H44	H	0.840886	-0.000090	0.388992
C45	C	1.261975	-0.535635	0.407790
N46	N	1.187684	-0.584677	0.482035
C47	C	1.152022	-0.000078	-0.051555
N48	N	1.217882	-0.000078	-0.144805
H49	H	1.305754	-0.304006	0.364036
C50	C	1.470489	-0.215296	-0.159390
N51	N	1.464716	-0.300207	-0.097915
H52	H	1.466183	-0.186033	-0.418294
H53	H	1.682585	-0.481458	-0.012590
H54	H	1.664428	-0.696144	0.005559
C55	C	1.331607	-0.713135	0.338166
N56	N	1.257295	-0.762185	0.412385
