data_functionalizedCrystal
_audit_creation_method	'MofGen! by Chris Wilmer'
_symmetry_space_group_name_H-M	'P1'
_symmetry_Int_Tables_number	1
_symmetry_cell_setting	triclinic
loop_
_symmetry_equiv_pos_as_xyz
  x,y,z
_cell_length_a	16.974800
_cell_length_b	15.944493
_cell_length_c	16.053802
_cell_angle_alpha	92.571009
_cell_angle_beta	91.074188
_cell_angle_gamma	83.432052
loop_
_atom_site_label
_atom_site_type_symbol
_atom_site_fract_x
_atom_site_fract_y
_atom_site_fract_z
O1	O	1.049061	0.107076	0.001491
O2	O	0.819598	0.119934	-0.014019
O3	O	0.940620	-0.008760	-0.005846
O4	O	0.928039	0.235770	-0.006682
O5	O	0.933959	-0.001705	0.132563
O6	O	0.812937	0.126989	0.124390
O7	O	1.042400	0.114130	0.139900
Zn8	Zn	0.926611	0.121680	0.154120
Zn9	Zn	0.935387	0.112385	-0.028240
O10	O	0.921378	0.242824	0.131727
C11	C	0.786904	0.122843	0.053200
C12	C	0.699412	0.120991	0.047286
C13	C	0.654681	0.123964	0.119956
C14	C	0.572475	0.122211	0.114401
C15	C	0.534999	0.117490	0.036175
C16	C	0.579736	0.114514	-0.036501
C17	C	0.661942	0.116262	-0.030945
C18	C	0.289529	0.111845	0.011468
C19	C	0.207317	0.110100	0.005918
C20	C	0.200062	0.117795	0.156820
C21	C	0.282269	0.119548	0.162369
C22	C	0.326999	0.116567	0.089693
N23	N	0.450970	0.115700	0.030495
N24	N	0.411027	0.118351	0.095374
C25	C	0.936775	-0.036529	0.063320
C26	C	0.935234	-0.129781	0.063206
C27	C	1.006470	-0.365386	0.068036
C28	C	0.971339	-0.419515	-0.002803
C29	C	0.932378	-0.300508	0.063023
C30	C	0.964754	-0.412536	0.133657
C31	C	0.929624	-0.465423	0.062850
C32	C	0.897270	-0.353412	-0.007871
C33	C	0.890693	-0.346427	0.128650
C34	C	0.855509	-0.400524	0.057791
C35	C	0.933966	-0.205505	0.063122
C36	C	0.928029	-0.560423	0.062745
C37	C	1.075094	0.111221	0.072679
C38	C	1.162587	0.113073	0.078588
C39	C	0.925223	0.270593	0.062559
C40	C	0.926764	0.363845	0.062668
N41	N	0.920627	0.128022	0.278576
N42	N	0.941378	0.106036	-0.152695
C43	C	0.972140	0.073282	0.325750
C44	C	0.967962	0.077727	0.412874
C45	C	0.912273	0.136917	0.452824
C46	C	0.860753	0.191659	0.405645
C47	C	0.864929	0.187210	0.318521
C48	C	0.894034	0.156329	0.713002
C49	C	0.889864	0.160776	0.800132
C50	C	0.997072	0.046842	0.807355
C51	C	1.001246	0.042401	0.720230
C52	C	0.949724	0.097141	0.673058
N53	N	0.908002	0.141463	0.541879
N54	N	0.953991	0.092590	0.584004
H55	H	0.176807	0.106258	-0.057786
H56	H	0.844513	0.208978	0.832654
O57	O	1.016462	-0.461665	-0.076424
H58	H	0.975915	-0.496050	-0.116790
H59	H	0.791640	-0.416131	0.053436
H60	H	1.070294	-0.349622	0.072282
O61	O	0.322683	0.124638	0.246744
H62	H	0.387360	0.125363	0.238398
O63	O	1.023522	0.018690	0.463760
H64	H	1.059905	0.056193	0.506037
H65	H	0.856653	-0.314593	0.184233
H66	H	0.698361	0.113842	-0.090121
H67	H	0.852084	0.200901	0.674601
H68	H	1.046592	-0.005795	0.687705
O69	O	1.002531	-0.446864	0.212886
H70	H	1.065151	-0.433084	0.216968
H71	H	0.868777	-0.327604	-0.067741
O72	O	0.695098	0.129059	0.204330
H73	H	0.725332	0.187245	0.209997
O74	O	1.032203	0.009439	0.282661
H75	H	1.067315	-0.027885	0.330104
O76	O	1.052634	-0.012204	0.858230
H77	H	1.040373	0.000826	0.925524
O78	O	0.800689	0.255505	0.448727
H79	H	0.806446	0.249411	0.517236
O80	O	0.539324	0.109411	-0.120876
H81	H	0.549813	0.165095	-0.156469
H82	H	0.822980	0.231784	0.280114
H83	H	0.536060	0.124618	0.173576
H84	H	0.325939	0.109415	-0.047709
O85	O	0.151768	0.121435	0.235199
H86	H	0.088290	0.119579	0.218196
