data_functionalizedCrystal
_audit_creation_method	'MofGen! by Chris Wilmer'
_symmetry_space_group_name_H-M	'P1'
_symmetry_Int_Tables_number	1
_symmetry_cell_setting	triclinic
loop_
_symmetry_equiv_pos_as_xyz
  x,y,z
_cell_length_a	10.654541
_cell_length_b	10.654551
_cell_length_c	9.730223
_cell_angle_alpha	89.997695
_cell_angle_beta	89.998981
_cell_angle_gamma	84.484645
loop_
_atom_site_label
_atom_site_type_symbol
_atom_site_fract_x
_atom_site_fract_y
_atom_site_fract_z
O1	O	-1.667838	-0.176377	-0.114238
O2	O	-1.302359	-0.193187	-0.114249
O3	O	-1.493501	-0.002043	-0.114244
O4	O	-1.476696	-0.367521	-0.114243
O5	O	-1.493498	-0.002051	0.114336
O6	O	-1.302356	-0.193194	0.114330
O7	O	-1.667835	-0.176385	0.114342
Zn8	Zn	-1.485095	-0.184791	0.150628
Zn9	Zn	-1.485099	-0.184781	-0.150536
O10	O	-1.476693	-0.367529	0.114336
C11	C	-1.492265	0.044751	0.000042
C12	C	-1.488572	0.184194	0.000033
C13	C	-1.255559	-0.191957	0.000039
C14	C	-1.116116	-0.188266	0.000034
C15	C	-1.714634	-0.177615	0.000050
C16	C	-1.854078	-0.181306	0.000046
C17	C	-1.088146	-0.416831	0.000018
C18	C	-1.008652	-0.529374	0.000004
C19	C	-0.877634	-0.525898	0.000003
C20	C	-0.826108	-0.409867	0.000019
C21	C	-0.905602	-0.297324	0.000033
C22	C	-1.036621	-0.300812	0.000030
C23	C	-0.933572	-0.068762	0.000060
C24	C	-1.064590	-0.072235	0.000051
C25	C	-0.882046	0.047269	0.000076
C26	C	-0.961540	0.159814	0.000080
C27	C	-1.092566	0.156334	0.000080
C28	C	-1.144084	0.040308	0.000065
C29	C	-1.477929	-0.414323	0.000047
C30	C	-1.481621	-0.553766	0.000047
N31	N	-1.485101	-0.184798	0.356164
C32	C	-1.486842	0.249711	-0.124563
C33	C	-1.483362	0.380731	-0.124557
C34	C	-1.483348	0.380708	0.124653
C35	C	-1.486819	0.249689	0.124645
C36	C	-1.488595	0.184216	-0.249176
C37	C	-1.486866	0.249733	-0.373783
C38	C	-1.483386	0.380753	-0.373776
C39	C	-1.481634	0.446257	-0.249163
C40	C	-1.569761	-0.100189	0.428093
C41	C	-1.569757	-0.100176	0.571976
C42	C	-1.400431	-0.269391	0.571989
C43	C	-1.400429	-0.269397	0.428109
C44	C	-1.654433	-0.015590	0.356148
C45	C	-1.739100	0.069025	0.428077
C46	C	-1.739096	0.069038	0.571959
C47	C	-1.654425	-0.015563	0.643914
N48	N	-1.485099	-0.184778	0.643928
H49	H	-1.194826	-0.419672	-0.000011
C50	C	-1.832213	0.162132	0.651077
N51	N	-1.902352	0.232253	0.710665
C52	C	-1.307272	-0.362443	0.348983
N53	N	-1.237090	-0.432515	0.289386
H54	H	-1.654421	-0.015537	0.761073
C55	C	-1.288205	0.036469	0.000069
N56	N	-1.396759	0.033572	0.000078
C57	C	-1.654442	-0.015594	0.197874
N58	N	-1.654448	-0.015598	0.078662
C59	C	-1.477806	0.590384	-0.249164
N60	N	-1.474931	0.698940	-0.249166
C61	C	-0.790188	-0.649700	-0.000012
N62	N	-0.724324	-0.742948	-0.000026
C63	C	-1.832217	0.162097	0.348924
N64	N	-1.902350	0.232205	0.289308
H65	H	-1.491432	0.077533	-0.249195
H66	H	-1.481965	0.434092	-0.475237
C67	C	-1.488730	0.177618	0.261708
N68	N	-1.490167	0.123333	0.364948
C69	C	-1.481430	0.452768	0.261718
N70	N	-1.479989	0.507044	0.364957
H71	H	-1.488279	0.196390	-0.475238
H72	H	-1.050619	-0.623844	-0.000006
C73	C	-0.681984	-0.406051	0.000033
N74	N	-0.573428	-0.403175	0.000042
H75	H	-1.331496	-0.338271	0.630584
H76	H	-0.775363	0.050090	0.000083
H77	H	-0.919576	0.254278	0.000093
H78	H	-1.157283	0.247981	0.000096
