data_functionalizedCrystal
_audit_creation_method	'MofGen! by Chris Wilmer'
_symmetry_space_group_name_H-M	'P1'
_symmetry_Int_Tables_number	1
_symmetry_cell_setting	triclinic
loop_
_symmetry_equiv_pos_as_xyz
  x,y,z
_cell_length_a	16.109301
_cell_length_b	15.944551
_cell_length_c	15.186229
_cell_angle_alpha	89.995303
_cell_angle_beta	89.999006
_cell_angle_gamma	83.480161
loop_
_atom_site_label
_atom_site_type_symbol
_atom_site_fract_x
_atom_site_fract_y
_atom_site_fract_z
O1	O	1.103165	0.107967	-0.073182
O2	O	1.603165	0.607967	0.426818
O3	O	0.861108	0.121403	-0.073195
O4	O	1.361108	0.621403	0.426805
O5	O	0.988747	-0.007592	-0.073180
O6	O	1.488747	0.492408	0.426820
O7	O	0.975527	0.236962	-0.073197
O8	O	1.475527	0.736962	0.426803
O9	O	0.988738	-0.007594	0.073277
O10	O	1.488738	0.492406	0.573277
O11	O	0.861099	0.121401	0.073263
O12	O	1.361099	0.621401	0.573263
O13	O	1.103157	0.107965	0.073275
O14	O	1.603157	0.607965	0.573275
Zn15	Zn	0.982127	0.114683	0.096522
Zn16	Zn	1.482127	0.614683	0.596522
Zn17	Zn	0.982138	0.114686	-0.096442
Zn18	Zn	1.482138	0.614686	0.403558
O19	O	0.975518	0.236960	0.073261
O20	O	1.475518	0.736960	0.573261
C21	C	0.830129	0.120858	0.000032
C22	C	1.330129	0.620858	0.500032
C23	C	0.737833	0.119226	0.000028
C24	C	1.237833	0.619226	0.500028
C25	C	0.428858	0.190435	0.000038
C26	C	0.928858	0.690435	0.500038
C27	C	0.515578	0.191976	0.000033
C28	C	1.015578	0.691976	0.500033
C29	C	0.535402	0.038928	0.000032
C30	C	1.035402	0.538928	0.500032
C31	C	0.448683	0.037388	0.000031
C32	C	0.948683	0.537388	0.500031
C33	C	0.395412	0.113144	0.000038
C34	C	0.895412	0.613144	0.500038
C35	C	0.568852	0.116225	0.000034
C36	C	1.068852	0.616225	0.500034
C37	C	0.662879	0.117895	0.000029
C38	C	1.162879	0.617895	0.500029
C39	C	0.301380	0.111474	0.000042
C40	C	0.801380	0.611474	0.500042
C41	C	0.988194	-0.038886	0.000049
C42	C	1.488194	0.461114	0.500049
C43	C	0.986548	-0.132132	0.000049
C44	C	1.486548	0.367868	0.500049
C45	C	0.903499	-0.346961	0.000033
C46	C	1.403499	0.153039	0.500033
C47	C	0.942060	-0.407992	0.072247
C48	C	1.442060	0.092008	0.572247
C49	C	0.983572	-0.302857	0.000042
C50	C	1.483572	0.197143	0.500042
C51	C	0.942087	-0.407974	-0.072148
C52	C	1.442087	0.092026	0.427852
C53	C	0.980691	-0.467769	0.000032
C54	C	1.480691	0.032231	0.500032
C55	C	1.022155	-0.362660	0.072316
C56	C	1.522155	0.137340	0.572316
C57	C	1.022171	-0.362635	-0.072144
C58	C	1.522171	0.137365	0.427856
C59	C	1.060790	-0.423648	0.000088
C60	C	1.560790	0.076352	0.500088
C61	C	0.985229	-0.207855	0.000049
C62	C	1.485229	0.292145	0.500049
C63	C	0.979039	-0.562769	0.000031
C64	C	1.479039	-0.062769	0.500031
C65	C	1.134136	0.108511	0.000046
C66	C	1.634136	0.608511	0.500046
C67	C	1.226432	0.110142	0.000045
C68	C	1.726432	0.610142	0.500045
C69	C	0.976071	0.268255	0.000030
C70	C	1.476071	0.768255	0.500030
C71	C	0.977717	0.361501	0.000024
C72	C	1.477717	0.861501	0.500024
N73	N	0.982125	0.114681	0.228215
N74	N	1.482125	0.614681	0.728215
N75	N	0.982146	0.114681	-0.228134
N76	N	1.482146	0.614681	0.271866
C77	C	1.038663	0.057581	0.453944
C78	C	1.538663	0.557581	0.953944
C79	C	1.038666	0.057579	0.546134
C80	C	1.538666	0.557579	1.046134
C81	C	0.925602	0.171784	0.546130
C82	C	1.425602	0.671784	1.046130
C83	C	0.925597	0.171781	0.453942
C84	C	1.425597	0.671781	0.953942
C85	C	0.982131	0.114681	0.407851
C86	C	1.482131	0.614681	0.907851
C87	C	0.982140	0.114681	0.592229
C88	C	1.482140	0.614681	1.092229
C89	C	0.982142	0.114680	0.692185
C90	C	1.482142	0.614680	1.192185
C91	C	0.982128	0.114681	0.307889
C92	C	1.482128	0.614681	0.807889
H93	H	0.837035	-0.313632	0.000101
H94	H	1.337035	0.186368	0.500101
Br95	Br	1.078555	-0.329368	0.174183
Br96	Br	1.578555	0.170632	0.674183
H97	H	0.385487	0.252121	0.000044
H98	H	0.885487	0.752121	0.500044
Br99	Br	0.560965	0.296876	0.000026
Br100	Br	1.060965	0.796876	0.500026
H101	H	1.084698	0.011083	0.583660
H102	H	1.584698	0.511083	1.083660
H103	H	0.879558	0.218278	0.416411
H104	H	1.379558	0.718278	0.916411
Br105	Br	0.885621	-0.441443	-0.173896
Br106	Br	1.385621	0.058557	0.326104
Br107	Br	0.403288	-0.067516	0.000015
Br108	Br	0.903288	0.432484	0.500015
Br109	Br	0.607702	-0.063879	0.000028
Br110	Br	1.107702	0.436121	0.500028
H111	H	0.879574	0.218274	0.583666
H112	H	1.379574	0.718274	1.083666
H113	H	1.084696	0.011086	0.416419
H114	H	1.584696	0.511086	0.916419
Br115	Br	1.171664	-0.478954	0.000155
Br116	Br	1.671664	0.021046	0.500155
Br117	Br	0.885610	-0.441489	0.174000
Br118	Br	1.385610	0.058511	0.674000
H119	H	1.056013	-0.342515	-0.133195
H120	H	1.556013	0.157485	0.366805
