data_functionalizedCrystal
_audit_creation_method	'MofGen! by Chris Wilmer'
_symmetry_space_group_name_H-M	'P1'
_symmetry_Int_Tables_number	1
_symmetry_cell_setting	triclinic
loop_
_symmetry_equiv_pos_as_xyz
  x,y,z
_cell_length_a	11.026607
_cell_length_b	11.026607
_cell_length_c	10.065918
_cell_angle_alpha	82.291637
_cell_angle_beta	97.653451
_cell_angle_gamma	71.413983
loop_
_atom_site_label
_atom_site_type_symbol
_atom_site_fract_x
_atom_site_fract_y
_atom_site_fract_z
O1	O	0.553904	-1.747087	0.113491
O2	O	0.493141	-1.380508	0.113493
O3	O	0.340232	-1.533415	0.113487
O4	O	0.706814	-1.594180	0.113497
O5	O	0.299659	-1.492688	-0.113502
O6	O	0.452569	-1.339781	-0.113496
O7	O	0.513332	-1.706360	-0.113498
Zn8	Zn	0.476508	-1.516604	-0.149536
Zn9	Zn	0.529965	-1.570264	0.149532
O10	O	0.666241	-1.553453	-0.113492
C11	C	0.461645	-1.312485	-0.000001
C12	C	0.428228	-1.170471	-0.000000
C13	C	0.272286	-1.501842	-0.000005
C14	C	0.130273	-1.468426	-0.000000
C15	C	0.544828	-1.774384	-0.000001
C16	C	0.578247	-1.916399	0.000007
C17	C	0.076624	-1.560696	0.000001
C18	C	-0.070153	-1.526161	0.000006
C19	C	0.734187	-1.585027	0.000004
C20	C	0.876202	-1.618444	0.000008
N21	N	0.440027	-1.479992	-0.353642
C22	C	0.520499	-1.116822	0.000003
C23	C	0.485963	-0.970043	0.000004
C24	C	0.517270	-1.557517	-0.421420
C25	C	0.489184	-1.529347	-0.578588
N26	N	0.566438	-1.606884	0.353637
H27	H	0.139356	-1.665257	-0.000008
H28	H	-0.132881	-1.421593	0.000016
C29	C	0.701558	-1.154559	-0.116683
C30	C	0.661660	-1.201496	0.000002
H31	H	0.788705	-1.206837	-0.116685
H32	H	0.696870	-1.067042	-0.116669
H33	H	0.646166	-1.157988	-0.195831
H34	H	0.717046	-1.198058	0.079151
H35	H	0.666359	-1.289035	0.000001
H36	H	0.323671	-1.107743	0.000032
C37	C	0.801023	-0.995976	0.116706
C38	C	0.719422	-1.001056	0.000017
H39	H	0.888179	-1.048231	0.116707
H40	H	0.773939	-1.027814	0.195843
H41	H	0.796306	-0.908437	0.116692
H42	H	0.724132	-1.088594	0.000036
H43	H	0.746514	-0.969223	-0.079141
H44	H	-0.061053	-1.723033	0.000110
C45	C	0.749500	-1.662646	-0.377137
C46	C	0.634620	-1.675274	-0.342696
H47	H	0.821945	-1.735351	-0.328543
H48	H	0.758465	-1.584880	-0.353796
H49	H	0.746005	-1.659164	-0.472431
H50	H	0.638110	-1.678747	-0.247403
H51	H	0.625653	-1.753061	-0.366028
H52	H	0.381399	-0.907320	0.000036
H53	H	0.067542	-1.363865	0.000009
C54	C	0.798671	-1.712015	-0.602104
C55	C	0.683797	-1.724649	-0.567653
H56	H	0.871120	-1.784722	-0.553518
H57	H	0.807638	-1.634251	-0.578758
H58	H	0.795168	-1.708525	-0.697400
H59	H	0.687295	-1.728129	-0.472358
H60	H	0.674829	-1.802433	-0.590990
C61	C	0.317739	-1.356948	-0.572825
C62	C	0.322680	-1.362232	-0.432367
H63	H	0.245296	-1.284240	-0.621420
H64	H	0.308859	-1.434697	-0.596306
H65	H	0.395707	-1.348299	-0.596007
H66	H	0.244715	-1.370890	-0.409184
H67	H	0.331550	-1.284463	-0.408876
H68	H	0.402251	-1.442118	-0.636911
