data_functionalizedCrystal
_audit_creation_method	'MofGen! by Chris Wilmer'
_symmetry_space_group_name_H-M	'P1'
_symmetry_Int_Tables_number	1
_symmetry_cell_setting	triclinic
loop_
_symmetry_equiv_pos_as_xyz
  x,y,z
_cell_length_a	23.532407
_cell_length_b	14.971506
_cell_length_c	14.048226
_cell_angle_alpha	89.993237
_cell_angle_beta	89.998899
_cell_angle_gamma	96.764467
loop_
_atom_site_label
_atom_site_type_symbol
_atom_site_fract_x
_atom_site_fract_y
_atom_site_fract_z
O1	O	-0.074271	1.186151	-0.079151
O2	O	0.425729	1.686151	0.420849
O3	O	-0.083147	0.925660	-0.079149
O4	O	0.416853	1.425660	0.420851
O5	O	0.004189	1.063761	-0.079162
O6	O	0.504189	1.563761	0.420838
O7	O	-0.161607	1.048050	-0.079138
O8	O	0.338393	1.548050	0.420862
O9	O	0.004194	1.063744	0.079159
O10	O	0.504194	1.563744	0.579159
O11	O	-0.083141	0.925643	0.079172
O12	O	0.416859	1.425643	0.579172
O13	O	-0.074266	1.186135	0.079170
O14	O	0.425734	1.686135	0.579170
Zn15	Zn	-0.078703	1.055886	0.104308
Zn16	Zn	0.421297	1.555886	0.604308
Zn17	Zn	-0.078710	1.055908	-0.104287
Zn18	Zn	0.421290	1.555908	0.395713
O19	O	-0.161601	1.048034	0.079183
O20	O	0.338399	1.548034	0.579183
C21	C	-0.082745	0.892331	0.000011
C22	C	0.417255	1.392331	0.500011
C23	C	-0.081549	0.793048	0.000011
C24	C	0.418451	1.293048	0.500011
C25	C	-0.128294	0.354271	0.000008
C26	C	0.371706	0.854271	0.500008
C27	C	-0.129413	0.447560	0.000004
C28	C	0.370587	0.947560	0.500004
C29	C	-0.078101	0.505322	0.000001
C30	C	0.421899	1.005322	0.500001
C31	C	-0.025665	0.469791	-0.000008
C32	C	0.474335	0.969791	0.499992
C33	C	-0.024547	0.376505	-0.000011
C34	C	0.475453	0.876505	0.499989
C35	C	-0.028000	0.664230	0.000000
C36	C	0.472000	1.164230	0.500000
C37	C	-0.029118	0.757523	0.000005
C38	C	0.470882	1.257523	0.500005
C39	C	-0.132867	0.735285	0.000015
C40	C	0.367133	1.235285	0.500015
C41	C	-0.131748	0.641998	0.000012
C42	C	0.368252	1.141998	0.500012
C43	C	-0.079313	0.606474	0.000005
C44	C	0.420687	1.106474	0.500005
C45	C	-0.182822	1.048442	0.000026
C46	C	0.317178	1.548442	0.500026
C47	C	-0.246044	1.049645	0.000035
C48	C	0.253956	1.549645	0.500035
C49	C	-0.644826	0.975464	-0.000014
C50	C	-0.144826	1.475464	0.499986
C51	C	-0.704231	0.976581	-0.000020
C52	C	-0.204231	1.476581	0.499980
O53	O	-0.740678	0.907815	-0.000055
O54	O	-0.240678	1.407815	0.499945
N55	N	-0.727213	1.058682	-0.000020
N56	N	-0.227213	1.558682	0.499980
C57	C	-0.690786	1.139671	-0.000022
C58	C	-0.190786	1.639671	0.499978
O59	O	-0.715788	1.209607	-0.000023
O60	O	-0.215788	1.709607	0.499977
C61	C	-0.631382	1.138553	-0.000022
C62	C	-0.131382	1.638553	0.499978
C63	C	-0.608404	1.056447	-0.000013
C64	C	-0.108404	1.556447	0.499987
C65	C	-0.621847	0.893364	-0.000006
C66	C	-0.121847	1.393364	0.499994
C67	C	-0.562446	0.892247	0.000003
C68	C	-0.062446	1.392247	0.500003
C69	C	-0.526024	0.973230	0.000003
C70	C	-0.026024	1.473230	0.500003
C71	C	-0.549003	1.055330	-0.000005
C72	C	-0.049003	1.555330	0.499995
C73	C	-0.594956	1.219541	-0.000031
C74	C	-0.094956	1.719541	0.499969
C75	C	-0.535549	1.218415	-0.000032
C76	C	-0.035549	1.718415	0.499968
C77	C	-0.512570	1.136309	-0.000023
C78	C	-0.012570	1.636309	0.499977
C79	C	-0.453179	1.135195	0.000004
C80	C	0.046821	1.635195	0.500004
N81	N	-0.430198	1.053094	0.000004
N82	N	0.069802	1.553094	0.500004
C83	C	-0.466620	0.972112	0.000003
C84	C	0.033380	1.472112	0.500003
C85	C	-0.815538	1.142013	-0.000023
C86	C	-0.315538	1.642013	0.499977
C87	C	-0.874941	1.143133	-0.000016
C88	C	-0.374941	1.643133	0.499984
C89	C	-0.888382	0.980042	-0.000017
C90	C	-0.388382	1.480042	0.499983
C91	C	-0.828978	0.978924	-0.000017
C92	C	-0.328978	1.478924	0.499983
C93	C	-0.792557	1.059912	-0.000024
C94	C	-0.292557	1.559912	0.499976
C95	C	-0.341873	0.969772	0.000022
C96	C	0.158127	1.469772	0.500022
C97	C	-0.282466	0.968662	0.000034
C98	C	0.217534	1.468662	0.500034
C99	C	-0.269030	1.131752	0.000029
C100	C	0.230970	1.631752	0.500029
C101	C	-0.328432	1.132862	0.000022
C102	C	0.171568	1.632862	0.500022
C103	C	-0.364852	1.051865	0.000015
C104	C	0.135148	1.551865	0.500015
O105	O	-0.416698	1.203926	0.000035
O106	O	0.083302	1.703926	0.500035
O107	O	-0.441609	0.902187	-0.000009
O108	O	0.058391	1.402187	0.499991
C109	C	0.025409	1.063352	-0.000007
C110	C	0.525409	1.563352	0.499993
C111	C	0.088631	1.062149	-0.000022
C112	C	0.588631	1.562149	0.499978
C113	C	-0.074668	1.219463	0.000008
C114	C	0.425332	1.719463	0.500008
C115	C	-0.075863	1.318747	0.000002
C116	C	0.424137	1.818747	0.500002
N117	N	-0.078698	1.055878	0.246669
N118	N	0.421302	1.555878	0.746669
N119	N	-0.078710	1.055923	-0.246648
N120	N	0.421290	1.555923	0.253352
C121	C	-0.040042	1.117048	0.296481
C122	C	0.459958	1.617048	0.796481
C123	C	-0.040041	1.117054	0.396139
C124	C	0.459959	1.617054	0.896139
C125	C	-0.078700	1.055894	0.445982
C126	C	0.421300	1.555894	0.945982
C127	C	-0.117358	0.994717	0.396163
C128	C	0.382642	1.494717	0.896163
C129	C	-0.117356	0.994708	0.296507
C130	C	0.382644	1.494708	0.796507
C131	C	-0.117363	0.994743	0.603877
C132	C	0.382637	1.494743	1.103877
C133	C	-0.117366	0.994753	0.703540
C134	C	0.382634	1.494753	1.203540
C135	C	-0.040048	1.117090	0.703509
C136	C	0.459952	1.617090	1.203509
C137	C	-0.040046	1.117080	0.603853
C138	C	0.459954	1.617080	1.103853
C139	C	-0.078704	1.055904	0.554041
C140	C	0.421296	1.555904	1.054041
H141	H	-0.263761	0.901799	0.000046
H142	H	0.236239	1.401799	0.500046
H143	H	-0.148846	0.944949	0.744117
H144	H	0.351154	1.444949	1.244117
H145	H	0.014699	0.635310	-0.000010
H146	H	0.514699	1.135310	0.499990
Cl147	Cl	0.035390	0.830137	-0.000007
Cl148	Cl	0.535390	1.330137	0.499993
H149	H	-0.371520	0.903816	0.000016
H150	H	0.128480	1.403816	0.500016
Cl151	Cl	-0.195330	0.492215	0.000007
Cl152	Cl	0.304670	0.992215	0.500007
H153	H	-0.008569	1.166885	0.563271
H154	H	0.491431	1.666885	1.063271
Cl155	Cl	-0.192806	0.281665	0.000020
Cl156	Cl	0.307194	0.781665	0.500020
Cl157	Cl	-0.667626	0.791543	-0.000008
Cl158	Cl	-0.167626	1.291543	0.499992
Cl159	Cl	-0.165952	0.917801	0.233887
Cl160	Cl	0.334048	1.417801	0.733887
Cl161	Cl	-0.198785	0.779943	0.000035
Cl162	Cl	0.301215	1.279943	0.500035
H163	H	0.018148	0.347583	-0.000018
H164	H	0.518148	0.847583	0.499982
H165	H	-0.008564	1.166863	0.436696
H166	H	0.491436	1.666863	0.936696
Cl167	Cl	-0.533569	0.789022	0.000002
Cl168	Cl	-0.033569	1.289022	0.500002
Cl169	Cl	-0.196257	0.569384	0.000021
Cl170	Cl	0.303743	1.069384	0.500021
Cl171	Cl	-0.769756	1.243838	-0.000020
Cl172	Cl	-0.269756	1.743838	0.499980
H173	H	-0.810274	0.912066	-0.000006
H174	H	-0.310274	1.412066	0.499994
H175	H	-0.613654	1.286400	-0.000039
H176	H	-0.113654	1.786400	0.499961
H177	H	0.016115	0.516829	-0.000016
H178	H	0.516115	1.016829	0.499984
Cl179	Cl	-0.903820	1.246356	-0.000013
Cl180	Cl	-0.403820	1.746356	0.499987
H181	H	-0.918049	0.914102	-0.000016
H182	H	-0.418049	1.414102	0.499984
H183	H	-0.505896	1.284367	-0.000043
H184	H	-0.005896	1.784367	0.499957
H185	H	-0.347141	1.199720	0.000028
H186	H	0.152859	1.699720	0.500028
H187	H	-0.239365	1.197686	0.000034
H188	H	0.260635	1.697686	0.500034
Cl189	Cl	0.008559	1.193945	0.233831
Cl190	Cl	0.508559	1.693945	0.733831
Cl191	Cl	0.008549	1.193996	0.766133
Cl192	Cl	0.508549	1.693996	1.266133
Cl193	Cl	-0.165962	0.917832	0.541260
Cl194	Cl	0.334038	1.417832	1.041260
Cl195	Cl	-0.165957	0.917824	0.458821
Cl196	Cl	0.334043	1.417824	0.958821
