data_functionalizedCrystal
_audit_creation_method	'MofGen! by Chris Wilmer'
_symmetry_space_group_name_H-M	'P1'
_symmetry_Int_Tables_number	1
_symmetry_cell_setting	triclinic
loop_
_symmetry_equiv_pos_as_xyz
  x,y,z
_cell_length_a	14.971486
_cell_length_b	19.288865
_cell_length_c	13.448316
_cell_angle_alpha	89.988163
_cell_angle_beta	89.998199
_cell_angle_gamma	83.375189
loop_
_atom_site_label
_atom_site_type_symbol
_atom_site_fract_x
_atom_site_fract_y
_atom_site_fract_z
O1	O	1.186458	0.090517	-0.082589
O2	O	1.686458	0.590517	0.417411
O3	O	0.925999	0.101357	-0.082618
O4	O	1.425999	0.601357	0.417382
O5	O	1.063755	-0.005169	-0.082583
O6	O	1.563755	0.494831	0.417417
O7	O	1.048703	0.197043	-0.082624
O8	O	1.548703	0.697043	0.417376
O9	O	1.063737	-0.005175	0.082801
O10	O	1.563737	0.494825	0.582801
O11	O	0.925982	0.101350	0.082766
O12	O	1.425982	0.601350	0.582766
O13	O	1.186441	0.090511	0.082794
O14	O	1.686441	0.590511	0.582794
Cu15	Cu	1.056210	0.095930	0.097881
Cu16	Cu	1.556210	0.595930	0.597881
Cu17	Cu	1.056230	0.095938	-0.097704
Cu18	Cu	1.556230	0.595938	0.402296
O19	O	1.048685	0.197036	0.082760
O20	O	1.548685	0.697036	0.582760
C21	C	0.892669	0.100869	0.000071
C22	C	1.392669	0.600869	0.500071
C23	C	0.793379	0.099416	0.000061
C24	C	1.293379	0.599416	0.500061
C25	C	0.735816	0.161997	0.000049
C26	C	1.235816	0.661997	0.500049
C27	C	0.642524	0.160628	0.000065
C28	C	1.142524	0.660628	0.500065
C29	C	0.606797	0.096677	0.000084
C30	C	1.106797	0.596677	0.500084
C31	C	0.664368	0.034092	0.000098
C32	C	1.164368	0.534092	0.500098
C33	C	0.757658	0.035461	0.000090
C34	C	1.257658	0.535461	0.500090
C35	C	0.469921	0.031241	0.000112
C36	C	0.969921	0.531241	0.500112
C37	C	0.376624	0.029871	0.000118
C38	C	0.876624	0.529871	0.500118
C39	C	0.354786	0.156407	0.000087
C40	C	0.854786	0.656407	0.500087
C41	C	0.448077	0.157777	0.000079
C42	C	0.948077	0.657777	0.500079
C43	C	0.505641	0.095191	0.000091
C44	C	1.005641	0.595191	0.500091
C45	C	1.063262	-0.031050	0.000112
C46	C	1.563262	0.468950	0.500112
C47	C	1.061808	-0.108158	0.000120
C48	C	1.561808	0.391842	0.500120
C49	C	1.142636	-0.152591	0.000134
C50	C	1.642636	0.347409	0.500134
C51	C	1.141271	-0.225043	0.000118
C52	C	1.641271	0.274957	0.500118
C53	C	1.059071	-0.253058	0.000109
C54	C	1.559071	0.246942	0.500109
C55	C	0.978232	-0.208615	0.000089
C56	C	1.478232	0.291385	0.500089
C57	C	0.979600	-0.136166	0.000095
C58	C	1.479600	0.363834	0.500095
C59	C	0.994447	-0.361558	0.058032
C60	C	1.494447	0.138442	0.558032
C61	C	0.993083	-0.434007	0.058032
C62	C	1.493083	0.065993	0.558032
C63	C	1.054848	-0.476517	0.000086
C64	C	1.554848	0.023483	0.500086
C65	C	1.117994	-0.446571	-0.057848
C66	C	1.617994	0.053429	0.442152
C67	C	1.119362	-0.374121	-0.057842
C68	C	1.619362	0.125879	0.442158
C69	C	1.057579	-0.331617	0.000101
C70	C	1.557579	0.168383	0.500101
C71	C	1.134201	-0.599511	0.000081
C72	C	1.634201	-0.099511	0.500081
C73	C	1.132832	-0.671963	0.000059
C74	C	1.632832	-0.171963	0.500059
C75	C	0.969791	-0.655535	0.000040
C76	C	1.469791	-0.155535	0.500040
C77	C	0.971163	-0.583084	0.000052
C78	C	1.471163	-0.083084	0.500052
C79	C	1.053370	-0.555077	0.000077
C80	C	1.553370	-0.055077	0.500077
C81	C	1.219771	0.090999	0.000104
C82	C	1.719771	0.590999	0.500104
C83	C	1.319061	0.092452	0.000107
C84	C	1.819061	0.592452	0.500107
C85	C	1.049178	0.222918	0.000063
C86	C	1.549178	0.722918	0.500063
C87	C	1.050632	0.300026	0.000048
C88	C	1.550632	0.800026	0.500048
N89	N	1.056202	0.095924	0.235445
N90	N	1.556202	0.595924	0.735445
N91	N	1.056245	0.095938	-0.235269
N92	N	1.556245	0.595938	0.264731
C93	C	1.117219	0.048774	0.287501
C94	C	1.617219	0.548774	0.787501
C95	C	1.117224	0.048773	0.391604
C96	C	1.617224	0.548773	0.891604
C97	C	1.056217	0.095927	0.443650
C98	C	1.556217	0.595927	0.943650
C99	C	0.995193	0.143079	0.391587
C100	C	1.495193	0.643079	0.891587
C101	C	0.995184	0.143076	0.287486
C102	C	1.495184	0.643076	0.787486
C103	C	0.995218	0.143084	0.608567
C104	C	1.495218	0.643084	1.108567
C105	C	0.995228	0.143088	0.712675
C106	C	1.495228	0.643088	1.212675
C107	C	1.117258	0.048781	0.712686
C108	C	1.617258	0.548781	1.212686
C109	C	1.117249	0.048778	0.608584
C110	C	1.617249	0.548778	1.108584
C111	C	1.056227	0.095932	0.556529
C112	C	1.556227	0.595932	1.056529
H113	H	0.804527	-0.015498	0.000099
H114	H	1.304527	0.484502	0.500099
C115	C	0.579207	0.229467	0.000049
C116	C	1.079207	0.729467	0.500049
H117	H	0.613846	0.267749	0.000024
H118	H	1.113846	0.767749	0.500024
H119	H	0.542364	0.231565	0.057725
H120	H	1.042364	0.731565	0.557725
H121	H	0.542358	0.231562	-0.057628
H122	H	1.042358	0.731562	0.442372
H123	H	0.307912	0.207367	0.000081
H124	H	0.807912	0.707367	0.500081
H125	H	0.944148	-0.326952	0.105224
H126	H	1.444148	0.173048	0.605224
C127	C	0.533240	-0.037602	0.000114
C128	C	1.033240	0.462398	0.500114
H129	H	0.498603	-0.075886	0.000113
H130	H	0.998603	0.424114	0.500113
H131	H	0.570095	-0.039707	0.057780
H132	H	1.070095	0.460293	0.557780
H133	H	0.570077	-0.039689	-0.057573
H134	H	1.070077	0.460311	0.442427
H135	H	0.477162	0.209852	0.000054
H136	H	0.977162	0.709852	0.500054
H137	H	1.209576	-0.129793	0.000151
H138	H	1.709576	0.370207	0.500151
C139	C	0.337326	-0.040473	0.000146
C140	C	0.837326	0.459527	0.500146
H141	H	0.384969	-0.077551	0.000165
H142	H	0.884969	0.422449	0.500165
H143	H	0.301386	-0.043638	-0.057524
H144	H	0.801386	0.456362	0.442476
H145	H	0.301388	-0.043633	0.057829
H146	H	0.801388	0.456367	0.557829
H147	H	0.764896	0.214073	0.000033
H148	H	1.264896	0.714073	0.500033
H149	H	0.941662	-0.458383	0.105199
H150	H	1.441662	0.041617	0.605199
H151	H	0.635272	-0.017978	0.000128
H152	H	1.135272	0.482022	0.500128
C153	C	0.882253	-0.534203	0.000043
C154	C	1.382253	-0.034203	0.500043
H155	H	0.894840	-0.487042	0.000039
H156	H	1.394840	0.012958	0.500039
H157	H	0.848524	-0.542710	0.057709
H158	H	1.348524	-0.042710	0.557709
H159	H	0.848546	-0.542693	-0.057645
H160	H	1.348546	-0.042693	0.442355
C161	C	1.230185	-0.273927	0.000140
C162	C	1.730185	0.226073	0.500140
H163	H	1.279340	-0.246870	0.000162
H164	H	1.779340	0.253130	0.500162
H165	H	1.233052	-0.302525	-0.057531
H166	H	1.733052	0.197475	0.442469
H167	H	1.233023	-0.302537	0.057822
H168	H	1.733023	0.197463	0.557822
H169	H	1.166908	0.010380	0.433988
H170	H	1.666908	0.510380	0.933988
H171	H	1.166930	0.010386	0.566209
H172	H	1.666930	0.510386	1.066209
H173	H	1.170776	-0.349742	-0.105015
H174	H	1.670776	0.150258	0.394985
C175	C	1.185935	-0.493322	-0.121599
C176	C	1.685935	0.006678	0.378401
H177	H	1.176071	-0.540759	-0.113318
H178	H	1.676071	-0.040759	0.386682
H179	H	1.245337	-0.487418	-0.101223
H180	H	1.745337	0.012582	0.398777
H181	H	1.178296	-0.480638	-0.189592
H182	H	1.678296	0.019362	0.310408
H183	H	1.201139	-0.576706	0.000097
H184	H	1.701139	-0.076706	0.500097
H185	H	1.198655	-0.708141	0.000065
H186	H	1.698655	-0.208141	0.500065
H187	H	0.902863	-0.678344	0.000027
H188	H	1.402863	-0.178344	0.500027
C189	C	0.887816	-0.239430	0.000082
C190	C	1.387816	0.260570	0.500082
H191	H	0.898577	-0.288942	0.000091
H192	H	1.398577	0.211058	0.500091
H193	H	0.854551	-0.224174	-0.057594
H194	H	1.354551	0.275826	0.442406
H195	H	0.854542	-0.224190	0.057759
H196	H	1.354542	0.275810	0.557759
H197	H	0.913778	-0.099988	0.000084
H198	H	1.413778	0.400012	0.500084
H199	H	0.945497	0.181469	0.245103
H200	H	1.445497	0.681469	0.745103
C201	C	1.184333	-0.003089	0.230255
C202	C	1.684333	0.496911	0.730255
H203	H	1.175598	0.003666	0.160800
H204	H	1.675598	0.503666	0.660800
H205	H	1.174819	-0.049460	0.247331
H206	H	1.674819	0.450540	0.747331
H207	H	1.243996	0.004542	0.247309
H208	H	1.743996	0.504542	0.747309
C209	C	1.184375	-0.003092	0.769942
C210	C	1.684375	0.496908	1.269942
H211	H	1.175637	0.003656	0.839395
H212	H	1.675637	0.503656	1.339395
H213	H	1.244035	0.004527	0.752874
H214	H	1.744035	0.504527	1.252874
H215	H	1.174844	-0.049463	0.752895
H216	H	1.674844	0.450537	1.252895
H217	H	0.945549	0.181485	0.755046
H218	H	1.445549	0.681485	1.255046
C219	C	0.928099	0.194955	0.551307
C220	C	1.428099	0.694955	1.051307
H221	H	0.891773	0.223044	0.597212
H222	H	1.391773	0.723044	1.097212
H223	H	0.890965	0.169923	0.510709
H224	H	1.390965	0.669923	1.010709
H225	H	0.960161	0.223910	0.510686
H226	H	1.460161	0.723910	1.010686
H227	H	0.945515	0.181470	0.433968
H228	H	1.445515	0.681470	0.933968
