data_functionalizedCrystal
_audit_creation_method	'MofGen! by Chris Wilmer'
_symmetry_space_group_name_H-M	'P1'
_symmetry_Int_Tables_number	1
_symmetry_cell_setting	triclinic
loop_
_symmetry_equiv_pos_as_xyz
  x,y,z
_cell_length_a	11.026607
_cell_length_b	17.038272
_cell_length_c	9.482900
_cell_angle_alpha	100.012096
_cell_angle_beta	78.636152
_cell_angle_gamma	99.848786
loop_
_atom_site_label
_atom_site_type_symbol
_atom_site_fract_x
_atom_site_fract_y
_atom_site_fract_z
O1	O	1.662374	0.322506	-0.120910
O2	O	1.305163	0.284676	-0.120910
O3	O	1.481644	0.189477	-0.120899
O4	O	1.485893	0.417705	-0.120922
O5	O	1.445807	0.208914	0.120891
O6	O	1.269325	0.304112	0.120880
O7	O	1.626537	0.341943	0.120880
Cu8	Cu	1.444659	0.324802	0.142957
Cu9	Cu	1.487041	0.301816	-0.142988
O10	O	1.450056	0.437141	0.120868
C11	C	1.241313	0.287415	-0.000015
C12	C	1.104451	0.266610	-0.000015
C13	C	1.036577	0.324055	-0.000022
C14	C	0.895123	0.302554	-0.000021
C15	C	1.459863	0.169523	-0.000004
C16	C	1.448341	0.081107	-0.000004
C17	C	1.554125	0.045899	-0.000003
C18	C	1.543294	-0.037179	-0.000016
C19	C	1.426676	-0.085048	-0.000021
C20	C	1.320885	-0.049835	-0.000027
C21	C	1.331719	0.033241	-0.000024
C22	C	1.388403	-0.336201	-0.000041
C23	C	1.377576	-0.419281	-0.000040
C24	C	1.599987	-0.406621	-0.000032
C25	C	1.610809	-0.323543	-0.000020
C26	C	1.505019	-0.288338	-0.000034
C27	C	1.415602	-0.169967	-0.000031
C28	C	1.516096	-0.203421	-0.000034
C29	C	1.690388	0.339203	-0.000018
C30	C	1.827251	0.360008	-0.000028
C31	C	1.471837	0.457095	-0.000030
C32	C	1.483360	0.545511	-0.000039
N33	N	1.414859	0.340969	0.344075
N34	N	1.516850	0.285644	-0.344106
C35	C	1.478242	0.306580	0.416279
C36	C	1.453458	0.320039	0.583695
H37	H	1.083189	0.389155	-0.000020
H38	H	1.320650	-0.208950	-0.000032
N39	N	1.569263	0.257112	0.338266
N40	N	1.537293	0.195636	0.253323
H41	H	1.601557	0.160690	0.198194
N42	N	1.362352	0.369468	0.661634
N43	N	1.342343	0.380327	0.797521
H44	H	1.277999	0.415235	0.852570
H45	H	1.611051	-0.164446	-0.000063
H46	H	1.589463	0.246231	0.593775
N47	N	0.836662	0.220883	0.000019
N48	N	0.751376	0.202558	0.101950
H49	H	0.710087	0.144879	0.101983
N50	N	1.280331	-0.300258	-0.000045
N51	N	1.176217	-0.343009	-0.000038
H52	H	1.099883	-0.317623	-0.000035
N53	N	1.323758	0.390396	0.422020
N54	N	1.303749	0.401256	0.557907
H55	H	1.239406	0.436163	0.612956
H56	H	1.282604	-0.458253	-0.000021
N57	N	0.885722	0.441679	-0.000015
N58	N	1.000546	0.459033	-0.000005
H59	H	1.041843	0.516713	0.000008
H60	H	1.245579	0.061906	-0.000025
H61	H	1.057843	0.201507	-0.000046
H62	H	1.649086	0.084868	0.000010
H63	H	1.629434	-0.065841	-0.000012
N64	N	1.729941	-0.274661	-0.000014
N65	N	1.824384	-0.306108	-0.000015
H66	H	1.908524	-0.271585	-0.000007
H67	H	1.686115	-0.435294	-0.000024
N68	N	1.201774	-0.098741	-0.000050
N69	N	1.192114	-0.172914	-0.000053
H70	H	1.107989	-0.207455	-0.000067
