data_functionalizedCrystal
_audit_creation_method	'MofGen! by Chris Wilmer'
_symmetry_space_group_name_H-M	'P1'
_symmetry_Int_Tables_number	1
_symmetry_cell_setting	triclinic
loop_
_symmetry_equiv_pos_as_xyz
  x,y,z
_cell_length_a	25.639239
_cell_length_b	21.295418
_cell_length_c	21.295411
_cell_angle_alpha	89.956262
_cell_angle_beta	90.019526
_cell_angle_gamma	89.945501
loop_
_atom_site_label
_atom_site_type_symbol
_atom_site_fract_x
_atom_site_fract_y
_atom_site_fract_z
Zn1	Zn	-0.207990	-0.962320	0.356243
Zn2	Zn	0.292010	-0.462320	0.856243
Zn3	Zn	-0.295410	-0.962207	0.250972
Zn4	Zn	0.204590	-0.462207	0.750972
Zn5	Zn	-0.208014	-0.857043	0.250953
Zn6	Zn	0.291986	-0.357043	0.750953
Zn7	Zn	-0.295420	-0.856998	0.356169
Zn8	Zn	0.204580	-0.356998	0.856169
O9	O	-0.251708	-0.909642	0.303584
O10	O	0.248292	-0.409642	0.803584
O11	O	-0.219572	-1.050395	0.342318
O12	O	0.280428	-0.550395	0.842318
O13	O	-0.283822	-0.948229	0.162880
O14	O	0.216178	-0.448229	0.662880
O15	O	-0.134846	-0.871075	0.264943
O16	O	0.365154	-0.371075	0.764943
O17	O	-0.283799	-1.050312	0.264976
O18	O	0.216201	-0.550312	0.764976
O19	O	-0.134828	-0.948421	0.342299
O20	O	0.365172	-0.448421	0.842299
O21	O	-0.219613	-0.870965	0.162866
O22	O	0.280387	-0.370965	0.662866
O23	O	-0.219623	-0.768948	0.264871
O24	O	0.280377	-0.268948	0.764871
O25	O	-0.283816	-0.870997	0.444268
O26	O	0.216184	-0.370997	0.944268
O27	O	-0.283840	-0.768914	0.342172
O28	O	0.216160	-0.268914	0.842172
O29	O	-0.219582	-0.948377	0.444322
O30	O	0.280418	-0.448377	0.944322
O31	O	-0.368576	-0.948185	0.264904
O32	O	0.131424	-0.448185	0.764904
O33	O	-0.368584	-0.870888	0.342191
O34	O	0.131416	-0.370888	0.842191
C35	C	-0.251736	-0.746090	0.303512
C36	C	0.248264	-0.246090	0.803512
C37	C	-0.251760	-0.676122	0.303496
C38	C	0.248240	-0.176122	0.803496
C39	C	-0.387551	-0.909536	0.303555
C40	C	0.112449	-0.409536	0.803555
C41	C	-0.445665	-0.909548	0.303564
C42	C	0.054335	-0.409548	0.803564
C43	C	-0.251697	-0.909694	0.467774
C44	C	0.248303	-0.409694	0.967774
C45	C	-0.251693	-0.909717	0.537743
C46	C	0.248307	-0.409717	1.037743
C47	C	-0.806011	-0.949996	0.263409
C48	C	-0.306011	-0.449996	0.763409
C49	C	-0.860616	-0.950020	0.263418
C50	C	-0.360616	-0.450020	0.763418
O51	O	-0.888838	-0.984300	0.229245
O52	O	-0.388838	-0.484300	0.729245
N53	N	-0.887947	-0.909753	0.303626
N54	N	-0.387947	-0.409753	0.803626
C55	C	-0.860672	-0.869463	0.343833
C56	C	-0.360672	-0.369463	0.843833
O57	O	-0.888934	-0.835215	0.378034
O58	O	-0.388934	-0.335215	0.878034
C59	C	-0.806069	-0.869442	0.343827
C60	C	-0.306069	-0.369442	0.843827
C61	C	-0.778740	-0.909708	0.303612
C62	C	-0.278740	-0.409708	0.803612
C63	C	-0.778683	-0.990259	0.223198
C64	C	-0.278683	-0.490259	0.723198
C65	C	-0.724082	-0.990233	0.223188
C66	C	-0.224082	-0.490233	0.723188
C67	C	-0.696810	-0.949945	0.263391
C68	C	-0.196810	-0.449945	0.763391
C69	C	-0.724139	-0.909682	0.303603
C70	C	-0.224139	-0.409682	0.803603
C71	C	-0.778794	-0.829156	0.384037
C72	C	-0.278794	-0.329156	0.884037
C73	C	-0.724187	-0.829139	0.384028
C74	C	-0.224187	-0.329139	0.884028
C75	C	-0.696858	-0.869404	0.343812
C76	C	-0.196858	-0.369404	0.843812
C77	C	-0.642267	-0.869369	0.343796
C78	C	-0.142267	-0.369369	0.843796
N79	N	-0.614935	-0.909636	0.303588
N80	N	-0.114935	-0.409636	0.803588
C81	C	-0.642207	-0.949924	0.263385
C82	C	-0.142207	-0.449924	0.763385
C83	C	-0.975343	-0.869510	0.343842
C84	C	-0.475343	-0.369510	0.843842
C85	C	-1.029945	-0.869527	0.343845
C86	C	-0.529945	-0.369527	0.843845
C87	C	-1.029885	-0.950086	0.263431
C88	C	-0.529885	-0.450086	0.763431
C89	C	-0.975282	-0.950065	0.263425
C90	C	-0.475282	-0.450065	0.763425
C91	C	-0.948011	-0.909778	0.303634
C92	C	-0.448011	-0.409778	0.803634
C93	C	-0.527542	-0.949868	0.263369
C94	C	-0.027542	-0.449868	0.763369
C95	C	-0.472937	-0.949837	0.263361
C96	C	0.027063	-0.449837	0.763361
C97	C	-0.473001	-0.869281	0.343778
C98	C	0.026999	-0.369281	0.843778
C99	C	-0.527602	-0.869309	0.343783
C100	C	-0.027602	-0.369309	0.843783
C101	C	-0.554871	-0.909607	0.303577
C102	C	-0.054871	-0.409607	0.803577
O103	O	-0.614010	-0.835108	0.377953
O104	O	-0.114010	-0.335108	0.877953
O105	O	-0.613939	-0.984172	0.229195
O106	O	-0.113939	-0.484172	0.729195
C107	C	-0.115335	-0.909766	0.303627
C108	C	0.384665	-0.409766	0.803627
C109	C	-0.057221	-0.909818	0.303645
C110	C	0.442779	-0.409818	0.803645
C111	C	-0.251681	-1.073832	0.303657
C112	C	0.248319	-0.573832	0.803657
C113	C	-0.251670	-1.143801	0.303688
C114	C	0.248330	-0.643801	0.803688
C115	C	-0.285242	-0.643255	0.343686
C116	C	0.214758	-0.143255	0.843686
C117	C	-0.285229	-0.577512	0.343715
C118	C	0.214771	-0.077512	0.843715
C119	C	-0.251740	-0.544640	0.303541
C120	C	0.248260	-0.044640	0.803541
C121	C	-0.218252	-0.577515	0.263347
C122	C	0.281748	-0.077515	0.763347
C123	C	-0.218262	-0.643257	0.263325
C124	C	0.281738	-0.143257	0.763325
N125	N	-0.247648	-0.441365	0.248483
N126	N	0.252352	0.058635	0.748483
N127	N	-0.247641	-0.378913	0.248506
N128	N	0.252359	0.121087	0.748506
C129	C	-0.251707	-0.346565	0.303608
C130	C	0.248293	0.153435	0.803608
N131	N	-0.255789	-0.379028	0.358686
N132	N	0.244211	0.120972	0.858686
N133	N	-0.255799	-0.441485	0.358662
N134	N	0.244201	0.058515	0.858662
C135	C	-0.251725	-0.473354	0.303561
C136	C	0.248275	0.026646	0.803561
C137	C	-0.285176	-0.242412	0.343832
C138	C	0.214824	0.257588	0.843832
C139	C	-0.285160	-0.176668	0.343862
C140	C	0.214840	0.323332	0.843862
C141	C	-0.218185	-0.176673	0.263489
C142	C	0.281815	0.323327	0.763489
C143	C	-0.218199	-0.242415	0.263465
C144	C	0.281801	0.257585	0.763465
C145	C	-0.251697	-0.275281	0.303636
C146	C	0.248303	0.224719	0.803636
C147	C	-0.251682	-0.909626	0.140032
C148	C	0.248318	-0.409626	0.640032
C149	C	-0.251539	-0.909726	0.070065
C150	C	0.248461	-0.409726	0.570065
C151	C	-0.218244	-0.950007	0.570639
C152	C	0.281756	-0.450007	1.070639
C153	C	-0.218221	-0.950006	0.636381
C154	C	0.281779	-0.450006	1.136381
C155	C	-0.251657	-0.909721	0.669225
C156	C	0.248343	-0.409721	1.169225
C157	C	-0.285108	-0.869424	0.636321
C158	C	0.214892	-0.369424	1.136321
C159	C	-0.285126	-0.869421	0.570580
C160	C	0.214874	-0.369421	1.070580
N161	N	-0.297396	-0.904857	0.772441
N162	N	0.202604	-0.404857	1.272441
N163	N	-0.297377	-0.904863	0.834892
N164	N	0.202623	-0.404863	1.334892
C165	C	-0.251604	-0.909725	0.867300
C166	C	0.248396	-0.409725	1.367300
N167	N	-0.205848	-0.914594	0.834897
N168	N	0.294152	-0.414594	1.334897
N169	N	-0.205867	-0.914591	0.772440
N170	N	0.294133	-0.414591	1.272440
C171	C	-0.251641	-0.909719	0.740511
C172	C	0.248359	-0.409719	1.240511
C173	C	-0.218128	-0.950017	0.971482
C174	C	0.281872	-0.450017	1.471482
C175	C	-0.218104	-0.950011	1.037225
C176	C	0.281896	-0.450011	1.537225
C177	C	-0.284995	-0.869433	1.037164
C178	C	0.215005	-0.369433	1.537164
C179	C	-0.285014	-0.869435	0.971422
C180	C	0.214986	-0.369435	1.471422
C181	C	-0.251581	-0.909730	0.938584
C182	C	0.248419	-0.409730	1.438584
H183	H	-0.549738	-0.982684	0.230630
H184	H	-0.049738	-0.482684	0.730630
N185	N	-0.182078	-0.993486	0.936061
N186	N	0.317922	-0.493486	1.436061
H187	H	-0.187172	-0.987380	0.889422
H188	H	0.312828	-0.487380	1.389422
H189	H	-0.190219	-1.038429	0.947598
H190	H	0.309781	-0.538429	1.447598
N191	N	-1.059416	-0.826096	0.387220
N192	N	-0.559416	-0.326096	0.887220
H193	H	-1.098146	-0.832220	0.381130
H194	H	-0.598146	-0.332220	0.881130
H195	H	-1.049923	-0.781140	0.377363
H196	H	-0.549923	-0.281140	0.877363
H197	H	-0.312213	-0.836626	1.063905
H198	H	0.187787	-0.336626	1.563905
H199	H	-0.801036	-0.796364	0.416781
H200	H	-0.301036	-0.296364	0.916781
N201	N	-0.182066	-0.141221	0.220159
N202	N	0.317934	0.358779	0.720159
H203	H	-0.190133	-0.152600	0.175160
H204	H	0.309867	0.347400	0.675160
H205	H	-0.144737	-0.152738	0.230066
H206	H	0.355263	0.347262	0.730066
N207	N	-0.321174	-0.825973	0.671735
N208	N	0.178826	-0.325973	1.171735
H209	H	-0.313061	-0.781004	0.660260
H210	H	0.186939	-0.281004	1.160260
H211	H	-0.316076	-0.832138	0.718364
H212	H	0.183924	-0.332138	1.218364
H213	H	-0.190983	-0.550747	0.230639
H214	H	0.309017	-0.050747	0.730639
H215	H	-0.190995	-0.670017	0.230596
H216	H	0.309005	-0.170017	0.730596
N217	N	-0.321277	-0.141217	0.387211
N218	N	0.178723	0.358783	0.887211
H219	H	-0.345466	-0.113878	0.361580
H220	H	0.154534	0.386122	0.861580
H221	H	-0.300026	-0.114040	0.416435
H222	H	0.199974	0.385960	0.916435
H223	H	-0.800881	-1.023070	0.190460
H224	H	-0.300881	-0.523070	0.690460
H225	H	-0.312494	-0.550746	0.376445
H226	H	0.187506	-0.050746	0.876445
H227	H	-0.312450	-0.269173	0.376545
H228	H	0.187550	0.230827	0.876545
N229	N	-0.321362	-0.678700	0.387024
N230	N	0.178638	-0.178700	0.887024
H231	H	-0.316288	-0.725335	0.380914
H232	H	0.183712	-0.225335	0.880914
H233	H	-0.358690	-0.667149	0.377152
H234	H	0.141310	-0.167149	0.877152
N235	N	-0.321202	-0.825955	0.535103
N236	N	0.178798	-0.325955	1.035103
H237	H	-0.358555	-0.835691	0.546552
H238	H	0.141445	-0.335691	1.046552
H239	H	-0.316099	-0.832080	0.488484
H240	H	0.183901	-0.332080	0.988484
H241	H	-0.190937	-0.269176	0.230734
H242	H	0.309063	0.230824	0.730734
H243	H	-0.190981	-0.982813	0.663170
H244	H	0.309019	-0.482813	1.163170
N245	N	-0.182185	-0.993465	0.535221
N246	N	0.317815	-0.493465	1.035221
H247	H	-0.160992	-1.018988	0.566041
H248	H	0.339008	-0.518988	1.066041
H249	H	-0.157999	-0.967863	0.507927
H250	H	0.342001	-0.467863	1.007927
N251	N	-0.182016	-0.993458	1.072710
N252	N	0.317984	-0.493458	1.572710
H253	H	-0.160840	-1.018981	1.041929
H254	H	0.339160	-0.518981	1.541929
H255	H	-0.203281	-1.022570	1.100014
H256	H	0.296719	-0.522570	1.600014
N257	N	-0.321090	-0.825968	0.935947
N258	N	0.178910	-0.325968	1.435947
H259	H	-0.358443	-0.835704	0.947393
H260	H	0.141557	-0.335704	1.447393
H261	H	-0.315986	-0.832089	0.889327
H262	H	0.184014	-0.332089	1.389327
N263	N	-0.443461	-0.993269	0.219986
N264	N	0.056539	-0.493269	0.719986
H265	H	-0.469026	-1.018797	0.194523
H266	H	0.030974	-0.518797	0.694523
H267	H	-0.420764	-1.022377	0.245645
H268	H	0.079236	-0.522377	0.745645
H269	H	-0.953034	-0.982853	0.230679
H270	H	-0.453034	-0.482853	0.730679
N271	N	-0.694610	-1.033673	0.179824
N272	N	-0.194610	-0.533673	0.679824
H273	H	-0.704141	-1.023930	0.134834
H274	H	-0.204141	-0.523930	0.634834
H275	H	-0.704080	-1.078627	0.189723
H276	H	-0.204080	-0.578627	0.689723
N277	N	-1.059305	-0.993541	0.220068
N278	N	-0.559305	-0.493541	0.720068
H279	H	-1.098042	-0.987442	0.226178
H280	H	-0.598042	-0.487442	0.726178
H281	H	-1.049711	-1.038490	0.229921
H282	H	-0.549711	-0.538490	0.729921
H283	H	-0.701986	-0.796333	0.416773
H284	H	-0.201986	-0.296333	0.916773
N285	N	-0.945931	-0.826050	0.387208
N286	N	-0.445931	-0.326050	0.887208
H287	H	-0.971535	-0.800545	0.412677
H288	H	-0.471535	-0.300545	0.912677
H289	H	-0.923317	-0.796921	0.361545
H290	H	-0.423317	-0.296921	0.861545
H291	H	-0.549854	-0.836524	0.376532
H292	H	-0.049854	-0.336524	0.876532
H293	H	-0.450788	-0.836477	0.376509
H294	H	0.049212	-0.336477	0.876509
