data_functionalizedCrystal
_audit_creation_method	'MofGen! by Chris Wilmer'
_symmetry_space_group_name_H-M	'P1'
_symmetry_Int_Tables_number	1
_symmetry_cell_setting	triclinic
loop_
_symmetry_equiv_pos_as_xyz
  x,y,z
_cell_length_a	11.026607
_cell_length_b	19.288864
_cell_length_c	17.766277
_cell_angle_alpha	89.971843
_cell_angle_beta	89.991734
_cell_angle_gamma	95.861132
loop_
_atom_site_label
_atom_site_type_symbol
_atom_site_fract_x
_atom_site_fract_y
_atom_site_fract_z
O1	O	1.608583	0.290662	-0.062719
O2	O	2.108583	0.790662	0.437281
O3	O	1.255458	0.257564	-0.062706
O4	O	1.755458	0.757564	0.437294
O5	O	1.442224	0.174277	-0.062666
O6	O	1.942224	0.674277	0.437334
O7	O	1.421817	0.373949	-0.062759
O8	O	1.921817	0.873949	0.437241
O9	O	1.442191	0.174267	0.062522
O10	O	1.942191	0.674267	0.562522
O11	O	1.255425	0.257555	0.062483
O12	O	1.755425	0.757555	0.562483
O13	O	1.608550	0.290652	0.062469
O14	O	2.108550	0.790652	0.562469
Cu15	Cu	1.431985	0.274103	0.073907
Cu16	Cu	1.931985	0.774103	0.573907
Cu17	Cu	1.432023	0.274114	-0.074143
Cu18	Cu	1.932023	0.774114	0.425857
O19	O	1.421784	0.373940	0.062430
O20	O	1.921784	0.873940	0.562430
C21	C	1.210264	0.251454	-0.000109
C22	C	1.710264	0.751454	0.499891
C23	C	1.075649	0.233252	-0.000102
C24	C	1.575649	0.733252	0.499898
C25	C	1.001569	0.283510	-0.000125
C26	C	1.501569	0.783510	0.499875
C27	C	0.862437	0.264699	-0.000118
C28	C	1.362437	0.764699	0.499882
C29	C	1.441551	0.148312	-0.000062
C30	C	1.941551	0.648312	0.499938
C31	C	1.439580	0.070959	-0.000031
C32	C	1.939580	0.570959	0.499969
C33	C	1.653744	0.296763	-0.000129
C34	C	2.153744	0.796763	0.499871
C35	C	1.788358	0.314965	-0.000141
C36	C	2.288358	0.814965	0.499859
C37	C	1.422457	0.399904	-0.000176
C38	C	1.922457	0.899904	0.499824
C39	C	1.424428	0.477258	-0.000212
C40	C	1.924428	0.977258	0.499788
N41	N	1.431966	0.274095	0.178037
N42	N	1.931966	0.774095	0.678037
C43	C	1.314842	0.508055	-0.000193
C44	C	1.814842	1.008055	0.499807
C45	C	1.316694	0.580737	-0.000176
C46	C	1.816694	1.080737	0.499824
C47	C	1.428138	0.622619	-0.000163
C48	C	1.928138	1.122619	0.499837
C49	C	1.537738	0.591813	-0.000187
C50	C	2.037738	1.091813	0.499813
C51	C	1.535883	0.519133	-0.000211
C52	C	2.035883	1.019133	0.499789
C53	C	1.515734	0.741977	0.043732
C54	C	2.015734	1.241977	0.543732
C55	C	1.517584	0.814656	0.043762
C56	C	2.017584	1.314656	0.543762
C57	C	1.433864	0.846791	-0.000091
C58	C	1.933864	1.346791	0.499909
C59	C	1.348273	0.806237	-0.043963
C60	C	1.848273	1.306237	0.456037
C61	C	1.346418	0.733556	-0.043988
C62	C	1.846418	1.233556	0.456012
C63	C	1.430162	0.701430	-0.000137
C64	C	1.930162	1.201430	0.499863
C65	C	1.326278	0.956398	-0.000055
C66	C	1.826278	1.456398	0.499945
C67	C	1.328135	1.029082	-0.000042
C68	C	1.828135	1.529082	0.499958
C69	C	1.549182	1.040157	-0.000045
C70	C	2.049182	1.540157	0.499955
C71	C	1.547323	0.967474	-0.000065
C72	C	2.047323	1.467474	0.499935
C73	C	1.435867	0.925599	-0.000066
C74	C	1.935867	1.425599	0.499934
N75	N	1.432051	0.274117	-0.178273
N76	N	1.932051	0.774117	0.321727
C77	C	1.514693	0.237242	0.217442
C78	C	2.014693	0.737242	0.717442
C79	C	1.514700	0.237240	0.296243
C80	C	2.014700	0.737240	0.796243
C81	C	1.431992	0.274104	0.335638
C82	C	1.931992	0.774104	0.835638
C83	C	1.349250	0.310959	0.296224
C84	C	1.849250	0.810959	0.796224
C85	C	1.349237	0.310955	0.217423
C86	C	1.849237	0.810955	0.717423
C87	C	1.415757	0.335333	0.460447
C88	C	1.915757	0.835333	0.960447
C89	C	1.415778	0.335339	0.539246
C90	C	1.915778	0.835339	1.039246
C91	C	1.432024	0.274116	0.578684
C92	C	1.932024	0.774116	1.078684
C93	C	1.448274	0.212888	0.539313
C94	C	1.948274	0.712888	1.039313
C95	C	1.448262	0.212884	0.460513
C96	C	1.948262	0.712884	0.960513
C97	C	1.431996	0.274113	0.421083
C98	C	1.931996	0.774113	0.921083
C99	C	1.514763	0.237257	0.703534
C100	C	2.014763	0.737257	1.203534
C101	C	1.514762	0.237253	0.782338
C102	C	2.014762	0.737253	1.282338
C103	C	1.349317	0.310979	0.782317
C104	C	1.849317	0.810979	1.282317
C105	C	1.349313	0.310977	0.703515
C106	C	1.849313	0.810977	1.203515
C107	C	1.432042	0.274117	0.664128
C108	C	1.932042	0.774117	1.164128
H109	H	1.036069	0.176297	-0.000095
H110	H	1.536069	0.676297	0.499905
Cl111	Cl	1.190356	1.067799	-0.000027
Cl112	Cl	1.690356	1.567799	0.499973
Cl113	Cl	1.618762	0.190914	0.831878
Cl114	Cl	2.118762	0.690914	1.331878
Cl115	Cl	1.174727	0.455416	-0.000202
Cl116	Cl	1.674727	0.955416	0.499798
H117	H	1.041149	0.340464	-0.000147
H118	H	1.541149	0.840464	0.499853
Cl119	Cl	1.186166	0.903752	-0.000060
Cl120	Cl	1.686166	1.403752	0.499940
H121	H	1.227453	0.605818	-0.000159
H122	H	1.727453	1.105818	0.499841
Cl123	Cl	1.468709	0.135918	0.588883
Cl124	Cl	1.968709	0.635918	1.088883
Cl125	Cl	1.243007	0.846626	-0.099089
Cl126	Cl	1.743007	1.346626	0.400911
H127	H	1.281905	0.340973	0.328303
H128	H	1.781905	0.840973	0.828303
Cl129	Cl	1.245332	0.357317	0.831835
Cl130	Cl	1.745332	0.857317	1.331835
H131	H	1.461490	0.163029	0.428461
H132	H	1.961490	0.663029	0.928461
H133	H	1.276728	0.700540	-0.079711
H134	H	1.776728	1.200540	0.420289
H135	H	1.582123	0.207242	0.671465
H136	H	2.082123	0.707242	1.171465
Cl137	Cl	1.245315	0.357313	0.653973
Cl138	Cl	1.745315	0.857313	1.153973
Cl139	Cl	1.395358	0.412312	0.588733
Cl140	Cl	1.895358	0.912312	1.088733
H141	H	1.625124	0.494058	-0.000228
H142	H	2.125124	0.994058	0.499772
H143	H	1.402507	0.385188	0.428343
H144	H	1.902507	0.885188	0.928343
Cl145	Cl	1.245230	0.357289	0.167883
Cl146	Cl	1.745230	0.857289	0.667883
Cl147	Cl	1.689285	1.092801	-0.000037
Cl148	Cl	2.189285	1.592801	0.499963
H149	H	1.583919	0.715819	0.079441
H150	H	2.083919	1.215819	0.579441
H151	H	1.636560	0.942399	-0.000076
H152	H	2.136560	1.442399	0.499924
H153	H	1.587272	0.847670	0.079488
H154	H	2.087272	1.347670	0.579488
H155	H	0.822863	0.207741	-0.000111
H156	H	1.322863	0.707741	0.499889
H157	H	0.827931	0.371923	-0.000163
H158	H	1.327931	0.871923	0.499837
Cl159	Cl	1.618687	0.190902	0.167928
Cl160	Cl	2.118687	0.690902	0.667928
Cl161	Cl	1.677839	0.644464	-0.000176
Cl162	Cl	2.177839	1.144464	0.499824
Cl163	Cl	1.618710	0.190906	0.345789
Cl164	Cl	2.118710	0.690906	0.845789
