data_functionalizedCrystal
_audit_creation_method	'MofGen! by Chris Wilmer'
_symmetry_space_group_name_H-M	'P1'
_symmetry_Int_Tables_number	1
_symmetry_cell_setting	triclinic
loop_
_symmetry_equiv_pos_as_xyz
  x,y,z
_cell_length_a	11.169417
_cell_length_b	11.169416
_cell_length_c	12.759393
_cell_angle_alpha	89.972430
_cell_angle_beta	89.980914
_cell_angle_gamma	90.011589
loop_
_atom_site_label
_atom_site_type_symbol
_atom_site_fract_x
_atom_site_fract_y
_atom_site_fract_z
Zn1	Zn	1.834957	-0.477709	-0.593990
Zn2	Zn	1.834848	-0.678438	-0.418319
Zn3	Zn	1.634245	-0.477772	-0.418330
Zn4	Zn	1.634251	-0.678353	-0.593962
O5	O	1.734575	-0.578068	-0.506150
O6	O	2.002892	-0.504345	-0.570693
O7	O	1.808189	-0.651881	-0.271299
O8	O	1.660913	-0.309814	-0.441649
O9	O	2.002812	-0.651820	-0.441629
O10	O	1.808375	-0.309768	-0.570705
O11	O	1.660807	-0.504453	-0.271308
O12	O	1.466296	-0.504370	-0.441621
O13	O	1.660923	-0.651676	-0.740986
O14	O	1.466300	-0.651736	-0.570657
O15	O	1.808381	-0.504263	-0.741007
O16	O	1.808195	-0.846376	-0.441601
O17	O	1.660817	-0.846314	-0.570645
C18	C	1.422750	-0.578052	-0.506138
C19	C	1.289350	-0.578074	-0.506158
C20	C	1.734528	-0.889893	-0.506142
C21	C	1.734617	-1.023293	-0.506174
C22	C	2.047617	-0.578085	-0.506163
C23	C	2.181017	-0.578092	-0.506168
C24	C	1.734665	-0.577953	-0.780183
C25	C	1.734703	-0.577904	-0.896960
C26	C	1.734656	-0.265026	-0.506181
C27	C	1.734690	-0.131626	-0.506194
C28	C	1.811490	-0.501134	-0.951835
C29	C	1.811511	-0.501082	-1.061559
C30	C	1.657953	-0.654581	-1.061524
C31	C	1.657928	-0.654625	-0.951802
C32	C	1.734555	-0.578096	-0.233183
C33	C	1.734749	-0.577807	-0.116407
H34	H	1.874003	-0.438659	-0.907185
C35	C	1.895016	-0.417688	-1.120947
C36	C	1.962262	-0.350534	-1.049430
C37	C	2.039212	-0.273707	-1.104099
H38	H	1.849266	-0.365263	-1.163752
H39	H	1.947368	-0.463560	-1.163730
H40	H	1.909916	-0.304666	-1.006665
H41	H	2.008037	-0.402928	-1.006623
H42	H	2.091565	-0.319578	-1.146882
H43	H	1.993453	-0.221290	-1.146902
H44	H	2.084856	-0.228141	-1.055583
H45	H	1.595448	-0.717047	-1.106190
C46	C	1.574704	-0.738183	-0.892271
C47	C	1.600830	-0.856925	-0.918924
C48	C	1.524202	-0.933924	-0.864094
H49	H	1.494030	-0.720766	-0.910198
H50	H	1.585695	-0.727298	-0.819060
H51	H	1.589829	-0.867805	-0.992118
H52	H	1.681490	-0.874380	-0.900994
H53	H	1.535192	-0.923039	-0.790883
H54	H	1.443532	-0.916496	-0.882025
H55	H	1.541925	-1.014499	-0.882163
