data_functionalizedCrystal
_audit_creation_method	'MofGen! by Chris Wilmer'
_symmetry_space_group_name_H-M	'P1'
_symmetry_Int_Tables_number	1
_symmetry_cell_setting	triclinic
loop_
_symmetry_equiv_pos_as_xyz
  x,y,z
_cell_length_a	10.489741
_cell_length_b	19.188930
_cell_length_c	9.565339
_cell_angle_alpha	89.995116
_cell_angle_beta	89.999100
_cell_angle_gamma	83.841978
loop_
_atom_site_label
_atom_site_type_symbol
_atom_site_fract_x
_atom_site_fract_y
_atom_site_fract_z
O1	O	1.691850	0.098497	-0.116191
O2	O	1.320448	0.107743	-0.116215
O3	O	1.516867	0.001537	-0.116175
O4	O	1.495431	0.204704	-0.116231
O5	O	1.516852	0.001543	0.116345
O6	O	1.320432	0.107750	0.116305
O7	O	1.691835	0.098504	0.116329
Zn8	Zn	1.506131	0.103128	0.153235
Zn9	Zn	1.506152	0.103119	-0.153121
O10	O	1.495416	0.204711	0.116289
C11	C	1.272924	0.107048	0.000043
C12	C	1.131341	0.104959	0.000035
C13	C	1.064712	0.037383	0.000067
C14	C	0.971879	0.069302	-0.114584
C15	C	0.971898	0.069325	0.114663
C16	C	1.040373	0.136906	-0.114710
C17	C	1.040401	0.136919	0.114640
C18	C	0.947595	0.168887	-0.000039
C19	C	1.516165	-0.024476	0.000089
C20	C	1.514081	-0.101994	0.000101
C21	C	1.629334	-0.146146	0.000115
C22	C	1.627376	-0.218983	0.000092
C23	C	1.510159	-0.247665	0.000084
C24	C	1.394892	-0.203503	0.000062
C25	C	1.396853	-0.130668	0.000071
N26	N	1.420556	-0.356268	0.079209
N27	N	1.418701	-0.425459	0.079204
C28	C	1.504244	-0.467113	0.000055
N29	N	1.591732	-0.436964	-0.079071
N30	N	1.593590	-0.367767	-0.079059
C31	C	1.508020	-0.326642	0.000074
C32	C	1.617382	-0.590244	0.000043
C33	C	1.615419	-0.663081	0.000012
C34	C	1.382932	-0.647600	-0.000004
C35	C	1.384898	-0.574764	0.000013
C36	C	1.502126	-0.546090	0.000043
C37	C	1.739359	0.099199	0.000068
C38	C	1.880941	0.101288	0.000067
C39	C	1.496118	0.230723	0.000022
C40	C	1.498202	0.308242	0.000001
N41	N	1.506127	0.103134	0.362314
N42	N	1.506166	0.103108	-0.362200
C43	C	1.415262	0.152234	0.453499
C44	C	1.530443	0.166361	0.546681
C45	C	1.390995	0.089012	0.546688
C46	C	1.621366	0.117292	0.453444
C47	C	1.481842	0.039916	0.453443
C48	C	1.597107	0.054016	0.546583
H49	H	1.721231	-0.254938	0.000098
H50	H	1.674049	0.012480	0.587197
H51	H	1.115644	-0.018169	-0.000061
H52	H	0.941553	0.040722	0.211592
H53	H	1.724790	-0.122805	0.000135
H54	H	1.070802	0.165492	0.211559
C55	C	1.267496	-0.234505	-0.000018
C56	C	1.166977	-0.180245	-0.000065
C57	C	1.049599	-0.208776	-0.000166
H58	H	1.261707	-0.262592	0.081042
H59	H	1.261840	-0.262573	-0.081139
H60	H	1.172631	-0.152190	0.081048
H61	H	1.172724	-0.152154	-0.081119
H62	H	1.043942	-0.236843	-0.081287
H63	H	1.043823	-0.236862	0.080895
H64	H	0.981383	-0.171965	-0.000211
C65	C	1.744783	-0.559241	-0.000024
C66	C	1.845301	-0.613501	-0.000074
C67	C	1.962680	-0.584970	-0.000160
H68	H	1.750567	-0.531165	0.081042
H69	H	1.750445	-0.531163	-0.081139
H70	H	1.839642	-0.641567	0.081033
H71	H	1.839560	-0.641581	-0.081134
H72	H	1.968342	-0.556892	-0.081275
H73	H	1.968451	-0.556895	0.080907
H74	H	2.030896	-0.621781	-0.000207
H75	H	1.302998	-0.094719	0.000060
H76	H	1.338490	0.193796	0.412628
C77	C	1.255795	-0.678866	0.000049
C78	C	1.278742	-0.752103	0.000072
C79	C	1.161652	-0.780931	0.000131
H80	H	1.208268	-0.663819	-0.081017
H81	H	1.208335	-0.663796	0.081163
H82	H	1.326182	-0.767166	-0.081034
H83	H	1.326250	-0.767169	0.081132
H84	H	1.114192	-0.765862	0.081245
H85	H	1.114133	-0.765880	-0.080936
H86	H	1.177205	-0.830625	0.000160
C87	C	1.454554	-0.031398	0.398969
C88	C	1.548624	-0.082824	0.448207
C89	C	1.523503	-0.148527	0.398064
H90	H	1.455560	-0.031088	0.299672
H91	H	1.372698	-0.041399	0.430878
H92	H	1.630460	-0.072827	0.416290
H93	H	1.547634	-0.083157	0.547498
H94	H	1.441646	-0.158528	0.429973
H95	H	1.524508	-0.148209	0.298769
H96	H	1.587318	-0.183428	0.431475
H97	H	1.709275	-0.699030	0.000015
C98	C	0.931475	0.031045	-0.243686
C99	C	0.991316	-0.037779	-0.243129
C100	C	0.954119	-0.073049	-0.362019
H101	H	0.956060	0.054517	-0.325209
H102	H	0.841057	0.030324	-0.243176
H103	H	1.081714	-0.037055	-0.243652
H104	H	0.966739	-0.061270	-0.161633
H105	H	0.863701	-0.073770	-0.361509
H106	H	0.978705	-0.049572	-0.443533
H107	H	0.994705	-0.119752	-0.361650
C108	C	1.259664	-0.526907	-0.000201
C109	C	1.189051	-0.539959	-0.119815
C110	C	1.073666	-0.495893	-0.120054
H111	H	1.277435	-0.479398	-0.000266
H112	H	1.211509	-0.535681	0.080838
H113	H	1.237196	-0.531179	-0.200833
H114	H	1.171246	-0.587459	-0.119776
H115	H	1.025511	-0.504667	-0.039015
H116	H	1.091450	-0.448387	-0.120115
H117	H	1.025736	-0.504747	-0.201204
H118	H	1.293614	0.077080	0.587649
C119	C	1.080886	0.174942	-0.244057
C120	C	1.214039	0.176417	-0.242611
C121	C	1.251411	0.211439	-0.361750
H122	H	1.039857	0.221542	-0.244522
H123	H	1.056961	0.151088	-0.325399
H124	H	1.237953	0.200272	-0.161290
H125	H	1.255100	0.129826	-0.242167
H126	H	1.227485	0.187584	-0.443092
H127	H	1.210373	0.258036	-0.362204
H128	H	1.341759	0.212438	-0.360791
H129	H	0.896927	0.224498	-0.000117
H130	H	1.551011	0.219812	0.587634
H131	H	1.718768	0.129289	0.412658
