data_functionalizedCrystal
_audit_creation_method	'MofGen! by Chris Wilmer'
_symmetry_space_group_name_H-M	'P1'
_symmetry_Int_Tables_number	1
_symmetry_cell_setting	triclinic
loop_
_symmetry_equiv_pos_as_xyz
  x,y,z
_cell_length_a	15.995300
_cell_length_b	17.699083
_cell_length_c	16.776229
_cell_angle_alpha	89.998886
_cell_angle_beta	89.997895
_cell_angle_gamma	83.377411
loop_
_atom_site_label
_atom_site_type_symbol
_atom_site_fract_x
_atom_site_fract_y
_atom_site_fract_z
O1	O	0.105888	1.004237	-0.066168
O2	O	0.119664	0.783880	-0.066194
O3	O	-0.009127	0.900102	-0.066184
O4	O	0.234679	0.888015	-0.066178
O5	O	-0.009135	0.900086	0.066392
O6	O	0.119656	0.783864	0.066383
O7	O	0.105880	1.004222	0.066408
Zn8	Zn	0.112767	0.894041	0.087445
Zn9	Zn	0.112777	0.894061	-0.087230
O10	O	0.234671	0.887999	0.066399
C11	C	0.119166	0.755674	0.000091
C12	C	0.117685	0.671654	0.000081
C13	C	-0.040325	0.899601	0.000101
C14	C	-0.133275	0.898123	0.000093
C15	C	0.193283	0.623146	0.000084
C16	C	0.191887	0.544201	0.000094
C17	C	0.114892	0.513764	0.000096
C18	C	0.039288	0.562278	0.000096
C19	C	0.040686	0.641222	0.000092
C20	C	0.033651	0.243907	0.000116
C21	C	0.032260	0.164957	0.000118
C22	C	0.184852	0.146885	0.000118
C23	C	0.186250	0.225829	0.000114
C24	C	0.110647	0.274336	0.000118
C25	C	0.112162	0.359938	0.000108
C26	C	0.113376	0.428165	0.000100
C27	C	-0.303452	0.895394	0.000101
C28	C	-0.351087	0.978147	0.000108
C29	C	-0.447772	0.976637	0.000412
C30	C	-0.471004	0.892708	0.000107
C31	C	-0.429790	0.851642	0.075660
C32	C	-0.333161	0.853736	0.075721
C33	C	-0.332874	0.852528	-0.075049
C34	C	-0.429818	0.852536	-0.076039
C35	C	-0.565696	0.891185	0.000113
C36	C	-0.208760	0.896914	0.000100
C37	C	0.265869	0.888500	0.000112
C38	C	0.358819	0.889978	0.000115
C39	C	0.106377	1.032427	0.000121
C40	C	0.107858	1.116448	0.000126
N41	N	0.112759	0.894032	0.206656
N42	N	0.112778	0.894075	-0.206442
C43	C	0.055754	0.945511	0.248377
C44	C	0.055753	0.945515	0.331830
C45	C	0.112762	0.894044	0.373559
C46	C	0.169770	0.842559	0.331832
C47	C	0.169766	0.842552	0.248381
C48	C	0.169787	0.842587	0.668379
C49	C	0.169788	0.842599	0.751836
C50	C	0.055773	0.945550	0.751827
C51	C	0.055770	0.945543	0.668377
C52	C	0.112774	0.894056	0.626657
C53	C	0.112773	0.894051	0.536169
C54	C	0.112768	0.894052	0.464046
H55	H	0.255981	0.647921	0.000081
H56	H	0.216186	0.800646	0.365813
H57	H	-0.030442	0.140179	0.000121
F58	F	-0.039776	0.692848	0.000092
F59	F	-0.042656	0.529884	0.000104
H60	H	0.009350	0.987458	0.634403
H61	H	0.009334	0.987428	0.214407
F62	F	-0.485065	1.018809	-0.070362
H63	H	0.216185	0.800632	0.214413
H64	H	0.216203	0.800666	0.634417
F65	F	-0.448053	0.771035	0.079049
H66	H	-0.027909	0.283392	0.000120
F67	F	0.268198	0.258217	0.000106
F68	F	0.272348	0.492578	0.000093
H69	H	0.216213	0.800682	0.785810
F70	F	-0.465631	0.891730	-0.149100
H71	H	0.246412	0.107381	0.000119
F72	F	-0.327009	1.021624	-0.070700
F73	F	-0.325548	1.020962	0.070827
H74	H	-0.475687	1.008752	0.054895
H75	H	-0.314904	0.883318	0.132420
F76	F	-0.449775	0.772580	-0.082349
F77	F	-0.306143	0.888143	-0.149924
F78	F	-0.290814	0.774312	0.079931
F79	F	-0.466932	0.888452	0.149441
H80	H	-0.300979	0.791513	-0.075776
F81	F	-0.004919	1.000304	0.376233
H82	H	0.009354	0.987471	0.785805
