data_functionalizedCrystal
_audit_creation_method	'MofGen! by Chris Wilmer'
_symmetry_space_group_name_H-M	'P1'
_symmetry_Int_Tables_number	1
_symmetry_cell_setting	triclinic
loop_
_symmetry_equiv_pos_as_xyz
  x,y,z
_cell_length_a	15.944557
_cell_length_b	19.188930
_cell_length_c	14.421503
_cell_angle_alpha	90.000837
_cell_angle_beta	90.005783
_cell_angle_gamma	83.323075
loop_
_atom_site_label
_atom_site_type_symbol
_atom_site_fract_x
_atom_site_fract_y
_atom_site_fract_z
O1	O	-1.114189	-0.090060	-0.077082
O2	O	-0.780856	0.243274	0.256251
O3	O	-0.447522	0.576607	0.589584
O4	O	-0.869599	-0.101157	-0.077094
O5	O	-0.536265	0.232176	0.256239
O6	O	-0.202932	0.565510	0.589572
O7	O	-0.998952	0.006029	-0.077070
O8	O	-0.665619	0.339362	0.256263
O9	O	-0.332285	0.672696	0.589597
O10	O	-0.984835	-0.197246	-0.077107
O11	O	-0.651502	0.136088	0.256226
O12	O	-0.318169	0.469421	0.589560
O13	O	-0.998931	0.006013	0.077153
O14	O	-0.665597	0.339346	0.410487
O15	O	-0.332264	0.672680	0.743820
O16	O	-0.869577	-0.101173	0.077129
O17	O	-0.536244	0.232160	0.410462
O18	O	-0.202910	0.565494	0.743796
O19	O	-1.114168	-0.090076	0.077141
O20	O	-0.780834	0.243258	0.410474
O21	O	-0.447501	0.576591	0.743808
Cu22	Cu	-0.991870	-0.095626	0.091217
Cu23	Cu	-0.658537	0.237708	0.424550
Cu24	Cu	-0.325204	0.571041	0.757883
Cu25	Cu	-0.991896	-0.095607	-0.091170
Cu26	Cu	-0.658562	0.237727	0.242163
Cu27	Cu	-0.325229	0.571060	0.575496
O28	O	-0.984814	-0.197261	0.077117
O29	O	-0.651481	0.136072	0.410450
O30	O	-0.318147	0.469405	0.743783
C31	C	-0.838296	-0.100703	0.000016
C32	C	-0.504962	0.232630	0.333349
C33	C	-0.171629	0.565963	0.666683
C34	C	-0.745055	-0.099320	0.000012
C35	C	-0.411722	0.234013	0.333346
C36	C	-0.078388	0.567347	0.666679
C37	C	-0.474688	-0.028744	0.000040
C38	C	-0.141355	0.304589	0.333373
C39	C	0.191979	0.637922	0.666707
C40	C	-0.525132	-0.062775	0.076075
C41	C	-0.191798	0.270558	0.409409
C42	C	0.141535	0.603892	0.742742
C43	C	-0.409432	-0.094386	0.000035
C44	C	-0.076098	0.238948	0.333368
C45	C	0.257235	0.572281	0.666702
C46	C	-0.525133	-0.062777	-0.075977
C47	C	-0.191800	0.270556	0.257356
C48	C	0.141533	0.603890	0.590690
C49	C	-0.574335	-0.096806	0.000022
C50	C	-0.241002	0.236527	0.333356
C51	C	0.092331	0.569860	0.666689
C52	C	-0.458647	-0.128399	0.076133
C53	C	-0.125314	0.204934	0.409467
C54	C	0.208020	0.538268	0.742800
C55	C	-0.458645	-0.128391	-0.075987
C56	C	-0.125312	0.204942	0.257346
C57	C	0.208021	0.538275	0.590679
C58	C	-0.509056	-0.162470	0.000067
C59	C	-0.175722	0.170863	0.333400
C60	C	0.157611	0.504197	0.666733
C61	C	-0.314435	-0.092989	0.000043
C62	C	0.018898	0.240344	0.333377
C63	C	0.352231	0.573677	0.666710
C64	C	-0.669329	-0.098208	0.000021
C65	C	-0.335995	0.235125	0.333354
C66	C	-0.002662	0.568459	0.666688
C67	C	-0.998484	0.032033	0.000044
C68	C	-0.665151	0.365367	0.333378
C69	C	-0.331818	0.698700	0.666711
C70	C	-0.997112	0.109541	0.000052
C71	C	-0.663779	0.442875	0.333386
C72	C	-0.330445	0.776208	0.666719
C73	C	-0.145472	-0.090520	0.000033
C74	C	0.187861	0.242814	0.333366
C75	C	0.521195	0.576147	0.666700
C76	C	-0.238717	-0.091875	0.000044
C77	C	0.094616	0.241459	0.333378
C78	C	0.427950	0.574792	0.666711
C79	C	-0.985282	-0.223266	0.000000
C80	C	-0.651949	0.110068	0.333333
C81	C	-0.318615	0.443401	0.666667
C82	C	-0.986654	-0.300774	-0.000014
C83	C	-0.653321	0.032560	0.333319
C84	C	-0.319987	0.365893	0.666653
C85	C	-1.073012	0.154268	0.000060
C86	C	-0.739679	0.487601	0.333394
C87	C	-0.406346	0.820934	0.666727
C88	C	-1.071723	0.227095	0.000045
C89	C	-0.738390	0.560428	0.333379
C90	C	-0.405056	0.893761	0.666712
C91	C	-0.994529	0.255192	0.000041
C92	C	-0.661196	0.588526	0.333374
C93	C	-0.327862	0.921859	0.666708
C94	C	-0.918619	0.210456	0.000028
C95	C	-0.585285	0.543790	0.333361
C96	C	-0.251952	0.877123	0.666694
C97	C	-0.919910	0.137631	0.000033
C98	C	-0.586577	0.470964	0.333367
C99	C	-0.253243	0.804297	0.666700
N100	N	-0.935516	0.363346	0.052523
N101	N	-0.602183	0.696679	0.385857
N102	N	-0.268850	1.030012	0.719190
N103	N	-0.934295	0.432527	0.052520
N104	N	-0.600961	0.765861	0.385853
N105	N	-0.267628	1.099194	0.719187
C106	C	-0.990634	0.474611	0.000022
C107	C	-0.657300	0.807944	0.333355
C108	C	-0.323967	1.141278	0.666689
N109	N	-1.048253	0.444901	-0.052461
N110	N	-0.714920	0.778234	0.280873
N111	N	-0.381586	1.111568	0.614206
N112	N	-1.049477	0.375713	-0.052453
N113	N	-0.716144	0.709046	0.280880
N114	N	-0.382810	1.042380	0.614214
C115	C	-0.993120	0.334159	0.000034
C116	C	-0.659787	0.667492	0.333368
C117	C	-0.326454	1.000825	0.666701
C118	C	-1.065141	0.598305	0.000013
C119	C	-0.731808	0.931639	0.333346
C120	C	-0.398475	1.264972	0.666679
C121	C	-1.063849	0.671134	-0.000008
C122	C	-0.730516	1.004467	0.333325
C123	C	-0.397182	1.337800	0.666659
C124	C	-0.910742	0.654494	-0.000016
C125	C	-0.577409	0.987827	0.333317
C126	C	-0.244076	1.321160	0.666650
C127	C	-0.912037	0.581667	-0.000005
C128	C	-0.578704	0.915000	0.333328
C129	C	-0.245370	1.248334	0.666662
C130	C	-0.989239	0.553578	0.000014
C131	C	-0.655905	0.886911	0.333347
C132	C	-0.322572	1.220244	0.666681
N133	N	-0.991859	-0.095639	0.219498
N134	N	-0.658525	0.237695	0.552831
N135	N	-0.325192	0.571028	0.886165
N136	N	-0.991914	-0.095588	-0.219451
N137	N	-0.658581	0.237745	0.113882
N138	N	-0.325247	0.571078	0.447215
C139	C	-0.932035	-0.145179	0.469140
C140	C	-0.598702	0.188154	0.802474
C141	C	-0.265368	0.521488	1.135807
C142	C	-1.007884	-0.158735	0.530944
C143	C	-0.674551	0.174598	0.864277
C144	C	-0.341218	0.507931	1.197611
C145	C	-0.991879	-0.095622	0.408659
C146	C	-0.658546	0.237712	0.741993
C147	C	-0.325213	0.571045	1.075326
C148	C	-0.916050	-0.082082	0.530950
C149	C	-0.582716	0.251252	0.864283
C150	C	-0.249383	0.584585	1.197617
C151	C	-0.991892	-0.095607	0.591381
C152	C	-0.658559	0.237726	0.924714
C153	C	-0.325225	0.571059	1.258048
C154	C	-1.067766	-0.109210	0.469102
C155	C	-0.734433	0.224124	0.802435
C156	C	-0.401100	0.557457	1.135769
C157	C	-0.975882	-0.032529	0.469103
C158	C	-0.642549	0.300805	0.802436
C159	C	-0.309215	0.634138	1.135769
C160	C	-1.051786	-0.046058	0.530878
C161	C	-0.718453	0.287275	0.864212
C162	C	-0.385119	0.620608	1.197545
C163	C	-0.991870	-0.095632	0.303398
C164	C	-0.658537	0.237701	0.636732
C165	C	-0.325204	0.571035	0.970065
C166	C	-0.991910	-0.095597	0.696640
C167	C	-0.658576	0.237737	1.029973
C168	C	-0.325243	0.571070	1.363306
H169	H	-0.524336	-0.219048	0.000101
H170	H	-0.191002	0.114286	0.333434
H171	H	0.142331	0.447619	0.666767
H172	H	-1.133532	0.263518	0.000048
H173	H	-0.800199	0.596851	0.333382
H174	H	-0.466866	0.930184	0.666715
O175	O	-1.118895	0.009468	0.566569
O176	O	-0.785562	0.342802	0.899903
O177	O	-0.452228	0.676135	1.233236
H178	H	-1.118062	0.009384	0.643528
H179	H	-0.784729	0.342718	0.976862
H180	H	-0.451396	0.676051	1.310195
H181	H	-0.855767	0.233338	0.000022
H182	H	-0.522433	0.566671	0.333355
H183	H	-0.189100	0.900005	0.666689
H184	H	-0.429604	-0.156082	-0.140282
H185	H	-0.096271	0.177251	0.193051
H186	H	0.237062	0.510584	0.526385
H187	H	-0.554163	-0.035037	-0.140256
H188	H	-0.220830	0.298296	0.193077
H189	H	0.112504	0.631630	0.526410
H190	H	-0.881478	-0.187122	0.442033
H191	H	-0.548145	0.146212	0.775366
H192	H	-0.214812	0.479545	1.108700
H193	H	-0.858101	0.101214	0.000027
H194	H	-0.524767	0.434547	0.333360
H195	H	-0.191434	0.767880	0.666694
O196	O	-1.145720	0.719376	0.000010
O197	O	-0.812386	1.052710	0.333343
O198	O	-0.479053	1.386043	0.666676
H199	H	-1.182696	0.709380	-0.062835
H200	H	-0.849363	1.042713	0.270499
H201	H	-0.516030	1.376047	0.603832
H202	H	-0.962315	0.020805	0.441918
H203	H	-0.628982	0.354138	0.775251
H204	H	-0.295649	0.687471	1.108585
H205	H	-1.135876	0.131402	0.000073
H206	H	-0.802543	0.464736	0.333406
H207	H	-0.469209	0.798069	0.666739
O208	O	-0.827479	0.684786	-0.000017
O209	O	-0.494146	1.018120	0.333316
O210	O	-0.160812	1.351453	0.666650
H211	H	-0.839331	0.742941	-0.000013
H212	H	-0.505997	1.076275	0.333320
H213	H	-0.172664	1.409608	0.666653
H214	H	-0.459246	0.027790	0.000124
H215	H	-0.125913	0.361123	0.333458
H216	H	0.207420	0.694456	0.666791
O217	O	-0.420342	-0.165100	0.161378
O218	O	-0.087008	0.168233	0.494711
O219	O	0.246325	0.501567	0.828044
H220	H	-0.471018	-0.184379	0.203704
H221	H	-0.137685	0.148954	0.537037
H222	H	0.195648	0.482287	0.870370
H223	H	-1.128004	0.575434	0.000024
H224	H	-0.794670	0.908767	0.333357
H225	H	-0.461337	1.242101	0.666691
O226	O	-0.830173	0.533419	0.000009
O227	O	-0.496839	0.866752	0.333343
O228	O	-0.163506	1.200086	0.666676
H229	H	-0.776276	0.565189	0.000015
H230	H	-0.442943	0.898523	0.333348
H231	H	-0.109610	1.231856	0.666681
O232	O	-0.831103	-0.066910	0.566938
O233	O	-0.497769	0.266423	0.900272
O234	O	-0.164436	0.599756	1.233605
H235	H	-0.781538	-0.108125	0.542202
H236	H	-0.448205	0.225208	0.875535
H237	H	-0.114872	0.558542	1.208869
H238	H	-1.021427	-0.212086	0.558107
H239	H	-0.688094	0.121248	0.891440
H240	H	-0.354760	0.454581	1.224774
O241	O	-1.152741	-0.124456	0.433283
O242	O	-0.819408	0.208878	0.766616
O243	O	-0.486074	0.542211	1.099950
H244	H	-1.144638	-0.172835	0.390462
H245	H	-0.811305	0.160498	0.723796
H246	H	-0.477972	0.493832	1.057129
O247	O	-0.563617	-0.026062	0.161219
O248	O	-0.230283	0.307271	0.494552
O249	O	0.103050	0.640605	0.827885
H250	H	-0.550177	0.029409	0.161066
H251	H	-0.216844	0.362742	0.494400
H252	H	0.116490	0.696076	0.827733
