data_functionalizedCrystal
_audit_creation_method	'MofGen! by Chris Wilmer'
_symmetry_space_group_name_H-M	'P1'
_symmetry_Int_Tables_number	1
_symmetry_cell_setting	triclinic
loop_
_symmetry_equiv_pos_as_xyz
  x,y,z
_cell_length_a	17.640112
_cell_length_b	29.839131
_cell_length_c	17.637464
_cell_angle_alpha	101.171283
_cell_angle_beta	109.606029
_cell_angle_gamma	101.266684
loop_
_atom_site_label
_atom_site_type_symbol
_atom_site_fract_x
_atom_site_fract_y
_atom_site_fract_z
Zn1	Zn	1.165461	-0.069119	-0.211669
Zn2	Zn	1.193215	-0.125224	-0.073888
Zn3	Zn	1.055540	-0.069141	-0.101696
Zn4	Zn	1.027581	-0.163275	-0.239445
O5	O	1.110449	-0.106690	-0.156675
O6	O	1.284463	-0.060628	-0.170130
O7	O	1.198269	-0.101869	0.037733
O8	O	1.070207	-0.006262	-0.116297
O9	O	1.304854	-0.101848	-0.068903
O10	O	1.150965	-0.006247	-0.197094
O11	O	1.097120	-0.060665	0.017303
O12	O	0.936511	-0.097561	-0.143231
O13	O	1.022554	-0.166700	-0.351071
O14	O	0.915969	-0.166721	-0.244435
O15	O	1.123854	-0.097525	-0.330664
O16	O	1.171158	-0.193147	-0.095837
O17	O	1.049467	-0.221103	-0.217471
C18	C	0.896338	-0.136273	-0.199865
C19	C	0.804737	-0.148942	-0.218362
C20	C	0.556750	-0.010435	-0.016165
C21	C	0.470674	-0.022351	-0.033556
C22	C	0.449375	-0.094421	-0.138758
C23	C	0.535450	-0.082510	-0.121378
C24	C	0.589131	-0.040517	-0.060080
C25	C	0.567831	-0.112592	-0.165294
C26	C	0.653900	-0.100684	-0.147912
C27	C	0.707587	-0.058693	-0.086615
C28	C	0.675199	-0.028609	-0.042698
C29	C	0.514150	-0.154587	-0.226587
C30	C	0.546531	-0.184669	-0.270502
C31	C	0.632600	-0.172759	-0.253125
C32	C	0.686287	-0.130769	-0.191828
C33	C	0.664987	-0.202844	-0.297042
C34	C	0.751056	-0.190935	-0.279660
C35	C	0.772355	-0.118860	-0.174446
C36	C	1.110309	-0.223427	-0.156664
C37	C	1.110318	-0.273361	-0.156672
C38	C	1.173894	-0.568418	-0.093398
C39	C	1.173989	-0.756082	-0.093409
O40	O	1.227932	-0.767956	-0.039604
N41	N	1.110608	-0.794117	-0.156702
C42	C	1.047201	-0.785234	-0.220000
O43	O	0.993298	-0.821891	-0.273840
C44	C	1.047109	-0.597571	-0.219992
C45	C	1.110491	-0.559538	-0.156689
C46	C	1.237270	-0.530386	-0.030101
C47	C	1.237243	-0.483473	-0.030096
C48	C	1.173840	-0.474592	-0.093388
C49	C	1.110464	-0.512625	-0.156685
C50	C	0.983707	-0.588689	-0.283292
C51	C	0.983691	-0.541769	-0.283285
C52	C	1.047072	-0.503736	-0.219983
C53	C	1.047033	-0.456832	-0.219972
N54	N	1.110415	-0.418796	-0.156678
C55	C	1.173818	-0.427677	-0.093386
C56	C	1.047252	-0.883759	-0.220000
C57	C	1.047274	-0.930674	-0.220001
C58	C	1.174064	-0.901518	-0.093410
C59	C	1.174038	-0.854602	-0.093406
C60	C	1.110634	-0.845724	-0.156706
C61	C	1.173756	-0.329158	-0.093381
C62	C	1.173722	-0.282242	-0.093380
C63	C	1.046935	-0.311402	-0.219973
C64	C	1.046967	-0.358313	-0.219972
C65	C	1.110385	-0.367189	-0.156672
O66	O	0.993124	-0.444921	-0.273754
O67	O	1.227723	-0.391013	-0.039565
C68	C	1.173921	-0.615331	-0.093402
C69	C	1.110545	-0.653364	-0.156699
C70	C	1.047141	-0.644483	-0.219991
C71	C	1.110566	-0.700279	-0.156700
C72	C	1.173970	-0.709159	-0.093409
C73	C	1.237351	-0.671124	-0.030115
C74	C	1.237324	-0.624211	-0.030111
C75	C	0.983759	-0.682518	-0.283284
C76	C	0.983791	-0.729430	-0.283283
C77	C	1.047195	-0.738310	-0.219991
C78	C	1.325396	-0.076991	-0.113316
C79	C	1.416994	-0.064336	-0.094839
C80	C	1.066990	-0.136355	-0.371602
C81	C	1.048470	-0.148996	-0.463191
C82	C	1.110609	0.010504	-0.156699
C83	C	1.110677	0.060445	-0.156709
C84	C	0.969631	-0.202827	-0.602907
C85	C	0.987039	-0.190944	-0.516844
C86	C	1.092520	-0.118916	-0.495586
C87	C	1.075123	-0.130794	-0.581649
C88	C	1.013677	-0.172749	-0.635303
C89	C	1.119170	-0.100716	-0.614045
C90	C	1.101771	-0.112592	-0.700100
C91	C	1.040326	-0.154545	-0.753760
C92	C	0.996279	-0.184625	-0.721358
C93	C	1.180611	-0.058759	-0.560390
C94	C	1.224658	-0.028682	-0.592786
C95	C	1.207264	-0.040559	-0.678842
C96	C	1.145819	-0.082512	-0.732502
C97	C	1.251311	-0.010479	-0.711244
C98	C	1.233913	-0.022355	-0.797299
C99	C	1.128420	-0.094388	-0.818557
C100	C	1.153787	-0.077101	0.057426
C101	C	1.172467	-0.064311	0.149047
H102	H	0.621269	-0.237037	-0.346944
H103	H	0.816064	-0.084660	-0.124544
H104	H	0.777420	-0.215431	-0.315421
H105	H	0.405657	-0.128613	-0.188665
H106	H	0.777669	-0.048999	-0.072462
H107	H	1.288975	-0.678363	0.021421
H108	H	1.078390	-0.128555	-0.862245
H109	H	0.718908	0.005591	0.007204
H110	H	1.274685	0.005479	-0.549090
H111	H	1.288935	-0.593247	0.021436
H112	H	0.995311	-0.304164	-0.271502
H113	H	0.600458	0.023765	0.033738
H114	H	1.301335	0.023683	-0.667547
H115	H	1.288906	-0.537609	0.021440
H116	H	0.932129	-0.675293	-0.334825
H117	H	0.946249	-0.218792	-0.765046
H118	H	1.225689	-0.908756	-0.041876
H119	H	1.225648	-0.823637	-0.041861
H120	H	0.995656	-0.961639	-0.271542
H121	H	1.026156	-0.164212	-0.823833
H122	H	0.444313	0.002151	0.002204
H123	H	0.932092	-0.619650	-0.334837
H124	H	0.502813	-0.218861	-0.320409
H125	H	1.142547	-0.084754	-0.451890
H126	H	0.444068	-0.164282	-0.240737
H127	H	1.225335	-0.251274	-0.041829
H128	H	1.225399	-0.336377	-0.041837
H129	H	0.951151	-0.215433	-0.490475
H130	H	1.288856	-0.452507	0.021448
H131	H	0.932171	-0.760395	-0.334832
H132	H	0.919601	-0.236993	-0.646594
H133	H	0.932060	-0.534545	-0.334834
H134	H	0.995619	-0.876535	-0.271548
H135	H	0.995359	-0.389282	-0.271519
H136	H	1.194777	-0.049092	-0.490318
H137	H	1.269776	0.002138	-0.823677
