data_functionalizedCrystal
_audit_creation_method	'MofGen! by Chris Wilmer'
_symmetry_space_group_name_H-M	'P1'
_symmetry_Int_Tables_number	1
_symmetry_cell_setting	triclinic
loop_
_symmetry_equiv_pos_as_xyz
  x,y,z
_cell_length_a	16.120530
_cell_length_b	16.120444
_cell_length_c	12.759393
_cell_angle_alpha	92.864751
_cell_angle_beta	87.079999
_cell_angle_gamma	90.168401
loop_
_atom_site_label
_atom_site_type_symbol
_atom_site_fract_x
_atom_site_fract_y
_atom_site_fract_z
Zn1	Zn	1.254497	-0.395559	-0.699373
Zn2	Zn	1.587831	-0.062226	-0.366040
Zn3	Zn	1.921164	0.271108	-0.032707
Zn4	Zn	1.247331	-0.534631	-0.532107
Zn5	Zn	1.580664	-0.201298	-0.198774
Zn6	Zn	1.913997	0.132036	0.134559
Zn7	Zn	1.115429	-0.388539	-0.514379
Zn8	Zn	1.448762	-0.055206	-0.181046
Zn9	Zn	1.782096	0.278128	0.152288
Zn10	Zn	1.108347	-0.527513	-0.698414
Zn11	Zn	1.441681	-0.194179	-0.365081
Zn12	Zn	1.775014	0.139154	-0.031747
O13	O	1.181401	-0.461561	-0.611068
O14	O	1.514734	-0.128227	-0.277735
O15	O	1.848068	0.205106	0.055598
O16	O	1.369912	-0.419924	-0.685006
O17	O	1.703246	-0.086591	-0.351673
O18	O	2.036579	0.246742	-0.018339
O19	O	1.229798	-0.515293	-0.382735
O20	O	1.563131	-0.181959	-0.049401
O21	O	1.896465	0.151374	0.283932
O22	O	1.139840	-0.273107	-0.531901
O23	O	1.473173	0.060226	-0.198568
O24	O	1.806506	0.393559	0.134766
O25	O	1.364647	-0.522100	-0.562116
O26	O	1.697980	-0.188766	-0.228783
O27	O	2.031314	0.144567	0.104550
O28	O	1.242013	-0.278265	-0.667815
O29	O	1.575346	0.055068	-0.334482
O30	O	1.908679	0.388402	-0.001149
O31	O	1.132890	-0.407960	-0.369710
O32	O	1.466224	-0.074626	-0.036376
O33	O	1.799557	0.258707	0.296957
O34	O	0.998124	-0.401057	-0.530971
O35	O	1.331457	-0.067724	-0.197637
O36	O	1.664790	0.265609	0.135696
O37	O	1.127770	-0.509968	-0.845562
O38	O	1.461103	-0.176634	-0.512229
O39	O	1.794437	0.156699	-0.178895
O40	O	0.992921	-0.503161	-0.666181
O41	O	1.326254	-0.169827	-0.332847
O42	O	1.659588	0.163506	0.000486
O43	O	1.235146	-0.413022	-0.846267
O44	O	1.568479	-0.079689	-0.512933
O45	O	1.901813	0.253645	-0.179600
O46	O	1.222931	-0.650050	-0.561186
O47	O	1.556265	-0.316717	-0.227853
O48	O	1.889598	0.016617	0.105481
O49	O	1.120821	-0.644820	-0.683371
O50	O	1.454154	-0.311487	-0.350038
O51	O	1.787487	0.021847	-0.016704
C52	C	0.965350	-0.450575	-0.596548
C53	C	1.298683	-0.117242	-0.263215
C54	C	1.632017	0.216091	0.070118
C55	C	0.872921	-0.445896	-0.590363
C56	C	1.206255	-0.112563	-0.257029
C57	C	1.539588	0.220771	0.076304
C58	C	0.703694	-0.437333	-0.579077
C59	C	1.037027	-0.104000	-0.245744
C60	C	1.370360	0.229334	0.087589
C61	C	0.659946	-0.485849	-0.643140
C62	C	0.993279	-0.152516	-0.309806
C63	C	1.326612	0.180817	0.023527
C64	C	0.565782	-0.481085	-0.636860
C65	C	0.899115	-0.147751	-0.303527
C66	C	1.232448	0.185582	0.029806
C67	C	0.797866	-0.442096	-0.585355
C68	C	1.131200	-0.108763	-0.252022
C69	C	1.464533	0.224570	0.081311
C70	C	1.170352	-0.677608	-0.624123
C71	C	1.503686	-0.344274	-0.290789
C72	C	1.837019	-0.010941	0.042544
C73	C	1.165702	-0.770037	-0.629748
C74	C	1.499035	-0.436704	-0.296414
C75	C	1.832368	-0.103371	0.036919
C76	C	1.205730	-0.983014	-0.582129
C77	C	1.539063	-0.649681	-0.248795
C78	C	1.872397	-0.316348	0.084538
C79	C	1.157226	-0.939263	-0.640029
C80	C	1.490560	-0.605930	-0.306696
C81	C	1.823893	-0.272597	0.026637
C82	C	1.161943	-0.845097	-0.634307
C83	C	1.495277	-0.511764	-0.300974
C84	C	1.828610	-0.178431	0.032360
C85	C	1.201014	-1.077189	-0.587850
C86	C	1.534347	-0.743855	-0.254516
C87	C	1.867681	-0.410522	0.078817
C88	C	1.398296	-0.472589	-0.625646
C89	C	1.731629	-0.139256	-0.292312
C90	C	2.064962	0.194078	0.041021
C91	C	1.490723	-0.477289	-0.631858
C92	C	1.824057	-0.143956	-0.298524
C93	C	2.157390	0.189378	0.034809
C94	C	1.181467	-0.461484	-0.885101
C95	C	1.514801	-0.128151	-0.551768
C96	C	1.848134	0.205183	-0.218435
C97	C	1.181496	-0.461451	-1.001878
C98	C	1.514829	-0.128118	-0.668544
C99	C	1.848162	0.205215	-0.335211
C100	C	1.192516	-0.244671	-0.597988
C101	C	1.525849	0.088662	-0.264654
C102	C	1.859182	0.421996	0.068679
C103	C	1.197252	-0.152245	-0.592413
C104	C	1.530585	0.181088	-0.259080
C105	C	1.863919	0.514421	0.074253
C106	C	1.237411	-0.410963	-1.057108
C107	C	1.570744	-0.077630	-0.723775
C108	C	1.904077	0.255703	-0.390441
C109	C	1.237427	-0.410928	-1.166831
C110	C	1.570760	-0.077595	-0.833498
C111	C	1.904093	0.255739	-0.500164
C112	C	1.125610	-0.511876	-1.166084
C113	C	1.458943	-0.178543	-0.832750
C114	C	1.792276	0.154791	-0.499417
C115	C	1.125590	-0.511906	-1.056362
C116	C	1.458924	-0.178573	-0.723029
C117	C	1.792257	0.154761	-0.389696
C118	C	1.181386	-0.461579	-0.338101
C119	C	1.514719	-0.128246	-0.004768
C120	C	1.848053	0.205087	0.328565
C121	C	1.181531	-0.461386	-0.221322
C122	C	1.514864	-0.128053	0.112011
C123	C	1.848197	0.205281	0.445345
H124	H	0.670430	-0.392223	-0.519520
H125	H	1.003764	-0.058890	-0.186187
H126	H	1.337097	0.274443	0.147146
H127	H	1.080095	-0.552956	-1.210459
H128	H	1.413429	-0.219623	-0.877125
H129	H	1.746762	0.113710	-0.543792
H130	H	1.282930	-0.369877	-1.012750
H131	H	1.616263	-0.036544	-0.679416
H132	H	1.949597	0.296789	-0.346083
N133	N	1.262247	-0.941289	-0.514532
N134	N	1.595580	-0.607955	-0.181198
N135	N	1.928913	-0.274622	0.152135
N136	N	1.256285	-0.950692	-0.417789
N137	N	1.589618	-0.617359	-0.084456
N138	N	1.922952	-0.284026	0.248878
H139	H	1.296196	-0.921214	-0.370045
H140	H	1.629530	-0.587881	-0.036712
H141	H	1.962863	-0.254548	0.296622
H142	H	1.282957	-0.369814	-1.211795
H143	H	1.616290	-0.036481	-0.878461
H144	H	1.949624	0.296852	-0.545128
N145	N	1.100690	-0.981000	-0.707601
N146	N	1.434023	-0.647666	-0.374268
N147	N	1.767357	-0.314333	-0.040935
N148	N	1.096887	-1.058545	-0.712210
N149	N	1.430220	-0.725211	-0.378876
N150	N	1.763554	-0.391878	-0.045543
H151	H	1.056958	-1.088025	-0.759927
H152	H	1.390291	-0.754692	-0.426594
H153	H	1.723625	-0.421359	-0.093260
N154	N	1.068469	-0.563469	-0.999923
N155	N	1.401802	-0.230135	-0.666590
N156	N	1.735135	0.103198	-0.333256
N157	N	1.016972	-0.531524	-0.933368
N158	N	1.350306	-0.198191	-0.600035
N159	N	1.683639	0.135142	-0.266702
H160	H	0.976629	-0.567935	-0.893506
H161	H	1.309962	-0.234602	-0.560173
H162	H	1.643295	0.098732	-0.226839
H163	H	0.693211	-0.530962	-0.702702
H164	H	1.026545	-0.197629	-0.369369
H165	H	1.359878	0.135704	-0.036036
