data_functionalizedCrystal
_audit_creation_method	'MofGen! by Chris Wilmer'
_symmetry_space_group_name_H-M	'P1'
_symmetry_Int_Tables_number	1
_symmetry_cell_setting	triclinic
loop_
_symmetry_equiv_pos_as_xyz
  x,y,z
_cell_length_a	18.215407
_cell_length_b	15.299816
_cell_length_c	18.215399
_cell_angle_alpha	80.342622
_cell_angle_beta	90.019833
_cell_angle_gamma	80.351325
loop_
_atom_site_label
_atom_site_type_symbol
_atom_site_fract_x
_atom_site_fract_y
_atom_site_fract_z
Zn1	Zn	1.175767	-0.359060	0.466870
Zn2	Zn	1.509101	-0.025727	0.800203
Zn3	Zn	1.842434	0.307606	1.133536
Zn4	Zn	1.196971	-0.509888	0.365123
Zn5	Zn	1.530304	-0.176555	0.698456
Zn6	Zn	1.863637	0.156779	1.031790
Zn7	Zn	1.052704	-0.359090	0.343821
Zn8	Zn	1.386037	-0.025756	0.677155
Zn9	Zn	1.719371	0.307577	1.010488
Zn10	Zn	1.073954	-0.509838	0.488141
Zn11	Zn	1.407287	-0.176505	0.821474
Zn12	Zn	1.740620	0.156829	1.154808
O13	O	1.124849	-0.434469	0.415989
O14	O	1.458182	-0.101136	0.749322
O15	O	1.791516	0.232198	1.082655
O16	O	1.281565	-0.379077	0.453386
O17	O	1.614899	-0.045743	0.786719
O18	O	1.948232	0.287590	1.120052
O19	O	1.177814	-0.489918	0.259318
O20	O	1.511147	-0.156584	0.592651
O21	O	1.844481	0.176749	0.925984
O22	O	1.051262	-0.232875	0.342327
O23	O	1.384595	0.100458	0.675660
O24	O	1.717928	0.433791	1.008993
O25	O	1.297144	-0.489889	0.378633
O26	O	1.630477	-0.156556	0.711966
O27	O	1.963810	0.176778	1.045300
O28	O	1.141676	-0.232854	0.432730
O29	O	1.475009	0.100480	0.766063
O30	O	1.808342	0.433813	1.099397
O31	O	1.071822	-0.379127	0.243667
O32	O	1.405155	-0.045793	0.577001
O33	O	1.738489	0.287540	0.910334
O34	O	0.952537	-0.379078	0.362953
O35	O	1.285871	-0.045745	0.696286
O36	O	1.619204	0.287589	1.029619
O37	O	1.087479	-0.489804	0.588299
O38	O	1.420812	-0.156470	0.921632
O39	O	1.754146	0.176863	1.254966
O40	O	0.968149	-0.489832	0.468984
O41	O	1.301483	-0.156499	0.802317
O42	O	1.634816	0.176835	1.135650
O43	O	1.162281	-0.379028	0.572671
O44	O	1.495614	-0.045694	0.906004
O45	O	1.828947	0.287639	1.239338
O46	O	1.198419	-0.636092	0.399259
O47	O	1.531753	-0.302759	0.732592
O48	O	1.865086	0.030575	1.065925
O49	O	1.108039	-0.636055	0.489639
O50	O	1.441372	-0.302722	0.822973
O51	O	1.774706	0.030612	1.156306
C52	C	0.933640	-0.434454	0.415965
C53	C	1.266974	-0.101120	0.749299
C54	C	1.600307	0.232213	1.082632
C55	C	0.851844	-0.434469	0.415976
C56	C	1.185177	-0.101135	0.749309
C57	C	1.518510	0.232198	1.082643
C58	C	0.671811	-0.492229	0.471140
C59	C	1.005144	-0.158896	0.804473
C60	C	1.338478	0.174438	1.137807
C61	C	0.594953	-0.492232	0.471150
C62	C	0.928286	-0.158898	0.804483
C63	C	1.261619	0.174435	1.137816
C64	C	0.578641	-0.376725	0.360856
C65	C	0.911974	-0.043392	0.694189
C66	C	1.245308	0.289941	1.027522
C67	C	0.655497	-0.376719	0.360850
C68	C	0.988831	-0.043385	0.694183
C69	C	1.322164	0.289948	1.027516
C70	C	0.702081	-0.434476	0.415992
C71	C	1.035415	-0.101142	0.749325
C72	C	1.368748	0.232191	1.082658
C73	C	0.548366	-0.434485	0.416007
C74	C	0.881700	-0.101152	0.749340
C75	C	1.215033	0.232182	1.082674
C76	C	0.465033	-0.434488	0.416017
C77	C	0.798366	-0.101154	0.749350
C78	C	1.131700	0.232179	1.082684
C79	C	0.785420	-0.434472	0.415983
C80	C	1.118753	-0.101139	0.749316
C81	C	1.452086	0.232195	1.082649
C82	C	1.157856	-0.668798	0.449085
C83	C	1.491189	-0.335465	0.782418
C84	C	1.824523	-0.002132	1.115752
C85	C	1.172044	-0.769046	0.463268
C86	C	1.505377	-0.435712	0.796602
C87	C	1.838710	-0.102379	1.129935
C88	C	1.023929	-1.051970	0.314869
C89	C	1.357262	-0.718636	0.648202
C90	C	1.690595	-0.385303	0.981535
C91	C	1.010595	-0.957782	0.301545
C92	C	1.343928	-0.624449	0.634878
C93	C	1.677262	-0.291116	0.968211
C94	C	1.050956	-0.910594	0.341974
C95	C	1.384289	-0.577260	0.675307
C96	C	1.717623	-0.243927	1.008641
C97	C	1.104653	-0.957601	0.395730
C98	C	1.437987	-0.624268	0.729064
C99	C	1.771320	-0.290935	1.062397
C100	C	1.117984	-1.051798	0.409060
C101	C	1.451318	-0.718464	0.742393
C102	C	1.784651	-0.385131	1.075727
C103	C	1.145012	-0.910422	0.436165
C104	C	1.478345	-0.577088	0.769499
C105	C	1.811678	-0.243755	1.102832
C106	C	1.198709	-0.957429	0.489922
C107	C	1.532042	-0.624096	0.823255
C108	C	1.865375	-0.290763	1.156588
C109	C	1.212038	-1.051616	0.503248
C110	C	1.545371	-0.718283	0.836582
C111	C	1.878705	-0.384950	1.169915
C112	C	1.171677	-1.098805	0.462819
C113	C	1.505010	-0.765472	0.796152
C114	C	1.838343	-0.432139	1.129486
C115	C	1.131680	-0.816225	0.422836
C116	C	1.465014	-0.482892	0.756169
C117	C	1.798347	-0.149559	1.089502
C118	C	1.225736	-0.816053	0.517027
C119	C	1.559069	-0.482720	0.850361
C120	C	1.892403	-0.149387	1.183694
C121	C	1.239070	-0.910240	0.530351
C122	C	1.572403	-0.576907	0.863685
C123	C	1.905737	-0.243574	1.197018
C124	C	1.316804	-0.434485	0.416013
C125	C	1.650137	-0.101152	0.749346
C126	C	1.983471	0.232182	1.082679
C127	C	1.398604	-0.434492	0.416023
C128	C	1.731937	-0.101159	0.749356
C129	C	2.065271	0.232175	1.082689
C130	C	1.124885	-0.434407	0.607933
C131	C	1.458218	-0.101073	0.941266
C132	C	1.791552	0.232260	1.274600
C133	C	1.124900	-0.434380	0.689728
C134	C	1.458234	-0.101047	1.023061
C135	C	1.791567	0.232286	1.356395
C136	C	1.091733	-0.199224	0.382779
C137	C	1.425066	0.134109	0.716113
C138	C	1.758400	0.467442	1.049446
C139	C	1.077621	-0.098977	0.368628
C140	C	1.410954	0.234356	0.701961
C141	C	1.744288	0.567690	1.035294
C142	C	1.124846	-0.434466	0.224782
C143	C	1.458179	-0.101132	0.558115
C144	C	1.791513	0.232201	0.891449
C145	C	1.124938	-0.434238	0.142951
C146	C	1.458271	-0.100905	0.476285
C147	C	1.791604	0.232428	0.809618
C148	C	1.163859	-0.376645	0.869778
C149	C	1.497192	-0.043312	1.203112
C150	C	1.830526	0.290021	1.536445
C151	C	1.163864	-0.376619	0.946633
C152	C	1.497197	-0.043286	1.279967
C153	C	1.830531	0.290048	1.613300
C154	C	1.085974	-0.491976	0.962896
C155	C	1.419307	-0.158642	1.296230
C156	C	1.752641	0.174691	1.629563
C157	C	1.085965	-0.491997	0.886042
C158	C	1.419298	-0.158663	1.219375
C159	C	1.752632	0.174670	1.552708
C160	C	1.124912	-0.434333	0.839485
C161	C	1.458245	-0.101000	1.172818
C162	C	1.791579	0.232334	1.506152
C163	C	1.124926	-0.434286	0.993194
C164	C	1.458259	-0.100952	1.326528
C165	C	1.791593	0.232381	1.659861
C166	C	1.124931	-0.434258	1.076524
C167	C	1.458264	-0.100924	1.409858
C168	C	1.791598	0.232409	1.743191
C169	C	1.124906	-0.434360	0.756150
C170	C	1.458239	-0.101026	1.089483
C171	C	1.791572	0.232307	1.422816
H172	H	0.709738	-0.539256	0.516042
H173	H	1.043071	-0.205923	0.849375
H174	H	1.376404	0.127411	1.182708
H175	H	1.195577	-0.329643	0.971294
H176	H	1.528911	0.003691	1.304627
H177	H	1.862244	0.337024	1.637960
F178	F	0.562741	-0.553699	0.529848
F179	F	0.896074	-0.220366	0.863181
F180	F	1.229407	0.112967	1.196514
H181	H	1.054267	-0.538925	1.000812
H182	H	1.387600	-0.205592	1.334145
H183	H	1.720933	0.127741	1.667479
H184	H	1.195570	-0.329689	0.831873
H185	H	1.528903	0.003644	1.165206
H186	H	1.862236	0.336977	1.498540
F187	F	1.074534	-0.766207	0.365626
F188	F	1.407867	-0.432874	0.698959
F189	F	1.741201	-0.099540	1.032292
F190	F	0.529058	-0.315261	0.302172
F191	F	0.862391	0.018072	0.635506
F192	F	1.195724	0.351406	0.968839
F193	F	0.687714	-0.315241	0.302153
F194	F	1.021047	0.018092	0.635487
F195	F	1.354381	0.351425	0.968820
F196	F	0.980971	-1.102196	0.271857
F197	F	1.314304	-0.768863	0.605190
F198	F	1.647637	-0.435530	0.938523
F199	F	1.036561	-0.810352	0.327995
F200	F	1.369894	-0.477018	0.661328
F201	F	1.703227	-0.143685	0.994661
F202	F	1.269175	-1.101643	0.560473
F203	F	1.602509	-0.768310	0.893807
F204	F	1.935842	-0.434976	1.227140
H205	H	1.258600	-0.777633	0.549950
H206	H	1.591934	-0.444299	0.883283
H207	H	1.925267	-0.110966	1.216617
H208	H	1.054244	-0.538972	0.861377
H209	H	1.387578	-0.205639	1.194710
H210	H	1.720911	0.127695	1.528044
H211	H	1.182533	-1.175500	0.473662
H212	H	1.515866	-0.842167	0.806995
H213	H	1.849200	-0.508834	1.140329
F214	F	1.296216	-0.960280	0.587562
F215	F	1.629550	-0.626947	0.920895
F216	F	1.962883	-0.293614	1.254229
F217	F	0.953442	-0.907760	0.244342
F218	F	1.286775	-0.574427	0.577675
F219	F	1.620109	-0.241094	0.911009
