data_functionalizedCrystal
_audit_creation_method	'MofGen! by Chris Wilmer'
_symmetry_space_group_name_H-M	'P1'
_symmetry_Int_Tables_number	1
_symmetry_cell_setting	triclinic
loop_
_symmetry_equiv_pos_as_xyz
  x,y,z
_cell_length_a	21.395362
_cell_length_b	29.839131
_cell_length_c	21.395355
_cell_angle_alpha	90.020172
_cell_angle_beta	90.043940
_cell_angle_gamma	90.057297
loop_
_atom_site_label
_atom_site_type_symbol
_atom_site_fract_x
_atom_site_fract_y
_atom_site_fract_z
Zn1	Zn	0.957813	-0.178715	0.354578
Zn2	Zn	0.957696	-0.253830	0.249798
Zn3	Zn	0.853028	-0.178736	0.249780
Zn4	Zn	0.852977	-0.253840	0.354503
O5	O	0.905378	-0.216280	0.302165
O6	O	1.045475	-0.188667	0.340718
O7	O	0.943783	-0.243874	0.162117
O8	O	0.866998	-0.115866	0.263706
O9	O	1.045389	-0.243853	0.263737
O10	O	0.943983	-0.115851	0.340701
O11	O	0.866884	-0.188702	0.162104
O12	O	0.765343	-0.188711	0.263632
O13	O	0.866912	-0.243869	0.442191
O14	O	0.765306	-0.243889	0.340571
O15	O	0.943934	-0.188676	0.442246
O16	O	0.943735	-0.316699	0.263663
O17	O	0.866798	-0.316705	0.340589
C18	C	0.742591	-0.216304	0.302092
C19	C	0.672950	-0.216325	0.302076
C20	C	0.640233	-0.245094	0.342078
C21	C	0.574798	-0.245083	0.342106
C22	C	0.542081	-0.216308	0.302120
C23	C	0.574805	-0.187533	0.262115
C24	C	0.640239	-0.187541	0.262093
C25	C	0.438357	-0.212688	0.245715
C26	C	0.372925	-0.212683	0.245736
C27	C	0.340261	-0.216278	0.302189
C28	C	0.373038	-0.219889	0.358623
C29	C	0.438472	-0.219897	0.358601
C30	C	0.471129	-0.216295	0.302140
C31	C	0.236592	-0.245037	0.342226
C32	C	0.171155	-0.245023	0.342254
C33	C	0.171164	-0.187475	0.262258
C34	C	0.236599	-0.187487	0.262235
C35	C	0.269309	-0.216270	0.302218
C36	C	0.905265	-0.333003	0.302133
C37	C	0.905274	-0.382937	0.302141
C38	C	0.945512	-0.692564	0.262168
C39	C	0.945589	-0.880237	0.262192
O40	O	0.979711	-0.904488	0.228181
N41	N	0.905508	-0.903722	0.302212
C42	C	0.865408	-0.880286	0.342231
O43	O	0.831323	-0.904567	0.376276
C44	C	0.865334	-0.692614	0.342210
C45	C	0.905414	-0.669131	0.302183
C46	C	0.985588	-0.669082	0.222145
C47	C	0.985566	-0.622166	0.222136
C48	C	0.945468	-0.598733	0.262152
C49	C	0.905391	-0.622216	0.302175
C50	C	0.825238	-0.669178	0.382232
C51	C	0.825224	-0.622257	0.382224
C52	C	0.865303	-0.598775	0.342197
C53	C	0.865271	-0.551867	0.342182
N54	N	0.905352	-0.528383	0.302162
C55	C	0.945450	-0.551816	0.262147
C56	C	0.865449	-0.978816	0.342239
C57	C	0.865466	-1.025734	0.342244
C58	C	0.945649	-1.025683	0.262205
C59	C	0.945627	-0.978764	0.262198
C60	C	0.905530	-0.955332	0.302219
C61	C	0.945400	-0.453290	0.262132
C62	C	0.945373	-0.406370	0.262126
C63	C	0.865193	-0.406426	0.342167
C64	C	0.865218	-0.453342	0.342171
C65	C	0.905327	-0.476772	0.302152
O66	O	0.831172	-0.527587	0.376180
O67	O	0.979540	-0.527526	0.228117
C68	C	0.945534	-0.739480	0.262176
C69	C	0.905458	-0.762962	0.302199
C70	C	0.865359	-0.739529	0.342214
C71	C	0.905475	-0.809880	0.302204
C72	C	0.945574	-0.833313	0.262189
C73	C	0.985655	-0.809828	0.222169
C74	C	0.985633	-0.762913	0.222161
C75	C	0.825278	-0.763014	0.382234
C76	C	0.825303	-0.809929	0.382238
C77	C	0.865402	-0.833362	0.342223
C78	C	1.068802	-0.216257	0.302238
C79	C	1.138443	-0.216247	0.302269
C80	C	0.905431	-0.216271	0.465588
C81	C	0.905453	-0.216267	0.535229
C82	C	0.905509	-0.099102	0.302210
C83	C	0.905565	-0.049167	0.302229
C84	C	0.905363	-0.216257	0.139377
C85	C	0.905462	-0.216134	0.069736
C86	C	0.945556	-0.187527	0.567972
C87	C	0.945556	-0.187507	0.633408
C88	C	0.905458	-0.216237	0.666098
C89	C	0.865346	-0.244979	0.633347
C90	C	0.865344	-0.244994	0.567912
C91	C	0.900471	-0.256689	0.769760
C92	C	0.900478	-0.256674	0.835193
C93	C	0.905461	-0.216189	0.867918
C94	C	0.910451	-0.175717	0.835203
C95	C	0.910449	-0.175733	0.769769
C96	C	0.905455	-0.216223	0.737050
C97	C	0.945566	-0.187425	0.971614
C98	C	0.945561	-0.187405	1.037051
C99	C	0.865355	-0.244881	1.036988
C100	C	0.865357	-0.244897	0.971553
C101	C	0.905466	-0.216170	0.938870
H102	H	0.548156	-0.268511	0.374683
C103	C	0.676228	-0.155894	0.218082
N104	N	0.703336	-0.132057	0.184930
H105	H	0.832544	-0.387340	0.374745
H106	H	0.832696	-0.268369	0.659967
C107	C	0.989719	-0.952938	0.218167
N108	N	1.022932	-0.933488	0.185003
C109	C	0.474524	-0.223868	0.420676
N110	N	0.501678	-0.226858	0.467432
H111	H	0.548163	-0.164102	0.229560
H112	H	0.914510	-0.142779	0.743135
H113	H	0.346444	-0.222815	0.404593
C114	C	0.989680	-0.155786	1.073068
N115	N	1.022911	-0.131970	1.100197
C116	C	0.989678	-0.155892	0.669433
N117	N	1.022913	-0.132080	0.696564
C118	C	0.821226	-0.276614	0.531894
N119	N	0.787997	-0.300431	0.504764
H120	H	0.978222	-0.164031	0.945002
H121	H	0.832700	-0.268268	1.063604
C122	C	0.915932	-0.131180	0.871196
N123	N	0.920061	-0.097636	0.898309
C124	C	0.135168	-0.276677	0.386257
N125	N	0.108062	-0.300522	0.419398
H126	H	0.832795	-0.959741	0.374830
C127	C	0.781149	-0.694998	0.426267
N128	N	0.747939	-0.714445	0.459439
C129	C	0.895001	-0.301229	0.733768
N130	N	0.890885	-0.334776	0.706660
C131	C	1.029700	-0.694851	0.178117
N132	N	1.062924	-0.714257	0.144949
C133	C	0.989669	-0.155920	0.532025
N134	N	1.022893	-0.132111	0.504948
C135	C	1.029762	-0.835614	0.178151
N136	N	1.062985	-0.855038	0.145002
C137	C	0.474281	-0.208735	0.183608
N138	N	0.501338	-0.205758	0.136830
H139	H	0.792661	-0.829045	0.414832
H140	H	0.792626	-0.743938	0.414820
H141	H	0.666862	-0.268532	0.374636
C142	C	0.821370	-1.051560	0.386270
N143	N	0.788158	-1.071010	0.419436
C144	C	0.821242	-0.276516	0.935534
N145	N	0.788010	-0.300332	0.908405
H146	H	0.978298	-1.044770	0.229623
H147	H	0.263237	-0.164062	0.229657
C148	C	0.135179	-0.155821	0.218274
N149	N	0.108072	-0.131977	0.185144
H150	H	0.263226	-0.268472	0.374785
H151	H	1.018269	-0.743797	0.189567
H152	H	0.896419	-0.289629	0.861825
C153	C	0.821127	-0.479173	0.386200
N154	N	0.787922	-0.498626	0.419369
H155	H	0.978010	-0.387252	0.229529
C156	C	0.336876	-0.208708	0.183659
N157	N	0.309726	-0.205712	0.136901
C158	C	1.029652	-0.596342	0.178098
N159	N	1.062858	-0.576894	0.144925
C160	C	0.781113	-0.596485	0.426252
N161	N	0.747887	-0.577074	0.459413
C162	C	0.989518	-0.479057	0.218106
N163	N	1.022744	-0.498464	0.184941
