data_functionalizedCrystal
_audit_creation_method	'MofGen! by Chris Wilmer'
_symmetry_space_group_name_H-M	'P1'
_symmetry_Int_Tables_number	1
_symmetry_cell_setting	triclinic
loop_
_symmetry_equiv_pos_as_xyz
  x,y,z
_cell_length_a	14.971486
_cell_length_b	10.540539
_cell_length_c	14.048226
_cell_angle_alpha	89.995726
_cell_angle_beta	89.998499
_cell_angle_gamma	84.069810
loop_
_atom_site_label
_atom_site_type_symbol
_atom_site_fract_x
_atom_site_fract_y
_atom_site_fract_z
O1	O	1.187879	0.165423	-0.079046
O2	O	0.927591	0.185233	-0.079072
O3	O	1.063673	-0.009446	-0.079057
O4	O	1.051796	0.360102	-0.079061
O5	O	1.063657	-0.009457	0.079264
O6	O	0.927574	0.185221	0.079249
O7	O	1.187862	0.165412	0.079275
Zn8	Zn	1.057716	0.175315	0.104399
Zn9	Zn	1.057737	0.175330	-0.104196
O10	O	1.051780	0.360090	0.079260
C11	C	0.894253	0.184341	0.000085
C12	C	0.794940	0.181686	0.000076
C13	C	1.062774	-0.056745	0.000101
C14	C	1.060109	-0.197662	0.000096
C15	C	0.738360	0.296055	0.000076
C16	C	0.645046	0.293553	0.000090
C17	C	0.608315	0.176681	0.000097
C18	C	0.664903	0.062303	0.000100
C19	C	0.758215	0.064807	0.000092
C20	C	0.470412	0.057094	0.000113
C21	C	0.377093	0.054590	0.000119
C22	C	0.357242	0.285839	0.000111
C23	C	0.450554	0.288343	0.000103
C24	C	0.507136	0.173965	0.000104
C25	C	0.958001	-0.379931	-0.000269
C26	C	0.960702	-0.233343	0.000087
C27	C	1.107939	-0.259870	0.090510
C28	C	1.104547	-0.406376	0.090586
C29	C	1.106587	-0.406904	-0.089455
C30	C	1.107503	-0.259932	-0.090650
C31	C	1.221200	0.166303	0.000115
C32	C	1.320512	0.168958	0.000119
C33	C	1.052679	0.407389	0.000099
C34	C	1.055344	0.548307	0.000099
N35	N	1.057707	0.175303	0.246760
N36	N	1.057753	0.175331	-0.246557
C37	C	1.117984	0.089135	0.296584
C38	C	1.117990	0.089135	0.396242
C39	C	1.057723	0.175309	0.446073
C40	C	0.997440	0.261481	0.396242
C41	C	0.997430	0.261475	0.296586
C42	C	0.997466	0.261491	0.603956
C43	C	0.997476	0.261499	0.703619
C44	C	1.118025	0.089150	0.703612
C45	C	1.118016	0.089144	0.603956
C46	C	1.057733	0.175318	0.554132
H47	H	0.598981	0.386683	0.000089
H48	H	1.069184	-0.434179	0.158165
H49	H	0.516479	-0.036045	0.000115
H50	H	0.634990	-0.032856	0.000119
H51	H	0.918739	-0.408080	-0.065107
N52	N	0.932462	0.354425	0.757366
H53	H	0.941619	0.341352	0.828057
H54	H	0.943350	0.444507	0.739940
H55	H	0.480457	0.383510	0.000088
N56	N	1.204634	-0.231346	0.094987
H57	H	1.234060	-0.272250	0.153660
H58	H	1.237468	-0.266645	0.036386
N59	N	1.183056	-0.003792	0.757336
H60	H	1.148540	-0.060095	0.798694
H61	H	1.221217	-0.058279	0.710576
H62	H	0.948346	0.331640	0.256020
H63	H	1.072506	-0.218672	-0.157536
H64	H	0.948374	0.331659	0.563392
N65	N	0.337476	-0.071464	0.000157
H66	H	0.269778	-0.055689	0.000162
H67	H	0.358114	-0.121540	-0.058525
N68	N	0.296188	0.409176	0.000177
H69	H	0.308102	0.460116	0.058882
H70	H	0.308062	0.460126	-0.058537
H71	H	1.167094	0.018981	0.563384
N72	N	0.777973	0.422111	0.000057
H73	H	0.727966	0.494182	0.000060
H74	H	0.816261	0.428187	0.058744
N75	N	0.932435	0.354418	0.449991
H76	H	0.966974	0.410708	0.491326
H77	H	0.894259	0.408918	0.403246
H78	H	0.804283	-0.028324	0.000092
H79	H	0.918886	-0.409699	0.064198
H80	H	1.176039	-0.455156	0.094694
N81	N	0.910849	-0.176325	-0.085759
H82	H	0.886916	-0.246408	-0.124175
H83	H	0.859234	-0.113708	-0.064096
H84	H	0.922789	-0.191162	0.065001
N85	N	1.063929	-0.202941	0.179631
H86	H	1.013017	-0.136873	0.161644
H87	H	1.039737	-0.272507	0.218382
H88	H	1.167064	0.018968	0.256018
H89	H	1.074421	-0.438087	-0.157982
H90	H	1.167071	0.018969	0.436808
H91	H	1.179979	-0.236533	-0.096103
H92	H	1.178389	-0.454944	-0.090056
