data_functionalizedCrystal
_audit_creation_method	'MofGen! by Chris Wilmer'
_symmetry_space_group_name_H-M	'P1'
_symmetry_Int_Tables_number	1
_symmetry_cell_setting	triclinic
loop_
_symmetry_equiv_pos_as_xyz
  x,y,z
_cell_length_a	16.974885
_cell_length_b	19.188930
_cell_length_c	15.455313
_cell_angle_alpha	92.650876
_cell_angle_beta	90.969048
_cell_angle_gamma	83.269424
loop_
_atom_site_label
_atom_site_type_symbol
_atom_site_fract_x
_atom_site_fract_y
_atom_site_fract_z
O1	O	1.048759	0.089022	0.001411
O2	O	1.382092	0.422356	0.334744
O3	O	1.715425	0.755689	0.668077
O4	O	0.819292	0.099680	-0.014685
O5	O	1.152625	0.433014	0.318648
O6	O	1.485958	0.766347	0.651981
O7	O	0.940646	-0.007272	-0.006156
O8	O	1.273980	0.326061	0.327177
O9	O	1.607313	0.659394	0.660511
O10	O	0.927404	0.195975	-0.007119
O11	O	1.260737	0.529309	0.326215
O12	O	1.594071	0.862642	0.659548
O13	O	0.933707	-0.001182	0.137618
O14	O	1.267040	0.332152	0.470952
O15	O	1.600373	0.665485	0.804285
O16	O	0.812352	0.105771	0.129089
O17	O	1.145685	0.439105	0.462423
O18	O	1.479019	0.772438	0.795756
O19	O	1.041819	0.095113	0.145185
O20	O	1.375153	0.428447	0.478518
O21	O	1.708486	0.761780	0.811852
Cu22	Cu	0.926452	0.100998	0.150265
Cu23	Cu	1.259785	0.434332	0.483598
Cu24	Cu	1.593119	0.767665	0.816932
Cu25	Cu	0.934659	0.093795	-0.019765
Cu26	Cu	1.267992	0.427129	0.313568
Cu27	Cu	1.601325	0.760462	0.646902
O28	O	0.920465	0.202066	0.136656
O29	O	1.253798	0.535399	0.469989
O30	O	1.587131	0.868733	0.803322
C31	C	0.786464	0.102208	0.055143
C32	C	1.119798	0.435541	0.388476
C33	C	1.453131	0.768875	0.721810
C34	C	0.698989	0.100657	0.049008
C35	C	1.032322	0.433991	0.382341
C36	C	1.365656	0.767324	0.715674
C37	C	0.207007	0.091545	0.006001
C38	C	0.540341	0.424878	0.339335
C39	C	0.873674	0.758212	0.672668
C40	C	0.289199	0.093003	0.011778
C41	C	0.622533	0.426336	0.345111
C42	C	0.955866	0.759669	0.678444
C43	C	0.326504	0.097057	0.093038
C44	C	0.659837	0.430390	0.426371
C45	C	0.993170	0.763724	0.759705
C46	C	0.281613	0.099646	0.168527
C47	C	0.614946	0.432980	0.501860
C48	C	0.948280	0.766313	0.835193
C49	C	0.199423	0.098183	0.162750
C50	C	0.532757	0.431517	0.496083
C51	C	0.866090	0.764850	0.829416
C52	C	0.571908	0.101784	0.118720
C53	C	0.905242	0.435117	0.452053
C54	C	1.238575	0.768450	0.785386
C55	C	0.654104	0.103249	0.124491
C56	C	0.987437	0.436582	0.457824
C57	C	1.320770	0.769915	0.791158
C58	C	0.661685	0.096603	-0.032259
C59	C	0.995018	0.429937	0.301074
C60	C	1.328351	0.763270	0.634408
C61	C	0.579493	0.095145	-0.038029
C62	C	0.912826	0.428478	0.295304
C63	C	1.246159	0.761812	0.628638
C64	C	0.534609	0.097731	0.037460
C65	C	0.867943	0.431064	0.370793
C66	C	1.201276	0.764398	0.704127
N67	N	0.410517	0.098549	0.098944
N68	N	0.743850	0.431883	0.432277
N69	N	1.077183	0.765216	0.765611
N70	N	0.450599	0.096233	0.031553
N71	N	0.783932	0.429567	0.364886
N72	N	1.117265	0.762900	0.698220
C73	C	0.936747	-0.030240	0.065704
C74	C	1.270081	0.303093	0.399037
C75	C	1.603414	0.636427	0.732370
C76	C	0.935460	-0.107750	0.065621
C77	C	1.268793	0.225583	0.398954
C78	C	1.602126	0.558916	0.732288
C79	C	1.006667	-0.152340	0.070620
C80	C	1.340000	0.180993	0.403953
C81	C	1.673334	0.514327	0.737286
C82	C	1.005458	-0.225170	0.070521
C83	C	1.338791	0.108163	0.403854
C84	C	1.672125	0.441497	0.737188
C85	C	0.933037	-0.253406	0.065441
C86	C	1.266370	0.079927	0.398774
C87	C	1.599704	0.413260	0.732107
C88	C	0.861821	-0.208807	0.060436
C89	C	1.195154	0.124526	0.393769
C90	C	1.528487	0.457860	0.727103
C91	C	0.863032	-0.135979	0.060526
C92	C	1.196365	0.197354	0.393860
C93	C	1.529699	0.530688	0.727193
N94	N	0.875318	-0.359598	0.110487
N95	N	1.208651	-0.026265	0.443820
N96	N	1.541985	0.307069	0.777153
N97	N	0.874172	-0.428782	0.110403
N98	N	1.207506	-0.095449	0.443737
N99	N	1.540839	0.237884	0.777070
C100	C	0.929383	-0.472833	0.065167
C101	C	1.262717	-0.139499	0.398500
C102	C	1.596050	0.193834	0.731833
N103	N	0.985795	-0.445087	0.020028
N104	N	1.319128	-0.111753	0.353362
N105	N	1.652462	0.221580	0.686695
N106	N	0.986943	-0.375896	0.020116
N107	N	1.320276	-0.042563	0.353449
N108	N	1.653610	0.290770	0.686783
C109	C	0.931716	-0.332375	0.065342
C110	C	1.265049	0.000958	0.398675
C111	C	1.598382	0.334291	0.732008
C112	C	0.999285	-0.596394	0.070058
C113	C	1.332618	-0.263061	0.403391
C114	C	1.665951	0.070273	0.736724
C115	C	0.998073	-0.669225	0.069953
C116	C	1.331406	-0.335892	0.403287
C117	C	1.664740	-0.002558	0.736620
C118	C	0.854433	-0.652860	0.059877
C119	C	1.187767	-0.319527	0.393210
C120	C	1.521100	0.013807	0.726544
C121	C	0.855647	-0.580031	0.059973
C122	C	1.188981	-0.246697	0.393306
C123	C	1.522314	0.086636	0.726639
C124	C	0.928075	-0.551802	0.065067
C125	C	1.261408	-0.218469	0.398401
C126	C	1.594742	0.114865	0.731734
C127	C	1.074646	0.092585	0.075355
C128	C	1.407980	0.425919	0.408688
C129	C	1.741313	0.759252	0.742022
C130	C	1.162122	0.094136	0.081484
C131	C	1.495456	0.427470	0.414818
C132	C	1.828789	0.760803	0.748151
C133	C	0.924363	0.225034	0.064794
C134	C	1.257697	0.558367	0.398128
C135	C	1.591030	0.891700	0.731461
C136	C	0.925651	0.302544	0.064871
C137	C	1.258985	0.635877	0.398205
C138	C	1.592318	0.969210	0.731538
N139	N	0.920686	0.106064	0.269855
N140	N	1.254019	0.439398	0.603188
N141	N	1.587352	0.772731	0.936522
N142	N	0.940432	0.088724	-0.139355
N143	N	1.273765	0.422057	0.193979
N144	N	1.607098	0.755391	0.527312
C145	C	0.972259	0.060644	0.318874
C146	C	1.305592	0.393977	0.652207
C147	C	1.638926	0.727310	0.985541
C148	C	0.967905	0.064481	0.409376
C149	C	1.301239	0.397815	0.742709
C150	C	1.634572	0.731148	1.076043
C151	C	0.911981	0.113743	0.450857
C152	C	1.245315	0.447076	0.784191
C153	C	1.578648	0.780410	1.117524
C154	C	0.860402	0.159166	0.401832
C155	C	1.193736	0.492499	0.735165
C156	C	1.527069	0.825832	1.068498
C157	C	0.864753	0.155324	0.311331
C158	C	1.198086	0.488658	0.644665
C159	C	1.531419	0.821991	0.977998
C160	C	0.893203	0.130305	0.721119
C161	C	1.226536	0.463638	1.054452
C162	C	1.559870	0.796972	1.387786
C163	C	0.888858	0.134145	0.811626
C164	C	1.222191	0.467478	1.144960
C165	C	1.555525	0.800811	1.478293
C166	C	0.996361	0.039459	0.819164
C167	C	1.329694	0.372792	1.152497
C168	C	1.663027	0.706125	1.485831
C169	C	1.000709	0.035625	0.728662
C170	C	1.334043	0.368958	1.061995
C171	C	1.667376	0.702291	1.395328
C172	C	0.949128	0.081045	0.679644
C173	C	1.282461	0.414378	1.012977
C174	C	1.615794	0.747711	1.346311
N175	N	0.907531	0.117668	0.543365
N176	N	1.240865	0.451002	0.876698
N177	N	1.574198	0.784335	1.210032
N178	N	0.953574	0.077115	0.587138
N179	N	1.286908	0.410449	0.920471
N180	N	1.620241	0.743782	1.253804
H181	H	0.311993	0.102943	0.234691
H182	H	0.645327	0.436276	0.568024
H183	H	0.978660	0.769610	0.901358
Cl184	Cl	0.701000	0.108345	0.226655
Cl185	Cl	1.034333	0.441678	0.559988
Cl186	Cl	1.367666	0.775011	0.893321
Cl187	Cl	0.515492	0.105053	0.213621
Cl188	Cl	0.848825	0.438387	0.546954
Cl189	Cl	1.182158	0.771720	0.880288
H190	H	1.017802	0.020532	0.285106
H191	H	1.351135	0.353866	0.618440
H192	H	1.684468	0.687199	0.951773
Cl193	Cl	0.345624	0.089741	-0.083121
Cl194	Cl	0.678957	0.423075	0.250213
Cl195	Cl	1.012291	0.756408	0.583546
Cl196	Cl	0.799911	0.212425	0.249708
Cl197	Cl	1.133245	0.545758	0.583041
Cl198	Cl	1.466578	0.879092	0.916375
Cl199	Cl	0.828362	0.187406	0.659503
Cl200	Cl	1.161696	0.520739	0.992836
Cl201	Cl	1.495029	0.854072	1.326170
H202	H	0.814864	0.199274	0.435611
H203	H	1.148197	0.532607	0.768944
H204	H	1.481530	0.865940	1.102278
Cl205	Cl	0.142997	0.101435	0.257647
Cl206	Cl	0.476330	0.434768	0.590981
Cl207	Cl	0.809663	0.768102	0.924314
Cl208	Cl	0.718115	0.093347	-0.127153
Cl209	Cl	1.051448	0.426680	0.206180
Cl210	Cl	1.384781	0.760014	0.539514
Cl211	Cl	0.532602	0.090049	-0.140189
Cl212	Cl	0.865935	0.423382	0.193144
Cl213	Cl	1.199268	0.756716	0.526478
Cl214	Cl	1.097720	-0.116857	0.077000
Cl215	Cl	1.431053	0.216476	0.410333
Cl216	Cl	1.764387	0.549809	0.743667
H217	H	0.797662	-0.543724	0.055907
H218	H	1.130996	-0.210391	0.389240
H219	H	1.464329	0.122942	0.722574
H220	H	1.009900	0.027496	0.449287
H221	H	1.343233	0.360829	0.782620
H222	H	1.676567	0.694162	1.115954
H223	H	1.063446	-0.261482	0.074589
H224	H	1.396779	0.071851	0.407922
H225	H	1.730112	0.405185	0.741255
H226	H	0.802855	-0.231802	0.056298
H227	H	1.136188	0.101532	0.389631
H228	H	1.469522	0.434865	0.722964
Cl229	Cl	0.773507	-0.079920	0.054242
Cl230	Cl	1.106840	0.253414	0.387575
Cl231	Cl	1.440173	0.586747	0.720908
Cl232	Cl	1.071015	-0.026304	0.676514
Cl233	Cl	1.404349	0.307029	1.009847
Cl234	Cl	1.737682	0.640362	1.343180
H235	H	1.058260	-0.573409	0.074202
H236	H	1.391593	-0.240076	0.407535
H237	H	1.724926	0.093258	0.740869
Cl238	Cl	1.087600	-0.725283	0.076233
Cl239	Cl	1.420933	-0.391950	0.409566
Cl240	Cl	1.754267	-0.058616	0.742899
Cl241	Cl	0.160118	0.086453	-0.096160
Cl242	Cl	0.493451	0.419786	0.237173
Cl243	Cl	0.826785	0.753120	0.570506
Cl244	Cl	1.061199	-0.017640	0.880790
Cl245	Cl	1.394533	0.315693	1.214123
Cl246	Cl	1.727866	0.649027	1.547457
H247	H	0.795467	-0.675849	0.055736
H248	H	1.128800	-0.342516	0.389069
H249	H	1.462133	-0.009183	0.722403
Cl250	Cl	0.818548	0.196081	0.863768
Cl251	Cl	1.151881	0.529414	1.197101
Cl252	Cl	1.485214	0.862748	1.530435
