data_functionalizedCrystal
_audit_creation_method	'MofGen! by Chris Wilmer'
_symmetry_space_group_name_H-M	'P1'
_symmetry_Int_Tables_number	1
_symmetry_cell_setting	triclinic
loop_
_symmetry_equiv_pos_as_xyz
  x,y,z
_cell_length_a	14.519709
_cell_length_b	10.868271
_cell_length_c	11.792241
_cell_angle_alpha	89.994719
_cell_angle_beta	96.063220
_cell_angle_gamma	89.998701
loop_
_atom_site_label
_atom_site_type_symbol
_atom_site_fract_x
_atom_site_fract_y
_atom_site_fract_z
O1	O	1.224412	0.102162	-0.148781
O2	O	1.724412	0.602162	0.351219
O3	O	0.955999	0.102200	-0.166302
O4	O	1.455999	0.602200	0.333698
O5	O	1.096719	0.102172	0.007665
O6	O	1.596719	0.602172	0.507665
O7	O	1.083692	0.102191	-0.322748
O8	O	1.583692	0.602191	0.177252
O9	O	1.096707	-0.102473	0.007672
O10	O	1.596707	0.397527	0.507672
O11	O	0.955987	-0.102445	-0.166295
O12	O	1.455987	0.397555	0.333705
O13	O	1.224400	-0.102482	-0.148774
O14	O	1.724400	0.397518	0.351226
Zn15	Zn	1.090192	-0.134955	-0.157533
Zn16	Zn	1.590192	0.365045	0.342467
Zn17	Zn	1.090207	0.134673	-0.157542
Zn18	Zn	1.590207	0.634673	0.342458
O19	O	1.083680	-0.102454	-0.322741
O20	O	1.583680	0.397546	0.177259
C21	C	0.921630	-0.000117	-0.165482
C22	C	1.421630	0.499883	0.334518
C23	C	0.819240	-0.000103	-0.163035
C24	C	1.319240	0.499897	0.336965
N25	N	1.090188	-0.318969	-0.157527
N26	N	1.590188	0.181031	0.342473
C27	C	1.090202	-0.569975	-0.157540
C28	C	1.590202	-0.069975	0.342460
C29	C	1.090191	-0.430298	-0.157536
C30	C	1.590191	0.069702	0.342464
C31	C	0.444311	-0.000160	-0.154027
C32	C	0.944311	0.499840	0.345973
C33	C	0.548628	-0.000144	-0.156528
C34	C	1.048628	0.499856	0.343472
C35	C	0.631772	-0.000130	-0.158531
C36	C	1.131772	0.499870	0.341469
C37	C	0.736096	-0.000117	-0.161033
C38	C	1.236096	0.499883	0.338967
C39	C	1.258769	-0.000162	-0.149594
C40	C	1.758769	0.499838	0.350406
C41	C	1.361159	-0.000168	-0.152041
C42	C	1.861159	0.499832	0.347959
C43	C	1.095895	-0.000150	0.049955
C44	C	1.595895	0.499850	0.549955
C45	C	1.093446	-0.000149	0.175955
C46	C	1.593446	0.499851	0.675955
N47	N	1.090218	0.318687	-0.157540
N48	N	1.590218	0.818687	0.342460
C49	C	1.084504	-0.000129	-0.365031
C50	C	1.584504	0.499871	0.134969
C51	C	1.086954	-0.000123	-0.491031
C52	C	1.586954	0.499877	0.008969
C53	C	1.088942	-0.000127	0.406642
C54	C	1.588942	0.499873	0.906642
C55	C	1.091444	-0.000139	0.278271
C56	C	1.591444	0.499861	0.778271
