data_functionalizedCrystal
_audit_creation_method	'MofGen! by Chris Wilmer'
_symmetry_space_group_name_H-M	'P1'
_symmetry_Int_Tables_number	1
_symmetry_cell_setting	triclinic
loop_
_symmetry_equiv_pos_as_xyz
  x,y,z
_cell_length_a	18.101398
_cell_length_b	18.101395
_cell_length_c	16.120297
_cell_angle_alpha	87.130194
_cell_angle_beta	87.116993
_cell_angle_gamma	90.030104
loop_
_atom_site_label
_atom_site_type_symbol
_atom_site_fract_x
_atom_site_fract_y
_atom_site_fract_z
Zn1	Zn	1.110891	-0.316111	0.471272
Zn2	Zn	1.117064	-0.433675	0.331856
Zn3	Zn	0.993328	-0.309849	0.331886
Zn4	Zn	0.987001	-0.439910	0.471233
O5	O	1.052071	-0.374886	0.401562
O6	O	1.215343	-0.331718	0.452781
O7	O	1.105882	-0.412019	0.215197
O8	O	1.008987	-0.207048	0.350405
O9	O	1.219878	-0.418091	0.350353
O10	O	1.095361	-0.211649	0.452811
O11	O	1.014973	-0.321045	0.215219
O12	O	0.888856	-0.327091	0.350368
O13	O	0.998204	-0.428718	0.587901
O14	O	0.884208	-0.422646	0.452745
O15	O	1.089226	-0.337764	0.587930
O16	O	1.099747	-0.538134	0.350316
O17	O	1.004190	-0.542715	0.452716
C18	C	0.859661	-0.374866	0.401556
C19	C	0.777346	-0.374876	0.401573
C20	C	0.626638	-0.374889	0.401572
C21	C	0.592389	-0.435094	0.465885
C22	C	0.506779	-0.435317	0.465695
C23	C	0.478255	-0.374903	0.401572
C24	C	0.513270	-0.391765	0.313605
C25	C	0.598898	-0.392190	0.313977
C26	C	0.594087	-0.297647	0.424458
C27	C	0.508349	-0.298163	0.426395
C28	C	0.394396	-0.374909	0.401567
C29	C	0.710497	-0.374885	0.401571
C30	C	1.051971	-0.567296	0.401527
C31	C	1.051994	-0.649610	0.401539
C32	C	1.052078	-0.800320	0.401572
C33	C	0.991929	-0.834585	0.465950
C34	C	0.992133	-0.920215	0.466222
C35	C	1.052159	-0.948704	0.401605
C36	C	1.129170	-0.918588	0.425234
C37	C	1.128771	-0.832964	0.425682
C38	C	1.035924	-0.827983	0.313412
C39	C	1.034227	-0.913657	0.313900
C40	C	1.052210	-1.032564	0.401622
C41	C	1.052032	-0.716460	0.401557
C42	C	1.245233	-0.374908	0.401568
C43	C	1.327547	-0.374917	0.401571
C44	C	1.042321	-0.384635	0.619011
C45	C	1.038165	-0.388789	0.711675
C46	C	1.052191	-0.181727	0.401615
C47	C	1.052242	-0.099414	0.401638
C48	C	1.061827	-0.365123	0.184959
C49	C	1.066125	-0.360760	0.092295
C50	C	1.030552	-0.396357	0.881333
C51	C	1.073736	-0.353194	0.922643
C52	C	1.069500	-0.357405	1.017046
C53	C	1.034787	-0.392147	0.786921
H54	H	0.492675	-0.447462	0.293933
C55	C	1.147857	-0.809821	0.512730
H56	H	1.147786	-0.757391	0.513770
H57	H	1.112117	-0.829773	0.552892
H58	H	1.195456	-0.828014	0.525225
C59	C	0.624331	-0.237117	0.361195
H60	H	0.604462	-0.190572	0.375345
H61	H	0.676733	-0.235436	0.362136
H62	H	0.610446	-0.248001	0.307069
H63	H	0.990403	-0.436469	0.916863
C64	C	1.191167	-0.943289	0.363854
H65	H	1.170586	-0.972260	0.323178
H66	H	1.214858	-0.900960	0.337318
H67	H	1.226298	-0.971899	0.393202
H68	H	1.113889	-0.313079	0.887111
H69	H	1.002179	-0.815943	0.530903
C70	C	0.474445	-0.421736	0.553793
H71	H	0.513633	-0.416037	0.590022
H72	H	0.445279	-0.378123	0.552290
H73	H	0.444485	-0.462685	0.573426
H74	H	0.610063	-0.425201	0.531304
H75	H	0.934911	-0.940636	0.451454
H76	H	0.488924	-0.251257	0.383005
C77	C	0.914337	-0.805966	0.446237
H78	H	0.917926	-0.772860	0.398572
H79	H	0.883421	-0.846507	0.435672
H80	H	0.893798	-0.780857	0.492305
H81	H	0.486940	-0.492638	0.450511
C82	C	0.622319	-0.512092	0.445622
H83	H	0.655595	-0.507710	0.398136
H84	H	0.647496	-0.532541	0.491667
H85	H	0.582326	-0.543527	0.434542
H86	H	0.621870	-0.350001	0.264414
C87	C	0.627021	-0.468293	0.287855
H88	H	0.679497	-0.469222	0.287848
H89	H	0.607166	-0.505755	0.325970
H90	H	0.611758	-0.476846	0.233619
C91	C	0.488776	-0.334119	0.247088
H92	H	0.456899	-0.299174	0.272434
H93	H	0.531042	-0.309361	0.221796
H94	H	0.463261	-0.358261	0.206002
H95	H	0.612873	-0.281461	0.487523
H96	H	0.485141	-0.285370	0.491135
H97	H	1.002576	-0.943598	0.531548
C98	C	1.191106	-0.802193	0.365086
H99	H	1.216565	-0.842030	0.340310
H100	H	1.170498	-0.771182	0.322987
H101	H	1.224725	-0.774394	0.394591
H102	H	1.143652	-0.942857	0.488974
C103	C	0.961595	-0.797600	0.284295
H104	H	0.939718	-0.767757	0.325639
H105	H	0.969761	-0.768673	0.233855
H106	H	0.929441	-0.837635	0.275451
C107	C	0.957753	-0.940225	0.289748
H108	H	0.936829	-0.972533	0.332934
H109	H	0.926253	-0.898808	0.281653
H110	H	0.963020	-0.965777	0.239741
C111	C	1.089535	-0.939452	0.245669
H112	H	1.124446	-0.972075	0.269886
H113	H	1.063670	-0.964443	0.205518
H114	H	1.114629	-0.897745	0.219518
H115	H	1.079776	-0.805530	0.265447
