data_functionalizedCrystal
_audit_creation_method	'MofGen! by Chris Wilmer'
_symmetry_space_group_name_H-M	'P1'
_symmetry_Int_Tables_number	1
_symmetry_cell_setting	triclinic
loop_
_symmetry_equiv_pos_as_xyz
  x,y,z
_cell_length_a	12.996460
_cell_length_b	9.065218
_cell_length_c	9.065215
_cell_angle_alpha	94.984709
_cell_angle_beta	90.005164
_cell_angle_gamma	89.994367
loop_
_atom_site_label
_atom_site_type_symbol
_atom_site_fract_x
_atom_site_fract_y
_atom_site_fract_z
O1	O	0.085567	-1.960401	0.216360
O2	O	0.585567	-1.460401	0.716360
O3	O	0.085568	-1.531116	0.234106
O4	O	0.585568	-1.031116	0.734106
O5	O	0.085563	-1.754634	0.010590
O6	O	0.585563	-1.254634	0.510590
O7	O	0.085572	-1.736883	0.439876
O8	O	0.585572	-1.236883	0.939876
O9	O	-0.085570	-1.754611	0.010578
O10	O	0.414430	-1.254611	0.510578
O11	O	-0.085565	-1.531093	0.234094
O12	O	0.414435	-1.031093	0.734094
O13	O	-0.085567	-1.960378	0.216347
O14	O	0.414433	-1.460378	0.716347
Cu15	Cu	-0.101192	-1.745733	0.225219
Cu16	Cu	0.398808	-1.245733	0.725219
Cu17	Cu	0.101194	-1.745761	0.225234
Cu18	Cu	0.601194	-1.245761	0.725234
O19	O	-0.085562	-1.736860	0.439863
O20	O	0.414438	-1.236860	0.939863
C21	C	0.000002	-1.476118	0.232394
C22	C	0.500002	-0.976118	0.732394
C23	C	0.000002	-1.312275	0.227295
C24	C	0.500002	-0.812275	0.727295
N25	N	-0.243539	-1.745724	0.225208
N26	N	0.256461	-1.245724	0.725208
C27	C	-0.000002	-1.752917	-0.044403
C28	C	0.499998	-1.252917	0.455597
C29	C	0.000001	-1.747819	-0.208246
C30	C	0.500001	-1.247819	0.291754
C31	C	-0.663353	-1.745759	0.225236
C32	C	-0.163353	-1.245759	0.725236
C33	C	-0.546548	-1.745745	0.225233
C34	C	-0.046548	-1.245745	0.725233
C35	C	-0.453450	-1.745742	0.225223
C36	C	0.046550	-1.245742	0.725223
C37	C	-0.336637	-1.745727	0.225218
C38	C	0.163363	-1.245727	0.725218
N39	N	0.243541	-1.745782	0.225234
N40	N	0.743541	-1.245782	0.725234
C41	C	0.000002	-2.015376	0.218059
C42	C	0.500002	-1.515376	0.718059
C43	C	0.000009	-2.179219	0.223159
C44	C	0.500009	-1.679219	0.723159
C45	C	0.000007	-1.738576	0.494856
C46	C	0.500007	-1.238576	0.994856
C47	C	0.000010	-1.743674	0.658699
C48	C	0.500010	-1.243674	1.158699
