data_functionalizedCrystal
_audit_creation_method	'MofGen! by Chris Wilmer'
_symmetry_space_group_name_H-M	'P1'
_symmetry_Int_Tables_number	1
_symmetry_cell_setting	triclinic
loop_
_symmetry_equiv_pos_as_xyz
  x,y,z
_cell_length_a	18.050589
_cell_length_b	18.215407
_cell_length_c	18.215407
_cell_angle_alpha	89.989764
_cell_angle_beta	90.007870
_cell_angle_gamma	89.971331
loop_
_atom_site_label
_atom_site_type_symbol
_atom_site_fract_x
_atom_site_fract_y
_atom_site_fract_z
Zn1	Zn	-0.295774	-1.124985	0.416138
Zn2	Zn	0.204226	-0.624985	0.916138
Zn3	Zn	-0.419934	-1.124907	0.293081
Zn4	Zn	0.080066	-0.624907	0.793081
Zn5	Zn	-0.295764	-1.001938	0.293085
Zn6	Zn	0.204236	-0.501938	0.793085
Zn7	Zn	-0.419927	-1.001876	0.416106
Zn8	Zn	0.080073	-0.501876	0.916106
O9	O	-0.357850	-1.063427	0.354602
O10	O	0.142150	-0.563427	0.854602
O11	O	-0.312251	-1.227959	0.399826
O12	O	0.187749	-0.727959	0.899826
O13	O	-0.403462	-1.108588	0.190097
O14	O	0.096538	-0.608588	0.690097
O15	O	-0.191840	-1.018319	0.309424
O16	O	0.308160	-0.518319	0.809424
O17	O	-0.403471	-1.227902	0.309416
O18	O	0.096529	-0.727902	0.809416
O19	O	-0.191848	-1.108721	0.399830
O20	O	0.308152	-0.608721	0.899830
O21	O	-0.312234	-1.018244	0.190100
O22	O	0.187766	-0.518244	0.690100
O23	O	-0.312227	-0.898946	0.309393
O24	O	0.187773	-0.398946	0.809393
O25	O	-0.403459	-1.018214	0.519094
O26	O	0.096541	-0.518214	1.019094
O27	O	-0.403450	-0.898900	0.399775
O28	O	0.096550	-0.398900	0.899775
O29	O	-0.312244	-1.108661	0.519118
O30	O	0.187756	-0.608661	1.019118
O31	O	-0.523858	-1.108528	0.309385
O32	O	-0.023858	-0.608528	0.809385
O33	O	-0.523853	-1.018138	0.399771
O34	O	-0.023853	-0.518138	0.899771
C35	C	-0.550802	-1.063338	0.354590
C36	C	-0.050802	-0.563338	0.854590
C37	C	-0.633348	-1.063367	0.354610
C38	C	-0.133348	-0.563367	0.854610
C39	C	-0.357837	-0.872220	0.354581
C40	C	0.142163	-0.372220	0.854581
C41	C	-0.357849	-0.790422	0.354590
C42	C	0.142151	-0.290422	0.854590
C43	C	-0.357852	-1.063439	0.546555
C44	C	0.142148	-0.563439	1.046555
C45	C	-0.357853	-1.063445	0.628354
C46	C	0.142147	-0.563445	1.128354
C47	C	-0.832822	-1.014261	0.403744
C48	C	-0.332822	-0.514261	0.903744
C49	C	-0.882244	-0.996333	0.336590
C50	C	-0.382244	-0.496333	0.836590
C51	C	-0.784478	-1.063440	0.354619
C52	C	-0.284478	-0.563440	0.854619
C53	C	-0.882138	-1.081404	0.421781
C54	C	-0.382138	-0.581404	0.921781
C55	C	-0.930463	-1.063508	0.354634
C56	C	-0.430463	-0.563508	0.854634
C57	C	-0.832813	-1.045476	0.287430
C58	C	-0.332813	-0.545476	0.787430
C59	C	-0.832702	-1.130578	0.372666
C60	C	-0.332702	-0.630578	0.872666
C61	C	-0.882101	-1.112675	0.305465
C62	C	-0.382101	-0.612675	0.805465
C63	C	-0.700380	-1.063398	0.354611
C64	C	-0.200380	-0.563398	0.854611
C65	C	-1.014560	-1.063549	0.354635
C66	C	-0.514560	-0.563549	0.854635
C67	C	-0.164144	-1.063536	0.354631
C68	C	0.335856	-0.563536	0.854631
C69	C	-0.081598	-1.063583	0.354643
C70	C	0.418402	-0.563583	0.854643
C71	C	-0.357863	-1.255380	0.354624
C72	C	0.142137	-0.755380	0.854624
C73	C	-0.357869	-1.337179	0.354633
C74	C	0.142131	-0.837179	0.854633
C75	C	-0.405424	-0.602223	0.401593
C76	C	0.094576	-0.102223	0.901593
C77	C	-0.405426	-0.525364	0.401602
C78	C	0.094574	-0.025364	0.901602
C79	C	-0.310289	-0.525382	0.307628
C80	C	0.189711	-0.025382	0.807628
C81	C	-0.310284	-0.602240	0.307623
C82	C	0.189716	-0.102240	0.807623
C83	C	-0.357855	-0.640658	0.354604
C84	C	0.142145	-0.140658	0.854604
C85	C	-0.357863	-0.486942	0.354619
C86	C	0.142137	0.013058	0.854619
C87	C	-0.357865	-0.403608	0.354628
C88	C	0.142135	0.096392	0.854628
C89	C	-0.357852	-0.723997	0.354596
C90	C	0.142148	-0.223997	0.854596
C91	C	-0.310365	-1.110526	0.816562
C92	C	0.189635	-0.610526	1.316562
C93	C	-0.310364	-1.110522	0.893420
C94	C	0.189636	-0.610522	1.393420
C95	C	-0.405351	-1.016340	0.893385
C96	C	0.094649	-0.516340	1.393385
C97	C	-0.405347	-1.016340	0.816527
C98	C	0.094653	-0.516340	1.316527
C99	C	-0.357855	-1.063438	0.778118
C100	C	0.142145	-0.563438	1.278118
C101	C	-0.357859	-1.063433	0.931834
C102	C	0.142141	-0.563433	1.431834
C103	C	-0.357859	-1.063428	1.015167
C104	C	0.142141	-0.563428	1.515167
C105	C	-0.357854	-1.063442	0.694779
C106	C	0.142146	-0.563442	1.194779
C107	C	-0.357864	-1.063414	1.163396
C108	C	0.142136	-0.563414	1.663396
C109	C	-0.357861	-1.063426	1.081597
C110	C	0.142139	-0.563426	1.581597
H111	H	-0.811183	-0.972612	0.445229
H112	H	-0.311183	-0.472612	0.945229
H113	H	-0.271543	-0.633534	0.269359
H114	H	0.228457	-0.133534	0.769359
H115	H	-0.271692	-1.148865	0.924718
H116	H	0.228308	-0.648865	1.424718
H117	H	-0.271691	-1.148874	0.785291
H118	H	0.228309	-0.648874	1.285291
O119	O	-0.803854	-1.205726	0.392908
O120	O	-0.303854	-0.705726	0.892908
H121	H	-0.770029	-1.227708	0.347015
H122	H	-0.270029	-0.727708	0.847015
O123	O	-0.456575	-0.965544	0.934811
O124	O	0.043425	-0.465544	1.434811
H125	H	-0.448605	-0.973457	0.994714
H126	H	0.051395	-0.473457	1.494714
O127	O	-0.258998	-0.483931	0.256952
O128	O	0.241002	0.016069	0.756952
H129	H	-0.200726	-0.498694	0.269666
H130	H	0.299274	0.001306	0.769666
O131	O	-0.456550	-0.965529	0.775054
O132	O	0.043450	-0.465529	1.275054
H133	H	-0.489575	-0.932779	0.814673
H134	H	0.010425	-0.432779	1.314673
O135	O	-0.910835	-1.101502	0.497007
O136	O	-0.410835	-0.601502	0.997007
H137	H	-0.891098	-1.060562	0.537667
H138	H	-0.391098	-0.560562	1.037667
H139	H	-0.904022	-0.939588	0.321340
H140	H	-0.404022	-0.439588	0.821340
H141	H	-0.444157	-0.633501	0.439850
H142	H	0.055843	-0.133501	0.939850
H143	H	-0.811236	-1.030243	0.230622
H144	H	-0.311236	-0.530243	0.730622
O145	O	-0.456814	-0.483907	0.452200
O146	O	0.043186	0.016093	0.952200
H147	H	-0.489922	-0.523536	0.484833
H148	H	0.010078	-0.023536	0.984833
H149	H	-0.903603	-1.154293	0.263880
H150	H	-0.403603	-0.654293	0.763880
