data_functionalizedCrystal
_audit_creation_method	'MofGen! by Chris Wilmer'
_symmetry_space_group_name_H-M	'P1'
_symmetry_Int_Tables_number	1
_symmetry_cell_setting	triclinic
loop_
_symmetry_equiv_pos_as_xyz
  x,y,z
_cell_length_a	29.839134
_cell_length_b	29.839126
_cell_length_c	18.050589
_cell_angle_alpha	89.983119
_cell_angle_beta	90.023083
_cell_angle_gamma	89.970362
loop_
_atom_site_label
_atom_site_type_symbol
_atom_site_fract_x
_atom_site_fract_y
_atom_site_fract_z
Zn1	Zn	0.686795	-0.254148	-0.295818
Zn2	Zn	0.686734	-0.179027	-0.419999
Zn3	Zn	0.611668	-0.179017	-0.295816
Zn4	Zn	0.611643	-0.254116	-0.419960
O5	O	0.649210	-0.216577	-0.357898
O6	O	0.749654	-0.244200	-0.312308
O7	O	0.676762	-0.116159	-0.403541
O8	O	0.621669	-0.188993	-0.191891
O9	O	0.749609	-0.189010	-0.403543
O10	O	0.676865	-0.244191	-0.191893
O11	O	0.621610	-0.116151	-0.312304
O12	O	0.548797	-0.188962	-0.312266
O13	O	0.621627	-0.316987	-0.403477
O14	O	0.548779	-0.244136	-0.403474
O15	O	0.676841	-0.317011	-0.312270
O16	O	0.676737	-0.188979	-0.523918
O17	O	0.621568	-0.244146	-0.523889
C18	C	0.532487	-0.216545	-0.357866
C19	C	0.482553	-0.216541	-0.357871
C20	C	0.172909	-0.245271	-0.405460
C21	C	-0.014764	-0.245291	-0.405481
O22	O	-0.039029	-0.269699	-0.445908
N23	N	-0.038232	-0.216611	-0.357925
C24	C	-0.014780	-0.187926	-0.310357
O25	O	-0.039047	-0.163535	-0.269903
C26	C	0.172892	-0.187908	-0.310333
C27	C	0.196359	-0.216587	-0.357897
C28	C	0.196376	-0.273948	-0.453020
C29	C	0.243291	-0.273941	-0.453017
C30	C	0.266740	-0.245257	-0.405455
C31	C	0.243274	-0.216580	-0.357895
C32	C	0.196344	-0.159226	-0.262762
C33	C	0.243265	-0.159225	-0.262759
C34	C	0.266731	-0.187904	-0.310323
C35	C	0.313639	-0.187889	-0.310329
N36	N	0.337107	-0.216569	-0.357885
C37	C	0.313658	-0.245253	-0.405448
C38	C	-0.113310	-0.187936	-0.310374
C39	C	-0.160228	-0.187940	-0.310381
C40	C	-0.160209	-0.245306	-0.405504
C41	C	-0.113290	-0.245300	-0.405501
C42	C	-0.089842	-0.216616	-0.357930
C43	C	0.412184	-0.245236	-0.405439
C44	C	0.459104	-0.245225	-0.405434
C45	C	0.459080	-0.187861	-0.310308
C46	C	0.412165	-0.187870	-0.310315
C47	C	0.388718	-0.216561	-0.357883
O48	O	0.337933	-0.163498	-0.269917
O49	O	0.337934	-0.269647	-0.445884
C50	C	0.125994	-0.245278	-0.405463
C51	C	0.102528	-0.216601	-0.357903
C52	C	0.125977	-0.187917	-0.310340
C53	C	0.055610	-0.216605	-0.357910
C54	C	0.032161	-0.245289	-0.405473
C55	C	0.055629	-0.273969	-0.453029
C56	C	0.102545	-0.273962	-0.453026
C57	C	0.102508	-0.159237	-0.262785
C58	C	0.055593	-0.159246	-0.262792
C59	C	0.032144	-0.187930	-0.310355
C60	C	0.649238	-0.333755	-0.357870
C61	C	0.649249	-0.383690	-0.357857
C62	C	0.620541	-0.693332	-0.310276
C63	C	0.620554	-0.881006	-0.310225
O64	O	0.596123	-0.905270	-0.269844
N65	N	0.649271	-0.904475	-0.357718
C66	C	0.677984	-0.881024	-0.405231
O67	O	0.702407	-0.905292	-0.445631
C68	C	0.677969	-0.693351	-0.405286
C69	C	0.649254	-0.669884	-0.357784
C70	C	0.591828	-0.669865	-0.262779
C71	C	0.591827	-0.622950	-0.262789
C72	C	0.620539	-0.599501	-0.310297
C73	C	0.649252	-0.622969	-0.357795
C74	C	0.706680	-0.669901	-0.452802
C75	C	0.706673	-0.622979	-0.452813
C76	C	0.677957	-0.599512	-0.405311
C77	C	0.677964	-0.552605	-0.405313
N78	N	0.649247	-0.529135	-0.357820
C79	C	0.620534	-0.552584	-0.310312
C80	C	0.677991	-0.979554	-0.405198
C81	C	0.677995	-1.026472	-0.405184
C82	C	0.620564	-1.026451	-0.310178
C83	C	0.620562	-0.979532	-0.310189
C84	C	0.649274	-0.956085	-0.357705
C85	C	0.620534	-0.454058	-0.310337
C86	C	0.620537	-0.407138	-0.310350
C87	C	0.677966	-0.407163	-0.405358
C88	C	0.677966	-0.454079	-0.405343
C89	C	0.649246	-0.477525	-0.357830
O90	O	0.702378	-0.528312	-0.445679
O91	O	0.596109	-0.528307	-0.269929
C92	C	0.620542	-0.740248	-0.310266
C93	C	0.649256	-0.763715	-0.357763
C94	C	0.677968	-0.740267	-0.405271
C95	C	0.649260	-0.810633	-0.357749
C96	C	0.620548	-0.834081	-0.310241
C97	C	0.591831	-0.810612	-0.262747
C98	C	0.591830	-0.763696	-0.262758
C99	C	0.706685	-0.763736	-0.452764
C100	C	0.706684	-0.810652	-0.452749
C101	C	0.677972	-0.834100	-0.405241
C102	C	0.766388	-0.216610	-0.357930
C103	C	0.816323	-0.216624	-0.357944
C104	C	0.649156	-0.216570	-0.550850
C105	C	0.649173	-0.216581	-0.633396
C106	C	0.649208	-0.099854	-0.357873
C107	C	0.649283	-0.049920	-0.357676
C108	C	0.619202	-0.246571	-0.832858
C109	C	0.608250	-0.205574	-0.882289
C110	C	0.649218	-0.216587	-0.784526
C111	C	0.660191	-0.257588	-0.882177
C112	C	0.649259	-0.216597	-0.930511
C113	C	0.638245	-0.175569	-0.832870
C114	C	0.690204	-0.227611	-0.832754
C115	C	0.679269	-0.186586	-0.882162
C116	C	0.649192	-0.216582	-0.700428
C117	C	0.649285	-0.216597	-1.014608
C118	C	0.649276	-0.216594	-0.164192
C119	C	0.649305	-0.216602	-0.081647
H120	H	0.262393	-0.297295	-0.491748
H121	H	0.730065	-0.744649	-0.491455
Cl122	Cl	0.026141	-0.310027	-0.512824
Cl123	Cl	0.623879	-0.122025	-0.799574
Cl124	Cl	0.714073	-0.483581	-0.465047
Cl125	Cl	0.579957	-0.285664	-0.799429
Cl126	Cl	0.555737	-0.840099	-0.203022
H127	H	0.704670	-0.161205	-0.903675
Cl128	Cl	0.742769	-0.593506	-0.512553
H129	H	0.121596	-0.135879	-0.224052
H130	H	0.669456	-0.292259	-0.903836
Cl131	Cl	0.584436	-0.377639	-0.250627
H132	H	0.478208	-0.268580	-0.444169
H133	H	0.724838	-0.236946	-0.810981
H134	H	0.730063	-0.688999	-0.491484
Cl135	Cl	0.166905	-0.310013	-0.512822
Cl136	Cl	-0.189697	-0.281369	-0.465292
H137	H	0.393099	-0.268600	-0.444171
H138	H	0.701345	-0.388063	-0.444035
Cl139	Cl	0.026098	-0.123187	-0.202992
Cl140	Cl	0.742789	-0.840148	-0.512471
H141	H	0.573609	-0.196259	-0.904063
Cl142	Cl	-0.189723	-0.151879	-0.250593
H143	H	-0.094187	-0.268653	-0.444231
H144	H	-0.094223	-0.164577	-0.271636
Cl145	Cl	0.166855	-0.123173	-0.202957
H146	H	0.393058	-0.164516	-0.271586
Cl147	Cl	0.272740	-0.123163	-0.202952
Cl148	Cl	0.584461	-0.950035	-0.250472
H149	H	0.121647	-0.297316	-0.491757
Cl150	Cl	0.488568	-0.151804	-0.250517
H151	H	0.568447	-0.744593	-0.224077
H152	H	0.597149	-0.473142	-0.271647
H153	H	0.568442	-0.603847	-0.224111
H154	H	0.597187	-1.045550	-0.271493
Cl155	Cl	0.714102	-1.055968	-0.464893
Cl156	Cl	0.714092	-0.950084	-0.464934
Cl157	Cl	0.555722	-0.699335	-0.203055
