data_functionalizedCrystal
_audit_creation_method	'MofGen! by Chris Wilmer'
_symmetry_space_group_name_H-M	'P1'
_symmetry_Int_Tables_number	1
_symmetry_cell_setting	triclinic
loop_
_symmetry_equiv_pos_as_xyz
  x,y,z
_cell_length_a	12.759401
_cell_length_b	12.594516
_cell_length_c	12.759393
_cell_angle_alpha	89.971395
_cell_angle_beta	89.980789
_cell_angle_gamma	90.016479
loop_
_atom_site_label
_atom_site_type_symbol
_atom_site_fract_x
_atom_site_fract_y
_atom_site_fract_z
Zn1	Zn	1.606252	-0.423673	-0.594003
Zn2	Zn	1.606140	-0.601690	-0.418330
Zn3	Zn	1.430552	-0.423728	-0.418342
Zn4	Zn	1.430538	-0.601611	-0.593971
O5	O	1.518370	-0.512675	-0.506161
O6	O	1.753258	-0.447297	-0.570708
O7	O	1.582807	-0.578140	-0.271311
O8	O	1.453911	-0.274775	-0.441661
O9	O	1.753176	-0.578086	-0.441642
O10	O	1.582997	-0.274734	-0.570719
O11	O	1.453803	-0.447391	-0.271319
O12	O	1.283529	-0.447314	-0.441631
O13	O	1.453888	-0.577951	-0.740997
O14	O	1.283519	-0.578004	-0.570665
O15	O	1.582984	-0.447220	-0.741020
O16	O	1.582794	-0.750626	-0.441611
O17	O	1.453780	-0.750567	-0.570654
C18	C	1.245403	-0.512657	-0.506147
C19	C	1.128626	-0.512675	-0.506165
C20	C	1.073808	-0.444696	-0.573473
C21	C	0.964084	-0.444707	-0.573480
C22	C	0.964007	-0.580684	-0.438868
C23	C	1.073729	-0.580667	-0.438856
C24	C	1.518302	-0.789216	-0.506151
C25	C	1.518368	-0.907522	-0.506182
C26	C	1.448191	-0.976782	-0.576319
C27	C	1.422590	-1.047651	-0.480452
C28	C	1.544064	-1.047451	-0.602065
C29	C	1.492717	-0.976833	-0.410265
C30	C	1.614236	-0.976627	-0.531942
C31	C	1.588672	-1.047464	-0.436009
C32	C	1.792404	-0.512695	-0.506177
C33	C	1.909180	-0.512703	-0.506184
C34	C	1.518447	-0.512571	-0.780195
C35	C	1.518479	-0.512526	-0.896972
C36	C	1.518468	-0.235055	-0.506195
C37	C	1.518510	-0.116749	-0.506209
C38	C	1.585726	-0.444403	-1.061578
C39	C	1.585706	-0.444445	-0.951854
C40	C	1.451276	-0.580578	-0.951819
C41	C	1.451302	-0.580541	-1.061541
C42	C	1.518355	-0.512703	-0.233194
C43	C	1.518526	-0.512448	-0.116418
H44	H	1.118363	-0.636025	-0.384040
H45	H	0.919455	-0.389350	-0.628288
N46	N	1.715821	-0.937432	-0.559315
N47	N	1.732175	-0.839638	-0.562915
H48	H	1.803919	-0.811952	-0.582260
N49	N	1.654330	-0.374932	-0.895822
N50	N	1.654300	-0.374971	-0.797856
H51	H	1.702768	-0.325874	-0.758281
H52	H	0.919295	-0.636043	-0.384069
H53	H	1.341583	-1.078872	-0.458687
H54	H	1.118502	-0.389329	-0.628277
N55	N	1.373603	-0.937854	-0.650615
N56	N	1.278749	-0.960668	-0.640878
H57	H	1.226068	-0.933175	-0.693345
N58	N	1.465393	-0.938072	-0.308535
N59	N	1.460877	-0.840345	-0.292118
H60	H	1.441569	-0.812966	-0.220276
N61	N	1.654414	-0.374873	-1.117633
N62	N	1.721366	-0.412310	-1.178855
H63	H	1.769882	-0.363205	-1.218441
H64	H	1.648079	-1.078304	-0.376640
N65	N	1.571243	-1.086369	-0.703775
N66	N	1.515430	-1.063703	-0.781103
H67	H	1.534616	-1.091187	-0.852939
N68	N	1.382621	-0.650126	-0.895745
N69	N	1.382607	-0.650151	-0.797780
H70	H	1.334118	-0.699271	-0.758177
N71	N	1.382654	-0.650065	-1.117549
N72	N	1.322635	-0.710852	-1.068542
H73	H	1.274157	-0.759954	-1.108098
