data_functionalizedCrystal
_audit_creation_method	'MofGen! by Chris Wilmer'
_symmetry_space_group_name_H-M	'P1'
_symmetry_Int_Tables_number	1
_symmetry_cell_setting	triclinic
loop_
_symmetry_equiv_pos_as_xyz
  x,y,z
_cell_length_a	12.759401
_cell_length_b	12.759400
_cell_length_c	12.759393
_cell_angle_alpha	89.968436
_cell_angle_beta	90.019613
_cell_angle_gamma	89.985084
loop_
_atom_site_label
_atom_site_type_symbol
_atom_site_fract_x
_atom_site_fract_y
_atom_site_fract_z
Zn1	Zn	1.606256	0.418198	0.594013
Zn2	Zn	2.106256	0.918198	1.094013
Zn3	Zn	1.606150	0.593917	0.418333
Zn4	Zn	2.106150	1.093917	0.918333
Zn5	Zn	1.430557	0.418253	0.418349
Zn6	Zn	1.930557	0.918253	0.918349
Zn7	Zn	1.430546	0.593836	0.593971
Zn8	Zn	1.930546	1.093836	1.093971
O9	O	1.518377	0.506051	0.506166
O10	O	2.018377	1.006051	1.006166
O11	O	1.753263	0.441518	0.570719
O12	O	2.253263	0.941518	1.070719
O13	O	1.582818	0.570671	0.271314
O14	O	2.082818	1.070671	0.771314
O15	O	1.453913	0.271225	0.441675
O16	O	1.953913	0.771225	0.941675
O17	O	1.753185	0.570618	0.441648
O18	O	2.253185	1.070618	0.941648
O19	O	1.582998	0.271184	0.570735
O20	O	2.082998	0.771184	1.070735
O21	O	1.453811	0.441612	0.271325
O22	O	1.953811	0.941612	0.771325
O23	O	1.283535	0.441534	0.441634
O24	O	1.783535	0.941534	0.941634
O25	O	1.453894	0.570480	0.740998
O26	O	1.953894	1.070480	1.240998
O27	O	1.283527	0.570534	0.570663
O28	O	1.783527	1.070534	1.070663
O29	O	1.582987	0.441440	0.741028
O30	O	2.082987	0.941440	1.241028
O31	O	1.582807	0.740927	0.441607
O32	O	2.082807	1.240927	0.941607
O33	O	1.453791	0.740868	0.570648
O34	O	1.953791	1.240868	1.070648
C35	C	1.245410	0.506032	0.506147
C36	C	1.745410	1.006032	1.006147
C37	C	1.128633	0.506049	0.506163
C38	C	1.628633	1.006049	1.006163
C39	C	1.073734	0.573164	0.438864
C40	C	1.573734	1.073164	0.938864
C41	C	0.964010	0.573182	0.438882
C42	C	1.464010	1.073182	0.938882
C43	C	0.964094	0.438962	0.573502
C44	C	1.464094	0.938962	1.073502
C45	C	1.073816	0.438950	0.573488
C46	C	1.573816	0.938950	1.073488
C47	C	1.128552	0.640263	0.371539
C48	C	1.628552	1.140263	0.871539
C49	C	1.073653	0.707382	0.304234
C50	C	1.573653	1.207382	0.804234
C51	C	0.963929	0.707400	0.304252
C52	C	1.463929	1.207400	0.804252
C53	C	0.909104	0.640299	0.371576
C54	C	1.409104	1.140299	0.871576
C55	C	1.518315	0.779018	0.506144
C56	C	2.018315	1.279018	1.006144
C57	C	1.518384	0.895795	0.506170
C58	C	2.018384	1.395795	1.006170
C59	C	1.518451	0.505945	0.780200
C60	C	2.018451	1.005945	1.280200
C61	C	1.518482	0.505900	0.896976
C62	C	2.018482	1.005900	1.396976
C63	C	1.792411	0.506071	0.506187
C64	C	2.292411	1.006071	1.006187
C65	C	1.909187	0.506079	0.506195
C66	C	2.409187	1.006079	1.006195
C67	C	1.518468	0.232018	0.506211
C68	C	2.018468	0.732018	1.006211
C69	C	1.518507	0.115241	0.506230
C70	C	2.018507	0.615241	1.006230
C71	C	1.585637	0.950653	0.439053
C72	C	2.085637	1.450653	0.939053
C73	C	1.585702	1.060377	0.439085
C74	C	2.085702	1.560377	0.939085
C75	C	1.451252	1.060375	0.573355
C76	C	1.951252	1.560375	1.073355
C77	C	1.451193	0.950653	0.573327
C78	C	1.951193	1.450653	1.073327
C79	C	1.652828	0.895795	0.371896
C80	C	2.152828	1.395795	0.871896
C81	C	1.720086	0.950653	0.304773
C82	C	2.220086	1.450653	0.804773
C83	C	1.720150	1.060377	0.304805
C84	C	2.220150	1.560377	0.804805
C85	C	1.652957	1.115243	0.371961
C86	C	2.152957	1.615243	0.871961
C87	C	1.518364	0.506081	0.233199
C88	C	2.018364	1.006081	0.733199
C89	C	1.518537	0.505830	0.116423
C90	C	2.018537	1.005830	0.616423
C91	C	1.585710	0.438702	0.951856
C92	C	2.085710	0.938702	1.451856
C93	C	1.585735	0.438664	1.061580
C94	C	2.085735	0.938664	1.561580
C95	C	1.451301	0.573031	1.061535
C96	C	1.951301	1.073031	1.561535
C97	C	1.451272	0.573063	0.951813
C98	C	1.951272	1.073063	1.451813
C99	C	1.652920	0.371539	0.897019
C100	C	2.152920	0.871539	1.397019
C101	C	1.720155	0.304337	0.951899
C102	C	2.220155	0.804337	1.451899
C103	C	1.720180	0.304299	1.061623
C104	C	2.220180	0.804299	1.561623
C105	C	1.652970	0.371463	1.116468
C106	C	2.152970	0.871463	1.616468
H107	H	0.919446	0.384330	0.628312
H108	H	1.419446	0.884330	1.128312
H109	H	1.652910	0.371565	0.807677
H110	H	2.152910	0.871565	1.307677
C111	C	1.793996	0.890298	0.230908
C112	C	2.293996	1.390298	0.730908
N113	N	1.849667	0.844840	0.175271
N114	N	2.349667	1.344840	0.675271
C115	C	1.377335	1.120732	0.647211
C116	C	1.877335	1.620732	1.147211
N117	N	1.321655	1.166193	0.702836
N118	N	1.821655	1.666193	1.202836
C119	C	1.794136	1.120717	0.230971
C120	C	2.294136	1.620717	0.730971
N121	N	1.849859	1.166164	0.175351
N122	N	2.349859	1.666164	0.675351
H123	H	1.652780	0.806452	0.371859
H124	H	2.152780	1.306452	0.871859
H125	H	1.396431	0.905987	0.627981
H126	H	1.896431	1.405987	1.127981
H127	H	1.217895	0.640254	0.371515
H128	H	1.717895	1.140254	0.871515
C129	C	1.377378	0.646908	1.121868
C130	C	1.877378	1.146908	1.621868
N131	N	1.321699	0.702555	1.167311
N132	N	1.821699	1.202555	1.667311
H133	H	1.118515	0.384297	0.628286
H134	H	1.618515	0.884297	1.128286
C135	C	1.652997	0.371412	1.237168
C136	C	2.152997	0.871412	1.737168
N137	N	1.653021	0.371376	1.328079
N138	N	2.153021	0.871376	1.828079
H139	H	1.774867	0.249647	0.907238
H140	H	2.274867	0.749647	1.407238
H141	H	1.653024	1.204587	0.371990
H142	H	2.153024	1.704587	0.871990
H143	H	1.774917	0.249572	1.106304
H144	H	2.274917	0.749572	1.606304
H145	H	1.118299	0.762021	0.249429
H146	H	1.618299	1.262021	0.749429
H147	H	0.919233	0.762059	0.249456
H148	H	1.419233	1.262059	0.749456
C149	C	0.788403	0.640328	0.371596
C150	C	1.288403	1.140328	0.871596
N151	N	0.697493	0.640346	0.371607
N152	N	1.197493	1.140346	0.871607
H153	H	1.396513	0.627765	0.907129
H154	H	1.896513	1.127765	1.407129
