data_functionalizedCrystal
_audit_creation_method	'MofGen! by Chris Wilmer'
_symmetry_space_group_name_H-M	'P1'
_symmetry_Int_Tables_number	1
_symmetry_cell_setting	triclinic
loop_
_symmetry_equiv_pos_as_xyz
  x,y,z
_cell_length_a	6.817900
_cell_length_b	13.923258
_cell_length_c	11.102288
_cell_angle_alpha	84.093348
_cell_angle_beta	108.605689
_cell_angle_gamma	81.871755
loop_
_atom_site_label
_atom_site_type_symbol
_atom_site_fract_x
_atom_site_fract_y
_atom_site_fract_z
V1	V	-3.994482	0.302813	-0.178521
O2	O	-3.955743	0.297049	0.005819
O3	O	-3.972060	0.300742	-0.351323
O4	O	-3.920214	0.434880	-0.176986
O5	O	-4.007947	0.161982	-0.169725
V6	V	-4.478096	0.285969	-0.156329
O7	O	-4.255542	0.339763	-0.227202
O8	O	-4.667234	0.249019	-0.107648
O9	O	-4.277312	0.288039	0.016473
O10	O	-4.634232	0.291733	-0.340669
O11	O	-4.582028	0.426800	-0.165125
O12	O	-4.329157	0.153901	-0.157864
C13	C	-3.824217	0.295965	-0.393411
C14	C	-3.886998	0.295152	-0.534686
C15	C	-4.098628	0.299616	-0.607574
C16	C	-4.157608	0.298860	-0.740319
C17	C	-3.793307	0.289172	-0.727275
C18	C	-3.734332	0.289935	-0.594534
C19	C	-4.154633	0.121706	-0.163829
C20	C	-4.113137	0.013740	-0.163934
C21	C	-4.037240	-0.183909	-0.164342
C22	C	-3.854718	-0.227322	-0.170506
C23	C	-3.812485	-0.337300	-0.170732
C24	C	-4.079481	-0.073921	-0.164115
C25	C	-3.758082	0.467070	-0.171025
C26	C	-3.778816	0.575036	-0.170913
C27	C	-4.088498	0.292814	0.058554
C28	C	-4.004954	0.293633	0.199828
H29	H	-3.669018	0.284923	-0.776019
H30	H	-3.561992	0.286304	-0.535187
H31	H	-4.161774	-0.229336	-0.159236
C32	C	-4.266555	0.305359	-0.541746
H33	H	-4.401043	0.307916	-0.604174
H34	H	-4.234620	0.248959	-0.478123
H35	H	-4.267627	0.362763	-0.502350
C36	C	-4.390397	0.303763	-0.820489
H37	H	-4.472860	0.306972	-0.765828
H38	H	-4.437489	0.360566	-0.884656
H39	H	-4.404462	0.246761	-0.860426
C40	C	-3.686476	-0.165955	-0.177422
H41	H	-3.737705	-0.098953	-0.176900
H42	H	-3.561891	-0.189145	-0.105278
H43	H	-3.656076	-0.171892	-0.254380
