data_functionalizedCrystal
_audit_creation_method	'MofGen! by Chris Wilmer'
_symmetry_space_group_name_H-M	'P1'
_symmetry_Int_Tables_number	1
_symmetry_cell_setting	triclinic
loop_
_symmetry_equiv_pos_as_xyz
  x,y,z
_cell_length_a	6.817900
_cell_length_b	12.200863
_cell_length_c	14.858572
_cell_angle_alpha	93.921758
_cell_angle_beta	104.524003
_cell_angle_gamma	107.143441
loop_
_atom_site_label
_atom_site_type_symbol
_atom_site_fract_x
_atom_site_fract_y
_atom_site_fract_z
V1	V	-4.056927	-0.159435	-0.290055
O2	O	-4.024805	0.006919	-0.284436
O3	O	-4.026571	-0.315418	-0.288165
O4	O	-4.013319	-0.157308	-0.416516
O5	O	-4.038148	-0.152285	-0.155197
V6	V	-4.537596	-0.139498	-0.273914
O7	O	-4.324446	-0.203166	-0.325463
O8	O	-4.720275	-0.095766	-0.238506
O9	O	-4.344747	0.016485	-0.275804
O10	O	-4.687116	-0.305852	-0.279532
O11	O	-4.673772	-0.146648	-0.408772
O12	O	-4.357998	-0.141625	-0.147453
C13	C	-3.875806	-0.353433	-0.283613
C14	C	-3.932305	-0.480953	-0.282911
C15	C	-3.858901	-0.151747	-0.447336
C16	C	-3.904649	-0.151040	-0.550719
C17	C	-4.035709	-0.714426	-0.281632
C18	C	-3.978159	-0.584505	-0.282344
C19	C	-4.072090	-0.148458	-0.929285
C20	C	-4.025495	-0.149177	-0.823956
C21	C	-3.988371	-0.149750	-0.740005
C22	C	-3.941773	-0.150467	-0.634670
C23	C	-4.158854	0.054494	-0.280353
C24	C	-4.081594	0.182013	-0.281062
C25	C	-4.175759	-0.147190	-0.116628
C26	C	-4.109248	-0.147890	-0.013244
