data_functionalizedCrystal
_audit_creation_method	'MofGen! by Chris Wilmer'
_symmetry_space_group_name_H-M	'P1'
_symmetry_Int_Tables_number	1
_symmetry_cell_setting	triclinic
loop_
_symmetry_equiv_pos_as_xyz
  x,y,z
_cell_length_a	12.759401
_cell_length_b	12.759400
_cell_length_c	12.759393
_cell_angle_alpha	90.030609
_cell_angle_beta	90.021057
_cell_angle_gamma	90.014632
loop_
_atom_site_label
_atom_site_type_symbol
_atom_site_fract_x
_atom_site_fract_y
_atom_site_fract_z
Zn1	Zn	1.606254	-0.418216	0.594057
Zn2	Zn	1.606149	-0.593932	0.418377
Zn3	Zn	1.430557	-0.418267	0.418388
Zn4	Zn	1.430545	-0.593853	0.594010
O5	O	1.518376	-0.506067	0.506208
O6	O	1.753261	-0.441536	0.570767
O7	O	1.582817	-0.570684	0.271357
O8	O	1.453912	-0.271239	0.441715
O9	O	1.753184	-0.570634	0.441696
O10	O	1.582996	-0.271201	0.570778
O11	O	1.453810	-0.441624	0.271365
O12	O	1.283534	-0.441548	0.441670
O13	O	1.453892	-0.570500	0.741037
O14	O	1.283525	-0.570550	0.570699
O15	O	1.582985	-0.441460	0.741072
O16	O	1.582806	-0.740942	0.441651
O17	O	1.453790	-0.740884	0.570688
C18	C	1.245409	-0.506046	0.506181
C19	C	1.128632	-0.506063	0.506194
C20	C	0.963996	-0.573200	0.438933
C21	C	1.073720	-0.573181	0.438903
C22	C	1.073815	-0.438953	0.573512
C23	C	0.964093	-0.438967	0.573536
C24	C	0.963942	-0.650699	0.361220
C25	C	1.073666	-0.650680	0.361191
C26	C	1.518314	-0.779034	0.506186
C27	C	1.518383	-0.895811	0.506212
C28	C	1.585636	-0.950668	0.439097
C29	C	1.585701	-1.060392	0.439129
C30	C	1.451250	-1.060392	0.573395
C31	C	1.451192	-0.950670	0.573367
C32	C	1.663257	-0.950669	0.361576
C33	C	1.663321	-1.060393	0.361608
C34	C	1.792409	-0.506088	0.506236
C35	C	1.909186	-0.506097	0.506248
C36	C	1.518449	-0.505965	0.780241
C37	C	1.518480	-0.505922	0.897018
C38	C	1.518467	-0.232034	0.506253
C39	C	1.518506	-0.115257	0.506272
C40	C	1.518364	-0.506092	0.233241
C41	C	1.518536	-0.505839	0.116464
C42	C	1.585731	-0.438674	1.061625
C43	C	1.585706	-0.438718	0.951901
C44	C	1.451282	-0.573095	0.951866
C45	C	1.451314	-0.573055	1.061588
C46	C	1.663336	-0.361090	1.061644
C47	C	1.663311	-0.361134	0.951920
H48	H	0.919470	-0.384317	0.628342
Cl49	Cl	1.629763	-1.106504	0.235967
H50	H	0.934121	-0.628817	0.279893
Cl51	Cl	1.782621	-0.406154	0.899374
Cl52	Cl	1.618267	-0.898246	0.242200
H53	H	1.744600	-0.920812	0.383431
Cl54	Cl	1.126150	-0.605530	0.241921
H55	H	1.396553	-0.627820	0.907172
H56	H	1.634220	-0.283785	1.095688
H57	H	1.641535	-0.279772	0.922153
H58	H	1.740625	-1.094338	0.390824
H59	H	1.396607	-0.627757	1.106234
H60	H	1.744708	-0.382875	1.091423
H61	H	1.396439	-0.906006	0.628027
Cl62	Cl	1.142847	-0.354567	0.658099
H63	H	1.103449	-0.732070	0.382843
Cl64	Cl	0.911401	-0.770089	0.406030
H65	H	1.396546	-1.105072	0.628071
