data_functionalizedCrystal
_audit_creation_method	'MofGen! by Chris Wilmer'
_symmetry_space_group_name_H-M	'P1'
_symmetry_Int_Tables_number	1
_symmetry_cell_setting	triclinic
loop_
_symmetry_equiv_pos_as_xyz
  x,y,z
_cell_length_a	23.532407
_cell_length_b	10.489741
_cell_length_c	8.965430
_cell_angle_alpha	89.999293
_cell_angle_beta	89.998440
_cell_angle_gamma	83.693926
loop_
_atom_site_label
_atom_site_type_symbol
_atom_site_fract_x
_atom_site_fract_y
_atom_site_fract_z
O1	O	-0.756285	-0.154816	-0.123853
O2	O	-0.590571	-0.177218	-0.123896
O3	O	-0.677199	0.019706	-0.123864
O4	O	-0.669657	-0.351740	-0.123884
O5	O	-0.677191	0.019693	0.124214
O6	O	-0.590563	-0.177231	0.124183
O7	O	-0.756278	-0.154829	0.124226
Cu8	Cu	-0.673420	-0.166031	0.146856
Cu9	Cu	-0.673429	-0.166016	-0.146526
O10	O	-0.669650	-0.351753	0.124195
C11	C	-0.676625	0.067213	0.000174
C12	C	-0.674921	0.208785	0.000171
C13	C	-0.569347	-0.176654	0.000138
C14	C	-0.506119	-0.174939	0.000121
C15	C	-0.777502	-0.155393	0.000189
C16	C	-0.840730	-0.157108	0.000196
C17	C	-0.107717	-0.280717	0.000183
C18	C	-0.048306	-0.279124	0.000192
O19	O	-0.012211	-0.377181	0.000241
N20	N	-0.024904	-0.162052	0.000196
C21	C	-0.060916	-0.046567	0.000206
O22	O	-0.035555	0.053158	0.000211
C23	C	-0.120326	-0.048161	0.000207
C24	C	-0.143724	-0.165240	0.000188
C25	C	-0.131116	-0.397786	0.000166
C26	C	-0.190522	-0.399379	0.000154
C27	C	-0.226530	-0.283902	0.000159
C28	C	-0.203131	-0.166833	0.000176
C29	C	-0.156337	0.067323	0.000228
C30	C	-0.215750	0.065718	0.000230
C31	C	-0.239148	-0.051361	0.000211
C32	C	-0.298545	-0.052949	0.000170
N33	N	-0.321947	-0.170020	0.000166
C34	C	-0.285940	-0.285497	0.000161
C35	C	0.063849	-0.043227	0.000205
C36	C	0.123257	-0.041631	0.000193
C37	C	0.135863	-0.274188	0.000183
C38	C	0.076454	-0.275783	0.000184
C39	C	0.040447	-0.160298	0.000202
C40	C	-0.410699	-0.288833	0.000134
C41	C	-0.470111	-0.290416	0.000116
C42	C	-0.482712	-0.057859	0.000135
C43	C	-0.423305	-0.056275	0.000145
C44	C	-0.387299	-0.171773	0.000150
O45	O	-0.334675	0.045057	0.000127
O46	O	-0.311308	-0.385205	0.000175
C47	C	-0.670223	-0.399259	0.000153
C48	C	-0.671927	-0.540832	0.000146
N49	N	-0.673418	-0.166041	0.353205
C50	C	-0.619802	0.275093	0.000145
C51	C	-0.645836	0.368075	0.122468
C52	C	-0.645857	0.368063	-0.122118
C53	C	-0.700978	0.299902	0.122594
C54	C	-0.700991	0.299881	-0.122102
C55	C	-0.727065	0.392836	0.000251
N56	N	-0.673435	-0.165995	-0.352875
C57	C	-0.633343	-0.257083	0.450496
C58	C	-0.684905	-0.281179	0.549922
C59	C	-0.621878	-0.141955	0.549907
C60	C	-0.725006	-0.190195	0.450442
C61	C	-0.661945	-0.050921	0.450418
C62	C	-0.713544	-0.074968	0.549799
H63	H	-0.489158	-0.385759	0.000100
H64	H	-0.245065	0.159762	0.000246
C65	C	-0.783151	-0.217731	0.392701
C66	C	-0.795112	-0.337872	0.444420
C67	C	-0.848671	-0.363290	0.391295
H68	H	-0.782865	-0.217731	0.286753
H69	H	-0.811659	-0.153481	0.427556
H70	H	-0.766611	-0.402105	0.409557
H71	H	-0.795409	-0.337901	0.550361
H72	H	-0.877179	-0.299039	0.426150
H73	H	-0.848381	-0.363284	0.285348
H74	H	-0.856796	-0.444801	0.426389
H75	H	0.165192	-0.368216	0.000185
C76	C	-0.758876	0.027566	0.607507
C77	C	-0.812722	0.001763	0.556865
C78	C	-0.854497	0.096174	0.610016
H79	H	-0.751109	0.109183	0.571963
H80	H	-0.758462	0.027478	0.713470
H81	H	-0.813135	0.001865	0.450924
H82	H	-0.820507	-0.079836	0.592405
H83	H	-0.854083	0.096086	0.715979
H84	H	-0.846725	0.177784	0.574468
H85	H	-0.891036	0.078673	0.575675
H86	H	-0.694620	-0.378514	0.593629
H87	H	-0.724296	0.269616	-0.225510
H88	H	-0.137297	0.162661	0.000244
H89	H	-0.652214	0.046382	0.406677
C90	C	-0.563698	-0.114985	0.607952
C91	C	-0.521904	-0.210601	0.557602
C92	C	-0.468299	-0.185799	0.611019
H93	H	-0.564143	-0.114416	0.713894
H94	H	-0.555236	-0.033869	0.572371
H95	H	-0.530362	-0.291695	0.593190
H96	H	-0.521440	-0.211185	0.451666
H97	H	-0.459838	-0.104684	0.575438
H98	H	-0.468750	-0.185230	0.716960
H99	H	-0.439935	-0.250664	0.576853
H100	H	0.034534	0.050821	0.000206
H101	H	-0.381389	-0.382882	0.000143
C102	C	-0.397863	0.070796	-0.000152
C103	C	-0.364127	0.078530	-0.127786
C104	C	-0.340691	0.195576	-0.128104
H105	H	-0.374916	0.076370	0.086268
H106	H	-0.427802	0.139381	-0.000237
H107	H	-0.334192	0.009963	-0.127688
H108	H	-0.387061	0.072979	-0.214227
H109	H	-0.370630	0.264162	-0.128189
H110	H	-0.317746	0.201140	-0.041679
H111	H	-0.317803	0.200844	-0.214709
C112	C	-0.215837	-0.526597	-0.000087
C113	C	-0.197558	-0.596358	-0.127700
C114	C	-0.220852	-0.713574	-0.127960
H115	H	-0.256376	-0.511223	-0.000166
H116	H	-0.203488	-0.574176	0.086378
H117	H	-0.209910	-0.548790	-0.214143
H118	H	-0.157022	-0.611767	-0.127648
H119	H	-0.208503	-0.761153	-0.041495
H120	H	-0.261390	-0.698188	-0.128035
H121	H	-0.208449	-0.760927	-0.214536
C122	C	-0.588268	-0.360020	0.392420
C123	C	-0.600564	-0.480316	0.442811
C124	C	-0.559062	-0.575173	0.389322
H125	H	-0.551700	-0.343905	0.427901
H126	H	-0.588352	-0.358891	0.286459
H127	H	-0.600474	-0.481441	0.548750
H128	H	-0.637126	-0.496471	0.407334
H129	H	-0.559146	-0.574045	0.283361
H130	H	-0.522496	-0.559047	0.424806
H131	H	-0.567402	-0.656806	0.423493
C132	C	-0.521786	0.067549	-0.000166
C133	C	-0.511153	0.138094	-0.127805
C134	C	-0.547145	0.253618	-0.128133
H135	H	-0.514679	0.115733	0.086251
H136	H	-0.560526	0.049873	-0.000251
H137	H	-0.472422	0.155774	-0.127707
H138	H	-0.518265	0.089949	-0.214242
H139	H	-0.585885	0.235941	-0.128218
H140	H	-0.540034	0.301790	-0.041710
H141	H	-0.539939	0.301491	-0.214740
H142	H	0.142303	0.053707	0.000185
H143	H	0.057407	-0.371119	0.000177
H144	H	-0.622511	0.398305	0.225871
H145	H	-0.101804	-0.491827	0.000167
C146	C	-0.732108	0.259671	0.260466
C147	C	-0.779812	0.199871	0.216994
C148	C	-0.808495	0.162775	0.343959
H149	H	-0.744229	0.333193	0.318902
H150	H	-0.707084	0.201526	0.317636
H151	H	-0.804832	0.258013	0.159848
H152	H	-0.767707	0.126335	0.158576
H153	H	-0.783471	0.104630	0.401129
H154	H	-0.820613	0.236303	0.402386
H155	H	-0.840863	0.122186	0.314481
H156	H	-0.574484	0.223935	0.000257
H157	H	-0.772424	0.443768	0.000331
H158	H	-0.622531	0.398256	-0.225543
