data_functionalizedCrystal
_audit_creation_method	'MofGen! by Chris Wilmer'
_symmetry_space_group_name_H-M	'P1'
_symmetry_Int_Tables_number	1
_symmetry_cell_setting	triclinic
loop_
_symmetry_equiv_pos_as_xyz
  x,y,z
_cell_length_a	15.298068
_cell_length_b	16.120484
_cell_length_c	15.296720
_cell_angle_alpha	101.986518
_cell_angle_beta	88.354818
_cell_angle_gamma	103.029391
loop_
_atom_site_label
_atom_site_type_symbol
_atom_site_fract_x
_atom_site_fract_y
_atom_site_fract_z
Zn1	Zn	1.237597	-0.252306	-0.738453
Zn2	Zn	1.737597	0.247694	-0.238453
Zn3	Zn	1.255735	-0.366214	-0.596990
Zn4	Zn	1.755735	0.133786	-0.096990
Zn5	Zn	1.116993	-0.244065	-0.566257
Zn6	Zn	1.616993	0.255935	-0.066257
Zn7	Zn	1.080990	-0.413761	-0.720103
Zn8	Zn	1.580990	0.086239	-0.220103
O9	O	1.172829	-0.319086	-0.655451
O10	O	1.672829	0.180914	-0.155451
O11	O	1.363608	-0.250967	-0.740228
O12	O	1.863608	0.249033	-0.240228
O13	O	1.259988	-0.326663	-0.469325
O14	O	1.759988	0.173337	0.030675
O15	O	1.140468	-0.126470	-0.583917
O16	O	1.640468	0.373530	-0.083917
O17	O	1.376933	-0.334654	-0.636296
O18	O	1.876933	0.165346	-0.136296
O19	O	1.229075	-0.132525	-0.710428
O20	O	1.729075	0.367475	-0.210428
O21	O	1.158055	-0.236921	-0.446746
O22	O	1.658055	0.263079	0.053254
O23	O	0.988612	-0.283025	-0.566124
O24	O	1.488612	0.216975	-0.066124
O25	O	1.079106	-0.415691	-0.846125
O26	O	1.579106	0.084309	-0.346125
O27	O	0.962161	-0.407700	-0.679154
O28	O	1.462161	0.092300	-0.179154
O29	O	1.194165	-0.297071	-0.859606
O30	O	1.694165	0.202929	-0.359606
O31	O	1.225078	-0.491209	-0.618503
O32	O	1.725078	0.008791	-0.118503
O33	O	1.096693	-0.526142	-0.708954
O34	O	1.596693	-0.026142	-0.208954
C35	C	0.943337	-0.349629	-0.617313
C36	C	1.443337	0.150371	-0.117313
C37	C	0.845154	-0.362719	-0.601020
C38	C	1.345154	0.137281	-0.101020
C39	C	0.540558	-0.225740	-0.771914
C40	C	1.040558	0.274260	-0.271914
C41	C	0.632804	-0.213445	-0.787227
C42	C	1.132804	0.286555	-0.287227
C43	C	0.685896	-0.250762	-0.740677
C44	C	1.185896	0.249238	-0.240677
C45	C	0.646733	-0.300378	-0.678810
C46	C	1.146733	0.199622	-0.178810
C47	C	0.554477	-0.312680	-0.663500
C48	C	1.054477	0.187320	-0.163500
C49	C	0.699815	-0.337702	-0.632263
C50	C	1.199815	0.162298	-0.132263
C51	C	0.660652	-0.387317	-0.570396
C52	C	1.160652	0.112683	-0.070396
C53	C	0.568404	-0.399617	-0.555089
C54	C	1.068404	0.100383	-0.055089
C55	C	0.515312	-0.362300	-0.601639
C56	C	1.015312	0.137700	-0.101639
C57	C	0.792071	-0.325399	-0.647573
C58	C	1.292071	0.174601	-0.147573
C59	C	0.805990	-0.412339	-0.539159
C60	C	1.305990	0.087661	-0.039159
C61	C	0.713744	-0.424634	-0.523846
C62	C	1.213744	0.075366	-0.023846
C63	C	1.158967	-0.539451	-0.665095
C64	C	1.658967	-0.039451	-0.165095
C65	C	1.153113	-0.633718	-0.669264
C66	C	1.653113	-0.133718	-0.169264
C67	C	1.142426	-0.806307	-0.676895
C68	C	1.642426	-0.306307	-0.176895
C69	C	1.203387	-0.831007	-0.634047
C70	C	1.703387	-0.331007	-0.134047
C71	C	1.197441	-0.927041	-0.638293
C72	C	1.697441	-0.427041	-0.138293
C73	C	1.148371	-0.710265	-0.672650
C74	C	1.648371	-0.210265	-0.172650
C75	C	1.403216	-0.288426	-0.693737
C76	C	1.903216	0.211574	-0.193737
C77	C	1.501394	-0.275360	-0.710053
C78	C	2.001394	0.224640	-0.210053
C79	C	1.130597	-0.362604	-0.885806
C80	C	1.630597	0.137396	-0.385806
C81	C	1.112600	-0.381149	-0.983970
C82	C	1.612600	0.118851	-0.483970
C83	C	1.186764	-0.097862	-0.645791
C84	C	1.686764	0.402138	-0.145791
C85	C	1.192703	-0.003589	-0.641675
C86	C	1.692703	0.496411	-0.141675
C87	C	1.301497	-0.186392	-1.288756
C88	C	1.801497	0.313608	-0.788756
C89	C	1.318411	-0.168970	-1.196527
C90	C	1.818411	0.331030	-0.696527
C91	C	1.266960	-0.222012	-1.143384
C92	C	1.766960	0.277988	-0.643384
C93	C	1.198591	-0.292482	-1.182478
C94	C	1.698591	0.207518	-0.682478
C95	C	1.181680	-0.309911	-1.274717
C96	C	1.681680	0.190089	-0.774717
C97	C	1.147143	-0.345531	-1.129344
C98	C	1.647143	0.154469	-0.629344
C99	C	1.078774	-0.416000	-1.168438
C100	C	1.578774	0.084000	-0.668438
C101	C	1.061865	-0.433425	-1.260668
C102	C	1.561865	0.066575	-0.760668
C103	C	1.113317	-0.380382	-1.313812
C104	C	1.613317	0.119618	-0.813812
C105	C	1.164054	-0.328102	-1.037105
C106	C	1.664054	0.171898	-0.537105
C107	C	1.044237	-0.451620	-1.023065
C108	C	1.544237	0.048380	-0.523065
C109	C	1.027323	-0.469043	-1.115294
C110	C	1.527323	0.030957	-0.615294
C111	C	1.214951	-0.275670	-0.425997
C112	C	1.714951	0.224330	0.074003
C113	C	1.233134	-0.256864	-0.327851
C114	C	1.733134	0.243136	0.172149
H115	H	0.664684	-0.173051	-0.837602
H116	H	1.164684	0.326949	-0.337602
F117	F	1.277439	-0.764377	-0.581928
F118	F	1.777439	-0.264377	-0.081928
H119	H	1.343386	-0.143217	-1.332034
H120	H	1.843386	0.356783	-0.832034
F121	F	1.068376	-0.872935	-0.729006
F122	F	1.568376	-0.372935	-0.229006
H123	H	0.440195	-0.372315	-0.589180
H124	H	0.940195	0.127685	-0.089180
F125	F	0.989113	-0.508436	-1.302275
F126	F	1.489113	-0.008436	-0.802275
H127	H	1.219720	-0.270725	-1.005284
H128	H	1.719720	0.229275	-0.505284
H129	H	0.971656	-0.526420	-1.147138
H130	H	1.471656	-0.026420	-0.647138
F131	F	0.989479	-0.508080	-0.966511
F132	F	1.489479	-0.008080	-0.466511
H133	H	1.374079	-0.111595	-1.164704
H134	H	1.874079	0.388405	-0.664704
H135	H	1.280735	-0.207823	-1.068287
H136	H	1.780735	0.292177	-0.568287
F137	F	1.095322	-0.398925	-1.411975
F138	F	1.595322	0.101075	-0.911975
H139	H	0.823949	-0.285000	-0.697944
H140	H	1.323949	0.215000	-0.197944
H141	H	0.497322	-0.195368	-0.809814
H142	H	0.997322	0.304632	-0.309814
F143	F	0.784074	-0.237673	-0.756975
F144	F	1.284074	0.262327	-0.256975
H145	H	0.536519	-0.440025	-0.504720
H146	H	1.036519	0.059975	-0.004720
H147	H	0.681843	-0.465033	-0.473474
H148	H	1.181843	0.034967	0.026526
H149	H	0.849217	-0.442730	-0.501258
H150	H	1.349217	0.057270	-0.001258
