data_functionalizedCrystal
_audit_creation_method	'MofGen! by Chris Wilmer'
_symmetry_space_group_name_H-M	'P1'
_symmetry_Int_Tables_number	1
_symmetry_cell_setting	triclinic
loop_
_symmetry_equiv_pos_as_xyz
  x,y,z
_cell_length_a	16.625548
_cell_length_b	16.625546
_cell_length_c	17.077396
_cell_angle_alpha	90.030215
_cell_angle_beta	90.019578
_cell_angle_gamma	90.023536
loop_
_atom_site_label
_atom_site_type_symbol
_atom_site_fract_x
_atom_site_fract_y
_atom_site_fract_z
Zn1	Zn	1.232673	-0.320979	0.443835
Zn2	Zn	1.232578	-0.455821	0.312565
Zn3	Zn	1.097837	-0.321009	0.312583
Zn4	Zn	1.097805	-0.455775	0.443788
O5	O	1.165223	-0.388396	0.378193
O6	O	1.345492	-0.338872	0.426434
O7	O	1.214678	-0.437970	0.202720
O8	O	1.115776	-0.208173	0.330020
O9	O	1.345423	-0.437941	0.329990
O10	O	1.214839	-0.208150	0.426451
O11	O	1.115684	-0.338924	0.202733
O12	O	0.985000	-0.338879	0.329975
O13	O	1.115721	-0.437863	0.553641
O14	O	0.984977	-0.437892	0.426372
O15	O	1.214808	-0.338828	0.553676
O16	O	1.214647	-0.568648	0.329945
O17	O	1.115630	-0.568614	0.426354
C18	C	0.955732	-0.388385	0.378171
C19	C	0.866111	-0.388399	0.378180
C20	C	0.537935	-0.388404	0.378214
C21	C	0.629244	-0.388401	0.378202
C22	C	0.702020	-0.388402	0.378196
C23	C	0.793335	-0.388398	0.378186
C24	C	1.165147	-0.597887	0.378160
C25	C	1.165188	-0.687508	0.378172
C26	C	1.165329	-1.015684	0.378254
C27	C	1.165287	-0.924375	0.378233
C28	C	1.165258	-0.851599	0.378212
C29	C	1.165217	-0.760285	0.378193
C30	C	1.375532	-0.388408	0.378215
C31	C	1.465153	-0.388413	0.378225
C32	C	1.165272	-0.388337	0.582937
C33	C	1.165293	-0.388311	0.670187
C34	C	1.165322	-0.178087	0.378243
C35	C	1.165364	-0.088466	0.378264
C36	C	1.165221	-0.388397	0.174245
C37	C	1.165356	-0.388195	0.086995
C38	C	1.216889	-0.336740	0.711196
C39	C	1.216899	-0.336713	0.793177
C40	C	1.165316	-0.388262	0.834146
C41	C	1.113713	-0.439836	0.793131
C42	C	1.113700	-0.439858	0.711152
C43	C	1.113746	-0.439788	0.964002
C44	C	1.113760	-0.439767	1.045986
C45	C	1.216944	-0.336642	1.046026
C46	C	1.216931	-0.336664	0.964047
C47	C	1.165330	-0.388240	0.923037
H48	H	1.258897	-0.294765	0.677844
F49	F	1.271842	-0.281851	0.836818
H50	H	1.258939	-0.294693	0.930691
F51	F	1.271863	-0.281752	1.089672
H52	H	1.071755	-0.481741	1.079342
F53	F	1.058824	-0.494678	0.920358
H54	H	1.071711	-0.481806	0.826496
F55	F	1.058782	-0.494746	0.667508
