data_functionalizedCrystal
_audit_creation_method	'MofGen! by Chris Wilmer'
_symmetry_space_group_name_H-M	'P1'
_symmetry_Int_Tables_number	1
_symmetry_cell_setting	triclinic
loop_
_symmetry_equiv_pos_as_xyz
  x,y,z
_cell_length_a	12.759401
_cell_length_b	17.640280
_cell_length_c	17.637464
_cell_angle_alpha	92.150542
_cell_angle_beta	101.198104
_cell_angle_gamma	78.802151
loop_
_atom_site_label
_atom_site_type_symbol
_atom_site_fract_x
_atom_site_fract_y
_atom_site_fract_z
Zn1	Zn	1.611762	-0.389096	-0.368309
Zn2	Zn	2.111762	0.110904	0.131691
Zn3	Zn	1.679944	-0.490416	-0.215677
Zn4	Zn	2.179944	0.009584	0.284323
Zn5	Zn	1.463328	-0.363454	-0.241331
Zn6	Zn	1.963328	0.136546	0.258669
Zn7	Zn	1.477077	-0.516042	-0.342637
Zn8	Zn	1.977077	-0.016042	0.157363
O9	O	1.558028	-0.439752	-0.291989
O10	O	2.058028	0.060248	0.208011
O11	O	1.767828	-0.402544	-0.348069
O12	O	2.267828	0.097456	0.151931
O13	O	1.673989	-0.452119	-0.112806
O14	O	2.173989	0.047881	0.387194
O15	O	1.448729	-0.260594	-0.279655
O16	O	1.948729	0.239406	0.220345
O17	O	1.817920	-0.476983	-0.235931
O18	O	2.317920	0.023017	0.264069
O19	O	1.557784	-0.279434	-0.372945
O20	O	2.057784	0.220566	0.127055
O21	O	1.514842	-0.358840	-0.131654
O22	O	2.014842	0.141160	0.368346
O23	O	1.318131	-0.383688	-0.254762
O24	O	1.818131	0.116312	0.245238
O25	O	1.472163	-0.520658	-0.452317
O26	O	1.972163	-0.020658	0.047683
O27	O	1.328232	-0.495794	-0.329192
O28	O	1.828232	0.004206	0.170808
O29	O	1.571116	-0.427392	-0.471177
O30	O	2.071116	0.072608	0.028823
O31	O	1.687322	-0.600077	-0.211039
O32	O	2.187322	-0.100077	0.288961
O33	O	1.538276	-0.618904	-0.304316
O34	O	2.038276	-0.118904	0.195684
C35	C	1.285061	-0.439740	-0.291975
C36	C	1.785061	0.060260	0.208025
C37	C	1.168286	-0.439756	-0.291984
C38	C	1.668286	0.060244	0.208016
C39	C	1.621714	-0.637046	-0.252124
C40	C	2.121714	-0.137046	0.247876
C41	C	1.649050	-0.721454	-0.235095
C42	C	2.149050	-0.221454	0.264905
C43	C	1.118752	-0.498188	-0.330648
C44	C	1.618752	0.001812	0.169352
C45	C	1.009026	-0.498194	-0.330662
C46	C	1.509026	0.001806	0.169338
C47	C	0.998378	-0.381333	-0.253343
C48	C	1.498378	0.118667	0.246657
C49	C	1.108100	-0.381325	-0.253333
C50	C	1.608100	0.118675	0.246667
C51	C	1.350730	-1.048153	-0.421630
C52	C	1.850730	-0.548153	0.078370
C53	C	1.376424	-1.127463	-0.405605
C54	C	1.876424	-0.627463	0.094395
C55	C	1.531687	-1.107813	-0.308573
C56	C	2.031687	-0.607813	0.191427
C57	C	1.506010	-1.028500	-0.324593
C58	C	2.006010	-0.528500	0.175407
C59	C	1.415529	-0.998677	-0.381122
C60	C	1.915529	-0.498677	0.118878
C61	C	1.570809	-0.979024	-0.284085
C62	C	2.070809	-0.479024	0.215915
C63	C	1.545129	-0.899718	-0.300101
C64	C	2.045129	-0.399718	0.199899
C65	C	1.454651	-0.869889	-0.356625
C66	C	1.954651	-0.369889	0.143375
C67	C	1.389850	-0.919371	-0.397137
C68	C	1.889850	-0.419371	0.102863
C69	C	1.661284	-1.008848	-0.227553
C70	C	2.161284	-0.508848	0.272447
C71	C	1.726083	-0.959372	-0.187044
C72	C	2.226083	-0.459372	0.312956
C73	C	1.700409	-0.880066	-0.203064
C74	C	2.200409	-0.380066	0.296936
C75	C	1.609931	-0.850236	-0.259588
C76	C	2.109931	-0.350236	0.240412
C77	C	1.765210	-0.830583	-0.162551
C78	C	2.265210	-0.330583	0.337449
C79	C	1.739531	-0.751277	-0.178567
C80	C	2.239531	-0.251277	0.321433
C81	C	1.584251	-0.770930	-0.275604
C82	C	2.084251	-0.270930	0.224396
C83	C	1.832061	-0.439765	-0.292002
C84	C	2.332061	0.060235	0.207998
C85	C	1.948837	-0.439771	-0.292008
C86	C	2.448837	0.060229	0.207992
C87	C	1.515568	-0.479743	-0.490073
C88	C	2.015568	0.020257	0.009927
C89	C	1.497474	-0.496785	-0.574485
C90	C	1.997474	0.003215	-0.074485
C91	C	1.494117	-0.241691	-0.332025
C92	C	1.994117	0.258309	0.167975
C93	C	1.466883	-0.157290	-0.349086
C94	C	1.966883	0.342710	0.150914
C95	C	1.420458	-0.569360	-0.683642
C96	C	1.920458	-0.069360	-0.183642
C97	C	1.437466	-0.553341	-0.604325
C98	C	1.937466	-0.053341	-0.104325
C99	C	1.540504	-0.456230	-0.623956
C100	C	2.040504	0.043770	-0.123956
C101	C	1.523509	-0.472244	-0.703275
C102	C	2.023509	0.027756	-0.203275
C103	C	1.463485	-0.528809	-0.733112
C104	C	1.963485	-0.028809	-0.233112
C105	C	1.566536	-0.431692	-0.752745
C106	C	2.066536	0.068308	-0.252745
C107	C	1.549538	-0.447702	-0.832058
C108	C	2.049538	0.052298	-0.332058
C109	C	1.489513	-0.504264	-0.861901
C110	C	1.989513	-0.004264	-0.361901
C111	C	1.446487	-0.544819	-0.812425
C112	C	1.946487	-0.044819	-0.312425
C113	C	1.626554	-0.375123	-0.722908
C114	C	2.126554	0.124877	-0.222908
C115	C	1.669581	-0.334572	-0.772377
C116	C	2.169581	0.165428	-0.272377
C117	C	1.652590	-0.350586	-0.851691
C118	C	2.152590	0.149414	-0.351691
C119	C	1.592565	-0.407147	-0.881534
C120	C	2.092565	0.092853	-0.381534
C121	C	1.695616	-0.310030	-0.901168
C122	C	2.195616	0.189970	-0.401168
C123	C	1.678618	-0.326040	-0.980481
C124	C	2.178618	0.173960	-0.480481
C125	C	1.575567	-0.423157	-0.960847
C126	C	2.075567	0.076843	-0.460847
C127	C	1.600365	-0.399861	-0.094685
C128	C	2.100365	0.100139	0.405315
C129	C	1.618593	-0.382606	-0.010317
C130	C	2.118593	0.117394	0.489683
H131	H	1.167751	-0.545765	-0.362122
H132	H	1.667751	-0.045765	0.137878
H133	H	0.968700	-0.545774	-0.362148
H134	H	1.468700	-0.045774	0.137852
H135	H	1.277058	-1.023872	-0.467667
H136	H	1.777058	-0.523872	0.032333
F137	F	1.160819	-0.319127	-0.212184
F138	F	1.660819	0.180873	0.287816
F139	F	0.934316	-0.319150	-0.212209
F140	F	1.434316	0.180850	0.287791
H141	H	1.510580	-0.746649	-0.321641
H142	H	2.010580	-0.246649	0.178359
F143	F	1.759468	-0.249815	-0.869406
F144	F	2.259468	0.250185	-0.369406
H145	H	1.640395	-0.362092	-0.658325
H146	H	2.140395	0.137908	-0.158325
H147	H	1.682191	-1.073425	-0.214517
H148	H	2.182191	-0.573425	0.285483
H149	H	1.718450	-0.288515	-0.748074
H150	H	2.218450	0.211485	-0.248074
F151	F	1.808490	-0.698617	-0.135448
F152	F	2.308490	-0.198617	0.364552
H153	H	1.589373	-0.410172	-0.599652
H154	H	2.089373	0.089828	-0.099652
H155	H	1.838873	-0.854876	-0.116520
H156	H	2.338873	-0.354876	0.383480
H157	H	1.475665	-0.517292	-0.926485
H158	H	1.975665	-0.017292	-0.426485
F159	F	1.427481	-0.785511	-0.373808
F160	F	1.927481	-0.285511	0.126192
F161	F	1.511688	-0.483365	-0.992605
F162	F	2.011688	0.016635	-0.492605
H163	H	1.397617	-0.590885	-0.836718
H164	H	1.897617	-0.090885	-0.336718
F165	F	1.293558	-0.887629	-0.457308
F166	F	1.793558	-0.387629	0.042692
H167	H	1.371588	-0.615426	-0.707935
H168	H	1.871588	-0.115426	-0.207935
H169	H	1.713649	-0.293016	-1.020761
H170	H	2.213649	0.206984	-0.520761
F171	F	1.391665	-0.596505	-0.551677
F172	F	1.891665	-0.096505	-0.051677
H173	H	1.323661	-1.167747	-0.438605
H174	H	1.823661	-0.667747	0.061395
F175	F	1.627981	-1.139562	-0.248414
F176	F	2.127981	-0.639562	0.251586
H177	H	1.799750	-0.983665	-0.141017
H178	H	2.299750	-0.483665	0.358983
