data_functionalizedCrystal
_audit_creation_method	'MofGen! by Chris Wilmer'
_symmetry_space_group_name_H-M	'P1'
_symmetry_Int_Tables_number	1
_symmetry_cell_setting	triclinic
loop_
_symmetry_equiv_pos_as_xyz
  x,y,z
_cell_length_a	11.026660
_cell_length_b	14.519731
_cell_length_c	9.482900
_cell_angle_alpha	99.351580
_cell_angle_beta	78.636107
_cell_angle_gamma	96.136844
loop_
_atom_site_label
_atom_site_type_symbol
_atom_site_fract_x
_atom_site_fract_y
_atom_site_fract_z
O1	O	1.629923	0.375006	-0.120919
O2	O	2.129923	0.875006	0.379081
O3	O	1.276519	0.331018	-0.120918
O4	O	1.776519	0.831018	0.379082
O5	O	1.462575	0.220317	-0.120906
O6	O	1.962575	0.720317	0.379094
O7	O	1.443866	0.485706	-0.120932
O8	O	1.943866	0.985706	0.379068
O9	O	1.424783	0.242919	0.120884
O10	O	1.924783	0.742919	0.620884
O11	O	1.238727	0.353619	0.120872
O12	O	1.738727	0.853619	0.620872
O13	O	1.592131	0.397607	0.120871
O14	O	2.092131	0.897607	0.620871
Cu15	Cu	1.411978	0.377677	0.142949
Cu16	Cu	1.911978	0.877677	0.642949
Cu17	Cu	1.456671	0.350948	-0.142996
Cu18	Cu	1.956671	0.850948	0.357004
O19	O	1.406074	0.508307	0.120858
O20	O	1.906074	1.008307	0.620858
C21	C	1.212393	0.334203	-0.000023
C22	C	1.712393	0.834203	0.499977
C23	C	1.077625	0.310012	-0.000022
C24	C	1.577625	0.810012	0.499978
C25	C	0.864682	0.351814	-0.000030
C26	C	1.364682	0.851814	0.499970
C27	C	1.003971	0.376819	-0.000030
C28	C	1.503971	0.876819	0.499970
C29	C	1.442802	0.197114	-0.000010
C30	C	1.942802	0.697114	0.499990
C31	C	1.440175	0.094301	-0.000009
C32	C	1.940175	0.594301	0.499991
C33	C	1.438040	0.010805	-0.000013
C34	C	1.938040	0.510805	0.499987
C35	C	1.435374	-0.093944	-0.000024
C36	C	1.935374	0.406056	0.499976
C37	C	1.433258	-0.177433	-0.000033
C38	C	1.933258	0.322567	0.499967
C39	C	1.430592	-0.282189	-0.000042
C40	C	1.930592	0.217811	0.499958
C41	C	1.656256	0.394421	-0.000028
C42	C	2.156256	0.894421	0.499972
C43	C	1.791026	0.418612	-0.000038
C44	C	2.291026	0.918612	0.499962
C45	C	1.425848	0.531510	-0.000040
C46	C	1.925848	1.031510	0.499960
C47	C	1.428477	0.634323	-0.000051
C48	C	1.928477	1.134323	0.499949
N49	N	1.380552	0.396477	0.344067
N50	N	1.880552	0.896477	0.844067
N51	N	1.488107	0.332142	-0.344114
N52	N	1.988107	0.832142	0.155886
C53	C	1.447394	0.356487	0.416270
C54	C	1.947394	0.856487	0.916270
C55	C	1.421255	0.372138	0.583686
C56	C	1.921255	0.872138	1.083686
H57	H	0.824617	0.276117	-0.000002
H58	H	1.324617	0.776117	0.499998
H59	H	1.564684	0.286311	0.593767
H60	H	2.064684	0.786311	1.093767
H61	H	0.831086	0.494312	-0.000037
H62	H	1.331086	0.994312	0.499963
H63	H	1.037587	0.234298	-0.000111
H64	H	1.537587	0.734298	0.499889
H65	H	1.044025	0.452525	-0.000028
H66	H	1.544025	0.952525	0.499972
H67	H	1.523966	0.310659	0.354147
H68	H	2.023966	0.810659	0.854147
H69	H	1.344669	0.417960	0.645805
H70	H	1.844669	0.917960	1.145805
F71	F	1.280453	0.456368	0.425263
F72	F	1.780453	0.956368	0.925263
