data_functionalizedCrystal
_audit_creation_method	'MofGen! by Chris Wilmer'
_symmetry_space_group_name_H-M	'P1'
_symmetry_Int_Tables_number	1
_symmetry_cell_setting	triclinic
loop_
_symmetry_equiv_pos_as_xyz
  x,y,z
_cell_length_a	12.645331
_cell_length_b	13.032868
_cell_length_c	13.032268
_cell_angle_alpha	76.714099
_cell_angle_beta	97.162247
_cell_angle_gamma	82.788738
loop_
_atom_site_label
_atom_site_type_symbol
_atom_site_fract_x
_atom_site_fract_y
_atom_site_fract_z
Zn1	Zn	1.471983	0.499109	-0.654205
Zn2	Zn	1.471846	0.654193	-0.499145
Zn3	Zn	1.320498	0.476601	-0.476623
Zn4	Zn	1.268871	0.676662	-0.676683
O5	O	1.383300	0.576641	-0.576664
O6	O	1.620307	0.519697	-0.633654
O7	O	1.473319	0.611811	-0.347539
O8	O	1.362255	0.330958	-0.481346
O9	O	1.620207	0.633637	-0.519733
O10	O	1.473551	0.347494	-0.611815
O11	O	1.362123	0.481336	-0.330992
O12	O	1.165307	0.503123	-0.503142
O13	O	1.274266	0.671933	-0.822319
O14	O	1.127377	0.650107	-0.650126
O15	O	1.423491	0.541485	-0.805805
O16	O	1.423259	0.805802	-0.541529
O17	O	1.274134	0.822311	-0.671965
C18	C	1.107878	0.576612	-0.576630
C19	C	0.990044	0.576628	-0.576644
C20	C	1.343105	0.852597	-0.611653
C21	C	1.326001	0.970657	-0.626657
C22	C	1.392209	1.015095	-0.568858
C23	C	1.374533	1.137116	-0.584364
C24	C	0.846295	0.483841	-0.484581
C25	C	0.968876	0.484008	-0.484249
C26	C	0.933699	0.684636	-0.560265
C27	C	0.811247	0.684115	-0.559651
C28	C	0.810676	0.562514	-0.685535
C29	C	0.933736	0.559935	-0.684594
C30	C	1.659796	0.576671	-0.576698
C31	C	1.777623	0.576684	-0.576713
C32	C	1.343135	0.611726	-0.853675
C33	C	1.326019	0.626677	-0.971720
C34	C	1.423644	1.299609	-0.541549
C35	C	1.440751	1.181551	-0.526556
C36	C	1.392222	0.568800	-1.016178
C37	C	1.374533	0.584251	-1.138184
C38	C	1.423380	0.541616	-0.300721
C39	C	1.440745	0.526366	-0.182638
H40	H	1.461983	0.962808	-0.507897
Br41	Br	1.034516	0.349774	-0.498645
H42	H	0.764099	0.754868	-0.624600
Br43	Br	1.258244	1.224257	-0.685992
H44	H	0.972603	0.698849	-0.482067
H45	H	0.824780	0.491917	-0.404114
Br46	Br	1.209712	0.728326	-1.058817
H47	H	1.510530	1.129265	-0.465592
Br48	Br	0.996626	0.427590	-0.705627
Br49	Br	1.508494	0.467110	-0.929076
Br50	Br	0.953051	0.801990	-0.669645
H51	H	1.304748	0.645238	-1.190443
H52	H	1.256235	1.022948	-0.687625
H53	H	1.510519	0.465366	-1.130379
H54	H	0.826175	0.403028	-0.492982
H55	H	1.007528	0.492231	-0.403318
Br56	Br	0.955804	0.666322	-0.803219
H57	H	0.791039	0.697801	-0.480518
H58	H	0.787394	0.485879	-0.703170
H59	H	0.764121	0.630310	-0.754007
