data_functionalizedCrystal
_audit_creation_method	'MofGen! by Chris Wilmer'
_symmetry_space_group_name_H-M	'P1'
_symmetry_Int_Tables_number	1
_symmetry_cell_setting	triclinic
loop_
_symmetry_equiv_pos_as_xyz
  x,y,z
_cell_length_a	10.654545
_cell_length_b	10.723023
_cell_length_c	9.130313
_cell_angle_alpha	89.996488
_cell_angle_beta	89.996934
_cell_angle_gamma	84.475313
loop_
_atom_site_label
_atom_site_type_symbol
_atom_site_fract_x
_atom_site_fract_y
_atom_site_fract_z
O1	O	1.667816	0.175248	-0.121781
O2	O	1.302334	0.191953	-0.121787
O3	O	1.493506	0.002025	-0.121778
O4	O	1.476644	0.365176	-0.121790
O5	O	1.493493	0.002020	0.121821
O6	O	1.302321	0.191947	0.121812
O7	O	1.667803	0.175242	0.121818
Cu8	Cu	1.485061	0.183594	0.144057
Cu9	Cu	1.485076	0.183601	-0.144027
O10	O	1.476631	0.365170	0.121809
C11	C	1.255530	0.190725	0.000012
C12	C	1.116087	0.187059	0.000009
C13	C	1.050575	0.185330	0.132796
C14	C	0.919556	0.181864	0.132796
C15	C	0.919571	0.181862	-0.132789
C16	C	1.050589	0.185318	-0.132787
C17	C	1.492272	-0.044477	0.000020
C18	C	1.488602	-0.183032	0.000015
C19	C	1.486972	-0.244795	-0.126178
C20	C	1.483178	-0.387999	-0.126186
C21	C	1.714607	0.176471	0.000016
C22	C	1.854050	0.180137	0.000008
C23	C	1.477864	0.411673	0.000007
C24	C	1.481535	0.550227	0.000003
N25	N	1.485059	0.183589	0.346680
N26	N	1.485088	0.183597	-0.346649
C27	C	1.569738	0.099525	0.423336
C28	C	1.569751	0.099525	0.576672
C29	C	1.400399	0.267665	0.576684
C30	C	1.400382	0.267657	0.423350
H31	H	0.866227	0.180447	-0.240907
C32	C	1.380288	-0.191320	-0.352489
C33	C	1.488886	-0.173059	-0.272020
H34	H	1.381470	-0.147025	-0.442521
H35	H	1.377998	-0.278134	-0.371641
H36	H	1.307744	-0.161165	-0.297882
H37	H	1.561430	-0.203222	-0.326623
H38	H	1.491187	-0.086226	-0.252872
H39	H	1.482943	-0.396667	0.108047
C40	C	1.183619	0.338925	0.623948
C41	C	1.307331	0.360070	0.660972
H42	H	1.126164	0.395969	0.675991
H43	H	1.171494	0.350959	0.521670
H44	H	1.169294	0.255507	0.649098
H45	H	1.321659	0.443486	0.635811
H46	H	1.319460	0.348046	0.763272
H47	H	1.481783	-0.441114	-0.234225
C48	C	1.376922	-0.316514	0.153850
C49	C	1.486683	-0.254752	0.145868
H50	H	1.375741	-0.360791	0.243894
H51	H	1.305176	-0.256833	0.148405
H52	H	1.375423	-0.373819	0.074673
H53	H	1.488177	-0.197439	0.225039
H54	H	1.558448	-0.314439	0.151327
C55	C	1.737124	-0.066683	0.438731
C56	C	1.662802	0.007106	0.339058
H57	H	1.794570	-0.123746	0.386702
H58	H	1.782749	-0.014318	0.498514
H59	H	1.684454	-0.112045	0.498559
H60	H	1.715471	0.052476	0.279237
H61	H	1.617174	-0.045265	0.279250
C62	C	0.758991	0.285049	0.286855
C63	C	0.847539	0.179961	0.278755
H64	H	0.714526	0.283863	0.376964
H65	H	0.801142	0.359031	0.281343
H66	H	0.701239	0.283508	0.207762
H67	H	0.905297	0.181506	0.357843
H68	H	0.805386	0.105959	0.284282
H69	H	1.638703	0.031071	0.639081
H70	H	1.331420	0.336113	0.360933
H71	H	1.103900	0.186747	0.240928
H72	H	1.103930	0.186723	-0.240925
