data_functionalizedCrystal
_audit_creation_method	'MofGen! by Chris Wilmer'
_symmetry_space_group_name_H-M	'P1'
_symmetry_Int_Tables_number	1
_symmetry_cell_setting	triclinic
loop_
_symmetry_equiv_pos_as_xyz
  x,y,z
_cell_length_a	18.101398
_cell_length_b	18.101397
_cell_length_c	17.077396
_cell_angle_alpha	89.966723
_cell_angle_beta	89.977519
_cell_angle_gamma	90.015732
loop_
_atom_site_label
_atom_site_type_symbol
_atom_site_fract_x
_atom_site_fract_y
_atom_site_fract_z
Zn1	Zn	1.132162	-0.294911	-0.443939
Zn2	Zn	1.132085	-0.418763	-0.312665
Zn3	Zn	1.008325	-0.294930	-0.312674
Zn4	Zn	1.008295	-0.418705	-0.443877
O5	O	1.070217	-0.356828	-0.378289
O6	O	1.235785	-0.311357	-0.426547
O7	O	1.115648	-0.402369	-0.202820
O8	O	1.024797	-0.191295	-0.330117
O9	O	1.235728	-0.402351	-0.330101
O10	O	1.115780	-0.191281	-0.426556
O11	O	1.024723	-0.311389	-0.202826
O12	O	0.904688	-0.311333	-0.330056
O13	O	1.024746	-0.402252	-0.553732
O14	O	0.904666	-0.402270	-0.426450
O15	O	1.115751	-0.311301	-0.553778
O16	O	1.115619	-0.522389	-0.330041
O17	O	1.024671	-0.522346	-0.426441
C18	C	0.877806	-0.356797	-0.378248
C19	C	0.795492	-0.356802	-0.378249
C20	C	0.496401	-0.356849	-0.378315
C21	C	0.527716	-0.299347	-0.317962
C22	C	0.613334	-0.299502	-0.317705
C23	C	0.644784	-0.356825	-0.378282
C24	C	0.613681	-0.434838	-0.355675
C25	C	0.528036	-0.434518	-0.355256
C26	C	0.528010	-0.337016	-0.461416
C27	C	0.613660	-0.335278	-0.460963
C28	C	0.728643	-0.356817	-0.378265
C29	C	0.412542	-0.356862	-0.378330
C30	C	1.070154	-0.549238	-0.378251
C31	C	1.070194	-0.631552	-0.378261
C32	C	1.070289	-0.930643	-0.378332
C33	C	1.127351	-0.899314	-0.317517
C34	C	1.127549	-0.813695	-0.317675
C35	C	1.070242	-0.782261	-0.378296
C36	C	1.091395	-0.813266	-0.461040
C37	C	1.091837	-0.898911	-0.460708
C38	C	0.991921	-0.899147	-0.357120
C39	C	0.992308	-0.813497	-0.355273
C40	C	1.070214	-0.698401	-0.378281
C41	C	1.070318	-1.014503	-0.378353
C42	C	1.263379	-0.356858	-0.378330
C43	C	1.345693	-0.356871	-0.378348
C44	C	1.070253	-0.356768	-0.583033
C45	C	1.070269	-0.356742	-0.670283
C46	C	1.070301	-0.163666	-0.378344
C47	C	1.070336	-0.081352	-0.378368
C48	C	1.117681	-0.404029	-1.046097
C49	C	1.117663	-0.404051	-0.964116
C50	C	1.070317	-0.356690	-0.923132
C51	C	1.022981	-0.309309	-0.964133
C52	C	1.022997	-0.309292	-1.046112
C53	C	1.022953	-0.309348	-0.793263
C54	C	1.022939	-0.309364	-0.711278
C55	C	1.117620	-0.404106	-0.711267
C56	C	1.117635	-0.404089	-0.793246
C57	C	1.070300	-0.356707	-0.834241
C58	C	1.070223	-0.356834	-0.174341
C59	C	1.070351	-0.356651	-0.087092
H60	H	0.634052	-0.478828	-0.398257
Br61	Br	1.185802	-0.777428	-0.491497
H62	H	0.947505	-0.792106	-0.396323
Br63	Br	0.958734	-0.245023	-0.908513
Br64	Br	0.965716	-0.779731	-0.253783
Br65	Br	0.958724	-0.245032	-0.848898
H66	H	0.507134	-0.241321	-0.331977
Br67	Br	1.105436	-0.778756	-0.215430
H68	H	1.156161	-0.442686	-0.677885
H69	H	0.633792	-0.312613	-0.256128
Br70	Br	0.649340	-0.399998	-0.539932
H71	H	0.635101	-0.451948	-0.295580
Br72	Br	1.187312	-0.932122	-0.490655
H73	H	0.506427	-0.281119	-0.481970
H74	H	0.506171	-0.312311	-0.256744
Br75	Br	0.494685	-0.462550	-0.254000
H76	H	0.507321	-0.478812	-0.397296
H77	H	0.633993	-0.277870	-0.478009
H78	H	0.634363	-0.241652	-0.331876
Br79	Br	0.958762	-0.244988	-1.101749
Br80	Br	1.024236	-0.779338	-0.538596
H81	H	1.156240	-0.442592	-1.079460
H82	H	1.156195	-0.442640	-0.930742
H83	H	0.507760	-0.378897	-0.506385
H84	H	1.114277	-0.919959	-0.255981
Br85	Br	1.223580	-0.935098	-0.340638
H86	H	1.185600	-0.793156	-0.331711
Br87	Br	1.181894	-0.468361	-0.848867
Br88	Br	1.025564	-0.933453	-0.538797
H89	H	0.984388	-0.270796	-0.677911
H90	H	0.949405	-0.919407	-0.401414
Br91	Br	0.959843	-0.935252	-0.258299
