data_functionalizedCrystal
_audit_creation_method	'MofGen! by Chris Wilmer'
_symmetry_space_group_name_H-M	'P1'
_symmetry_Int_Tables_number	1
_symmetry_cell_setting	triclinic
loop_
_symmetry_equiv_pos_as_xyz
  x,y,z
_cell_length_a	17.077404
_cell_length_b	16.959454
_cell_length_c	17.077396
_cell_angle_alpha	89.976220
_cell_angle_beta	90.019501
_cell_angle_gamma	89.976840
loop_
_atom_site_label
_atom_site_type_symbol
_atom_site_fract_x
_atom_site_fract_y
_atom_site_fract_z
Zn1	Zn	1.200054	0.314677	0.443868
Zn2	Zn	1.700054	0.814677	0.943868
Zn3	Zn	1.199961	0.446865	0.312613
Zn4	Zn	1.699961	0.946865	0.812613
Zn5	Zn	1.068786	0.314705	0.312616
Zn6	Zn	1.568786	0.814705	0.812616
Zn7	Zn	1.068754	0.446818	0.443837
Zn8	Zn	1.568754	0.946818	0.943837
O9	O	1.134389	0.380766	0.378234
O10	O	1.634389	0.880766	0.878234
O11	O	1.309889	0.332220	0.426469
O12	O	1.809889	0.832220	0.926469
O13	O	1.182535	0.429365	0.202767
O14	O	1.682535	0.929365	0.702767
O15	O	1.086252	0.204090	0.330042
O16	O	1.586252	0.704090	0.830042
O17	O	1.309821	0.429338	0.330036
O18	O	1.809821	0.929338	0.830036
O19	O	1.182694	0.204070	0.426472
O20	O	1.682694	0.704070	0.926472
O21	O	1.086161	0.332267	0.202769
O22	O	1.586161	0.832267	0.702769
O23	O	0.958935	0.332222	0.330011
O24	O	1.458935	0.832222	0.830011
O25	O	1.086197	0.429258	0.553688
O26	O	1.586197	0.929258	1.053688
O27	O	0.958911	0.429285	0.426418
O28	O	1.458911	0.929285	0.926418
O29	O	1.182663	0.332174	0.553711
O30	O	1.682663	0.832174	1.053711
O31	O	1.182504	0.557469	0.330006
O32	O	1.682504	1.057469	0.830006
O33	O	1.086107	0.557435	0.426415
O34	O	1.586107	1.057435	0.926415
C35	C	0.930441	0.380752	0.378212
C36	C	1.430441	0.880752	0.878212
C37	C	0.843191	0.380764	0.378221
C38	C	1.343191	0.880764	0.878221
C39	C	0.802209	0.431381	0.428340
C40	C	1.302209	0.931381	0.928340
C41	C	0.720229	0.431383	0.428353
C42	C	1.220229	0.931383	0.928353
C43	C	0.679232	0.380771	0.378242
C44	C	1.179232	0.880771	0.878242
C45	C	0.720220	0.330149	0.328121
C46	C	1.220220	0.830149	0.828121
C47	C	0.802199	0.330144	0.328113
C48	C	1.302199	0.830144	0.828113
C49	C	0.549350	0.330164	0.328140
C50	C	1.049350	0.830164	0.828140
C51	C	0.467365	0.330170	0.328147
C52	C	0.967365	0.830170	0.828147
C53	C	0.467380	0.431404	0.428379
C54	C	0.967380	0.931404	0.928379
C55	C	0.549359	0.431399	0.428371
C56	C	1.049359	0.931399	0.928371
C57	C	0.590341	0.380777	0.378249
C58	C	1.090341	0.880777	0.878249
C59	C	1.134313	0.586132	0.378224
C60	C	1.634313	1.086132	0.878224
C61	C	1.134352	0.673989	0.378246
C62	C	1.634352	1.173989	0.878246
C63	C	1.084235	1.045476	0.428440
C64	C	1.584235	1.545476	0.928440
C65	C	1.184696	1.045452	0.328130
C66	C	1.684696	1.545452	0.828130
C67	C	1.184673	0.962906	0.328121
C68	C	1.684673	1.462906	0.828121
C69	C	1.134429	0.921642	0.378272
C70	C	1.634429	1.421642	0.878272
C71	C	1.084208	0.962923	0.428431
C72	C	1.584208	1.462923	0.928431
C73	C	1.234887	0.921619	0.277957
C74	C	1.734887	1.421619	0.777957
C75	C	1.234865	0.839068	0.277946
C76	C	1.734865	1.339068	0.777946
C77	C	1.184624	0.797802	0.328101
C78	C	1.684624	1.297802	0.828101
C79	C	1.134402	0.839088	0.378263
C80	C	1.634402	1.339088	0.878263
C81	C	1.084158	0.797823	0.428414
C82	C	1.584158	1.297823	0.928414
C83	C	1.033940	0.839108	0.478580
C84	C	1.533940	1.339108	0.978580
C85	C	1.033968	0.921657	0.478586
C86	C	1.533968	1.421657	0.978586
C87	C	1.184596	0.715254	0.328095
C88	C	1.684596	1.215254	0.828095
C89	C	1.084132	0.715270	0.428405
C90	C	1.584132	1.215270	0.928405
C91	C	1.339133	0.380781	0.378256
C92	C	1.839133	0.880781	0.878256
C93	C	1.426383	0.380787	0.378265
C94	C	1.926383	0.880787	0.878265
C95	C	1.134436	0.380708	0.582978
C96	C	1.634436	0.880708	1.082978
C97	C	1.134457	0.380683	0.670228
C98	C	1.634457	0.880683	1.170228
C99	C	1.134474	1.174598	0.378265
C100	C	1.634474	1.674598	0.878265
C101	C	1.134479	1.086741	0.378289
C102	C	1.634479	1.586741	0.878289
C103	C	1.134387	0.380767	0.174286
C104	C	1.634387	0.880767	0.674286
C105	C	1.134519	0.380569	0.087036
C106	C	1.634519	0.880569	0.587036
C107	C	1.184688	0.330127	0.711231
C108	C	1.684688	0.830127	1.211231
C109	C	1.184698	0.330101	0.793212
C110	C	1.684698	0.830101	1.293212
C111	C	1.134479	0.380635	0.834187
C112	C	1.634479	0.880635	1.334187
C113	C	1.084242	0.431193	0.793178
C114	C	1.584242	0.931193	1.293178
C115	C	1.084229	0.431214	0.711199
C116	C	1.584229	0.931214	1.211199
C117	C	1.084274	0.431145	0.964048
C118	C	1.584274	0.931145	1.464048
C119	C	1.084287	0.431125	1.046033
C120	C	1.584287	0.931125	1.546033
C121	C	1.184742	0.330032	1.046061
C122	C	1.684742	0.830032	1.546061
C123	C	1.184729	0.330053	0.964082
C124	C	1.684729	0.830053	1.464082
C125	C	1.134493	0.380613	0.923078
C126	C	1.634493	0.880613	1.423078
H127	H	0.835565	0.288922	0.287305
H128	H	1.335565	0.788922	0.787305
H129	H	1.043350	0.472335	0.826547
H130	H	1.543350	0.972335	1.326547
Cl131	Cl	1.021076	0.494770	0.659651
Cl132	Cl	1.521076	0.994770	1.159651
Cl133	Cl	1.247714	0.663356	0.265026
Cl134	Cl	1.747714	1.163356	0.765026
Cl135	Cl	1.021110	1.097374	0.491506
Cl136	Cl	1.521110	1.597374	0.991506
Cl137	Cl	1.247897	0.266473	1.097608
Cl138	Cl	1.747897	0.766473	1.597608
H139	H	1.225585	0.288979	0.677875
H140	H	1.725585	0.788979	1.177875
Cl141	Cl	1.247884	0.266577	0.844756
Cl142	Cl	1.747884	0.766577	1.344756
H143	H	0.835583	0.472598	0.469143
H144	H	1.335583	0.972598	0.969143
Cl145	Cl	1.247867	0.266529	0.912571
Cl146	Cl	1.747867	0.766529	1.412571
Cl147	Cl	0.668712	0.495019	0.491362
Cl148	Cl	1.168712	0.995019	0.991362
H149	H	0.433987	0.288948	0.287352
H150	H	0.933987	0.788948	0.787352
H151	H	1.275756	0.805459	0.237099
H152	H	1.775756	1.305459	0.737099
H153	H	1.043393	0.472272	1.079393
H154	H	1.543393	0.972272	1.579393
Cl155	Cl	0.600868	0.266524	0.265128
Cl156	Cl	1.100868	0.766524	0.765128
H157	H	1.043354	0.472303	0.930666
H158	H	1.543354	0.972303	1.430666
Cl159	Cl	0.415860	0.495031	0.491401
Cl160	Cl	0.915860	0.995031	0.991401
H161	H	0.582737	0.472616	0.469172
H162	H	1.082737	0.972616	0.969172
H163	H	0.686833	0.288936	0.287323
H164	H	1.186833	0.788936	0.787323
Cl165	Cl	0.970840	0.973562	0.541645
Cl166	Cl	1.470840	1.473562	1.041645
H167	H	1.043220	0.681677	0.469247
H168	H	1.543220	1.181677	0.969247
H169	H	0.993027	0.805501	0.519410
H170	H	1.493027	1.305501	1.019410
H171	H	1.225598	1.079055	0.287294
H172	H	1.725598	1.579055	0.787294
H173	H	1.275787	0.955223	0.237121
H174	H	1.775787	1.455223	0.737121
