data_functionalizedCrystal
_audit_creation_method	'MofGen! by Chris Wilmer'
_symmetry_space_group_name_H-M	'P1'
_symmetry_Int_Tables_number	1
_symmetry_cell_setting	triclinic
loop_
_symmetry_equiv_pos_as_xyz
  x,y,z
_cell_length_a	16.959455
_cell_length_b	16.959454
_cell_length_c	19.076919
_cell_angle_alpha	92.276329
_cell_angle_beta	87.718266
_cell_angle_gamma	89.977637
loop_
_atom_site_label
_atom_site_type_symbol
_atom_site_fract_x
_atom_site_fract_y
_atom_site_fract_z
Zn1	Zn	1.190424	0.332666	0.397963
Zn2	Zn	1.690424	0.832666	0.897963
Zn3	Zn	1.195646	0.459539	0.280278
Zn4	Zn	1.695646	0.959539	0.780278
Zn5	Zn	1.063559	0.327378	0.280283
Zn6	Zn	1.563559	0.827378	0.780283
Zn7	Zn	1.058212	0.464804	0.397936
Zn8	Zn	1.558212	0.964804	0.897936
O9	O	1.126960	0.396097	0.339115
O10	O	1.626960	0.896097	0.839115
O11	O	1.301727	0.349506	0.382361
O12	O	1.801727	0.849506	0.882361
O13	O	1.182548	0.437591	0.181790
O14	O	1.682548	0.937591	0.681790
O15	O	1.080440	0.217469	0.295906
O16	O	1.580440	0.717469	0.795906
O17	O	1.305564	0.442719	0.295899
O18	O	1.805564	0.942719	0.795899
O19	O	1.173647	0.221354	0.382365
O20	O	1.673647	0.721354	0.882365
O21	O	1.085504	0.340492	0.181793
O22	O	1.585504	0.840492	0.681793
O23	O	0.952239	0.345598	0.295880
O24	O	1.452239	0.845598	0.795880
O25	O	1.071327	0.451693	0.496429
O26	O	1.571327	0.951693	0.996429
O27	O	0.948311	0.446564	0.382319
O28	O	1.448311	0.946564	0.882319
O29	O	1.168463	0.354611	0.496448
O30	O	1.668463	0.854611	0.996448
O31	O	1.177363	0.570848	0.295873
O32	O	1.677363	1.070848	0.795873
O33	O	1.076391	0.574716	0.382315
O34	O	1.576391	1.074716	0.882315
C35	C	0.921595	0.396079	0.339098
C36	C	1.421595	0.896079	0.839098
C37	C	0.833738	0.396091	0.339107
C38	C	1.333738	0.896091	0.839107
C39	C	0.794462	0.444548	0.294026
C40	C	1.294462	0.944548	0.794026
C41	C	0.790459	0.347641	0.384193
C42	C	1.290459	0.847641	0.884193
C43	C	0.707913	0.347647	0.384202
C44	C	1.207913	0.847647	0.884202
C45	C	0.668638	0.396104	0.339121
C46	C	1.168638	0.896104	0.839121
C47	C	0.711909	0.444554	0.294031
C48	C	1.211909	0.944554	0.794031
C49	C	0.664636	0.299192	0.429285
C50	C	1.164636	0.799192	0.929285
C51	C	0.582085	0.299196	0.429295
C52	C	1.082085	0.799196	0.929295
C53	C	0.542808	0.347658	0.384217
C54	C	1.042808	0.847658	0.884217
C55	C	0.586084	0.396110	0.339126
C56	C	1.086084	0.896110	0.839126
C57	C	0.546808	0.444567	0.294045
C58	C	1.046808	0.944567	0.794045
C59	C	0.590083	0.493025	0.248958
C60	C	1.090083	0.993025	0.748958
C61	C	0.672632	0.493016	0.248954
C62	C	1.172632	0.993016	0.748954
C63	C	0.460259	0.347667	0.384221
C64	C	0.960259	0.847667	0.884221
C65	C	0.464255	0.444574	0.294051
C66	C	0.964255	0.944574	0.794051
C67	C	1.126884	0.601463	0.339106
C68	C	1.626884	1.101463	0.839106
C69	C	1.126923	0.689320	0.339126
C70	C	1.626923	1.189320	0.839126
C71	C	1.074424	1.062840	0.384130
C72	C	1.574424	1.562840	0.884130
C73	C	1.179646	1.058755	0.294191
C74	C	1.679646	1.558755	0.794191
C75	C	1.179623	0.976209	0.294183
C76	C	1.679623	1.476209	0.794183
C77	C	1.126999	0.936974	0.339149
C78	C	1.626999	1.436974	0.839149
C79	C	1.074397	0.980286	0.384123
C80	C	1.574397	1.480286	0.884123
C81	C	1.232218	0.932891	0.249205
C82	C	1.732218	1.432891	0.749205
C83	C	1.232196	0.850340	0.249195
C84	C	1.732196	1.350340	0.749195
C85	C	1.179575	0.811104	0.294165
C86	C	1.679575	1.311104	0.794165
C87	C	1.126972	0.854420	0.339141
C88	C	1.626972	1.354420	0.839141
C89	C	1.074348	0.815186	0.384107
C90	C	1.574348	1.315186	0.884107
C91	C	1.021748	0.858501	0.429087
C92	C	1.521748	1.358501	0.929087
C93	C	1.021776	0.941050	0.429093
C94	C	1.521776	1.441050	0.929093
C95	C	1.179547	0.728555	0.294160
C96	C	1.679547	1.228555	0.794160
C97	C	1.074321	0.732632	0.384099
C98	C	1.574321	1.232632	0.884099
C99	C	1.333128	0.396115	0.339133
C100	C	1.833128	0.896115	0.839133
C101	C	1.420984	0.396123	0.339140
C102	C	1.920984	0.896123	0.839140
C103	C	1.118716	0.404329	0.522690
C104	C	1.618716	0.904329	1.022690
C105	C	1.115202	0.407837	0.600919
C106	C	1.615202	0.907837	1.100919
C107	C	1.127045	1.189930	0.339143
C108	C	1.627045	1.689930	0.839143
C109	C	1.127048	1.102074	0.339164
C110	C	1.627048	1.602074	0.839164
C111	C	1.135218	0.387839	0.156254
C112	C	1.635218	0.887839	0.656254
C113	C	1.138884	0.384109	0.078026
C114	C	1.638884	0.884109	0.578026
C115	C	1.164123	0.358943	0.637682
C116	C	1.664123	0.858943	1.137682
C117	C	1.160812	0.362236	0.711186
C118	C	1.660812	0.862236	1.211186
C119	C	1.108584	0.414428	0.747926
C120	C	1.608584	0.914428	1.247926
C121	C	1.059659	0.463325	0.711157
C122	C	1.559659	0.963325	1.211157
C123	C	1.062966	0.460027	0.637654
C124	C	1.562966	0.960027	1.137654
C125	C	1.093266	0.429707	0.967754
C126	C	1.593266	0.929707	1.467754
C127	C	1.089964	0.433003	1.041262
C128	C	1.589964	0.933003	1.541262
C129	C	1.191117	0.331913	1.041286
C130	C	1.691117	0.831913	1.541286
C131	C	1.194423	0.328623	0.967782
C132	C	1.694423	0.828623	1.467782
C133	C	1.145494	0.377517	0.931020
C134	C	1.645494	0.877517	1.431020
N135	N	1.105201	0.417798	0.823059
N136	N	1.605201	0.917798	1.323059
N137	N	1.148874	0.374143	0.855888
N138	N	1.648874	0.874143	1.355888
H139	H	0.707873	0.532465	0.212244
H140	H	1.207873	1.032465	0.712244
H141	H	1.023122	0.499834	0.607722
H142	H	1.523122	0.999834	1.107722
H143	H	0.822442	0.308185	0.420893
H144	H	1.322442	0.808185	0.920893
N145	N	0.421895	0.496843	0.245431
N146	N	0.921895	0.996843	0.745431
H147	H	0.461837	0.527536	0.216870
H148	H	0.961837	1.027536	0.716870
H149	H	0.389112	0.463158	0.212906
H150	H	0.889112	0.963158	0.712906
H151	H	0.696620	0.259738	0.465985
H152	H	1.196620	0.759738	0.965985
N153	N	0.535413	0.246927	0.477915
N154	N	1.035413	0.746927	0.977915
H155	H	0.572821	0.216226	0.506469
H156	H	1.072821	0.716226	1.006469
H157	H	0.499697	0.280611	0.510446
H158	H	0.999697	0.780611	1.010446
N159	N	1.017688	1.109553	0.432636
N160	N	1.517688	1.609553	0.932636
H161	H	0.984347	1.072169	0.461118
H162	H	1.484347	1.572169	0.961118
H163	H	1.048378	1.145232	0.465239
H164	H	1.548378	1.645232	0.965239
N165	N	1.288937	0.803627	0.200693
N166	N	1.788937	1.303627	0.700693
H167	H	1.280939	0.745379	0.207512
H168	H	1.780939	1.245379	0.707512
H169	H	1.278946	0.815820	0.150417
H170	H	1.778946	1.315820	0.650417
N171	N	0.413584	0.295403	0.432839
N172	N	0.913584	0.795403	0.932839
H173	H	0.450991	0.264701	0.461393
H174	H	0.950991	0.764701	0.961393
H175	H	0.377870	0.329089	0.465369
H176	H	0.877870	0.829089	0.965369
N177	N	1.017565	0.690316	0.432602
N178	N	1.517565	1.190316	0.932602
H179	H	0.984250	0.730284	0.461095
H180	H	1.484250	1.230284	0.961095
H181	H	0.982286	0.654816	0.403920
H182	H	1.482286	1.154816	0.903920
H183	H	0.558094	0.532475	0.212250
H184	H	1.058094	1.032475	0.712250
H185	H	0.978897	0.826546	0.465696
H186	H	1.478897	1.326546	0.965696
N187	N	1.003330	0.519612	0.750792
N188	N	1.503330	1.019612	1.250792
H189	H	1.016150	0.575517	0.737998
H190	H	1.516150	1.075517	1.237998
H191	H	0.947457	0.506687	0.737983
H192	H	1.447457	1.006687	1.237983
N193	N	0.841129	0.496812	0.245398
N194	N	1.341129	0.996812	0.745398
H195	H	0.899384	0.489459	0.252233
H196	H	1.399384	0.989459	0.752233
H197	H	0.828950	0.482170	0.195152
H198	H	1.328950	0.982170	0.695152
H199	H	1.053437	0.469532	0.937831
H200	H	1.553437	0.969532	1.437831
H201	H	0.978951	0.976324	0.465712
H202	H	1.478951	1.476324	0.965712
N203	N	1.236391	1.101067	0.245682
N204	N	1.736391	1.601067	0.745682
H205	H	1.228421	1.159934	0.252508
H206	H	1.728421	1.659934	0.752508
H207	H	1.292338	1.087096	0.256675
H208	H	1.792338	1.587096	0.756675
N209	N	1.288958	0.975217	0.200703
N210	N	1.788958	1.475217	0.700703
H211	H	1.324287	1.010719	0.229336
H212	H	1.824287	1.510719	0.729336
H213	H	1.322221	0.935211	0.172210
H214	H	1.822221	1.435211	0.672210
N215	N	1.236278	0.681839	0.245656
N216	N	1.736278	1.181839	0.745656
H217	H	1.228280	0.623591	0.252476
H218	H	1.728280	1.123591	0.752476
H219	H	1.226282	0.694032	0.195382
H220	H	1.726282	1.194032	0.695382
N221	N	1.220459	0.302654	0.598058
N222	N	1.720459	0.802654	1.098058
H223	H	1.250946	0.272179	0.632504
H224	H	1.750946	0.772179	1.132504
H225	H	1.189676	0.264703	0.567561
H226	H	1.689676	0.764703	1.067561
N227	N	1.033633	0.489301	1.080891
N228	N	1.533633	0.989301	1.580891
H229	H	1.003138	0.519775	1.046450
H230	H	1.503138	1.019775	1.546450
H231	H	0.995702	0.458490	1.111390
H232	H	1.495702	0.958490	1.611390
N233	N	1.213560	0.309485	0.750839
N234	N	1.713560	0.809485	1.250839
H235	H	1.247146	0.275920	0.716412
H236	H	1.747146	0.775920	1.216412
H237	H	1.248754	0.343018	0.781346
H238	H	1.748754	0.843018	1.281346
N239	N	1.250756	0.272333	0.928157
N240	N	1.750756	0.772333	1.428157
H241	H	1.281246	0.241857	0.962601
H242	H	1.781246	0.741857	1.462601
H243	H	1.219973	0.234382	0.897659
H244	H	1.719973	0.734382	1.397659
N245	N	1.243885	0.279179	1.080936
N246	N	1.743885	0.779179	1.580936
H247	H	1.233867	0.289185	1.133075
H248	H	1.733867	0.789185	1.633075
H249	H	1.232186	0.222150	1.068093
H250	H	1.732186	0.722150	1.568093
