data_functionalizedCrystal
_audit_creation_method	'MofGen! by Chris Wilmer'
_symmetry_space_group_name_H-M	'P1'
_symmetry_Int_Tables_number	1
_symmetry_cell_setting	triclinic
loop_
_symmetry_equiv_pos_as_xyz
  x,y,z
_cell_length_a	27.435584
_cell_length_b	27.434948
_cell_length_c	27.431174
_cell_angle_alpha	60.005483
_cell_angle_beta	60.011353
_cell_angle_gamma	59.993028
loop_
_atom_site_label
_atom_site_type_symbol
_atom_site_fract_x
_atom_site_fract_y
_atom_site_fract_z
O1	O	0.067437	-0.712144	0.595551
O2	O	0.567437	-0.212144	1.095551
O3	O	0.025356	-0.554453	0.479848
O4	O	0.525356	-0.054453	0.979848
O5	O	0.125206	-0.654236	0.479781
O6	O	0.625206	-0.154236	0.979781
O7	O	-0.032412	-0.612361	0.595618
O8	O	0.467588	-0.112361	1.095618
O9	O	0.158328	-0.621117	0.512835
O10	O	0.658328	-0.121117	1.012835
O11	O	0.058479	-0.521333	0.512902
O12	O	0.558479	-0.021333	1.012902
O13	O	0.100560	-0.679025	0.628605
O14	O	0.600560	-0.179025	1.128605
Zn15	Zn	0.084778	-0.594921	0.576001
Zn16	Zn	0.584778	-0.094921	1.076001
Zn17	Zn	0.041138	-0.638557	0.532452
Zn18	Zn	0.541138	-0.138557	1.032452
O19	O	0.000710	-0.579241	0.628672
O20	O	0.500710	-0.079241	1.128672
N21	N	0.114563	-0.565144	0.605726
N22	N	0.614563	-0.065144	1.105726
N23	N	0.011358	-0.668338	0.502727
N24	N	0.511358	-0.168338	1.002727
C25	C	0.156385	-0.523520	0.904506
C26	C	0.656385	-0.023520	1.404506
C27	C	0.413419	-0.523497	0.647322
C28	C	0.913419	-0.023497	1.147322
C29	C	0.156253	-0.523488	0.647384
C30	C	0.656253	-0.023488	1.147384
C31	C	0.156238	-0.266354	0.647407
C32	C	0.656238	0.233646	1.147407
C33	C	0.197637	-0.390463	0.688753
C34	C	0.697637	0.109537	1.188753
C35	C	0.197646	-0.482126	0.688741
C36	C	0.697646	0.017874	1.188741
C37	C	0.220575	-0.459215	0.711654
C38	C	0.720575	0.040785	1.211654
C39	C	0.320555	-0.441991	0.659023
C40	C	0.820555	0.058009	1.159023
C41	C	0.383051	-0.462825	0.638179
C42	C	0.883051	0.037175	1.138179
C43	C	0.383069	-0.563942	0.676737
C44	C	0.883069	-0.063942	1.176737
C45	C	0.320575	-0.543107	0.697583
C46	C	0.820575	-0.043107	1.197583
C47	C	0.212704	-0.359206	0.627313
C48	C	0.712704	0.140794	1.127313
C49	C	0.191849	-0.296705	0.606496
C50	C	0.691849	0.203295	1.106496
C51	C	0.140866	-0.296722	0.708562
C52	C	0.640866	0.203278	1.208562
C53	C	0.161721	-0.359223	0.729379
C54	C	0.661721	0.140777	1.229379
C55	C	0.136200	-0.467030	0.703858
C56	C	0.636200	0.032970	1.203858
C57	C	0.115361	-0.487857	0.683021
C58	C	0.615361	0.012143	1.183021
C59	C	0.217408	-0.538877	0.631968
C60	C	0.717408	-0.038877	1.131968
C61	C	0.238249	-0.518050	0.652796
C62	C	0.738249	-0.018050	1.152796
C63	C	0.136259	-0.467047	0.811668
C64	C	0.636259	0.032953	1.311668
C65	C	0.115461	-0.487892	0.874167
C66	C	0.615461	0.012108	1.374167
C67	C	0.217537	-0.538923	0.874131
C68	C	0.717537	-0.038923	1.374131
C69	C	0.238333	-0.518080	0.811631
C70	C	0.738333	-0.018080	1.311631
C71	C	0.197693	-0.482140	0.780401
C72	C	0.697693	0.017860	1.280401
C73	C	0.289320	-0.482131	0.688723
C74	C	0.789320	0.017869	1.188723
C75	C	0.132699	-0.546027	0.973247
C76	C	0.632699	-0.046027	1.473247
C77	C	0.482158	-0.545613	0.624075
C78	C	0.982158	-0.045613	1.124075
C79	C	0.132521	-0.546006	0.624886
C80	C	0.632521	-0.046006	1.124886
C81	C	0.132917	-0.197607	0.625310
C82	C	0.632917	0.302393	1.125310
C83	C	-0.098217	-0.686189	0.484419
C84	C	0.401783	-0.186189	0.984419
C85	C	-0.006438	-0.686322	0.392891
C86	C	0.493562	-0.186322	0.892891
C87	C	-0.006621	-0.777944	0.484592
C88	C	0.493379	-0.277944	0.984592
C89	C	-0.006606	-0.686315	0.484649
C90	C	0.493394	-0.186315	0.984649
C91	C	-0.029470	-0.709193	0.461638
C92	C	0.470530	-0.209193	0.961638
N93	N	0.538410	-0.565162	0.605628
N94	N	1.038410	-0.065162	1.105628
O95	O	0.742647	-0.575135	0.458625
O96	O	1.242647	-0.075135	0.958625
O97	O	0.742821	-0.691181	0.616169
O98	O	1.242821	-0.191181	1.116169
O99	O	0.742757	-0.690917	0.516248
O100	O	1.242757	-0.190917	1.016248
O101	O	0.742711	-0.575399	0.558546
O102	O	1.242711	-0.075399	1.058546
O103	O	0.643472	-0.657878	0.549405
O104	O	1.143472	-0.157878	1.049405
O105	O	0.643536	-0.658142	0.649326
O106	O	1.143536	-0.158142	1.149326
O107	O	0.643362	-0.542096	0.491782
O108	O	1.143362	-0.042096	0.991782
Zn109	Zn	0.627685	-0.594873	0.575818
Zn110	Zn	1.127685	-0.094873	1.075818
Zn111	Zn	0.758498	-0.638404	0.532133
Zn112	Zn	1.258498	-0.138404	1.032133
O113	O	0.643426	-0.542360	0.591702
O114	O	1.143426	-0.042360	1.091702
N115	N	0.847774	-0.668115	0.502317
N116	N	1.347774	-0.168115	1.002317
N117	N	0.114542	-0.141354	0.605766
N118	N	0.614542	0.358646	1.105766
O119	O	-0.032397	0.062987	0.595660
O120	O	0.467603	0.562987	1.095660
O121	O	0.125155	0.062987	0.479633
O122	O	0.625155	0.562987	0.979633
O123	O	0.025219	0.062974	0.479910
O124	O	0.525219	0.562974	0.979910
O125	O	0.067539	0.063001	0.595383
O126	O	0.567539	0.563001	1.095383
O127	O	0.058343	-0.036320	0.513009
O128	O	0.558343	0.463680	1.013009
O129	O	0.158279	-0.036306	0.512732
O130	O	0.658279	0.463694	1.012732
O131	O	0.000728	-0.036306	0.628759
O132	O	0.500728	0.463694	1.128759
Zn133	Zn	0.084763	-0.052071	0.576000
Zn134	Zn	0.584763	0.447929	1.076000
Zn135	Zn	0.041120	0.078752	0.532392
Zn136	Zn	0.541120	0.578752	1.032392
O137	O	0.100664	-0.036292	0.628482
O138	O	0.600664	0.463708	1.128482
N139	N	0.011333	0.168036	0.502628
N140	N	0.511333	0.668036	1.002628
N141	N	0.114782	-0.565197	1.029501
N142	N	0.614782	-0.065197	1.529501
O143	O	0.104681	-0.712124	1.233827
O144	O	0.604681	-0.212124	1.733827
O145	O	-0.011334	-0.554523	1.233839
O146	O	0.488666	-0.054523	1.733839
O147	O	-0.011066	-0.654443	1.233797
O148	O	0.488934	-0.154443	1.733797
O149	O	0.104414	-0.612204	1.233869
O150	O	0.604414	-0.112204	1.733869
O151	O	0.022028	-0.621336	1.134509
O152	O	0.522028	-0.121336	1.634509
O153	O	0.021760	-0.521417	1.134551
O154	O	0.521760	-0.021417	1.634551
O155	O	0.137775	-0.679018	1.134539
O156	O	0.637775	-0.179018	1.634539
Zn157	Zn	0.085022	-0.594961	1.118780
Zn158	Zn	0.585022	-0.094961	1.618780
Zn159	Zn	0.041420	-0.638580	1.249597
Zn160	Zn	0.541420	-0.138580	1.749597
O161	O	0.137508	-0.579098	1.134580
O162	O	0.637508	-0.079098	1.634580
N163	N	0.011658	-0.668350	1.338876
N164	N	0.511658	-0.168350	1.838876
C165	C	0.037974	-0.518023	0.480435
C166	C	0.537974	-0.018023	0.980435
C167	C	0.161625	-0.641592	0.480351
C168	C	0.661625	-0.141592	0.980351
C169	C	0.087941	-0.715455	0.628017
C170	C	0.587941	-0.215455	1.128017
C171	C	-0.035710	-0.591885	0.628101
C172	C	0.464290	-0.091885	1.128101
C173	C	0.693199	-0.690642	0.652596
C174	C	1.193199	-0.190642	1.152596
C175	C	0.693122	-0.690315	0.528855
C176	C	1.193122	-0.190315	1.028855
C177	C	0.692981	-0.542634	0.455356
C178	C	1.192981	-0.042634	0.955356
C179	C	0.693062	-0.542961	0.579095
C180	C	1.193062	-0.042961	1.079095
C181	C	0.161524	0.013463	0.480164
C182	C	0.661524	0.513463	0.980164
C183	C	0.037807	0.013324	0.480547
C184	C	0.537807	0.513324	0.980547
C185	C	-0.035683	0.013341	0.628188
C186	C	0.464317	0.513341	1.128188
C187	C	0.088076	0.013357	0.627845
C188	C	0.588076	0.513357	1.127845
C189	C	-0.010764	-0.518114	1.184196
C190	C	0.489236	-0.018114	1.684196
C191	C	-0.010426	-0.641846	1.184125
C192	C	0.489574	-0.141846	1.684125
C193	C	0.137205	-0.715426	1.184182
C194	C	0.637205	-0.215426	1.684182
C195	C	0.136875	-0.591687	1.184231
C196	C	0.636875	-0.091687	1.684231
H197	H	0.103160	-0.437777	0.786243
H198	H	0.603160	0.062223	1.286243
C199	C	0.025838	-0.456830	0.431340
C200	C	0.525838	0.043170	0.931340
C201	C	-0.035359	-0.407735	0.443452
C202	C	0.464641	0.092265	0.943452
C203	C	-0.047495	-0.346543	0.394356
C204	C	0.452505	0.153457	0.894356
C205	C	0.001565	-0.334446	0.333149
C206	C	0.501565	0.165554	0.833149
C207	C	0.062765	-0.383542	0.321034
C208	C	0.562765	0.116458	0.821034
C209	C	0.074902	-0.444734	0.370130
C210	C	0.574902	0.055266	0.870130
H211	H	-0.071680	-0.416689	0.488764
H212	H	0.428320	0.083311	0.988764
H213	H	-0.092800	-0.310199	0.403325
H214	H	0.407200	0.189801	0.903325
H215	H	-0.007419	-0.289147	0.296806
H216	H	0.492581	0.210853	0.796806
H217	H	0.099086	-0.374588	0.275722
H218	H	0.599086	0.125412	0.775722
H219	H	0.120207	-0.481079	0.361161
H220	H	0.620207	0.018921	0.861161
C221	C	-0.059973	-0.456968	1.184199
C222	C	0.440027	0.043032	1.684199
C223	C	-0.049128	-0.399893	1.132656
C224	C	0.450872	0.100107	1.632656
C225	C	-0.098337	-0.338747	1.132659
C226	C	0.401663	0.161253	1.632659
C227	C	-0.158391	-0.334676	1.184206
C228	C	0.341609	0.165324	1.684206
C229	C	-0.169238	-0.391753	1.235754
C230	C	0.330762	0.108247	1.735754
C231	C	-0.120029	-0.452899	1.235750
C232	C	0.379971	0.047101	1.735750
H233	H	-0.004671	-0.402905	1.094494
H234	H	0.495329	0.097095	1.594494
H235	H	-0.090307	-0.296495	1.094500
H236	H	0.409693	0.203505	1.594500
H237	H	-0.194818	-0.289412	1.184209
H238	H	0.305182	0.210588	1.684209
H239	H	-0.213695	-0.388741	1.273915
H240	H	0.286305	0.111259	1.773915
H241	H	-0.128059	-0.495151	1.273910
H242	H	0.371941	0.004849	1.773910
H243	H	-0.080982	-0.582959	0.664476
H244	H	0.419018	-0.082959	1.164476
C245	C	0.693143	-0.739343	0.516632
C246	C	1.193143	-0.239343	1.016632
C247	C	0.693212	-0.800593	0.565629
C248	C	1.193212	-0.300593	1.065629
C249	C	0.693234	-0.849621	0.553405
C250	C	1.193234	-0.349621	1.053405
C251	C	0.693186	-0.837399	0.492185
C252	C	1.193186	-0.337399	0.992185
C253	C	0.693117	-0.776146	0.443183
C254	C	1.193117	-0.276146	0.943183
C255	C	0.693096	-0.727118	0.455407
C256	C	1.193096	-0.227118	0.955407
H257	H	0.693247	-0.809643	0.610952
H258	H	1.193247	-0.309643	1.110952
H259	H	0.693285	-0.894964	0.589679
H260	H	1.193285	-0.394964	1.089679
H261	H	0.693202	-0.873692	0.483136
H262	H	1.193202	-0.373692	0.983136
H263	H	0.693082	-0.767096	0.397861
H264	H	1.193082	-0.267096	0.897861
H265	H	0.693045	-0.681775	0.419133
H266	H	1.193045	-0.181775	0.919133
C267	C	-0.059418	-0.654026	1.184037
C268	C	0.440582	-0.154026	1.684037
C269	C	-0.120641	-0.604988	1.184000
C270	C	0.379359	-0.104988	1.684000
C271	C	-0.169633	-0.617167	1.183912
C272	C	0.330367	-0.117167	1.683912
C273	C	-0.157403	-0.678384	1.183863
C274	C	0.342597	-0.178384	1.683863
C275	C	-0.096178	-0.727425	1.183900
C276	C	0.403822	-0.227425	1.683900
C277	C	-0.047185	-0.715246	1.183988
C278	C	0.452815	-0.215246	1.683988
H279	H	-0.129697	-0.559669	1.184036
H280	H	0.370303	-0.059669	1.684036
H281	H	-0.214957	-0.580863	1.183884
H282	H	0.285043	-0.080863	1.683884
H283	H	-0.193670	-0.687400	1.183798
H284	H	0.306330	-0.187400	1.683798
H285	H	-0.087122	-0.772745	1.183864
H286	H	0.412878	-0.272745	1.683864
H287	H	-0.001862	-0.751550	1.184016
H288	H	0.498138	-0.251550	1.684016
H289	H	0.206679	0.013739	0.443646
H290	H	0.706679	0.513739	0.943646
C291	C	0.692908	-0.493410	0.394235
C292	C	1.192908	0.006590	0.894235
C293	C	0.692861	-0.432258	0.382314
C294	C	1.192861	0.067742	0.882314
C295	C	0.692788	-0.383034	0.321193
C296	C	1.192788	0.116966	0.821193
C297	C	0.692763	-0.394964	0.271993
C298	C	1.192763	0.105036	0.771993
C299	C	0.692810	-0.456119	0.283913
C300	C	1.192810	0.043881	0.783913
C301	C	0.692883	-0.505343	0.345034
C302	C	1.192883	-0.005343	0.845034
H303	H	0.692880	-0.423424	0.418737
H304	H	1.192880	0.076576	0.918737
H305	H	0.692753	-0.337763	0.312370
H306	H	1.192753	0.162237	0.812370
H307	H	0.692709	-0.358526	0.226748
H308	H	1.192709	0.141474	0.726748
H309	H	0.692792	-0.464953	0.247490
H310	H	1.192792	0.035047	0.747490
H311	H	0.692919	-0.550614	0.353857
H312	H	1.192919	-0.050614	0.853857
C313	C	0.693262	-0.739862	0.713720
C314	C	1.193262	-0.239862	1.213720
C315	C	0.693282	-0.727931	0.762922
C316	C	1.193282	-0.227931	1.262922
C317	C	0.693346	-0.777151	0.824046
C318	C	1.193346	-0.277151	1.324046
C319	C	0.693388	-0.838302	0.835968
C320	C	1.193388	-0.338302	1.335968
C321	C	0.693368	-0.850236	0.786765
C322	C	1.193368	-0.350236	1.286765
C323	C	0.693305	-0.801016	0.725641
C324	C	1.193305	-0.301016	1.225641
H325	H	0.693251	-0.682661	0.754097
H326	H	1.193251	-0.182661	1.254097
H327	H	0.693361	-0.768316	0.860469
H328	H	1.193361	-0.268316	1.360469
H329	H	0.693435	-0.874738	0.881216
H330	H	1.193435	-0.374738	1.381216
H331	H	0.693400	-0.895506	0.795590
H332	H	1.193400	-0.395506	1.295590
H333	H	0.693290	-0.809851	0.689218
H334	H	1.193290	-0.309851	1.189218
H335	H	0.097136	0.013366	0.664120
H336	H	0.597136	0.513366	1.164120
H337	H	-0.080930	0.013340	0.664614
H338	H	0.419070	0.513340	1.164614
H339	H	0.206895	-0.650521	0.443974
H340	H	0.706895	-0.150521	0.943974
H341	H	0.096930	-0.760753	0.664356
H342	H	0.596930	-0.260753	1.164356
C343	C	0.185890	-0.579485	1.184250
C344	C	0.685890	-0.079485	1.684250
C345	C	0.174854	-0.563011	1.235821
C346	C	0.674854	-0.063011	1.735821
C347	C	0.223869	-0.550809	1.235840
C348	C	0.723869	-0.050809	1.735840
C349	C	0.283920	-0.555081	1.184289
C350	C	0.783920	-0.055081	1.684289
C351	C	0.294959	-0.571557	1.132715
C352	C	0.794959	-0.071557	1.632715
C353	C	0.245944	-0.583758	1.132695
C354	C	0.745944	-0.083758	1.632695
H355	H	0.130398	-0.559847	1.273985
H356	H	0.630398	-0.059847	1.773985
H357	H	0.215698	-0.538613	1.274019
H358	H	0.715698	-0.038613	1.774019
H359	H	0.320204	-0.546049	1.184304
H360	H	0.820204	-0.046049	1.684304
H361	H	0.339415	-0.574720	1.094550
H362	H	0.839415	-0.074720	1.594550
H363	H	0.254115	-0.595955	1.094516
H364	H	0.754115	-0.095955	1.594516
H365	H	0.173631	-0.760687	1.184171
H366	H	0.673631	-0.260687	1.684171
H367	H	0.065433	-0.475593	0.899616
H368	H	0.565433	0.024407	1.399616
H369	H	0.250633	-0.568176	0.899553
H370	H	0.750633	-0.068176	1.399553
C371	C	0.693042	-0.493934	0.591318
C372	C	1.193042	0.006066	1.091318
C373	C	0.692974	-0.432685	0.542321
C374	C	1.192974	0.067315	1.042321
C375	C	0.692955	-0.383657	0.554544
C376	C	1.192955	0.116343	1.054544
C377	C	0.693003	-0.395880	0.615764
C378	C	1.193003	0.104120	1.115764
C379	C	0.693071	-0.457132	0.664766
C380	C	1.193071	0.042868	1.164766
C381	C	0.693091	-0.506160	0.652543
C382	C	1.193091	-0.006160	1.152543
H383	H	0.692939	-0.423634	0.496998
H384	H	1.192939	0.076366	0.996998
H385	H	0.692904	-0.338314	0.518270
H386	H	1.192904	0.161686	1.018270
H387	H	0.692988	-0.359587	0.624812
H388	H	1.192988	0.140413	1.124812
H389	H	0.693107	-0.466183	0.710088
H390	H	1.193107	0.033817	1.210088
H391	H	0.693141	-0.551503	0.688817
H392	H	1.193141	-0.051503	1.188817
C393	C	0.025574	0.013314	0.431537
C394	C	0.525574	0.513314	0.931537
C395	C	0.009101	-0.038251	0.442583
C396	C	0.509101	0.461749	0.942583
C397	C	-0.003132	-0.038261	0.393573
C398	C	0.496868	0.461739	0.893573
C399	C	0.001107	0.013295	0.333516
C400	C	0.501107	0.513295	0.833516
C401	C	0.017580	0.064864	0.322467
C402	C	0.517580	0.564864	0.822467
C403	C	0.029814	0.064874	0.371477
C404	C	0.529814	0.564874	0.871477
H405	H	0.005963	-0.076419	0.487044
H406	H	0.505963	0.423581	0.987044
H407	H	-0.015326	-0.076436	0.401753
H408	H	0.484674	0.423564	0.901753
H409	H	-0.007949	0.013288	0.297235
H410	H	0.492051	0.513288	0.797235
H411	H	0.020719	0.103032	0.278006
H412	H	0.520719	0.603032	0.778006
H413	H	0.042008	0.103049	0.363297
H414	H	0.542008	0.603049	0.863297
C415	C	0.305916	-0.534683	0.777238
C416	C	0.805916	-0.034683	1.277238
C417	C	0.334248	-0.485276	0.734272
C418	C	0.834248	0.014724	1.234272
C419	C	0.401829	-0.501880	0.699880
C420	C	0.901829	-0.001880	1.199880
C421	C	0.441078	-0.567891	0.708455
C422	C	0.941078	-0.067891	1.208455
C423	C	0.412746	-0.617303	0.751424
C424	C	0.912746	-0.117303	1.251424
C425	C	0.345165	-0.600699	0.785815
C426	C	0.845165	-0.100699	1.285815
H427	H	0.305193	-0.436407	0.727922
H428	H	0.805193	0.063593	1.227922
H429	H	0.422802	-0.465302	0.668071
H430	H	0.922802	0.034698	1.168071
H431	H	0.491106	-0.580183	0.682996
H432	H	0.991106	-0.080183	1.182996
H433	H	0.441801	-0.666173	0.757773
H434	H	0.941801	-0.166173	1.257773
H435	H	0.324192	-0.637277	0.817624
H436	H	0.824192	-0.137277	1.317624
H437	H	0.065328	-0.475552	0.695316
H438	H	0.565328	0.024448	1.195316
C439	C	0.091538	-0.427513	0.743394
C440	C	0.591538	0.072487	1.243394
C441	C	0.091812	-0.364077	0.722651
C442	C	0.591812	0.135923	1.222651
C443	C	0.047149	-0.324561	0.762191
C444	C	0.547149	0.175439	1.262191
C445	C	0.002212	-0.348481	0.822475
C446	C	0.502212	0.151519	1.322475
C447	C	0.001937	-0.411921	0.843222
C448	C	0.501937	0.088079	1.343222
C449	C	0.046599	-0.451437	0.803682
C450	C	0.546599	0.048563	1.303682
H451	H	0.125078	-0.346366	0.678022
H452	H	0.625078	0.153634	1.178022
H453	H	0.047353	-0.277599	0.746833
H454	H	0.547353	0.222401	1.246833
H455	H	-0.030849	-0.319229	0.851746
H456	H	0.469151	0.180771	1.351746
H457	H	-0.031329	-0.429631	0.887851
H458	H	0.468671	0.070369	1.387851
H459	H	0.046395	-0.498399	0.819040
H460	H	0.546395	0.001601	1.319040
C461	C	0.262077	-0.578392	0.592429
C462	C	0.762077	-0.078392	1.092429
C463	C	0.307065	-0.638675	0.616321
C464	C	0.807065	-0.138675	1.116321
C465	C	0.351737	-0.678188	0.576779
C466	C	0.851737	-0.178188	1.076779
C467	C	0.351421	-0.657416	0.513344
C468	C	0.851421	-0.157416	1.013344
C469	C	0.306431	-0.597130	0.489449
C470	C	0.806431	-0.097130	0.989449
C471	C	0.261759	-0.557618	0.528992
C472	C	0.761759	-0.057618	1.028992
H473	H	0.307300	-0.654054	0.663282
H474	H	0.807300	-0.154054	1.163282
H475	H	0.385041	-0.722816	0.594468
H476	H	0.885041	-0.222816	1.094468
H477	H	0.384490	-0.686666	0.484072
H478	H	0.884490	-0.186666	0.984072
H479	H	0.306196	-0.581751	0.442488
H480	H	0.806196	-0.081751	0.942488
H481	H	0.228455	-0.512989	0.511303
H482	H	0.728455	-0.012989	1.011303
C483	C	0.305832	-0.534614	0.636179
C484	C	0.805832	-0.034614	1.136179
C485	C	0.345131	-0.600610	0.654337
C486	C	0.845131	-0.100610	1.154337
C487	C	0.412709	-0.617156	0.637724
C488	C	0.912709	-0.117156	1.137724
C489	C	0.440988	-0.567708	0.602953
C490	C	0.940988	-0.067708	1.102953
C491	C	0.401689	-0.501708	0.584793
C492	C	0.901689	-0.001708	1.084793
C493	C	0.334111	-0.485161	0.601406
C494	C	0.834111	0.014839	1.101406
H495	H	0.324197	-0.637218	0.680079
H496	H	0.824197	-0.137218	1.180079
H497	H	0.441800	-0.666014	0.651167
H498	H	0.941800	-0.166014	1.151167
H499	H	0.491013	-0.579957	0.590654
H500	H	0.991013	-0.079957	1.090654
H501	H	0.422623	-0.465099	0.559051
H502	H	0.922623	0.034901	1.059051
H503	H	0.305020	-0.436304	0.587963
H504	H	0.805020	0.063696	1.087963
H505	H	0.295144	-0.575796	0.721768
H506	H	0.795144	-0.075796	1.221768
H507	H	0.408481	-0.430137	0.613993
H508	H	0.908481	0.069863	1.113993
C509	C	0.417455	-0.631016	0.686474
C510	C	0.917455	-0.131016	1.186474
C511	C	0.486198	-0.653934	0.663541
C512	C	0.986198	-0.153934	1.163541
C513	C	0.520583	-0.721007	0.673277
C514	C	1.020583	-0.221007	1.173277
C515	C	0.486226	-0.765162	0.705945
C516	C	0.986226	-0.265162	1.205945
C517	C	0.417479	-0.742246	0.728880
C518	C	0.917479	-0.242246	1.228880
C519	C	0.383094	-0.675173	0.719144
C520	C	0.883094	-0.175173	1.219144
H521	H	0.511635	-0.621246	0.639356
H522	H	1.011635	-0.121246	1.139356
H523	H	0.571474	-0.737971	0.656299
H524	H	1.071474	-0.237971	1.156299
H525	H	0.511680	-0.814814	0.713152
H526	H	1.011680	-0.314814	1.213152
H527	H	0.392043	-0.774933	0.753065
H528	H	0.892043	-0.274933	1.253065
H529	H	0.332204	-0.658209	0.736122
H530	H	0.832204	-0.158209	1.236122
C531	C	0.286176	-0.374917	0.649279
C532	C	0.786176	0.125083	1.149279
C533	C	0.294740	-0.329474	0.585504
C534	C	0.794740	0.170526	1.085504
C535	C	0.260359	-0.262399	0.575759
C536	C	0.760359	0.237601	1.075759
C537	C	0.217414	-0.240768	0.629789
C538	C	0.717414	0.259232	1.129789
C539	C	0.208848	-0.286212	0.693567
C540	C	0.708848	0.213788	1.193567
C541	C	0.243229	-0.353287	0.703312
C542	C	0.743229	0.146713	1.203312
H543	H	0.326532	-0.345486	0.545505
H544	H	0.826532	0.154514	1.045505
H545	H	0.266701	-0.228758	0.528546
H546	H	0.766701	0.271242	1.028546
H547	H	0.191963	-0.191115	0.622575
H548	H	0.691963	0.308885	1.122575
H549	H	0.177056	-0.270200	0.733567
H550	H	0.677056	0.229800	1.233567
H551	H	0.236887	-0.386928	0.750526
H552	H	0.736887	0.113072	1.250526
H553	H	0.204115	-0.271255	0.556464
H554	H	0.704115	0.228745	1.056464
C555	C	0.252211	-0.393571	0.582627
C556	C	0.752211	0.106429	1.082627
C557	C	0.268776	-0.359188	0.515043
C558	C	0.768776	0.140812	1.015043
C559	C	0.308284	-0.393553	0.470354
C560	C	0.808284	0.106447	0.970354
C561	C	0.331227	-0.462301	0.493250
C562	C	0.831227	0.037699	0.993250
C563	C	0.314661	-0.496688	0.560838
C564	C	0.814661	0.003312	1.060838
C565	C	0.275153	-0.462323	0.605526
C566	C	0.775153	0.037677	1.105526
H567	H	0.251793	-0.308293	0.498091
H568	H	0.751793	0.191707	0.998091
H569	H	0.320547	-0.368097	0.420321
H570	H	0.820547	0.131903	0.920321
H571	H	0.360473	-0.487740	0.460169
H572	H	0.860473	0.012260	0.960169
H573	H	0.331645	-0.547583	0.577790
H574	H	0.831645	-0.047583	1.077790
H575	H	0.262891	-0.487779	0.655559
H576	H	0.762891	0.012221	1.155559
H577	H	0.149444	-0.384673	0.779411
H578	H	0.649444	0.115327	1.279411
C579	C	0.101369	-0.262354	0.753248
C580	C	0.601369	0.237646	1.253248
C581	C	0.084811	-0.296735	0.820833
C582	C	0.584811	0.203265	1.320833
C583	C	0.045316	-0.262368	0.865519
C584	C	0.545316	0.237632	1.365519
C585	C	0.022379	-0.193620	0.842621
C586	C	0.522379	0.306380	1.342621
C587	C	0.038936	-0.159235	0.775033
C588	C	0.538936	0.340765	1.275033
C589	C	0.078432	-0.193602	0.730346
C590	C	0.578432	0.306398	1.230346
H591	H	0.101791	-0.347630	0.837787
H592	H	0.601791	0.152370	1.337787
H593	H	0.033059	-0.287822	0.915553
H594	H	0.533059	0.212178	1.415553
H595	H	-0.006858	-0.168180	0.875701
H596	H	0.493142	0.331820	1.375701
H597	H	0.021957	-0.108340	0.758079
H598	H	0.521957	0.391660	1.258079
H599	H	0.090689	-0.168148	0.680313
H600	H	0.590689	0.331852	1.180313
