data_functionalizedCrystal
_audit_creation_method	'MofGen! by Chris Wilmer'
_symmetry_space_group_name_H-M	'P1'
_symmetry_Int_Tables_number	1
_symmetry_cell_setting	triclinic
loop_
_symmetry_equiv_pos_as_xyz
  x,y,z
_cell_length_a	13.897449
_cell_length_b	13.897447
_cell_length_c	12.827893
_cell_angle_alpha	90.008482
_cell_angle_beta	90.007275
_cell_angle_gamma	90.020357
loop_
_atom_site_label
_atom_site_type_symbol
_atom_site_fract_x
_atom_site_fract_y
_atom_site_fract_z
Zn1	Zn	1.474537	-0.384161	0.590937
Zn2	Zn	1.474471	-0.545424	0.416193
Zn3	Zn	1.313271	-0.384147	0.416200
Zn4	Zn	1.313202	-0.545418	0.590883
O5	O	1.393870	-0.464788	0.503553
O6	O	1.609510	-0.405562	0.567776
O7	O	1.453089	-0.524027	0.269958
O8	O	1.334720	-0.249168	0.439404
O9	O	1.609461	-0.524041	0.439393
O10	O	1.453201	-0.249178	0.567783
O11	O	1.334656	-0.405538	0.269963
O12	O	1.178281	-0.405532	0.439352
O13	O	1.334603	-0.524031	0.737126
O14	O	1.178230	-0.524017	0.567691
O15	O	1.453134	-0.405556	0.737165
O16	O	1.453022	-0.680405	0.439341
O17	O	1.334539	-0.680401	0.567684
C18	C	1.143256	-0.464773	0.503517
C19	C	1.036042	-0.464790	0.503526
C20	C	1.393792	-0.715402	0.503529
C21	C	1.393847	-0.822616	0.503553
C22	C	0.948972	-0.464793	0.503543
C23	C	0.839740	-0.464800	0.503575
C24	C	1.393893	-0.909686	0.503577
C25	C	1.393961	-1.018918	0.503604
C26	C	1.645463	-0.464803	0.503590
C27	C	1.752677	-0.464810	0.503606
C28	C	1.393868	-0.464794	0.776123
C29	C	1.393867	-0.464797	0.892276
C30	C	1.393975	-0.213195	0.503600
C31	C	1.394020	-0.105981	0.503620
C32	C	1.335220	-0.523418	1.064086
C33	C	1.335220	-0.523417	0.944035
C34	C	1.393866	-0.464803	1.232043
C35	C	1.393867	-0.464800	1.115890
H36	H	1.285014	-0.573605	0.899485
H37	H	1.444082	-0.414613	0.936820
H38	H	1.285008	-0.573601	1.108611
H39	H	1.444071	-0.414610	1.071365
