data_functionalizedCrystal
_audit_creation_method	'MofGen! by Chris Wilmer'
_symmetry_space_group_name_H-M	'P1'
_symmetry_Int_Tables_number	1
_symmetry_cell_setting	triclinic
loop_
_symmetry_equiv_pos_as_xyz
  x,y,z
_cell_length_a	29.839131
_cell_length_b	19.805407
_cell_length_c	29.839125
_cell_angle_alpha	90.014690
_cell_angle_beta	89.982291
_cell_angle_gamma	89.959595
loop_
_atom_site_label
_atom_site_type_symbol
_atom_site_fract_x
_atom_site_fract_y
_atom_site_fract_z
Zn1	Zn	-0.178928	-1.034622	-0.254038
Zn2	Zn	-0.254041	-1.034520	-0.178908
Zn3	Zn	-0.178924	-0.921450	-0.178917
Zn4	Zn	-0.254031	-0.921371	-0.254006
O5	O	-0.216481	-0.977991	-0.216467
O6	O	-0.188898	-1.129325	-0.244081
O7	O	-0.244078	-1.019511	-0.116042
O8	O	-0.116057	-0.936538	-0.188899
O9	O	-0.244083	-1.129250	-0.188883
O10	O	-0.116061	-1.019686	-0.244090
O11	O	-0.188891	-0.936439	-0.116048
O12	O	-0.188881	-0.826723	-0.188868
O13	O	-0.244066	-0.936404	-0.316877
O14	O	-0.244062	-0.826665	-0.244035
O15	O	-0.188889	-1.019609	-0.316901
O16	O	-0.316906	-1.019435	-0.188852
O17	O	-0.316899	-0.936305	-0.244026
C18	C	-0.216470	-0.802135	-0.216449
C19	C	-0.216477	-0.726903	-0.216452
C20	C	-0.245252	-0.691546	-0.245131
C21	C	-0.245252	-0.620858	-0.245136
C22	C	-0.216478	-0.585527	-0.216460
C23	C	-0.187700	-0.620889	-0.187780
C24	C	-0.187698	-0.691576	-0.187778
C25	C	-0.187706	-0.335815	-0.187790
C26	C	-0.187711	-0.265123	-0.187794
C27	C	-0.245260	-0.265097	-0.245149
C28	C	-0.245259	-0.335785	-0.245146
C29	C	-0.216478	-0.371140	-0.216468
C30	C	-0.216478	-0.447788	-0.216464
C31	C	-0.216481	-0.508880	-0.216462
C32	C	-0.333204	-0.977869	-0.216445
C33	C	-0.383138	-0.977878	-0.216450
C34	C	-0.692772	-1.021355	-0.187780
C35	C	-0.880445	-1.021439	-0.187797
O36	O	-0.904703	-1.058308	-0.163403
N37	N	-0.903923	-0.978131	-0.216501
C38	C	-0.880479	-0.934802	-0.245204
O39	O	-0.904755	-0.897973	-0.269622
C40	C	-0.692807	-0.934723	-0.245189
C41	C	-0.669332	-0.978029	-0.216480
C42	C	-0.669297	-1.064658	-0.159074
C43	C	-0.622382	-1.064634	-0.159068
C44	C	-0.598942	-1.021308	-0.187768
C45	C	-0.622417	-0.978005	-0.216474
C46	C	-0.669365	-0.891398	-0.273894
C47	C	-0.622444	-0.891383	-0.273888
C48	C	-0.598968	-0.934689	-0.245180
C49	C	-0.552061	-0.934654	-0.245169
N50	N	-0.528583	-0.977962	-0.216465
C51	C	-0.552024	-1.021289	-0.187765
C52	C	-0.979010	-0.934846	-0.245210
C53	C	-1.025928	-0.934865	-0.245213
C54	C	-1.025891	-1.021503	-0.187806
C55	C	-0.978972	-1.021480	-0.187801
C56	C	-0.955532	-0.978154	-0.216506
C57	C	-0.453498	-1.021235	-0.187754
C58	C	-0.406578	-1.021205	-0.187750
C59	C	-0.406620	-0.934570	-0.245158
C60	C	-0.453535	-0.934597	-0.245161
C61	C	-0.476973	-0.977935	-0.216458
O62	O	-0.527775	-0.897810	-0.269553
O63	O	-0.527740	-1.058123	-0.163358
C64	C	-0.739688	-1.021379	-0.187786
C65	C	-0.763163	-0.978077	-0.216492
C66	C	-0.739723	-0.934750	-0.245192
C67	C	-0.810081	-0.978095	-0.216495
C68	C	-0.833521	-1.021422	-0.187795
C69	C	-0.810044	-1.064730	-0.159091
C70	C	-0.763128	-1.064706	-0.159085
C71	C	-0.763200	-0.891442	-0.273895
C72	C	-0.810116	-0.891469	-0.273899
C73	C	-0.833556	-0.934796	-0.245198
C74	C	-0.099303	-0.978132	-0.216499
C75	C	-0.049368	-0.978192	-0.216513
C76	C	-0.216477	-0.978009	-0.333645
C77	C	-0.216475	-0.978017	-0.383580
C78	C	-0.216489	-0.154534	-0.216480
C79	C	-0.216485	-0.229765	-0.216475
C80	C	-0.187669	-1.021388	-0.693239
C81	C	-0.187631	-1.021421	-0.880912
O82	O	-0.163181	-1.058246	-0.905189
N83	N	-0.216355	-0.978107	-0.904365
C84	C	-0.245089	-0.934778	-0.880897
O85	O	-0.269516	-0.897932	-0.905152
C86	C	-0.245124	-0.934741	-0.693225
C87	C	-0.216401	-0.978063	-0.669774
C88	C	-0.158948	-1.064706	-0.669788
C89	C	-0.158960	-1.064699	-0.622872
C90	C	-0.187692	-1.021375	-0.599408
C91	C	-0.216413	-0.978057	-0.622859
C92	C	-0.273855	-0.891409	-0.669758
C93	C	-0.273861	-0.891403	-0.622837
C94	C	-0.245138	-0.934725	-0.599386
C95	C	-0.245157	-0.934727	-0.552479
N96	N	-0.216433	-0.978041	-0.529025
C97	C	-0.187701	-1.021365	-0.552490
C98	C	-0.245068	-0.934801	-0.979428
C99	C	-0.245060	-0.934811	-1.026346
C100	C	-0.187602	-1.021453	-1.026357
C101	C	-0.187613	-1.021446	-0.979438
C102	C	-0.216344	-0.978115	-0.955975
C103	C	-0.187727	-1.021349	-0.453964
C104	C	-0.187743	-1.021341	-0.407044
C105	C	-0.245199	-0.934696	-0.407037
C106	C	-0.245186	-0.934707	-0.453953
C107	C	-0.216446	-0.978035	-0.477415
O108	O	-0.269590	-0.897916	-0.528172
O109	O	-0.163270	-1.058195	-0.528227
C110	C	-0.187658	-1.021394	-0.740154
C111	C	-0.216378	-0.978076	-0.763605
C112	C	-0.245111	-0.934751	-0.740140
C113	C	-0.216370	-0.978086	-0.810523
C114	C	-0.187638	-1.021410	-0.833987
C115	C	-0.158914	-1.064724	-0.810534
C116	C	-0.158925	-1.064718	-0.763618
C117	C	-0.273835	-0.891437	-0.763594
C118	C	-0.273821	-0.891447	-0.810509
C119	C	-0.245089	-0.934772	-0.833974
C120	C	-0.216453	-0.978012	-0.099744
C121	C	-0.216328	-0.978135	-0.049810
H122	H	-0.387466	-1.056470	-0.164370
C123	C	-0.276908	-0.581969	-0.276683
C124	C	-0.327973	-0.591636	-0.272919
C125	C	-0.359630	-0.552748	-0.304468
C126	C	-0.340221	-0.504194	-0.339781
C127	C	-0.289153	-0.494525	-0.343547
C128	C	-0.257496	-0.533412	-0.311997
H129	H	-0.342343	-0.627580	-0.246776
H130	H	-0.397434	-0.559906	-0.301680
H131	H	-0.363656	-0.475407	-0.363135
H132	H	-0.274784	-0.458580	-0.369689
H133	H	-0.219692	-0.526254	-0.314785
H134	H	-0.164275	-0.364593	-0.164435
H135	H	-1.045037	-0.899595	-0.268586
C136	C	-0.953232	-0.887181	-0.276787
C137	C	-0.959740	-0.810243	-0.273069
C138	C	-0.933965	-0.762575	-0.304645
C139	C	-0.901682	-0.791844	-0.339939
C140	C	-0.895172	-0.868785	-0.343658
C141	C	-0.920947	-0.916454	-0.312082
H142	H	-0.983640	-0.788573	-0.246941
H143	H	-0.938785	-0.705618	-0.301891
H144	H	-0.882601	-0.756558	-0.363313
H145	H	-0.871272	-0.890456	-0.369786
H146	H	-0.916127	-0.973411	-0.314835
H147	H	-0.829137	-1.100006	-0.135721
C148	C	-0.127340	-1.112370	-0.695593
C149	C	-0.131018	-1.189307	-0.689138
C150	C	-0.099411	-1.236979	-0.714939
C151	C	-0.064126	-1.207715	-0.747194
C152	C	-0.060446	-1.130773	-0.753651
C153	C	-0.092054	-1.083101	-0.727850
H154	H	-0.157140	-1.210974	-0.665259
H155	H	-0.102135	-1.293936	-0.710160
H156	H	-0.040728	-1.243004	-0.766294
H157	H	-0.034324	-1.109106	-0.777529
H158	H	-0.089330	-1.026144	-0.732629
C159	C	-1.051681	-1.069168	-0.156239
C160	C	-1.045182	-1.146106	-0.159962
C161	C	-1.070975	-1.193773	-0.128399
C162	C	-1.103267	-1.164501	-0.093114
C163	C	-1.109768	-1.087559	-0.089390
C164	C	-1.083975	-1.039892	-0.120953
H165	H	-1.021276	-1.167779	-0.186083
H166	H	-1.066162	-1.250731	-0.131156
H167	H	-1.122361	-1.199787	-0.069750
H168	H	-1.133674	-1.065887	-0.063269
H169	H	-1.088787	-0.982934	-0.118196
C170	C	-0.695076	-1.112322	-0.127499
C171	C	-0.688639	-1.106843	-0.076425
C172	C	-0.714413	-1.154506	-0.044844
C173	C	-0.746624	-1.207648	-0.064338
C174	C	-0.753062	-1.213130	-0.115415
C175	C	-0.727288	-1.165466	-0.146995
H176	H	-0.664793	-1.067501	-0.061992
H177	H	-0.709646	-1.150448	-0.007034
H178	H	-0.765703	-1.242931	-0.040961
H179	H	-0.776908	-1.252471	-0.129848
H180	H	-0.732054	-1.169524	-0.184806
C181	C	-0.127359	-1.112345	-0.597079
C182	C	-0.146825	-1.165463	-0.564826
C183	C	-0.115220	-1.213107	-0.539035
C184	C	-0.064148	-1.207634	-0.545497
C185	C	-0.044679	-1.154514	-0.577752
C186	C	-0.076284	-1.106870	-0.603542
H187	H	-0.184634	-1.169516	-0.560041
H188	H	-0.129633	-1.252430	-0.515158
H189	H	-0.040752	-1.242903	-0.526406
H190	H	-0.006870	-1.150461	-0.582537
H191	H	-0.061871	-1.067547	-0.627419
H192	H	-0.135520	-1.100003	-0.829647
C193	C	-0.737422	-0.843777	-0.305468
C194	C	-0.743934	-0.766840	-0.301749
C195	C	-0.718158	-0.719169	-0.333323
C196	C	-0.685870	-0.748434	-0.368614
C197	C	-0.679357	-0.825374	-0.372334
C198	C	-0.705132	-0.873046	-0.340761
H199	H	-0.767836	-0.745173	-0.275623
H200	H	-0.722980	-0.662212	-0.330569
H201	H	-0.666789	-0.713145	-0.391987
H202	H	-0.655454	-0.847042	-0.398460
H203	H	-0.700310	-0.930002	-0.343515
C204	C	-0.156144	-1.068996	-0.381249
C205	C	-0.105071	-1.063533	-0.387705
C206	C	-0.073473	-1.111185	-0.361912
C207	C	-0.092949	-1.164301	-0.329663
C208	C	-0.144024	-1.169767	-0.323206
C209	C	-0.175622	-1.122115	-0.348999
H210	H	-0.090652	-1.024211	-0.411579
H211	H	-0.035664	-1.107138	-0.366692
H212	H	-0.069558	-1.199576	-0.310570
H213	H	-0.158443	-1.209089	-0.299332
H214	H	-0.213432	-1.126161	-0.344219
H215	H	-0.297244	-0.856132	-0.688844
C216	C	-0.156014	-1.069096	-0.953644
C217	C	-0.104942	-1.063635	-0.960106
C218	C	-0.073342	-1.111285	-0.934315
C219	C	-0.092814	-1.164398	-0.902062
C220	C	-0.143889	-1.169862	-0.895599
C221	C	-0.175489	-1.122211	-0.921390
H222	H	-0.090525	-1.024315	-0.983983
H223	H	-0.035532	-1.107240	-0.939100
H224	H	-0.069421	-1.199672	-0.882970
H225	H	-0.158305	-1.209182	-0.871722
H226	H	-0.213298	-1.126257	-0.916605
C227	C	-0.276916	-0.226205	-0.276700
C228	C	-0.276919	-0.148452	-0.276709
C229	C	-0.308575	-0.109562	-0.308258
C230	C	-0.340226	-0.148425	-0.339798
C231	C	-0.340224	-0.226182	-0.339791
C232	C	-0.308569	-0.265072	-0.308241
H233	H	-0.253488	-0.119679	-0.253360
H234	H	-0.308576	-0.052001	-0.308263
H235	H	-0.363660	-0.119636	-0.363153
H236	H	-0.363656	-0.254955	-0.363140
H237	H	-0.308567	-0.322634	-0.308236
H238	H	-0.268684	-0.720307	-0.268481
H239	H	-0.268454	-0.899541	-1.045436
H240	H	-0.688470	-0.856131	-0.297270
H241	H	-0.744018	-1.099970	-0.135708
H242	H	-0.297215	-0.856170	-0.829599
H243	H	-0.164270	-0.592117	-0.164434
H244	H	-0.268468	-0.899516	-0.960328
H245	H	-0.268690	-0.364547	-0.268496
C246	C	-0.156044	-0.730472	-0.156232
C247	C	-0.104979	-0.720804	-0.159994
C248	C	-0.073323	-0.759701	-0.128449
C249	C	-0.092731	-0.808265	-0.093143
C250	C	-0.143799	-0.817936	-0.089379
C251	C	-0.175456	-0.779039	-0.120923
H252	H	-0.090609	-0.684852	-0.186131
H253	H	-0.035519	-0.752541	-0.131236
H254	H	-0.069297	-0.837059	-0.069791
H255	H	-0.158169	-0.853888	-0.063241
H256	H	-0.213260	-0.786198	-0.118137
C257	C	-0.596661	-0.843720	-0.305464
C258	C	-0.564373	-0.872994	-0.340752
C259	C	-0.538592	-0.825330	-0.372326
C260	C	-0.545100	-0.748392	-0.368612
C261	C	-0.577390	-0.719114	-0.333323
C262	C	-0.603170	-0.766778	-0.301749
H263	H	-0.559554	-0.929952	-0.343502
H264	H	-0.514689	-0.847004	-0.398449
H265	H	-0.526015	-0.713109	-0.391985
H266	H	-0.582208	-0.662157	-0.330573
H267	H	-0.627074	-0.745105	-0.275626
C268	C	-0.380828	-0.886915	-0.276728
C269	C	-0.348613	-0.833787	-0.257224
C270	C	-0.322819	-0.786136	-0.288797
C271	C	-0.329241	-0.791613	-0.339873
C272	C	-0.361458	-0.844744	-0.359379
C273	C	-0.387252	-0.892395	-0.327807
H274	H	-0.343858	-0.829730	-0.219412
H275	H	-0.298970	-0.746805	-0.274357
H276	H	-0.310148	-0.756339	-0.363245
H277	H	-0.366213	-0.848801	-0.397191
H278	H	-0.411101	-0.931726	-0.342247
H279	H	-0.472650	-0.899336	-0.268539
H280	H	-0.472576	-1.056526	-0.164383
C281	C	-0.596565	-1.112280	-0.127491
C282	C	-0.603047	-1.106820	-0.076417
C283	C	-0.577235	-1.154471	-0.044839
C284	C	-0.544941	-1.207582	-0.064336
C285	C	-0.538457	-1.213044	-0.115412
C286	C	-0.564269	-1.165393	-0.146990
H287	H	-0.626955	-1.067502	-0.061982
H288	H	-0.582035	-1.150428	-0.007029
H289	H	-0.525833	-1.242856	-0.040960
H290	H	-0.514549	-1.252361	-0.129847
H291	H	-0.559469	-1.169436	-0.184800
C292	C	-0.305469	-0.843740	-0.597026
C293	C	-0.301796	-0.766801	-0.603470
C294	C	-0.333404	-0.719141	-0.577659
C295	C	-0.368685	-0.748422	-0.545405
C296	C	-0.372359	-0.825366	-0.538960
C297	C	-0.340751	-0.873025	-0.564770
H298	H	-0.275678	-0.745122	-0.627347
H299	H	-0.330684	-0.662182	-0.582430
H300	H	-0.392083	-0.713142	-0.526298
H301	H	-0.398477	-0.847045	-0.515082
H302	H	-0.343471	-0.929984	-0.559999
H303	H	-0.164278	-0.236359	-0.164442
H304	H	-0.959861	-1.056744	-0.164424
C305	C	-0.305445	-0.843775	-0.737791
C306	C	-0.301773	-0.766837	-0.744245
C307	C	-0.333388	-0.719172	-0.718447
C308	C	-0.368674	-0.748445	-0.686195
C309	C	-0.372347	-0.825387	-0.679741
C310	C	-0.340733	-0.873052	-0.705539
H311	H	-0.275651	-0.745163	-0.768120
H312	H	-0.330669	-0.662214	-0.723225
H313	H	-0.392077	-0.713161	-0.667098
H314	H	-0.398470	-0.847061	-0.655865
H315	H	-0.343452	-0.930010	-0.700760
H316	H	-0.829225	-0.856198	-0.297276
H317	H	-0.164323	-1.056629	-0.473061
H318	H	-0.164207	-1.056730	-1.045470
H319	H	-0.268578	-0.899437	-0.473047
H320	H	-0.268594	-0.899425	-0.387924
H321	H	-0.135536	-1.099995	-0.744529
