data_functionalizedCrystal
_audit_creation_method	'MofGen! by Chris Wilmer'
_symmetry_space_group_name_H-M	'P1'
_symmetry_Int_Tables_number	1
_symmetry_cell_setting	triclinic
loop_
_symmetry_equiv_pos_as_xyz
  x,y,z
_cell_length_a	11.792241
_cell_length_b	18.266242
_cell_length_c	11.792241
_cell_angle_alpha	90.006463
_cell_angle_beta	84.193416
_cell_angle_gamma	90.004822
loop_
_atom_site_label
_atom_site_type_symbol
_atom_site_fract_x
_atom_site_fract_y
_atom_site_fract_z
O1	O	1.506916	0.060810	0.155570
O2	O	1.176575	0.060827	0.171603
O3	O	1.349762	0.060813	-0.001584
O4	O	1.333729	0.060824	0.328757
O5	O	1.349732	-0.060949	-0.001594
O6	O	1.176545	-0.060935	0.171593
O7	O	1.506886	-0.060952	0.155560
Zn8	Zn	1.341711	-0.080276	0.163575
Zn9	Zn	1.341750	0.080151	0.163588
O10	O	1.333699	-0.060938	0.328747
C11	C	1.134269	-0.000052	0.170591
C12	C	1.008255	-0.000045	0.167576
C13	C	0.777543	-0.000066	0.162034
C14	C	0.905928	-0.000055	0.165113
N15	N	1.341693	-0.189763	0.163567
C16	C	1.418406	-0.228078	0.086917
C17	C	1.418413	-0.304723	0.086912
C18	C	1.341718	-0.343049	0.163576
C19	C	1.264991	-0.304725	0.240231
C20	C	1.264978	-0.228082	0.240226
N21	N	1.327889	-0.463378	0.263918
N22	N	1.327908	-0.536186	0.263919
C23	C	1.341750	-0.573972	0.163593
N24	N	1.355595	-0.536199	0.063262
N25	N	1.355582	-0.463384	0.063262
C26	C	1.341723	-0.426156	0.163589
C27	C	1.418475	-0.695394	0.086931
C28	C	1.418474	-0.772040	0.086924
C29	C	1.265058	-0.772041	0.240253
C30	C	1.265053	-0.695397	0.240250
C31	C	1.341768	-0.657078	0.163590
C32	C	1.549192	-0.000071	0.156572
C33	C	1.675206	-0.000073	0.159587
N34	N	1.341777	0.189638	0.163588
C35	C	1.348740	-0.000068	-0.043880
C36	C	1.345726	-0.000067	-0.169894
C37	C	1.340183	-0.000054	-0.400606
C38	C	1.343262	-0.000061	-0.272221
C39	C	1.334721	-0.000055	0.371043
C40	C	1.337736	-0.000051	0.497057
H41	H	1.480868	-0.196880	0.024494
O42	O	1.493007	-0.658052	0.012636
C43	C	1.476571	-0.582188	0.029091
H44	H	1.434609	-0.571733	0.119014
H45	H	1.562466	-0.553076	0.017162
H46	H	1.419350	-0.560409	-0.035596
O47	O	1.493108	-0.809149	0.012423
C48	C	1.560794	-0.758888	-0.055251
H49	H	1.562345	-0.704250	-0.008708
H50	H	1.651330	-0.781024	-0.071942
H51	H	1.523439	-0.750749	-0.139824
O52	O	1.190603	-0.809183	0.314879
C53	C	1.209752	-0.790457	0.427363
H54	H	1.253492	-0.734804	0.427518
H55	H	1.124781	-0.787840	0.482684
H56	H	1.266466	-0.833584	0.462845
H57	H	1.480884	-0.335924	0.024493
O58	O	1.190443	-0.342034	0.314547
C59	C	1.120047	-0.386371	0.253288
H60	H	1.164714	-0.397856	0.164778
H61	H	1.102393	-0.440265	0.300546
H62	H	1.036113	-0.356847	0.245007
O63	O	1.190701	-0.658094	0.314771
C64	C	1.251910	-0.613763	0.385220
H65	H	1.340440	-0.602274	0.340606
H66	H	1.204640	-0.559872	0.402862
H67	H	1.260143	-0.643295	0.469156
H68	H	1.202508	-0.196885	0.302644
