data_functionalizedCrystal
_audit_creation_method	'MofGen! by Chris Wilmer'
_symmetry_space_group_name_H-M	'P1'
_symmetry_Int_Tables_number	1
_symmetry_cell_setting	triclinic
loop_
_symmetry_equiv_pos_as_xyz
  x,y,z
_cell_length_a	19.805407
_cell_length_b	13.897448
_cell_length_c	19.805399
_cell_angle_alpha	89.974981
_cell_angle_beta	89.980427
_cell_angle_gamma	90.017692
loop_
_atom_site_label
_atom_site_type_symbol
_atom_site_fract_x
_atom_site_fract_y
_atom_site_fract_z
Zn1	Zn	1.034777	-0.384037	-0.382732
Zn2	Zn	1.034709	-0.545343	-0.269549
Zn3	Zn	0.921591	-0.384064	-0.269556
Zn4	Zn	0.921572	-0.545292	-0.382695
O5	O	0.978162	-0.464684	-0.326133
O6	O	1.129484	-0.405445	-0.367730
O7	O	1.019683	-0.523982	-0.174833
O8	O	0.936642	-0.249079	-0.284588
O9	O	1.129434	-0.523956	-0.284575
O10	O	1.019799	-0.249059	-0.367737
O11	O	0.936576	-0.405490	-0.174839
O12	O	0.826872	-0.405441	-0.284552
O13	O	0.936609	-0.523869	-0.477417
O14	O	0.826858	-0.523894	-0.367675
O15	O	1.019780	-0.405395	-0.477443
O16	O	1.019664	-0.680318	-0.284539
O17	O	0.936543	-0.680280	-0.367668
C18	C	0.802306	-0.464666	-0.326111
C19	C	0.727074	-0.464681	-0.326118
C20	C	0.691740	-0.526453	-0.369330
C21	C	0.621052	-0.526454	-0.369339
C22	C	0.585699	-0.464688	-0.326133
C23	C	0.621037	-0.402910	-0.282919
C24	C	0.691725	-0.402904	-0.282913
C25	C	0.335964	-0.402931	-0.282941
C26	C	0.265272	-0.402944	-0.282949
C27	C	0.265292	-0.526481	-0.369367
C28	C	0.335979	-0.526476	-0.369362
C29	C	0.371311	-0.464694	-0.326151
C30	C	0.447960	-0.464692	-0.326142
C31	C	0.509051	-0.464695	-0.326138
C32	C	0.978113	-0.715298	-0.326113
C33	C	0.978154	-0.822512	-0.326128
C34	C	0.978225	-1.018807	-0.326170
C35	C	0.978183	-0.909575	-0.326149
C36	C	1.154705	-0.464703	-0.326155
C37	C	1.229937	-0.464711	-0.326165
C38	C	0.978200	-0.464623	-0.502676
C39	C	0.978216	-0.464597	-0.577908
C40	C	0.978230	-0.213091	-0.326167
C41	C	0.978259	-0.105877	-0.326182
C42	C	1.021524	-0.402905	-0.613267
C43	C	1.021531	-0.402877	-0.683955
C44	C	0.978233	-0.464547	-0.719283
C45	C	0.934920	-0.526242	-0.683919
C46	C	0.934910	-0.526264	-0.613232
C47	C	0.934958	-0.526152	-0.968993
C48	C	0.934973	-0.526127	-1.039685
C49	C	1.021579	-0.402765	-1.039716
C50	C	1.021570	-0.402787	-0.969029
C51	C	0.978255	-0.464478	-0.933671
C52	C	0.978247	-0.464507	-0.857022
C53	C	0.978244	-0.464524	-0.795931
C54	C	0.978163	-0.464675	-0.150277
C55	C	0.978278	-0.464429	-0.075045
H56	H	0.592286	-0.576756	-0.404526
H57	H	0.236515	-0.576783	-0.404554
C58	C	0.684652	-0.648559	-0.454760
C59	C	0.730597	-0.594346	-0.416827
H60	H	0.708641	-0.690468	-0.484087
H61	H	0.657065	-0.685404	-0.425228
H62	H	0.657098	-0.606571	-0.480700
H63	H	0.758149	-0.636334	-0.390883
H64	H	0.758196	-0.557498	-0.446363
C65	C	0.328896	-0.648584	-0.454792
C66	C	0.374838	-0.594367	-0.416858
H67	H	0.352887	-0.690491	-0.484119
H68	H	0.301309	-0.685430	-0.425261
H69	H	0.301341	-0.606597	-0.480733
H70	H	0.402390	-0.636354	-0.390913
H71	H	0.402436	-0.557518	-0.446393
C72	C	0.328835	-0.280817	-0.197521
C73	C	0.374796	-0.335023	-0.235443
H74	H	0.352811	-0.238895	-0.168195
H75	H	0.301282	-0.243987	-0.227060
H76	H	0.301248	-0.322810	-0.171581
H77	H	0.402379	-0.293031	-0.261388
H78	H	0.402360	-0.371856	-0.205901
H79	H	0.899664	-0.576451	-0.712689
C80	C	0.849320	-0.648230	-0.620297
C81	C	0.887316	-0.594095	-0.574363
H82	H	0.819942	-0.690112	-0.596299
H83	H	0.823438	-0.606196	-0.647862
H84	H	0.878814	-0.685108	-0.647873
H85	H	0.857822	-0.557211	-0.546789
H86	H	0.913200	-0.636133	-0.546785
H87	H	0.592247	-0.352615	-0.247743
H88	H	0.236489	-0.352641	-0.247765
H89	H	1.056846	-0.352530	-1.068513
H90	H	0.899699	-0.576398	-0.940213
C91	C	0.849346	-0.648061	-1.032558
C92	C	0.887371	-0.593912	-1.078519
H93	H	0.819958	-0.689901	-1.056534
H94	H	0.878816	-0.684975	-1.004988
H95	H	0.823466	-0.606026	-1.004988
H96	H	0.913254	-0.635946	-1.106086
H97	H	0.857897	-0.556995	-1.106100
C98	C	1.107175	-0.280834	-0.976162
C99	C	1.069162	-0.334995	-0.930197
H100	H	1.136552	-0.238976	-0.952188
H101	H	1.133059	-0.322852	-1.003728
H102	H	1.077691	-0.243930	-1.003735
H103	H	1.098646	-0.371905	-0.902627
H104	H	1.043275	-0.292971	-0.902619
H105	H	0.720492	-0.352598	-0.247729
H106	H	1.056785	-0.352690	-0.584508
H107	H	1.056799	-0.352644	-0.712742
