data_functionalizedCrystal
_audit_creation_method	'MofGen! by Chris Wilmer'
_symmetry_space_group_name_H-M	'P1'
_symmetry_Int_Tables_number	1
_symmetry_cell_setting	triclinic
loop_
_symmetry_equiv_pos_as_xyz
  x,y,z
_cell_length_a	19.077236
_cell_length_b	16.625546
_cell_length_c	19.076919
_cell_angle_alpha	92.269917
_cell_angle_beta	89.887323
_cell_angle_gamma	92.315185
loop_
_atom_site_label
_atom_site_type_symbol
_atom_site_fract_x
_atom_site_fract_y
_atom_site_fract_z
Zn1	Zn	1.058301	-0.292690	-0.440534
Zn2	Zn	1.558301	0.207310	0.059466
Zn3	Zn	1.062945	-0.421906	-0.323024
Zn4	Zn	1.562945	0.078094	0.176976
Zn5	Zn	0.945516	-0.292268	-0.318314
Zn6	Zn	1.445516	0.207732	0.181686
Zn7	Zn	0.940764	-0.432663	-0.435762
Zn8	Zn	1.440764	0.067337	0.064238
O9	O	1.001881	-0.359882	-0.379409
O10	O	1.501881	0.140118	0.120591
O11	O	1.157250	-0.305506	-0.428915
O12	O	1.657250	0.194494	0.071085
O13	O	1.051300	-0.400030	-0.224069
O14	O	1.551300	0.099970	0.275931
O15	O	0.960522	-0.179490	-0.334553
O16	O	1.460522	0.320510	0.165447
O17	O	1.160662	-0.400440	-0.342581
O18	O	1.660662	0.099560	0.157419
O19	O	1.043385	-0.179801	-0.424348
O20	O	1.543385	0.320199	0.075652
O21	O	0.965025	-0.304786	-0.220609
O22	O	1.465025	0.195214	0.279391
O23	O	0.846552	-0.315216	-0.329926
O24	O	1.346552	0.184784	0.170074
O25	O	0.952423	-0.418774	-0.534726
O26	O	1.452423	0.081226	-0.034726
O27	O	0.843061	-0.418364	-0.416214
O28	O	1.343061	0.081636	0.083786
O29	O	1.038777	-0.315937	-0.538232
O30	O	1.538777	0.184063	-0.038232
O31	O	1.046692	-0.536166	-0.337953
O32	O	1.546692	-0.036166	0.162047
O33	O	0.956927	-0.544069	-0.420781
O34	O	1.456927	-0.044069	0.079219
C35	C	0.819310	-0.367912	-0.372042
C36	C	1.319310	0.132088	0.127958
C37	C	0.741204	-0.371368	-0.368907
C38	C	1.241204	0.128632	0.131093
C39	C	0.702731	-0.323649	-0.412452
C40	C	1.202731	0.176351	0.087548
C41	C	0.629343	-0.326892	-0.409500
C42	C	1.129343	0.173108	0.090500
C43	C	0.594429	-0.377858	-0.363006
C44	C	1.094429	0.122142	0.136994
C45	C	0.632907	-0.425579	-0.319456
C46	C	1.132907	0.074421	0.180544
C47	C	0.706294	-0.422331	-0.322405
C48	C	1.206294	0.077669	0.177595
C49	C	0.375136	-0.392858	-0.349356
C50	C	0.875136	0.107142	0.150644
C51	C	0.301744	-0.396104	-0.346412
C52	C	0.801744	0.103896	0.153588
C53	C	0.298185	-0.297416	-0.436456
C54	C	0.798185	0.202584	0.063544
C55	C	0.371573	-0.294176	-0.439403
C56	C	0.871573	0.205824	0.060597
C57	C	0.410045	-0.341894	-0.395851
C58	C	0.910045	0.158106	0.104149
N59	N	0.519414	-0.381176	-0.359989
N60	N	1.019414	0.118824	0.140011
N61	N	0.485059	-0.338571	-0.398864
N62	N	0.985059	0.161429	0.101136
C63	C	1.001816	-0.569374	-0.379377
C64	C	1.501816	-0.069374	0.120623
C65	C	1.001851	-0.658994	-0.379389
C66	C	1.501851	-0.158994	0.120611
C67	C	1.001971	-0.987168	-0.379467
C68	C	1.501971	-0.487168	0.120533
C69	C	1.001935	-0.895860	-0.379447
C70	C	1.501935	-0.395860	0.120553
C71	C	1.001911	-0.823084	-0.379428
C72	C	1.501911	-0.323084	0.120572
C73	C	1.001876	-0.731770	-0.379409
C74	C	1.501876	-0.231770	0.120591
C75	C	1.185166	-0.351821	-0.386805
C76	C	1.685166	0.148179	0.113195
C77	C	1.263271	-0.348385	-0.389957
C78	C	1.763271	0.151615	0.110043
C79	C	0.994552	-0.368603	-0.562688
C80	C	1.494552	0.131397	-0.062688
C81	C	0.991429	-0.372319	-0.640791
C82	C	1.491429	0.127681	-0.140791
C83	C	1.001965	-0.149571	-0.379457
C84	C	1.501965	0.350429	0.120543
C85	C	1.002001	-0.059949	-0.379478
C86	C	1.502001	0.440051	0.120522
C87	C	1.034919	-0.320525	-0.679310
C88	C	1.534919	0.179475	-0.179310
C89	C	1.031975	-0.324014	-0.752695
C90	C	1.531975	0.175986	-0.252695
C91	C	0.985545	-0.379302	-0.787560
C92	C	1.485545	0.120698	-0.287560
C93	C	0.942051	-0.431097	-0.749036
C94	C	1.442051	0.068903	-0.249036
C95	C	0.944991	-0.427604	-0.675651
C96	C	1.444991	0.072396	-0.175651
C97	C	0.971928	-0.395488	-1.006839
C98	C	1.471928	0.104512	-0.506839
C99	C	0.968992	-0.398979	-1.080229
C100	C	1.468992	0.101021	-0.580229
C101	C	1.058916	-0.291895	-1.083883
C102	C	1.558916	0.208105	-0.583883
C103	C	1.061855	-0.288409	-1.010497
C104	C	1.561855	0.211591	-0.510497
C105	C	1.018358	-0.340202	-0.971979
C106	C	1.518358	0.159798	-0.471979
N107	N	0.982537	-0.382871	-0.862572
N108	N	1.482537	0.117129	-0.362572
N109	N	1.021363	-0.336628	-0.896969
N110	N	1.521363	0.163372	-0.396969
C111	C	1.009223	-0.351135	-0.196844
C112	C	1.509223	0.148865	0.303156
C113	C	1.012482	-0.347186	-0.118748
C114	C	1.512482	0.152814	0.381252
H115	H	0.604474	-0.467072	-0.281596
H116	H	1.104474	0.032928	0.218404
H117	H	1.072729	-0.275507	-0.650928
H118	H	1.572729	0.224493	-0.150928
O119	O	1.111939	-0.228781	-0.972896
O120	O	1.611939	0.271219	-0.472896
H121	H	1.099350	-0.166696	-0.986502
H122	H	1.599350	0.333304	-0.486502
H123	H	0.936519	-0.437673	-0.975487
H124	H	1.436519	0.062327	-0.475487
O125	O	0.747795	-0.473799	-0.275440
O126	O	1.247795	0.026201	0.224560
H127	H	0.711189	-0.509790	-0.242618
H128	H	1.211189	-0.009790	0.257382
O129	O	1.105809	-0.236011	-1.125425
O130	O	1.605809	0.263989	-0.625425
H131	H	1.095957	-0.247715	-1.182310
H132	H	1.595957	0.252285	-0.682310
H133	H	0.904244	-0.476111	-0.777428
H134	H	1.404244	0.023889	-0.277428
H135	H	0.931181	-0.444003	-1.108613
H136	H	1.431181	0.055997	-0.608613
H137	H	0.273319	-0.437611	-0.308551
H138	H	0.773319	0.062389	0.191449
H139	H	0.909569	-0.469772	-0.644290
H140	H	1.409569	0.030228	-0.144290
O141	O	0.256687	-0.245948	-0.483422
O142	O	0.756687	0.254052	0.016578
H143	H	0.293295	-0.209967	-0.516249
H144	H	0.793295	0.290033	-0.016249
H145	H	0.731153	-0.282149	-0.450314
H146	H	1.231153	0.217851	0.049686
H147	H	0.406451	-0.431714	-0.313893
H148	H	0.906451	0.068286	0.186107
H149	H	0.399995	-0.252677	-0.477266
H150	H	0.899995	0.247323	0.022734
O151	O	0.587845	-0.275424	-0.456465
O152	O	1.087845	0.224576	0.043535
H153	H	0.624452	-0.239446	-0.489296
H154	H	1.124452	0.260554	0.010704
O155	O	1.078886	-0.268157	-0.794244
O156	O	1.578886	0.231843	-0.294244
H157	H	1.111673	-0.229134	-0.757672
H158	H	1.611673	0.270866	-0.257672
