data_functionalizedCrystal
_audit_creation_method	'MofGen! by Chris Wilmer'
_symmetry_space_group_name_H-M	'P1'
_symmetry_Int_Tables_number	1
_symmetry_cell_setting	triclinic
loop_
_symmetry_equiv_pos_as_xyz
  x,y,z
_cell_length_a	16.120484
_cell_length_b	16.120542
_cell_length_c	16.120704
_cell_angle_alpha	90.139269
_cell_angle_beta	84.364775
_cell_angle_gamma	89.836765
loop_
_atom_site_label
_atom_site_type_symbol
_atom_site_fract_x
_atom_site_fract_y
_atom_site_fract_z
Zn1	Zn	-0.422558	-1.224867	0.554851
Zn2	Zn	0.077442	-0.724867	1.054851
Zn3	Zn	-0.555193	-1.224791	0.422154
Zn4	Zn	-0.055193	-0.724791	0.922154
Zn5	Zn	-0.408410	-1.093638	0.408088
Zn6	Zn	0.091590	-0.593638	0.908088
Zn7	Zn	-0.554463	-1.078760	0.554084
Zn8	Zn	-0.054463	-0.578760	1.054084
O9	O	-0.485156	-1.155514	0.484795
O10	O	0.014844	-0.655514	0.984795
O11	O	-0.446378	-1.340892	0.543456
O12	O	0.053622	-0.840892	1.043456
O13	O	-0.530107	-1.213588	0.303655
O14	O	-0.030107	-0.713588	0.803655
O15	O	-0.293655	-1.117304	0.421991
O16	O	0.206345	-0.617304	0.921991
O17	O	-0.543825	-1.340836	0.445964
O18	O	-0.043825	-0.840836	0.945964
O19	O	-0.304049	-1.213718	0.529817
O20	O	0.195951	-0.713718	1.029817
O21	O	-0.422266	-1.117230	0.293321
O22	O	0.077734	-0.617230	0.793321
O23	O	-0.421558	-0.975630	0.421248
O24	O	0.078442	-0.475630	0.921248
O25	O	-0.542581	-1.091947	0.670820
O26	O	-0.042581	-0.591947	1.170820
O27	O	-0.528862	-0.964700	0.528510
O28	O	-0.028862	-0.464700	1.028510
O29	O	-0.445670	-1.199291	0.671383
O30	O	0.054330	-0.699291	1.171383
O31	O	-0.671729	-1.199162	0.445221
O32	O	-0.171729	-0.699162	0.945221
O33	O	-0.671192	-1.091873	0.542150
O34	O	-0.171192	-0.591873	1.042150
C35	C	-0.473596	-0.940078	0.473270
C36	C	0.026404	-0.440078	0.973270
C37	C	-0.468672	-0.847912	0.468361
C38	C	0.031328	-0.347912	0.968361
C39	C	-0.510673	-0.632709	0.510214
C40	C	-0.010673	-0.132709	1.010214
C41	C	-0.459689	-0.679167	0.459397
C42	C	0.040311	-0.179167	0.959397
C43	C	-0.464689	-0.773065	0.464386
C44	C	0.035311	-0.273065	0.964386
C45	C	-0.505674	-0.538802	0.505226
C46	C	-0.005674	-0.038802	1.005226
C47	C	-0.701704	-1.143916	0.495148
C48	C	-0.201704	-0.643916	0.995148
C49	C	-0.794349	-1.139029	0.499609
C50	C	-0.294349	-0.639029	0.999609
C51	C	-0.963975	-1.130110	0.507771
C52	C	-0.463975	-0.630110	1.007771
C53	C	-1.005505	-1.181066	0.461840
C54	C	-0.505505	-0.681066	0.961840
C55	C	-1.099891	-1.176104	0.466381
C56	C	-0.599891	-0.676104	0.966381
C57	C	-0.869581	-1.135072	0.503231
C58	C	-0.369581	-0.635072	1.003231
C59	C	-0.267765	-1.167179	0.474420
C60	C	0.232235	-0.667179	0.974420
C61	C	-0.175125	-1.172150	0.469999
C62	C	0.324875	-0.672150	0.969999
C63	C	-0.495622	-1.143968	0.702189
C64	C	0.004378	-0.643968	1.202189
C65	C	-0.500082	-1.139048	0.794829
C66	C	-0.000082	-0.639048	1.294829
C67	C	-0.496756	-0.371792	0.496352
C68	C	0.003244	0.128208	0.996352
C69	C	-0.501687	-0.463959	0.501248
C70	C	-0.001687	0.036041	1.001248
C71	C	-0.462212	-1.180960	1.005996
C72	C	0.037788	-0.680960	1.505996
C73	C	-0.508189	-1.130039	0.964436
C74	C	-0.008189	-0.630039	1.464436
C75	C	-0.503677	-1.135053	0.870058
C76	C	-0.003677	-0.635053	1.370058
C77	C	-0.466723	-1.175947	1.100383
C78	C	0.033277	-0.675947	1.600383
C79	C	-0.474757	-1.167013	1.268247
C80	C	0.025243	-0.667013	1.768247
C81	C	-0.470321	-1.171948	1.175608
C82	C	0.029679	-0.671948	1.675608
H83	H	-0.412286	-0.648421	0.412143
H84	H	0.087714	-0.148421	0.912143
C85	C	-0.565952	-1.066062	1.012118
C86	C	-0.065952	-0.566062	1.512118
C87	C	-0.570447	-1.061077	1.107862
C88	C	-0.070447	-0.561077	1.607862
C89	C	-0.628211	-0.997105	1.155547
C90	C	-0.128211	-0.497105	1.655547
C91	C	-0.681480	-0.938119	1.107488
C92	C	-0.181480	-0.438119	1.607488
C93	C	-0.676987	-0.943103	1.011739
C94	C	-0.176987	-0.443103	1.511739
C95	C	-0.619223	-1.007074	0.964053
C96	C	-0.119223	-0.507074	1.464053
H97	H	-0.531013	-1.104743	1.143443
H98	H	-0.031013	-0.604743	1.643443
H99	H	-0.631536	-0.993417	1.226428
H100	H	-0.131536	-0.493417	1.726428
H101	H	-0.724240	-0.890764	1.142788
H102	H	-0.224240	-0.390764	1.642788
H103	H	-0.716421	-0.899436	0.976158
H104	H	-0.216421	-0.399436	1.476158
H105	H	-0.615897	-1.010763	0.893173
H106	H	-0.115897	-0.510763	1.393173
H107	H	-0.558073	-0.663453	0.557463
H108	H	-0.058073	-0.163453	1.057463
H109	H	-0.999303	-1.082762	0.550501
H110	H	-0.499303	-0.582762	1.050501
H111	H	-0.970175	-1.228417	0.419105
H112	H	-0.470175	-0.728417	0.919105
H113	H	-0.419464	-1.228317	0.970699
H114	H	0.080536	-0.728317	1.470699
