data_functionalizedCrystal
_audit_creation_method	'MofGen! by Chris Wilmer'
_symmetry_space_group_name_H-M	'P1'
_symmetry_Int_Tables_number	1
_symmetry_cell_setting	triclinic
loop_
_symmetry_equiv_pos_as_xyz
  x,y,z
_cell_length_a	13.339070
_cell_length_b	15.944551
_cell_length_c	11.804365
_cell_angle_alpha	101.830656
_cell_angle_beta	74.875130
_cell_angle_gamma	99.564016
loop_
_atom_site_label
_atom_site_type_symbol
_atom_site_fract_x
_atom_site_fract_y
_atom_site_fract_z
O1	O	1.362759	0.408901	-0.099080
O2	O	1.068226	0.353629	-0.099072
O3	O	1.223533	0.260866	-0.099066
O4	O	1.207452	0.501664	-0.099087
O5	O	1.182647	0.285253	0.098989
O6	O	1.027340	0.378016	0.098982
O7	O	1.321872	0.433288	0.098974
Cu8	Cu	1.170873	0.407879	0.117062
Cu9	Cu	1.219226	0.379038	-0.117160
O10	O	1.166565	0.526051	0.098968
C11	C	1.010093	0.356486	-0.000044
C12	C	0.897788	0.328657	-0.000040
C13	C	0.533018	0.545045	-0.000078
C14	C	0.638534	0.571194	-0.000085
C15	C	0.703352	0.510562	-0.000073
C16	C	0.662645	0.423776	-0.000055
C17	C	0.557121	0.397622	-0.000058
C18	C	0.727455	0.363140	-0.000053
C19	C	0.686748	0.276354	-0.000035
C20	C	0.581234	0.250205	-0.000037
C21	C	0.516415	0.310837	-0.000048
C22	C	0.832980	0.389293	-0.000051
C23	C	0.857083	0.241871	-0.000031
C24	C	0.751567	0.215721	-0.000024
C25	C	1.202422	0.241610	-0.000038
C26	C	1.200420	0.147897	-0.000038
C27	C	1.099370	-0.090508	-0.000051
C28	C	1.126136	-0.128567	0.097600
C29	C	1.196800	-0.023674	-0.000047
C30	C	1.166470	-0.152588	-0.097666
C31	C	1.193297	-0.189405	-0.000060
C32	C	1.223576	-0.060489	0.097685
C33	C	1.263915	-0.084518	-0.097668
C34	C	1.290747	-0.122540	0.000007
C35	C	1.198815	0.071799	-0.000038
C36	C	1.191288	-0.284874	-0.000061
C37	C	1.380006	0.430430	-0.000057
C38	C	1.492312	0.458259	-0.000068
C39	C	1.187677	0.545307	-0.000062
C40	C	1.189681	0.639019	-0.000071
N41	N	1.136871	0.428165	0.281801
N42	N	1.253235	0.358748	-0.281899
C43	C	1.334885	0.310017	0.655758
C44	C	1.360606	0.294667	0.531097
C45	C	1.304674	0.328040	0.468767
C46	C	1.223018	0.376766	0.531110
C47	C	1.197300	0.392123	0.655783
C48	C	1.167089	0.410146	0.468792
C49	C	1.085432	0.458872	0.531135
C50	C	1.059718	0.474226	0.655795
C51	C	1.115650	0.440854	0.718126
C52	C	1.192807	0.394789	0.344119
C53	C	1.055221	0.476895	0.344144
C54	C	1.029500	0.492245	0.468805
H55	H	0.866112	0.459956	-0.000061
O56	O	1.333246	-0.061249	-0.196283
C57	C	1.302840	-0.108784	-0.299041
H58	H	1.215533	-0.131886	-0.275643
H59	H	1.319941	-0.066007	-0.369904
H60	H	1.348459	-0.166896	-0.334671
O61	O	0.541689	0.165884	-0.000242
C62	C	0.502533	0.133722	-0.102804
H63	H	0.542295	0.174605	-0.174500
H64	H	0.519110	0.063994	-0.137230
H65	H	0.414536	0.136558	-0.079620
H66	H	0.993236	0.513910	0.706555
H67	H	1.142292	-0.192437	-0.180228
H68	H	0.789268	0.531858	-0.000082
O69	O	1.002810	-0.073248	0.000272
C70	C	0.930516	-0.095430	0.103413
H71	H	0.973807	-0.095072	0.175017
H72	H	0.871444	-0.046573	0.137493
H73	H	0.887837	-0.162579	0.081134
O74	O	0.950117	0.539472	0.529504
C75	C	0.872824	0.488784	0.601613
H76	H	0.909267	0.434764	0.620276
H77	H	0.838740	0.530900	0.689284
H78	H	0.807965	0.459702	0.553592
O79	O	1.387253	-0.139746	-0.000022
C80	C	1.384541	-0.228661	-0.000984
H81	H	1.316556	-0.265815	-0.039001
H82	H	1.461079	-0.251740	-0.058528
H83	H	1.373795	-0.240329	0.093795
H84	H	1.009678	0.504072	0.293396
H85	H	1.259292	0.355116	0.293371
O86	O	1.329758	0.313013	0.347673
C87	C	1.413838	0.262867	0.306013
H88	H	1.416669	0.225805	0.377859
H89	H	1.402544	0.215332	0.222624
H90	H	1.490288	0.306914	0.283865
H91	H	1.427091	0.254996	0.480342
O92	O	1.389186	0.277460	0.716179
C93	C	1.378997	0.186716	0.685763
H94	H	1.358687	0.166561	0.595251
H95	H	1.455912	0.162578	0.681502
H96	H	1.314157	0.157630	0.755938
O97	O	1.090654	0.455920	0.839225
C98	C	1.102648	0.545582	0.880867
H99	H	1.096742	0.581384	0.809025
H100	H	1.038510	0.562087	0.964276
H101	H	1.182387	0.565778	0.902973
O102	O	0.677976	0.655498	-0.000263
C103	C	0.666048	0.681298	-0.102861
H104	H	0.599927	0.637128	-0.137049
H105	H	0.646634	0.750671	-0.079808
H106	H	0.741935	0.676957	-0.174688
O107	O	0.469901	0.603829	-0.000039
C108	C	0.368048	0.562129	-0.000073
H109	H	0.356258	0.499829	0.037433
H110	H	0.308369	0.606342	0.057417
H111	H	0.357156	0.546498	-0.095092
H112	H	0.430494	0.289550	-0.000042
O113	O	0.712014	0.131403	-0.000226
C114	C	0.672852	0.099244	-0.102784
H115	H	0.712619	0.140123	-0.174483
H116	H	0.689417	0.029514	-0.137207
H117	H	0.584856	0.102090	-0.079596
H118	H	0.909859	0.192498	-0.000026
O119	O	1.056576	-0.152018	0.195966
C120	C	0.979450	-0.216704	0.160916
H121	H	1.011596	-0.251217	0.066825
H122	H	0.956830	-0.265177	0.224790
H123	H	0.907558	-0.186028	0.162791
H124	H	1.247689	-0.020727	0.180333
