data_functionalizedCrystal
_audit_creation_method	'MofGen! by Chris Wilmer'
_symmetry_space_group_name_H-M	'P1'
_symmetry_Int_Tables_number	1
_symmetry_cell_setting	triclinic
loop_
_symmetry_equiv_pos_as_xyz
  x,y,z
_cell_length_a	12.645331
_cell_length_b	18.050590
_cell_length_c	18.050582
_cell_angle_alpha	89.975956
_cell_angle_beta	89.983855
_cell_angle_gamma	90.018766
loop_
_atom_site_label
_atom_site_type_symbol
_atom_site_fract_x
_atom_site_fract_y
_atom_site_fract_z
Zn1	Zn	1.620655	-0.295697	-0.419915
Zn2	Zn	1.620555	-0.419882	-0.295723
Zn3	Zn	1.443390	-0.295711	-0.295738
Zn4	Zn	1.443349	-0.419850	-0.419871
O5	O	1.531987	-0.357785	-0.357812
O6	O	1.768989	-0.312178	-0.403453
O7	O	1.597029	-0.403429	-0.191801
O8	O	1.466964	-0.191784	-0.312235
O9	O	1.768915	-0.403416	-0.312210
O10	O	1.597200	-0.191774	-0.403467
O11	O	1.466867	-0.312201	-0.191812
O12	O	1.295038	-0.312171	-0.312193
O13	O	1.466893	-0.403362	-0.523802
O14	O	1.295007	-0.403375	-0.403393
O15	O	1.597160	-0.312147	-0.523834
O16	O	1.596989	-0.523802	-0.312167
O17	O	1.466796	-0.523779	-0.403378
C18	C	1.256557	-0.357772	-0.357790
C19	C	1.138727	-0.357784	-0.357798
C20	C	1.093829	-0.300318	-0.300518
C21	C	0.971269	-0.300105	-0.300714
C22	C	0.970885	-0.336922	-0.436197
C23	C	1.093483	-0.336492	-0.435839
C24	C	1.093514	-0.436283	-0.337419
C25	C	0.970907	-0.435873	-0.335720
C26	C	1.531906	-0.550737	-0.357782
C27	C	1.531968	-0.633283	-0.357795
C28	C	1.602914	-0.832719	-0.308263
C29	C	1.628803	-0.882057	-0.376044
C30	C	1.532028	-0.784413	-0.357824
C31	C	1.506247	-0.882157	-0.290074
C32	C	1.532088	-0.930398	-0.357847
C33	C	1.557967	-0.832664	-0.425640
C34	C	1.435366	-0.832760	-0.339625
C35	C	1.461218	-0.882075	-0.407452
C36	C	1.531996	-0.700315	-0.357810
C37	C	1.532120	-1.014495	-0.357869
C38	C	1.808492	-0.357799	-0.357835
C39	C	1.926322	-0.357805	-0.357844
C40	C	1.532033	-0.357750	-0.551518
C41	C	1.532053	-0.357735	-0.634064
C42	C	1.532098	-0.164079	-0.357858
C43	C	1.532145	-0.081534	-0.357878
C44	C	1.461280	-0.407256	-0.882872
C45	C	1.435369	-0.339519	-0.833485
C46	C	1.532142	-0.357626	-0.931184
C47	C	1.557958	-0.425413	-0.833489
C48	C	1.532096	-0.357683	-0.785199
C49	C	1.506182	-0.289852	-0.882884
C50	C	1.628816	-0.375791	-0.882893
C51	C	1.602942	-0.308007	-0.833529
C52	C	1.532166	-0.357594	-1.015282
C53	C	1.532072	-0.357707	-0.701102
C54	C	1.532003	-0.357767	-0.164860
C55	C	1.532188	-0.357573	-0.082315
H56	H	0.941959	-0.241943	-0.314249
H57	H	1.484234	-0.232533	-0.904491
C58	C	1.476747	-0.911521	-0.212663
H59	H	1.527161	-0.894612	-0.177506
H60	H	1.476345	-0.964142	-0.213333
H61	H	1.408541	-0.893909	-0.199388
H62	H	1.122546	-0.479095	-0.379140
H63	H	1.122100	-0.279121	-0.453065
H64	H	1.710574	-0.903713	-0.391451
C65	C	1.135206	-0.462043	-0.261514
H66	H	1.180581	-0.425158	-0.241540
H67	H	1.173390	-0.506979	-0.267326
H68	H	1.077359	-0.469864	-0.228839
C69	C	1.133595	-0.317691	-0.221783
H70	H	1.177942	-0.360144	-0.223135
H71	H	1.074912	-0.327045	-0.190268
H72	H	1.172493	-0.276602	-0.203374
C73	C	1.380297	-0.463849	-0.912150
H74	H	1.311624	-0.450837	-0.895231
H75	H	1.397977	-0.511861	-0.894513
H76	H	1.381316	-0.463746	-0.964775
C77	C	1.324932	-0.803479	-0.318791
H78	H	1.297756	-0.774519	-0.358404
H79	H	1.330011	-0.773797	-0.275492
H80	H	1.278890	-0.844061	-0.309630
C81	C	0.931560	-0.391738	-0.495458
H82	H	0.887505	-0.427931	-0.472888
H83	H	0.990438	-0.415415	-0.517975
H84	H	0.892453	-0.365682	-0.532068
H85	H	1.353594	-0.324174	-0.811782
C86	C	1.683864	-0.251280	-0.804434
H87	H	1.665334	-0.203190	-0.821439
H88	H	1.752349	-0.263752	-0.822099
H89	H	1.683811	-0.251890	-0.751808
H90	H	1.662880	-0.811047	-0.266395
H91	H	1.710567	-0.391157	-0.904612
C92	C	1.380275	-0.911175	-0.464146
H93	H	1.398784	-0.894135	-0.512237
H94	H	1.311794	-0.893548	-0.451621
H95	H	1.380330	-0.963802	-0.463565
C96	C	1.135464	-0.222182	-0.318558
H97	H	1.180087	-0.224429	-0.360849
H98	H	1.174440	-0.203750	-0.277531
H99	H	1.077545	-0.190165	-0.328441
H100	H	1.123190	-0.376546	-0.479996
H101	H	0.940204	-0.280187	-0.453730
C102	C	1.587494	-0.502822	-0.804185
H103	H	1.537093	-0.538002	-0.821090
H104	H	1.587903	-0.502184	-0.751564
H105	H	1.655704	-0.516044	-0.821839
H106	H	0.941777	-0.451626	-0.278055
C107	C	0.930555	-0.317696	-0.222243
H108	H	0.988942	-0.325034	-0.189956
H109	H	0.888669	-0.361370	-0.223584
H110	H	0.888951	-0.277522	-0.204768
C111	C	0.929585	-0.496783	-0.387946
H112	H	0.884406	-0.475302	-0.424092
H113	H	0.891267	-0.532494	-0.360099
H114	H	0.987598	-0.520120	-0.411885
H115	H	1.579716	-0.811016	-0.482994
