data_functionalizedCrystal
_audit_creation_method	'MofGen! by Chris Wilmer'
_symmetry_space_group_name_H-M	'P1'
_symmetry_Int_Tables_number	1
_symmetry_cell_setting	triclinic
loop_
_symmetry_equiv_pos_as_xyz
  x,y,z
_cell_length_a	13.032831
_cell_length_b	13.897448
_cell_length_c	13.897441
_cell_angle_alpha	90.030599
_cell_angle_beta	97.193526
_cell_angle_gamma	82.822399
loop_
_atom_site_label
_atom_site_type_symbol
_atom_site_fract_x
_atom_site_fract_y
_atom_site_fract_z
Zn1	Zn	1.597719	-0.571548	0.732369
Zn2	Zn	1.597604	-0.732856	0.571057
Zn3	Zn	1.422952	-0.551073	0.550633
Zn4	Zn	1.422932	-0.712283	0.711867
O5	O	1.510302	-0.641940	0.641481
O6	O	1.743946	-0.610124	0.728098
O7	O	1.574397	-0.708783	0.433361
O8	O	1.446192	-0.418814	0.574774
O9	O	1.743861	-0.728636	0.609582
O10	O	1.574592	-0.433857	0.708294
O11	O	1.446080	-0.575228	0.418356
O12	O	1.276708	-0.555280	0.554894
O13	O	1.446158	-0.693573	0.849573
O14	O	1.276694	-0.673720	0.673351
O15	O	1.574573	-0.590175	0.864635
O16	O	1.574377	-0.865102	0.589702
O17	O	1.446047	-0.849987	0.693155
C18	C	1.238782	-0.610047	0.609682
C19	C	1.122625	-0.596426	0.596101
C20	C	1.070858	-0.649049	0.648569
C21	C	0.950803	-0.634972	0.634534
C22	C	1.510226	-0.892545	0.641444
C23	C	1.510289	-0.999767	0.641472
C24	C	1.510399	-1.196075	0.641545
C25	C	1.510335	-1.086835	0.641507
C26	C	1.782882	-0.673959	0.673405
C27	C	1.899040	-0.687603	0.687009
C28	C	1.510376	-0.641863	0.893083
C29	C	1.510408	-0.641831	1.000301
C30	C	1.510407	-0.390359	0.641543
C31	C	1.510452	-0.283151	0.641569
C32	C	1.510288	-0.641954	0.390865
C33	C	1.510459	-0.641738	0.283672
C34	C	1.510436	-0.641769	1.196599
C35	C	1.510417	-0.641806	1.087365
H36	H	1.115419	-0.704520	0.703883
H37	H	1.078063	-0.540948	0.540795
N38	N	0.954908	-0.757214	0.756399
N39	N	0.906298	-0.806697	0.805730
H40	H	0.945754	-0.855860	0.854736
H41	H	0.906246	-0.579491	0.579224
