data_functionalizedCrystal
_audit_creation_method	'MofGen! by Chris Wilmer'
_symmetry_space_group_name_H-M	'P1'
_symmetry_Int_Tables_number	1
_symmetry_cell_setting	triclinic
loop_
_symmetry_equiv_pos_as_xyz
  x,y,z
_cell_length_a	19.188930
_cell_length_b	19.188925
_cell_length_c	10.868271
_cell_angle_alpha	89.995220
_cell_angle_beta	89.981803
_cell_angle_gamma	83.143665
loop_
_atom_site_label
_atom_site_type_symbol
_atom_site_fract_x
_atom_site_fract_y
_atom_site_fract_z
O1	O	0.926143	0.087168	-0.102717
O2	O	1.259476	0.420502	0.230617
O3	O	1.592810	0.753835	0.563950
O4	O	0.722831	0.098903	-0.102632
O5	O	1.056165	0.432236	0.230701
O6	O	1.389498	0.765569	0.564034
O7	O	0.830356	-0.008621	-0.102670
O8	O	1.163690	0.324713	0.230663
O9	O	1.497023	0.658046	0.563997
O10	O	0.818618	0.194691	-0.102679
O11	O	1.151951	0.528025	0.230654
O12	O	1.485285	0.861358	0.563988
O13	O	0.830347	-0.008625	0.101975
O14	O	1.163681	0.324709	0.435308
O15	O	1.497014	0.658042	0.768641
O16	O	0.722823	0.098898	0.102012
O17	O	1.056156	0.432232	0.435346
O18	O	1.389489	0.765565	0.768679
O19	O	0.926134	0.087164	0.101928
O20	O	1.259467	0.420497	0.435261
O21	O	1.592801	0.753831	0.768595
Zn22	Zn	0.824477	0.093031	0.134462
Zn23	Zn	1.157810	0.426364	0.467795
Zn24	Zn	1.491144	0.759697	0.801128
Zn25	Zn	0.824489	0.093036	-0.135166
Zn26	Zn	1.157822	0.426369	0.198167
Zn27	Zn	1.491155	0.759703	0.531500
O28	O	0.818609	0.194687	0.101966
O29	O	1.151943	0.528021	0.435299
O30	O	1.485276	0.861354	0.768632
C31	C	0.829972	-0.034634	-0.000348
C32	C	1.163306	0.298700	0.332985
C33	C	1.496639	0.632033	0.666318
C34	C	0.828833	-0.112138	-0.000350
C35	C	1.162167	0.221195	0.332983
C36	C	1.495500	0.554528	0.666316
C37	C	0.696816	0.098520	-0.000299
C38	C	1.030149	0.431854	0.333034
C39	C	1.363483	0.765187	0.666368
C40	C	0.619311	0.097380	-0.000267
C41	C	0.952645	0.430713	0.333066
C42	C	1.285978	0.764046	0.666400
C43	C	0.884297	-0.673909	-0.000405
C44	C	1.217630	-0.340575	0.332929
C45	C	1.550964	-0.007242	0.666262
C46	C	0.885374	-0.601085	-0.000394
C47	C	1.218707	-0.267752	0.332939
C48	C	1.552040	0.065581	0.666273
C49	C	0.822282	-0.556151	-0.000368
C50	C	1.155615	-0.222818	0.332965
C51	C	1.488948	0.110516	0.666299
C52	C	0.758108	-0.584045	-0.000321
C53	C	1.091441	-0.250712	0.333012
C54	C	1.424775	0.082622	0.666345
C55	C	0.757033	-0.656867	-0.000320
C56	C	1.090367	-0.323534	0.333014
C57	C	1.423700	0.009800	0.666347
N58	N	0.776608	-0.435469	-0.070005
N59	N	1.109942	-0.102136	0.263329
N60	N	1.443275	0.231198	0.596662
N61	N	0.777634	-0.366292	-0.070009
N62	N	1.110967	-0.032958	0.263324
N63	N	1.444300	0.300375	0.596658
C64	C	0.825516	-0.336742	-0.000370
C65	C	1.158849	-0.003408	0.332963
C66	C	1.492182	0.329925	0.666296
N67	N	0.872344	-0.378984	0.069257
N68	N	1.205678	-0.045651	0.402591
N69	N	1.539011	0.287683	0.735924
N70	N	0.871321	-0.448168	0.069256
N71	N	1.204654	-0.114834	0.402589
N72	N	1.537988	0.218499	0.735923
C73	C	0.823440	-0.477187	-0.000369
C74	C	1.156773	-0.143853	0.332964
C75	C	1.490106	0.189480	0.666298
C76	C	0.890852	-0.229893	-0.000397
C77	C	1.224185	0.103441	0.332937
C78	C	1.557519	0.436774	0.666270
C79	C	0.891926	-0.157068	-0.000378
C80	C	1.225259	0.176265	0.332955
C81	C	1.558593	0.509599	0.666288
C82	C	0.764659	-0.140029	-0.000318
C83	C	1.097992	0.193305	0.333015
C84	C	1.431325	0.526638	0.666349
C85	C	0.763587	-0.212852	-0.000324
C86	C	1.096920	0.120481	0.333009
C87	C	1.430253	0.453814	0.666343
C88	C	0.826685	-0.257780	-0.000369
C89	C	1.160019	0.075553	0.332964
C90	C	1.493352	0.408886	0.666297
C91	C	0.574386	0.160471	-0.000289
C92	C	0.907720	0.493804	0.333044
C93	C	1.241053	0.827137	0.666378
C94	C	0.501563	0.159399	-0.000302
C95	C	0.834896	0.492732	0.333031
C96	C	1.168229	0.826066	0.666364
C97	C	0.473667	0.095233	-0.000318
C98	C	0.807000	0.428566	0.333015
C99	C	1.140334	0.761900	0.666348
C100	C	0.518602	0.032134	-0.000289
C101	C	0.851936	0.365467	0.333044
C102	C	1.185269	0.698800	0.666377
C103	C	0.591424	0.033207	-0.000264
C104	C	0.924758	0.366540	0.333070
C105	C	1.258091	0.699874	0.666403
N106	N	0.365691	0.046187	-0.070015
N107	N	0.699024	0.379520	0.263318
N108	N	1.032358	0.712854	0.596651
N109	N	0.296512	0.045172	-0.070042
N110	N	0.629846	0.378505	0.263291
N111	N	0.963179	0.711838	0.596624
C112	C	0.254259	0.091995	-0.000394
C113	C	0.587592	0.425328	0.332940
C114	C	0.920925	0.758661	0.666273
N115	N	0.283795	0.139882	0.069268
N116	N	0.617129	0.473216	0.402601
N117	N	0.950462	0.806549	0.735935
N118	N	0.352980	0.140900	0.069290
N119	N	0.686313	0.474233	0.402623
N120	N	1.019647	0.807566	0.735956
C121	C	0.394705	0.094062	-0.000346
C122	C	0.728038	0.427395	0.332988
C123	C	1.061371	0.760728	0.666321
C124	C	0.130369	0.153928	-0.000429
C125	C	0.463702	0.487261	0.332905
C126	C	0.797036	0.820595	0.666238
C127	C	0.057544	0.152854	-0.000434
C128	C	0.390878	0.486187	0.332899
C129	C	0.724211	0.819520	0.666232
C130	C	0.074586	0.025586	-0.000434
C131	C	0.407919	0.358920	0.332899
C132	C	0.741252	0.692253	0.666233
C133	C	0.147409	0.026663	-0.000416
C134	C	0.480742	0.359996	0.332918
C135	C	0.814075	0.693329	0.666251
C136	C	0.175296	0.090835	-0.000419
C137	C	0.508629	0.424169	0.332915
C138	C	0.841962	0.757502	0.666248
C139	C	0.952149	0.087546	-0.000408
C140	C	1.285483	0.420880	0.332925
C141	C	1.618816	0.754213	0.666259
C142	C	1.029654	0.088687	-0.000448
C143	C	1.362987	0.422020	0.332885
C144	C	1.696321	0.755354	0.666218
C145	C	0.818993	0.220700	-0.000359
C146	C	1.152326	0.554034	0.332975
C147	C	1.485660	0.887367	0.666308
C148	C	0.820132	0.298205	-0.000365
C149	C	1.153466	0.631538	0.332968
C150	C	1.486799	0.964872	0.666302
N151	N	0.824474	0.093026	0.318476
N152	N	1.157807	0.426360	0.651809
N153	N	1.491141	0.759693	0.985143
N154	N	0.824497	0.093035	-0.319180
N155	N	1.157830	0.426368	0.014153
N156	N	1.491164	0.759701	0.347486
C157	C	0.824485	0.093035	0.569482
C158	C	1.157818	0.426368	0.902815
C159	C	1.491152	0.759701	1.236149
C160	C	0.824477	0.093032	0.429804
C161	C	1.157810	0.426365	0.763138
C162	C	1.491143	0.759699	1.096471
H163	H	0.935677	-0.710485	-0.000435
H164	H	1.269011	-0.377152	0.332899
H165	H	1.602344	-0.043818	0.666232
H166	H	0.183988	-0.024713	-0.000404
H167	H	0.517321	0.308620	0.332929
H168	H	0.850655	0.641953	0.666262
H169	H	0.628003	-0.018171	-0.000246
H170	H	0.961337	0.315162	0.333087
H171	H	1.294670	0.648496	0.666420
O172	O	0.954582	-0.570994	-0.000455
O173	O	1.287915	-0.237661	0.332879
O174	O	1.621249	0.095673	0.666212
H175	H	0.998277	-0.614470	-0.000496
H176	H	1.331610	-0.281136	0.332837
H177	H	1.664944	0.052197	0.666171
O178	O	0.604461	0.229685	-0.000283
O179	O	0.937794	0.563019	0.333050
O180	O	1.271127	0.896352	0.666384
H181	H	0.662647	0.219835	-0.000271
H182	H	0.995980	0.553169	0.333063
H183	H	1.329313	0.886502	0.666396
O184	O	0.690056	-0.535586	-0.000295
O185	O	1.023389	-0.202253	0.333038
O186	O	1.356723	0.131081	0.666372
H187	H	0.701583	-0.480263	-0.000315
H188	H	1.034916	-0.146929	0.333018
H189	H	1.368249	0.186404	0.666351
H190	H	0.711337	-0.235557	-0.000301
H191	H	1.044670	0.097776	0.333033
H192	H	1.378003	0.431110	0.666366
O193	O	0.687823	-0.686948	-0.000274
O194	O	1.021156	-0.353615	0.333060
O195	O	1.354490	-0.020282	0.666393
H196	H	0.684291	-0.719719	-0.083677
H197	H	1.017624	-0.386385	0.249656
H198	H	1.350958	-0.053052	0.582990
O199	O	0.958903	-0.278359	-0.000422
O200	O	1.292237	0.054975	0.332912
O201	O	1.625570	0.388308	0.666245
H202	H	1.003704	-0.246730	-0.000424
H203	H	1.337037	0.086604	0.332909
H204	H	1.670371	0.419937	0.666243
H205	H	0.495885	-0.020111	-0.000319
H206	H	0.829219	0.313222	0.333014
H207	H	1.162552	0.646556	0.666347
O208	O	0.044503	-0.043621	-0.000445
O209	O	0.377836	0.289713	0.332888
O210	O	0.711170	0.623046	0.666221
H211	H	0.062537	-0.073923	0.082978
H212	H	0.395871	0.259410	0.416311
H213	H	0.729204	0.592743	0.749644
H214	H	0.944179	-0.134365	-0.000403
H215	H	1.277512	0.198968	0.332930
H216	H	1.610845	0.532301	0.666264
H217	H	0.464977	0.210777	-0.000317
H218	H	0.798311	0.544110	0.333016
H219	H	1.131644	0.877444	0.666350
H220	H	0.713288	-0.103444	-0.000286
H221	H	1.046621	0.229890	0.333047
H222	H	1.379954	0.563223	0.666380
H223	H	0.153076	0.206181	-0.000413
H224	H	0.486409	0.539515	0.332920
H225	H	0.819742	0.872848	0.666254
H226	H	0.020966	0.204232	-0.000445
H227	H	0.354299	0.537566	0.332888
H228	H	0.687633	0.870899	0.666221
