data_functionalizedCrystal
_audit_creation_method	'MofGen! by Chris Wilmer'
_symmetry_space_group_name_H-M	'P1'
_symmetry_Int_Tables_number	1
_symmetry_cell_setting	triclinic
loop_
_symmetry_equiv_pos_as_xyz
  x,y,z
_cell_length_a	12.594517
_cell_length_b	11.169416
_cell_length_c	11.169409
_cell_angle_alpha	89.969126
_cell_angle_beta	89.976516
_cell_angle_gamma	90.010140
loop_
_atom_site_label
_atom_site_type_symbol
_atom_site_fract_x
_atom_site_fract_y
_atom_site_fract_z
Zn1	Zn	1.627332	-0.477716	-0.678672
Zn2	Zn	2.127332	0.022284	-0.178672
Zn3	Zn	1.627234	-0.678457	-0.477994
Zn4	Zn	2.127234	-0.178457	0.022006
Zn5	Zn	1.449329	-0.477786	-0.477994
Zn6	Zn	1.949329	0.022214	0.022006
Zn7	Zn	1.449336	-0.678355	-0.678626
Zn8	Zn	1.949336	-0.178355	-0.178626
O9	O	1.538308	-0.578079	-0.578322
O10	O	2.038308	-0.078079	-0.078322
O11	O	1.776265	-0.504358	-0.652071
O12	O	2.276265	-0.004358	-0.152071
O13	O	1.603590	-0.651909	-0.310044
O14	O	2.103590	-0.151909	0.189956
O15	O	1.472980	-0.309827	-0.504633
O16	O	1.972980	0.190173	-0.004633
O17	O	1.776193	-0.651842	-0.504634
O18	O	2.276193	-0.151842	-0.004634
O19	O	1.603758	-0.309776	-0.652071
O20	O	2.103758	0.190224	-0.152071
O21	O	1.472885	-0.504477	-0.310044
O22	O	1.972885	-0.004477	0.189956
O23	O	1.300384	-0.504378	-0.504589
O24	O	1.800384	-0.004378	-0.004589
O25	O	1.472991	-0.651669	-0.846582
O26	O	1.972991	-0.151669	-0.346582
O27	O	1.300389	-0.651736	-0.651992
O28	O	1.800389	-0.151736	-0.151992
O29	O	1.603764	-0.504260	-0.846616
O30	O	2.103764	-0.004260	-0.346616
O31	O	1.603597	-0.846393	-0.504589
O32	O	2.103597	-0.346393	-0.004589
O33	O	1.472896	-0.846319	-0.651993
O34	O	1.972896	-0.346319	-0.151993
C35	C	1.261767	-0.578054	-0.578286
C36	C	1.761767	-0.078054	-0.078286
C37	C	1.143461	-0.578073	-0.578300
C38	C	1.643461	-0.078073	-0.078300
C39	C	1.538265	-0.889903	-0.578312
C40	C	2.038265	-0.389903	-0.078312
C41	C	1.538345	-1.023303	-0.578349
C42	C	2.038345	-0.523303	-0.078349
C43	C	1.074175	-0.497816	-0.498279
C44	C	1.574175	0.002184	0.001721
C45	C	1.003372	-0.607295	-0.468764
C46	C	1.503372	-0.107295	0.031236
C47	C	1.003465	-0.468648	-0.607835
C48	C	1.503465	0.031352	-0.107835
C49	C	1.074217	-0.687609	-0.548727
C50	C	1.574217	-0.187609	-0.048727
C51	C	1.074316	-0.548889	-0.687849
C52	C	1.574316	-0.048889	-0.187849
C53	C	1.003545	-0.658443	-0.658375
C54	C	1.503545	-0.158443	-0.158375
C55	C	1.815928	-0.578104	-0.578358
C56	C	2.315928	-0.078104	-0.078358
C57	C	1.934234	-0.578114	-0.578373
C58	C	2.434234	-0.078114	-0.078373
C59	C	1.538389	-0.577945	-0.891364
C60	C	2.038389	-0.077945	-0.391364
C61	C	1.538424	-0.577888	-1.024764
C62	C	2.038424	-0.077888	-0.524764
C63	C	1.538379	-0.265036	-0.578357
C64	C	2.038379	0.234964	-0.078357
C65	C	1.538409	-0.131636	-0.578372
C66	C	2.038409	0.368364	-0.078372
C67	C	1.538287	-0.578125	-0.266497
C68	C	2.038287	-0.078125	0.233503
C69	C	1.538459	-0.577843	-0.133097
C70	C	2.038459	-0.077843	0.366903
H71	H	1.105187	-0.430011	-0.430526
H72	H	1.605187	0.069989	0.069474
Cl73	Cl	0.955960	-0.763373	-0.762903
Cl74	Cl	1.455960	-0.263373	-0.262903
H75	H	1.105501	-0.524145	-0.780434
H76	H	1.605501	-0.024145	-0.280434
Cl77	Cl	0.955473	-0.325751	-0.646356
Cl78	Cl	1.455473	0.174249	-0.146356
Cl79	Cl	0.955260	-0.645446	-0.325780
Cl80	Cl	1.455260	-0.145446	0.174220
H81	H	1.105166	-0.780194	-0.523673
H82	H	1.605166	-0.280194	-0.023673
