data_functionalizedCrystal
_audit_creation_method	'MofGen! by Chris Wilmer'
_symmetry_space_group_name_H-M	'P1'
_symmetry_Int_Tables_number	1
_symmetry_cell_setting	triclinic
loop_
_symmetry_equiv_pos_as_xyz
  x,y,z
_cell_length_a	10.654546
_cell_length_b	19.188930
_cell_length_c	9.730223
_cell_angle_alpha	90.005137
_cell_angle_beta	90.003777
_cell_angle_gamma	83.814132
loop_
_atom_site_label
_atom_site_type_symbol
_atom_site_fract_x
_atom_site_fract_y
_atom_site_fract_z
O1	O	1.665767	0.098046	0.114337
O2	O	1.300090	0.107391	0.114335
O3	O	1.493481	0.001132	0.114309
O4	O	1.472376	0.204305	0.114363
O5	O	1.493469	0.001137	-0.114271
O6	O	1.300078	0.107397	-0.114245
O7	O	1.665754	0.098052	-0.114243
Zn8	Zn	1.482914	0.102725	-0.150536
Zn9	Zn	1.482931	0.102717	0.150628
O10	O	1.472363	0.204311	-0.114217
C11	C	1.253300	0.106708	0.000044
C12	C	1.113900	0.104657	0.000042
C13	C	1.048433	0.103683	0.124647
C14	C	0.917453	0.101750	0.124658
C15	C	0.917420	0.101762	-0.124552
C16	C	1.048397	0.103700	-0.124562
C17	C	1.048451	0.103673	0.268527
C18	C	0.917472	0.101740	0.268538
C19	C	1.492791	-0.024881	0.000015
C20	C	1.490740	-0.102399	0.000004
C21	C	1.604215	-0.146581	-0.000002
C22	C	1.602288	-0.219418	0.000020
C23	C	1.486878	-0.248068	0.000020
C24	C	1.373388	-0.203876	0.000034
C25	C	1.375319	-0.131041	0.000025
N26	N	1.398657	-0.356648	-0.077771
N27	N	1.396831	-0.425838	-0.077766
C28	C	1.481054	-0.467515	0.000048
N29	N	1.567192	-0.437389	0.077839
N30	N	1.569022	-0.368192	0.077828
C31	C	1.484772	-0.327045	0.000030
C32	C	1.592448	-0.590676	0.000068
C33	C	1.590515	-0.663513	0.000098
C34	C	1.361612	-0.647970	0.000098
C35	C	1.363548	-0.575134	0.000082
C36	C	1.478969	-0.546492	0.000060
C37	C	1.712544	0.098734	0.000051
C38	C	1.851944	0.100786	0.000062
C39	C	1.473053	0.230323	0.000080
C40	C	1.475105	0.307841	0.000101
N41	N	1.482912	0.102730	-0.356072
C42	C	1.558838	0.145465	-0.427999
C43	C	1.558857	0.145452	-0.571882
C44	C	1.407014	0.059967	-0.571898
C45	C	1.407003	0.059977	-0.428018
C46	C	1.646499	0.194821	-0.427991
C47	C	1.646518	0.194808	-0.571874
N48	N	1.482943	0.102707	0.356165
H49	H	0.893703	0.052439	0.323767
H50	H	0.864071	0.100983	-0.226001
Cl51	Cl	0.836002	0.178499	0.337507
H52	H	1.686430	-0.567354	0.000056
Cl53	Cl	1.733184	-0.719059	0.000100
Cl54	Cl	1.311589	0.006224	-0.662355
H55	H	1.072230	0.152969	0.323783
Cl56	Cl	1.749316	-0.110578	0.000009
Cl57	Cl	1.216524	-0.683981	0.000107
Cl58	Cl	1.744954	-0.274972	0.000014
Cl59	Cl	1.228302	-0.239893	0.000045
Cl60	Cl	1.596964	0.279804	-0.632189
H61	H	1.101228	0.053950	0.313148
Cl62	Cl	1.232651	-0.075494	0.000032
Cl63	Cl	1.220884	-0.519587	0.000083
H64	H	1.345190	0.025171	-0.369461
H65	H	1.101693	0.104501	-0.226027
Cl66	Cl	1.799981	0.168336	-0.367671
Cl67	Cl	1.583643	0.275966	-0.359093
H68	H	1.741573	0.172861	-0.616481
