data_functionalizedCrystal
_audit_creation_method	'MofGen! by Chris Wilmer'
_symmetry_space_group_name_H-M	'P1'
_symmetry_Int_Tables_number	1
_symmetry_cell_setting	triclinic
loop_
_symmetry_equiv_pos_as_xyz
  x,y,z
_cell_length_a	11.792254
_cell_length_b	15.995350
_cell_length_c	10.868271
_cell_angle_alpha	89.997096
_cell_angle_beta	89.995741
_cell_angle_gamma	83.845486
loop_
_atom_site_label
_atom_site_type_symbol
_atom_site_fract_x
_atom_site_fract_y
_atom_site_fract_z
O1	O	1.505942	0.114814	-0.102315
O2	O	1.175504	0.126630	-0.102317
O3	O	1.349756	-0.001124	-0.102314
O4	O	1.331691	0.242568	-0.102317
O5	O	1.349742	-0.001129	0.102330
O6	O	1.175490	0.126625	0.102328
O7	O	1.505928	0.114809	0.102330
Zn8	Zn	1.340707	0.120716	0.134821
Zn9	Zn	1.340726	0.120723	-0.134807
O10	O	1.331676	0.242563	0.102328
C11	C	1.133213	0.125883	0.000005
C12	C	1.007218	0.123655	0.000004
C13	C	0.904897	0.121845	-0.000001
C14	C	0.776529	0.119581	-0.000002
C15	C	1.349002	-0.032325	0.000006
C16	C	1.346763	-0.125286	-0.000001
C17	C	1.338722	-0.463070	0.000003
C18	C	1.214623	-0.416203	-0.000457
C19	C	1.216863	-0.319503	0.000004
C20	C	1.342710	-0.295491	-0.000000
C21	C	1.403912	-0.336292	0.116860
C22	C	1.400795	-0.432942	0.116958
C23	C	1.403375	-0.433282	-0.115761
C24	C	1.403345	-0.336337	-0.117306
C25	C	1.344971	-0.200783	0.000002
C26	C	1.336465	-0.557778	0.000008
C27	C	1.548220	0.115556	0.000005
C28	C	1.674214	0.117784	-0.000002
C29	C	1.332430	0.273764	0.000005
C30	C	1.334669	0.366725	0.000004
N31	N	1.340702	0.120711	0.318835
N32	N	1.340739	0.120721	-0.318822
C33	C	1.340720	0.120721	0.569841
C34	C	1.340706	0.120718	0.430163
H35	H	1.168753	-0.291299	-0.083766
H36	H	1.361393	-0.308107	0.203826
C37	C	1.523868	-0.475952	0.124150
H38	H	1.522798	-0.535256	0.124255
H39	H	1.558825	-0.459194	0.197576
H40	H	1.565902	-0.459945	0.055043
H41	H	1.362807	-0.454005	-0.204334
H42	H	1.358599	-0.309291	-0.203756
C43	C	1.527327	-0.315025	-0.126844
H44	H	1.543809	-0.280790	-0.059103
H45	H	1.536945	-0.285634	-0.201431
H46	H	1.577722	-0.365511	-0.125853
C47	C	1.147611	-0.441549	-0.113654
H48	H	1.194710	-0.480944	-0.161648
H49	H	1.124790	-0.393076	-0.161779
H50	H	1.081995	-0.466285	-0.087364
H51	H	1.494872	-0.464625	-0.116550
H52	H	1.168418	-0.291862	0.083917
C53	C	1.147892	-0.442980	0.112109
H54	H	1.073007	-0.414380	0.111118
H55	H	1.185768	-0.429154	0.185299
H56	H	1.143716	-0.501933	0.109340
C57	C	1.340476	-0.457948	0.234958
H58	H	1.318100	-0.409058	0.282381
H59	H	1.391177	-0.495687	0.281683
H60	H	1.274917	-0.484509	0.213604
H61	H	1.496369	-0.321743	0.121203
