data_functionalizedCrystal
_audit_creation_method	'MofGen! by Chris Wilmer'
_symmetry_space_group_name_H-M	'P1'
_symmetry_Int_Tables_number	1
_symmetry_cell_setting	triclinic
loop_
_symmetry_equiv_pos_as_xyz
  x,y,z
_cell_length_a	14.853569
_cell_length_b	14.853567
_cell_length_c	9.198806
_cell_angle_alpha	89.999639
_cell_angle_beta	90.001722
_cell_angle_gamma	83.635248
loop_
_atom_site_label
_atom_site_type_symbol
_atom_site_fract_x
_atom_site_fract_y
_atom_site_fract_z
O1	O	1.196363	0.117709	0.120813
O2	O	0.933904	0.131729	0.120829
O3	O	1.072144	-0.006511	0.120825
O4	O	1.058123	0.255949	0.120817
O5	O	1.072134	-0.006512	-0.120960
O6	O	0.933893	0.131728	-0.120956
O7	O	1.196353	0.117708	-0.120972
Cu8	Cu	1.065122	0.124718	-0.143041
Cu9	Cu	1.065134	0.124719	0.142898
O10	O	1.058112	0.255948	-0.120968
C11	C	0.900310	0.131093	-0.000061
C12	C	0.800226	0.129189	-0.000054
C13	C	0.763850	0.046178	-0.000047
C14	C	0.742560	0.210410	-0.000068
C15	C	0.648526	0.208624	-0.000069
C16	C	0.612150	0.125613	-0.000062
C17	C	0.669807	0.044389	-0.000053
C18	C	0.590862	0.289847	-0.000094
C19	C	0.496821	0.288064	-0.000097
C20	C	0.460443	0.205052	-0.000079
C21	C	0.518107	0.123824	-0.000068
C22	C	0.481730	0.040813	-0.000060
C23	C	0.539393	-0.040415	-0.000039
C24	C	0.633429	-0.038623	-0.000035
C25	C	0.366407	0.203259	-0.000083
C26	C	0.387688	0.039024	-0.000066
C27	C	1.071504	-0.040100	-0.000063
C28	C	1.069600	-0.140183	-0.000050
C29	C	0.979434	-0.552718	-0.000072
C30	C	1.143667	-0.573998	-0.000082
C31	C	1.145457	-0.479964	-0.000074
C32	C	1.064234	-0.422303	-0.000067
C33	C	0.981222	-0.458675	-0.000068
C34	C	1.228468	-0.443585	-0.000087
C35	C	1.230262	-0.349545	-0.000080
C36	C	1.149038	-0.291882	-0.000063
C37	C	1.066022	-0.328260	-0.000063
C38	C	0.984800	-0.270599	-0.000056
C39	C	0.901783	-0.306974	-0.000045
C40	C	0.899998	-0.401012	-0.000051
C41	C	1.150822	-0.197845	-0.000057
C42	C	0.986587	-0.176556	-0.000052
C43	C	1.229947	0.118344	-0.000078
C44	C	1.330030	0.120249	-0.000075
C45	C	1.058753	0.289537	-0.000076
C46	C	1.060657	0.389621	-0.000079
N47	N	1.065120	0.124717	-0.344155
C48	C	1.123307	0.066548	-0.583757
C49	C	1.123295	0.066549	-0.416345
N50	N	1.065143	0.124714	0.344012
H51	H	0.319463	0.269395	-0.000113
H52	H	0.509763	-0.108003	-0.000023
H53	H	0.920445	-0.129613	-0.000040
Cl54	Cl	1.245769	-0.646486	-0.000115
Cl55	Cl	0.988250	0.201608	-0.560121
H56	H	0.680385	-0.104755	-0.000020
H57	H	1.173115	0.016751	-0.645855
Cl58	Cl	0.424341	0.390177	-0.000111
Cl59	Cl	0.341966	-0.065339	-0.000045
Cl60	Cl	0.795644	-0.446748	-0.000034
Cl61	Cl	0.836335	-0.055933	-0.000017
Cl62	Cl	1.255177	-0.152118	-0.000098
H63	H	1.173088	0.016747	-0.354230
H64	H	0.772184	0.277994	-0.000084
H65	H	1.015318	0.174514	-0.406260
Cl66	Cl	0.636596	0.394196	-0.000097
H67	H	0.835651	-0.260014	-0.000050
Cl68	Cl	1.334623	-0.303824	-0.000069
H69	H	0.911844	-0.582339	-0.000058
Cl70	Cl	1.330569	-0.516076	-0.000127
