data_functionalizedCrystal
_audit_creation_method	'MofGen! by Chris Wilmer'
_symmetry_space_group_name_H-M	'P1'
_symmetry_Int_Tables_number	1
_symmetry_cell_setting	triclinic
loop_
_symmetry_equiv_pos_as_xyz
  x,y,z
_cell_length_a	12.759393
_cell_length_b	12.759401
_cell_length_c	12.759400
_cell_angle_alpha	90.014845
_cell_angle_beta	90.031564
_cell_angle_gamma	90.018496
loop_
_atom_site_label
_atom_site_type_symbol
_atom_site_fract_x
_atom_site_fract_y
_atom_site_fract_z
Zn1	Zn	-0.593981	-1.606255	0.418200
Zn2	Zn	-0.418301	-1.606150	0.593919
Zn3	Zn	-0.418321	-1.430557	0.418255
Zn4	Zn	-0.593943	-1.430546	0.593838
O5	O	-0.506137	-1.518377	0.506053
O6	O	-0.570685	-1.753262	0.441520
O7	O	-0.271283	-1.582818	0.570673
O8	O	-0.441647	-1.453913	0.271226
O9	O	-0.441614	-1.753185	0.570620
O10	O	-0.570704	-1.582998	0.271186
O11	O	-0.271297	-1.453811	0.441614
O12	O	-0.441609	-1.283535	0.441535
O13	O	-0.740969	-1.453894	0.570482
O14	O	-0.570638	-1.283527	0.570536
O15	O	-0.740997	-1.582987	0.441442
O16	O	-0.441577	-1.582807	0.740929
O17	O	-0.570620	-1.453791	0.740870
C18	C	-0.506122	-1.245410	0.506033
C19	C	-0.506141	-1.128633	0.506050
C20	C	-0.506115	-1.518315	0.779020
C21	C	-0.506140	-1.518384	0.895797
C22	C	-0.780170	-1.518451	0.505947
C23	C	-0.896947	-1.518482	0.505902
C24	C	-0.951825	-1.585710	0.438704
C25	C	-1.061549	-1.585735	0.438666
C26	C	-1.061507	-1.451301	0.573033
C27	C	-0.951785	-1.451272	0.573064
C28	C	-0.896987	-1.652920	0.371541
C29	C	-0.951866	-1.720155	0.304339
C30	C	-1.061590	-1.720180	0.304301
C31	C	-1.116436	-1.652970	0.371465
C32	C	-0.233169	-1.518364	0.506083
C33	C	-0.116393	-1.518537	0.505832
C34	C	-0.506152	-1.792410	0.506073
C35	C	-0.506158	-1.909187	0.506082
C36	C	-0.573215	-1.073794	0.573328
C37	C	-0.573227	-0.964070	0.573342
C38	C	-0.439081	-0.964034	0.438796
C39	C	-0.439075	-1.073756	0.438778
C40	C	-0.640281	-1.128672	0.640600
C41	C	-0.707360	-1.073833	0.707885
C42	C	-0.707371	-0.964109	0.707898
C43	C	-0.640304	-0.909224	0.640627
C44	C	-0.506182	-1.518468	0.232019
C45	C	-0.506201	-1.518507	0.115243
C46	C	-0.439022	-1.585637	0.950655
C47	C	-0.439054	-1.585702	1.060379
C48	C	-0.573327	-1.451252	1.060377
C49	C	-0.573299	-1.451193	0.950655
C50	C	-0.371864	-1.652828	0.895797
C51	C	-0.304739	-1.720086	0.950655
C52	C	-0.304771	-1.720150	1.060379
C53	C	-0.371929	-1.652957	1.115245
H54	H	-0.807644	-1.652910	0.371567
H55	H	-0.371958	-1.653024	1.204589
O56	O	-1.115019	-1.785530	0.239164
C57	C	-1.178463	-1.853397	0.298965
H58	H	-1.194879	-1.816319	0.378576
H59	H	-1.255631	-1.867506	0.256145
H60	H	-1.136184	-1.931243	0.310528
H61	H	-1.205780	-1.652984	0.371417
H62	H	-1.106171	-1.396582	0.627714
H63	H	-0.907203	-1.774867	0.249649
H64	H	-0.384466	-1.118407	0.383987
O65	O	-0.898631	-1.385957	0.638460
C66	C	-0.970558	-1.326640	0.697732
H67	H	-1.048782	-1.369680	0.701330
H68	H	-0.938839	-1.315428	0.780524
H69	H	-0.982215	-1.246849	0.659273
O70	O	-0.640437	-1.235256	0.640688
C71	C	-0.713991	-1.271937	0.714508
H72	H	-0.775355	-1.208732	0.729306
H73	H	-0.753906	-1.345365	0.682848
H74	H	-0.672190	-1.291375	0.791061
O75	O	-0.772659	-1.127097	0.773112
C76	C	-0.877412	-1.100312	0.750295
H77	H	-0.882864	-1.070163	0.666373
H78	H	-0.929295	-1.172489	0.759398
H79	H	-0.904783	-1.036626	0.806663
O80	O	-0.772643	-0.910790	0.773100
C81	C	-0.840597	-0.847338	0.713379
H82	H	-0.847231	-0.880415	0.630636
H83	H	-0.921382	-0.846123	0.751479
H84	H	-0.808127	-0.764168	0.709733
O85	O	-0.640144	-0.802637	0.640645
C86	C	-0.539428	-0.765905	0.667542
H87	H	-0.478917	-0.829093	0.649509
H88	H	-0.520864	-0.692489	0.620146
H89	H	-0.537059	-0.746430	0.754717
O90	O	-0.638536	-1.385772	0.897522
C91	C	-0.697834	-1.326496	0.969466
H92	H	-0.654816	-1.322906	1.047716
H93	H	-0.708978	-1.243702	0.937811
H94	H	-0.777655	-1.364947	0.981048
O95	O	-0.373896	-0.910884	0.373362
C96	C	-0.314671	-0.982816	0.313994
H97	H	-0.357706	-1.061046	0.310389
H98	H	-0.303605	-0.951114	0.231211
H99	H	-0.234813	-0.994453	0.352375
H100	H	-0.371827	-1.652780	0.806454
O101	O	-0.638454	-1.386013	1.113833
C102	C	-0.624103	-1.400504	1.222440
H103	H	-0.543056	-1.434965	1.237461
H104	H	-0.631169	-1.321826	1.264198
H105	H	-0.686476	-1.456435	1.253484
O106	O	-0.239543	-1.785257	0.897201
C107	C	-0.253922	-1.770799	0.788593
H108	H	-0.288258	-1.689693	0.773646
H109	H	-0.175219	-1.777943	0.746954
H110	H	-0.309913	-1.833070	0.757356
O111	O	-0.239475	-1.785517	1.113507
C112	C	-0.180219	-1.844824	1.041555
H113	H	-0.176526	-1.801748	0.963380
H114	H	-0.097458	-1.856090	1.073315
H115	H	-0.218753	-1.924592	1.029787
