data_functionalizedCrystal
_audit_creation_method	'MofGen! by Chris Wilmer'
_symmetry_space_group_name_H-M	'P1'
_symmetry_Int_Tables_number	1
_symmetry_cell_setting	triclinic
loop_
_symmetry_equiv_pos_as_xyz
  x,y,z
_cell_length_a	8.497374
_cell_length_b	8.497374
_cell_length_c	16.959455
_cell_angle_alpha	90.002432
_cell_angle_beta	90.001960
_cell_angle_gamma	90.005237
loop_
_atom_site_label
_atom_site_type_symbol
_atom_site_fract_x
_atom_site_fract_y
_atom_site_fract_z
Zn1	Zn	0.628458	0.892136	1.208395
Zn2	Zn	0.892204	0.628402	1.208389
Zn3	Zn	0.628417	0.628360	1.076251
Zn4	Zn	0.892176	0.892130	1.076232
O5	O	0.760314	0.760257	1.142317
O6	O	0.663473	0.857171	1.319005
O7	O	0.857207	0.407634	1.190866
O8	O	0.407660	0.663336	1.093791
O9	O	0.857246	0.663407	1.319001
O10	O	0.407690	0.857131	1.190877
O11	O	0.663404	0.407603	1.093785
O12	O	0.663377	0.663330	0.965638
O13	O	0.857198	1.112893	1.093759
O14	O	0.857159	0.857120	0.965624
O15	O	0.663446	1.112898	1.190858
O16	O	1.112962	0.663401	1.190848
O17	O	1.112942	0.857161	1.093753
C18	C	0.760262	0.760221	0.936951
C19	C	0.760277	0.760243	0.849094
C20	C	1.170194	0.760280	1.142307
C21	C	1.348838	0.760254	1.142328
C22	C	0.760316	1.171737	1.142311
C23	C	0.760333	1.350381	1.142313
C24	C	0.659329	0.659561	0.477601
C25	C	0.861429	0.861043	0.477636
C26	C	0.861406	0.861034	0.560182
C27	C	0.760345	0.760284	0.601441
C28	C	0.659306	0.659545	0.560155
C29	C	0.962454	0.961760	0.601474
C30	C	0.962437	0.961753	0.684025
C31	C	0.861366	0.861011	0.725286
C32	C	0.760322	0.760268	0.683995
C33	C	0.659261	0.659519	0.725254
C34	C	0.558208	0.558783	0.683964
C35	C	0.558236	0.558802	0.601416
C36	C	0.861339	0.860992	0.807834
C37	C	0.659239	0.659503	0.807808
C38	C	0.760367	0.760294	1.348485
C39	C	0.760390	0.760310	1.436342
H40	H	0.576932	0.577469	0.841396
H41	H	0.475966	0.476787	0.567790
H42	H	1.044743	1.043773	0.567874
O43	O	0.460263	0.460838	0.724136
C44	C	0.549926	0.358781	0.771866
H45	H	0.669569	0.414241	0.784234
H46	H	0.567070	0.241849	0.740046
C47	C	0.316141	0.262223	0.835088
C48	C	0.463085	0.330346	0.850284
H49	H	0.262572	0.244675	0.883459
H50	H	0.255732	0.330976	0.802930
H51	H	0.330449	0.164786	0.808570
H52	H	0.448774	0.427788	0.876792
H53	H	0.523489	0.261608	0.882448
O54	O	0.959269	0.958909	0.848031
C55	C	0.869602	1.060960	0.895762
H56	H	0.749952	1.005506	0.908113
H57	H	0.852474	1.177902	0.863954
C58	C	1.103378	1.157486	0.959018
C59	C	0.956425	1.089370	0.974192
H60	H	1.156935	1.175017	1.007396
H61	H	1.163790	1.088737	0.926858
H62	H	1.089083	1.254930	0.932509
H63	H	0.970722	0.991919	1.000692
H64	H	0.896017	1.158103	1.006358
O65	O	0.560946	0.561877	0.437534
C66	C	0.403768	0.596558	0.457716
H67	H	0.396000	0.722596	0.480417
H68	H	0.362394	0.512032	0.505625
C69	C	0.308001	0.423567	0.356499
C70	C	0.298458	0.578373	0.384374
H71	H	0.243038	0.412344	0.311260
H72	H	0.413895	0.400196	0.342903
H73	H	0.273525	0.353146	0.396430
H74	H	0.332952	0.648790	0.344447
H75	H	0.192568	0.601756	0.397961
O76	O	0.959448	0.958852	0.437437
C77	C	0.937836	0.937230	0.355724
H78	H	0.816012	0.885741	0.344436
H79	H	1.031287	0.853084	0.332304
C80	C	1.102179	1.160070	0.327214
C81	C	0.952548	1.096843	0.313349
H82	H	1.111262	1.258524	0.301074
H83	H	1.116746	1.174634	0.382265
H84	H	1.180039	1.089933	0.307697
H85	H	0.874693	1.166970	0.332875
H86	H	0.937969	1.082294	0.258299
H87	H	1.044719	1.043779	0.717636
