data_functionalizedCrystal
_audit_creation_method	'MofGen! by Chris Wilmer'
_symmetry_space_group_name_H-M	'P1'
_symmetry_Int_Tables_number	1
_symmetry_cell_setting	triclinic
loop_
_symmetry_equiv_pos_as_xyz
  x,y,z
_cell_length_a	15.944551
_cell_length_b	10.654541
_cell_length_c	9.730217
_cell_angle_alpha	90.003041
_cell_angle_beta	89.996919
_cell_angle_gamma	83.991333
loop_
_atom_site_label
_atom_site_type_symbol
_atom_site_fract_x
_atom_site_fract_y
_atom_site_fract_z
O1	O	-1.115457	-0.161964	-0.114146
O2	O	-0.871023	-0.181933	-0.114180
O3	O	-0.998861	0.010863	-0.114154
O4	O	-0.987619	-0.354761	-0.114172
O5	O	-0.998857	0.010865	0.114426
O6	O	-0.871019	-0.181931	0.114400
O7	O	-1.115453	-0.161963	0.114434
Zn8	Zn	-0.993235	-0.171947	0.150709
Zn9	Zn	-0.993241	-0.171949	-0.150455
O10	O	-0.987615	-0.354759	0.114408
C11	C	-0.839722	-0.181103	0.000106
C12	C	-0.746462	-0.178618	0.000093
C13	C	-0.998034	0.057652	0.000135
C14	C	-0.995566	0.197063	0.000133
C15	C	-1.146754	-0.162793	0.000145
C16	C	-1.240014	-0.165278	0.000149
C17	C	-0.530880	-0.053173	0.000126
C18	C	-0.470198	-0.111426	-0.112579
C19	C	-0.575710	-0.174122	0.000109
C20	C	-0.470217	-0.111453	0.112783
C21	C	-0.410772	-0.169770	0.000131
C22	C	-0.516257	-0.232408	-0.112689
C23	C	-0.516282	-0.232418	0.112775
C24	C	-0.455618	-0.290760	0.000042
C25	C	-0.670727	-0.176625	0.000096
C26	C	-0.315756	-0.167276	0.000135
C27	C	-0.988442	-0.401548	0.000116
C28	C	-0.990910	-0.540959	0.000109
N29	N	-0.993238	-0.171944	0.356246
C30	C	-1.148431	0.227012	0.000171
C31	C	-1.223700	0.307480	0.000193
C32	C	-1.221376	0.438468	0.000189
C33	C	-1.143774	0.488989	0.000158
C34	C	-1.068504	0.408521	0.000136
C35	C	-1.070837	0.277532	0.000145
C36	C	-0.915641	0.378573	0.000087
C37	C	-0.917963	0.247584	0.000102
C38	C	-0.838039	0.429094	0.000057
C39	C	-0.762767	0.348625	0.000045
C40	C	-0.765095	0.217630	0.000051
C41	C	-0.842694	0.167116	0.000080
N42	N	-0.993245	-0.171941	-0.355991
C43	C	-1.106485	-0.001272	0.356260
C44	C	-1.163115	0.084060	0.428206
C45	C	-1.163123	0.084061	0.572086
C46	C	-1.106495	-0.001277	0.644022
C47	C	-1.049865	-0.086610	0.572076
C48	C	-1.049865	-0.086604	0.428192
C49	C	-0.936615	-0.257274	0.572062
C50	C	-0.936609	-0.257283	0.428182
C51	C	-0.879987	-0.342612	0.643998
C52	C	-0.823360	-0.427953	0.572051
C53	C	-0.823355	-0.427951	0.428163
C54	C	-0.879980	-0.342615	0.356235
H55	H	-0.449794	-0.060271	-0.207858
H56	H	-0.536542	-0.283527	-0.208076
H57	H	-0.699590	0.389771	0.000011
O58	O	-1.294468	0.516693	-0.000034
C59	C	-1.297690	0.593374	-0.118400
H60	H	-1.255026	0.545393	-0.201156
H61	H	-1.365267	0.608111	-0.158117
H62	H	-1.275382	0.688621	-0.091643
H63	H	-1.209233	0.153551	0.630665
H64	H	-0.423041	-0.391241	-0.000026
H65	H	-0.777253	-0.497424	0.630631
O66	O	-0.540636	-0.293211	0.226583
C67	C	-0.517412	-0.229131	0.345185
H68	H	-0.510053	-0.126747	0.318188
H69	H	-0.568357	-0.232197	0.426966
H70	H	-0.455047	-0.276630	0.386306
H71	H	-0.449833	-0.060274	0.208063
O72	O	-0.768375	-0.510726	0.358065
C73	C	-0.780524	-0.492460	0.215646
H74	H	-0.811346	-0.392650	0.195993
H75	H	-0.716995	-0.506363	0.160964
H76	H	-0.823054	-0.563593	0.174815
H77	H	-1.141888	0.595648	0.000137
H78	H	-1.150331	0.120356	0.000194
O79	O	-1.218128	0.166777	0.358114
C80	C	-1.205989	0.148475	0.215694
H81	H	-1.175114	0.048690	0.196056
H82	H	-1.269527	0.162276	0.161046
H83	H	-1.163510	0.219658	0.174814
O84	O	-0.879855	-0.342744	0.783762
C85	C	-0.817748	-0.436382	0.831821
H86	H	-0.767836	-0.458225	0.748904
H87	H	-0.786949	-0.400971	0.928083
H88	H	-0.848235	-0.525665	0.857340
H89	H	-1.106498	-0.001261	0.761177
H90	H	-1.286883	0.266331	0.000231
O91	O	-0.691897	0.139646	0.000086
C92	C	-0.622913	0.212332	0.000018
H93	H	-0.643660	0.310097	0.043296
H94	H	-0.570119	0.164023	0.066361
H95	H	-0.599178	0.221653	-0.109654
H96	H	-0.836151	0.535752	0.000045
H97	H	-0.844597	0.060461	0.000093
H98	H	-0.563632	0.047204	-0.000009
H99	H	-1.106491	-0.001274	0.239105
H100	H	-0.879984	-0.342611	0.239081
