data_functionalizedCrystal
_audit_creation_method	'MofGen! by Chris Wilmer'
_symmetry_space_group_name_H-M	'P1'
_symmetry_Int_Tables_number	1
_symmetry_cell_setting	triclinic
loop_
_symmetry_equiv_pos_as_xyz
  x,y,z
_cell_length_a	15.711784
_cell_length_b	15.625163
_cell_length_c	10.065875
_cell_angle_alpha	116.590969
_cell_angle_beta	78.600525
_cell_angle_gamma	101.029999
loop_
_atom_site_label
_atom_site_type_symbol
_atom_site_fract_x
_atom_site_fract_y
_atom_site_fract_z
O1	O	1.132284	0.505590	0.136710
O2	O	0.884481	0.434085	0.101326
O3	O	1.022517	0.335497	0.052528
O4	O	0.994249	0.604178	0.185507
O5	O	0.996189	0.354407	0.288876
O6	O	0.858154	0.452994	0.337674
O7	O	1.105957	0.524500	0.373058
Zn8	Zn	0.977875	0.491749	0.392891
Zn9	Zn	1.012563	0.466835	0.081492
O10	O	0.967921	0.623087	0.421856
C11	C	0.839744	0.431858	0.213719
C12	C	0.745666	0.397041	0.196489
C13	C	1.010685	0.309770	0.153287
C14	C	1.014642	0.204935	0.101391
C15	C	0.627796	0.265967	0.131617
C16	C	0.716195	0.298692	0.147813
C17	C	0.686742	0.462703	0.228982
C18	C	0.598340	0.429991	0.212786
C19	C	0.568874	0.331622	0.164105
C20	C	0.539417	0.495646	0.245274
C21	C	0.451022	0.462937	0.229087
C22	C	0.421548	0.364572	0.180412
C23	C	0.480478	0.298913	0.147918
C24	C	0.568884	0.594016	0.293965
C25	C	0.509961	0.659671	0.326453
C26	C	0.421565	0.626961	0.310256
C27	C	0.392092	0.528596	0.261581
C28	C	0.362635	0.692620	0.342750
C29	C	0.274239	0.659911	0.326563
C30	C	0.303696	0.495887	0.245394
C31	C	1.034568	0.046871	-0.100574
C32	C	1.030848	0.145380	-0.051796
C33	C	1.002143	0.165994	0.205861
C34	C	1.005856	0.067483	0.157104
C35	C	1.022070	0.007929	0.003884
C36	C	0.993358	0.028541	0.261562
C37	C	0.997075	-0.069960	0.212809
C38	C	1.013290	-0.129520	0.059597
C39	C	1.025787	-0.090573	-0.044869
C40	C	0.977151	0.088098	0.414782
C41	C	0.964653	0.049156	0.519240
C42	C	0.968364	-0.049348	0.470487
C43	C	0.984579	-0.108908	0.317275
C44	C	0.955868	-0.088296	0.574953
C45	C	0.959585	-0.186797	0.526199
C46	C	0.988296	-0.207409	0.268521
C47	C	1.150694	0.526726	0.260662
C48	C	1.244774	0.561542	0.277882
C49	C	0.979754	0.648814	0.321094
C50	C	0.975798	0.753649	0.372980
N51	N	0.954208	0.508754	0.605414
N52	N	1.036237	0.449825	-0.131033
C53	C	1.004323	0.472744	0.655369
C54	C	0.986115	0.485841	0.819019
H55	H	0.279706	0.415784	0.205738
H56	H	0.533964	0.739764	0.366095
H57	H	0.640861	0.620645	0.307149
H58	H	1.041026	0.177081	-0.136871
C59	C	0.945833	-0.229636	0.641109
N60	N	0.935478	-0.261902	0.727663
H61	H	0.897819	0.549276	0.683797
H62	H	0.942675	-0.039791	0.699705
H63	H	0.988946	0.214497	0.330613
C64	C	0.324310	0.328591	0.162604
N65	N	0.251070	0.301490	0.149187
C66	C	1.043594	-0.156094	-0.213422
N67	N	1.056999	-0.205446	-0.340371
C68	C	0.395059	0.800825	0.396312
N69	N	0.419480	0.882326	0.436655
C70	C	0.448063	0.190700	0.094351
N71	N	0.423648	0.109198	0.054008
C72	C	1.080486	0.417973	0.549468
N73	N	1.137850	0.376712	0.469701
C74	C	0.209423	0.732134	0.362289
N75	N	0.160602	0.786535	0.389198
C76	C	0.909932	0.540589	0.924903
N77	N	0.852551	0.581824	1.004657
C78	C	0.595381	0.157754	0.078051
N79	N	0.570965	0.076252	0.037707
C80	C	1.006103	-0.272931	0.099968
N81	N	1.019508	-0.322283	-0.026981
C82	C	1.052375	-0.018651	-0.269127
N83	N	1.065780	-0.068003	-0.396076
C84	C	0.719165	0.570907	0.282530
N85	N	0.743586	0.652407	0.322858
C86	C	0.781010	0.226457	0.112060
N87	N	0.829828	0.172051	0.085132
H88	H	1.016319	-0.209726	0.019904
C89	C	1.112421	0.395078	0.763086
N90	N	1.169805	0.353846	0.683337
H91	H	0.974128	0.168304	0.454472
C92	C	0.946812	0.114675	0.687777
N93	N	0.933368	0.164022	0.814721
