data_functionalizedCrystal
_audit_creation_method	'MofGen! by Chris Wilmer'
_symmetry_space_group_name_H-M	'P1'
_symmetry_Int_Tables_number	1
_symmetry_cell_setting	triclinic
loop_
_symmetry_equiv_pos_as_xyz
  x,y,z
_cell_length_a	14.044191
_cell_length_b	14.044220
_cell_length_c	7.540329
_cell_angle_alpha	89.995368
_cell_angle_beta	89.999427
_cell_angle_gamma	93.190327
loop_
_atom_site_label
_atom_site_type_symbol
_atom_site_fract_x
_atom_site_fract_y
_atom_site_fract_z
O1	O	1.277170	0.230198	-0.147405
O2	O	1.000498	0.221886	-0.147427
O3	O	1.134681	0.087706	-0.147398
O4	O	1.142987	0.364378	-0.147433
O5	O	1.134672	0.087704	0.147567
O6	O	1.000489	0.221883	0.147538
O7	O	1.277162	0.230196	0.147560
Cu8	Cu	1.138824	0.226039	0.174482
Cu9	Cu	1.138835	0.226042	-0.174348
O10	O	1.142978	0.364375	0.147532
C11	C	0.964872	0.218248	0.000053
C12	C	0.858728	0.207401	0.000045
C13	C	0.613270	0.264501	0.000056
C14	C	0.664395	0.187585	0.000062
C15	C	0.772532	0.198613	0.000053
C16	C	0.505123	0.253474	0.000065
C17	C	1.131041	0.052083	0.000085
C18	C	1.120197	-0.054060	0.000086
C19	C	1.312788	0.233834	0.000077
C20	C	1.418931	0.244681	0.000073
C21	C	1.100370	-0.248398	0.000059
C22	C	1.177285	-0.299526	0.000059
C23	C	1.166253	-0.407663	0.000044
C24	C	1.111400	-0.140252	0.000074
C25	C	1.146618	0.399998	0.000045
C26	C	1.157463	0.506142	0.000032
N27	N	1.138824	0.226037	0.419831
N28	N	1.138842	0.226037	-0.419697
H29	H	0.650711	0.338628	0.000041
H30	H	1.251419	-0.262085	-0.000054
C31	C	1.000227	-0.298967	0.000048
H32	H	0.953415	-0.252670	0.000039
H33	H	0.992737	-0.337723	0.102901
H34	H	0.992742	-0.337703	-0.102833
C35	C	0.613819	0.087438	0.000046
H36	H	0.546720	0.093065	0.000029
H37	H	0.631758	0.053721	0.102897
H38	H	0.631765	0.053751	-0.102838
