data_functionalizedCrystal
_audit_creation_method	'MofGen! by Chris Wilmer'
_symmetry_space_group_name_H-M	'P1'
_symmetry_Int_Tables_number	1
_symmetry_cell_setting	triclinic
loop_
_symmetry_equiv_pos_as_xyz
  x,y,z
_cell_length_a	12.759399
_cell_length_b	12.759401
_cell_length_c	12.759393
_cell_angle_alpha	90.017895
_cell_angle_beta	90.030208
_cell_angle_gamma	90.018380
loop_
_atom_site_label
_atom_site_type_symbol
_atom_site_fract_x
_atom_site_fract_y
_atom_site_fract_z
Zn1	Zn	-0.418122	1.606250	0.593974
Zn2	Zn	-0.593841	1.606142	0.418299
Zn3	Zn	-0.418185	1.430552	0.418316
Zn4	Zn	-0.593768	1.430538	0.593942
O5	O	-0.505979	1.518371	0.506133
O6	O	-0.441435	1.753257	0.570677
O7	O	-0.570597	1.582810	0.271280
O8	O	-0.271156	1.453910	0.441638
O9	O	-0.570535	1.753177	0.441609
O10	O	-0.271109	1.582994	0.570694
O11	O	-0.441543	1.453805	0.271292
O12	O	-0.441473	1.283529	0.441606
O13	O	-0.570412	1.453886	0.740967
O14	O	-0.570473	1.283519	0.570638
O15	O	-0.441365	1.582981	0.740991
O16	O	-0.740852	1.582797	0.441578
O17	O	-0.740799	1.453782	0.570622
C18	C	-0.505973	1.245403	0.506121
C19	C	-0.505996	1.128627	0.506141
C20	C	-0.778946	1.518305	0.506117
C21	C	-0.895723	1.518373	0.506146
C22	C	-0.505873	1.518444	0.780166
C23	C	-0.505828	1.518476	0.896943
C24	C	-1.060422	1.451323	0.438929
C25	C	-0.950698	1.451253	0.438910
C26	C	-0.950478	1.585558	0.573412
C27	C	-1.060200	1.585622	0.573435
C28	C	-1.115391	1.384207	0.371681
C29	C	-1.060644	1.317019	0.304415
C30	C	-0.950920	1.316950	0.304397
C31	C	-0.895943	1.384067	0.371643
C32	C	-0.231946	1.518465	0.506171
C33	C	-0.115169	1.518506	0.506188
C34	C	-0.505986	1.792404	0.506145
C35	C	-0.505989	1.909181	0.506150
C36	C	-0.438773	1.964085	0.573343
C37	C	-0.438778	2.073810	0.573341
C38	C	-0.573219	2.073714	0.438946
C39	C	-0.573218	1.963992	0.438953
C40	C	-0.371543	1.909274	0.640539
C41	C	-0.304321	1.964179	0.707737
C42	C	-0.304326	2.073903	0.707735
C43	C	-0.371555	2.128722	0.640537
C44	C	-0.506009	1.518358	0.233165
C45	C	-0.505758	1.518530	0.116389
C46	C	-0.438627	1.585704	0.951819
C47	C	-0.438589	1.585729	1.061543
C48	C	-0.572962	1.451294	1.061505
C49	C	-0.572994	1.451264	0.951783
C50	C	-0.371461	1.652916	0.896979
C51	C	-0.304255	1.720151	0.951855
C52	C	-0.304217	1.720176	1.061579
C53	C	-0.371385	1.652966	1.116427
H54	H	-1.204734	1.384258	0.371686
Br55	Br	-0.875867	1.676640	0.664670
Br56	Br	-1.134507	1.676801	0.664716
H57	H	-1.105413	1.262368	0.249672
Br58	Br	-0.664450	2.148111	0.347752
H59	H	-0.371527	1.819931	0.640543
H60	H	-0.627954	1.919287	0.384241
H61	H	-0.371486	1.652905	0.807636
H62	H	-0.906346	1.262236	0.249634
Br63	Br	-0.213101	1.889786	0.798944
H64	H	-0.249598	2.118604	0.762457
Br65	Br	-0.747032	1.383569	0.372018
Br66	Br	-0.371572	2.277635	0.640548
H67	H	-0.249488	1.774914	1.106256
H68	H	-0.249563	1.774864	0.907191
Br69	Br	-0.371313	1.652983	1.265340
H70	H	-0.627646	1.396574	1.106171
Br71	Br	-0.664192	1.360019	0.877301
