data_functionalizedCrystal
_audit_creation_method	'MofGen! by Chris Wilmer'
_symmetry_space_group_name_H-M	'P1'
_symmetry_Int_Tables_number	1
_symmetry_cell_setting	triclinic
loop_
_symmetry_equiv_pos_as_xyz
  x,y,z
_cell_length_a	15.298068
_cell_length_b	15.297327
_cell_length_c	10.686551
_cell_angle_alpha	83.957836
_cell_angle_beta	103.236829
_cell_angle_gamma	110.796215
loop_
_atom_site_label
_atom_site_type_symbol
_atom_site_fract_x
_atom_site_fract_y
_atom_site_fract_z
Zn1	Zn	1.429067	-0.053207	1.072928
Zn2	Zn	1.390076	-0.220708	0.892981
Zn3	Zn	1.257438	-0.096212	0.830718
Zn4	Zn	1.246561	-0.235584	1.072722
O5	O	1.330785	-0.151428	0.967337
O6	O	1.555783	-0.051204	1.075201
O7	O	1.360715	-0.215965	0.708134
O8	O	1.301074	0.037920	0.836877
O9	O	1.527137	-0.174266	0.942995
O10	O	1.427169	0.069515	1.014828
O11	O	1.263266	-0.124498	0.662390
O12	O	1.124106	-0.138923	0.836677
O13	O	1.282537	-0.199620	1.249337
O14	O	1.116115	-0.241319	1.014476
O15	O	1.416623	-0.065628	1.249489
O16	O	1.350168	-0.351109	0.942795
O17	O	1.244729	-0.362038	1.074850
C18	C	1.085913	-0.196402	0.918799
C19	C	0.981154	-0.215663	0.898068
C20	C	0.745493	-0.014001	1.115551
C21	C	0.843919	0.004093	1.135036
C22	C	0.878233	-0.050844	1.075796
C23	C	0.814111	-0.123879	0.997067
C24	C	0.715674	-0.141979	0.977588
C25	C	0.848414	-0.178822	0.937833
C26	C	0.784292	-0.251857	0.859104
C27	C	0.685866	-0.269954	0.839628
C28	C	0.651552	-0.215017	0.898868
C29	C	0.946851	-0.160722	0.957312
C30	C	0.917032	-0.288700	0.819349
C31	C	0.818606	-0.306794	0.799863
C32	C	1.292065	-0.389867	1.015589
C33	C	1.275589	-0.491853	1.036290
C34	C	1.448957	-0.756397	0.819888
C35	C	1.464436	-0.660576	0.800431
C36	C	1.417226	-0.618391	0.859395
C37	C	1.354534	-0.672036	0.937817
C38	C	1.339048	-0.767867	0.957268
C39	C	1.307316	-0.629861	0.996775
C40	C	1.244624	-0.683506	1.075197
C41	C	1.229141	-0.779328	1.094645
C42	C	1.276351	-0.821514	1.035682
C43	C	1.322803	-0.534029	0.977324
C44	C	1.212893	-0.545500	1.114704
C45	C	1.197414	-0.641320	1.134161
C46	C	1.576613	-0.106278	1.016066
C47	C	1.681371	-0.087038	1.036832
C48	C	1.352716	-0.129486	1.296480
C49	C	1.362062	-0.120136	1.436742
C50	C	1.369684	0.087949	0.918930
C51	C	1.386261	0.189957	0.898302
C52	C	1.309005	-0.173208	0.639472
C53	C	1.299884	-0.182266	0.499195
H54	H	0.999050	-0.101255	1.021412
H55	H	0.717544	0.030716	1.163785
C56	C	0.615329	-0.350299	0.753050
H57	H	0.551793	-0.353217	0.749946
H58	H	0.627988	-0.339467	0.668742
H59	H	0.622681	-0.407791	0.787071
C60	C	1.500876	-0.802799	0.755029
H61	H	1.540428	-0.757130	0.705533
H62	H	1.539097	-0.829380	0.819051
H63	H	1.455129	-0.850508	0.700459
H64	H	1.373847	-0.490360	0.913471
C65	C	1.160182	-0.838340	1.180904
H66	H	1.157717	-0.901452	1.184036
H67	H	1.182122	-0.814421	1.265234
H68	H	1.098156	-0.835563	1.146641
C69	C	1.218307	-0.263787	1.426476
H70	H	1.222511	-0.259585	1.338581
H71	H	1.223494	-0.321499	1.463217
H72	H	1.158582	-0.260559	1.432744
H73	H	1.422452	-0.059790	1.490584
H74	H	0.766384	-0.366261	0.735763
H75	H	0.958377	-0.036105	1.091661
C76	C	1.259329	-0.926916	1.057095
H77	H	1.215234	-0.952825	1.112249
H78	H	1.234149	-0.957054	0.976838
H79	H	1.318111	-0.935894	1.095437
C80	C	1.533397	-0.601572	0.714184
H81	H	1.559304	-0.640416	0.681863
H82	H	1.499746	-0.574518	0.644444
H83	H	1.583705	-0.553385	0.763048
C84	C	0.543281	-0.234925	0.877437
H85	H	0.510005	-0.286289	0.822065
H86	H	0.523859	-0.249549	0.957659
H87	H	0.529183	-0.181216	0.839340
H88	H	1.174448	-0.511154	1.162714
H89	H	0.896121	0.063556	1.199142
H90	H	0.944969	-0.333439	0.771117
H91	H	1.429832	-0.540369	0.843547
H92	H	1.146369	-0.685012	1.198013
