data_functionalizedCrystal
_audit_creation_method	'MofGen! by Chris Wilmer'
_symmetry_space_group_name_H-M	'P1'
_symmetry_Int_Tables_number	1
_symmetry_cell_setting	triclinic
loop_
_symmetry_equiv_pos_as_xyz
  x,y,z
_cell_length_a	14.908520
_cell_length_b	19.805407
_cell_length_c	19.805399
_cell_angle_alpha	89.982197
_cell_angle_beta	93.270609
_cell_angle_gamma	93.317992
loop_
_atom_site_label
_atom_site_type_symbol
_atom_site_fract_x
_atom_site_fract_y
_atom_site_fract_z
Zn1	Zn	-0.359245	1.019201	-0.398241
Zn2	Zn	0.140755	1.519201	0.101759
Zn3	Zn	-0.510110	1.012592	-0.291584
Zn4	Zn	-0.010110	1.512592	0.208416
Zn5	Zn	-0.359263	0.906015	-0.285069
Zn6	Zn	0.140737	1.406015	0.214931
Zn7	Zn	-0.510055	0.899457	-0.404732
Zn8	Zn	-0.010055	1.399457	0.095268
O9	O	-0.434668	0.959316	-0.344906
O10	O	0.065332	1.459316	0.155094
O11	O	-0.379273	1.113040	-0.384102
O12	O	0.120727	1.613040	0.115898
O13	O	-0.490130	0.998432	-0.196004
O14	O	0.009870	1.498432	0.303996
O15	O	-0.233015	0.926539	-0.294639
O16	O	0.266985	1.426539	0.205361
O17	O	-0.490113	1.108184	-0.305742
O18	O	0.009887	1.608184	0.194258
O19	O	-0.233002	1.009697	-0.377785
O20	O	0.266998	1.509697	0.122215
O21	O	-0.379303	0.920131	-0.191218
O22	O	0.120697	1.420131	0.308782
O23	O	-0.379250	0.810429	-0.300933
O24	O	0.120750	1.310429	0.199067
O25	O	-0.490019	0.915363	-0.498586
O26	O	0.009981	1.415363	0.001414
O27	O	-0.490037	0.805611	-0.388849
O28	O	0.009963	1.305611	0.111151
O29	O	-0.379220	1.003338	-0.493817
O30	O	0.120780	1.503338	0.006183
O31	O	-0.636348	0.992074	-0.312036
O32	O	-0.136348	1.492074	0.187964
O33	O	-0.636307	0.908955	-0.395165
O34	O	-0.136307	1.408955	0.104835
C35	C	-0.434640	0.783461	-0.344889
C36	C	0.065360	1.283461	0.155111
C37	C	-0.434650	0.708229	-0.344898
C38	C	0.065350	1.208229	0.155102
C39	C	-0.377037	0.675409	-0.385771
C40	C	0.122963	1.175409	0.114229
C41	C	-0.377042	0.604721	-0.385773
C42	C	0.122958	1.104721	0.114227
C43	C	-0.434664	0.566853	-0.344907
C44	C	0.065336	1.066853	0.155093
C45	C	-0.492279	0.599677	-0.304030
C46	C	0.007721	1.099677	0.195970
C47	C	-0.492269	0.670365	-0.304024
C48	C	0.007731	1.170365	0.195976
C49	C	-0.492320	0.314602	-0.304052
C50	C	0.007680	0.814602	0.195948
C51	C	-0.492327	0.243910	-0.304063
C52	C	0.007673	0.743910	0.195937
C53	C	-0.377092	0.248958	-0.385802
C54	C	0.122908	0.748958	0.114198
C55	C	-0.377082	0.319646	-0.385796
C56	C	0.122918	0.819646	0.114204
C57	C	-0.434694	0.352464	-0.344917
C58	C	0.065306	0.852464	0.155083
C59	C	-0.434687	0.429113	-0.344913
C60	C	0.065313	0.929113	0.155087
C61	C	-0.434676	0.490205	-0.344914
C62	C	0.065324	0.990205	0.155086
C63	C	-0.669061	0.949104	-0.355027
C64	C	-0.169061	1.449104	0.144973
C65	C	-0.769336	0.944797	-0.359379
C66	C	-0.269336	1.444797	0.140621
C67	C	-0.957743	1.023345	-0.281064
C68	C	-0.457743	1.523345	0.218936
C69	C	-1.051960	1.019301	-0.285151
C70	C	-0.551960	1.519301	0.214849
C71	C	-1.051988	0.932668	-0.371643
C72	C	-0.551988	1.432668	0.128357
C73	C	-0.957771	0.936712	-0.367556
C74	C	-0.457771	1.436712	0.132444
C75	C	-0.910652	0.982052	-0.322264
C76	C	-0.410652	1.482052	0.177736
C77	C	-0.816433	0.986092	-0.318174
C78	C	-0.316433	1.486092	0.181826
C79	C	-0.816463	0.899463	-0.404669
C80	C	-0.316463	1.399463	0.095331
C81	C	-0.910680	0.895419	-0.408756
C82	C	-0.410680	1.395419	0.091244
C83	C	-0.199360	0.969587	-0.334761
C84	C	0.300640	1.469587	0.165239
C85	C	-0.099085	0.973963	-0.330438
C86	C	0.400915	1.473963	0.169562
C87	C	-0.434611	0.959357	-0.521447
C88	C	0.065389	1.459357	-0.021447
C89	C	-0.434587	0.959374	-0.596678
C90	C	0.065413	1.459374	-0.096678
C91	C	-0.434697	1.135858	-0.344925
C92	C	0.065303	1.635858	0.155075
C93	C	-0.434709	1.211089	-0.344932
C94	C	0.065291	1.711089	0.155068
C95	C	-0.376891	1.005183	-0.629540
C96	C	0.123109	1.505183	-0.129540
C97	C	-0.376865	1.005191	-0.700227
C98	C	0.123135	1.505191	-0.200227
C99	C	-0.434540	0.959393	-0.738051
C100	C	0.065460	1.459393	-0.238051
C101	C	-0.492239	0.913578	-0.705185
C102	C	0.007761	1.413578	-0.205185
C103	C	-0.492260	0.913567	-0.634498
C104	C	0.007740	1.413567	-0.134498
C105	C	-0.492155	0.913620	-0.990254
C106	C	0.007845	1.413620	-0.490254
C107	C	-0.492131	0.913636	-1.060946
C108	C	0.007869	1.413636	-0.560946
C109	C	-0.376760	1.005244	-1.055983
C110	C	0.123240	1.505244	-0.555983
C111	C	-0.376781	1.005233	-0.985297
C112	C	0.123219	1.505233	-0.485297
C113	C	-0.434476	0.959417	-0.952436
C114	C	0.065524	1.459417	-0.452436
C115	C	-0.434502	0.959408	-0.875789
C116	C	0.065498	1.459408	-0.375789
C117	C	-0.434519	0.959404	-0.814698
C118	C	0.065481	1.459404	-0.314698
C119	C	-0.434660	0.959318	-0.169050
C120	C	0.065340	1.459318	0.330950
C121	C	-0.434430	0.959443	-0.093809
C122	C	0.065570	1.459443	0.406191
H123	H	-0.330163	0.350474	-0.419076
H124	H	0.169837	0.850474	0.080924
H125	H	-0.329885	1.042496	-0.726980
H126	H	0.170115	1.542496	-0.226980
H127	H	-0.330179	0.222229	-0.419085
H128	H	0.169821	0.722229	0.080915
H129	H	-0.778070	1.023008	-0.281294
H130	H	-0.278070	1.523008	0.218706
H131	H	-0.539196	0.876286	-0.735987
H132	H	-0.039196	1.376286	-0.235987
C133	C	-0.555618	0.863218	-0.954117
C134	C	-0.055618	1.363218	-0.454117
N135	N	-0.603421	0.825252	-0.926896
N136	N	-0.103421	1.325252	-0.426896
C137	C	-1.103757	1.064725	-0.239825
C138	C	-0.603757	1.564725	0.260175
N139	N	-1.142770	1.098939	-0.205683
N140	N	-0.642770	1.598939	0.294317
H141	H	-0.539233	0.876258	-0.607743
H142	H	-0.039233	1.376258	-0.107743
H143	H	-0.539231	0.341314	-0.270766
H144	H	-0.039231	0.841314	0.229234
C145	C	-0.905910	1.073217	-0.231242
C146	C	-0.405910	1.573217	0.268758
N147	N	-0.866871	1.110782	-0.193716
N148	N	-0.366871	1.610782	0.306284
C149	C	-0.555712	0.202256	-0.259099
C150	C	-0.055712	0.702256	0.240901
N151	N	-0.603449	0.170883	-0.225232
N152	N	-0.103449	0.670883	0.274768
H153	H	-1.090368	0.895759	-0.408521
H154	H	-0.590368	1.395759	0.091479
C155	C	-0.313666	0.568622	-0.430739
C156	C	0.186334	1.068622	0.069261
N157	N	-0.265929	0.541434	-0.464609
N158	N	0.234071	1.041434	0.035391
C159	C	-0.555663	0.558020	-0.259075
C160	C	-0.055663	1.058020	0.240925
N161	N	-0.603408	0.526644	-0.225216
N162	N	-0.103408	1.026644	0.274784
H163	H	-0.539182	0.697085	-0.270741
H164	H	-0.039182	1.197085	0.229259
C165	C	-0.962521	0.845544	-0.458570
C166	C	-0.462521	1.345544	0.041430
N167	N	-1.001568	0.807975	-0.496088
N168	N	-0.501568	1.307975	0.003912
H169	H	-0.539099	0.876338	-1.091741
H170	H	-0.039099	1.376338	-0.591741
H171	H	-0.778111	0.865837	-0.438215
H172	H	-0.278111	1.365837	0.061785
C173	C	-0.313441	1.055566	-0.587939
C174	C	0.186559	1.555566	-0.087939
N175	N	-0.265646	1.093514	-0.556607
N176	N	0.234354	1.593514	-0.056607
C177	C	-0.313330	1.055613	-0.943694
C178	C	0.186670	1.555613	-0.443694
N179	N	-0.265533	1.093557	-0.912359
N180	N	0.234467	1.593557	-0.412359
C181	C	-0.313282	1.055636	-1.092136
C182	C	0.186718	1.555636	-0.592136
N183	N	-0.265472	1.093590	-1.119365
N184	N	0.234528	1.593590	-0.619365
H185	H	-0.330117	0.706237	-0.419051
H186	H	0.169883	1.206237	0.080949
