data_functionalizedCrystal
_audit_creation_method	'MofGen! by Chris Wilmer'
_symmetry_space_group_name_H-M	'P1'
_symmetry_Int_Tables_number	1
_symmetry_cell_setting	triclinic
loop_
_symmetry_equiv_pos_as_xyz
  x,y,z
_cell_length_a	16.109318
_cell_length_b	14.586319
_cell_length_c	16.109301
_cell_angle_alpha	90.005214
_cell_angle_beta	83.465022
_cell_angle_gamma	89.999925
loop_
_atom_site_label
_atom_site_type_symbol
_atom_site_fract_x
_atom_site_fract_y
_atom_site_fract_z
O1	O	1.103122	0.076167	0.106935
O2	O	1.353122	0.326167	0.356935
O3	O	1.603122	0.576167	0.606935
O4	O	1.853122	0.826167	0.856935
O5	O	0.861062	0.076186	0.120219
O6	O	1.111062	0.326186	0.370219
O7	O	1.361062	0.576186	0.620219
O8	O	1.611062	0.826186	0.870219
O9	O	0.988741	0.076167	-0.007454
O10	O	1.238741	0.326167	0.242546
O11	O	1.488741	0.576167	0.492546
O12	O	1.738741	0.826167	0.742546
O13	O	0.975442	0.076186	0.234607
O14	O	1.225442	0.326186	0.484607
O15	O	1.475442	0.576186	0.734607
O16	O	1.725442	0.826186	0.984607
O17	O	0.988733	-0.076314	-0.007456
O18	O	1.238733	0.173686	0.242544
O19	O	1.488733	0.423686	0.492544
O20	O	1.738733	0.673686	0.742544
O21	O	0.861053	-0.076295	0.120217
O22	O	1.111053	0.173705	0.370217
O23	O	1.361053	0.423705	0.620217
O24	O	1.611053	0.673705	0.870217
O25	O	1.103113	-0.076314	0.106933
O26	O	1.353113	0.173686	0.356933
O27	O	1.603113	0.423686	0.606933
O28	O	1.853113	0.673686	0.856933
Cu29	Cu	0.982082	-0.090227	0.113575
Cu30	Cu	1.232082	0.159773	0.363575
Cu31	Cu	1.482082	0.409773	0.613575
Cu32	Cu	1.732082	0.659773	0.863575
Cu33	Cu	0.982093	0.090099	0.113577
Cu34	Cu	1.232093	0.340099	0.363577
Cu35	Cu	1.482093	0.590099	0.613577
Cu36	Cu	1.732093	0.840099	0.863577
O37	O	0.975433	-0.076294	0.234606
O38	O	1.225433	0.173706	0.484606
O39	O	1.475433	0.423706	0.734606
O40	O	1.725433	0.673706	0.984606
C41	C	0.830083	-0.000052	0.119677
C42	C	1.080083	0.249948	0.369677
C43	C	1.330083	0.499948	0.619677
C44	C	1.580083	0.749948	0.869677
C45	C	0.737788	-0.000045	0.118057
C46	C	0.987788	0.249955	0.368057
C47	C	1.237788	0.499955	0.618057
C48	C	1.487788	0.749955	0.868057
C49	C	0.438719	0.083055	0.112823
C50	C	0.688719	0.333055	0.362823
C51	C	0.938719	0.583055	0.612823
C52	C	1.188719	0.833055	0.862823
C53	C	0.525441	0.083061	0.114340
C54	C	0.775441	0.333061	0.364340
C55	C	1.025441	0.583061	0.614340
C56	C	1.275441	0.833061	0.864340
C57	C	0.525450	-0.083182	0.114327
C58	C	0.775450	0.166818	0.364327
C59	C	1.025450	0.416818	0.614327
C60	C	1.275450	0.666818	0.864327
C61	C	0.438731	-0.083187	0.112803
C62	C	0.688731	0.166813	0.362803
C63	C	0.938731	0.416813	0.612803
C64	C	1.188731	0.666813	0.862803
C65	C	0.395367	-0.000065	0.112056
C66	C	0.645367	0.249935	0.362056
C67	C	0.895367	0.499935	0.612056
C68	C	1.145367	0.749935	0.862056
C69	C	0.568807	-0.000055	0.115096
C70	C	0.818807	0.249945	0.365096
C71	C	1.068807	0.499945	0.615096
C72	C	1.318807	0.749945	0.865096
C73	C	0.662835	-0.000049	0.116742
C74	C	0.912835	0.249951	0.366742
C75	C	1.162835	0.499951	0.616742
C76	C	1.412835	0.749951	0.866742
C77	C	0.301334	-0.000070	0.110409
C78	C	0.551334	0.249930	0.360409
C79	C	0.801334	0.499930	0.610409
C80	C	1.051334	0.749930	0.860409
N81	N	0.982081	-0.217059	0.113573
N82	N	1.232081	0.032941	0.363573
N83	N	1.482081	0.282941	0.613573
N84	N	1.732081	0.532941	0.863573
C85	C	1.038636	-0.452074	0.057058
C86	C	1.288636	-0.202074	0.307058
C87	C	1.538636	0.047926	0.557058
C88	C	1.788636	0.297926	0.807058
C89	C	1.038638	-0.548055	0.057056
C90	C	1.288638	-0.298055	0.307056
C91	C	1.538638	-0.048055	0.557056
C92	C	1.788638	0.201945	0.807056
C93	C	0.925539	-0.548047	0.170090
C94	C	1.175539	-0.298047	0.420090
C95	C	1.425539	-0.048047	0.670090
C96	C	1.675539	0.201953	0.920090
C97	C	0.925534	-0.452068	0.170087
C98	C	1.175534	-0.202068	0.420087
C99	C	1.425534	0.047932	0.670087
C100	C	1.675534	0.297932	0.920087
C101	C	0.982087	-0.404084	0.113572
C102	C	1.232087	-0.154084	0.363572
C103	C	1.482087	0.095916	0.613572
C104	C	1.732087	0.345916	0.863572
C105	C	0.982095	-0.596044	0.113573
C106	C	1.232095	-0.346044	0.363573
C107	C	1.482095	-0.096044	0.613573
C108	C	1.732095	0.153956	0.863573
C109	C	0.982097	-0.700111	0.113571
C110	C	1.232097	-0.450111	0.363571
C111	C	1.482097	-0.200111	0.613571
C112	C	1.732097	0.049889	0.863571
C113	C	0.982084	-0.300010	0.113573
C114	C	1.232084	-0.050010	0.363573
C115	C	1.482084	0.199990	0.613573
C116	C	1.732084	0.449990	0.863573
C117	C	1.134092	-0.000074	0.107474
C118	C	1.384092	0.249926	0.357474
C119	C	1.634092	0.499926	0.607474
C120	C	1.884092	0.749926	0.857474
C121	C	1.226387	-0.000075	0.109095
C122	C	1.476387	0.249925	0.359095
C123	C	1.726387	0.499925	0.609095
C124	C	1.976387	0.749925	0.859095
C125	C	0.988198	-0.000074	-0.038430
C126	C	1.238198	0.249926	0.211570
C127	C	1.488198	0.499926	0.461570
C128	C	1.738198	0.749926	0.711570
C129	C	0.986583	-0.000075	-0.130725
C130	C	1.236583	0.249925	0.119275
C131	C	1.486583	0.499925	0.369275
C132	C	1.736583	0.749925	0.619275
N133	N	0.982100	0.216931	0.113573
N134	N	1.232100	0.466931	0.363573
N135	N	1.482100	0.716931	0.613573
N136	N	1.732100	0.966931	0.863573
C137	C	1.058590	-0.000067	-0.352993
C138	C	1.308590	0.249933	-0.102993
C139	C	1.558590	0.499933	0.147007
C140	C	1.808590	0.749933	0.397007
C141	C	1.057066	-0.000059	-0.439713
C142	C	1.307066	0.249941	-0.189713
C143	C	1.557066	0.499941	0.060287
C144	C	1.807066	0.749941	0.310287
C145	C	0.905579	-0.000051	-0.419848
C146	C	1.155579	0.249949	-0.169848
C147	C	1.405579	0.499949	0.080152
C148	C	1.655579	0.749949	0.330152
C149	C	0.907104	-0.000052	-0.333130
C150	C	1.157104	0.249948	-0.083130
C151	C	1.407104	0.499948	0.166870
C152	C	1.657104	0.749948	0.416870
C153	C	0.983612	-0.000064	-0.299704
C154	C	1.233612	0.249936	-0.049704
C155	C	1.483612	0.499936	0.200296
C156	C	1.733612	0.749936	0.450296
C157	C	0.980563	-0.000056	-0.473144
C158	C	1.230563	0.249944	-0.223144
C159	C	1.480563	0.499944	0.026856
C160	C	1.730563	0.749944	0.276856
C161	C	0.978910	-0.000047	-0.567170
C162	C	1.228910	0.249953	-0.317170
C163	C	1.478910	0.499953	-0.067170
C164	C	1.728910	0.749953	0.182830
C165	C	0.985265	-0.000071	-0.205672
C166	C	1.235265	0.249929	0.044328
C167	C	1.485265	0.499929	0.294328
C168	C	1.735265	0.749929	0.544328
C169	C	0.975976	-0.000052	0.265581
C170	C	1.225976	0.249948	0.515581
C171	C	1.475976	0.499948	0.765581
C172	C	1.725976	0.749948	1.015581
C173	C	0.977592	-0.000044	0.357877
C174	C	1.227592	0.249956	0.607877
C175	C	1.477592	0.499956	0.857877
C176	C	1.727592	0.749956	1.107877
H177	H	0.560734	0.150746	0.114964
H178	H	0.810734	0.400746	0.364964
H179	H	1.060734	0.650746	0.614964
H180	H	1.310734	0.900746	0.864964
H181	H	1.118121	-0.000059	-0.483098
H182	H	1.368121	0.249941	-0.233098
H183	H	1.618121	0.499941	0.016902
H184	H	1.868121	0.749941	0.266902
H185	H	0.403415	0.150738	0.112213
H186	H	0.653415	0.400738	0.362213
H187	H	0.903415	0.650738	0.612213
H188	H	1.153415	0.900738	0.862213
H189	H	1.120888	-0.000075	-0.325781
H190	H	1.370888	0.249925	-0.075781
H191	H	1.620888	0.499925	0.174219
H192	H	1.870888	0.749925	0.424219
H193	H	0.843288	-0.000042	-0.447074
H194	H	1.093288	0.249958	-0.197074
H195	H	1.343288	0.499958	0.052926
H196	H	1.593288	0.749958	0.302926
H197	H	0.846043	-0.000047	-0.289740
H198	H	1.096043	0.249953	-0.039740
H199	H	1.346043	0.499953	0.210260
H200	H	1.596043	0.749953	0.460260
Br201	Br	0.379891	-0.196002	0.111757
Br202	Br	0.629891	0.053998	0.361757
Br203	Br	0.879891	0.303998	0.611757
Br204	Br	1.129891	0.553998	0.861757
H205	H	0.560767	-0.150856	0.114937
H206	H	0.810767	0.099144	0.364937
H207	H	1.060767	0.349144	0.614937
H208	H	1.310767	0.599144	0.864937
Br209	Br	1.115385	-0.386956	-0.019642
Br210	Br	1.365385	-0.136956	0.230358
Br211	Br	1.615385	0.113044	0.480358
Br212	Br	1.865385	0.363044	0.730358
H213	H	1.084685	-0.587126	0.011036
H214	H	1.334685	-0.337126	0.261036
H215	H	1.584685	-0.087126	0.511036
H216	H	1.834685	0.162874	0.761036
H217	H	0.879496	-0.587126	0.216104
H218	H	1.129496	-0.337126	0.466104
H219	H	1.379496	-0.087126	0.716104
H220	H	1.629496	0.162874	0.966104
Br221	Br	0.848776	-0.386931	0.246784
Br222	Br	1.098776	-0.136931	0.496784
Br223	Br	1.348776	0.113069	0.746784
Br224	Br	1.598776	0.363069	0.996784
