data_functionalizedCrystal
_audit_creation_method	'MofGen! by Chris Wilmer'
_symmetry_space_group_name_H-M	'P1'
_symmetry_Int_Tables_number	1
_symmetry_cell_setting	triclinic
loop_
_symmetry_equiv_pos_as_xyz
  x,y,z
_cell_length_a	25.639242
_cell_length_b	18.101395
_cell_length_c	18.101389
_cell_angle_alpha	89.980315
_cell_angle_beta	89.972230
_cell_angle_gamma	90.027478
loop_
_atom_site_label
_atom_site_type_symbol
_atom_site_fract_x
_atom_site_fract_y
_atom_site_fract_z
Zn1	Zn	0.799278	-0.294996	-0.418900
Zn2	Zn	1.299278	0.205004	0.081100
Zn3	Zn	0.799204	-0.418821	-0.295056
Zn4	Zn	1.299204	0.081179	0.204944
Zn5	Zn	0.711846	-0.294988	-0.295054
Zn6	Zn	1.211846	0.205012	0.204946
Zn7	Zn	0.711810	-0.418790	-0.418837
Zn8	Zn	1.211810	0.081210	0.081163
O9	O	0.755535	-0.356899	-0.356962
O10	O	1.255535	0.143101	0.143038
O11	O	0.872434	-0.311437	-0.402499
O12	O	1.372434	0.188563	0.097501
O13	O	0.787599	-0.402405	-0.191423
O14	O	1.287599	0.097595	0.308577
O15	O	0.723491	-0.191357	-0.311508
O16	O	1.223491	0.308643	0.188492
O17	O	0.872379	-0.402412	-0.311511
O18	O	1.372379	0.097588	0.188489
O19	O	0.787727	-0.191362	-0.402497
O20	O	1.287727	0.308638	0.097503
O21	O	0.723418	-0.311425	-0.191421
O22	O	1.223418	0.188575	0.308579
O23	O	0.638676	-0.311395	-0.311447
O24	O	1.138676	0.188605	0.188553
O25	O	0.723429	-0.402359	-0.522478
O26	O	1.223429	0.097641	-0.022478
O27	O	0.638650	-0.402352	-0.402390
O28	O	1.138650	0.097648	0.097610
O29	O	0.787692	-0.311407	-0.522525
O30	O	1.287692	0.188593	-0.022525
O31	O	0.787564	-0.522450	-0.311450
O32	O	1.287564	-0.022450	0.188550
O33	O	0.723357	-0.522427	-0.402392
O34	O	1.223357	-0.022427	0.097608
C35	C	0.755463	-0.549309	-0.356930
C36	C	1.255463	-0.049309	0.143070
C37	C	0.755480	-0.631624	-0.356942
C38	C	1.255480	-0.131624	0.143058
C39	C	0.619692	-0.356870	-0.356912
C40	C	1.119692	0.143130	0.143088
C41	C	0.561578	-0.356875	-0.356908
C42	C	1.061578	0.143125	0.143092
C43	C	0.755540	-0.782332	-0.356971
C44	C	1.255540	-0.282332	0.143029
C45	C	0.715121	-0.813702	-0.414145
C46	C	1.215121	-0.313702	0.085855
C47	C	0.715274	-0.899320	-0.414386
C48	C	1.215274	-0.399320	0.085614
C49	C	0.755598	-0.930714	-0.357000
C50	C	1.255598	-0.430714	0.143000
C51	C	0.810719	-0.899541	-0.378008
C52	C	1.310719	-0.399541	0.121992
C53	C	0.810452	-0.813896	-0.378406
C54	C	1.310452	-0.313896	0.121594
C55	C	0.741331	-0.813954	-0.278653
C56	C	1.241331	-0.313954	0.221347
C57	C	0.740149	-0.899606	-0.279086
C58	C	1.240149	-0.399606	0.220914
C59	C	0.755634	-1.014574	-0.357015
C60	C	1.255634	-0.514574	0.142985
C61	C	0.755507	-0.698473	-0.356958
C62	C	1.255507	-0.198473	0.143042
C63	C	0.201210	-0.404339	-0.404271
C64	C	0.701210	0.095661	0.095729
C65	C	0.146606	-0.404344	-0.404283
C66	C	0.646606	0.095656	0.095717
O67	O	0.118365	-0.444663	-0.444510
O68	O	0.618365	0.055337	0.055490
N69	N	0.119296	-0.356919	-0.357010
N70	N	0.619296	0.143081	0.142990
C71	C	0.146593	-0.309482	-0.309728
C72	C	0.646593	0.190518	0.190272
O73	O	0.118349	-0.269144	-0.269521
O74	O	0.618349	0.230856	0.230479
C75	C	0.201196	-0.309474	-0.309721
C76	C	0.701196	0.190526	0.190279
C77	C	0.228503	-0.356907	-0.356991
C78	C	0.728503	0.143093	0.143009
C79	C	0.228517	-0.451767	-0.451538
C80	C	0.728517	0.048233	0.048462
C81	C	0.283118	-0.451764	-0.451525
C82	C	0.783118	0.048236	0.048475
C83	C	0.310411	-0.404332	-0.404245
C84	C	0.810411	0.095668	0.095755
C85	C	0.283104	-0.356903	-0.356978
C86	C	0.783104	0.143097	0.143022
C87	C	0.228492	-0.262034	-0.262443
C88	C	0.728492	0.237966	0.237557
C89	C	0.283099	-0.262030	-0.262440
C90	C	0.783099	0.237970	0.237560
C91	C	0.310406	-0.309463	-0.309710
C92	C	0.810406	0.190537	0.190290
C93	C	0.364997	-0.309467	-0.309685
C94	C	0.864997	0.190533	0.190315
N95	N	0.392308	-0.356892	-0.356958
N96	N	0.892308	0.143108	0.143042
C97	C	0.365014	-0.404324	-0.404238
C98	C	0.865014	0.095676	0.095762
C99	C	0.031922	-0.309501	-0.309748
C100	C	0.531922	0.190499	0.190252
C101	C	-0.022680	-0.309512	-0.309751
C102	C	0.477320	0.190488	0.190249
C103	C	-0.022663	-0.404373	-0.404307
C104	C	0.477337	0.095627	0.095693
C105	C	0.031940	-0.404365	-0.404300
C106	C	0.531940	0.095635	0.095700
C107	C	0.059232	-0.356925	-0.357021
C108	C	0.559232	0.143075	0.142979
C109	C	0.479680	-0.404313	-0.404207
C110	C	0.979680	0.095687	0.095793
C111	C	0.534285	-0.404307	-0.404188
C112	C	1.034285	0.095693	0.095812
C113	C	0.534263	-0.309444	-0.309635
C114	C	1.034263	0.190556	0.190365
C115	C	0.479663	-0.309452	-0.309651
C116	C	0.979663	0.190548	0.190349
C117	C	0.452372	-0.356889	-0.356943
C118	C	0.952372	0.143111	0.143057
O119	O	0.393273	-0.269167	-0.269481
O120	O	0.893273	0.230833	0.230519
O121	O	0.393265	-0.444648	-0.444445
O122	O	0.893265	0.055352	0.055555
C123	C	0.891908	-0.356929	-0.357013
C124	C	1.391908	0.143071	0.142987
C125	C	0.950022	-0.356941	-0.357034
C126	C	1.450022	0.143059	0.142966
C127	C	0.755565	-0.356880	-0.550124
C128	C	1.255565	0.143120	-0.050124
C129	C	0.755578	-0.356872	-0.632438
C130	C	1.255578	0.143128	-0.132438
C131	C	0.755621	-0.163737	-0.357009
C132	C	1.255621	0.336263	0.142991
C133	C	0.755658	-0.081423	-0.357030
C134	C	1.255658	0.418577	0.142970
C135	C	0.755608	-0.356733	-0.931529
C136	C	1.255608	0.143267	-0.431529
C137	C	0.715037	-0.413775	-0.900175
C138	C	1.215037	0.086225	-0.400175
C139	C	0.715146	-0.414040	-0.814556
C140	C	1.215146	0.085960	-0.314556
C141	C	0.755593	-0.356802	-0.783146
C142	C	1.255593	0.143198	-0.283146
C143	C	0.810679	-0.377992	-0.814256
C144	C	1.310679	0.122008	-0.314256
C145	C	0.810453	-0.378367	-0.899901
C146	C	1.310453	0.121633	-0.399901
C147	C	0.741573	-0.278374	-0.899954
C148	C	1.241573	0.221626	-0.399954
C149	C	0.740347	-0.278827	-0.814303
C150	C	1.240347	0.221173	-0.314303
C151	C	0.755587	-0.356840	-0.699287
C152	C	1.255587	0.143160	-0.199287
C153	C	0.755617	-0.356698	-1.015389
C154	C	1.255617	0.143302	-0.515389
C155	C	0.755535	-0.356864	-0.164551
C156	C	1.255535	0.143136	0.335449
C157	C	0.755623	-0.356663	-0.082238
C158	C	1.255623	0.143337	0.417762
H159	H	0.674405	-0.920402	-0.401254
H160	H	1.174405	-0.420402	0.098746
H161	H	0.674107	-0.793175	-0.401160
H162	H	1.174107	-0.293175	0.098840
N163	N	0.563706	-0.258288	-0.258641
N164	N	1.063706	0.241712	0.241359
H165	H	0.602440	-0.265485	-0.265812
H166	H	1.102440	0.234515	0.234188
H167	H	0.554184	-0.205416	-0.270268
H168	H	1.054184	0.294584	0.229732
N169	N	0.563734	-0.455473	-0.455174
N170	N	1.063734	0.044527	0.044826
H171	H	0.554258	-0.444048	-0.508109
H172	H	1.054258	0.055952	-0.008109
H173	H	0.602458	-0.448256	-0.447932
H174	H	1.102458	0.051744	0.052068
H175	H	0.771123	-0.235875	-0.920233
H176	H	1.271123	0.264125	-0.420233
H177	H	0.701805	-0.792415	-0.259488
H178	H	1.201805	-0.292415	0.240512
H179	H	0.206267	-0.223411	-0.223949
H180	H	0.706267	0.276589	0.276051
H181	H	0.305347	-0.490387	-0.490019
H182	H	0.805347	0.009613	0.009981
N183	N	0.061350	-0.258336	-0.258739
N184	N	0.561350	0.241664	0.241261
H185	H	0.083982	-0.288376	-0.224359
H186	H	0.583982	0.211624	0.275641
H187	H	0.083997	-0.224060	-0.288937
H188	H	0.583997	0.275940	0.211063
H189	H	0.699584	-0.919990	-0.263240
H190	H	1.199584	-0.419990	0.236760
H191	H	0.841602	-0.793138	-0.338565
H192	H	1.341602	-0.293138	0.161435
H193	H	0.822351	-0.435648	-0.919884
H194	H	1.322351	0.064352	-0.419884
H195	H	0.724423	-0.792144	-0.471847
H196	H	1.224423	-0.292144	0.028153
N197	N	0.851859	-0.325739	-0.927384
N198	N	1.351859	0.174261	-0.427384
H199	H	0.852035	-0.325574	-0.983180
H200	H	1.352035	0.174426	-0.483180
H201	H	0.844140	-0.274335	-0.908673
H202	H	1.344140	0.225665	-0.408673
H203	H	0.841719	-0.337751	-0.793914
H204	H	1.341719	0.162249	-0.293914
H205	H	0.724724	-0.919769	-0.472420
H206	H	1.224724	-0.419769	0.027580
N207	N	0.826381	-0.787371	-0.454232
N208	N	1.326381	-0.287371	0.045768
H209	H	0.833509	-0.831313	-0.487084
H210	H	1.333509	-0.331313	0.012916
H211	H	0.797332	-0.756775	-0.476194
H212	H	1.297332	-0.256775	0.023806
H213	H	0.457428	-0.270830	-0.271158
H214	H	0.957428	0.229170	0.228842
N215	N	0.661045	-0.396443	-0.786684
N216	N	1.161045	0.103557	-0.286684
H217	H	0.636910	-0.388448	-0.830034
H218	H	1.136910	0.111552	-0.330034
H219	H	0.647793	-0.438944	-0.755755
H220	H	1.147793	0.061056	-0.255755
N221	N	0.851725	-0.926461	-0.324558
N222	N	1.351725	-0.426461	0.175442
H223	H	0.834925	-0.959203	-0.286121
H224	H	1.334925	-0.459203	0.213879
H225	H	0.879088	-0.955444	-0.352313
H226	H	1.379088	-0.455444	0.147687
N227	N	0.826718	-0.453060	-0.785857
N228	N	1.326718	0.046940	-0.285857
H229	H	0.798386	-0.473449	-0.752848
H230	H	1.298386	0.026551	-0.252848
H231	H	0.832350	-0.487570	-0.828956
H232	H	1.332350	0.012430	-0.328956
H233	H	0.305317	-0.223393	-0.223944
H234	H	0.805317	0.276607	0.276056
H235	H	0.457466	-0.442939	-0.442718
H236	H	0.957466	0.057061	0.057282
H237	H	0.822971	-0.920948	-0.434633
H238	H	1.322971	-0.420948	0.065367
H239	H	0.767442	-0.920986	-0.234229
H240	H	1.267442	-0.420986	0.265771
N241	N	0.689290	-0.252798	-0.928538
N242	N	1.189290	0.247202	-0.428538
H243	H	0.674172	-0.291752	-0.962250
H244	H	1.174172	0.208248	-0.462250
H245	H	0.664875	-0.244336	-0.885567
H246	H	1.164875	0.255664	-0.385567
N247	N	0.780323	-0.787082	-0.222225
N248	N	1.280323	-0.287082	0.277775
H249	H	0.807063	-0.754584	-0.247230
H250	H	1.307063	-0.254584	0.252770
H251	H	0.761619	-0.757854	-0.182774
H252	H	1.261619	-0.257854	0.317226
H253	H	0.206301	-0.490393	-0.490043
H254	H	0.706301	0.009607	0.009957
H255	H	0.674065	-0.400650	-0.920757
H256	H	1.174065	0.099350	-0.420757
N257	N	0.061391	-0.455524	-0.455282
N258	N	0.561391	0.044476	0.044718
H259	H	0.035810	-0.485572	-0.485231
H260	H	0.535810	0.014428	0.014769
H261	H	0.084067	-0.425429	-0.489609
H262	H	0.584067	0.074571	0.010391
N263	N	-0.052106	-0.455534	-0.455304
N264	N	0.447894	0.044466	0.044696
H265	H	-0.090840	-0.448335	-0.448134
H266	H	0.409160	0.051665	0.051866
H267	H	-0.042538	-0.444082	-0.508214
H268	H	0.457462	0.055918	-0.008214
H269	H	-0.044910	-0.270895	-0.271252
H270	H	0.455090	0.229105	0.228748
H271	H	0.724211	-0.471503	-0.921700
H272	H	1.224211	0.028497	-0.421700
N273	N	0.727426	-0.490979	-0.787436
N274	N	1.227426	0.009021	-0.287436
H275	H	0.762848	-0.506455	-0.806315
H276	H	1.262848	-0.006455	-0.306315
H277	H	0.727514	-0.491436	-0.731643
H278	H	1.227514	0.008564	-0.231643
N279	N	0.686651	-0.257650	-0.787367
N280	N	1.186651	0.242350	-0.287367
H281	H	0.672257	-0.298391	-0.755116
H282	H	1.172257	0.201609	-0.255116
H283	H	0.688948	-0.210414	-0.757866
H284	H	1.188948	0.289586	-0.257866
H285	H	0.767741	-0.234071	-0.792922
H286	H	1.267741	0.265929	-0.292922
