data_functionalizedCrystal
_audit_creation_method	'MofGen! by Chris Wilmer'
_symmetry_space_group_name_H-M	'P1'
_symmetry_Int_Tables_number	1
_symmetry_cell_setting	triclinic
loop_
_symmetry_equiv_pos_as_xyz
  x,y,z
_cell_length_a	21.395362
_cell_length_b	11.169416
_cell_length_c	21.395364
_cell_angle_alpha	89.996785
_cell_angle_beta	90.036401
_cell_angle_gamma	90.026029
loop_
_atom_site_label
_atom_site_type_symbol
_atom_site_fract_x
_atom_site_fract_y
_atom_site_fract_z
Zn1	Zn	0.957902	-0.477611	0.354616
Zn2	Zn	0.957856	-0.678230	0.249852
Zn3	Zn	0.853131	-0.477616	0.249818
Zn4	Zn	0.853124	-0.678306	0.354557
O5	O	0.905503	-0.577941	0.302211
O6	O	1.045574	-0.504190	0.340758
O7	O	0.943948	-0.651589	0.162169
O8	O	0.867051	-0.309665	0.263730
O9	O	1.045540	-0.651584	0.263788
O10	O	0.944026	-0.309662	0.340725
O11	O	0.867007	-0.504198	0.162144
O12	O	0.765452	-0.504271	0.263672
O13	O	0.867039	-0.651714	0.442242
O14	O	0.765447	-0.651718	0.340623
O15	O	0.944020	-0.504263	0.442286
O16	O	0.943941	-0.846190	0.263731
O17	O	0.866995	-0.846246	0.340657
C18	C	0.742716	-0.578004	0.302138
C19	C	0.673074	-0.578060	0.302122
C20	C	0.905479	-0.889766	0.302204
C21	C	0.905526	-1.023165	0.302223
C22	C	0.640375	-0.654937	0.342130
C23	C	0.574940	-0.654908	0.342158
C24	C	0.542206	-0.578014	0.302166
C25	C	0.574913	-0.501122	0.262155
C26	C	0.640348	-0.501145	0.262133
C27	C	0.438487	-0.568318	0.245761
C28	C	0.373054	-0.568303	0.245782
C29	C	0.340385	-0.577936	0.302236
C30	C	0.373158	-0.587608	0.358670
C31	C	0.438592	-0.587631	0.358647
C32	C	0.471254	-0.577980	0.302186
C33	C	0.236733	-0.654785	0.342278
C34	C	0.171297	-0.654747	0.342307
C35	C	0.171272	-0.500968	0.262298
C36	C	0.236707	-0.500999	0.262275
C37	C	0.269434	-0.577914	0.302264
C38	C	1.068927	-0.577878	0.302284
C39	C	1.138568	-0.577851	0.302315
C40	C	0.905534	-0.577996	0.465634
C41	C	0.905547	-0.578020	0.535275
C42	C	0.905545	-0.264898	0.302231
C43	C	0.905562	-0.131498	0.302239
C44	C	0.945624	-0.501256	0.568012
C45	C	0.945615	-0.501236	0.633448
C46	C	0.905534	-0.578002	0.666143
C47	C	0.865449	-0.654772	0.633399
C48	C	0.865455	-0.654781	0.567964
C49	C	0.900565	-0.686121	0.769814
C50	C	0.900563	-0.686114	0.835247
C51	C	0.905512	-0.577974	0.867964
C52	C	0.910475	-0.469838	0.835240
C53	C	0.910481	-0.469847	0.769806
C54	C	0.905523	-0.578001	0.737096
C55	C	0.945581	-0.501182	0.971654
C56	C	0.945567	-0.501161	1.037090
C57	C	0.865405	-0.654707	1.037040
C58	C	0.865415	-0.654718	0.971605
C59	C	0.905507	-0.577957	0.938916
C60	C	0.905476	-0.577922	1.139423
C61	C	0.905486	-0.577926	1.069782
H62	H	0.667017	-0.717566	0.374693
F63	F	0.822743	-0.736400	1.071833
H64	H	0.346376	-0.560435	0.199830
F65	F	0.822797	-0.736488	0.533122
F66	F	0.540075	-0.419281	0.219595
H67	H	0.914506	-0.381780	0.861877
H68	H	0.896368	-0.774159	0.743182
F69	F	0.540131	-0.736734	0.384743
H70	H	0.914521	-0.381799	0.743165
F71	F	0.675150	-0.419318	0.219549
F72	F	0.822761	-0.736427	0.936762
H73	H	0.978223	-0.438672	0.945037
F74	F	0.473468	-0.597920	0.418707
F75	F	0.338395	-0.597855	0.418757
F76	F	0.271566	-0.736638	0.384840
F77	F	0.895286	-0.801202	0.870069
F78	F	0.988291	-0.419554	0.533226
F79	F	0.822791	-0.736469	0.668197
H80	H	0.978202	-0.438643	1.063744
H81	H	0.144674	-0.717348	0.374890
F82	F	0.136439	-0.419124	0.219739
H83	H	0.263331	-0.438403	0.229692
F84	F	0.473249	-0.558068	0.185670
H85	H	0.978249	-0.438719	0.660107
