data_functionalizedCrystal
_audit_creation_method	'MofGen! by Chris Wilmer'
_symmetry_space_group_name_H-M	'P1'
_symmetry_Int_Tables_number	1
_symmetry_cell_setting	triclinic
loop_
_symmetry_equiv_pos_as_xyz
  x,y,z
_cell_length_a	15.537862
_cell_length_b	14.519731
_cell_length_c	14.750756
_cell_angle_alpha	104.209118
_cell_angle_beta	72.492910
_cell_angle_gamma	114.523356
loop_
_atom_site_label
_atom_site_type_symbol
_atom_site_fract_x
_atom_site_fract_y
_atom_site_fract_z
O1	O	1.267646	0.287656	-0.079744
O2	O	1.767646	0.787656	0.420256
O3	O	0.993566	0.181209	-0.079768
O4	O	1.493566	0.681209	0.420232
O5	O	1.137858	0.371114	-0.079736
O6	O	1.637858	0.871114	0.420264
O7	O	1.123354	0.097751	-0.079776
O8	O	1.623354	0.597751	0.420224
O9	O	1.101414	0.394718	0.079918
O10	O	1.601414	0.894718	0.579918
O11	O	0.957122	0.204813	0.079886
O12	O	1.457122	0.704813	0.579886
O13	O	1.231202	0.311260	0.079910
O14	O	1.731202	0.811260	0.579910
Zn15	Zn	1.088376	0.261784	0.105247
Zn16	Zn	1.588376	0.761784	0.605247
Zn17	Zn	1.136392	0.230685	-0.105105
Zn18	Zn	1.636392	0.730685	0.394895
O19	O	1.086910	0.121355	0.079878
O20	O	1.586910	0.621355	0.579878
C21	C	0.940267	0.181874	0.000056
C22	C	1.440267	0.681874	0.500056
C23	C	0.835748	0.148698	0.000048
C24	C	1.335748	0.648698	0.500048
C25	C	1.118955	0.417047	0.000094
C26	C	1.618955	0.917047	0.500094
C27	C	1.116915	0.518743	0.000102
C28	C	1.616915	1.018743	0.500102
C29	C	0.677362	0.014225	0.000024
C30	C	1.177362	0.514225	0.500024
C31	C	0.775574	0.045408	0.000032
C32	C	1.275574	0.545408	0.500032
C33	C	0.797724	0.220846	0.000062
C34	C	1.297724	0.720846	0.500062
C35	C	0.699510	0.189678	0.000059
C36	C	1.199510	0.689678	0.500059
C37	C	0.639337	0.086366	0.000039
C38	C	1.139337	0.586366	0.500039
C39	C	0.661485	0.261818	0.000074
C40	C	1.161485	0.761818	0.500074
C41	C	0.563281	0.230651	0.000066
C42	C	1.063281	0.730651	0.500066
C43	C	0.503102	0.127344	0.000044
C44	C	1.003102	0.627344	0.500044
C45	C	0.541132	0.055199	0.000031
C46	C	1.041132	0.555199	0.500031
C47	C	0.721662	0.365129	0.000087
C48	C	1.221662	0.865129	0.500087
C49	C	0.683637	0.437270	0.000102
C50	C	1.183637	0.937270	0.500102
C51	C	0.585430	0.406104	0.000101
C52	C	1.085430	0.906104	0.500101
C53	C	0.525251	0.302796	0.000078
C54	C	1.025251	0.802796	0.500078
C55	C	0.547399	0.478249	0.000113
C56	C	1.047399	0.978249	0.500113
C57	C	0.449195	0.447082	0.000106
C58	C	0.949195	0.947082	0.500106
C59	C	0.427047	0.271629	0.000071
C60	C	0.927047	0.771629	0.500071
C61	C	1.284501	0.310596	0.000084
C62	C	1.784501	0.810596	0.500084
C63	C	1.389021	0.343770	0.000086
C64	C	1.889021	0.843770	0.500086
N65	N	1.169162	0.209467	-0.248664
N66	N	1.669162	0.709467	0.251336
C67	C	1.115259	0.601331	0.000107
C68	C	1.615259	1.101331	0.500107
C69	C	1.113189	0.704944	0.000107
C70	C	1.613189	1.204944	0.500107
C71	C	1.111547	0.787530	0.000108
C72	C	1.611547	1.287530	0.500108
C73	C	1.109478	0.891150	0.000110
C74	C	1.609478	1.391150	0.500110
C75	C	1.105808	1.075425	0.000066
C76	C	1.605808	1.575425	0.500066
C77	C	1.107836	0.973737	0.000111
C78	C	1.607836	1.473737	0.500111
C79	C	0.964120	0.342295	-0.600460
C80	C	1.464120	0.842295	-0.100460
C81	C	0.987078	0.327413	-0.700962
C82	C	1.487078	0.827413	-0.200962
C83	C	1.101214	0.253469	-0.700937
C84	C	1.601214	0.753469	-0.200937
C85	C	1.078263	0.268340	-0.600433
C86	C	1.578263	0.768340	-0.100433
C87	C	1.009716	0.312754	-0.550203
C88	C	1.509716	0.812754	-0.050203
C89	C	1.123858	0.238799	-0.550176
C90	C	1.623858	0.738799	-0.050176
C91	C	1.100912	0.253673	-0.449681
C92	C	1.600912	0.753673	0.050319
C93	C	1.032370	0.298089	-0.399443
C94	C	1.532370	0.798089	0.100557
C95	C	0.986770	0.327628	-0.449708
C96	C	1.486770	0.827628	0.050292
C97	C	1.192410	0.194392	-0.600408
C98	C	1.692410	0.694392	-0.100408
C99	C	1.238005	0.164851	-0.550150
C100	C	1.738005	0.664851	-0.050150
C101	C	1.215054	0.179719	-0.449654
C102	C	1.715054	0.679719	0.050346
C103	C	1.146513	0.224134	-0.399416
C104	C	1.646513	0.724134	0.100584
C105	C	1.260655	0.150179	-0.399389
C106	C	1.760655	0.650179	0.100611
C107	C	1.237709	0.165053	-0.298894
C108	C	1.737709	0.665053	0.201106
C109	C	1.123566	0.239008	-0.298921
C110	C	1.623566	0.739008	0.201079
N111	N	1.055613	0.283012	0.248806
N112	N	1.555613	0.783012	0.748806
H113	H	0.378046	0.187504	0.000068
H114	H	0.878046	0.687504	0.500068
Cl115	Cl	1.003528	0.316797	-0.273105
Cl116	Cl	1.503528	0.816797	0.226895
H117	H	0.423139	0.101969	0.000034
H118	H	0.923139	0.601969	0.500034
Cl119	Cl	0.823373	-0.045296	0.000012
Cl120	Cl	1.323373	0.454704	0.500012
Cl121	Cl	0.900586	0.383453	-0.386553
Cl122	Cl	1.400586	0.883453	0.113447
H123	H	1.157028	0.217311	-0.741848
H124	H	1.657028	0.717311	-0.241848
H125	H	0.801630	0.390499	0.000075
H126	H	1.301630	0.890499	0.500075
H127	H	1.211091	0.182284	-0.682237
H128	H	1.711091	0.682284	-0.182237
H129	H	0.846731	0.304962	0.000074
H130	H	1.346731	0.804962	0.500074
H131	H	0.732644	0.521386	0.000115
H132	H	1.232644	1.021386	0.500115
H133	H	0.596409	0.562364	0.000120
H134	H	1.096409	1.062364	0.500120
Cl135	Cl	1.324177	0.109021	-0.613306
Cl136	Cl	1.824177	0.609021	-0.113306
H137	H	0.949941	0.351470	-0.741878
H138	H	1.449941	0.851470	-0.241878
H139	H	0.628361	-0.069900	0.000021
H140	H	1.128361	0.430100	0.500021
Cl141	Cl	0.877936	0.398119	-0.537306
Cl142	Cl	1.377936	0.898119	-0.037306
Cl143	Cl	1.346835	0.094360	-0.462548
Cl144	Cl	1.846835	0.594360	0.037452
H145	H	0.492132	-0.028926	0.000028
H146	H	0.992132	0.471074	0.500028
Cl147	Cl	0.401386	0.537776	0.000134
Cl148	Cl	0.901386	1.037776	0.500134
H149	H	1.067740	0.275163	-0.258021
H150	H	1.567740	0.775163	0.241979
Cl151	Cl	1.295034	0.127922	-0.235709
Cl152	Cl	1.795034	0.627922	0.264291
