data_functionalizedCrystal
_audit_creation_method	'MofGen! by Chris Wilmer'
_symmetry_space_group_name_H-M	'P1'
_symmetry_Int_Tables_number	1
_symmetry_cell_setting	triclinic
loop_
_symmetry_equiv_pos_as_xyz
  x,y,z
_cell_length_a	13.897448
_cell_length_b	14.908571
_cell_length_c	14.908308
_cell_angle_alpha	89.824947
_cell_angle_beta	93.267188
_cell_angle_gamma	93.286109
loop_
_atom_site_label
_atom_site_type_symbol
_atom_site_fract_x
_atom_site_fract_y
_atom_site_fract_z
Zn1	Zn	-0.503381	-1.345318	-0.587582
Zn2	Zn	-0.170048	-1.011985	-0.254249
Zn3	Zn	0.163285	-0.678651	0.079084
Zn4	Zn	-0.655952	-1.353905	-0.437223
Zn5	Zn	-0.322619	-1.020572	-0.103889
Zn6	Zn	0.010715	-0.687238	0.229444
Zn7	Zn	-0.484854	-1.203632	-0.428580
Zn8	Zn	-0.151521	-0.870299	-0.095247
Zn9	Zn	0.181813	-0.536966	0.238087
Zn10	Zn	-0.654806	-1.194933	-0.578874
Zn11	Zn	-0.321473	-0.861599	-0.245541
Zn12	Zn	0.011861	-0.528266	0.087792
O13	O	-0.574748	-1.274447	-0.508065
O14	O	-0.241415	-0.941114	-0.174731
O15	O	0.091918	-0.607780	0.158602
O16	O	-0.531853	-1.472283	-0.574898
O17	O	-0.198520	-1.138950	-0.241565
O18	O	0.134813	-0.805617	0.091769
O19	O	-0.625981	-1.341206	-0.310251
O20	O	-0.292648	-1.007872	0.023082
O21	O	0.040685	-0.674539	0.356415
O22	O	-0.352335	-1.222474	-0.449699
O23	O	-0.019001	-0.889141	-0.116366
O24	O	0.314332	-0.555808	0.216967
O25	O	-0.643947	-1.478592	-0.464429
O26	O	-0.310613	-1.145259	-0.131096
O27	O	0.022720	-0.811926	0.202237
O28	O	-0.365946	-1.326570	-0.566518
O29	O	-0.032613	-0.993237	-0.233184
O30	O	0.300720	-0.659903	0.100149
O31	O	-0.500276	-1.230801	-0.303902
O32	O	-0.166943	-0.897468	0.029432
O33	O	0.166390	-0.564134	0.362765
O34	O	-0.499165	-1.076652	-0.441256
O35	O	-0.165832	-0.743319	-0.107922
O36	O	0.167502	-0.409985	0.225411
O37	O	-0.641993	-1.207647	-0.705854
O38	O	-0.308660	-0.874314	-0.372521
O39	O	0.024673	-0.540980	-0.039187
O40	O	-0.624028	-1.070260	-0.551676
O41	O	-0.290695	-0.736927	-0.218343
O42	O	0.042638	-0.403594	0.114991
O43	O	-0.530742	-1.318134	-0.712252
O44	O	-0.197409	-0.984801	-0.378918
O45	O	0.135924	-0.651468	-0.045585
O46	O	-0.790777	-1.332770	-0.455986
O47	O	-0.457444	-0.999437	-0.122652
O48	O	-0.124110	-0.666103	0.210681
O49	O	-0.789935	-1.215974	-0.560056
O50	O	-0.456602	-0.882640	-0.226723
O51	O	-0.123269	-0.549307	0.106610
C52	C	-0.825357	-1.274383	-0.508035
C53	C	-0.492024	-0.941050	-0.174702
C54	C	-0.158690	-0.607716	0.158632
C55	C	-0.932575	-1.274436	-0.508057
C56	C	-0.599242	-0.941103	-0.174724
C57	C	-0.265909	-0.607769	0.158610
C58	C	-0.559463	-1.040831	-0.494584
C59	C	-0.226129	-0.707497	-0.161250
C60	C	0.107204	-0.374164	0.172083
C61	C	-0.552948	-0.940888	-0.488838
C62	C	-0.219614	-0.607554	-0.155504
C63	C	0.113719	-0.274221	0.177829
C64	C	-0.588307	-1.260963	-0.742590
C65	C	-0.254973	-0.927629	-0.409257
C66	C	0.078360	-0.594296	-0.075923
C67	C	-0.594084	-1.255216	-0.842531
C68	C	-0.260751	-0.921883	-0.509197
C69	C	0.072582	-0.588550	-0.175864
C70	C	-1.128880	-1.274527	-0.508119
C71	C	-0.795547	-0.941194	-0.174786
C72	C	-0.462213	-0.607861	0.158548
C73	C	-1.019642	-1.274474	-0.508087
C74	C	-0.686309	-0.941140	-0.174754
C75	C	-0.352976	-0.607807	0.158580
C76	C	-0.323164	-1.274535	-0.508116
C77	C	0.010169	-0.941201	-0.174782
C78	C	0.343503	-0.607868	0.158551
C79	C	-0.215954	-1.274572	-0.508138
C80	C	0.117380	-0.941239	-0.174804
C81	C	0.450713	-0.607905	0.158529
C82	C	-0.590094	-1.508975	-0.521599
C83	C	-0.256761	-1.175642	-0.188266
C84	C	0.076572	-0.842309	0.145068
C85	C	-0.596634	-1.608918	-0.527367
C86	C	-0.263301	-1.275584	-0.194033
C87	C	0.070033	-0.942251	0.139300
C88	C	-0.670908	-0.746485	-0.592867
C89	C	-0.337575	-0.413152	-0.259533
C90	C	-0.004242	-0.079819	0.073800
C91	C	-0.664790	-0.652579	-0.587471
C92	C	-0.331457	-0.319246	-0.254138
C93	C	0.001877	0.014087	0.079196
C94	C	-0.534590	-0.659168	-0.472656
C95	C	-0.201256	-0.325835	-0.139322
C96	C	0.132077	0.007499	0.194011
C97	C	-0.540708	-0.753074	-0.478051
C98	C	-0.207374	-0.419741	-0.144718
C99	C	0.125959	-0.086407	0.188615
C100	C	-0.608870	-0.796729	-0.538158
C101	C	-0.275537	-0.463396	-0.204825
C102	C	0.057796	-0.130062	0.128509
C103	C	-0.614992	-0.890637	-0.543549
C104	C	-0.281659	-0.557304	-0.210215
C105	C	0.051674	-0.223970	0.123118
C106	C	-0.484788	-0.897224	-0.428738
C107	C	-0.151455	-0.563890	-0.095405
C108	C	0.181879	-0.230557	0.237928
C109	C	-0.478670	-0.803318	-0.423343
C110	C	-0.145336	-0.469984	-0.090009
C111	C	0.187997	-0.136651	0.243324
C112	C	-0.489073	-1.359466	-1.036993
C113	C	-0.155739	-1.026133	-0.703660
C114	C	0.177594	-0.692799	-0.370327
C115	C	-0.494498	-1.354070	-1.130897
C116	C	-0.161165	-1.020736	-0.797563
C117	C	0.172168	-0.687403	-0.464230
C118	C	-0.610355	-1.239023	-1.124242
C119	C	-0.277022	-0.905690	-0.790909
C120	C	0.056311	-0.572357	-0.457576
C121	C	-0.604930	-1.244420	-1.030339
C122	C	-0.271596	-0.911086	-0.697006
C123	C	0.061737	-0.577753	-0.363672
C124	C	-0.544287	-1.304644	-0.986718
C125	C	-0.210954	-0.971311	-0.653385
C126	C	0.122379	-0.637977	-0.320051
C127	C	-0.538868	-1.310044	-0.892813
C128	C	-0.205534	-0.976711	-0.559480
C129	C	0.127799	-0.643378	-0.226146
C130	C	-0.654719	-1.194994	-0.886160
C131	C	-0.321386	-0.861660	-0.552827
C132	C	0.011948	-0.528327	-0.219493
C133	C	-0.660144	-1.189597	-0.980064
C134	C	-0.326811	-0.856264	-0.646730
C135	C	0.006522	-0.522931	-0.313397
C136	C	-0.561177	-1.287931	-0.274455
C137	C	-0.227843	-0.954598	0.058878
C138	C	0.105490	-0.621264	0.392212
C139	C	-0.555139	-1.293851	-0.174525
C140	C	-0.221805	-0.960518	0.158809
C141	C	0.111528	-0.627185	0.492142
H142	H	-0.670495	-0.926180	-0.592489
H143	H	-0.337162	-0.592846	-0.259156
H144	H	-0.003828	-0.259513	0.074178
H145	H	-0.709515	-1.140563	-1.015593
H146	H	-0.376182	-0.807229	-0.682259
H147	H	-0.042849	-0.473896	-0.348926
F148	F	-0.418765	-0.950704	-0.370503
F149	F	-0.085431	-0.617371	-0.037170
F150	F	0.247902	-0.284037	0.296163
H151	H	-0.659727	-1.189991	-1.159775
H152	H	-0.326393	-0.856658	-0.826442
H153	H	0.006940	-0.523325	-0.493108
H154	H	-0.715306	-0.611674	-0.632022
H155	H	-0.381973	-0.278341	-0.298689
H156	H	-0.048639	0.054993	0.034644
H157	H	-0.489491	-1.359083	-0.857299
H158	H	-0.156158	-1.025750	-0.523965
H159	H	0.177176	-0.692417	-0.190632
F160	F	-0.424544	-1.423569	-0.990567
F161	F	-0.091211	-1.090235	-0.657234
F162	F	0.242123	-0.756902	-0.323901
F163	F	-0.435730	-1.412418	-1.184401
F164	F	-0.102397	-1.079085	-0.851067
F165	F	0.230937	-0.745751	-0.517734
H166	H	-0.479089	-0.623607	-0.423726
H167	H	-0.145756	-0.290274	-0.090392
H168	H	0.187577	0.043059	0.242941
F169	F	-0.406127	-0.756847	-0.359380
F170	F	-0.072793	-0.423513	-0.026047
F171	F	0.260540	-0.090180	0.307286
F172	F	-0.713495	-1.136652	-0.832647
F173	F	-0.380162	-0.803319	-0.499314
F174	F	-0.046829	-0.469985	-0.165980
H175	H	-0.726414	-0.782030	-0.641803
H176	H	-0.393080	-0.448697	-0.308470
H177	H	-0.059747	-0.115364	0.024864
