data_functionalizedCrystal
_audit_creation_method	'MofGen! by Chris Wilmer'
_symmetry_space_group_name_H-M	'P1'
_symmetry_Int_Tables_number	1
_symmetry_cell_setting	triclinic
loop_
_symmetry_equiv_pos_as_xyz
  x,y,z
_cell_length_a	18.050589
_cell_length_b	13.897449
_cell_length_c	13.897441
_cell_angle_alpha	90.022859
_cell_angle_beta	89.972127
_cell_angle_gamma	89.971946
loop_
_atom_site_label
_atom_site_type_symbol
_atom_site_fract_x
_atom_site_fract_y
_atom_site_fract_z
Zn1	Zn	-0.295639	-1.474632	-0.545454
Zn2	Zn	0.204361	-0.974632	-0.045454
Zn3	Zn	-0.419843	-1.474496	-0.384163
Zn4	Zn	0.080157	-0.974496	0.115837
Zn5	Zn	-0.295671	-1.313321	-0.384166
Zn6	Zn	0.204329	-0.813321	0.115834
Zn7	Zn	-0.419791	-1.313273	-0.545410
Zn8	Zn	0.080209	-0.813273	-0.045410
O9	O	-0.357736	-1.393931	-0.464798
O10	O	0.142264	-0.893931	0.035202
O11	O	-0.312123	-1.609596	-0.524076
O12	O	0.187877	-1.109596	-0.024076
O13	O	-0.403407	-1.453079	-0.249182
O14	O	0.096593	-0.953079	0.250818
O15	O	-0.191742	-1.334796	-0.405582
O16	O	0.308258	-0.834796	0.094418
O17	O	-0.403376	-1.609496	-0.405576
O18	O	0.096624	-1.109496	0.094424
O19	O	-0.191719	-1.453311	-0.524079
O20	O	0.308281	-0.953311	-0.024079
O21	O	-0.312178	-1.334665	-0.249184
O22	O	0.187822	-0.834665	0.250816
O23	O	-0.312128	-1.178333	-0.405539
O24	O	0.187872	-0.678333	0.094461
O25	O	-0.403287	-1.334715	-0.680397
O26	O	0.096713	-0.834715	-0.180397
O27	O	-0.403318	-1.178298	-0.524003
O28	O	0.096682	-0.678298	-0.024003
O29	O	-0.312073	-1.453264	-0.680430
O30	O	0.187927	-0.953264	-0.180430
O31	O	-0.523761	-1.453033	-0.405533
O32	O	-0.023761	-0.953033	0.094467
O33	O	-0.523723	-1.334583	-0.524000
O34	O	-0.023723	-0.834583	-0.024000
C35	C	-0.357721	-1.143316	-0.464767
C36	C	0.142279	-0.643316	0.035233
C37	C	-0.357733	-1.036102	-0.464777
C38	C	0.142267	-0.536102	0.035223
C39	C	-0.550688	-1.393814	-0.464782
C40	C	-0.050688	-0.893814	0.035218
C41	C	-0.633234	-1.393853	-0.464808
C42	C	-0.133234	-0.893853	0.035192
C43	C	-0.357732	-0.839807	-0.464795
C44	C	0.142268	-0.339807	0.035205
C45	C	-0.357730	-0.949040	-0.464782
C46	C	0.142270	-0.449040	0.035218
C47	C	-0.832691	-1.329503	-0.529208
C48	C	-0.332691	-0.829503	-0.029208
C49	C	-0.882136	-1.305986	-0.441188
C50	C	-0.382136	-0.805986	0.058812
C51	C	-0.784365	-1.393947	-0.464820
C52	C	-0.284365	-0.893947	0.035180
C53	C	-0.882001	-1.417512	-0.552850
C54	C	-0.382001	-0.917512	-0.052850
C55	C	-0.930350	-1.394037	-0.464840
C56	C	-0.430350	-0.894037	0.035160
C57	C	-0.832723	-1.370384	-0.376754
C58	C	-0.332723	-0.870384	0.123246
C59	C	-0.832583	-1.481951	-0.488475
C60	C	-0.332583	-0.981951	0.011525
C61	C	-0.882006	-1.458467	-0.400395
C62	C	-0.382006	-0.958467	0.099605
C63	C	-0.700266	-1.393893	-0.464810
C64	C	-0.200266	-0.893893	0.035190
C65	C	-1.014446	-1.394092	-0.464841
C66	C	-0.514446	-0.894092	0.035159
C67	C	-0.164031	-1.394074	-0.464836
C68	C	0.335969	-0.894074	0.035164
C69	C	-0.081485	-1.394135	-0.464851
C70	C	0.418515	-0.894135	0.035149
C71	C	-0.357671	-1.393999	-0.716392
C72	C	0.142329	-0.893999	-0.216392
C73	C	-0.357643	-1.394028	-0.823606
C74	C	0.142357	-0.894028	-0.323606
C75	C	-0.357747	-0.645524	-0.464821
C76	C	0.142253	-0.145524	0.035179
C77	C	-0.357739	-0.752738	-0.464807
C78	C	0.142261	-0.252738	0.035193
C79	C	-0.357592	-1.394055	-1.019901
C80	C	0.142408	-0.894055	-0.519901
C81	C	-0.357622	-1.394037	-0.910668
C82	C	0.142378	-0.894037	-0.410668
C83	C	-0.357748	-1.393918	-0.214184
C84	C	0.142252	-0.893918	0.285816
C85	C	-0.357567	-1.394076	-0.106971
C86	C	0.142433	-0.894076	0.393029
H87	H	-0.811037	-1.274924	-0.583581
H88	H	-0.311037	-0.774924	-0.083581
O89	O	-0.910511	-1.530709	-0.328201
O90	O	-0.410511	-1.030709	0.171799
H91	H	-0.944292	-1.585779	-0.365864
H92	H	-0.444292	-1.085779	0.134136
O93	O	-0.910970	-1.207461	-0.414679
O94	O	-0.410970	-0.707461	0.085321
H95	H	-0.891224	-1.154055	-0.468218
H96	H	-0.391224	-0.654055	0.031782
O97	O	-0.804179	-1.343909	-0.278124
O98	O	-0.304179	-0.843909	0.221876
H99	H	-0.742691	-1.344041	-0.278900
H100	H	-0.242691	-0.844041	0.221100
O101	O	-0.803892	-1.580564	-0.514895
O102	O	-0.303892	-1.080564	-0.014895
H103	H	-0.823653	-1.599968	-0.587986
H104	H	-0.323653	-1.099968	-0.087986
O105	O	-0.910672	-1.443874	-0.651449
O106	O	-0.410672	-0.943874	-0.151449
H107	H	-0.890920	-1.390226	-0.704741
H108	H	-0.390920	-0.890226	-0.204741
