data_functionalizedCrystal
_audit_creation_method	'MofGen! by Chris Wilmer'
_symmetry_space_group_name_H-M	'P1'
_symmetry_Int_Tables_number	1
_symmetry_cell_setting	triclinic
loop_
_symmetry_equiv_pos_as_xyz
  x,y,z
_cell_length_a	16.625548
_cell_length_b	21.295417
_cell_length_c	21.295420
_cell_angle_alpha	90.006945
_cell_angle_beta	90.016944
_cell_angle_gamma	90.031575
loop_
_atom_site_label
_atom_site_type_symbol
_atom_site_fract_x
_atom_site_fract_y
_atom_site_fract_z
Zn1	Zn	1.232606	-0.250754	0.355911
Zn2	Zn	1.232499	-0.355979	0.250636
Zn3	Zn	1.097777	-0.250730	0.250656
Zn4	Zn	1.097720	-0.355992	0.355868
O5	O	1.165151	-0.303364	0.303268
O6	O	1.345425	-0.264718	0.341955
O7	O	1.214607	-0.342002	0.162549
O8	O	1.115731	-0.162644	0.264644
O9	O	1.345346	-0.342026	0.264611
O10	O	1.214790	-0.162662	0.341974
O11	O	1.115627	-0.264676	0.162564
O12	O	0.984937	-0.264688	0.264603
O13	O	1.115634	-0.342047	0.443963
O14	O	0.984895	-0.342023	0.341901
O15	O	1.214734	-0.264730	0.443994
O16	O	1.214552	-0.444070	0.264569
O17	O	1.115530	-0.444079	0.341882
C18	C	0.955660	-0.303355	0.303250
C19	C	0.866039	-0.303366	0.303257
C20	C	0.537863	-0.303370	0.303284
C21	C	0.629171	-0.303367	0.303275
C22	C	0.701948	-0.303368	0.303270
C23	C	0.793262	-0.303365	0.303262
C24	C	1.165045	-0.466915	0.303233
C25	C	1.165073	-0.536883	0.303239
C26	C	1.216680	-0.569724	0.263023
C27	C	1.216718	-0.635467	0.263037
C28	C	1.165135	-0.668366	0.303261
C29	C	1.113524	-0.635517	0.343484
C30	C	1.113494	-0.569776	0.343473
N31	N	1.094599	-0.771635	0.308054
N32	N	1.094631	-0.834086	0.308060
C33	C	1.165225	-0.866441	0.303297
N34	N	1.235788	-0.833984	0.298514
N35	N	1.235756	-0.771527	0.298504
C36	C	1.165162	-0.739651	0.303277
C37	C	1.216877	-0.970567	0.263094
C38	C	1.216916	-1.036311	0.263113
C39	C	1.113715	-1.036360	0.343556
C40	C	1.113684	-0.970617	0.343541
C41	C	1.165263	-0.937725	0.303307
C42	C	1.375459	-0.303373	0.303286
C43	C	1.465081	-0.303377	0.303293
C44	C	1.165190	-0.303393	0.467458
C45	C	1.165206	-0.303405	0.537426
C46	C	1.165279	-0.139173	0.303316
C47	C	1.165333	-0.069205	0.303337
C48	C	1.216800	-0.263152	0.570310
C49	C	1.216788	-0.263142	0.636052
C50	C	1.165190	-0.303395	0.668908
C51	C	1.113586	-0.343651	0.636016
C52	C	1.113594	-0.343655	0.570275
N53	N	1.158952	-0.358490	0.772124
N54	N	1.158949	-0.358483	0.834575
C55	C	1.165162	-0.303382	0.866983
N56	N	1.171393	-0.248287	0.834580
N57	N	1.171400	-0.248294	0.772123
C58	C	1.165176	-0.303394	0.740194
C59	C	1.216745	-0.263115	0.971153
C60	C	1.216727	-0.263104	1.036896
C61	C	1.113530	-0.343618	1.036859
C62	C	1.113544	-0.343624	0.971117
C63	C	1.165156	-0.303373	0.938267
C64	C	1.165115	-0.303354	1.139716
C65	C	1.165128	-0.303357	1.069748
H66	H	1.258745	-0.662211	0.230289
N67	N	1.272520	-0.935087	0.219711
H68	H	1.264668	-0.888456	0.225804
H69	H	1.260018	-0.946601	0.174746
H70	H	1.071719	-1.063145	0.376310
H71	H	1.258826	-0.230376	0.543568
H72	H	1.071577	-0.376433	0.543501
N73	N	1.057894	-0.387049	0.935656
H74	H	1.090636	-0.416227	0.908388
H75	H	1.020558	-0.361425	0.908408
H76	H	1.258740	-0.230321	1.063669
N77	N	1.272584	-1.071736	0.219738
H78	H	1.305251	-1.040920	0.194249
H79	H	1.239797	-1.099046	0.190592
H80	H	1.258681	-0.542945	0.230263
H81	H	1.071657	-0.943876	0.376286
H82	H	1.071527	-0.662308	0.376235
H83	H	1.258766	-0.230337	0.944405
N84	N	1.057870	-0.387030	1.072287
H85	H	1.065691	-0.380918	1.118924
H86	H	1.070384	-0.431990	1.060799
H87	H	1.258800	-0.230360	0.662832
N88	N	1.057921	-0.387057	0.671449
H89	H	1.065742	-0.380945	0.718086
H90	H	1.070424	-0.432019	0.659963
N91	N	1.057829	-0.534350	0.386849
H92	H	1.025157	-0.565164	0.412335
H93	H	1.020522	-0.507110	0.361192
