data_functionalizedCrystal
_audit_creation_method	'MofGen! by Chris Wilmer'
_symmetry_space_group_name_H-M	'P1'
_symmetry_Int_Tables_number	1
_symmetry_cell_setting	triclinic
loop_
_symmetry_equiv_pos_as_xyz
  x,y,z
_cell_length_a	19.188930
_cell_length_b	19.288864
_cell_length_c	18.366186
_cell_angle_alpha	90.022894
_cell_angle_beta	89.988632
_cell_angle_gamma	96.859488
loop_
_atom_site_label
_atom_site_type_symbol
_atom_site_fract_x
_atom_site_fract_y
_atom_site_fract_z
O1	O	0.087099	-0.921359	-0.060791
O2	O	0.587099	-0.421359	0.439209
O3	O	0.098849	-0.719099	-0.060743
O4	O	0.598849	-0.219099	0.439257
O5	O	-0.008682	-0.826066	-0.060754
O6	O	0.491318	-0.326066	0.439246
O7	O	0.194630	-0.814393	-0.060780
O8	O	0.694630	-0.314393	0.439220
O9	O	-0.008687	-0.826048	0.060345
O10	O	0.491313	-0.326048	0.560345
O11	O	0.098843	-0.719081	0.060357
O12	O	0.598843	-0.219081	0.560357
O13	O	0.087094	-0.921341	0.060308
O14	O	0.587094	-0.421341	0.560308
Zn15	Zn	0.092968	-0.820208	0.079560
Zn16	Zn	0.592968	-0.320208	0.579560
Zn17	Zn	0.092975	-0.820232	-0.079994
Zn18	Zn	0.592975	-0.320232	0.420006
O19	O	0.194625	-0.814374	0.060320
O20	O	0.694625	-0.314374	0.560320
C21	C	0.098468	-0.693214	-0.000186
C22	C	0.598468	-0.193214	0.499814
C23	C	0.097333	-0.616110	-0.000167
C24	C	0.597333	-0.116110	0.499833
C25	C	-0.034696	-0.825679	-0.000202
C26	C	0.465304	-0.325679	0.499798
C27	C	-0.112200	-0.824544	-0.000196
C28	C	0.387800	-0.324544	0.499804
C29	C	0.087475	-0.947227	-0.000250
C30	C	0.587475	-0.447227	0.499750
C31	C	0.088609	-1.024330	-0.000274
C32	C	0.588609	-0.524330	0.499726
C33	C	-0.157129	-0.887309	-0.000207
C34	C	0.342871	-0.387309	0.499793
C35	C	-0.229953	-0.886243	-0.000219
C36	C	0.270047	-0.386243	0.499781
C37	C	-0.257844	-0.822408	-0.000204
C38	C	0.242156	-0.322408	0.499796
C39	C	-0.212906	-0.759636	-0.000196
C40	C	0.287094	-0.259636	0.499804
C41	C	-0.140084	-0.760704	-0.000192
C42	C	0.359916	-0.260704	0.499808
N43	N	-0.365847	-0.773609	0.041020
N44	N	0.134153	-0.273609	0.541020
N45	N	-0.435026	-0.772598	0.041018
N46	N	0.064974	-0.272598	0.541018
C47	C	-0.477253	-0.819187	-0.000218
C48	C	0.022747	-0.319187	0.499782
N49	N	-0.447689	-0.866835	-0.041442
N50	N	0.052311	-0.366835	0.458558
N51	N	-0.378504	-0.867847	-0.041436
N52	N	0.121496	-0.367847	0.458564
C53	C	-0.336807	-0.821243	-0.000209
C54	C	0.163193	-0.321243	0.499791
C55	C	-0.601146	-0.880800	-0.000243
C56	C	-0.101146	-0.380800	0.499757
C57	C	-0.673971	-0.879731	-0.000259
C58	C	-0.173971	-0.379731	0.499741
C59	C	-0.656922	-0.753122	-0.000229
C60	C	-0.156922	-0.253122	0.499771
C61	C	-0.584099	-0.754193	-0.000220
C62	C	-0.084099	-0.254193	0.499780
C63	C	-0.556216	-0.818034	-0.000224
C64	C	-0.056216	-0.318034	0.499776
C65	C	0.220638	-0.814762	-0.000234
C66	C	0.720638	-0.314762	0.499766
C67	C	0.298143	-0.815896	-0.000245
C68	C	0.798143	-0.315896	0.499755
N69	N	0.092963	-0.820197	0.188451
N70	N	0.592963	-0.320197	0.688451
C71	C	0.160427	-0.571419	-0.000187
C72	C	0.660427	-0.071419	0.499813
C73	C	0.159361	-0.498972	-0.000195
C74	C	0.659361	0.001028	0.499805
C75	C	0.095197	-0.471219	-0.000198
C76	C	0.595197	0.028781	0.499802
C77	C	0.032095	-0.515921	-0.000174
C78	C	0.532095	-0.015921	0.499826
C79	C	0.033163	-0.588366	-0.000159
C80	C	0.533163	-0.088366	0.499841
C81	C	0.044759	-0.362960	-0.042642
C82	C	0.544759	0.137040	0.457358
C83	C	0.043694	-0.290515	-0.042662
C84	C	0.543694	0.209485	0.457338
C85	C	0.091900	-0.247773	-0.000241
C86	C	0.591900	0.252227	0.499759
C87	C	0.141184	-0.277483	0.042190
C88	C	0.641184	0.222517	0.542190
C89	C	0.142253	-0.349929	0.042205
C90	C	0.642253	0.150071	0.542205
C91	C	0.094032	-0.392665	-0.000214
C92	C	0.594032	0.107335	0.499786
C93	C	0.153843	-0.124526	-0.000268
C94	C	0.653843	0.375474	0.499732
C95	C	0.152774	-0.052078	-0.000272
C96	C	0.652774	0.447922	0.499728
C97	C	0.025506	-0.069028	-0.000259
C98	C	0.525506	0.430972	0.499741
C99	C	0.026576	-0.141475	-0.000248
C100	C	0.526576	0.358525	0.499752
C101	C	0.090747	-0.169219	-0.000256
C102	C	0.590747	0.330781	0.499744
N103	N	0.092974	-0.820249	-0.188885
N104	N	0.592974	-0.320249	0.311115
C105	C	0.045371	-0.867577	0.226546
C106	C	0.545371	-0.367577	0.726546
C107	C	0.045368	-0.867582	0.302774
C108	C	0.545368	-0.367582	0.802774
C109	C	0.092968	-0.820213	0.340903
C110	C	0.592968	-0.320213	0.840903
C111	C	0.140563	-0.772823	0.302799
C112	C	0.640563	-0.272823	0.802799
C113	C	0.140560	-0.772816	0.226573
C114	C	0.640560	-0.272816	0.726573
C115	C	0.156585	-0.810919	0.461657
C116	C	0.656585	-0.310919	0.961657
C117	C	0.156589	-0.810932	0.537882
C118	C	0.656589	-0.310932	1.037882
C119	C	0.092977	-0.820232	0.576011
C120	C	0.592977	-0.320232	1.076011
C121	C	0.029359	-0.829535	0.537906
C122	C	0.529359	-0.329535	1.037906
C123	C	0.029356	-0.829527	0.461679
C124	C	0.529356	-0.329527	0.961679
C125	C	0.092977	-0.820215	0.423558
C126	C	0.592977	-0.320215	0.923558
C127	C	0.045378	-0.867620	0.696761
C128	C	0.545378	-0.367620	1.196761
C129	C	0.045374	-0.867620	0.772990
C130	C	0.545374	-0.367620	1.272990
C131	C	0.140576	-0.772864	0.773014
C132	C	0.640576	-0.272864	1.273014
C133	C	0.140574	-0.772862	0.696786
C134	C	0.640574	-0.272862	1.196786
C135	C	0.092976	-0.820243	0.658664
C136	C	0.592976	-0.320243	1.158664
H137	H	-0.266541	-0.937355	-0.000231
H138	H	0.233459	-0.437355	0.499769
H139	H	0.212680	-0.594003	-0.000195
H140	H	0.712680	-0.094003	0.499805
C141	C	-0.042828	-0.190638	-0.000238
C142	C	0.457172	0.309362	0.499762
H143	H	-0.081196	-0.163736	-0.000247
H144	H	0.418804	0.336264	0.499753
H145	H	-0.045061	-0.219229	0.041997
H146	H	0.454939	0.280771	0.541997
H147	H	-0.045052	-0.219272	-0.042469
H148	H	0.454948	0.280728	0.457531
C149	C	0.222179	-0.002913	-0.000294
C150	C	0.722179	0.497087	0.499706
H151	H	0.212355	0.044207	-0.000293
H152	H	0.712355	0.544207	0.499707
H153	H	0.248498	-0.011326	-0.042527
H154	H	0.748498	0.488674	0.457473
H155	H	0.248501	-0.011282	0.041938
H156	H	0.748501	0.488718	0.541938
C157	C	-0.006978	-0.919742	0.814896
C158	C	0.493022	-0.419742	1.314896
H159	H	-0.035318	-0.947962	0.781271
H160	H	0.464682	-0.447962	1.281271
H161	H	-0.035982	-0.894855	0.844652
H162	H	0.464018	-0.394855	1.344652
H163	H	0.018075	-0.948577	0.844609
H164	H	0.518075	-0.448577	1.344609
H165	H	-0.020148	-0.493320	-0.000187
H166	H	0.479852	0.006680	0.499813
H167	H	-0.235620	-0.707661	-0.000186
H168	H	0.264380	-0.207661	0.499814
C169	C	0.192924	-0.720721	0.344738
C170	C	0.692924	-0.220721	0.844738
H171	H	0.186115	-0.727516	0.395593
H172	H	0.686115	-0.227516	0.895593
H173	H	0.185460	-0.674388	0.332275
H174	H	0.685460	-0.174388	0.832275
H175	H	0.239505	-0.728123	0.332227
H176	H	0.739505	-0.228123	0.832227
C177	C	-0.090660	-0.691660	-0.000173
C178	C	0.409340	-0.191660	0.499827
H179	H	-0.117698	-0.653488	-0.000162
H180	H	0.382302	-0.153488	0.499838
H181	H	-0.061884	-0.689451	-0.042397
H182	H	0.438116	-0.189451	0.457603
H183	H	-0.061912	-0.689440	0.042068
H184	H	0.438088	-0.189440	0.542068
H185	H	0.005502	-0.397755	-0.077191
H186	H	0.505502	0.102245	0.422809
C187	C	0.196454	-0.382612	0.088879
C188	C	0.696454	0.117388	0.588879
H189	H	0.190186	-0.431878	0.082806
H190	H	0.690186	0.068122	0.582806
H191	H	0.190141	-0.371530	0.138662
H192	H	0.690141	0.128470	0.638662
H193	H	0.242477	-0.364599	0.073951
H194	H	0.742477	0.135401	0.573951
H195	H	0.179316	-0.734232	0.195555
H196	H	0.679316	-0.234232	0.695555
C197	C	-0.570470	-0.951020	-0.000255
C198	C	-0.070470	-0.451020	0.499745
H199	H	-0.607661	-0.988249	-0.000274
H200	H	-0.107661	-0.488249	0.499726
H201	H	-0.542428	-0.954063	0.041977
H202	H	-0.042428	-0.454063	0.541977
H203	H	-0.542406	-0.954073	-0.042488
H204	H	-0.042406	-0.454073	0.457512
H205	H	-0.710552	-0.930844	-0.000272
H206	H	-0.210552	-0.430844	0.499728
C207	C	0.194215	-0.230480	0.088858
C208	C	0.694215	0.269520	0.588858
H209	H	0.223721	-0.258550	0.114124
H210	H	0.723721	0.241450	0.614124
H211	H	0.169659	-0.205417	0.122971
H212	H	0.669659	0.294583	0.622971
H213	H	0.221994	-0.198481	0.058259
H214	H	0.721994	0.301519	0.558259
H215	H	-0.134431	-0.939293	-0.000213
H216	H	0.365569	-0.439293	0.499787
C217	C	0.226563	-0.800693	0.419723
C218	C	0.726563	-0.300693	0.919723
H219	H	0.264451	-0.795166	0.453332
H220	H	0.764451	-0.295166	0.953332
H221	H	0.228084	-0.760244	0.390005
H222	H	0.728084	-0.260244	0.890005
H223	H	0.230329	-0.840372	0.389968
H224	H	0.730329	-0.340372	0.889968
H225	H	-0.022445	-0.837100	0.430657
H226	H	0.477555	-0.337100	0.930657
H227	H	-0.026738	-0.046433	-0.000306
H228	H	0.473262	0.453567	0.499694
C229	C	-0.687594	-0.682906	-0.000215
C230	C	-0.187594	-0.182906	0.499785
H231	H	-0.737400	-0.691258	-0.000216
H232	H	-0.237400	-0.191258	0.499784
H233	H	-0.672147	-0.657078	-0.042438
H234	H	-0.172147	-0.157078	0.457562
H235	H	-0.672169	-0.657065	0.042027
H236	H	-0.172169	-0.157065	0.542027
H237	H	0.006619	-0.906199	0.665721
H238	H	0.506619	-0.406199	1.165721
C239	C	-0.036242	-0.637532	-0.000143
C240	C	0.463758	-0.137532	0.499857
H241	H	-0.026416	-0.684652	-0.000131
H242	H	0.473584	-0.184652	0.499869
H243	H	-0.062562	-0.629164	-0.042371
H244	H	0.437438	-0.129164	0.457629
H245	H	-0.062562	-0.629120	0.042094
H246	H	0.437438	-0.129120	0.542094
C247	C	-0.534675	-0.685151	-0.000195
C248	C	-0.034675	-0.185151	0.499805
H249	H	-0.561714	-0.646980	-0.000182
H250	H	-0.061714	-0.146980	0.499818
H251	H	-0.505901	-0.682940	-0.042421
H252	H	-0.005901	-0.182940	0.457579
H253	H	-0.505926	-0.682933	0.042044
H254	H	-0.005926	-0.182933	0.542044
C255	C	-0.006991	-0.919687	0.184616
C256	C	0.493009	-0.419687	0.684616
H257	H	-0.035340	-0.947902	0.218226
H258	H	0.464660	-0.447902	0.718226
H259	H	0.018047	-0.948519	0.154855
H260	H	0.518047	-0.448519	0.654855
H261	H	-0.035997	-0.894784	0.154905
H262	H	0.464003	-0.394784	0.654905
H263	H	0.210742	-0.462577	-0.000208
H264	H	0.710742	0.037423	0.499792
C265	C	-0.006983	-0.919703	0.344688
C266	C	0.493017	-0.419703	0.844688
H267	H	-0.035328	-0.947922	0.311066
H268	H	0.464672	-0.447922	0.811066
H269	H	-0.035983	-0.894814	0.374446
H270	H	0.464017	-0.394814	0.874446
H271	H	0.018070	-0.948540	0.374399
H272	H	0.518070	-0.448540	0.874399
C273	C	-0.040618	-0.839761	0.579837
C274	C	0.459382	-0.339761	1.079837
H275	H	-0.031508	-0.838424	0.630691
H276	H	0.468492	-0.338424	1.130691
H277	H	-0.065632	-0.883641	0.567331
H278	H	0.434368	-0.383641	1.067331
H279	H	-0.067881	-0.803514	0.567365
H280	H	0.432119	-0.303514	1.067365
H281	H	0.003566	-0.266331	-0.077215
H282	H	0.503566	0.233669	0.422785
C283	C	0.224424	-0.155051	-0.000268
C284	C	0.724424	0.344949	0.499732
H285	H	0.216024	-0.204599	-0.000267
H286	H	0.716024	0.295401	0.499733
H287	H	0.250392	-0.139676	0.041957
H288	H	0.750392	0.360324	0.541957
H289	H	0.250395	-0.139718	-0.042508
H290	H	0.750395	0.360282	0.457492
C291	C	0.192936	-0.720757	0.654876
C292	C	0.692936	-0.220757	1.154876
H293	H	0.186116	-0.727535	0.604018
H294	H	0.686116	-0.227535	1.104018
H295	H	0.239513	-0.728163	0.667356
H296	H	0.739513	-0.228163	1.167356
H297	H	0.185475	-0.674422	0.667391
H298	H	0.685475	-0.174422	1.167391
H299	H	0.179330	-0.734293	0.804059
H300	H	0.679330	-0.234293	1.304059
C301	C	0.226565	-0.800704	0.579791
C302	C	0.726565	-0.300704	1.079791
H303	H	0.264449	-0.795152	0.546167
H304	H	0.764449	-0.295152	1.046167
H305	H	0.230342	-0.840382	0.609503
H306	H	0.730342	-0.340382	1.109503
H307	H	0.228080	-0.760257	0.609550
H308	H	0.728080	-0.260257	1.109550
