data_functionalizedCrystal
_audit_creation_method	'MofGen! by Chris Wilmer'
_symmetry_space_group_name_H-M	'P1'
_symmetry_Int_Tables_number	1
_symmetry_cell_setting	triclinic
loop_
_symmetry_equiv_pos_as_xyz
  x,y,z
_cell_length_a	11.792241
_cell_length_b	17.699083
_cell_length_c	16.776229
_cell_angle_alpha	89.999799
_cell_angle_beta	90.002923
_cell_angle_gamma	96.261785
loop_
_atom_site_label
_atom_site_type_symbol
_atom_site_fract_x
_atom_site_fract_y
_atom_site_fract_z
O1	O	-1.505669	0.103738	-0.066199
O2	O	-1.175200	0.114429	-0.066216
O3	O	-1.349771	-0.001056	-0.066215
O4	O	-1.331098	0.219223	-0.066200
O5	O	-1.349748	-0.001063	0.066362
O6	O	-1.175177	0.114422	0.066361
O7	O	-1.505646	0.103731	0.066378
Zn8	Zn	-1.340408	0.109075	0.087419
Zn9	Zn	-1.340438	0.109085	-0.087257
O10	O	-1.331075	0.219216	0.066377
C11	C	-1.132906	0.113754	0.000070
C12	C	-1.006916	0.111744	0.000063
C13	C	-1.547941	0.104406	0.000090
C14	C	-1.673930	0.106416	0.000092
C15	C	-1.331756	0.247420	0.000090
C16	C	-1.333763	0.331449	0.000096
C17	C	-0.776248	0.108048	0.000085
C18	C	-0.904609	0.110101	0.000073
C19	C	-1.349091	-0.029260	0.000070
C20	C	-1.347083	-0.113289	0.000059
N21	N	-1.340396	0.109068	0.206630
C22	C	-1.231293	0.379523	0.000091
C23	C	-1.233186	0.458477	0.000082
C24	C	-1.337550	0.489354	0.000084
C25	C	-1.440027	0.441273	0.000086
C26	C	-1.438133	0.362321	0.000090
C27	C	-1.447668	0.759677	0.000071
C28	C	-1.449554	0.838635	0.000070
C29	C	-1.242721	0.855832	0.000063
C30	C	-1.240827	0.776881	0.000066
C31	C	-1.343304	0.728807	0.000065
C32	C	-1.341250	0.643196	0.000074
C33	C	-1.339605	0.574962	0.000081
N34	N	-1.340460	0.109086	-0.206468
C35	C	-1.417719	0.057953	0.248348
C36	C	-1.417725	0.057952	0.331800
C37	C	-1.340413	0.109071	0.373533
C38	C	-1.263081	0.160189	0.331809
C39	C	-1.263070	0.160185	0.248359
C40	C	-1.263122	0.160204	0.668357
C41	C	-1.263141	0.160205	0.751813
C42	C	-1.417777	0.057971	0.751798
C43	C	-1.417766	0.057967	0.668347
C44	C	-1.340431	0.109082	0.626631
C45	C	-1.340424	0.109081	0.536142
C46	C	-1.340425	0.109076	0.464020
H47	H	-1.146309	0.354390	0.000099
H48	H	-1.200104	0.201808	0.214393
H49	H	-1.200155	0.201825	0.634398
F50	F	-1.560638	0.871494	0.000070
H51	H	-1.149745	0.497617	0.000075
H52	H	-1.480687	0.016329	0.365766
H53	H	-1.531111	0.720544	0.000075
F54	F	-1.180849	0.214615	0.796227
H55	H	-1.525002	0.466419	0.000089
H56	H	-1.155844	0.751745	0.000069
H57	H	-1.200126	0.201809	0.365793
F58	F	-1.133655	0.907003	0.000060
F59	F	-1.547196	0.311156	0.000092
F60	F	-1.500013	0.003547	0.203940
H61	H	-1.480725	0.016344	0.634371
F62	F	-1.500082	0.003566	0.796201
