data_functionalizedCrystal
_audit_creation_method	'MofGen! by Chris Wilmer'
_symmetry_space_group_name_H-M	'P1'
_symmetry_Int_Tables_number	1
_symmetry_cell_setting	triclinic
loop_
_symmetry_equiv_pos_as_xyz
  x,y,z
_cell_length_a	23.532407
_cell_length_b	23.532357
_cell_length_c	9.730223
_cell_angle_alpha	89.990081
_cell_angle_beta	89.999391
_cell_angle_gamma	82.838519
loop_
_atom_site_label
_atom_site_type_symbol
_atom_site_fract_x
_atom_site_fract_y
_atom_site_fract_z
O1	O	0.755246	0.069137	-0.114220
O2	O	0.589381	0.079140	-0.114244
O3	O	0.677330	-0.008795	-0.114203
O4	O	0.667297	0.157072	-0.114261
O5	O	0.677324	-0.008798	0.114377
O6	O	0.589375	0.079138	0.114336
O7	O	0.755240	0.069134	0.114360
Zn8	Zn	0.672307	0.074136	0.150640
Zn9	Zn	0.672314	0.074139	-0.150524
O10	O	0.667291	0.157070	0.114319
C11	C	0.568162	0.078884	0.000044
C12	C	0.504945	0.078118	0.000036
C13	C	0.238788	0.022922	0.000092
C14	C	0.298188	0.023633	0.000092
O15	O	0.334940	-0.020154	0.000155
N16	N	0.320805	0.075911	0.000064
C17	C	0.284018	0.127480	0.000051
O18	O	0.308710	0.172012	0.000029
C19	C	0.224619	0.126768	0.000062
C20	C	0.202006	0.074487	0.000075
C21	C	0.216174	-0.029355	0.000108
C22	C	0.156778	-0.030066	0.000106
C23	C	0.119996	0.021499	0.000089
C24	C	0.142610	0.073776	0.000073
C25	C	0.187833	0.178337	0.000058
C26	C	0.128431	0.177620	0.000070
C27	C	0.105818	0.125339	0.000084
C28	C	0.046431	0.124630	0.000054
N29	N	0.023815	0.072353	0.000082
C30	C	0.060597	0.020787	0.000099
C31	C	0.408760	0.128971	0.000032
C32	C	0.468158	0.129684	0.000011
C33	C	0.482324	0.025837	0.000055
C34	C	0.422925	0.025125	0.000065
C35	C	0.386143	0.076694	0.000059
C36	C	-0.064140	0.019297	0.000094
C37	C	-0.123542	0.018591	0.000086
C38	C	-0.137702	0.122438	0.000050
C39	C	-0.078306	0.123145	0.000051
C40	C	-0.041525	0.071570	0.000077
O41	O	0.009644	0.168394	-0.000003
O42	O	0.035897	-0.023737	0.000139
C43	C	0.677076	-0.030013	0.000092
C44	C	0.676322	-0.093232	0.000104
C45	C	0.671588	-0.485242	-0.124569
C46	C	0.670871	-0.544641	-0.124577
O47	O	0.670483	-0.575356	-0.230544
N48	N	0.670512	-0.574354	0.000020
C49	C	0.670865	-0.544663	0.124633
O50	O	0.670493	-0.575390	0.230612
C51	C	0.671578	-0.485264	0.124640
C52	C	0.671942	-0.455555	0.000034
C53	C	0.671952	-0.455533	-0.249165
C54	C	0.672670	-0.396138	-0.249156
C55	C	0.673025	-0.366451	-0.124552
C56	C	0.672661	-0.396160	0.000043
C57	C	0.671927	-0.455573	0.249251
C58	C	0.672639	-0.396170	0.249247
C59	C	0.673004	-0.366462	0.124642
C60	C	0.673733	-0.307078	0.124655
N61	N	0.674092	-0.277366	0.000058
C62	C	0.673738	-0.307052	-0.124546
C63	C	0.669366	-0.669404	0.124610
C64	C	0.668657	-0.728803	0.124605
C65	C	0.668662	-0.728777	-0.124606
C66	C	0.669375	-0.669378	-0.124600
C67	C	0.669725	-0.639692	0.000013
C68	C	0.675247	-0.182318	-0.124519
C69	C	0.675967	-0.122918	-0.124499
C70	C	0.675959	-0.122949	0.124711
C71	C	0.675242	-0.182344	0.124692
C72	C	0.674883	-0.212027	0.000066
O73	O	0.674119	-0.276325	0.230567
O74	O	0.674102	-0.276317	-0.230507
C75	C	0.776459	0.069390	0.000070
C76	C	0.839676	0.070156	0.000069
C77	C	0.667545	0.178288	0.000022
C78	C	0.668300	0.241506	0.000000
N79	N	0.672306	0.074133	0.356177
N80	N	0.672320	0.074137	-0.356060
C81	C	0.711263	0.035212	0.428121
C82	C	0.711269	0.035212	0.572004
C83	C	0.633359	0.113060	0.571986
C84	C	0.633351	0.113057	0.428106
H85	H	0.246117	-0.071348	0.000126
H86	H	0.098485	0.219615	0.000072
H87	H	0.378815	0.170968	0.000017
O88	O	0.595444	0.150814	0.641802
C89	C	0.496226	0.184707	0.685787
C90	C	0.539102	0.141910	0.606662
H91	H	0.450665	0.177531	0.657384
H92	H	0.502876	0.178025	0.800997
H93	H	0.503404	0.230282	0.657487
H94	H	0.531951	0.096318	0.634848
H95	H	0.532442	0.148642	0.491472
H96	H	0.512283	-0.016151	0.000069
H97	H	0.601625	0.144752	0.369525
O98	O	-0.173416	0.172541	-0.000208
C99	C	-0.203693	0.261098	-0.118596
C100	C	-0.163223	0.204373	-0.118504
H101	H	-0.195459	0.286856	-0.214213
H102	H	-0.250041	0.251636	-0.118677
H103	H	-0.195514	0.286816	-0.022897
H104	H	-0.171351	0.178627	-0.214187
H105	H	-0.116889	0.213875	-0.118352
O106	O	-0.145412	-0.032248	0.000164
C107	C	-0.125082	-0.135174	0.000122
C108	C	-0.100240	-0.077643	0.000064
H109	H	-0.088572	-0.171891	0.000012
H110	H	-0.152516	-0.138145	0.095805
H111	H	-0.152555	-0.138074	-0.095516
H112	H	-0.072741	-0.074705	0.095637
H113	H	-0.072838	-0.074697	-0.095682
O114	O	0.209864	0.229084	0.000212
C115	C	0.268678	0.290178	0.118617
C116	C	0.243775	0.232679	0.118610
H117	H	0.296091	0.293109	0.214345
H118	H	0.296165	0.293114	0.023011
H119	H	0.232173	0.326901	0.118538
H120	H	0.280244	0.195924	0.118737
H121	H	0.216272	0.229793	0.214207
H122	H	0.486564	0.172256	-0.000019
H123	H	0.669653	-0.645238	0.226090
H124	H	-0.034199	-0.022700	0.000115
O125	O	-0.056305	0.173913	-0.000205
C126	C	0.002575	0.234974	-0.118558
C127	C	-0.022310	0.177466	-0.118481
H128	H	0.030075	0.237860	-0.214158
H129	H	-0.033895	0.271732	-0.118660
H130	H	0.029999	0.237887	-0.022842
H131	H	-0.049727	0.174497	-0.214180
H132	H	0.014187	0.140735	-0.118307
O133	O	0.134746	-0.080816	0.000314
C134	C	0.075946	-0.141910	0.118815
C135	C	0.100843	-0.084408	0.118730
H136	H	0.048539	-0.144838	0.214559
H137	H	0.048453	-0.144853	0.023225
H138	H	0.112454	-0.178630	0.118763
H139	H	0.064371	-0.047656	0.118830
H140	H	0.128351	-0.081515	0.214312
H141	H	0.676265	-0.098732	-0.225972
H142	H	0.668372	-0.752958	-0.226065
H143	H	0.674950	-0.206535	0.226156
H144	H	0.671661	-0.479697	-0.350637
O145	O	0.401056	-0.025710	0.000147
C146	C	0.421392	-0.128636	0.000096
C147	C	0.446230	-0.071104	0.000033
H148	H	0.457903	-0.165352	-0.000025
H149	H	0.393962	-0.131610	0.095787
H150	H	0.393914	-0.131536	-0.095534
H151	H	0.473733	-0.068165	0.095598
H152	H	0.473627	-0.068155	-0.095721
O153	O	0.668206	-0.757616	0.245687
C154	C	0.618648	-0.769024	0.458716
C155	C	0.619087	-0.736364	0.321619
H156	H	0.578946	-0.751846	0.520158
H157	H	0.618036	-0.816581	0.437417
H158	H	0.658667	-0.762798	0.520110
H159	H	0.579076	-0.742543	0.260156
H160	H	0.619728	-0.688819	0.343014
H161	H	0.742982	0.003517	0.369560
O162	O	0.674915	-0.211061	-0.245701
C163	C	0.674942	-0.204743	-0.492880
C164	C	0.675334	-0.172124	-0.355744
H165	H	0.675268	-0.173275	-0.581885
H166	H	0.714473	-0.237984	-0.499235
H167	H	0.634749	-0.227119	-0.499036
H168	H	0.715501	-0.149714	-0.349495
H169	H	0.635776	-0.138915	-0.349447
H170	H	0.672965	-0.371954	-0.350623
O171	O	0.671475	-0.484464	0.370219
C172	C	0.621250	-0.544727	0.514882
C173	C	0.621709	-0.512053	0.377808
H174	H	0.581012	-0.567031	0.521075
H175	H	0.660740	-0.578021	0.521219
H176	H	0.621643	-0.513279	0.603884
H177	H	0.621296	-0.543458	0.288728
H178	H	0.582222	-0.478751	0.371591
H179	H	0.669671	-0.645193	-0.226064
O180	O	0.673056	-0.367285	0.370216
C181	C	0.723219	-0.307010	0.514939
C182	C	0.722811	-0.339682	0.377880
H183	H	0.763448	-0.284694	0.521192
H184	H	0.683719	-0.273725	0.521189
H185	H	0.722807	-0.338461	0.603955
H186	H	0.723243	-0.308275	0.288786
H187	H	0.762307	-0.372975	0.371750
O188	O	0.676198	-0.094061	0.245703
C189	C	0.627658	-0.020235	0.390228
C190	C	0.627318	-0.052920	0.253175
H191	H	0.588149	0.013042	0.396301
H192	H	0.627236	-0.051632	0.479357
H193	H	0.667870	0.002108	0.396449
H194	H	0.587112	-0.075265	0.246820
H195	H	0.627770	-0.021497	0.164111
O196	O	0.749168	-0.002617	0.641677
C197	C	0.826421	-0.079854	0.626501
C198	C	0.783540	-0.037032	0.547427
H199	H	0.854214	-0.107697	0.550334
H200	H	0.854767	-0.055436	0.693804
H201	H	0.801996	-0.108157	0.693920
H202	H	0.807919	-0.008717	0.479933
H203	H	0.755194	-0.061485	0.480210
