data_functionalizedCrystal
_audit_creation_method	'MofGen! by Chris Wilmer'
_symmetry_space_group_name_H-M	'P1'
_symmetry_Int_Tables_number	1
_symmetry_cell_setting	triclinic
loop_
_symmetry_equiv_pos_as_xyz
  x,y,z
_cell_length_a	14.044220
_cell_length_b	14.044220
_cell_length_c	11.295483
_cell_angle_alpha	94.468632
_cell_angle_beta	85.525227
_cell_angle_gamma	93.188878
loop_
_atom_site_label
_atom_site_type_symbol
_atom_site_fract_x
_atom_site_fract_y
_atom_site_fract_z
O1	O	1.283048	0.224289	-0.098902
O2	O	1.006378	0.215982	-0.098932
O3	O	1.140559	0.081800	-0.098906
O4	O	1.148866	0.358470	-0.098929
O5	O	1.128772	0.093566	0.099143
O6	O	0.994591	0.227747	0.099116
O7	O	1.271261	0.236055	0.099146
Cu8	Cu	1.131850	0.232975	0.117215
Cu9	Cu	1.145789	0.219061	-0.117001
O10	O	1.137079	0.370236	0.099120
C11	C	0.964863	0.218229	0.000088
C12	C	0.858721	0.207383	0.000077
C13	C	1.131030	0.052061	0.000118
C14	C	1.120186	-0.054081	0.000119
C15	C	0.664382	0.187559	0.000102
C16	C	0.613252	0.264473	0.000101
C17	C	0.505115	0.253442	0.000115
C18	C	0.772528	0.198588	0.000088
C19	C	1.100360	-0.248420	0.000099
C20	C	1.177275	-0.299550	0.000104
C21	C	1.166244	-0.407687	0.000093
C22	C	1.111390	-0.140274	0.000110
C23	C	1.312776	0.233808	0.000123
C24	C	1.418919	0.244652	0.000126
C25	C	1.146609	0.399975	0.000093
C26	C	1.157454	0.506117	0.000085
N27	N	1.122052	0.242762	0.281949
N28	N	1.155594	0.209268	-0.281735
C29	C	1.226117	0.138766	0.531259
C30	C	1.218720	0.146169	0.655921
C31	C	1.099858	0.264966	0.655938
C32	C	1.107254	0.257562	0.531276
C33	C	1.170387	0.194462	0.468941
C34	C	1.177788	0.187064	0.344276
C35	C	1.058921	0.305855	0.344295
C36	C	1.051525	0.313258	0.468957
H37	H	0.650692	0.338606	0.000089
H38	H	0.626944	0.113432	0.000115
H39	H	1.277529	0.087393	0.480505
H40	H	1.264099	0.100814	0.706657
H41	H	1.048450	0.316334	0.706707
H42	H	1.251412	-0.262115	0.000032
H43	H	1.026234	-0.285858	0.000089
H44	H	1.229196	0.135687	0.293524
H45	H	1.000120	0.364631	0.519725
H46	H	1.013545	0.351209	0.293541
