data_functionalizedCrystal
_audit_creation_method	'MofGen! by Chris Wilmer'
_symmetry_space_group_name_H-M	'P1'
_symmetry_Int_Tables_number	1
_symmetry_cell_setting	triclinic
loop_
_symmetry_equiv_pos_as_xyz
  x,y,z
_cell_length_a	16.625546
_cell_length_b	19.077105
_cell_length_c	19.076919
_cell_angle_alpha	90.076224
_cell_angle_beta	87.730083
_cell_angle_gamma	92.281241
loop_
_atom_site_label
_atom_site_type_symbol
_atom_site_fract_x
_atom_site_fract_y
_atom_site_fract_z
Zn1	Zn	-0.390077	-1.058283	0.440407
Zn2	Zn	0.109923	-0.558283	0.940407
Zn3	Zn	-0.519720	-1.062927	0.322896
Zn4	Zn	-0.019720	-0.562927	0.822896
Zn5	Zn	-0.379275	-0.945500	0.318200
Zn6	Zn	0.120725	-0.445500	0.818200
Zn7	Zn	-0.519234	-0.940748	0.435649
Zn8	Zn	-0.019234	-0.440748	0.935649
O9	O	-0.452076	-1.001864	0.379288
O10	O	0.047924	-0.501864	0.879288
O11	O	-0.411998	-1.157231	0.428775
O12	O	0.088002	-0.657231	0.928775
O13	O	-0.496773	-1.051282	0.223942
O14	O	0.003227	-0.551282	0.723942
O15	O	-0.267879	-0.960506	0.334437
O16	O	0.232121	-0.460506	0.834437
O17	O	-0.507246	-1.160642	0.342441
O18	O	-0.007246	-0.660642	0.842441
O19	O	-0.275815	-1.043367	0.424222
O20	O	0.224185	-0.543367	0.924222
O21	O	-0.393589	-0.965009	0.220492
O22	O	0.106411	-0.465009	0.720492
O23	O	-0.393117	-0.846538	0.329824
O24	O	0.106883	-0.346538	0.829824
O25	O	-0.506418	-0.952407	0.534611
O26	O	-0.006418	-0.452407	1.034611
O27	O	-0.495944	-0.843047	0.416113
O28	O	0.004056	-0.343047	0.916113
O29	O	-0.411527	-1.038759	0.538107
O30	O	0.088473	-0.538759	1.038107
O31	O	-0.632485	-1.046674	0.337827
O32	O	-0.132485	-0.546674	0.837827
O33	O	-0.632127	-0.956910	0.420666
O34	O	-0.132127	-0.456910	0.920666
C35	C	-0.661563	-1.001799	0.379256
C36	C	-0.161563	-0.501799	0.879256
C37	C	-0.751186	-1.001834	0.379268
C38	C	-0.251186	-0.501834	0.879268
C39	C	-0.443306	-0.819296	0.371943
C40	C	0.056694	-0.319296	0.871943
C41	C	-0.439575	-0.741192	0.368817
C42	C	0.060425	-0.241192	0.868817
C43	C	-0.460881	-1.185146	0.386662
C44	C	0.039119	-0.685146	0.886662
C45	C	-0.464634	-1.263249	0.389805
C46	C	0.035366	-0.763249	0.889805
C47	C	-1.079371	-1.001954	0.379346
C48	C	-0.579371	-0.501954	0.879346
C49	C	-0.988060	-1.001918	0.379327
C50	C	-0.488060	-0.501918	0.879327
C51	C	-0.915281	-1.001894	0.379307
C52	C	-0.415281	-0.501894	0.879307
C53	C	-0.823965	-1.001859	0.379288
C54	C	-0.323965	-0.501859	0.879288
C55	C	-0.241774	-1.001948	0.379336
C56	C	0.258226	-0.501948	0.879336
C57	C	-0.152155	-1.001984	0.379357
C58	C	0.347845	-0.501984	0.879357
C59	C	-0.460123	-0.994535	0.562568
C60	C	0.039877	-0.494535	1.062568
C61	C	-0.463552	-0.991412	0.640671
C62	C	0.036448	-0.491412	1.140671
C63	C	-0.491432	-0.702702	0.412204
C64	C	0.008568	-0.202702	0.912204
C65	C	-0.487916	-0.629314	0.409270
C66	C	0.012084	-0.129314	0.909270
C67	C	-0.432544	-0.594418	0.362946
C68	C	0.067456	-0.094418	0.862946
C69	C	-0.380681	-0.632913	0.319557
C70	C	0.119319	-0.132913	0.819557
C71	C	-0.384194	-0.706299	0.322495
C72	C	0.115806	-0.206299	0.822495
C73	C	-0.416284	-0.375130	0.349354
C74	C	0.083716	0.124870	0.849354
C75	C	-0.412776	-0.301739	0.346418
C76	C	0.087224	0.198261	0.846418
C77	C	-0.520010	-0.298145	0.436133
C78	C	-0.020010	0.201855	0.936133
C79	C	-0.523522	-0.371533	0.439063
C80	C	-0.023522	0.128467	0.939063
C81	C	-0.471655	-0.410021	0.395677
C82	C	0.028345	0.089979	0.895677
N83	N	-0.428950	-0.519405	0.359945
N84	N	0.071050	-0.019405	0.859945
N85	N	-0.475247	-0.485034	0.398682
N86	N	0.024753	0.014966	0.898682
C87	C	-0.444005	-1.009205	0.196723
C88	C	0.055995	-0.509205	0.696723
C89	C	-0.440356	-1.012465	0.118626
C90	C	0.059644	-0.512465	0.618626
C91	C	-0.415760	-1.034901	0.679185
C92	C	0.084240	-0.534901	1.179185
C93	C	-0.418978	-1.031958	0.752571
C94	C	0.081022	-0.531958	1.252571
C95	C	-0.469993	-0.985529	0.787441
C96	C	0.030007	-0.485529	1.287441
C97	C	-0.517786	-0.942035	0.748922
C98	C	-0.017786	-0.442035	1.248922
C99	C	-0.514563	-0.944975	0.675537
C100	C	-0.014563	-0.444975	1.175537
C101	C	-0.484926	-0.971911	1.006722
C102	C	0.015074	-0.471911	1.506722
C103	C	-0.488147	-0.968976	1.080112
C104	C	0.011853	-0.468976	1.580112
C105	C	-0.389338	-1.058898	1.083755
C106	C	0.110662	-0.558898	1.583755
C107	C	-0.386123	-1.061837	1.010369
C108	C	0.113877	-0.561837	1.510369
C109	C	-0.433913	-1.018341	0.971856
C110	C	0.066087	-0.518341	1.471856
N111	N	-0.473286	-0.982521	0.862453
N112	N	0.026714	-0.482521	1.362453
N113	N	-0.430616	-1.021346	0.896846
N114	N	0.069384	-0.521346	1.396846
H115	H	-0.530145	-0.597979	0.444600
H116	H	-0.030145	-0.097979	0.944600
C117	C	-0.573902	-0.890964	0.787278
C118	C	-0.073902	-0.390964	1.287278
H119	H	-0.568984	-0.895446	0.836499
H120	H	-0.068984	-0.395446	1.336499
H121	H	-0.559308	-0.844237	0.773352
H122	H	-0.059308	-0.344237	1.273352
H123	H	-0.628044	-0.901714	0.775650
H124	H	-0.128044	-0.401714	1.275650
C125	C	-0.544263	-0.917899	1.118468
C126	C	-0.044263	-0.417899	1.618468
H127	H	-0.572259	-0.892411	1.085021
H128	H	-0.072259	-0.392411	1.585021
H129	H	-0.581944	-0.943618	1.148169
H130	H	-0.081944	-0.443618	1.648169
H131	H	-0.513199	-0.886150	1.145870
H132	H	-0.013199	-0.386150	1.645870
C133	C	-0.330007	-1.112910	0.972017
C134	C	0.169993	-0.612910	1.472017
H135	H	-0.302001	-1.138387	1.005465
H136	H	0.197999	-0.638387	1.505465
H137	H	-0.361067	-1.144659	0.944617
H138	H	0.138933	-0.644659	1.444617
H139	H	-0.292324	-1.087189	0.942314
H140	H	0.207676	-0.587189	1.442314
C141	C	-0.351872	-0.263352	0.295454
C142	C	0.148128	0.236648	0.795454
H143	H	-0.357220	-0.214134	0.299912
H144	H	0.142780	0.285866	0.799912
H145	H	-0.298743	-0.274973	0.306299
H146	H	0.201257	0.225027	0.806299
H147	H	-0.362100	-0.277259	0.248704
H148	H	0.137900	0.222741	0.748704
C149	C	-0.359238	-0.417462	0.301630
C150	C	0.140762	0.082538	0.801630
H151	H	-0.369250	-0.466166	0.310016
H152	H	0.130750	0.033834	0.810016
H153	H	-0.368303	-0.407311	0.253917
H154	H	0.131697	0.092689	0.753917
H155	H	-0.304960	-0.405034	0.311524
H156	H	0.195040	0.094966	0.811524
H157	H	-0.335593	-0.604495	0.281842
H158	H	0.164407	-0.104495	0.781842
C159	C	-0.537476	-0.924052	0.964366
C160	C	-0.037476	-0.424052	1.464366
H161	H	-0.568318	-0.895981	0.995646
H162	H	-0.068318	-0.395981	1.495646
H163	H	-0.503888	-0.894599	0.934523
H164	H	-0.003888	-0.394599	1.434523
H165	H	-0.572651	-0.952050	0.936804
H166	H	-0.072651	-0.452050	1.436804
C167	C	-0.327150	-0.748638	0.274771
C168	C	0.172850	-0.248638	0.774771
H169	H	-0.293673	-0.717346	0.246757
H170	H	0.206327	-0.217346	0.746757
H171	H	-0.294622	-0.776203	0.302855
H172	H	0.205378	-0.276203	0.802855
H173	H	-0.357963	-0.778478	0.245247
H174	H	0.142037	-0.278478	0.745247
C175	C	-0.336767	-1.106735	1.126120
C176	C	0.163233	-0.606735	1.626120
H177	H	-0.345986	-1.098332	1.174820
H178	H	0.154014	-0.598332	1.674820
H179	H	-0.350304	-1.154425	1.115994
H180	H	0.149696	-0.654425	1.615994
H181	H	-0.281569	-1.096947	1.113691
H182	H	0.218431	-0.596947	1.613691
C183	C	-0.366430	-1.079812	0.794937
C184	C	0.133570	-0.579812	1.294937
H185	H	-0.375653	-1.071412	0.843636
H186	H	0.124347	-0.571412	1.343636
H187	H	-0.379989	-1.127497	0.784803
H188	H	0.120011	-0.627497	1.284803
H189	H	-0.311226	-1.070045	0.782515
H190	H	0.188774	-0.570045	1.282515
C191	C	-0.359639	-1.085971	0.640834
C192	C	0.140361	-0.585971	1.140834
H193	H	-0.331631	-1.111444	0.674284
H194	H	0.168369	-0.611444	1.174284
H195	H	-0.390690	-1.117724	0.613431
H196	H	0.109310	-0.617724	1.113431
H197	H	-0.321958	-1.060244	0.611134
H198	H	0.178042	-0.560244	1.111134
H199	H	-0.568613	-0.399940	0.476784
H200	H	-0.068613	0.100060	0.976784
H201	H	-0.562235	-0.266800	0.471456
H202	H	-0.062235	0.233200	0.971456
C203	C	-0.567155	-0.897154	0.633173
C204	C	-0.067155	-0.397154	1.133173
H205	H	-0.598010	-0.869090	0.664450
H206	H	-0.098010	-0.369090	1.164450
H207	H	-0.533600	-0.867692	0.603311
H208	H	-0.033600	-0.367692	1.103311
H209	H	-0.602318	-0.925185	0.605630
H210	H	-0.102318	-0.425185	1.105630
C211	C	-0.552340	-0.741081	0.463162
C212	C	-0.052340	-0.241081	0.963162
H213	H	-0.582715	-0.707644	0.488586
H214	H	-0.082715	-0.207644	0.988586
H215	H	-0.587613	-0.770771	0.437376
H216	H	-0.087613	-0.270771	0.937376
H217	H	-0.524262	-0.768496	0.494976
H218	H	-0.024262	-0.268496	0.994976
