data_functionalizedCrystal
_audit_creation_method	'MofGen! by Chris Wilmer'
_symmetry_space_group_name_H-M	'P1'
_symmetry_Int_Tables_number	1
_symmetry_cell_setting	triclinic
loop_
_symmetry_equiv_pos_as_xyz
  x,y,z
_cell_length_a	19.288864
_cell_length_b	19.288865
_cell_length_c	18.366186
_cell_angle_alpha	89.988521
_cell_angle_beta	89.977106
_cell_angle_gamma	83.136245
loop_
_atom_site_label
_atom_site_type_symbol
_atom_site_fract_x
_atom_site_fract_y
_atom_site_fract_z
O1	O	0.921353	0.086649	-0.060791
O2	O	0.719092	0.098337	-0.060743
O3	O	0.826067	-0.008637	-0.060754
O4	O	0.814378	0.193623	-0.060780
O5	O	0.826049	-0.008643	0.060345
O6	O	0.719074	0.098332	0.060357
O7	O	0.921335	0.086643	0.060308
Zn8	Zn	0.820201	0.092487	0.079559
Zn9	Zn	0.820225	0.092494	-0.079994
O10	O	0.814360	0.193618	0.060319
C11	C	0.693207	0.097959	-0.000187
C12	C	0.616103	0.096830	-0.000167
C13	C	0.825682	-0.034516	-0.000202
C14	C	0.824553	-0.111620	-0.000195
C15	C	0.571407	0.159598	-0.000187
C16	C	0.498960	0.158537	-0.000195
C17	C	0.471212	0.094705	-0.000198
C18	C	0.515918	0.031929	-0.000174
C19	C	0.588364	0.032991	-0.000159
C20	C	0.362956	0.044527	-0.042642
C21	C	0.290512	0.043468	-0.042662
C22	C	0.247767	0.091425	-0.000241
C23	C	0.277473	0.140454	0.042189
C24	C	0.349918	0.141517	0.042205
C25	C	0.392658	0.093546	-0.000214
C26	C	0.124514	0.153047	-0.000269
C27	C	0.052066	0.151984	-0.000272
C28	C	0.069026	0.025374	-0.000259
C29	C	0.141473	0.026439	-0.000248
C30	C	0.169212	0.090278	-0.000256
C31	C	0.887321	-0.156316	-0.000207
C32	C	0.886260	-0.228763	-0.000218
C33	C	0.822428	-0.256511	-0.000203
C34	C	0.759652	-0.211805	-0.000196
C35	C	0.760714	-0.139359	-0.000192
C36	C	0.772242	-0.364800	0.042227
C37	C	0.771182	-0.437245	0.042228
C38	C	0.819148	-0.479956	-0.000219
C39	C	0.868186	-0.450216	-0.042657
C40	C	0.869248	-0.377771	-0.042653
C41	C	0.821269	-0.335065	-0.000208
C42	C	0.880770	-0.603209	-0.000244
C43	C	0.879707	-0.675657	-0.000259
C44	C	0.753097	-0.658697	-0.000230
C45	C	0.754162	-0.586250	-0.000221
C46	C	0.818001	-0.558511	-0.000225
C47	C	0.947220	0.087022	-0.000250
C48	C	1.024324	0.088151	-0.000274
C49	C	0.814745	0.219497	-0.000234
C50	C	0.815874	0.296601	-0.000246
N51	N	0.820190	0.092482	0.188451
N52	N	0.820242	0.092493	-0.188885
C53	C	0.867574	0.045137	0.226546
C54	C	0.867578	0.045134	0.302774
C55	C	0.820206	0.092488	0.340903
C56	C	0.772813	0.139836	0.302799
C57	C	0.772805	0.139834	0.226572
C58	C	0.810907	0.155775	0.461657
C59	C	0.810920	0.155779	0.537882
C60	C	0.820225	0.092496	0.576011
C61	C	0.829533	0.029207	0.537905
C62	C	0.829525	0.029204	0.461679
C63	C	0.820208	0.092496	0.423558
C64	C	0.867617	0.045144	0.696761
C65	C	0.867616	0.045140	0.772990
C66	C	0.772854	0.139849	0.773014
C67	C	0.772851	0.139847	0.696786
C68	C	0.820236	0.092495	0.658664
H69	H	0.593987	0.211580	-0.000195
H70	H	0.837110	-0.022324	0.568948
H71	H	0.624756	-0.018124	-0.000144
Cl72	Cl	0.799224	0.235342	0.585778
Cl73	Cl	0.958623	-0.731848	-0.000279
Cl74	Cl	0.681799	-0.083166	-0.000177
Cl75	Cl	0.675249	-0.530057	-0.000203
H76	H	0.015674	0.203099	-0.000284
Cl77	Cl	0.159390	0.233300	-0.000272
Cl78	Cl	0.672850	-0.693572	-0.000215
Cl79	Cl	0.679405	-0.246686	-0.000183
Cl80	Cl	0.253173	-0.018162	-0.096011
H81	H	0.493322	-0.020044	-0.000187
Cl82	Cl	0.799273	0.235341	0.413731
H83	H	0.177866	-0.024674	-0.000236
H84	H	0.397755	0.005473	-0.077191
Cl85	Cl	0.709538	-0.474625	0.095580
H86	H	0.906165	0.006578	0.333797
Cl87	Cl	0.387262	0.203147	0.095547
H88	H	0.939303	-0.133736	-0.000212
Cl89	Cl	0.223744	0.200749	0.095522
Cl90	Cl	0.034151	-0.054873	-0.000254
Cl91	Cl	0.965174	-0.284963	-0.000233
Cl92	Cl	0.713255	0.199365	0.350731
Cl93	Cl	0.930888	-0.340385	-0.096005
Cl94	Cl	0.711937	-0.311112	0.095596
H95	H	0.907244	-0.484991	-0.077221
Cl96	Cl	0.442760	0.237451	-0.000218
H97	H	0.932751	-0.580622	-0.000250
Cl98	Cl	0.927139	-0.014393	0.178622
Cl99	Cl	0.841218	-0.050356	0.413778
H100	H	0.734219	0.178388	0.195554
Cl101	Cl	0.927182	-0.014387	0.648835
Cl102	Cl	0.713294	0.199374	0.820943
Cl103	Cl	0.927185	-0.014389	0.820885
Cl104	Cl	0.713284	0.199373	0.648890
