data_functionalizedCrystal
_audit_creation_method	'MofGen! by Chris Wilmer'
_symmetry_space_group_name_H-M	'P1'
_symmetry_Int_Tables_number	1
_symmetry_cell_setting	triclinic
loop_
_symmetry_equiv_pos_as_xyz
  x,y,z
_cell_length_a	14.908782
_cell_length_b	19.120786
_cell_length_c	14.908694
_cell_angle_alpha	90.966725
_cell_angle_beta	90.174534
_cell_angle_gamma	89.311817
loop_
_atom_site_label
_atom_site_type_symbol
_atom_site_fract_x
_atom_site_fract_y
_atom_site_fract_z
Zn1	Zn	1.383045	-0.360147	-0.410367
Zn2	Zn	1.716378	-0.026813	-0.077034
Zn3	Zn	2.049711	0.306520	0.256299
Zn4	Zn	1.367918	-0.469927	-0.254360
Zn5	Zn	1.701251	-0.136593	0.078973
Zn6	Zn	2.034584	0.196740	0.412306
Zn7	Zn	1.224793	-0.346737	-0.269410
Zn8	Zn	1.558127	-0.013404	0.063923
Zn9	Zn	1.891460	0.319930	0.397257
Zn10	Zn	1.226260	-0.470662	-0.413320
Zn11	Zn	1.559594	-0.137329	-0.079987
Zn12	Zn	1.892927	0.196004	0.253346
O13	O	1.300504	-0.411868	-0.336865
O14	O	1.633837	-0.078535	-0.003531
O15	O	1.967171	0.254799	0.329802
O16	O	1.506551	-0.380013	-0.382139
O17	O	1.839884	-0.046680	-0.048805
O18	O	2.173218	0.286654	0.284528
O19	O	1.341987	-0.447666	-0.130840
O20	O	1.675321	-0.114332	0.202493
O21	O	2.008654	0.219001	0.535827
O22	O	1.251502	-0.250709	-0.293171
O23	O	1.584836	0.082624	0.040162
O24	O	1.918169	0.415957	0.373496
O25	O	1.495437	-0.460668	-0.267521
O26	O	1.828771	-0.127335	0.065813
O27	O	2.162104	0.205999	0.399146
O28	O	1.367769	-0.260561	-0.396732
O29	O	1.701102	0.072772	-0.063398
O30	O	2.034436	0.406105	0.269935
O31	O	1.236835	-0.357159	-0.141897
O32	O	1.570168	-0.023825	0.191436
O33	O	1.903501	0.309508	0.524770
O34	O	1.099475	-0.357872	-0.296034
O35	O	1.432808	-0.024539	0.037299
O36	O	1.766142	0.308795	0.370632
O37	O	1.254003	-0.461922	-0.538445
O38	O	1.587336	-0.128588	-0.205112
O39	O	1.920669	0.204745	0.128221
O40	O	1.100553	-0.448919	-0.401765
O41	O	1.433886	-0.115586	-0.068431
O42	O	1.767220	0.217747	0.264902
O43	O	1.369191	-0.380726	-0.536276
O44	O	1.702525	-0.047393	-0.202942
O45	O	2.035858	0.285940	0.130391
O46	O	1.343410	-0.567831	-0.270384
O47	O	1.676743	-0.234497	0.062949
O48	O	2.010076	0.098836	0.396283
O49	O	1.239335	-0.568371	-0.387171
O50	O	1.572668	-0.235038	-0.053838
O51	O	1.906001	0.098296	0.279495
C52	C	1.067470	-0.402021	-0.350853
C53	C	1.400803	-0.068688	-0.017520
C54	C	1.734137	0.264646	0.315813
C55	C	0.967777	-0.397826	-0.356858
C56	C	1.301110	-0.064493	-0.023525
C57	C	1.634444	0.268841	0.309808
C58	C	0.768867	-0.473799	-0.248622
C59	C	1.102200	-0.140465	0.084711
C60	C	1.435534	0.192868	0.418045
C61	C	0.675196	-0.469860	-0.254261
C62	C	1.008530	-0.136526	0.079072
C63	C	1.341863	0.196807	0.412405
C64	C	0.686764	-0.386013	-0.373780
C65	C	1.020097	-0.052679	-0.040447
C66	C	1.353430	0.280654	0.292887
C67	C	0.780434	-0.389952	-0.368141
C68	C	1.113767	-0.056619	-0.034807
C69	C	1.447101	0.276715	0.298526
C70	C	0.821482	-0.433846	-0.305559
C71	C	1.154816	-0.100512	0.027775
C72	C	1.488149	0.232821	0.361108
C73	C	0.915155	-0.437781	-0.299916
C74	C	1.248488	-0.104447	0.033418
C75	C	1.581821	0.228886	0.366751
C76	C	0.926720	-0.353938	-0.419438
C77	C	1.260053	-0.020605	-0.086105
C78	C	1.593387	0.312729	0.247229
C79	C	0.833050	-0.349999	-0.425077
C80	C	1.166383	-0.016665	-0.091744
C81	C	1.499716	0.316668	0.241589
C82	C	1.289915	-0.593463	-0.327483
C83	C	1.623249	-0.260130	0.005850
C84	C	1.956582	0.073204	0.339183
C85	C	1.285469	-0.671155	-0.323495
C86	C	1.618803	-0.337822	0.009838
C87	C	1.952136	-0.004488	0.343172
C88	C	1.343874	-0.712724	-0.375589
C89	C	1.677207	-0.379391	-0.042256
C90	C	2.010541	-0.046057	0.291078
C91	C	1.339693	-0.785724	-0.371843
C92	C	1.673026	-0.452390	-0.038510
C93	C	2.006360	-0.119057	0.294823
C94	C	1.277111	-0.817153	-0.315998
C95	C	1.610444	-0.483820	0.017335
C96	C	1.943777	-0.150486	0.350669
C97	C	1.218700	-0.775578	-0.263902
C98	C	1.552033	-0.442245	0.069431
C99	C	1.885366	-0.108912	0.402764
C100	C	1.222877	-0.702580	-0.267653
C101	C	1.556210	-0.369247	0.065680
C102	C	1.889544	-0.035913	0.399013
C103	C	1.261467	-1.037307	-0.301977
C104	C	1.594800	-0.703974	0.031356
C105	C	1.928133	-0.370640	0.364690
C106	C	1.257295	-1.110311	-0.298228
C107	C	1.590629	-0.776977	0.035106
C108	C	1.923962	-0.443644	0.368439
C109	C	1.378288	-1.120451	-0.406170
C110	C	1.711621	-0.787118	-0.072837
C111	C	2.044955	-0.453785	0.260496
C112	C	1.382464	-1.047451	-0.409912
C113	C	1.715797	-0.714118	-0.076579
C114	C	2.049130	-0.380784	0.256754
C115	C	1.324050	-1.005883	-0.357820
C116	C	1.657383	-0.672550	-0.024487
C117	C	1.990716	-0.339216	0.308847
C118	C	1.272837	-0.891770	-0.312166
C119	C	1.606170	-0.558437	0.021167
C120	C	1.939504	-0.225104	0.354501
C121	C	1.328319	-0.931267	-0.361658
C122	C	1.661653	-0.597934	-0.028324
C123	C	1.994986	-0.264600	0.305009
C124	C	1.534448	-0.421754	-0.322821
C125	C	1.867781	-0.088421	0.010512
C126	C	2.201115	0.244912	0.343845
C127	C	1.634141	-0.425967	-0.316837
C128	C	1.967474	-0.092634	0.016496
C129	C	2.300808	0.240699	0.349830
C130	C	1.313448	-0.422902	-0.570815
C131	C	1.646781	-0.089569	-0.237482
C132	C	1.980115	0.243765	0.095851
C133	C	1.318964	-0.427604	-0.670511
C134	C	1.652297	-0.094271	-0.337178
C135	C	1.985631	0.239063	-0.003845
C136	C	1.311159	-0.229566	-0.346301
C137	C	1.644493	0.103767	-0.012967
C138	C	1.977826	0.437101	0.320366
C139	C	1.315700	-0.151880	-0.350322
C140	C	1.649034	0.181453	-0.016988
C141	C	1.982367	0.514787	0.316345
C142	C	1.219812	-0.342196	-0.869367
C143	C	1.553146	-0.008862	-0.536034
C144	C	1.886479	0.324471	-0.202700
C145	C	1.224992	-0.346611	-0.963041
C146	C	1.558326	-0.013278	-0.629707
C147	C	1.891659	0.320056	-0.296374
C148	C	1.334498	-0.440853	-0.951534
C149	C	1.667831	-0.107520	-0.618201
C150	C	2.001165	0.225814	-0.284867
C151	C	1.329318	-0.436438	-0.857860
C152	C	1.662652	-0.103104	-0.524527
C153	C	1.995985	0.230229	-0.191194
C154	C	1.271975	-0.387107	-0.816780
C155	C	1.605308	-0.053773	-0.483447
C156	C	1.938641	0.279560	-0.150114
C157	C	1.266800	-0.382688	-0.723105
C158	C	1.600133	-0.049355	-0.389772
C159	C	1.933467	0.283978	-0.056438
C160	C	1.376301	-0.476933	-0.711600
C161	C	1.709634	-0.143600	-0.378267
C162	C	2.042967	0.189733	-0.044934
C163	C	1.381480	-0.481349	-0.805274
C164	C	1.714814	-0.148015	-0.471940
C165	C	2.048147	0.185318	-0.138607
C166	C	1.287665	-0.400829	-0.103823
C167	C	1.620998	-0.067496	0.229510
C168	C	1.954332	0.265838	0.562843
C169	C	1.282334	-0.395937	-0.004127
C170	C	1.615667	-0.062604	0.329206
C171	C	1.949001	0.270729	0.662539
H172	H	0.969570	-0.321402	-0.465796
H173	H	1.302903	0.011932	-0.132463
H174	H	1.636237	0.345265	0.200870
H175	H	1.213905	-1.003468	-0.259559
H176	H	1.547239	-0.670134	0.073774
H177	H	1.880572	-0.336801	0.407107
H178	H	1.167740	-0.801174	-0.218436
H179	H	1.501074	-0.467840	0.114897
H180	H	1.834407	-0.134507	0.448231
H181	H	1.425844	-1.154304	-0.448582
H182	H	1.759178	-0.820970	-0.115249
H183	H	2.092511	-0.487637	0.218085
H184	H	1.173129	-0.302022	-0.835919
H185	H	1.506463	0.031311	-0.502586
H186	H	1.839796	0.364644	-0.169252
H187	H	1.394839	-0.687140	-0.421060
H188	H	1.728172	-0.353806	-0.087726
H189	H	2.061506	-0.020473	0.245607
H190	H	1.428165	-0.521515	-0.838734
H191	H	1.761498	-0.188181	-0.505401
H192	H	2.094831	0.145152	-0.172067
H193	H	0.948574	-0.473520	-0.248956
H194	H	1.281908	-0.140186	0.084377
H195	H	1.615241	0.193147	0.417710
H196	H	0.632360	-0.502395	-0.207899
H197	H	0.965693	-0.169061	0.125434
H198	H	1.299026	0.164272	0.458768
H199	H	0.802289	-0.509534	-0.197660
H200	H	1.135622	-0.176201	0.135673
H201	H	1.468955	0.157132	0.469007
H202	H	1.387259	-0.819567	-0.414256
H203	H	1.720592	-0.486233	-0.080923
H204	H	2.053925	-0.152900	0.252410
H205	H	1.175317	-0.668735	-0.225234
H206	H	1.508650	-0.335401	0.108099
H207	H	1.841983	-0.002068	0.441433
H208	H	1.418778	-0.513501	-0.668774
H209	H	1.752111	-0.180168	-0.335440
H210	H	2.085445	0.153166	-0.002107
H211	H	1.379271	-0.905675	-0.407130
H212	H	1.712604	-0.572342	-0.073797
H213	H	2.045938	-0.239009	0.259536
H214	H	0.653326	-0.350283	-0.424738
H215	H	0.986659	-0.016949	-0.091405
H216	H	1.319992	0.316384	0.241929
H217	H	1.221885	-0.917368	-0.266694
H218	H	1.555218	-0.584035	0.066639
H219	H	1.888551	-0.250701	0.399973
H220	H	1.220111	-0.342518	-0.689659
H221	H	1.553445	-0.009184	-0.356326
H222	H	1.886778	0.324149	-0.022993
H223	H	0.799615	-0.314264	-0.476032
H224	H	1.132948	0.019070	-0.142699
H225	H	1.466282	0.352403	0.190635
H226	H	1.433423	-1.021863	-0.455386
H227	H	1.766756	-0.688530	-0.122053
H228	H	2.100090	-0.355197	0.211281
H229	H	1.182516	-0.310040	-1.005854
H230	H	1.515850	0.023294	-0.672520
H231	H	1.849183	0.356627	-0.339187
H232	H	1.206329	-1.135898	-0.252752
H233	H	1.539662	-0.802564	0.080582
H234	H	1.872996	-0.469231	0.413915
H235	H	1.381172	-0.481025	-0.984998
H236	H	1.714505	-0.147692	-0.651665
H237	H	2.047838	0.185642	-0.318331
