data_functionalizedCrystal
_audit_creation_method	'MofGen! by Chris Wilmer'
_symmetry_space_group_name_H-M	'P1'
_symmetry_Int_Tables_number	1
_symmetry_cell_setting	triclinic
loop_
_symmetry_equiv_pos_as_xyz
  x,y,z
_cell_length_a	14.519709
_cell_length_b	26.809956
_cell_length_c	14.519709
_cell_angle_alpha	89.996594
_cell_angle_beta	83.680145
_cell_angle_gamma	90.003229
loop_
_atom_site_label
_atom_site_type_symbol
_atom_site_fract_x
_atom_site_fract_y
_atom_site_fract_z
O1	O	1.223875	0.041416	0.120878
O2	O	1.723875	0.541416	0.620878
O3	O	0.955398	0.041431	0.135115
O4	O	1.455398	0.541431	0.635115
O5	O	1.096755	0.041419	-0.006242
O6	O	1.596755	0.541419	0.493758
O7	O	1.082518	0.041428	0.262235
O8	O	1.582518	0.541428	0.762235
O9	O	1.096728	-0.041541	-0.006220
O10	O	1.596728	0.458459	0.493780
O11	O	0.955371	-0.041528	0.135136
O12	O	1.455371	0.458472	0.635136
O13	O	1.223848	-0.041544	0.120900
O14	O	1.723848	0.458456	0.620900
Zn15	Zn	1.089605	-0.054707	0.128021
Zn16	Zn	1.589605	0.445293	0.628021
Zn17	Zn	1.089641	0.054595	0.127993
Zn18	Zn	1.589641	0.554595	0.627993
O19	O	1.082491	-0.041531	0.262257
O20	O	1.582491	0.458469	0.762257
C21	C	0.921025	-0.000047	0.134462
C22	C	1.421025	0.499953	0.634462
C23	C	0.818643	-0.000041	0.132474
C24	C	1.318643	0.499959	0.632474
N25	N	1.089588	-0.129303	0.128040
N26	N	1.589588	0.370697	0.628040
C27	C	0.443748	-0.000064	0.125154
C28	C	0.943748	0.499936	0.625154
C29	C	0.548056	-0.000057	0.127187
C30	C	1.048056	0.499943	0.627187
C31	C	0.631192	-0.000052	0.128814
C32	C	1.131192	0.499948	0.628814
C33	C	0.735507	-0.000046	0.130847
C34	C	1.235507	0.499954	0.630847
C35	C	1.152225	-0.473935	0.065416
C36	C	1.652225	0.026065	0.565416
C37	C	1.152247	-0.682813	0.065402
C38	C	1.652247	-0.182813	0.565402
O39	O	1.205466	-0.709821	0.012162
O40	O	1.705466	-0.209821	0.512162
N41	N	1.089645	-0.708930	0.127973
N42	N	1.589645	-0.208930	0.627973
C43	C	1.027030	-0.682826	0.190548
C44	C	1.527030	-0.182826	0.690548
O45	O	0.973777	-0.709833	0.243761
O46	O	1.473777	-0.209833	0.743761
C47	C	1.027004	-0.473949	0.190556
C48	C	1.527004	0.026051	0.690556
C49	C	1.089616	-0.447834	0.127988
C50	C	1.589616	0.052166	0.627988
C51	C	1.214831	-0.447820	0.002851
C52	C	1.714831	0.052180	0.502851
C53	C	1.214829	-0.395604	0.002859
C54	C	1.714829	0.104396	0.502859
C55	C	1.152220	-0.369502	0.065431
C56	C	1.652220	0.130498	0.565431
C57	C	1.089614	-0.395618	0.127995
C58	C	1.589614	0.104382	0.627995
C59	C	0.964385	-0.447845	0.253126
C60	C	1.464385	0.052155	0.753126
C61	C	0.964383	-0.395622	0.253121
C62	C	1.464383	0.104378	0.753121
C63	C	1.026995	-0.369507	0.190553
C64	C	1.526995	0.130493	0.690553
C65	C	1.027002	-0.317300	0.190575
C66	C	1.527002	0.182700	0.690575
N67	N	1.089604	-0.291182	0.128004
N68	N	1.589604	0.208818	0.628004
C69	C	1.152213	-0.317283	0.065432
C70	C	1.652213	0.182717	0.565432
C71	C	1.027049	-0.792489	0.190540
C72	C	1.527049	-0.292489	0.690540
C73	C	1.027056	-0.844708	0.190539
C74	C	1.527056	-0.344708	0.690539
C75	C	1.152273	-0.844691	0.065392
C76	C	1.652273	-0.344691	0.565392
C77	C	1.152269	-0.792471	0.065398
C78	C	1.652269	-0.292471	0.565398
C79	C	1.089651	-0.766371	0.127969
C80	C	1.589651	-0.266371	0.627969
C81	C	1.152203	-0.207625	0.065453
C82	C	1.652203	0.292375	0.565453
C83	C	1.152197	-0.155405	0.065468
C84	C	1.652197	0.344595	0.565468
C85	C	1.026978	-0.155426	0.190612
C86	C	1.526978	0.344574	0.690612
C87	C	1.026986	-0.207642	0.190600
C88	C	1.526986	0.292358	0.690600
C89	C	1.089602	-0.233741	0.128013
C90	C	1.589602	0.266259	0.628013
O91	O	0.973804	-0.290259	0.243780
O92	O	1.473804	0.209741	0.743780
O93	O	1.205443	-0.290267	0.012212
O94	O	1.705443	0.209733	0.512212
C95	C	1.152228	-0.526151	0.065408
C96	C	1.652228	-0.026151	0.565408
C97	C	1.089622	-0.552266	0.127973
C98	C	1.589622	-0.052266	0.627973
C99	C	1.027013	-0.526165	0.190545
C100	C	1.527013	-0.026165	0.690545
C101	C	1.089629	-0.604485	0.127972
C102	C	1.589629	-0.104485	0.627972
C103	C	1.152238	-0.630587	0.065400
C104	C	1.652238	-0.130587	0.565400
C105	C	1.214840	-0.604469	0.002829
C106	C	1.714840	-0.104469	0.502829
C107	C	1.214837	-0.552252	0.002836
C108	C	1.714837	-0.052252	0.502836
C109	C	0.964411	-0.552283	0.253116
C110	C	1.464411	-0.052283	0.753116
C111	C	0.964420	-0.604499	0.253104
C112	C	1.464420	-0.104499	0.753104
C113	C	1.027029	-0.630601	0.190532
C114	C	1.527029	-0.130601	0.690532
C115	C	1.258221	-0.000065	0.121553
C116	C	1.758221	0.499935	0.621553
C117	C	1.360602	-0.000067	0.123541
C118	C	1.860602	0.499933	0.623541
C119	C	1.096078	-0.000061	-0.040591
C120	C	1.596078	0.499939	0.459409
C121	C	1.094089	-0.000061	-0.142972
C122	C	1.594089	0.499939	0.357028
N123	N	1.089665	0.129191	0.127967
N124	N	1.589665	0.629191	0.627967
C125	C	1.086770	-0.000048	-0.517868
C126	C	1.586770	0.499952	-0.017868
C127	C	1.088803	-0.000052	-0.413560
C128	C	1.588803	0.499948	0.086440
C129	C	1.090430	-0.000055	-0.330423
C130	C	1.590430	0.499945	0.169577
C131	C	1.092463	-0.000058	-0.226109
C132	C	1.592463	0.499942	0.273891
C133	C	1.083168	-0.000050	0.296606
C134	C	1.583168	0.499950	0.796606
C135	C	1.085156	-0.000047	0.398987
C136	C	1.585156	0.499953	0.898987
H137	H	1.203186	-0.134143	0.014517
H138	H	1.703186	0.365857	0.514517
H139	H	1.203252	-0.771212	0.014448
H140	H	1.703252	-0.271212	0.514448
H141	H	0.976056	-0.771242	0.241495
H142	H	1.476056	-0.271242	0.741495
N143	N	1.219742	-0.235770	-0.002044
N144	N	1.719742	0.264230	0.497956
H145	H	1.259400	-0.211296	-0.041669
H146	H	1.759400	0.288704	0.458331
H147	H	1.260568	-0.257434	0.033357
H148	H	1.760568	0.242566	0.533357
H149	H	0.976005	-0.134166	0.241560
H150	H	1.476005	0.365834	0.741560
N151	N	1.219803	-0.872851	-0.002093
N152	N	1.719803	-0.372851	0.497907
H153	H	1.285271	-0.863762	0.008675
H154	H	1.785271	-0.363762	0.508675
H155	H	1.210218	-0.909883	0.007448
H156	H	1.710218	-0.409883	0.507448
H157	H	0.913426	-0.531035	0.304068
H158	H	1.413426	-0.031035	0.804068
N159	N	0.959456	-0.235806	0.258091
N160	N	1.459456	0.264194	0.758091
H161	H	0.918566	-0.257468	0.222754
H162	H	1.418566	0.242532	0.722754
H163	H	0.994820	-0.257447	0.298989
H164	H	1.494820	0.242553	0.798989
N165	N	0.959530	-0.872872	0.258028
N166	N	1.459530	-0.372872	0.758028
H167	H	0.919867	-0.848408	0.297660
H168	H	1.419867	-0.348408	0.797660
H169	H	0.918709	-0.894537	0.222624
H170	H	1.418709	-0.394537	0.722624
H171	H	0.913400	-0.469101	0.304075
H172	H	1.413400	0.030899	0.804075
N173	N	1.282357	-0.367440	-0.064630
N174	N	1.782357	0.132560	0.435370
H175	H	1.322012	-0.391905	-0.104267
H176	H	1.822012	0.108095	0.395733
H177	H	1.246985	-0.345776	-0.105482
H178	H	1.746985	0.154224	0.394518
H179	H	1.265815	-0.469067	-0.048106
H180	H	1.765815	0.030933	0.451894
N181	N	1.282369	-0.632628	-0.064658
N182	N	1.782369	-0.132628	0.435342
H183	H	1.322036	-0.608164	-0.104298
H184	H	1.822036	-0.108164	0.395702
H185	H	1.323189	-0.654293	-0.029252
H186	H	1.823189	-0.154293	0.470748
H187	H	0.913388	-0.374374	0.304073
H188	H	1.413388	0.125626	0.804073
N189	N	1.282369	-0.524089	-0.064649
N190	N	1.782369	-0.024089	0.435351
H191	H	1.322025	-0.548554	-0.104284
H192	H	1.822025	-0.048554	0.395716
H193	H	1.247002	-0.502423	-0.105502
H194	H	1.747002	-0.002423	0.394498
N195	N	0.896881	-0.632663	0.320590
N196	N	1.396881	-0.132663	0.820590
H197	H	0.857218	-0.608200	0.360223
H198	H	1.357218	-0.108200	0.860223
H199	H	0.856060	-0.654324	0.285178
H200	H	1.356060	-0.154324	0.785178
