data_functionalizedCrystal
_audit_creation_method	'MofGen! by Chris Wilmer'
_symmetry_space_group_name_H-M	'P1'
_symmetry_Int_Tables_number	1
_symmetry_cell_setting	triclinic
loop_
_symmetry_equiv_pos_as_xyz
  x,y,z
_cell_length_a	14.519709
_cell_length_b	13.596369
_cell_length_c	14.853567
_cell_angle_alpha	90.002388
_cell_angle_beta	83.657538
_cell_angle_gamma	90.000316
loop_
_atom_site_label
_atom_site_type_symbol
_atom_site_fract_x
_atom_site_fract_y
_atom_site_fract_z
O1	O	1.223822	0.081668	0.118173
O2	O	1.723822	0.581668	0.618173
O3	O	0.955340	0.081698	0.132090
O4	O	1.455340	0.581698	0.632090
O5	O	1.096752	0.081671	-0.006095
O6	O	1.596752	0.581671	0.493905
O7	O	1.082409	0.081695	0.256359
O8	O	1.582409	0.581695	0.756359
O9	O	1.096735	-0.081912	-0.006088
O10	O	1.596735	0.418088	0.493912
O11	O	0.955322	-0.081884	0.132098
O12	O	1.455322	0.418116	0.632098
O13	O	1.223805	-0.081915	0.118181
O14	O	1.723805	0.418085	0.618181
Zn15	Zn	1.089561	-0.107872	0.125141
Zn16	Zn	1.589561	0.392128	0.625141
Zn17	Zn	1.089584	0.107655	0.125131
Zn18	Zn	1.589584	0.607655	0.625131
O19	O	1.082392	-0.081887	0.256366
O20	O	1.582392	0.418113	0.756366
C21	C	0.920971	-0.000089	0.131446
C22	C	1.420971	0.499911	0.631446
C23	C	0.818591	-0.000078	0.129502
C24	C	1.318591	0.499922	0.629502
C25	C	0.443698	-0.000123	0.122347
C26	C	0.943698	0.499877	0.622347
C27	C	0.548005	-0.000110	0.124334
C28	C	1.048005	0.499890	0.624334
C29	C	0.631141	-0.000100	0.125924
C30	C	1.131141	0.499900	0.625924
C31	C	0.735455	-0.000089	0.127912
C32	C	1.235455	0.499911	0.627912
N33	N	1.089552	-0.254964	0.125147
N34	N	1.589552	0.245036	0.625147
C35	C	1.089556	-0.343962	0.125149
C36	C	1.589556	0.156038	0.625149
C37	C	1.089565	-0.455613	0.125143
C38	C	1.589565	0.044387	0.625143
C39	C	1.089577	-0.544604	0.125133
C40	C	1.589577	-0.044604	0.625133
C41	C	1.089588	-0.656262	0.125127
C42	C	1.589588	-0.156262	0.625127
C43	C	1.258173	-0.000125	0.118826
C44	C	1.758173	0.499875	0.618826
C45	C	1.360553	-0.000130	0.120769
C46	C	1.860553	0.499870	0.620769
C47	C	1.096094	-0.000121	-0.039680
C48	C	1.596094	0.499879	0.460320
C49	C	1.094146	-0.000124	-0.139765
C50	C	1.594146	0.499876	0.360235
N51	N	1.089600	0.254747	0.125117
N52	N	1.589600	0.754747	0.625117
C53	C	1.083050	-0.000093	0.289952
C54	C	1.583050	0.499907	0.789952
C55	C	1.084998	-0.000084	0.390036
C56	C	1.584998	0.499916	0.890036
C57	C	1.177233	-0.000130	0.802606
C58	C	1.677233	0.499870	1.302606
C59	C	1.009231	-0.000110	0.823821
C60	C	1.509231	0.499890	1.323821
C61	C	1.007400	-0.000101	0.729787
C62	C	1.507400	0.499899	1.229787
C63	C	1.090486	-0.000107	0.672157
C64	C	1.590486	0.499893	1.172157
C65	C	1.175404	-0.000124	0.708562
C66	C	1.675404	0.499876	1.208562
C67	C	0.922484	-0.000094	0.693375
C68	C	1.422484	0.499906	1.193375
C69	C	0.920649	-0.000086	0.599335
C70	C	1.420649	0.499914	1.099335
C71	C	1.003737	-0.000085	0.541704
C72	C	1.503737	0.499915	1.041704
C73	C	1.088658	-0.000101	0.578114
C74	C	1.588658	0.499899	1.078114
C75	C	1.171744	-0.000107	0.520484
C76	C	1.671744	0.499893	1.020484
C77	C	1.256666	-0.000116	0.556893
C78	C	1.756666	0.499884	1.056893
C79	C	1.258492	-0.000123	0.650931
C80	C	1.758492	0.499877	1.150931
C81	C	1.001911	-0.000078	0.447666
C82	C	1.501911	0.499922	0.947666
C83	C	1.169916	-0.000101	0.426441
C84	C	1.669916	0.499899	0.926441
H85	H	1.237576	-0.000099	0.379524
H86	H	1.737576	0.499901	0.879524
Cl87	Cl	0.813892	-0.000069	0.553573
Cl88	Cl	1.313892	0.499931	1.053573
H89	H	1.246374	-0.000133	0.832254
H90	H	1.746374	0.499867	1.332254
Cl91	Cl	0.818040	-0.000088	0.765826
Cl92	Cl	1.318040	0.499912	1.265826
Cl93	Cl	0.895162	-0.000077	0.401898
Cl94	Cl	1.395162	0.499923	0.901898
H95	H	0.941586	-0.000111	0.870749
H96	H	1.441586	0.499889	1.370749
H97	H	1.327631	-0.000156	0.680583
H98	H	1.827631	0.499844	1.180583
Cl99	Cl	1.361113	-0.000136	0.484433
Cl100	Cl	1.861113	0.499864	0.984433
