data_functionalizedCrystal
_audit_creation_method	'MofGen! by Chris Wilmer'
_symmetry_space_group_name_H-M	'P1'
_symmetry_Int_Tables_number	1
_symmetry_cell_setting	triclinic
loop_
_symmetry_equiv_pos_as_xyz
  x,y,z
_cell_length_a	10.654550
_cell_length_b	15.944551
_cell_length_c	9.730223
_cell_angle_alpha	89.997716
_cell_angle_beta	89.996251
_cell_angle_gamma	83.991820
loop_
_atom_site_label
_atom_site_type_symbol
_atom_site_fract_x
_atom_site_fract_y
_atom_site_fract_z
O1	O	1.666308	0.117973	-0.114406
O2	O	1.300684	0.129213	-0.114384
O3	O	1.493480	0.001376	-0.114384
O4	O	1.473511	0.245810	-0.114407
O5	O	1.493478	0.001379	0.114196
O6	O	1.300681	0.129216	0.114196
O7	O	1.666305	0.117976	0.114174
Zn8	Zn	1.483493	0.123597	0.150477
Zn9	Zn	1.483496	0.123592	-0.150687
O10	O	1.473509	0.245813	0.114173
C11	C	1.253895	0.128389	-0.000092
C12	C	1.114484	0.125920	-0.000083
C13	C	1.034024	0.201188	-0.000110
C14	C	0.903034	0.198863	-0.000134
C15	C	0.932975	0.045995	-0.000108
C16	C	1.063963	0.048321	-0.000075
C17	C	1.016737	0.289446	-0.000131
C18	C	0.885746	0.287121	-0.000154
C19	C	1.492650	-0.029921	-0.000093
C20	C	1.490165	-0.123182	-0.000092
C21	C	1.364720	-0.338765	-0.000104
C22	C	1.422971	-0.399443	0.112596
C23	C	1.485668	-0.293934	-0.000103
C24	C	1.423002	-0.399430	-0.112765
C25	C	1.481317	-0.458872	-0.000119
C26	C	1.543953	-0.353384	0.112691
C27	C	1.543967	-0.353364	-0.112772
C28	C	1.602306	-0.414024	-0.000045
C29	C	1.488172	-0.198917	-0.000092
C30	C	1.478822	-0.553887	-0.000119
C31	C	1.713094	0.118800	-0.000122
C32	C	1.852505	0.121269	-0.000140
C33	C	1.474339	0.277110	-0.000120
C34	C	1.476824	0.370371	-0.000130
N35	N	1.483500	0.123599	0.356013
N36	N	1.483499	0.123583	-0.356224
C37	C	1.568892	0.067012	0.427939
C38	C	1.568889	0.067002	0.571822
C39	C	1.398098	0.180173	0.571840
C40	C	1.398096	0.180178	0.427959
C41	C	1.667501	0.001676	0.427931
C42	C	1.667498	0.001666	0.571814
H43	H	1.045621	0.323965	0.095532
H44	H	1.264327	-0.306038	0.000015
C45	C	1.627346	-0.080747	0.632114
H46	H	1.628703	-0.077939	0.729624
H47	H	1.684127	-0.126992	0.601965
H48	H	1.544415	-0.088141	0.601972
C49	C	1.639652	-0.085534	0.375172
H50	H	1.628187	-0.121402	0.451111
H51	H	1.708456	-0.109402	0.320928
H52	H	1.565108	-0.079597	0.320942
H53	H	1.371814	-0.419846	0.207881
H54	H	1.129470	-0.012970	-0.000033
C55	C	1.612991	-0.325983	0.241553
H56	H	1.614103	-0.266484	0.240798
H57	H	1.697134	-0.352425	0.241880
H58	H	1.570300	-0.342124	0.321487
H59	H	1.758420	0.022134	0.383297
H60	H	1.763823	0.016057	0.610857
C61	C	1.064426	0.327434	-0.133423
H62	H	1.153444	0.327750	-0.128854
H63	H	1.025890	0.383536	-0.143955
H64	H	1.043380	0.294441	-0.209693
C65	C	0.877397	-0.039357	-0.000114
H66	H	0.787861	-0.029964	-0.000145
H67	H	0.904995	-0.070382	0.079603
H68	H	0.905035	-0.070379	-0.079829
H69	H	0.839729	0.313795	0.098527
C70	C	0.828802	0.331928	-0.129494
H71	H	0.894271	0.351936	-0.182668
H72	H	0.770158	0.378114	-0.103097
H73	H	0.786868	0.293332	-0.182556
C74	C	1.738038	-0.458043	0.000032
H75	H	1.780793	-0.442282	0.080160
H76	H	1.781321	-0.441570	-0.079271
H77	H	1.735731	-0.517441	-0.000716
C78	C	1.353880	-0.426970	-0.241476
H79	H	1.409840	-0.464321	-0.294556
H80	H	1.325855	-0.378751	-0.294894
H81	H	1.283301	-0.454845	-0.214372
C82	C	1.613013	-0.325762	-0.241496
H83	H	1.569917	-0.341355	-0.321498
H84	H	1.696939	-0.352571	-0.242312
H85	H	1.614748	-0.266319	-0.240109
H86	H	1.328552	0.226248	0.369398
H87	H	1.328563	0.226238	0.630434
