data_functionalizedCrystal
_audit_creation_method	'MofGen! by Chris Wilmer'
_symmetry_space_group_name_H-M	'P1'
_symmetry_Int_Tables_number	1
_symmetry_cell_setting	triclinic
loop_
_symmetry_equiv_pos_as_xyz
  x,y,z
_cell_length_a	13.897447
_cell_length_b	21.295418
_cell_length_c	13.897441
_cell_angle_alpha	90.045201
_cell_angle_beta	90.026528
_cell_angle_gamma	90.039407
loop_
_atom_site_label
_atom_site_type_symbol
_atom_site_fract_x
_atom_site_fract_y
_atom_site_fract_z
Zn1	Zn	0.383515	-0.962380	-0.546038
Zn2	Zn	0.716848	-0.629047	-0.212705
Zn3	Zn	1.050182	-0.295713	0.120628
Zn4	Zn	0.544837	-0.962305	-0.384751
Zn5	Zn	0.878170	-0.628971	-0.051418
Zn6	Zn	1.211504	-0.295638	0.281915
Zn7	Zn	0.383609	-0.857108	-0.384688
Zn8	Zn	0.716942	-0.523775	-0.051355
Zn9	Zn	1.050275	-0.190441	0.281979
Zn10	Zn	0.544821	-0.857090	-0.545935
Zn11	Zn	0.878154	-0.523756	-0.212602
Zn12	Zn	1.211488	-0.190423	0.120732
O13	O	0.464195	-0.909721	-0.465353
O14	O	0.797529	-0.576387	-0.132020
O15	O	1.130862	-0.243054	0.201314
O16	O	0.404882	-1.050459	-0.524713
O17	O	0.738216	-0.717126	-0.191380
O18	O	1.071549	-0.383793	0.141954
O19	O	0.523495	-0.948326	-0.249761
O20	O	0.856829	-0.614993	0.083572
O21	O	1.190162	-0.281659	0.416906
O22	O	0.248615	-0.871112	-0.406108
O23	O	0.581948	-0.537779	-0.072775
O24	O	0.915281	-0.204445	0.260559
O25	O	0.523405	-1.050404	-0.406216
O26	O	0.856738	-0.717071	-0.072883
O27	O	1.190071	-0.383737	0.260451
O28	O	0.248546	-0.948455	-0.524652
O29	O	0.581879	-0.615122	-0.191318
O30	O	0.915213	-0.281788	0.142015
O31	O	0.405042	-0.871039	-0.249715
O32	O	0.738375	-0.537705	0.083619
O33	O	1.071708	-0.204372	0.416952
O34	O	0.405027	-0.769016	-0.406008
O35	O	0.738360	-0.435683	-0.072674
O36	O	1.071693	-0.102350	0.260659
O37	O	0.523378	-0.871081	-0.680930
O38	O	0.856711	-0.537747	-0.347597
O39	O	1.190044	-0.204414	-0.014264
O40	O	0.523469	-0.769003	-0.524475
O41	O	0.856802	-0.435669	-0.191142
O42	O	1.190135	-0.102336	0.142191
O43	O	0.404867	-0.948437	-0.681006
O44	O	0.738200	-0.615104	-0.347673
O45	O	1.071534	-0.281770	-0.014340
O46	O	0.679816	-0.948308	-0.406116
O47	O	1.013150	-0.614975	-0.072782
O48	O	1.346483	-0.281642	0.260551
O49	O	0.679805	-0.871007	-0.524537
O50	O	1.013138	-0.537674	-0.191203
O51	O	1.346472	-0.204341	0.142130
C52	C	0.464257	-0.746169	-0.465224
C53	C	0.797590	-0.412836	-0.131891
C54	C	1.130923	-0.079502	0.201443
C55	C	0.464306	-0.676201	-0.465192
C56	C	0.797639	-0.342867	-0.131858
C57	C	1.130973	-0.009534	0.201475
C58	C	0.526063	-0.643344	-0.526782
C59	C	0.859396	-0.310010	-0.193449
C60	C	1.192729	0.023323	0.139885
C61	C	0.526043	-0.577601	-0.526818
C62	C	0.859377	-0.244268	-0.193485
C63	C	1.192710	0.089066	0.139849
C64	C	0.464277	-0.544718	-0.465247
C65	C	0.797610	-0.211385	-0.131913
C66	C	1.130944	0.121948	0.201420
C67	C	0.402509	-0.577583	-0.403652
C68	C	0.735842	-0.244250	-0.070319
C69	C	1.069175	0.089083	0.263015
C70	C	0.402523	-0.643325	-0.403625
C71	C	0.735856	-0.309991	-0.070291
C72	C	1.069190	0.023342	0.263042
N73	N	0.456756	-0.441444	-0.380868
N74	N	0.790089	-0.108111	-0.047534
N75	N	1.123422	0.225223	0.285799
N76	N	0.456748	-0.378993	-0.380897
N77	N	0.790081	-0.045659	-0.047563
N78	N	1.123414	0.287674	0.285770
C79	C	0.464228	-0.346644	-0.465327
C80	C	0.797562	-0.013310	-0.131994
C81	C	1.130895	0.320023	0.201340
N82	N	0.471736	-0.379105	-0.549730
N83	N	0.805070	-0.045772	-0.216396
N84	N	1.138403	0.287561	0.116937
N85	N	0.471750	-0.441563	-0.549700
N86	N	0.805083	-0.108229	-0.216366
N87	N	1.138416	0.225104	0.116967
C88	C	0.464254	-0.473433	-0.465270
C89	C	0.797587	-0.140100	-0.131937
C90	C	1.130921	0.193234	0.201397
C91	C	0.525967	-0.242501	-0.526962
C92	C	0.859300	0.090832	-0.193628
C93	C	1.192634	0.424166	0.139705
C94	C	0.525941	-0.176757	-0.526999
C95	C	0.859274	0.156576	-0.193666
C96	C	1.192607	0.489909	0.139667
C97	C	0.402411	-0.176741	-0.403825
C98	C	0.735744	0.156592	-0.070491
C99	C	1.069078	0.489926	0.262842
C100	C	0.402432	-0.242483	-0.403796
C101	C	0.735766	0.090850	-0.070462
C102	C	1.069099	0.424183	0.262871
C103	C	0.464215	-0.275359	-0.465363
C104	C	0.797549	0.057974	-0.132029
C105	C	1.130882	0.391307	0.201304
C106	C	0.714810	-0.909665	-0.465343
C107	C	1.048143	-0.576331	-0.132010
C108	C	1.381477	-0.242998	0.201324
C109	C	0.822024	-0.909698	-0.465371
C110	C	1.155357	-0.576365	-0.132038
C111	C	1.488690	-0.243032	0.201296
C112	C	0.909093	-0.909727	-0.465397
C113	C	1.242427	-0.576394	-0.132064
C114	C	1.575760	-0.243060	0.201270
C115	C	1.018326	-0.909769	-0.465427
C116	C	1.351659	-0.576436	-0.132094
C117	C	1.684993	-0.243103	0.201239
C118	C	1.212602	-0.909789	-0.465397
C119	C	1.545936	-0.576456	-0.132063
C120	C	1.879269	-0.243123	0.201270
C121	C	1.105388	-0.909806	-0.465447
C122	C	1.438722	-0.576473	-0.132113
C123	C	1.772055	-0.243140	0.201220
C124	C	0.464110	-0.909765	-0.716946
C125	C	0.797444	-0.576432	-0.383613
C126	C	1.130777	-0.243099	-0.050280
C127	C	0.464074	-0.909784	-0.824160
C128	C	0.797407	-0.576451	-0.490827
C129	C	1.130741	-0.243118	-0.157494
C130	C	0.464151	-0.073911	-0.465456
C131	C	0.797484	0.259422	-0.132122
C132	C	1.130817	0.592756	0.201211
C133	C	0.464173	-0.143879	-0.465428
C134	C	0.797506	0.189454	-0.132095
C135	C	1.130840	0.522788	0.201238
C136	C	0.464009	-0.909801	-1.020456
C137	C	0.797342	-0.576468	-0.687122
C138	C	1.130675	-0.243135	-0.353789
C139	C	0.464048	-0.909790	-0.911223
C140	C	0.797381	-0.576457	-0.577890
C141	C	1.130714	-0.243123	-0.244556
C142	C	0.464211	-0.909712	-0.214739
C143	C	0.797544	-0.576379	0.118595
C144	C	1.130877	-0.243046	0.451928
C145	C	0.463975	-0.909815	-0.107525
C146	C	0.797309	-0.576482	0.225808
C147	C	1.130642	-0.243149	0.559141
H148	H	0.352148	-0.269236	-0.353637
H149	H	0.685482	0.064097	-0.020304
H150	H	1.018815	0.397431	0.313029
F151	F	0.336790	-0.678295	-0.338069
F152	F	0.670123	-0.344961	-0.004736
F153	F	1.003457	-0.011628	0.328597
H154	H	0.352217	-0.550806	-0.353522
H155	H	0.685550	-0.217473	-0.020189
H156	H	1.018883	0.115861	0.313145
F157	F	0.591716	-0.277492	-0.592490
F158	F	0.925050	0.055841	-0.259157
F159	F	1.258383	0.389174	0.074177
F160	F	0.591815	-0.678329	-0.592311
F161	F	0.925148	-0.344996	-0.258977
F162	F	1.258482	-0.011662	0.074356
F163	F	0.336669	-0.141749	-0.338300
F164	F	0.670003	0.191584	-0.004967
F165	F	1.003336	0.524918	0.328366
F166	F	0.591669	-0.141788	-0.592561
F167	F	0.925002	0.191545	-0.259228
F168	F	1.258336	0.524878	0.074106
H169	H	0.576332	-0.550844	-0.576976
H170	H	0.909666	-0.217510	-0.243642
H171	H	1.242999	0.115823	0.089691
