data_functionalizedCrystal
_audit_creation_method	'MofGen! by Chris Wilmer'
_symmetry_space_group_name_H-M	'P1'
_symmetry_Int_Tables_number	1
_symmetry_cell_setting	triclinic
loop_
_symmetry_equiv_pos_as_xyz
  x,y,z
_cell_length_a	23.096457
_cell_length_b	14.395555
_cell_length_c	14.395555
_cell_angle_alpha	59.995932
_cell_angle_beta	89.996085
_cell_angle_gamma	60.001365
loop_
_atom_site_label
_atom_site_type_symbol
_atom_site_fract_x
_atom_site_fract_y
_atom_site_fract_z
Zr1	Zr	0.557785	1.016813	-0.121956
O2	O	0.465342	1.210613	-0.270284
O3	O	0.586121	0.823015	-0.076484
O4	O	0.586127	1.016820	-0.270288
O5	O	0.465334	1.016801	0.076394
O6	O	0.681407	1.016823	-0.270294
O7	O	0.465336	1.016808	-0.076480
O8	O	0.681397	0.670142	0.076387
O9	O	0.465345	1.363482	-0.270287
O10	O	0.669316	0.902728	-0.057097
O11	O	0.598208	0.902721	0.056995
O12	O	0.598215	1.130901	-0.171185
O13	O	0.527107	1.130894	-0.057092
Zr14	Zr	0.709744	1.016806	0.121851
Zr15	Zr	0.709746	1.016817	-0.121965
Zr16	Zr	0.557782	1.016801	0.121860
Zr17	Zr	0.557790	1.260622	-0.121960
Zr18	Zr	0.709739	0.772996	0.121855
O19	O	0.681407	1.210603	0.076379
O20	O	0.681411	1.210618	-0.270297
O21	O	0.465338	1.210597	0.076391
O22	O	0.802187	0.823006	0.270179
O23	O	0.802191	0.823021	-0.076497
O24	O	0.586118	0.823000	0.270192
O25	O	0.802194	1.016817	-0.076500
O26	O	0.681402	1.016798	0.270183
O27	O	0.586121	1.016796	0.270189
O28	O	0.802193	1.016810	0.076375
O29	O	0.586134	1.363485	-0.270294
O30	O	0.681395	0.670133	0.270189
O31	O	0.802184	0.670136	0.270181
O32	O	0.802186	0.670145	0.076380
O33	O	0.465343	1.363473	-0.076485
O34	O	0.586131	1.363477	-0.076492
O35	O	0.669314	0.902717	0.171079
O36	O	0.740422	0.902725	0.056987
O37	O	0.669320	1.130897	-0.057101
O38	O	0.598212	1.130890	0.056992
C39	C	0.633759	0.711841	-0.000048
C40	C	0.633757	0.608337	-0.000046
C41	C	0.594988	0.547741	0.062165
C42	C	0.566891	0.562002	-0.045113
C43	C	0.661836	0.409681	0.107199
C44	C	0.605621	0.624024	-0.107388
C45	C	0.700603	0.471641	0.045002
C46	C	0.672523	0.485948	-0.062341
C47	C	0.443684	1.016804	-0.000041
C48	C	0.379172	1.016802	-0.000038
C49	C	0.385981	0.897702	0.059504
C50	C	0.325365	0.897700	0.059509
C51	C	0.257942	1.016805	-0.000050
C52	C	0.251136	1.135921	-0.059594
C53	C	0.311751	1.135920	-0.059588
N54	N	0.135149	1.105464	-0.096977
N55	N	0.077569	1.105457	-0.096981
C56	C	0.075309	1.016817	-0.000070
N57	N	0.132810	0.928163	0.096843
N58	N	0.190396	0.928166	0.096845
C59	C	0.192211	1.016820	-0.000063
C60	C	0.016394	0.897706	0.059482
C61	C	-0.044224	0.897710	0.059490
C62	C	-0.118453	1.135934	-0.059624
C63	C	-0.057836	1.135928	-0.059621
C64	C	0.009586	1.016810	-0.000070
C65	C	0.823845	1.016814	-0.000064
C66	C	0.888356	1.016816	-0.000068
C67	C	0.633768	1.016823	-0.305030
C68	C	0.633769	1.016827	-0.408536
C69	C	0.633770	1.321777	-0.000057
C70	C	0.633772	1.425281	-0.000059
C71	C	0.594994	1.141237	-0.531331
C72	C	0.661849	1.079046	-0.562173
C73	C	0.566917	1.079014	-0.562117
C74	C	0.700664	0.954635	-0.438015
C75	C	0.605683	0.954621	-0.437963
C76	C	0.672579	0.892339	-0.468732
C77	C	0.633761	1.016795	0.304925
C78	C	0.633760	1.016791	0.408431
C79	C	0.823839	0.711846	-0.000059
C80	C	0.888348	0.608344	-0.000061
C81	C	0.633755	0.711827	0.304929
C82	C	0.633752	0.608319	0.408437
C83	C	0.823836	0.711832	0.304918
C84	C	0.888344	0.608326	0.408422
C85	C	0.443693	1.321786	-0.305023
C86	C	0.379185	1.425292	-0.408528
C87	C	0.443690	1.321772	-0.000046
C88	C	0.379180	1.425274	-0.000044
C89	C	0.633773	1.321791	-0.305035
C90	C	0.633776	1.425299	-0.408543
C91	C	0.881527	0.559741	-0.059623
C92	C	0.942134	0.462503	-0.059648
C93	C	1.009563	0.413865	-0.000104
C94	C	1.016384	0.462478	0.059460
C95	C	0.955777	0.559720	0.059478
C96	C	0.955762	0.559722	0.397474
C97	C	1.016380	0.462480	0.494718
C98	C	1.009579	0.413838	0.602909
C99	C	0.942154	0.462451	0.613855
C100	C	0.881537	0.559698	0.516613
C101	C	0.311767	1.473908	-0.397579
C102	C	0.251148	1.571180	-0.494823
C103	C	0.257949	1.619827	-0.603014
C104	C	0.325374	1.571208	-0.613961
C105	C	0.385991	1.473944	-0.516718
C106	C	0.386002	1.473888	0.059508
C107	C	0.325394	1.571152	0.059506
C108	C	0.257965	1.619794	-0.000042
C109	C	0.251145	1.571176	-0.059601
C110	C	0.311752	1.473920	-0.059605
C111	C	0.594979	0.547733	0.406826
C112	C	0.661839	0.409630	0.499846
C113	C	0.566910	0.561960	0.499857
C114	C	0.700651	0.471516	0.500094
C115	C	0.605674	0.623920	0.500091
C116	C	0.672574	0.485826	0.593128
H117	H	0.685578	0.318069	0.197900
H118	H	0.581813	0.715594	-0.198132
H119	H	0.705308	0.459008	-0.115030
H120	H	0.757208	0.434143	0.499267
C121	C	0.550634	0.584544	0.133121
N122	N	0.517225	0.612274	0.186556
H123	H	0.196236	1.232898	-0.108087
H124	H	-0.173350	1.232912	-0.108119
C125	C	1.076267	0.306854	0.709869
N126	N	1.126499	0.226268	0.790427
C127	C	0.776950	0.421434	0.096527
N128	N	0.834456	0.383612	0.135349
H129	H	0.440901	1.434291	0.108007
C130	C	0.332913	1.624603	0.125039
N131	N	0.338578	1.664857	0.174401
H132	H	0.440874	0.800707	0.107987
C133	C	-0.065327	1.266949	-0.125141
N134	N	-0.070972	1.365641	-0.174494
C135	C	0.550776	1.283352	-0.565691
N136	N	0.517475	1.390390	-0.591567
C137	C	0.490541	1.150070	-0.634373
N138	N	0.433013	1.203596	-0.688791
C139	C	0.807379	0.613149	0.528675
N140	N	0.751524	0.653405	0.537769
C141	C	1.076227	0.306886	-0.000126
N142	N	1.126435	0.226305	-0.000141
H143	H	0.936627	0.422832	0.701958
H144	H	0.330909	0.800711	0.107996
C145	C	0.573569	0.883652	-0.365654
N146	N	0.549372	0.830208	-0.311193
H147	H	1.071293	0.422863	0.107939
C148	C	0.304268	1.420422	-0.278578
N149	N	0.298614	1.380150	-0.188948
H150	H	0.306202	1.232909	-0.108071
H151	H	0.196254	1.610750	-0.485888
H152	H	0.685602	1.131629	-0.615700
C153	C	0.490530	0.612219	-0.096593
N154	N	0.433015	0.650039	-0.135359
C155	C	0.191262	1.726810	-0.709974
N156	N	0.141030	1.807384	-0.790532
C157	C	0.807360	0.613232	-0.125139
N158	N	0.751499	0.653522	-0.174496
C159	C	0.090559	0.766676	0.125002
N160	N	0.146420	0.667983	0.174355
H161	H	0.757223	0.902086	-0.384659
C162	C	0.963260	0.613218	0.278472
N163	N	0.968914	0.653512	0.188843
H164	H	-0.038674	0.800720	0.107984
C165	C	1.090541	0.409011	0.482652
N166	N	1.146397	0.368738	0.473560
H167	H	0.961341	0.599281	0.107987
H168	H	0.705412	0.787053	-0.443075
H169	H	0.330903	1.610829	-0.702061
C170	C	0.191302	1.726772	-0.000020
N171	N	0.141094	1.807345	0.000004
C172	C	0.176966	1.624678	-0.125081
N173	N	0.121092	1.664968	-0.174389
H174	H	0.440884	1.434362	-0.525646
C175	C	0.693927	0.285850	0.501108
N176	N	0.718091	0.192625	0.502052
H177	H	0.936567	0.422934	-0.108152
H178	H	0.306187	1.434341	-0.108096
C179	C	0.716935	0.449295	0.700712
N180	N	0.750350	0.421772	0.781746
H181	H	0.562244	0.574820	0.327066
H182	H	0.581901	0.715573	0.499105
H183	H	0.510382	0.599131	0.500775
