data_functionalizedCrystal
_audit_creation_method	'MofGen! by Chris Wilmer'
_symmetry_space_group_name_H-M	'P1'
_symmetry_Int_Tables_number	1
_symmetry_cell_setting	triclinic
loop_
_symmetry_equiv_pos_as_xyz
  x,y,z
_cell_length_a	13.897449
_cell_length_b	13.897448
_cell_length_c	12.827885
_cell_angle_alpha	89.967724
_cell_angle_beta	89.977049
_cell_angle_gamma	90.018519
loop_
_atom_site_label
_atom_site_type_symbol
_atom_site_fract_x
_atom_site_fract_y
_atom_site_fract_z
Zn1	Zn	1.474698	-0.383947	-0.590928
Zn2	Zn	1.474594	-0.545273	-0.416181
Zn3	Zn	1.313389	-0.383996	-0.416191
Zn4	Zn	1.313369	-0.545204	-0.590870
O5	O	1.394013	-0.464605	-0.503542
O6	O	1.609666	-0.405356	-0.567767
O7	O	1.453174	-0.523929	-0.269946
O8	O	1.334839	-0.249008	-0.439399
O9	O	1.609589	-0.523881	-0.439381
O10	O	1.453352	-0.248972	-0.567777
O11	O	1.334737	-0.405440	-0.269953
O12	O	1.178405	-0.405372	-0.439342
O13	O	1.334806	-0.523763	-0.737114
O14	O	1.178390	-0.523811	-0.567678
O15	O	1.453333	-0.405288	-0.737156
O16	O	1.453155	-0.680246	-0.439325
O17	O	1.334704	-0.680195	-0.567668
C18	C	1.143398	-0.464590	-0.503506
C19	C	1.036184	-0.464607	-0.503515
C20	C	0.949115	-0.464610	-0.503532
C21	C	0.839882	-0.464617	-0.503564
C22	C	1.393942	-0.715219	-0.503512
C23	C	1.394000	-0.822433	-0.503534
C24	C	1.394102	-1.018728	-0.503600
C25	C	1.394043	-0.909496	-0.503566
C26	C	1.645605	-0.464621	-0.503579
C27	C	1.752819	-0.464627	-0.503595
C28	C	1.394079	-0.464512	-0.776113
C29	C	1.394107	-0.464473	-0.892266
C30	C	1.394109	-0.213012	-0.503596
C31	C	1.394151	-0.105798	-0.503618
C32	C	1.335520	-0.405829	-0.944054
C33	C	1.335548	-0.405787	-1.064105
C34	C	1.394002	-0.464628	-0.232032
C35	C	1.394160	-0.464395	-0.115880
H36	H	1.285337	-0.355657	-0.899516
H37	H	1.444326	-0.514602	-1.071350
H38	H	1.285393	-0.355576	-1.108642
C39	C	1.461817	-0.532345	-0.952431
N40	N	1.512788	-0.583497	-0.997745
