data_functionalizedCrystal
_audit_creation_method	'MofGen! by Chris Wilmer'
_symmetry_space_group_name_H-M	'P1'
_symmetry_Int_Tables_number	1
_symmetry_cell_setting	triclinic
loop_
_symmetry_equiv_pos_as_xyz
  x,y,z
_cell_length_a	16.959455
_cell_length_b	16.959453
_cell_length_c	16.959447
_cell_angle_alpha	90.028432
_cell_angle_beta	90.015720
_cell_angle_gamma	90.024590
loop_
_atom_site_label
_atom_site_type_symbol
_atom_site_fract_x
_atom_site_fract_y
_atom_site_fract_z
Zn1	Zn	-1.208351	0.314695	-0.446949
Zn2	Zn	-1.208260	0.446888	-0.314774
Zn3	Zn	-1.076180	0.314724	-0.314783
Zn4	Zn	-1.076131	0.446832	-0.446910
O5	O	-1.142231	0.380785	-0.380854
O6	O	-1.318950	0.332242	-0.429428
O7	O	-1.190722	0.429391	-0.204165
O8	O	-1.093771	0.204109	-0.332335
O9	O	-1.318883	0.429363	-0.332320
O10	O	-1.190877	0.204088	-0.429436
O11	O	-1.093683	0.332291	-0.204171
O12	O	-0.965562	0.332237	-0.332297
O13	O	-1.093688	0.429269	-0.557526
O14	O	-0.965527	0.429297	-0.429370
O15	O	-1.190830	0.332188	-0.557554
O16	O	-1.190674	0.557491	-0.332283
O17	O	-1.093600	0.557451	-0.429362
C18	C	-0.936864	0.380765	-0.380831
C19	C	-0.849008	0.380775	-0.380840
C20	C	-0.807697	0.431269	-0.330207
C21	C	-0.807765	0.330286	-0.431477
C22	C	-0.725219	0.330291	-0.431485
C23	C	-0.683908	0.380785	-0.380852
C24	C	-0.725143	0.431274	-0.330212
C25	C	-0.683978	0.279798	-0.482118
C26	C	-0.601427	0.279800	-0.482128
C27	C	-0.560115	0.330299	-0.431499
C28	C	-0.601355	0.380790	-0.380857
C29	C	-0.560044	0.431284	-0.330225
C30	C	-0.601283	0.481780	-0.279587
C31	C	-0.683831	0.481773	-0.279583
C32	C	-0.477566	0.330306	-0.431502
C33	C	-0.477491	0.431289	-0.330230
C34	C	-1.142143	0.586151	-0.380834
C35	C	-1.142178	0.674008	-0.380852
C36	C	-0.348399	0.380802	-0.380873
C37	C	-0.436255	0.380800	-0.380870
C38	C	-1.091610	0.715290	-0.431363
C39	C	-1.192784	0.715279	-0.330363
C40	C	-1.192821	0.797825	-0.330381
C41	C	-1.142253	0.839107	-0.380892
C42	C	-1.091648	0.797843	-0.431385
C43	C	-1.243432	0.839095	-0.279895
C44	C	-1.243472	0.921646	-0.279912
C45	C	-1.192899	0.962930	-0.330419
C46	C	-1.142291	0.921661	-0.380913
C47	C	-1.091723	0.962942	-0.431424
C48	C	-1.041110	0.921675	-0.481915
C49	C	-1.041075	0.839126	-0.481892
C50	C	-1.192934	1.045478	-0.330442
C51	C	-1.091761	1.045496	-0.431446
C52	C	-1.142263	0.380719	-0.587022
C53	C	-1.142278	0.380691	-0.674879
C54	C	-1.142335	1.174617	-0.380902
C55	C	-1.142366	1.086760	-0.380953
C56	C	-1.091795	0.431153	-1.046342
C57	C	-1.192949	0.330063	-1.046367
C58	C	-1.192928	0.330079	-0.963821
C59	C	-1.142340	0.380635	-0.922532
C60	C	-1.091774	0.431173	-0.963789
C61	C	-1.243500	0.279547	-0.922558
C62	C	-1.243481	0.279563	-0.840007
C63	C	-1.192889	0.330115	-0.798717
C64	C	-1.142319	0.380655	-0.839978
C65	C	-1.091732	0.431210	-0.798689
C66	C	-1.041158	0.481747	-0.839949
C67	C	-1.041181	0.481725	-0.922498
C68	C	-1.192865	0.330136	-0.716168
C69	C	-1.091711	0.431230	-0.716136
C70	C	-1.142243	0.380793	-0.175488
C71	C	-1.142382	0.380598	-0.087631
H72	H	-0.717415	0.522882	-0.238354
H73	H	-0.717619	0.238685	-0.523337
H74	H	-1.234140	0.288907	-1.079990
H75	H	-0.999868	0.805521	-0.523001
H76	H	-1.284690	0.238393	-0.956182
Cl77	Cl	-1.028217	0.494680	-1.098209
H78	H	-1.284607	0.805481	-0.238774
H79	H	-0.841277	0.472384	-0.288981
H80	H	-0.443861	0.472411	-0.289001
Cl81	Cl	-0.425727	0.266825	-0.495150
Cl82	Cl	-0.549591	0.216325	-0.545790
H83	H	-0.841405	0.289173	-0.472695
Cl84	Cl	-1.256561	1.097354	-0.266978
H85	H	-1.050581	1.079102	-0.472578
Cl86	Cl	-1.307056	0.216029	-0.788145
Cl87	Cl	-0.977547	0.973582	-0.545417
Cl88	Cl	-1.256444	0.266615	-0.664302
H89	H	-1.050399	0.681687	-0.472470
Cl90	Cl	-1.256358	0.663381	-0.266874
H91	H	-0.567637	0.522889	-0.238359
Cl92	Cl	-1.307096	0.973518	-0.216437
Cl93	Cl	-0.977613	0.545255	-0.974372
H94	H	-0.999973	0.522912	-0.806321
Cl95	Cl	-1.028106	0.494785	-0.664236
