data_functionalizedCrystal
_audit_creation_method	'MofGen! by Chris Wilmer'
_symmetry_space_group_name_H-M	'P1'
_symmetry_Int_Tables_number	1
_symmetry_cell_setting	triclinic
loop_
_symmetry_equiv_pos_as_xyz
  x,y,z
_cell_length_a	19.805405
_cell_length_b	21.295418
_cell_length_c	19.805399
_cell_angle_alpha	90.041941
_cell_angle_beta	89.973385
_cell_angle_gamma	89.955065
loop_
_atom_site_label
_atom_site_type_symbol
_atom_site_fract_x
_atom_site_fract_y
_atom_site_fract_z
Zn1	Zn	-0.269150	-0.962336	-0.383128
Zn2	Zn	0.230850	-0.462336	0.116872
Zn3	Zn	-0.382338	-0.962256	-0.269942
Zn4	Zn	0.117662	-0.462256	0.230058
Zn5	Zn	-0.269204	-0.857070	-0.269909
Zn6	Zn	0.230796	-0.357070	0.230091
Zn7	Zn	-0.382338	-0.857035	-0.383044
Zn8	Zn	0.117662	-0.357035	0.116956
O9	O	-0.325758	-0.909674	-0.326506
O10	O	0.174242	-0.409674	0.173494
O11	O	-0.284142	-1.050414	-0.368163
O12	O	0.215858	-0.550414	0.131837
O13	O	-0.367354	-0.948284	-0.175221
O14	O	0.132646	-0.448284	0.324779
O15	O	-0.174481	-0.871081	-0.284949
O16	O	0.325519	-0.371081	0.215051
O17	O	-0.367301	-1.050356	-0.285005
O18	O	0.132699	-0.550356	0.214995
O19	O	-0.174440	-0.948420	-0.368131
O20	O	0.325560	-0.448420	0.131869
O21	O	-0.284235	-0.871004	-0.175196
O22	O	0.215765	-0.371004	0.324804
O23	O	-0.284235	-0.768976	-0.284867
O24	O	0.215765	-0.268976	0.215133
O25	O	-0.367301	-0.871022	-0.477772
O26	O	0.132699	-0.371022	0.022228
O27	O	-0.367354	-0.768950	-0.367988
O28	O	0.132646	-0.268950	0.132012
O29	O	-0.284142	-0.948386	-0.477834
O30	O	0.215858	-0.448386	0.022166
O31	O	-0.477055	-0.948250	-0.284924
O32	O	0.022945	-0.448250	0.215076
O33	O	-0.477055	-0.870945	-0.368020
O34	O	0.022945	-0.370945	0.131980
C35	C	-0.325801	-0.746122	-0.326415
C36	C	0.174199	-0.246122	0.173585
C37	C	-0.325835	-0.676154	-0.326393
C38	C	0.174165	-0.176154	0.173607
C39	C	-0.369174	-0.643291	-0.369606
C40	C	0.130826	-0.143291	0.130394
C41	C	-0.369160	-0.577548	-0.369631
C42	C	0.130840	-0.077548	0.130369
C43	C	-0.325815	-0.544672	-0.326431
C44	C	0.174185	-0.044672	0.173569
C45	C	-0.282468	-0.577543	-0.283215
C46	C	0.217532	-0.077543	0.216785
C47	C	-0.282478	-0.643284	-0.283195
C48	C	0.217522	-0.143284	0.216805
N49	N	-0.320531	-0.441401	-0.267223
N50	N	0.179469	0.058599	0.232777
N51	N	-0.320526	-0.378950	-0.267243
N52	N	0.179474	0.121050	0.232757
C53	C	-0.325781	-0.346597	-0.326488
C54	C	0.174219	0.153403	0.173512
N55	N	-0.331055	-0.379055	-0.385712
N56	N	0.168945	0.120945	0.114288
N57	N	-0.331064	-0.441512	-0.385691
N58	N	0.168936	0.058488	0.114309
C59	C	-0.325799	-0.473386	-0.326448
C60	C	0.174201	0.026614	0.173552
C61	C	-0.369107	-0.242448	-0.369732
C62	C	0.130893	0.257552	0.130268
C63	C	-0.369089	-0.176705	-0.369759
C64	C	0.130911	0.323295	0.130241
C65	C	-0.282399	-0.176701	-0.283336
C66	C	0.217601	0.323299	0.216664
C67	C	-0.282414	-0.242443	-0.283315
C68	C	0.217586	0.257557	0.216685
C69	C	-0.325772	-0.275313	-0.326513
C70	C	0.174228	0.224687	0.173487
C71	C	-0.501614	-0.909602	-0.326481
C72	C	-0.001614	-0.409602	0.173519
C73	C	-0.576846	-0.909629	-0.326493
C74	C	-0.076846	-0.409629	0.173507
C75	C	-0.612111	-0.949876	-0.369840
C76	C	-0.112111	-0.449876	0.130160
C77	C	-0.682799	-0.949898	-0.369853
C78	C	-0.182799	-0.449898	0.130147
C79	C	-0.718221	-0.909677	-0.326515
C80	C	-0.218221	-0.409677	0.173485
C81	C	-0.682951	-0.869427	-0.283166
C82	C	-0.182951	-0.369427	0.216834
C83	C	-0.612264	-0.869401	-0.283157
C84	C	-0.112264	-0.369401	0.216843
C85	C	-0.968025	-0.869528	-0.283201
C86	C	-0.468025	-0.369528	0.216799
C87	C	-1.038717	-0.869558	-0.283211
C88	C	-0.538717	-0.369558	0.216789
C89	C	-1.038559	-0.950025	-0.369896
C90	C	-0.538559	-0.450025	0.130104
C91	C	-0.967872	-0.949999	-0.369888
C92	C	-0.467872	-0.449999	0.130112
C93	C	-0.932609	-0.909747	-0.326542
C94	C	-0.432609	-0.409747	0.173458
C95	C	-0.855960	-0.909722	-0.326529
C96	C	-0.355960	-0.409722	0.173471
C97	C	-0.794868	-0.909705	-0.326523
C98	C	-0.294868	-0.409705	0.173477
C99	C	-0.149215	-0.909763	-0.326545
C100	C	0.350785	-0.409763	0.173455
C101	C	-0.073983	-0.909801	-0.326562
C102	C	0.426017	-0.409801	0.173438
C103	C	-0.325715	-0.909709	-0.503049
C104	C	0.174285	-0.409709	-0.003049
C105	C	-0.325697	-0.909724	-0.578281
C106	C	0.174303	-0.409724	-0.078281
C107	C	-0.325726	-0.073864	-0.326578
C108	C	0.174274	0.426136	0.173422
C109	C	-0.325742	-0.143832	-0.326559
C110	C	0.174258	0.356168	0.173441
C111	C	-0.282394	-0.950009	-0.613658
C112	C	0.217606	-0.450009	-0.113658
C113	C	-0.282374	-0.950015	-0.684346
C114	C	0.217626	-0.450015	-0.184346
C115	C	-0.325662	-0.909740	-0.719656
C116	C	0.174338	-0.409740	-0.219656
C117	C	-0.368966	-0.869451	-0.684274
C118	C	0.131034	-0.369451	-0.184274
C119	C	-0.368982	-0.869442	-0.613587
C120	C	0.131018	-0.369442	-0.113587
C121	C	-0.368903	-0.869487	-0.969348
C122	C	0.131097	-0.369487	-0.469348
C123	C	-0.368886	-0.869501	-1.040040
C124	C	0.131114	-0.369501	-0.540040
C125	C	-0.282295	-0.950060	-1.040107
C126	C	0.217705	-0.450060	-0.540107
C127	C	-0.282311	-0.950051	-0.969420
C128	C	0.217689	-0.450051	-0.469420
C129	C	-0.325613	-0.909760	-0.934044
C130	C	0.174387	-0.409760	-0.434044
C131	C	-0.325633	-0.909753	-0.857395
C132	C	0.174367	-0.409753	-0.357395
C133	C	-0.325646	-0.909750	-0.796304
C134	C	0.174354	-0.409750	-0.296304
C135	C	-0.325751	-0.909675	-0.150650
C136	C	0.174249	-0.409675	0.349350
C137	C	-0.325579	-0.909782	-0.075418
C138	C	0.174421	-0.409782	0.424582
H139	H	-0.404478	-0.670050	-0.404782
H140	H	0.095522	-0.170050	0.095218
Cl141	Cl	-1.082895	-1.000627	-0.424392
Cl142	Cl	-0.582895	-0.500627	0.075608
Cl143	Cl	-0.227903	-0.135376	-0.229030
Cl144	Cl	0.272097	0.364624	0.270970
H145	H	-0.247064	-0.982849	-0.940674
H146	H	0.252936	-0.482849	-0.440674
Cl147	Cl	-0.227973	-0.536214	-0.228909
Cl148	Cl	0.272027	-0.036214	0.271091
H149	H	-0.404209	-0.836656	-0.713029
H150	H	0.095791	-0.336656	-0.213029
Cl151	Cl	-0.227930	-0.283759	-0.228984
Cl152	Cl	0.272070	0.216241	0.271016
H153	H	-0.939318	-0.836754	-0.247906
H154	H	-0.439318	-0.336754	0.252094
Cl155	Cl	-0.423341	-0.818836	-0.924884
Cl156	Cl	0.076659	-0.318836	-0.424884
Cl157	Cl	-0.227855	-1.000710	-1.084584
Cl158	Cl	0.272145	-0.500710	-0.584584
H159	H	-0.404452	-0.550786	-0.404824
H160	H	0.095548	-0.050786	0.095176
H161	H	-1.067555	-0.836802	-0.247919
H162	H	-0.567555	-0.336802	0.252081
H163	H	-0.711798	-0.836676	-0.247882
H164	H	-0.211798	-0.336676	0.252118
H165	H	-0.404408	-0.269212	-0.404910
H166	H	0.095592	0.230788	0.095090
H167	H	-0.583552	-0.836628	-0.247861
H168	H	-0.083552	-0.336628	0.252139
Cl169	Cl	-0.227975	-1.000646	-0.569275
Cl170	Cl	0.272025	-0.500646	-0.069275
H171	H	-0.247114	-0.982820	-0.713148
H172	H	0.252886	-0.482820	-0.213148
H173	H	-0.404237	-0.836632	-0.584784
H174	H	0.095763	-0.336632	-0.084784
Cl175	Cl	-0.423573	-0.135390	-0.424094
Cl176	Cl	0.076427	0.364610	0.075906
Cl177	Cl	-0.227990	-0.684601	-0.228865
Cl178	Cl	0.272010	-0.184601	0.271135
H179	H	-0.583275	-0.982631	-0.405128
H180	H	-0.083275	-0.482631	0.094872
Cl181	Cl	-0.727129	-1.000488	-0.424358
Cl182	Cl	-0.227129	-0.500488	0.075642
Cl183	Cl	-0.423308	-0.818864	-1.084428
Cl184	Cl	0.076692	-0.318864	-0.584428
H185	H	-0.939034	-0.982753	-0.405175
H186	H	-0.439034	-0.482753	0.094825
