data_functionalizedCrystal
_audit_creation_method	'MofGen! by Chris Wilmer'
_symmetry_space_group_name_H-M	'P1'
_symmetry_Int_Tables_number	1
_symmetry_cell_setting	triclinic
loop_
_symmetry_equiv_pos_as_xyz
  x,y,z
_cell_length_a	23.532407
_cell_length_b	14.519709
_cell_length_c	22.610064
_cell_angle_alpha	89.990330
_cell_angle_beta	89.990850
_cell_angle_gamma	83.264412
loop_
_atom_site_label
_atom_site_type_symbol
_atom_site_fract_x
_atom_site_fract_y
_atom_site_fract_z
O1	O	0.074652	1.222999	-0.049114
O2	O	0.574652	1.722999	0.450886
O3	O	0.083443	0.954418	-0.049133
O4	O	0.583443	1.454418	0.450867
O5	O	-0.003848	1.096807	-0.049112
O6	O	0.496152	1.596807	0.450888
O7	O	0.161942	1.080609	-0.049135
O8	O	0.661942	1.580609	0.450865
O9	O	-0.003848	1.096766	0.049257
O10	O	0.496152	1.596766	0.549257
O11	O	0.083443	0.954376	0.049236
O12	O	0.583443	1.454376	0.549236
O13	O	0.074651	1.222957	0.049255
O14	O	0.574651	1.722957	0.549255
Zn15	Zn	0.079047	1.088660	0.064864
Zn16	Zn	0.579047	1.588660	0.564864
Zn17	Zn	0.079047	1.088715	-0.064742
Zn18	Zn	0.579047	1.588715	0.435258
O19	O	0.161942	1.080568	0.049235
O20	O	0.661942	1.580568	0.549235
C21	C	0.083033	0.920042	0.000050
C22	C	0.583033	1.420042	0.500050
C23	C	0.081805	0.817676	0.000043
C24	C	0.581805	1.317676	0.500043
C25	C	-0.025066	1.096374	0.000074
C26	C	0.474934	1.596374	0.500074
C27	C	-0.088288	1.095134	0.000079
C28	C	0.411712	1.595134	0.500079
C29	C	0.077286	0.442833	0.000070
C30	C	0.577286	0.942833	0.500070
C31	C	0.078541	0.547126	0.000063
C32	C	0.578541	1.047126	0.500063
C33	C	0.079545	0.630251	0.000056
C34	C	0.579545	1.130251	0.500056
C35	C	0.080801	0.734551	0.000049
C36	C	0.580801	1.234551	0.500049
C37	C	-0.487046	1.171619	0.000052
C38	C	0.012954	1.671619	0.500052
C39	C	-0.546452	1.170467	0.000047
C40	C	-0.046452	1.670467	0.500047
O41	O	-0.582876	1.241369	0.000030
O42	O	-0.082876	1.741369	0.500030
N43	N	-0.569460	1.085816	0.000042
N44	N	-0.069460	1.585816	0.500042
C45	C	-0.533059	1.002312	0.000035
C46	C	-0.033059	1.502312	0.500035
O47	O	-0.558084	0.930205	0.000029
O48	O	-0.058084	1.430205	0.500029
C49	C	-0.473655	1.003465	0.000035
C50	C	0.026345	1.503465	0.500035
C51	C	-0.450650	1.088121	0.000046
C52	C	0.049350	1.588121	0.500046
C53	C	-0.464041	1.256268	0.000062
C54	C	0.035959	1.756268	0.500062
C55	C	-0.404640	1.257420	0.000068
C56	C	0.095360	1.757420	0.500068
C57	C	-0.368244	1.173922	0.000063
C58	C	0.131756	1.673922	0.500063
C59	C	-0.391249	1.089273	0.000052
C60	C	0.108751	1.589273	0.500052
C61	C	-0.437255	0.919962	0.000024
C62	C	0.062745	1.419962	0.500024
C63	C	-0.377847	0.921123	0.000024
C64	C	0.122153	1.421123	0.500024
C65	C	-0.354843	1.005779	0.000035
C66	C	0.145157	1.505779	0.500035
C67	C	-0.295451	1.006927	0.000053
C68	C	0.204549	1.506927	0.500053
N69	N	-0.272443	1.091578	0.000058
N70	N	0.227557	1.591578	0.500058
C71	C	-0.308839	1.175075	0.000063
C72	C	0.191161	1.675075	0.500063
C73	C	-0.657813	0.999897	0.000033
C74	C	-0.157813	1.499897	0.500033
C75	C	-0.717216	0.998743	0.000037
C76	C	-0.217216	1.498743	0.500037
C77	C	-0.730604	1.166898	0.000048
C78	C	-0.230604	1.666898	0.500048
C79	C	-0.671200	1.168051	0.000048
C80	C	-0.171200	1.668051	0.500048
C81	C	-0.634804	1.084548	0.000038
C82	C	-0.134804	1.584548	0.500038
C83	C	-0.184092	1.177487	0.000076
C84	C	0.315908	1.677487	0.500076
C85	C	-0.124685	1.178632	0.000084
C86	C	0.375315	1.678632	0.500084
C87	C	-0.111301	1.010477	0.000069
C88	C	0.388699	1.510477	0.500069
C89	C	-0.170703	1.009332	0.000064
C90	C	0.329297	1.509332	0.500064
C91	C	-0.207098	1.092845	0.000066
C92	C	0.292902	1.592845	0.500066
O93	O	-0.258992	0.936062	0.000067
O94	O	0.241008	1.436062	0.500067
O95	O	-0.283806	1.247171	0.000061
O96	O	0.216194	1.747171	0.500061
C97	C	0.183160	1.081001	0.000047
C98	C	0.683160	1.581001	0.500047
C99	C	0.246383	1.082241	0.000039
C100	C	0.746383	1.582241	0.500039
C101	C	0.075061	1.257333	0.000072
C102	C	0.575061	1.757333	0.500072
C103	C	0.076289	1.359700	0.000074
C104	C	0.576289	1.859700	0.500074
N105	N	0.079047	1.088630	0.153317
N106	N	0.579047	1.588630	0.653317
N107	N	0.079043	1.088753	-0.153194
N108	N	0.579043	1.588753	0.346806
C109	C	0.113659	1.144329	0.561957
C110	C	0.613659	1.644329	1.061957
C111	C	0.113657	1.144341	0.623877
C112	C	0.613657	1.644341	1.123877
O113	O	0.143082	1.191661	0.655895
O114	O	0.643082	1.691661	1.155895
N115	N	0.079041	1.088733	0.654854
N116	N	0.579041	1.588733	1.154854
C117	C	0.044419	1.033117	0.623907
C118	C	0.544419	1.533117	1.123907
O119	O	0.014975	0.985820	0.655941
O120	O	0.514975	1.485820	1.155941
C121	C	0.044418	1.033111	0.561988
C122	C	0.544418	1.533111	1.061988
C123	C	0.079041	1.088715	0.531015
C124	C	0.579041	1.588715	1.031015
C125	C	0.148279	1.199930	0.530984
C126	C	0.648279	1.699930	1.030984
C127	C	0.148281	1.199916	0.469068
C128	C	0.648281	1.699916	0.969068
C129	C	0.113663	1.144303	0.438126
C130	C	0.613663	1.644303	0.938126
C131	C	0.079043	1.088702	0.469099
C132	C	0.579043	1.588702	0.969099
C133	C	0.009794	0.977500	0.531043
C134	C	0.509794	1.477500	1.031043
C135	C	0.009795	0.977500	0.469120
C136	C	0.509795	1.477500	0.969120
C137	C	0.044418	1.033104	0.438147
C138	C	0.544418	1.533104	0.938147
C139	C	0.044427	1.033075	0.376242
C140	C	0.544427	1.533075	0.876242
N141	N	0.079044	1.088683	0.345265
N142	N	0.579044	1.588683	0.845265
C143	C	0.113662	1.144297	0.376207
C144	C	0.613662	1.644297	0.876207
C145	C	0.044424	1.033135	0.753941
C146	C	0.544424	1.533135	1.253941
C147	C	0.044428	1.033135	0.815858
C148	C	0.544428	1.533135	1.315858
C149	C	0.113665	1.144360	0.815824
C150	C	0.613665	1.644360	1.315824
C151	C	0.113664	1.144354	0.753905
C152	C	0.613664	1.644354	1.253905
C153	C	0.079040	1.088743	0.722964
C154	C	0.579040	1.588743	1.222964
C155	C	0.113664	1.144264	0.246180
C156	C	0.613664	1.644264	0.746180
C157	C	0.113664	1.144243	0.184259
C158	C	0.613664	1.644243	0.684259
C159	C	0.044425	1.033022	0.184299
C160	C	0.544425	1.533022	0.684299
C161	C	0.044426	1.033039	0.246214
C162	C	0.544426	1.533039	0.746214
C163	C	0.079047	1.088668	0.277153
C164	C	0.579047	1.588668	0.777153
O165	O	0.015016	0.985781	0.344184
O166	O	0.515016	1.485781	0.844184
O167	O	0.143096	1.191595	0.344166
O168	O	0.643096	1.691595	0.844166
H169	H	-0.105958	1.247571	0.000095
H170	H	0.394042	1.747571	0.500095
H171	H	-0.081657	0.942496	0.000067
H172	H	0.418343	1.442496	0.500067
Br173	Br	-0.002564	0.957644	0.711956
Br174	Br	0.497436	1.457644	1.211956
H175	H	-0.628182	0.931894	0.000030
H176	H	-0.128182	1.431894	0.500030
Br177	Br	-0.639986	1.282945	0.000065
Br178	Br	-0.139986	1.782945	0.500065
Br179	Br	0.160645	1.219840	0.857829
Br180	Br	0.660645	1.719840	1.357829
H181	H	0.141861	1.189523	0.159043
H182	H	0.641861	1.689523	0.659043
H183	H	0.176469	1.245222	0.556170
H184	H	0.676469	1.745222	1.056170
H185	H	0.141855	1.189563	0.271363
H186	H	0.641855	1.689563	0.771363
H187	H	-0.213718	1.245491	0.000074
H188	H	0.286282	1.745491	0.500074
Br189	Br	0.160652	1.219823	0.711876
Br190	Br	0.660652	1.719823	1.211876
Br191	Br	-0.002552	0.957651	0.857886
Br192	Br	0.497448	1.457651	1.357886
Br193	Br	0.195283	1.275366	0.427042
Br194	Br	0.695283	1.775366	0.927042
Br195	Br	-0.002552	0.957547	0.142294
Br196	Br	0.497448	1.457547	0.642294
H197	H	-0.455975	0.851027	0.000011
H198	H	0.044025	1.351027	0.500011
H199	H	-0.385915	1.326355	0.000075
H200	H	0.114085	1.826355	0.500075
H201	H	-0.018401	0.932213	0.443931
H202	H	0.481599	1.432213	0.943931
H203	H	-0.348216	0.853122	0.000015
H204	H	0.151784	1.353122	0.500015
Br205	Br	-0.037197	0.902030	0.573063
Br206	Br	0.462803	1.402030	1.073063
Br207	Br	-0.002556	0.957565	0.288251
Br208	Br	0.497444	1.457565	0.788251
H209	H	-0.189434	0.940399	0.000071
H210	H	0.310566	1.440399	0.500071
Br211	Br	-0.513426	1.369602	0.000069
Br212	Br	-0.013426	1.869602	0.500069
H213	H	-0.735940	0.929808	0.000038
H214	H	-0.235940	1.429808	0.500038
Br215	Br	-0.780011	1.280217	0.000053
Br216	Br	-0.280011	1.780217	0.500053
