data_functionalizedCrystal
_audit_creation_method	'MofGen! by Chris Wilmer'
_symmetry_space_group_name_H-M	'P1'
_symmetry_Int_Tables_number	1
_symmetry_cell_setting	triclinic
loop_
_symmetry_equiv_pos_as_xyz
  x,y,z
_cell_length_a	12.645330
_cell_length_b	18.215407
_cell_length_c	18.215399
_cell_angle_alpha	90.017777
_cell_angle_beta	89.976970
_cell_angle_gamma	89.986688
loop_
_atom_site_label
_atom_site_type_symbol
_atom_site_fract_x
_atom_site_fract_y
_atom_site_fract_z
Zn1	Zn	-0.422174	-1.125109	-0.416101
Zn2	Zn	-0.599456	-1.125033	-0.293045
Zn3	Zn	-0.422194	-1.002041	-0.293052
Zn4	Zn	-0.599382	-1.002023	-0.416074
O5	O	-0.510802	-1.063551	-0.354568
O6	O	-0.445714	-1.228083	-0.399785
O7	O	-0.575981	-1.108693	-0.190062
O8	O	-0.273844	-1.018406	-0.309389
O9	O	-0.575962	-1.228027	-0.309376
O10	O	-0.273829	-1.108823	-0.399792
O11	O	-0.445747	-1.018332	-0.190067
O12	O	-0.445676	-0.899055	-0.309364
O13	O	-0.575836	-1.018374	-0.519062
O14	O	-0.575855	-0.899041	-0.399747
O15	O	-0.445642	-1.108805	-0.519081
O16	O	-0.747794	-1.108675	-0.309351
O17	O	-0.747740	-1.018300	-0.399740
C18	C	-0.510760	-0.872345	-0.354554
C19	C	-0.510768	-0.790546	-0.354565
C20	C	-0.443079	-0.602380	-0.401714
C21	C	-0.443084	-0.525522	-0.401716
C22	C	-0.578509	-0.525474	-0.307428
C23	C	-0.578497	-0.602332	-0.307423
C24	C	-0.510784	-0.640783	-0.354570
C25	C	-0.510801	-0.487067	-0.354577
C26	C	-0.510807	-0.403733	-0.354579
C27	C	-0.510775	-0.724122	-0.354568
C28	C	-0.786231	-1.063498	-0.354558
C29	C	-0.904061	-1.063542	-0.354578
C30	C	-1.071635	-1.006922	-0.411617
C31	C	-0.949076	-1.006632	-0.411434
C32	C	-0.948650	-1.042549	-0.277020
C33	C	-1.071248	-1.042203	-0.277366
C34	C	-1.071160	-1.141502	-0.374468
C35	C	-0.948553	-1.141024	-0.376164
C36	C	-0.234296	-1.063625	-0.354594
C37	C	-0.116466	-1.063657	-0.354606
C38	C	-0.510729	-1.063596	-0.546521
C39	C	-0.510697	-1.063615	-0.628320
C40	C	-0.510832	-0.255504	-0.354581
C41	C	-0.510816	-0.337303	-0.354582
C42	C	-0.442842	-1.110719	-0.816525
C43	C	-0.442811	-1.110728	-0.893384
C44	C	-0.578389	-1.016563	-0.893353
C45	C	-0.578414	-1.016551	-0.816495
C46	C	-0.510642	-1.063633	-0.778084
C47	C	-0.510586	-1.063654	-0.931800
C48	C	-0.510553	-1.063663	-1.015133
C49	C	-0.510673	-1.063624	-0.694745
C50	C	-0.510798	-1.063549	-0.163362
C51	C	-0.510531	-1.063672	-0.081563
H52	H	-0.918926	-1.019766	-0.468942
H53	H	-0.633569	-0.978232	-0.924637
H54	H	-1.100151	-1.183771	-0.332944
Cl55	Cl	-0.901387	-0.955606	-0.250571
Cl56	Cl	-0.357964	-0.477248	-0.460984
Cl57	Cl	-0.663649	-0.957348	-0.768165
Cl58	Cl	-1.117045	-1.103226	-0.209542
H59	H	-0.387655	-1.149055	-0.785253
Cl60	Cl	-1.119355	-0.918379	-0.391577
Cl61	Cl	-0.357582	-1.169931	-0.941708
Cl62	Cl	-0.663633	-0.477131	-0.248163
Cl63	Cl	-0.663608	-0.650613	-0.248144
H64	H	-0.387939	-0.633685	-0.440102
H65	H	-1.101051	-1.019935	-0.469314
Cl66	Cl	-1.115539	-0.954347	-0.251390
Cl67	Cl	-0.903921	-0.917530	-0.391121
H68	H	-0.919494	-1.082562	-0.233382
H69	H	-1.102009	-1.160652	-0.430061
Cl70	Cl	-0.903555	-1.165470	-0.464289
H71	H	-0.917906	-1.185520	-0.337663
