data_functionalizedCrystal
_audit_creation_method	'MofGen! by Chris Wilmer'
_symmetry_space_group_name_H-M	'P1'
_symmetry_Int_Tables_number	1
_symmetry_cell_setting	triclinic
loop_
_symmetry_equiv_pos_as_xyz
  x,y,z
_cell_length_a	14.853567
_cell_length_b	14.853567
_cell_length_c	10.065875
_cell_angle_alpha	98.805381
_cell_angle_beta	81.243377
_cell_angle_gamma	83.634930
loop_
_atom_site_label
_atom_site_type_symbol
_atom_site_fract_x
_atom_site_fract_y
_atom_site_fract_z
O1	O	1.209527	0.104481	-0.113388
O2	O	1.709527	0.604481	0.386612
O3	O	0.947070	0.118500	-0.113410
O4	O	1.447070	0.618500	0.386590
O5	O	1.085309	-0.019740	-0.113402
O6	O	1.585309	0.480260	0.386598
O7	O	1.071287	0.242721	-0.113395
O8	O	1.571287	0.742721	0.386605
O9	O	1.058949	0.006727	0.113585
O10	O	1.558949	0.506727	0.613585
O11	O	0.920709	0.144966	0.113578
O12	O	1.420709	0.644966	0.613578
O13	O	1.183166	0.130948	0.113600
O14	O	1.683166	0.630948	0.613600
Zn15	Zn	1.047753	0.142159	0.149628
Zn16	Zn	1.547753	0.642159	0.649628
Zn17	Zn	1.082483	0.107289	-0.149438
Zn18	Zn	1.582483	0.607289	0.350562
O19	O	1.044927	0.269187	0.113592
O20	O	1.544927	0.769187	0.613592
C21	C	0.900301	0.131098	0.000081
C22	C	1.400301	0.631098	0.500081
C23	C	0.800219	0.129193	0.000072
C24	C	1.300219	0.629193	0.500072
C25	C	0.387681	0.039030	0.000100
C26	C	0.887681	0.539030	0.500100
C27	C	0.366400	0.203263	0.000103
C28	C	0.866400	0.703263	0.500103
C29	C	0.460434	0.205053	0.000099
C30	C	0.960434	0.705053	0.500099
C31	C	0.518097	0.123830	0.000093
C32	C	1.018097	0.623830	0.500093
C33	C	0.481725	0.040817	0.000092
C34	C	0.981725	0.540817	0.500092
C35	C	0.496815	0.288063	0.000087
C36	C	0.996815	0.788063	0.500087
C37	C	0.590855	0.289856	0.000081
C38	C	1.090855	0.789856	0.500081
C39	C	0.648518	0.208632	0.000085
C40	C	1.148518	0.708632	0.500085
C41	C	0.612141	0.125616	0.000085
C42	C	1.112141	0.625616	0.500085
C43	C	0.669803	0.044393	0.000079
C44	C	1.169803	0.544393	0.500079
C45	C	0.633427	-0.038623	0.000089
C46	C	1.133427	0.461377	0.500089
C47	C	0.539388	-0.040406	0.000096
C48	C	1.039388	0.459594	0.500096
C49	C	0.742556	0.210416	0.000078
C50	C	1.242556	0.710416	0.500078
C51	C	0.763847	0.046180	0.000071
C52	C	1.263847	0.546180	0.500071
C53	C	1.071494	-0.040096	0.000087
C54	C	1.571494	0.459904	0.500087
C55	C	1.069592	-0.140181	0.000075
C56	C	1.569592	0.359819	0.500075
C57	C	0.979424	-0.552712	0.000094
C58	C	1.479424	-0.052712	0.500094
C59	C	1.143655	-0.573992	0.000108
C60	C	1.643655	-0.073992	0.500108
C61	C	1.145446	-0.479959	0.000100
C62	C	1.645446	0.020041	0.500100
C63	C	1.064225	-0.422298	0.000091
C64	C	1.564225	0.077702	0.500091
C65	C	0.981212	-0.458670	0.000090
C66	C	1.481212	0.041330	0.500090
C67	C	1.228456	-0.443578	0.000114
C68	C	1.728456	0.056422	0.500114
C69	C	1.230250	-0.349540	0.000108
C70	C	1.730250	0.150460	0.500108
C71	C	1.149029	-0.291878	0.000089
C72	C	1.649029	0.208122	0.500089
C73	C	1.066013	-0.328256	0.000087
C74	C	1.566013	0.171744	0.500087
C75	C	0.984791	-0.270595	0.000078
C76	C	1.484791	0.229405	0.500078
C77	C	0.901776	-0.306972	0.000066
C78	C	1.401776	0.193028	0.500066
C79	C	0.899991	-0.401008	0.000072
C80	C	1.399991	0.098992	0.500072
C81	C	1.150813	-0.197841	0.000084
C82	C	1.650813	0.302159	0.500084
C83	C	0.986579	-0.176553	0.000075
C84	C	1.486579	0.323447	0.500075
C85	C	1.229935	0.118350	0.000106
C86	C	1.729935	0.618350	0.500106
C87	C	1.330019	0.120254	0.000106
C88	C	1.830019	0.620254	0.500106
C89	C	1.058742	0.289543	0.000100
C90	C	1.558742	0.789543	0.500100
C91	C	1.060646	0.389627	0.000103
C92	C	1.560646	0.889627	0.500103
N93	N	1.024056	0.165957	0.353732
N94	N	1.524056	0.665957	0.853732
N95	N	1.106187	0.083484	-0.353542
N96	N	1.606187	0.583484	0.146458
C97	C	1.074233	0.115563	0.421514
C98	C	1.574233	0.615563	0.921514
C99	C	1.056003	0.133885	0.578680
C100	C	1.556003	0.633885	1.078680
H101	H	0.680389	-0.104755	0.000075
H102	H	1.180389	0.395245	0.500075
N103	N	1.316045	-0.505773	0.000141
N104	N	1.816045	-0.005773	0.500141
H105	H	1.328736	-0.555076	-0.084003
H106	H	1.828736	-0.055076	0.415997
H107	H	1.368852	-0.468398	0.000207
H108	H	1.868852	0.031602	0.500207
H109	H	0.920438	-0.129611	0.000062
H110	H	1.420438	0.370389	0.500062
H111	H	1.130685	0.058850	0.363192
H112	H	1.630685	0.558850	0.863192
N113	N	0.826036	-0.041430	0.000055
N114	N	1.326036	0.458570	0.500055
H115	H	0.891130	-0.027705	0.000044
H116	H	1.391130	0.472295	0.500044
H117	H	0.804482	-0.067787	0.084206
H118	H	1.304482	0.432213	0.584206
H119	H	0.967598	0.222662	0.412055
H120	H	1.467598	0.722662	0.912055
N121	N	1.319789	-0.310319	0.000103
N122	N	1.819789	0.189681	0.500103
H123	H	1.333963	-0.281596	-0.084047
H124	H	1.833963	0.218404	0.415953
H125	H	1.314367	-0.262000	0.084297
H126	H	1.814367	0.238000	0.584297
H127	H	1.218402	-0.168226	0.000103
H128	H	1.718402	0.331774	0.500103
H129	H	0.449861	0.354189	0.000077
H130	H	0.949861	0.854189	0.500077
N131	N	0.630077	0.379393	0.000067
N132	N	1.130077	0.879393	0.500067
H133	H	0.599289	0.424793	0.084212
H134	H	1.099289	0.924793	0.584212
H135	H	0.698399	0.368128	0.000011
H136	H	1.198399	0.868128	0.500011
N137	N	0.500154	-0.129937	0.000117
N138	N	1.000154	0.370063	0.500117
H139	H	0.431832	-0.118742	0.000120
H140	H	0.931832	0.381258	0.500120
H141	H	0.531003	-0.175300	-0.084028
H142	H	1.031003	0.324700	0.415972
H143	H	0.911835	-0.582335	0.000079
H144	H	1.411835	-0.082335	0.500079
H145	H	0.999541	0.190594	0.636998
H146	H	1.499541	0.690594	1.136998
H147	H	0.358059	-0.028559	0.000114
H148	H	0.858059	0.471441	0.500114
H149	H	1.162642	0.026768	0.588140
H150	H	1.662642	0.526768	1.088140
H151	H	0.835644	-0.260011	0.000069
H152	H	1.335644	0.239989	0.500069
N153	N	0.781789	0.299945	0.000074
N154	N	1.281789	0.799945	0.500074
H155	H	0.850111	0.288754	0.000072
H156	H	1.350111	0.788754	0.500072
H157	H	0.770473	0.325675	-0.084076
H158	H	1.270473	0.825675	0.415924
N159	N	0.304215	0.290863	0.000095
N160	N	0.804215	0.790863	0.500095
H161	H	0.239123	0.277134	0.000096
H162	H	0.739123	0.777134	0.500096
H163	H	0.306234	0.336846	0.084243
H164	H	0.806234	0.836846	0.584243
H165	H	0.832404	-0.430635	0.000063
H166	H	1.332404	0.069365	0.500063
H167	H	1.209781	-0.620943	0.000126
H168	H	1.709781	-0.120943	0.500126
