data_functionalizedCrystal
_audit_creation_method	'MofGen! by Chris Wilmer'
_symmetry_space_group_name_H-M	'P1'
_symmetry_Int_Tables_number	1
_symmetry_cell_setting	triclinic
loop_
_symmetry_equiv_pos_as_xyz
  x,y,z
_cell_length_a	16.109301
_cell_length_b	17.019234
_cell_length_c	14.586319
_cell_angle_alpha	86.114909
_cell_angle_beta	89.999213
_cell_angle_gamma	83.423909
loop_
_atom_site_label
_atom_site_type_symbol
_atom_site_fract_x
_atom_site_fract_y
_atom_site_fract_z
O1	O	1.103032	0.101396	-0.084191
O2	O	1.603032	0.601396	0.415809
O3	O	0.860957	0.114015	-0.085202
O4	O	1.360957	0.614015	0.414798
O5	O	0.988756	-0.007131	-0.075620
O6	O	1.488756	0.492869	0.424380
O7	O	0.975233	0.222542	-0.093772
O8	O	1.475233	0.722542	0.406228
O9	O	0.988748	-0.007132	0.076861
O10	O	1.488748	0.492868	0.576861
O11	O	0.860949	0.114013	0.067279
O12	O	1.360949	0.614013	0.567279
O13	O	1.103023	0.101394	0.068290
O14	O	1.603023	0.601394	0.568290
Cu15	Cu	0.981985	0.107704	0.081707
Cu16	Cu	1.481985	0.607704	0.581707
Cu17	Cu	0.981995	0.107706	-0.098619
Cu18	Cu	1.481995	0.607706	0.401381
O19	O	0.975224	0.222540	0.058709
O20	O	1.475224	0.722540	0.558709
C21	C	0.829979	0.113503	-0.008923
C22	C	1.329979	0.613503	0.491077
C23	C	0.737685	0.111970	-0.008807
C24	C	1.237685	0.611970	0.491193
C25	C	0.988242	-0.036521	0.002941
C26	C	1.488242	0.463479	0.502941
C27	C	0.986712	-0.124092	0.009856
C28	C	1.486712	0.375908	0.509856
C29	C	0.515346	0.180292	-0.014196
C30	C	1.015346	0.680292	0.485804
C31	C	0.428627	0.178846	-0.014076
C32	C	0.928627	0.678846	0.485924
C33	C	0.448641	0.035111	-0.002720
C34	C	0.948641	0.535111	0.497280
C35	C	0.535359	0.036558	-0.002834
C36	C	1.035359	0.536558	0.497166
C37	C	0.568708	0.109151	-0.008577
C38	C	1.068708	0.609151	0.491423
C39	C	0.395272	0.106258	-0.008343
C40	C	0.895272	0.606258	0.491657
C41	C	0.301248	0.104690	-0.008213
C42	C	0.801248	0.604690	0.491787
C43	C	0.662739	0.110720	-0.008705
C44	C	1.162739	0.610720	0.491295
C45	C	0.977985	-0.619369	0.053096
C46	C	1.477985	-0.119369	0.553096
C47	C	0.979431	-0.537087	0.046603
C48	C	1.479431	-0.037087	0.546603
C49	C	0.980165	-0.495938	-0.039763
C50	C	1.480165	0.004062	0.460237
C51	C	0.979445	-0.537073	-0.119641
C52	C	1.479445	-0.037073	0.380359
C53	C	0.977993	-0.619352	-0.113147
C54	C	1.477993	-0.119352	0.386853
C55	C	0.984541	-0.247507	-0.063528
C56	C	1.484541	0.252493	0.436472
C57	C	0.985995	-0.165222	-0.070016
C58	C	1.485995	0.334778	0.429984
C59	C	0.985979	-0.165242	0.096229
C60	C	1.485979	0.334758	0.596229
C61	C	0.984533	-0.247523	0.102715
C62	C	1.484533	0.252477	0.602715
C63	C	0.983809	-0.288651	0.022837
C64	C	1.483809	0.211349	0.522837
C65	C	0.981644	-0.411833	-0.046402
C66	C	1.481644	0.088167	0.453598
C67	C	0.982323	-0.372753	0.029477
C68	C	1.482323	0.127247	0.529477
C69	C	1.134002	0.101906	-0.007991
C70	C	1.634002	0.601906	0.492009
C71	C	1.226296	0.103439	-0.008112
C72	C	1.726296	0.603439	0.491888
C73	C	0.975738	0.251930	-0.019855
C74	C	1.475738	0.751930	0.480145
C75	C	0.977268	0.339501	-0.026776
C76	C	1.477268	0.839501	0.473224
N77	N	0.981984	0.107702	0.208539
N78	N	1.481984	0.607702	0.708539
N79	N	0.982003	0.107701	-0.225450
N80	N	1.482003	0.607701	0.274550
C81	C	1.038592	0.054076	0.447787
C82	C	1.538592	0.554076	0.947787
C83	C	1.038594	0.054074	0.543769
C84	C	1.538594	0.554074	1.043769
C85	C	0.925389	0.161329	0.535295
C86	C	1.425389	0.661329	1.035295
C87	C	0.925384	0.161327	0.439316
C88	C	1.425384	0.661327	0.939316
C89	C	0.981989	0.107701	0.395564
C90	C	1.481989	0.607701	0.895564
C91	C	0.981998	0.107702	0.587525
C92	C	1.481998	0.607702	1.087525
C93	C	0.982000	0.107700	0.691592
C94	C	1.482000	0.607700	1.191592
C95	C	0.981986	0.107702	0.291490
C96	C	1.481986	0.607702	0.791490
H97	H	0.385182	0.236777	-0.018651
H98	H	0.885182	0.736777	0.481349
H99	H	0.977391	-0.652867	0.123425
H100	H	1.477391	-0.152867	0.623425
H101	H	0.879287	0.204995	0.396792
H102	H	1.379287	0.704995	0.896792
H103	H	0.986568	-0.131747	0.161261
H104	H	1.486568	0.368253	0.661261
H105	H	1.084683	0.010410	0.412167
H106	H	1.584683	0.510410	0.912167
H107	H	0.879303	0.204991	0.570927
H108	H	1.379303	0.704991	1.070927
H109	H	0.982247	-0.378321	-0.116721
H110	H	1.482247	0.121679	0.383279
H111	H	0.542496	0.239402	-0.018866
H112	H	1.042496	0.739402	0.481134
O113	O	0.587167	-0.032574	0.002463
O114	O	1.087167	0.467426	0.502463
C115	C	0.572055	-0.076655	-0.073014
C116	C	1.072055	0.423345	0.426986
H117	H	0.542361	-0.035003	-0.131502
H118	H	1.042361	0.464997	0.368498
H119	H	0.527961	-0.122309	-0.051554
H120	H	1.027961	0.377691	0.448446
C121	C	0.691695	-0.170560	-0.033606
C122	C	1.191695	0.329440	0.466394
C123	C	0.655230	-0.119401	-0.105445
C124	C	1.155230	0.380599	0.394555
H125	H	0.742999	-0.196931	-0.053610
H126	H	1.242999	0.303069	0.446390
H127	H	0.701874	-0.140864	0.017247
H128	H	1.201874	0.359136	0.517247
H129	H	0.654942	-0.208598	-0.015729
H130	H	1.154942	0.291402	0.484271
H131	H	0.691978	-0.081359	-0.123313
H132	H	1.191978	0.418641	0.376687
H133	H	0.645059	-0.149092	-0.156302
H134	H	1.145059	0.350908	0.343698
H135	H	0.983940	-0.281022	0.173044
H136	H	1.483940	0.218978	0.673044
H137	H	0.986592	-0.131720	-0.140349
H138	H	1.486592	0.368280	0.359651
H139	H	1.084684	0.010407	0.586286
H140	H	1.584684	0.510407	1.086286
O141	O	0.416105	-0.035333	0.002805
O142	O	0.916105	0.464667	0.502805
C143	C	0.328123	-0.021357	0.001721
C144	C	0.828123	0.478643	0.501721
H145	H	0.307680	0.040210	-0.032010
H146	H	0.807680	0.540210	0.467990
H147	H	0.303986	-0.025178	0.075175
H148	H	0.803986	0.474822	0.575175
C149	C	0.317346	-0.159713	-0.011693
C150	C	0.817346	0.340287	0.488307
C151	C	0.292237	-0.084098	-0.053129
C152	C	0.792237	0.415902	0.446871
H153	H	0.295208	-0.198416	-0.045523
H154	H	0.795208	0.301584	0.454477
H155	H	0.376621	-0.169130	-0.010959
H156	H	0.876621	0.330870	0.489041
H157	H	0.297230	-0.162886	0.049517
H158	H	0.797230	0.337114	0.549517
H159	H	0.312362	-0.080923	-0.114334
H160	H	0.812362	0.419077	0.385666
H161	H	0.232964	-0.074682	-0.053875
H162	H	0.732964	0.425318	0.446125
H163	H	0.980027	-0.503605	0.111644
H164	H	1.480027	-0.003605	0.611644
H165	H	0.983959	-0.280983	-0.128571
H166	H	1.483959	0.219017	0.371429
O167	O	0.977173	-0.659214	-0.190795
O168	O	1.477173	-0.159214	0.309205
C169	C	0.905543	-0.630149	-0.243638
C170	C	1.405543	-0.130149	0.256362
H171	H	0.882616	-0.567417	-0.224963
H172	H	1.382616	-0.067417	0.275037
H173	H	0.854322	-0.670171	-0.228938
H174	H	1.354322	-0.170171	0.271062
C175	C	0.955616	-0.706126	-0.369381
C176	C	1.455616	-0.206126	0.130619
C177	C	0.927462	-0.629075	-0.346449
C178	C	1.427462	-0.129075	0.153551
H179	H	0.969135	-0.705466	-0.432800
H180	H	1.469135	-0.205466	0.067200
H181	H	1.003874	-0.725710	-0.333779
H182	H	1.503874	-0.225710	0.166221
H183	H	0.912928	-0.739469	-0.357124
H184	H	1.412928	-0.239469	0.142876
H185	H	0.970154	-0.595736	-0.358695
H186	H	1.470154	-0.095736	0.141305
H187	H	0.879212	-0.609485	-0.382055
H188	H	1.379212	-0.109485	0.117945
H189	H	0.981721	-0.406260	0.099795
H190	H	1.481721	0.093740	0.599795
H191	H	0.980038	-0.503562	-0.189962
H192	H	1.480038	-0.003562	0.310038
