data_functionalizedCrystal
_audit_creation_method	'MofGen! by Chris Wilmer'
_symmetry_space_group_name_H-M	'P1'
_symmetry_Int_Tables_number	1
_symmetry_cell_setting	triclinic
loop_
_symmetry_equiv_pos_as_xyz
  x,y,z
_cell_length_a	14.853567
_cell_length_b	14.971486
_cell_length_c	13.448316
_cell_angle_alpha	90.006811
_cell_angle_beta	90.003786
_cell_angle_gamma	83.624530
loop_
_atom_site_label
_atom_site_type_symbol
_atom_site_fract_x
_atom_site_fract_y
_atom_site_fract_z
O1	O	-1.196346	-0.116782	-0.082624
O2	O	-0.933884	-0.130693	-0.082641
O3	O	-1.072150	0.006462	-0.082625
O4	O	-1.058080	-0.253936	-0.082640
O5	O	-1.072132	0.006470	0.082759
O6	O	-0.933867	-0.130684	0.082743
O7	O	-1.196329	-0.116773	0.082760
Cu8	Cu	-1.065096	-0.123728	0.097852
Cu9	Cu	-1.065117	-0.123738	-0.097733
O10	O	-1.058063	-0.253928	0.082744
C11	C	-0.900287	-0.130058	0.000049
C12	C	-0.800203	-0.128169	0.000043
C13	C	-1.071512	0.039791	0.000067
C14	C	-1.069626	0.139088	0.000066
C15	C	-1.229926	-0.117408	0.000068
C16	C	-1.330009	-0.119297	0.000068
C17	C	-0.387686	-0.038712	0.000070
C18	C	-0.366375	-0.201655	0.000060
C19	C	-0.460408	-0.203431	0.000056
C20	C	-0.518085	-0.122846	0.000058
C21	C	-0.481728	-0.040486	0.000064
C22	C	-0.496772	-0.285790	0.000041
C23	C	-0.590811	-0.287569	0.000036
C24	C	-0.648490	-0.206984	0.000046
C25	C	-0.612127	-0.124620	0.000052
C26	C	-0.669804	-0.044035	0.000054
C27	C	-0.633444	0.038330	0.000068
C28	C	-0.539407	0.040100	0.000073
C29	C	-0.742527	-0.208754	0.000040
C30	C	-0.763847	-0.045809	0.000048
C31	C	-1.058701	-0.287257	0.000050
C32	C	-1.060586	-0.386554	0.000045
N33	N	-1.065088	-0.123720	0.235417
C34	C	-1.150854	0.196299	0.000072
C35	C	-1.149076	0.289598	0.000062
C36	C	-1.066071	0.325686	0.000053
C37	C	-0.984838	0.268468	0.000044
C38	C	-0.986616	0.175170	0.000047
C39	C	-0.981137	0.462931	0.000040
C40	C	-0.979359	0.556235	0.000039
C41	C	-1.143598	0.577360	0.000055
C42	C	-1.145376	0.484062	0.000058
C43	C	-1.064142	0.426850	0.000051
N44	N	-1.065132	-0.123738	-0.235297
C45	C	-1.126331	-0.063013	0.287464
C46	C	-1.126337	-0.063013	0.391567
C47	C	-1.065103	-0.123724	0.443621
C48	C	-1.003853	-0.184434	0.391566
C49	C	-1.003844	-0.184430	0.287465
C50	C	-1.003878	-0.184440	0.608547
C51	C	-1.003888	-0.184445	0.712655
C52	C	-1.126371	-0.063023	0.712649
C53	C	-1.126362	-0.063019	0.608547
C54	C	-1.065113	-0.123730	0.556500
H55	H	-0.810802	0.019814	0.000053
F56	F	-0.938687	-0.249054	0.553158
F57	F	-0.500703	0.127750	0.000084
F58	F	-0.891016	0.594640	0.000030
F59	F	-0.694838	0.124090	0.000063
F60	F	-0.348989	0.048942	0.000089
H61	H	-0.319409	-0.267263	0.000049
F62	F	-0.894678	0.402044	0.000030
H63	H	-1.176241	-0.013590	0.755032
H64	H	-0.920472	0.128589	0.000042
H65	H	-1.209742	0.623946	0.000058
F66	F	-1.191538	0.001591	0.553147
F67	F	-0.435385	-0.371547	0.000024
F68	F	-0.629500	-0.375227	0.000024
H69	H	-1.176198	-0.013579	0.245089
H70	H	-0.772127	-0.275814	0.000031
F71	F	-1.239201	0.157901	0.000091
F72	F	-1.235530	0.350483	0.000070
H73	H	-1.212967	0.454683	0.000072
H74	H	-0.917253	0.297857	0.000030
H75	H	-1.176205	-0.013580	0.433944
F76	F	-0.938678	-0.249044	0.446967
F77	F	-0.938713	-0.249062	0.768047
F78	F	-0.938658	-0.249040	0.232074
