data_functionalizedCrystal
_audit_creation_method	'MofGen! by Chris Wilmer'
_symmetry_space_group_name_H-M	'P1'
_symmetry_Int_Tables_number	1
_symmetry_cell_setting	triclinic
loop_
_symmetry_equiv_pos_as_xyz
  x,y,z
_cell_length_a	21.295417
_cell_length_b	19.121102
_cell_length_c	19.120904
_cell_angle_alpha	89.911827
_cell_angle_beta	87.591662
_cell_angle_gamma	87.584620
loop_
_atom_site_label
_atom_site_type_symbol
_atom_site_fract_x
_atom_site_fract_y
_atom_site_fract_z
Zn1	Zn	-0.307921	1.054814	0.442032
Zn2	Zn	0.192079	1.554814	0.942032
Zn3	Zn	-0.408895	1.059724	0.324785
Zn4	Zn	0.091105	1.559724	0.824785
Zn5	Zn	-0.298967	0.942584	0.319816
Zn6	Zn	0.201033	1.442584	0.819816
Zn7	Zn	-0.408472	0.937535	0.436987
Zn8	Zn	0.091528	1.437535	0.936987
O9	O	-0.356064	0.998664	0.380905
O10	O	0.143936	1.498664	0.880905
O11	O	-0.325239	1.153571	0.430669
O12	O	0.174761	1.653571	0.930669
O13	O	-0.390743	1.048352	0.226021
O14	O	0.109257	1.548352	0.726021
O15	O	-0.212069	0.957530	0.336060
O16	O	0.287931	1.457530	0.836060
O17	O	-0.399425	1.157177	0.344528
O18	O	0.100575	1.657177	0.844528
O19	O	-0.218647	1.039985	0.425851
O20	O	0.281353	1.539985	0.925851
O21	O	-0.309980	0.962291	0.222371
O22	O	0.190020	1.462291	0.722371
O23	O	-0.309569	0.843809	0.331169
O24	O	0.190431	1.343809	0.831169
O25	O	-0.398703	0.948925	0.535761
O26	O	0.101297	1.448925	1.035761
O27	O	-0.390022	0.840100	0.417254
O28	O	0.109978	1.340100	0.917254
O29	O	-0.324829	1.035089	0.539467
O30	O	0.175171	1.535089	1.039467
O31	O	-0.496925	1.043456	0.339637
O32	O	0.003075	1.543456	0.839637
O33	O	-0.496614	0.953685	0.422072
O34	O	0.003386	1.453685	0.922072
C35	C	-0.348778	0.816517	0.373125
C36	C	0.151222	1.316517	0.873125
C37	C	-0.345677	0.738593	0.369814
C38	C	0.154323	1.238593	0.869814
C39	C	-0.386166	0.700074	0.413007
C40	C	0.113834	1.200074	0.913007
C41	C	-0.383244	0.626856	0.409899
C42	C	0.116756	1.126856	0.909899
C43	C	-0.339836	0.592158	0.363593
C44	C	0.160164	1.092158	0.863593
C45	C	-0.299344	0.630682	0.320398
C46	C	0.200656	1.130682	0.820398
C47	C	-0.302263	0.703899	0.323510
C48	C	0.197737	1.203899	0.823510
C49	C	-0.328921	0.371187	0.351961
C50	C	0.171079	0.871187	0.851961
C51	C	-0.326006	0.297965	0.348850
C52	C	0.173994	0.797965	0.848850
C53	C	-0.409906	0.294144	0.438353
C54	C	0.090094	0.794144	0.938353
C55	C	-0.412824	0.367362	0.441458
C56	C	0.087176	0.867362	0.941458
C57	C	-0.372329	0.405880	0.398265
C58	C	0.127671	0.905880	0.898265
C59	C	-0.336850	0.517318	0.360413
C60	C	0.163150	1.017318	0.860413
C61	C	-0.375313	0.480719	0.401449
C62	C	0.124687	0.980719	0.901449
C63	C	-0.519610	0.998574	0.380862
C64	C	-0.019610	1.498574	0.880862
C65	C	-0.589580	0.998599	0.380870
C66	C	-0.089580	1.498599	0.880870
C67	C	-0.622590	1.045380	0.337994
C68	C	-0.122590	1.545380	0.837994
C69	C	-0.688335	1.045413	0.338011
C70	C	-0.188335	1.545413	0.838011
C71	C	-0.721065	0.998651	0.380897
C72	C	-0.221065	1.498651	0.880897
C73	C	-0.688046	0.951865	0.423781
C74	C	-0.188046	1.451865	0.923781
C75	C	-0.622304	0.951839	0.423768
C76	C	-0.122304	1.451839	0.923768
N77	N	-0.822078	0.937094	0.383622
N78	N	-0.322078	1.437094	0.883622
N79	N	-0.884530	0.937121	0.383630
N80	N	-0.384530	1.437121	0.883630
C81	C	-0.919144	0.998728	0.380940
C82	C	-0.419144	1.498728	0.880940
N83	N	-0.888946	1.060308	0.378228
N84	N	-0.388946	1.560308	0.878228
N85	N	-0.826487	1.060281	0.378215
N86	N	-0.326487	1.560281	0.878215
C87	C	-0.792352	0.998674	0.380916
C88	C	-0.292352	1.498674	0.880916
C89	C	-1.023443	1.045548	0.338080
C90	C	-0.523443	1.545548	0.838080
C91	C	-1.089189	1.045581	0.338103
C92	C	-0.589189	1.545581	0.838103
C93	C	-1.088899	0.952028	0.423869
C94	C	-0.588899	1.452028	0.923869
C95	C	-1.023154	0.952001	0.423850
C96	C	-0.523154	1.452001	0.923850
C97	C	-0.990430	0.998760	0.380953
C98	C	-0.490430	1.498760	0.880953
C99	C	-0.191880	0.998773	0.380964
C100	C	0.308120	1.498773	0.880964
C101	C	-0.121914	0.998820	0.380989
C102	C	0.378086	1.498820	0.880989
C103	C	-0.362718	0.990896	0.563763
C104	C	0.137282	1.490896	1.063763
C105	C	-0.365553	0.987586	0.641686
C106	C	0.134447	1.487586	1.141686
C107	C	-0.363378	1.181523	0.388716
C108	C	0.136622	1.681523	0.888716
C109	C	-0.366495	1.259446	0.392044
C110	C	0.133505	1.759446	0.892044
C111	C	-0.349392	1.006442	0.198761
C112	C	0.150608	1.506442	0.698761
C113	C	-0.346384	1.009889	0.120844
C114	C	0.153616	1.509889	0.620844
C115	C	-0.328425	1.030890	0.680225
C116	C	0.171575	1.530890	1.180225
C117	C	-0.331086	1.027771	0.753441
C118	C	0.168914	1.527771	1.253441
C119	C	-0.370880	0.981351	0.788118
C120	C	0.129120	1.481351	1.288118
C121	C	-0.408010	0.938043	0.749573
C122	C	0.091990	1.438043	1.249573
C123	C	-0.405345	0.941159	0.676358
C124	C	0.094655	1.441159	1.176358
C125	C	-0.380849	0.969696	1.009084
C126	C	0.119151	1.469696	1.509084
C127	C	-0.383513	0.966585	1.082305
C128	C	0.116487	1.466585	1.582305
C129	C	-0.306588	1.056312	1.086168
C130	C	0.193412	1.556312	1.586168
C131	C	-0.303929	1.059427	1.012951
C132	C	0.196071	1.559427	1.512951
C133	C	-0.341056	1.016116	0.974413
C134	C	0.158944	1.516116	1.474413
C135	C	-0.373603	0.978164	0.862957
C136	C	0.126397	1.478164	1.362957
C137	C	-0.338330	1.019300	0.899575
C138	C	0.161670	1.519300	1.399575
H139	H	-0.263997	0.602426	0.282698
H140	H	0.236003	1.102426	0.782698
H141	H	-0.290651	0.269716	0.311147
H142	H	0.209349	0.769716	0.811147
Cl143	Cl	-0.251359	0.752323	0.269209
Cl144	Cl	0.248641	1.252323	0.769209
H145	H	-0.996275	0.913904	0.458761
H146	H	-0.496275	1.413904	0.958761
H147	H	-0.595949	1.083456	0.303066
H148	H	-0.095949	1.583456	0.803066
Cl149	Cl	-0.729843	1.104227	0.284104
Cl150	Cl	-0.229843	1.604227	0.784104
Cl151	Cl	-0.259914	1.110754	1.134619
Cl152	Cl	0.240086	1.610754	1.634619
Cl153	Cl	-0.580802	0.893022	0.477673
Cl154	Cl	-0.080802	1.393022	0.977673
H155	H	-0.996798	1.083625	0.303153
H156	H	-0.496798	1.583625	0.803153
Cl157	Cl	-0.284437	1.082244	0.801889
Cl158	Cl	0.215563	1.582244	1.301889
Cl159	Cl	-0.729192	0.893082	0.477698
Cl160	Cl	-0.229192	1.393082	0.977698
Cl161	Cl	-0.253901	1.117786	0.969363
Cl162	Cl	0.246099	1.617786	1.469363
H163	H	-1.116065	1.083681	0.303189
H164	H	-0.616065	1.583681	0.803189
Cl165	Cl	-0.429881	0.524340	0.459660
Cl166	Cl	0.070119	1.024340	0.959660
Cl167	Cl	-0.433539	0.908220	1.125897
Cl168	Cl	0.066461	1.408220	1.625897
H169	H	-1.115547	0.913957	0.458790
H170	H	-0.615547	1.413957	0.958790
H171	H	-0.301509	0.489059	0.322710
H172	H	0.198491	0.989059	0.822710
H173	H	-0.296022	1.068692	0.651997
H174	H	0.203978	1.568692	1.151997
Cl175	Cl	-0.278011	0.419599	0.297663
Cl176	Cl	0.221989	0.919599	0.797663
Cl177	Cl	-0.434147	0.578435	0.464202
Cl178	Cl	0.065853	1.078435	0.964202
Cl179	Cl	-0.427524	0.915247	0.960646
Cl180	Cl	0.072476	1.415247	1.460646
H181	H	-0.440409	0.900244	0.777813
H182	H	0.059591	1.400244	1.277813
H183	H	-0.435572	0.905889	0.644980
H184	H	0.064428	1.405889	1.144980
Cl185	Cl	-0.460812	0.245718	0.492648
Cl186	Cl	0.039188	0.745718	0.992648
Cl187	Cl	-0.288298	1.077647	0.855980
Cl188	Cl	0.211702	1.577647	1.355980
Cl189	Cl	-0.423631	0.919812	0.906556
Cl190	Cl	0.076369	1.419812	1.406556
H191	H	-0.421515	0.728320	0.450712
H192	H	0.078485	1.228320	0.950712
H193	H	-0.448173	0.395608	0.479164
H194	H	0.051827	0.895608	0.979164
