data_functionalizedCrystal
_audit_creation_method	'MofGen! by Chris Wilmer'
_symmetry_space_group_name_H-M	'P1'
_symmetry_Int_Tables_number	1
_symmetry_cell_setting	triclinic
loop_
_symmetry_equiv_pos_as_xyz
  x,y,z
_cell_length_a	10.654550
_cell_length_b	15.995350
_cell_length_c	9.130313
_cell_angle_alpha	90.000982
_cell_angle_beta	89.996220
_cell_angle_gamma	83.988639
loop_
_atom_site_label
_atom_site_type_symbol
_atom_site_fract_x
_atom_site_fract_y
_atom_site_fract_z
O1	O	1.666298	0.117599	-0.121912
O2	O	1.300673	0.128803	-0.121888
O3	O	1.493480	0.001371	-0.121899
O4	O	1.473491	0.245030	-0.121900
O5	O	1.493478	0.001375	0.121700
O6	O	1.300671	0.128807	0.121711
O7	O	1.666295	0.117602	0.121687
Cu8	Cu	1.483483	0.123205	0.143942
Cu9	Cu	1.483486	0.123201	-0.144142
O10	O	1.473488	0.245034	0.121698
C11	C	1.253885	0.127982	-0.000085
C12	C	1.114473	0.125521	-0.000076
C13	C	1.034008	0.200551	-0.000098
C14	C	0.903017	0.198233	-0.000123
C15	C	0.932971	0.045849	-0.000111
C16	C	1.063959	0.048168	-0.000075
C17	C	1.016713	0.288528	-0.000111
C18	C	0.885722	0.286211	-0.000137
C19	C	1.492652	-0.029827	-0.000102
C20	C	1.490175	-0.122791	-0.000110
C21	C	1.481278	-0.460591	-0.000105
C22	C	1.343964	-0.413954	-0.000642
C23	C	1.346442	-0.317249	-0.000093
C24	C	1.485691	-0.293004	-0.000108
C25	C	1.553417	-0.333687	0.138991
C26	C	1.549968	-0.430342	0.139108
C27	C	1.552807	-0.430688	-0.137910
C28	C	1.552775	-0.333743	-0.139748
C29	C	1.488192	-0.198292	-0.000106
C30	C	1.478780	-0.555303	-0.000098
C31	C	1.713084	0.118423	-0.000119
C32	C	1.852495	0.120884	-0.000137
C33	C	1.474316	0.276232	-0.000101
C34	C	1.476793	0.369197	-0.000103
N35	N	1.483490	0.123207	0.346564
N36	N	1.483488	0.123192	-0.346765
C37	C	1.568887	0.066800	0.423211
C38	C	1.568883	0.066789	0.576548
C39	C	1.398083	0.179602	0.576578
C40	C	1.398081	0.179607	0.423244
C41	C	1.667501	0.001671	0.423195
C42	C	1.667497	0.001661	0.576532
H43	H	1.293204	-0.289138	-0.099805
H44	H	1.646899	-0.062686	0.381577
H45	H	1.507914	-0.451490	-0.243339
N46	N	1.275099	-0.437620	-0.125755
N47	N	1.175682	-0.471668	-0.109118
H48	H	1.127045	-0.488390	-0.197482
H49	H	1.052003	0.316540	-0.105283
N50	N	0.828000	0.319558	0.131804
N51	N	0.894310	0.346472	0.230632
H52	H	0.853544	0.370021	0.323817
H53	H	0.891826	-0.017130	-0.000133
N54	N	1.494411	-0.298449	0.268882
N55	N	1.534760	-0.322729	0.391907
H56	H	1.493081	-0.297845	0.483642
N57	N	1.275425	-0.438936	0.123806
N58	N	1.327269	-0.490939	0.212893
H59	H	1.278868	-0.508585	0.300787
N60	N	1.490726	-0.299857	-0.268834
N61	N	1.397446	-0.245902	-0.258144
H62	H	1.353620	-0.221965	-0.349308
N63	N	1.788339	0.019650	0.628722
N64	N	1.873476	0.032340	0.539747
H65	H	1.958818	0.045046	0.576603
H66	H	0.843557	0.319358	-0.102090
N67	N	1.487990	-0.453679	0.269535
N68	N	1.474233	-0.529148	0.293199
H69	H	1.430456	-0.545627	0.385313
H70	H	1.654321	-0.317791	-0.148158
H71	H	1.292844	-0.289694	0.099796
N72	N	1.681746	-0.315203	0.145465
N73	N	1.706351	-0.240572	0.151596
H74	H	1.796983	-0.227513	0.156163
H75	H	1.129471	-0.012929	-0.000037
N76	N	1.676438	-0.470056	0.147032
N77	N	1.766966	-0.426362	0.152468
H78	H	1.856285	-0.454405	0.158075
H79	H	1.654048	-0.461861	-0.138855
N80	N	1.310847	0.237210	0.344922
N81	N	1.232911	0.210154	0.259360
H82	H	1.171299	0.250837	0.204040
H83	H	1.328544	0.225521	0.639026
N84	N	1.781551	0.027237	0.363487
N85	N	1.795802	0.030434	0.227783
H86	H	1.876350	0.048490	0.185610
H87	H	1.637779	-0.059156	0.624082
H88	H	1.045593	0.322938	0.101840
