data_functionalizedCrystal
_audit_creation_method	'MofGen! by Chris Wilmer'
_symmetry_space_group_name_H-M	'P1'
_symmetry_Int_Tables_number	1
_symmetry_cell_setting	triclinic
loop_
_symmetry_equiv_pos_as_xyz
  x,y,z
_cell_length_a	10.967926
_cell_length_b	14.853569
_cell_length_c	9.482900
_cell_angle_alpha	99.346518
_cell_angle_beta	92.549900
_cell_angle_gamma	84.185607
loop_
_atom_site_label
_atom_site_type_symbol
_atom_site_fract_x
_atom_site_fract_y
_atom_site_fract_z
O1	O	1.610475	0.159150	0.282576
O2	O	1.261265	0.161127	0.195084
O3	O	1.445195	0.029232	0.241180
O4	O	1.426545	0.291045	0.236480
O5	O	1.407835	0.056135	0.473610
O6	O	1.223905	0.188030	0.427514
O7	O	1.573115	0.186053	0.515005
Cu8	Cu	1.395098	0.189498	0.492482
Cu9	Cu	1.439281	0.157682	0.217607
O10	O	1.389185	0.317948	0.468909
C11	C	1.197894	0.172402	0.300102
C12	C	1.064730	0.165905	0.266740
C13	C	0.986007	0.176945	0.372271
C14	C	0.848374	0.170231	0.337791
C15	C	1.425669	0.009066	0.357184
C16	C	1.423135	-0.091105	0.356550
C17	C	1.312686	-0.131291	0.328881
C18	C	1.531205	-0.145045	0.383613
C19	C	1.528829	-0.239162	0.383011
C20	C	1.418380	-0.279348	0.355342
C21	C	1.310307	-0.225417	0.328274
C22	C	1.636902	-0.293102	0.410065
C23	C	1.634531	-0.387225	0.409462
C24	C	1.524079	-0.427411	0.381803
C25	C	1.416001	-0.373474	0.354735
C26	C	1.305553	-0.413659	0.327066
C27	C	1.197472	-0.359722	0.300008
C28	C	1.199856	-0.265603	0.300614
C29	C	1.521695	-0.521531	0.381197
C30	C	1.303174	-0.507785	0.326459
C31	C	1.636486	0.174778	0.409984
C32	C	1.769652	0.181273	0.443338
C33	C	1.408711	0.338114	0.352903
C34	C	1.411247	0.438284	0.353527
N35	N	1.364032	0.211876	0.685816
N36	N	1.470358	0.135297	0.024276
C37	C	1.430109	0.164277	0.774576
C38	C	1.404270	0.182903	0.935517
H39	H	1.107546	-0.392455	0.277471
H40	H	1.030234	0.151480	0.150865
O41	O	1.195787	-0.546679	0.299491
C42	C	0.979279	-0.523093	0.245358
C43	C	1.100814	-0.478932	0.275846
H44	H	0.902457	-0.468337	0.226263
H45	H	0.988252	-0.578033	0.146385
H46	H	0.957144	-0.555600	0.340968
H47	H	1.123021	-0.446374	0.180323
H48	H	1.091779	-0.424038	0.374871
H49	H	1.288326	0.266414	0.728973
O50	O	1.094805	-0.213223	0.274555
C51	C	0.889383	-0.158781	0.348299
C52	C	1.008286	-0.218118	0.378003
H53	H	0.819393	-0.162734	0.431900
H54	H	0.909971	-0.084584	0.353546
H55	H	0.850732	-0.185151	0.237379
H56	H	1.046999	-0.191829	0.488921
H57	H	0.987625	-0.292306	0.372661
H58	H	0.804141	0.195694	0.559221
O59	O	1.027316	0.194028	0.510461
C60	C	1.158541	0.140322	0.696148
C61	C	1.111886	0.120872	0.539609
H62	H	1.226904	0.081179	0.719771
H63	H	1.205339	0.206532	0.714382
H64	H	1.077838	0.147632	0.770214
H65	H	1.192520	0.113517	0.465443
H66	H	1.065049	0.054680	0.521492
H67	H	1.621123	-0.112317	0.406168
O68	O	0.807151	0.153185	0.199557
C69	C	0.675813	0.206839	0.013922
C70	C	0.722419	0.226266	0.170482
H71	H	0.607279	0.265903	-0.009626
H72	H	0.756434	0.199621	-0.060246
H73	H	0.629158	0.140567	-0.004239
H74	H	0.769055	0.292544	0.188780
H75	H	0.641751	0.233427	0.244569
O76	O	1.207775	-0.078893	0.302356
C77	C	1.103008	0.021472	0.150918
C78	C	1.221881	-0.037853	0.180776
H79	H	1.114381	0.054684	0.052639
H80	H	1.023630	-0.023387	0.130935
H81	H	1.083034	0.077092	0.247158
H82	H	1.241969	-0.093480	0.084582
H83	H	1.301192	0.007066	0.200818
H84	H	1.726810	-0.260365	0.432678
H85	H	1.328559	0.237444	0.978668
H86	H	1.722536	-0.431133	0.431497
O87	O	1.626562	-0.573996	0.407641
C88	C	1.731388	-0.674266	0.559186
C89	C	1.612537	-0.614902	0.529376
H90	H	1.720098	-0.707340	0.657625
H91	H	1.751366	-0.729981	0.463068
H92	H	1.810727	-0.629366	0.578983
H93	H	1.533122	-0.659727	0.509611
H94	H	1.592665	-0.559181	0.625512
H95	H	1.505807	0.109732	0.731419
O96	O	1.560446	0.070113	0.972529
C97	C	1.667941	-0.008193	0.764838
C98	C	1.566047	0.065779	0.823292
H99	H	1.672486	-0.011734	0.644170
H100	H	1.759733	0.009823	0.817327
H101	H	1.646977	-0.077483	0.789745
H102	H	1.586894	0.135097	0.798401
H103	H	1.474286	0.047685	0.770803
