data_functionalizedCrystal
_audit_creation_method	'MofGen! by Chris Wilmer'
_symmetry_space_group_name_H-M	'P1'
_symmetry_Int_Tables_number	1
_symmetry_cell_setting	triclinic
loop_
_symmetry_equiv_pos_as_xyz
  x,y,z
_cell_length_a	10.685904
_cell_length_b	10.685594
_cell_length_c	10.686551
_cell_angle_alpha	90.301037
_cell_angle_beta	81.591549
_cell_angle_gamma	99.063657
loop_
_atom_site_label
_atom_site_type_symbol
_atom_site_fract_x
_atom_site_fract_y
_atom_site_fract_z
Zn1	Zn	1.975681	-0.282817	-0.886853
Zn2	Zn	2.475681	0.217183	-0.386853
Zn3	Zn	1.942993	-0.511409	-0.690870
Zn4	Zn	2.442993	-0.011409	-0.190870
Zn5	Zn	1.744607	-0.317937	-0.660818
Zn6	Zn	2.244607	0.182063	-0.160818
Zn7	Zn	1.747124	-0.511287	-0.886771
Zn8	Zn	2.247124	-0.011287	-0.386771
O9	O	1.852601	-0.405862	-0.781328
O10	O	2.352601	0.094138	-0.281328
O11	O	2.150022	-0.298493	-0.873467
O12	O	2.650022	0.201507	-0.373467
O13	O	1.901944	-0.500493	-0.510302
O14	O	2.401944	-0.000493	-0.010302
O15	O	1.787886	-0.136694	-0.678260
O16	O	2.287886	0.363306	-0.178260
O17	O	2.126006	-0.466438	-0.729479
O18	O	2.626006	0.033562	-0.229479
O19	O	1.957655	-0.110892	-0.844327
O20	O	2.457655	0.389108	-0.344327
O21	O	1.756190	-0.358351	-0.488223
O22	O	2.256190	0.141649	0.011777
O23	O	1.566264	-0.358233	-0.678180
O24	O	2.066264	0.141767	-0.178180
O25	O	1.792176	-0.466231	-1.063363
O26	O	2.292176	0.033769	-0.563363
O27	O	1.568113	-0.500286	-0.844186
O28	O	2.068113	-0.000286	-0.344186
O29	O	1.960095	-0.298375	-1.063424
O30	O	2.460095	0.201625	-0.563424
O31	O	1.904384	-0.687977	-0.729399
O32	O	2.404384	-0.187977	-0.229399
O33	O	1.760480	-0.687887	-0.873326
O34	O	2.260480	-0.187887	-0.373326
C35	C	1.520859	-0.433058	-0.757914
C36	C	2.020859	0.066942	-0.257914
C37	C	1.378939	-0.444720	-0.747929
C38	C	1.878939	0.055280	-0.247929
C39	C	1.829195	-0.733713	-0.804645
C40	C	2.329195	-0.233713	-0.304645
C41	C	1.819302	-0.873956	-0.814670
C42	C	2.319302	-0.373956	-0.314670
C43	C	2.185638	-0.378562	-0.804834
C44	C	2.685638	0.121438	-0.304834
C45	C	2.327559	-0.366928	-0.814851
C46	C	2.827559	0.133072	-0.314851
C47	C	1.880062	-0.378372	-1.110460
C48	C	2.380062	0.121628	-0.610460
C49	C	1.891765	-0.366657	-1.250716
C50	C	2.391765	0.133343	-0.750716
C51	C	1.876136	-0.076726	-0.757950
C52	C	2.376136	0.423274	-0.257950
C53	C	1.886165	0.063532	-0.747988
C54	C	2.386165	0.563532	-0.247988
C55	C	1.825327	-0.433149	-0.453476
C56	C	2.325327	0.066851	0.046524
C57	C	1.813897	-0.444489	-0.313212
C58	C	2.313897	0.055511	0.186788
H59	H	1.314355	-0.520238	-0.682995
H60	H	1.814355	-0.020238	-0.182995
H61	H	1.392150	-0.291398	-0.879781
H62	H	1.892150	0.208602	-0.379781
H63	H	1.950989	-0.882692	-0.683231
H64	H	2.450989	-0.382692	-0.183231
H65	H	1.967394	-0.291059	-1.304517
H66	H	2.467394	0.208941	-0.804517
H67	H	1.754493	-0.927725	-0.879433
H68	H	2.254493	-0.427725	-0.379433
H69	H	1.738281	-0.520089	-1.259418
H70	H	2.238281	-0.020089	-0.759418
