data_functionalizedCrystal
_audit_creation_method	'MofGen! by Chris Wilmer'
_symmetry_space_group_name_H-M	'P1'
_symmetry_Int_Tables_number	1
_symmetry_cell_setting	triclinic
loop_
_symmetry_equiv_pos_as_xyz
  x,y,z
_cell_length_a	12.759401
_cell_length_b	13.897448
_cell_length_c	12.759393
_cell_angle_alpha	90.032272
_cell_angle_beta	90.019802
_cell_angle_gamma	90.016778
loop_
_atom_site_label
_atom_site_type_symbol
_atom_site_fract_x
_atom_site_fract_y
_atom_site_fract_z
Zn1	Zn	1.606244	-0.383992	0.593975
Zn2	Zn	2.106244	0.116008	1.093975
Zn3	Zn	1.606126	-0.545318	0.418290
Zn4	Zn	2.106126	-0.045318	0.918290
Zn5	Zn	1.430543	-0.384036	0.418314
Zn6	Zn	1.930543	0.115964	0.918314
Zn7	Zn	1.430526	-0.545244	0.593931
Zn8	Zn	1.930526	-0.045244	1.093931
O9	O	1.518360	-0.464648	0.506127
O10	O	2.018360	0.035352	1.006127
O11	O	1.753250	-0.405405	0.570679
O12	O	2.253250	0.094595	1.070679
O13	O	1.582793	-0.523973	0.271272
O14	O	2.082793	-0.023973	0.771272
O15	O	1.453907	-0.249049	0.441644
O16	O	1.953907	0.250951	0.941644
O17	O	1.753163	-0.523930	0.441604
O18	O	2.253163	-0.023930	0.941604
O19	O	1.582994	-0.249016	0.570702
O20	O	2.082994	0.250984	1.070702
O21	O	1.453793	-0.405480	0.271290
O22	O	1.953793	0.094520	0.771290
O23	O	1.283520	-0.405408	0.441601
O24	O	1.783520	0.094592	0.941601
O25	O	1.453878	-0.523804	0.740958
O26	O	1.953878	-0.023804	1.240958
O27	O	1.283507	-0.523847	0.570626
O28	O	1.783507	-0.023847	1.070626
O29	O	1.582977	-0.405333	0.740990
O30	O	2.082977	0.094667	1.240990
O31	O	1.582776	-0.680290	0.441560
O32	O	2.082776	-0.180290	0.941560
O33	O	1.453763	-0.680235	0.570603
O34	O	1.953763	-0.180235	1.070603
C35	C	1.245393	-0.464625	0.506112
C36	C	1.745393	0.035375	1.006112
C37	C	1.128616	-0.464639	0.506130
C38	C	1.628616	0.035361	1.006130
C39	C	0.964063	-0.403056	0.573451
C40	C	1.464063	0.096944	1.073451
C41	C	1.073787	-0.403037	0.573444
C42	C	1.573787	0.096963	1.073444
C43	C	1.073716	-0.526270	0.438827
C44	C	1.573716	-0.026270	0.938827
C45	C	0.963993	-0.526293	0.438840
C46	C	1.463993	-0.026293	0.938840
C47	C	1.518283	-0.715262	0.506097
C48	C	2.018283	-0.215262	1.006097
C49	C	1.518347	-0.822476	0.506119
C50	C	2.018347	-0.322476	1.006119
C51	C	1.518457	-1.018771	0.506185
C52	C	2.018457	-0.518771	1.006185
C53	C	1.518393	-0.909538	0.506152
C54	C	2.018393	-0.409538	1.006152
C55	C	1.792393	-0.464671	0.506144
C56	C	2.292393	0.035329	1.006144
C57	C	1.909170	-0.464681	0.506150
C58	C	2.409170	0.035319	1.006150
C59	C	1.518439	-0.464555	0.780161
C60	C	2.018439	0.035445	1.280161
C61	C	1.518472	-0.464515	0.896938
C62	C	2.018472	0.035485	1.396938
C63	C	1.518466	-0.213055	0.506181
C64	C	2.018466	0.286945	1.006181
C65	C	1.518511	-0.105841	0.506204
C66	C	2.018511	0.394159	1.006204
C67	C	1.518342	-0.464670	0.233160
C68	C	2.018342	0.035330	0.733160
C69	C	1.518512	-0.464438	0.116384
C70	C	2.018512	0.035562	0.616384
C71	C	1.585699	-0.402818	0.951818
C72	C	2.085699	0.097182	1.451818
C73	C	1.585717	-0.402776	1.061543
C74	C	2.085717	0.097224	1.561543
C75	C	1.451278	-0.526138	1.061496
C76	C	1.951278	-0.026138	1.561496
C77	C	1.451255	-0.526174	0.951773
C78	C	1.951255	-0.026174	1.451773
H79	H	0.919299	-0.576481	0.384035
H80	H	1.419299	-0.076481	0.884035
H81	H	1.640459	-0.352534	1.106222
H82	H	2.140459	0.147466	1.606222
H83	H	1.640429	-0.352608	0.907174
H84	H	2.140429	0.147392	1.407174
H85	H	1.396503	-0.576415	0.907088
H86	H	1.896503	-0.076415	1.407088
N87	N	1.132994	-0.336575	0.646036
N88	N	1.632994	0.163425	1.146036
H89	H	1.081611	-0.297551	0.688676
H90	H	1.581611	0.202449	1.188676
H91	H	1.178506	-0.291881	0.603352
H92	H	1.678506	0.208119	1.103352
H93	H	1.396554	-0.576341	1.106156
H94	H	1.896554	-0.076341	1.606156
H95	H	0.919429	-0.352887	0.628259
H96	H	1.419429	0.147113	1.128259
N97	N	1.132843	-0.592713	0.366219
N98	N	1.632843	-0.092713	0.866219
H99	H	1.178388	-0.637450	0.408820
H100	H	1.678388	-0.137450	0.908820
H101	H	1.178282	-0.553377	0.317615
H102	H	1.678282	-0.053377	0.817615
