data_functionalizedCrystal
_audit_creation_method	'MofGen! by Chris Wilmer'
_symmetry_space_group_name_H-M	'P1'
_symmetry_Int_Tables_number	1
_symmetry_cell_setting	triclinic
loop_
_symmetry_equiv_pos_as_xyz
  x,y,z
_cell_length_a	29.839133
_cell_length_b	18.050591
_cell_length_c	18.050582
_cell_angle_alpha	89.979078
_cell_angle_beta	90.015179
_cell_angle_gamma	89.974391
loop_
_atom_site_label
_atom_site_type_symbol
_atom_site_fract_x
_atom_site_fract_y
_atom_site_fract_z
Zn1	Zn	-0.178930	-1.135285	0.420070
Zn2	Zn	0.154404	-0.801952	0.753403
Zn3	Zn	0.487737	-0.468619	1.086736
Zn4	Zn	-0.254052	-1.135193	0.295896
Zn5	Zn	0.079281	-0.801860	0.629229
Zn6	Zn	0.412615	-0.468526	0.962562
Zn7	Zn	-0.178931	-1.011105	0.295881
Zn8	Zn	0.154402	-0.677771	0.629214
Zn9	Zn	0.487735	-0.344438	0.962547
Zn10	Zn	-0.254028	-1.011050	0.420031
Zn11	Zn	0.079305	-0.677716	0.753364
Zn12	Zn	0.412639	-0.344383	1.086698
O13	O	-0.216485	-1.073158	0.357969
O14	O	0.116848	-0.739825	0.691303
O15	O	0.450181	-0.406492	1.024636
O16	O	-0.188904	-1.239198	0.403620
O17	O	0.144429	-0.905864	0.736953
O18	O	0.477763	-0.572531	1.070287
O19	O	-0.244098	-1.118717	0.191969
O20	O	0.089236	-0.785384	0.525302
O21	O	0.422569	-0.452050	0.858636
O22	O	-0.116064	-1.027639	0.312364
O23	O	0.217269	-0.694306	0.645698
O24	O	0.550603	-0.360972	0.979031
O25	O	-0.244096	-1.239130	0.312390
O26	O	0.089237	-0.905797	0.645723
O27	O	0.422571	-0.572463	0.979057
O28	O	-0.116063	-1.118874	0.403606
O29	O	0.217271	-0.785541	0.736939
O30	O	0.550604	-0.452208	1.070272
O31	O	-0.188907	-1.027550	0.191958
O32	O	0.144426	-0.694216	0.525291
O33	O	0.477760	-0.360883	0.858625
O34	O	-0.188884	-0.907173	0.312327
O35	O	0.144449	-0.573839	0.645660
O36	O	0.477783	-0.240506	0.978994
O37	O	-0.244055	-1.027545	0.523961
O38	O	0.089278	-0.694212	0.857294
O39	O	0.422611	-0.360879	1.190627
O40	O	-0.244057	-0.907132	0.403540
O41	O	0.089276	-0.573799	0.736873
O42	O	0.422609	-0.240466	1.070207
O43	O	-0.188881	-1.118821	0.523989
O44	O	0.144452	-0.785488	0.857322
O45	O	0.477786	-0.452154	1.190656
O46	O	-0.316916	-1.118664	0.312353
O47	O	0.016417	-0.785330	0.645686
O48	O	0.349751	-0.451997	0.979019
O49	O	-0.316898	-1.027456	0.403554
O50	O	0.016435	-0.694123	0.736888
O51	O	0.349768	-0.360789	1.070221
C52	C	-0.216469	-0.880206	0.357928
C53	C	0.116865	-0.546873	0.691261
C54	C	0.450198	-0.213539	1.024595
C55	C	-0.216472	-0.797660	0.357928
C56	C	0.116861	-0.464327	0.691262
C57	C	0.450194	-0.130994	1.024595
C58	C	-0.216465	-1.073187	0.551675
C59	C	0.116868	-0.739854	0.885008
C60	C	0.450201	-0.406521	1.218342
C61	C	-0.216457	-1.073200	0.634221
C62	C	0.116876	-0.739866	0.967554
C63	C	0.450210	-0.406533	1.300887
C64	C	-0.333208	-1.073064	0.357967
C65	C	0.000125	-0.739731	0.691300
C66	C	0.333459	-0.406397	1.024634
C67	C	-0.383142	-1.073091	0.357991
C68	C	-0.049809	-0.739758	0.691324
C69	C	0.283524	-0.406425	1.024658
C70	C	-0.739694	-1.120692	0.405533
C71	C	-0.406360	-0.787358	0.738866
C72	C	-0.073027	-0.454025	1.072200
C73	C	-0.552021	-1.120621	0.405532
C74	C	-0.218687	-0.787288	0.738865
C75	C	0.114646	-0.453955	1.072199
O76	O	-0.527726	-1.160996	0.445943
O77	O	-0.194393	-0.827663	0.779276
O78	O	0.138941	-0.494330	1.112610
N79	N	-0.528587	-1.073150	0.357989
N80	N	-0.195254	-0.739817	0.691323
N81	N	0.138079	-0.406483	1.024656
C82	C	-0.552075	-1.025697	0.310440
C83	C	-0.218742	-0.692363	0.643773
C84	C	0.114591	-0.359030	0.977107
O85	O	-0.527838	-0.985323	0.269996
O86	O	-0.194504	-0.651990	0.603330
O87	O	0.138829	-0.318657	0.936663
C88	C	-0.739747	-1.025771	0.310438
C89	C	-0.406414	-0.692438	0.643771
C90	C	-0.073081	-0.359105	0.977104
C91	C	-0.763178	-1.073240	0.357989
C92	C	-0.429845	-0.739907	0.691322
C93	C	-0.096512	-0.406573	1.024655
C94	C	-0.763125	-1.168157	0.453080
C95	C	-0.429791	-0.834824	0.786413
C96	C	-0.096458	-0.501490	1.119746
C97	C	-0.810040	-1.168171	0.453082
C98	C	-0.476707	-0.834838	0.786416
C99	C	-0.143373	-0.501505	1.119749
C100	C	-0.833525	-1.120720	0.405538
C101	C	-0.500191	-0.787387	0.738871
C102	C	-0.166858	-0.454053	1.072205
C103	C	-0.810094	-1.073254	0.357991
C104	C	-0.476760	-0.739921	0.691325
C105	C	-0.143427	-0.406588	1.024658
C106	C	-0.763234	-0.978322	0.262885
C107	C	-0.429901	-0.644989	0.596218
C108	C	-0.096568	-0.311655	0.929552
C109	C	-0.810155	-0.978346	0.262887
C110	C	-0.476822	-0.645013	0.596221
C111	C	-0.143489	-0.311680	0.929554
C112	C	-0.833586	-1.025815	0.310439
C113	C	-0.500253	-0.692482	0.643772
C114	C	-0.166920	-0.359149	0.977105
C115	C	-0.880494	-1.025817	0.310450
C116	C	-0.547160	-0.692484	0.643783
C117	C	-0.213827	-0.359151	0.977117
N118	N	-0.903927	-1.073288	0.357993
N119	N	-0.570594	-0.739955	0.691326
N120	N	-0.237260	-0.406622	1.024659
C121	C	-0.880443	-1.120740	0.405537
C122	C	-0.547109	-0.787406	0.738870
C123	C	-0.213776	-0.454073	1.072203
C124	C	-0.453545	-1.025660	0.310445
C125	C	-0.120211	-0.692326	0.643779
C126	C	0.213122	-0.358993	0.977112
C127	C	-0.406627	-1.025640	0.310447
C128	C	-0.073293	-0.692307	0.643780
C129	C	0.260040	-0.358973	0.977114
C130	C	-0.406576	-1.120566	0.405538
C131	C	-0.073242	-0.787233	0.738872
C132	C	0.260091	-0.453899	1.072205
C133	C	-0.453494	-1.120581	0.405540
C134	C	-0.120161	-0.787248	0.738873
C135	C	0.213172	-0.453915	1.072207
C136	C	-0.476978	-1.073131	0.357988
C137	C	-0.143645	-0.739798	0.691322
C138	C	0.189689	-0.406464	1.024655
C139	C	-0.978968	-1.120766	0.405539
C140	C	-0.645635	-0.787432	0.738872
C141	C	-0.312302	-0.454099	1.072206
C142	C	-1.025888	-1.120773	0.405540
C143	C	-0.692555	-0.787440	0.738873
C144	C	-0.359221	-0.454107	1.072206
C145	C	-1.025935	-1.025851	0.310446
C146	C	-0.692602	-0.692517	0.643779
C147	C	-0.359269	-0.359184	0.977113
C148	C	-0.979020	-1.025840	0.310448
C149	C	-0.645686	-0.692506	0.643781
C150	C	-0.312353	-0.359173	0.977114
C151	C	-0.955537	-1.073303	0.357997
C152	C	-0.622204	-0.739970	0.691330
C153	C	-0.288871	-0.406637	1.024663
O154	O	-0.904818	-0.985469	0.270054
O155	O	-0.571484	-0.652136	0.603388
O156	O	-0.238151	-0.318803	0.936721
O157	O	-0.904688	-1.161119	0.445963
O158	O	-0.571355	-0.827785	0.779296
O159	O	-0.238022	-0.494452	1.112629
C160	C	-0.692778	-1.120677	0.405530
C161	C	-0.359445	-0.787344	0.738864
C162	C	-0.026112	-0.454011	1.072197
C163	C	-0.669347	-1.073212	0.357984
C164	C	-0.336014	-0.739878	0.691317
C165	C	-0.002681	-0.406545	1.024650
C166	C	-0.692832	-1.025760	0.310439
C167	C	-0.359499	-0.692427	0.643773
C168	C	-0.026165	-0.359094	0.977106
C169	C	-0.622430	-1.073192	0.357985
C170	C	-0.289096	-0.739859	0.691318
C171	C	0.044237	-0.406525	1.024652
C172	C	-0.598945	-1.120643	0.405529
C173	C	-0.265612	-0.787310	0.738862
C174	C	0.067722	-0.453977	1.072196
C175	C	-0.622378	-1.168114	0.453072
C176	C	-0.289045	-0.834781	0.786405
C177	C	0.044288	-0.501448	1.119739
C178	C	-0.669294	-1.168129	0.453074
C179	C	-0.335960	-0.834795	0.786408
C180	C	-0.002627	-0.501462	1.119741
C181	C	-0.669399	-0.978289	0.262897
C182	C	-0.336065	-0.644956	0.596230
C183	C	-0.002732	-0.311623	0.929563
C184	C	-0.622483	-0.978278	0.262899
C185	C	-0.289150	-0.644945	0.596232
C186	C	0.044184	-0.311612	0.929565
C187	C	-0.598999	-1.025730	0.310443
C188	C	-0.265665	-0.692396	0.643776
C189	C	0.067668	-0.359063	0.977109
C190	C	-0.099307	-1.073273	0.357988
C191	C	0.234026	-0.739940	0.691321
C192	C	0.567360	-0.406606	1.024654
C193	C	-0.049373	-1.073322	0.357995
C194	C	0.283961	-0.739989	0.691329
C195	C	0.617294	-0.406655	1.024662
C196	C	-0.216502	-1.266864	0.358011
C197	C	0.116831	-0.933530	0.691344
C198	C	0.450164	-0.600197	1.024678
C199	C	-0.216510	-1.349410	0.358029
C200	C	0.116824	-1.016076	0.691362
C201	C	0.450157	-0.682743	1.024695
C202	C	-0.186434	-0.598210	0.308441
C203	C	0.146899	-0.264877	0.641774
C204	C	0.480232	0.068457	0.975108
C205	C	-0.227410	-0.548789	0.290174
C206	C	0.105924	-0.215455	0.623507
C207	C	0.439257	0.117878	0.956840
C208	C	-0.216486	-0.646530	0.357962
C209	C	0.116847	-0.313197	0.691295
C210	C	0.450181	0.020137	1.024628
C211	C	-0.175525	-0.548870	0.376227
C212	C	0.157809	-0.215536	0.709561
C213	C	0.491142	0.117797	1.042894
C214	C	-0.216495	-0.500545	0.357993
C215	C	0.116838	-0.167211	0.691326
C216	C	0.450171	0.166122	1.024659
C217	C	-0.257483	-0.598196	0.339659
C218	C	0.075850	-0.264862	0.672992
C219	C	0.409184	0.068471	1.006326
C220	C	-0.205570	-0.598281	0.425744
C221	C	0.127763	-0.264948	0.759078
C222	C	0.461097	0.068386	1.092411
C223	C	-0.246574	-0.548882	0.407503
C224	C	0.086759	-0.215549	0.740836
C225	C	0.420093	0.117785	1.074169
C226	C	-0.216480	-0.730628	0.357942
C227	C	0.116854	-0.397295	0.691275
C228	C	0.450187	-0.063962	1.024609
C229	C	-0.216506	-0.416448	0.358013
C230	C	0.116827	-0.083115	0.691346
C231	C	0.450161	0.250218	1.024679
C232	C	-0.216473	-1.073172	0.165017
C233	C	0.116861	-0.739839	0.498350
C234	C	0.450194	-0.406505	0.831684
C235	C	-0.216355	-1.073303	0.082472
C236	C	0.116979	-0.739970	0.415805
C237	C	0.450312	-0.406637	0.749138
C238	C	-0.246420	-1.023602	0.833656
C239	C	0.086914	-0.690269	1.166989
C240	C	0.420247	-0.356935	1.500323
C241	C	-0.257404	-1.091357	0.883057
C242	C	0.075929	-0.758024	1.216390
C243	C	0.409262	-0.424690	1.549724
C244	C	-0.216423	-1.073236	0.785351
C245	C	0.116911	-0.739903	1.118685
C246	C	0.450244	-0.406570	1.452018
C247	C	-0.205426	-1.005519	0.883032
C248	C	0.127908	-0.672185	1.216366
C249	C	0.461241	-0.338852	1.549699
C250	C	-0.216390	-1.073266	0.931336
C251	C	0.116943	-0.739932	1.264670
C252	C	0.450276	-0.406599	1.598003
C253	C	-0.227429	-1.141027	0.833665
C254	C	0.105905	-0.807693	1.166998
C255	C	0.439238	-0.474360	1.500331
C256	C	-0.175431	-1.055143	0.833636
C257	C	0.157902	-0.721810	1.166969
C258	C	0.491236	-0.388476	1.500302
C259	C	-0.186400	-1.122944	0.883014
C260	C	0.146934	-0.789611	1.216347
C261	C	0.480267	-0.456278	1.549681
C262	C	-0.216442	-1.073218	0.701253
C263	C	0.116891	-0.739885	1.034586
C264	C	0.450224	-0.406552	1.367920
C265	C	-0.216371	-1.073291	1.015433
C266	C	0.116963	-0.739958	1.348766
C267	C	0.450296	-0.406625	1.682100
H268	H	-1.044963	-1.159427	0.444266
H269	H	-0.711630	-0.826094	0.777599
H270	H	-0.378297	-0.492760	1.110933
H271	H	-0.603409	-0.939617	0.224178
H272	H	-0.270076	-0.606283	0.557512
H273	H	0.063258	-0.272950	0.890845
F274	F	-0.302779	-0.626396	0.319396
F275	F	0.030554	-0.293062	0.652730
F276	F	0.363888	0.040271	0.986063
H277	H	-0.161018	-1.164980	0.904549
H278	H	0.172315	-0.831646	1.237883
H279	H	0.505648	-0.498313	1.571216
H280	H	-0.236756	-1.198324	0.812070
H281	H	0.096578	-0.864990	1.145404
H282	H	0.429911	-0.531657	1.478737
F283	F	-0.279834	-0.520748	0.462259
F284	F	0.053500	-0.187415	0.795592
F285	F	0.386833	0.145918	1.128925
H286	H	-0.472661	-0.987018	0.271721
H287	H	-0.139328	-0.653684	0.605054
H288	H	0.194006	-0.320351	0.938388
F289	F	-0.193478	-0.626716	0.500631
F290	F	0.139855	-0.293383	0.833964
F291	F	0.473189	0.039950	1.167298
F292	F	-0.130151	-1.035091	0.805238
F293	F	0.203183	-0.701758	1.138572
F294	F	0.536516	-0.368425	1.471905
F295	F	-0.381695	-0.975106	0.259847
F296	F	-0.048362	-0.641773	0.593181
F297	F	0.284972	-0.308440	0.926514
H298	H	-0.959942	-0.987179	0.271735
H299	H	-0.626609	-0.653845	0.605068
H300	H	-0.293275	-0.320512	0.938402
H301	H	-0.292056	-1.106678	0.904765
H302	H	0.041277	-0.773345	1.238098
H303	H	0.374610	-0.440012	1.571432
H304	H	-0.744164	-0.939669	0.224164
H305	H	-0.410830	-0.606336	0.557498
H306	H	-0.077497	-0.273002	0.890831
F307	F	-0.153252	-0.626522	0.253646
F308	F	0.180081	-0.293188	0.586980
F309	F	0.513414	0.040145	0.920313
F310	F	-0.193285	-0.930650	0.911378
F311	F	0.140048	-0.597317	1.244711
F312	F	0.473381	-0.263984	1.578044
H313	H	-0.271821	-0.981667	0.811985
H314	H	0.061513	-0.648334	1.145318
H315	H	0.394846	-0.315001	1.478651
F316	F	-0.953983	-1.171282	0.456146
F317	F	-0.620650	-0.837948	0.789479
F318	F	-0.287317	-0.504615	1.122813
H319	H	-0.829273	-0.939706	0.224163
H320	H	-0.495940	-0.606373	0.557497
H321	H	-0.162607	-0.273040	0.890830
F322	F	-0.130243	-0.520543	0.396402
F323	F	0.203091	-0.187210	0.729735
F324	F	0.536424	0.146123	1.063069
F325	F	-1.050937	-0.975347	0.259854
F326	F	-0.717604	-0.642014	0.593187
F327	F	-0.384271	-0.308680	0.926520
F328	F	-0.694225	-1.218651	0.503687
F329	F	-0.360892	-0.885318	0.837020
F330	F	-0.027558	-0.551984	1.170353
H331	H	-0.829113	-1.206831	0.491798
H332	H	-0.495780	-0.873498	0.825131
H333	H	-0.162447	-0.540164	1.158465
F334	F	-0.478427	-1.171105	0.456148
F335	F	-0.145094	-0.837772	0.789482
F336	F	0.188240	-0.504438	1.122815
F337	F	-0.738138	-1.218667	0.503687
F338	F	-0.404804	-0.885333	0.837020
F339	F	-0.071471	-0.552000	1.170353
F340	F	-0.239487	-0.520374	0.215268
F341	F	0.093846	-0.187040	0.548601
F342	F	0.427179	0.146293	0.881934
F343	F	-0.381574	-1.171069	0.456137
F344	F	-0.048240	-0.837736	0.789470
F345	F	0.285093	-0.504402	1.122804
H346	H	-0.603250	-1.206749	0.491787
H347	H	-0.269916	-0.873415	0.825120
H348	H	0.063417	-0.540082	1.158454
F349	F	-0.694386	-0.927782	0.212291
F350	F	-0.361053	-0.594448	0.545625
F351	F	-0.027720	-0.261115	0.878958
