data_functionalizedCrystal
_audit_creation_method	'MofGen! by Chris Wilmer'
_symmetry_space_group_name_H-M	'P1'
_symmetry_Int_Tables_number	1
_symmetry_cell_setting	triclinic
loop_
_symmetry_equiv_pos_as_xyz
  x,y,z
_cell_length_a	13.032891
_cell_length_b	13.031981
_cell_length_c	19.805399
_cell_angle_alpha	82.790122
_cell_angle_beta	82.810359
_cell_angle_gamma	89.102963
loop_
_atom_site_label
_atom_site_type_symbol
_atom_site_fract_x
_atom_site_fract_y
_atom_site_fract_z
Zn1	Zn	1.520306	-0.609526	-0.457368
Zn2	Zn	1.498373	-0.781523	-0.328224
Zn3	Zn	1.348325	-0.587678	-0.331872
Zn4	Zn	1.326475	-0.759601	-0.429063
O5	O	1.423370	-0.684582	-0.386632
O6	O	1.661312	-0.650660	-0.450556
O7	O	1.478433	-0.755840	-0.233986
O8	O	1.389462	-0.446644	-0.361892
O9	O	1.645197	-0.777026	-0.355675
O10	O	1.515816	-0.462696	-0.454093
O11	O	1.368193	-0.613423	-0.236666
O12	O	1.201511	-0.592166	-0.334445
O13	O	1.352223	-0.739663	-0.527540
O14	O	1.185459	-0.718477	-0.405851
O15	O	1.494630	-0.629403	-0.548335
O16	O	1.457247	-0.922548	-0.328228
O17	O	1.330954	-0.906442	-0.402314
C18	C	1.156170	-0.650573	-0.367473
C19	C	1.041857	-0.636048	-0.359290
C20	C	0.864817	-0.677157	-0.382451
C21	C	0.982964	-0.692174	-0.390906
C22	C	1.389377	-0.951818	-0.361821
C23	C	1.374929	-1.066155	-0.351236
C24	C	1.430965	-1.124983	-0.392174
C25	C	1.416033	-1.243156	-0.381234
C26	C	1.691613	-0.718725	-0.405866
C27	C	1.805922	-0.733275	-0.414062
C28	C	1.423436	-0.684525	-0.563185
C29	C	1.423464	-0.684500	-0.638421
C30	C	1.457523	-0.416306	-0.411557
C31	C	1.472077	-0.301983	-0.422178
C32	C	1.497617	-0.627085	-0.684595
C33	C	1.497631	-0.627056	-0.755287
C34	C	1.423496	-0.684450	-0.779803
C35	C	1.349335	-0.741867	-0.733624
C36	C	1.349317	-0.741889	-0.662933
C37	C	1.349405	-0.741779	-1.018710
C38	C	1.349431	-0.741755	-1.089406
C39	C	1.497719	-0.626946	-1.111064
C40	C	1.497701	-0.626968	-1.040374
C41	C	1.423538	-0.684381	-0.994200
C42	C	1.423522	-0.684409	-0.917548
C43	C	1.423516	-0.684428	-0.856454
C44	C	1.423373	-0.684573	-0.210777
C45	C	1.423581	-0.684333	-0.135582
H46	H	1.020006	-0.751335	-0.424235
C47	C	1.678252	-0.599005	-1.149982
C48	C	1.579236	-0.563826	-1.161822
H49	H	1.728574	-0.560043	-1.181320
H50	H	1.688844	-0.590803	-1.104379
H51	H	1.684491	-0.670024	-1.156231
H52	H	1.572994	-0.492808	-1.155568
H53	H	1.568640	-0.572019	-1.207437
H54	H	1.531106	-1.264867	-0.465331
C55	C	0.884494	-0.556805	-0.314592
C56	C	0.991860	-0.556208	-0.314274
H57	H	0.853628	-0.507530	-0.286790
H58	H	0.868865	-0.539593	-0.360219
H59	H	0.858174	-0.623696	-0.296971
H60	H	1.018181	-0.489318	-0.331899
H61	H	1.007497	-0.573413	-0.268638
H62	H	1.315896	-1.103276	-0.308092
H63	H	1.557989	-0.580352	-0.664640
C64	C	1.317452	-0.878379	-0.799236
C65	C	1.267843	-0.804956	-0.760570
H66	H	1.267140	-0.917333	-0.815866
H67	H	1.361608	-0.844181	-0.836851
H68	H	1.357239	-0.923430	-0.771210
H69	H	1.228061	-0.759901	-0.788598
H70	H	1.223669	-0.839157	-0.722950
C71	C	1.237715	-1.254472	-0.332609
C72	C	1.336337	-1.293253	-0.322984
H73	H	1.188516	-1.285406	-0.296650
H74	H	1.237302	-1.181640	-0.332315
H75	H	1.220437	-1.270086	-0.375388
H76	H	1.353618	-1.277632	-0.280207
H77	H	1.336753	-1.366101	-0.323271
H78	H	0.842969	-0.792432	-0.447389
H79	H	1.288925	-0.788631	-0.625338
C80	C	1.644223	-0.513591	-0.769594
C81	C	1.579149	-0.563951	-0.806042
H82	H	1.694554	-0.474637	-0.800929
H83	H	1.604422	-0.468551	-0.742465
H84	H	1.677840	-0.563436	-0.740678
H85	H	1.545527	-0.514106	-0.834954
H86	H	1.618956	-0.608995	-0.833183
C87	C	1.510025	-0.967513	-0.449982
C88	C	1.510657	-1.074882	-0.450422
H89	H	1.559230	-0.936588	-0.485941
H90	H	1.443120	-0.941221	-0.456507
H91	H	1.527314	-0.951915	-0.407203
H92	H	1.493360	-1.090480	-0.493199
H93	H	1.577576	-1.101183	-0.443902
H94	H	1.558073	-0.580236	-1.020417
C95	C	1.202823	-0.855230	-1.060901
C96	C	1.267928	-0.804837	-1.116356
H97	H	1.152508	-0.894167	-1.077541
H98	H	1.242606	-0.900290	-1.032888
H99	H	1.169189	-0.805404	-1.034671
H100	H	1.301568	-0.854664	-1.142583
H101	H	1.228140	-0.759774	-1.144380
C102	C	1.283520	-0.792794	-0.900735
C103	C	1.267893	-0.804893	-0.967962
H104	H	1.233191	-0.831757	-0.869404
H105	H	1.350690	-0.816645	-0.892710
H106	H	1.277258	-0.721771	-0.894498
H107	H	1.274162	-0.875915	-0.974201
H108	H	1.200705	-0.781047	-0.975990
H109	H	0.827771	-0.617991	-0.349130
