data_functionalizedCrystal
_audit_creation_method	'MofGen! by Chris Wilmer'
_symmetry_space_group_name_H-M	'P1'
_symmetry_Int_Tables_number	1
_symmetry_cell_setting	triclinic
loop_
_symmetry_equiv_pos_as_xyz
  x,y,z
_cell_length_a	19.077105
_cell_length_b	18.050589
_cell_length_c	19.076919
_cell_angle_alpha	87.724745
_cell_angle_beta	89.923776
_cell_angle_gamma	87.724731
loop_
_atom_site_label
_atom_site_type_symbol
_atom_site_fract_x
_atom_site_fract_y
_atom_site_fract_z
Zn1	Zn	1.058247	-0.359281	0.440438
Zn2	Zn	1.062879	-0.478689	0.322938
Zn3	Zn	0.945466	-0.349333	0.318231
Zn4	Zn	0.940701	-0.478241	0.435691
O5	O	1.001823	-0.416386	0.379325
O6	O	1.157193	-0.379472	0.428809
O7	O	1.051237	-0.457554	0.223983
O8	O	0.960482	-0.246731	0.334459
O9	O	1.160596	-0.467201	0.342482
O10	O	1.043342	-0.254040	0.424244
O11	O	0.964973	-0.362516	0.220524
O12	O	0.846502	-0.362082	0.329856
O13	O	0.952361	-0.466437	0.534652
O14	O	0.843002	-0.456790	0.416153
O15	O	1.038722	-0.379038	0.538140
O16	O	1.046617	-0.582551	0.337879
O17	O	0.956853	-0.582222	0.420717
C18	C	0.819256	-0.408308	0.371979
C19	C	0.741152	-0.404871	0.368853
C20	C	1.001739	-0.609334	0.379310
C21	C	1.001766	-0.691882	0.379329
C22	C	0.702657	-0.452635	0.412244
C23	C	0.629270	-0.449396	0.409310
C24	C	0.594379	-0.398396	0.362981
C25	C	0.632879	-0.350627	0.319588
C26	C	0.706264	-0.353863	0.322526
C27	C	0.375093	-0.383419	0.349388
C28	C	0.301702	-0.380188	0.346452
C29	C	0.298098	-0.478956	0.436175
C30	C	0.371485	-0.482191	0.439105
C31	C	0.409979	-0.434419	0.395715
N32	N	0.519366	-0.395085	0.359980
N33	N	0.484990	-0.437727	0.398721
C34	C	0.952999	-0.891182	0.424363
C35	C	0.938449	-0.937256	0.359556
C36	C	1.001835	-0.843016	0.379341
C37	C	1.016419	-0.944025	0.444157
C38	C	1.001900	-0.989004	0.379358
C39	C	0.987253	-0.887999	0.314499
C40	C	1.065250	-0.894768	0.399145
C41	C	1.050726	-0.940818	0.334295
C42	C	1.001796	-0.758915	0.379332
C43	C	1.001939	-1.073102	0.379360
C44	C	1.185104	-0.424496	0.386700
C45	C	1.263207	-0.427952	0.389843
C46	C	0.994493	-0.423797	0.562605
C47	C	0.991370	-0.426955	0.640709
C48	C	1.001926	-0.222686	0.379356
C49	C	1.001970	-0.140143	0.379369
C50	C	1.009165	-0.408952	0.196759
C51	C	1.012425	-0.405591	0.118661
C52	C	1.034863	-0.382937	0.679219
C53	C	1.031920	-0.385901	0.752605
C54	C	0.985486	-0.432888	0.787479
C55	C	0.941988	-0.476908	0.748964
C56	C	0.944928	-0.473940	0.675579
C57	C	0.971867	-0.446642	1.006761
C58	C	0.968931	-0.449609	1.080151
C59	C	1.058863	-0.358601	1.083787
C60	C	1.061802	-0.355639	1.010401
C61	C	1.018301	-0.399657	0.971892
N62	N	0.982478	-0.435921	0.862492
N63	N	1.021307	-0.396619	0.896881
H64	H	0.597931	-0.488291	0.444643
N65	N	1.082284	-0.334928	0.643598
N66	N	1.059224	-0.284854	0.601663
H67	H	1.092714	-0.250943	0.576507
N68	N	1.109229	-0.307649	0.974764
N69	N	1.155628	-0.334105	0.935612
H70	H	1.189125	-0.300214	0.910441
N71	N	1.132472	-0.871197	0.420182
N72	N	1.156270	-0.890459	0.479437
H73	H	1.203746	-0.873812	0.494303
N74	N	1.031852	-0.974759	0.512912
N75	N	0.992443	-0.959407	0.563131
H76	H	1.003336	-0.981111	0.611691
H77	H	0.911645	-0.869387	0.462377
H78	H	0.936456	-0.482496	0.975416
N79	N	0.900502	-0.518894	0.636228
N80	N	0.857382	-0.489123	0.593479
H81	H	0.826002	-0.520870	0.565686
N82	N	1.102564	-0.968001	0.286487
N83	N	1.111317	-1.036239	0.279077
H84	H	1.147924	-1.055440	0.245311
H85	H	1.067339	-0.350058	0.783957
N86	N	1.103291	-0.313647	1.123134
N87	N	1.100663	-0.316302	1.188655
H88	H	1.132041	-0.284550	1.216445
N89	N	0.745577	-0.305062	0.278205
N90	N	0.714418	-0.259526	0.236845
H91	H	0.742182	-0.225054	0.205545
H92	H	0.731060	-0.494167	0.449968
N93	N	0.871217	-0.960829	0.338538
N94	N	0.865749	-0.997970	0.285031
H95	H	0.818265	-1.014617	0.270190
H96	H	0.931117	-0.487874	1.108544
H97	H	0.904177	-0.515163	0.777365
N98	N	0.266049	-0.328088	0.299135
N99	N	0.200527	-0.325211	0.296520
H100	H	0.175345	-0.288419	0.263104
N101	N	0.407112	-0.534293	0.486432
N102	N	0.372733	-0.576936	0.525171
H103	H	0.397894	-0.613736	0.558595
N104	N	0.597242	-0.298541	0.272254
N105	N	0.608018	-0.301100	0.207735
H106	H	0.582851	-0.264314	0.174302
H107	H	0.406425	-0.344525	0.314051
H108	H	0.974881	-0.863588	0.259675
H109	H	0.266749	-0.517848	0.471502
