data_functionalizedCrystal
_audit_creation_method	'MofGen! by Chris Wilmer'
_symmetry_space_group_name_H-M	'P1'
_symmetry_Int_Tables_number	1
_symmetry_cell_setting	triclinic
loop_
_symmetry_equiv_pos_as_xyz
  x,y,z
_cell_length_a	9.065215
_cell_length_b	14.519709
_cell_length_c	7.540329
_cell_angle_alpha	89.995460
_cell_angle_beta	89.997574
_cell_angle_gamma	84.347421
loop_
_atom_site_label
_atom_site_type_symbol
_atom_site_fract_x
_atom_site_fract_y
_atom_site_fract_z
O1	O	1.957867	0.135213	-0.147466
O2	O	2.457867	0.635213	0.352534
O3	O	1.528374	0.146307	-0.147475
O4	O	2.028374	0.646307	0.352525
O5	O	1.754508	0.006605	-0.147454
O6	O	2.254508	0.506605	0.352546
O7	O	1.731733	0.274915	-0.147487
O8	O	2.231733	0.774915	0.352513
O9	O	1.754494	0.006603	0.147511
O10	O	2.254494	0.506603	0.647511
O11	O	1.528360	0.146305	0.147490
O12	O	2.028360	0.646305	0.647490
O13	O	1.957853	0.135211	0.147499
O14	O	2.457853	0.635211	0.647499
Cu15	Cu	1.743106	0.140758	0.174427
Cu16	Cu	2.243106	0.640758	0.674427
Cu17	Cu	1.743121	0.140760	-0.174403
Cu18	Cu	2.243121	0.640760	0.325597
O19	O	1.731719	0.274913	0.147478
O20	O	2.231719	0.774913	0.647478
C21	C	1.473400	0.145241	0.000007
C22	C	1.973400	0.645241	0.500007
C23	C	1.309617	0.142054	0.000004
C24	C	1.809617	0.642054	0.500004
C25	C	1.753439	-0.027764	0.000028
C26	C	2.253439	0.472236	0.500028
C27	C	1.750259	-0.130168	0.000029
C28	C	2.250259	0.369832	0.500029
C29	C	1.738550	-0.505150	-0.000017
C30	C	2.238550	-0.005150	0.499983
C31	C	1.741801	-0.400818	-0.000004
C32	C	2.241801	0.099182	0.499996
C33	C	1.744404	-0.317662	0.000008
C34	C	2.244404	0.182338	0.500008
C35	C	1.747656	-0.213324	0.000018
C36	C	2.247656	0.286676	0.500018
C37	C	2.012827	0.136277	0.000013
C38	C	2.512827	0.636277	0.500013
C39	C	2.176610	0.139464	0.000004
C40	C	2.676610	0.639464	0.500004
C41	C	1.732788	0.309282	-0.000008
C42	C	2.232788	0.809282	0.499992
C43	C	1.735968	0.411686	-0.000021
C44	C	2.235968	0.911686	0.499979
N45	N	1.743105	0.140756	0.419776
N46	N	2.243105	0.640756	0.919776
N47	N	1.743134	0.140755	-0.419752
N48	N	2.243134	0.640755	0.080248
