data_functionalizedCrystal
_audit_creation_method	'MofGen! by Chris Wilmer'
_symmetry_space_group_name_H-M	'P1'
_symmetry_Int_Tables_number	1
_symmetry_cell_setting	triclinic
loop_
_symmetry_equiv_pos_as_xyz
  x,y,z
_cell_length_a	14.750779
_cell_length_b	12.837943
_cell_length_c	12.837942
_cell_angle_alpha	85.171060
_cell_angle_beta	75.994324
_cell_angle_gamma	75.993872
loop_
_atom_site_label
_atom_site_type_symbol
_atom_site_fract_x
_atom_site_fract_y
_atom_site_fract_z
O1	O	-0.079808	-1.381860	0.292603
O2	O	-0.079814	-1.078725	0.279162
O3	O	-0.079805	-1.223572	0.134314
O4	O	-0.079817	-1.237012	0.437451
O5	O	0.079847	-1.264519	0.093373
O6	O	0.079839	-1.119672	0.238220
O7	O	0.079844	-1.422807	0.251662
Zn8	Zn	0.105190	-1.277740	0.238440
Zn9	Zn	-0.105159	-1.223791	0.292383
O10	O	0.079836	-1.277959	0.396509
C11	C	0.000012	-1.060129	0.254150
C12	C	0.000010	-0.943713	0.240606
N13	N	0.248748	-1.314567	0.201626
N14	N	-0.248717	-1.186972	0.329190
C15	C	0.600552	-1.084115	0.431960
C16	C	0.701053	-1.109930	0.406170
C17	C	0.701023	-1.238226	0.277963
C18	C	0.600521	-1.212419	0.303738
C19	C	0.550293	-1.135364	0.380738
C20	C	0.550261	-1.263668	0.252516
C21	C	0.449767	-1.237866	0.278294
C22	C	0.399533	-1.160816	0.355292
C23	C	0.449799	-1.109562	0.406515
C24	C	0.600491	-1.340728	0.175523
C25	C	0.550231	-1.391977	0.124301
C26	C	0.449736	-1.366170	0.150072
C27	C	0.399501	-1.289120	0.227071
C28	C	0.399469	-1.417424	0.098850
C29	C	0.298975	-1.391622	0.124627
C30	C	0.299007	-1.263319	0.252848
C31	C	0.000020	-1.239504	0.074774
C32	C	0.000019	-1.225959	-0.041640
C33	C	0.000017	-1.441402	0.276674
C34	C	0.000012	-1.557816	0.290220
C35	C	0.000017	-0.718841	0.403433
C36	C	0.000016	-0.609458	0.390712
C37	C	0.000013	-0.615565	0.202442
C38	C	0.000014	-0.724948	0.215163
C39	C	0.000015	-0.776581	0.315662
C40	C	0.000009	-0.885964	0.328384
C41	C	0.000013	-0.892071	0.140113
C42	C	0.000012	-0.782688	0.127392
C43	C	0.000002	-1.388784	-0.266510
C44	C	-0.000000	-1.376062	-0.375892
C45	C	0.000006	-1.187793	-0.369786
C46	C	0.000008	-1.200515	-0.260404
C47	C	0.000007	-1.301014	-0.208770
C48	C	0.000016	-1.313737	-0.099388
C49	C	0.000015	-1.125466	-0.093283
C50	C	0.000014	-1.112744	-0.202665
C51	C	0.000008	-1.262027	0.456049
C52	C	0.000003	-1.275570	0.572466
H53	H	0.258110	-1.200564	0.315541
H54	H	0.000091	-0.573526	0.120599
H55	H	0.258054	-1.433356	0.082917
H56	H	0.000022	-0.740635	0.045565
H57	H	0.741930	-1.300969	0.215272
F58	F	0.000006	-0.940915	0.435343
H59	H	0.000016	-0.760882	0.485264
H60	H	-0.000008	-1.447534	-0.422899
H61	H	0.682319	-1.361736	0.154542
F62	F	0.754536	-1.055377	0.460699
F63	F	-0.000017	-1.080837	-0.424750
F64	F	0.603696	-1.473986	0.042357
F65	F	-0.000002	-0.953527	0.046697
F66	F	0.452936	-1.499440	0.016913
F67	F	0.000007	-1.005790	-0.257627
F68	F	0.000021	-1.420697	-0.044439
F69	F	0.000021	-0.548011	0.484130
F70	F	0.000021	-1.495746	-0.211560
H71	H	0.317704	-1.139813	0.376283
F72	F	0.547094	-1.002093	0.513902
F73	F	0.396341	-1.027540	0.488457
F74	F	0.000031	-1.032051	-0.031827
