data_functionalizedCrystal
_audit_creation_method	'MofGen! by Chris Wilmer'
_symmetry_space_group_name_H-M	'P1'
_symmetry_Int_Tables_number	1
_symmetry_cell_setting	triclinic
loop_
_symmetry_equiv_pos_as_xyz
  x,y,z
_cell_length_a	14.971486
_cell_length_b	12.811415
_cell_length_c	14.048226
_cell_angle_alpha	84.562719
_cell_angle_beta	89.998499
_cell_angle_gamma	83.830191
loop_
_atom_site_label
_atom_site_type_symbol
_atom_site_fract_x
_atom_site_fract_y
_atom_site_fract_z
O1	O	1.187332	0.136784	-0.090857
O2	O	1.687332	0.636784	0.409143
O3	O	0.926978	0.153164	-0.092297
O4	O	1.426978	0.653164	0.407703
O5	O	1.063704	-0.007811	-0.078383
O6	O	1.563704	0.492189	0.421617
O7	O	1.050606	0.297759	-0.104771
O8	O	1.550606	0.797759	0.395229
O9	O	1.063688	-0.007820	0.079939
O10	O	1.563688	0.492180	0.579939
O11	O	0.926962	0.153155	0.066025
O12	O	1.426962	0.653155	0.566025
O13	O	1.187316	0.136775	0.067465
O14	O	1.687316	0.636775	0.567465
Zn15	Zn	1.057136	0.144963	0.091882
Zn16	Zn	1.557136	0.644963	0.591882
Zn17	Zn	1.057158	0.144976	-0.116714
Zn18	Zn	1.557158	0.644976	0.383286
O19	O	1.050589	0.297750	0.053551
O20	O	1.550589	0.797750	0.553551
C21	C	0.893643	0.152427	-0.013076
C22	C	1.393643	0.652427	0.486924
C23	C	0.794340	0.150232	-0.012896
C24	C	1.294340	0.650232	0.487104
C25	C	1.062962	-0.046921	0.004153
C26	C	1.562962	0.453079	0.504153
C27	C	1.060763	-0.163442	0.014209
C28	C	1.560763	0.336558	0.514209
C29	C	0.737381	0.244800	-0.021062
C30	C	1.237381	0.744800	0.478938
C31	C	0.644076	0.242731	-0.020869
C32	C	1.144076	0.742731	0.479131
C33	C	0.607731	0.146093	-0.012517
C34	C	1.107731	0.646093	0.487483
C35	C	0.664697	0.051517	-0.004348
C36	C	1.164697	0.551517	0.495652
C37	C	0.758001	0.053587	-0.004535
C38	C	1.258001	0.553587	0.495465
C39	C	0.470223	0.047209	-0.003963
C40	C	0.970223	0.547209	0.496037
C41	C	0.376913	0.045139	-0.003779
C42	C	0.876913	0.545139	0.496221
C43	C	0.356297	0.236353	-0.020297
C44	C	0.856297	0.736353	0.479703
C45	C	0.449601	0.238423	-0.020484
C46	C	0.949601	0.738423	0.479516
C47	C	0.506561	0.143847	-0.012316
C48	C	1.006561	0.643847	0.487684
C49	C	1.056633	-0.382376	-0.139518
C50	C	1.556633	0.117624	0.360482
C51	C	1.054567	-0.491858	-0.130075
C52	C	1.554567	0.008142	0.369925
C53	C	1.054558	-0.491890	0.042539
C54	C	1.554558	0.008110	0.542539
C55	C	1.056624	-0.382407	0.033095
C56	C	1.556624	0.117593	0.533095
C57	C	1.057663	-0.327655	-0.057936
C58	C	1.557663	0.172345	0.442064
C59	C	1.059735	-0.218172	-0.067379
C60	C	1.559735	0.281828	0.432621
C61	C	1.059720	-0.218204	0.105233
C62	C	1.559720	0.281796	0.605233
C63	C	1.057654	-0.327686	0.114677
C64	C	1.557654	0.172314	0.614677
C65	C	1.220651	0.137512	-0.011758
C66	C	1.720651	0.637512	0.488242
C67	C	1.319954	0.139707	-0.011944
C68	C	1.819954	0.639707	0.488056
C69	C	1.051332	0.336860	-0.028987
C70	C	1.551332	0.836860	0.471013
C71	C	1.053531	0.453381	-0.039049
C72	C	1.553531	0.953381	0.460951
N73	N	1.057128	0.144954	0.234244
N74	N	1.557128	0.644954	0.734244
N75	N	1.057173	0.144977	-0.259075
N76	N	1.557173	0.644977	0.240925
C77	C	1.117689	0.073704	0.290220
C78	C	1.617689	0.573704	0.790220
C79	C	1.117695	0.073703	0.389878
C80	C	1.617695	0.573703	0.889878
C81	C	1.057143	0.144959	0.433557
C82	C	1.557143	0.644959	0.933557
C83	C	0.996575	0.216212	0.377573
C84	C	1.496575	0.716212	0.877573
C85	C	0.996566	0.216207	0.277917
C86	C	1.496566	0.716207	0.777917
C87	C	0.996601	0.216220	0.585286
C88	C	1.496601	0.716220	1.085286
C89	C	0.996612	0.216227	0.684948
C90	C	1.496612	0.716227	1.184948
C91	C	1.117731	0.073716	0.697247
C92	C	1.617731	0.573716	1.197247
C93	C	1.117721	0.073711	0.597591
C94	C	1.617721	0.573711	1.097591
C95	C	1.057154	0.144966	0.541614
C96	C	1.557154	0.644966	1.041614
H97	H	0.766965	0.323494	-0.027863
H98	H	1.266965	0.823494	0.472137
H99	H	1.053705	-0.536487	0.116652
H100	H	1.553705	-0.036487	0.616652
H101	H	0.947303	0.274249	0.720506
H102	H	1.447303	0.774249	1.220506
N103	N	0.294866	0.338361	-0.029013
N104	N	0.794866	0.838361	0.470987
H105	H	0.332048	0.399894	-0.034310
H106	H	0.832048	0.899894	0.465690
H107	H	0.255661	0.341731	-0.087963
H108	H	0.755661	0.841731	0.412037
N109	N	1.060796	-0.159069	-0.165543
N110	N	1.560796	0.340931	0.334457
H111	H	1.117017	-0.122054	-0.172606
H112	H	1.617017	0.377946	0.327394
H113	H	1.059774	-0.210380	-0.215757
H114	H	1.559774	0.289620	0.284243
N115	N	0.582603	0.344701	-0.029659
N116	N	1.082603	0.844701	0.470341
H117	H	0.543449	0.348059	0.028754
H118	H	1.043449	0.848059	0.528754
H119	H	0.619809	0.406209	-0.035010
H120	H	1.119809	0.906209	0.464990
H121	H	1.167001	0.015684	0.254664
H122	H	1.667001	0.515684	0.754664
N123	N	0.488812	0.342647	-0.029488
N124	N	0.988812	0.842647	0.470512
H125	H	0.527062	0.347764	-0.088623
H126	H	1.027062	0.847764	0.411377
H127	H	0.438527	0.402190	-0.034590
H128	H	0.938527	0.902190	0.465410
H129	H	0.804377	-0.023420	0.002114
H130	H	1.304377	0.476580	0.502114
N131	N	1.056547	-0.386748	0.212855
N132	N	1.556547	0.113252	0.712855
H133	H	1.001528	-0.359269	0.248222
H134	H	1.501528	0.140731	0.748222
H135	H	1.055118	-0.464394	0.206376
H136	H	1.555118	0.035606	0.706376
H137	H	0.947278	0.274240	0.539713
H138	H	1.447278	0.774240	1.039713
H139	H	0.516598	-0.029805	0.002689
H140	H	1.016598	0.470195	0.502689
H141	H	0.947268	0.274226	0.413142
H142	H	1.447268	0.774226	0.913142
H143	H	1.167008	0.015685	0.435454
H144	H	1.667008	0.515685	0.935454
H145	H	1.060563	-0.173639	0.171663
H146	H	1.560563	0.326361	0.671663
H147	H	1.167031	0.015695	0.562028
H148	H	1.667031	0.515695	1.062028
N149	N	0.337709	-0.059089	0.005226
N150	N	0.837709	0.440911	0.505226
H151	H	0.387949	-0.118689	0.010378
H152	H	0.887949	0.381311	0.510378
H153	H	0.299444	-0.064107	0.064352
H154	H	0.799444	0.435893	0.564352
N155	N	1.057737	-0.323261	-0.237673
N156	N	1.557737	0.176739	0.262327
H157	H	1.112756	-0.350706	-0.273059
H158	H	1.612756	0.149294	0.226941
H159	H	1.001957	-0.333867	-0.274415
H160	H	1.501957	0.166133	0.225585
H161	H	1.053725	-0.536408	-0.196507
H162	H	1.553725	-0.036408	0.303493
H163	H	0.635099	-0.027168	0.002465
H164	H	1.135099	0.472832	0.502465
H165	H	1.167046	0.015698	0.742829
H166	H	1.667046	0.515698	1.242829
H167	H	0.947249	0.274225	0.232342
H168	H	1.447249	0.774225	0.732342
