data_functionalizedCrystal
_audit_creation_method	'MofGen! by Chris Wilmer'
_symmetry_space_group_name_H-M	'P1'
_symmetry_Int_Tables_number	1
_symmetry_cell_setting	triclinic
loop_
_symmetry_equiv_pos_as_xyz
  x,y,z
_cell_length_a	27.732048
_cell_length_b	9.065218
_cell_length_c	7.540329
_cell_angle_alpha	90.003038
_cell_angle_beta	89.991480
_cell_angle_gamma	96.170730
loop_
_atom_site_label
_atom_site_type_symbol
_atom_site_fract_x
_atom_site_fract_y
_atom_site_fract_z
O1	O	0.070866	-1.955892	-0.147510
O2	O	0.076679	-1.526237	-0.147514
O3	O	0.003467	-1.754409	-0.147478
O4	O	0.144079	-1.727721	-0.147546
O5	O	0.003466	-1.754395	0.147487
O6	O	0.076678	-1.526224	0.147451
O7	O	0.070866	-1.955878	0.147455
Cu8	Cu	0.073772	-1.741050	0.174386
Cu9	Cu	0.073773	-1.741066	-0.174444
O10	O	0.144078	-1.727707	0.147419
C11	C	-0.014544	-1.753842	0.000010
C12	C	-0.068210	-1.752155	0.000024
C13	C	0.076120	-1.471280	-0.000031
C14	C	0.074450	-1.307543	-0.000032
N15	N	0.073771	-1.741050	0.419734
C16	C	-0.406178	-1.876369	-0.000066
C17	C	-0.607880	-1.870110	-0.000090
O18	O	-0.638360	-1.983695	-0.000167
N19	N	-0.627927	-1.734814	-0.000090
C20	C	-0.597545	-1.601073	-0.000095
O21	O	-0.619225	-1.485852	-0.000114
C22	C	-0.395844	-1.607334	-0.000083
C23	C	-0.375800	-1.742639	-0.000065
C24	C	-0.386133	-2.011663	-0.000050
C25	C	-0.335710	-2.013226	-0.000034
C26	C	-0.305332	-1.879496	-0.000034
C27	C	-0.325377	-1.744202	-0.000050
C28	C	-0.365463	-1.473594	-0.000101
C29	C	-0.315035	-1.475171	-0.000103
C30	C	-0.294991	-1.610476	-0.000085
C31	C	-0.244577	-1.612034	-0.000034
N32	N	-0.224529	-1.747331	-0.000034
C33	C	-0.254907	-1.881061	-0.000034
C34	C	-0.703442	-1.597796	-0.000098
C35	C	-0.753867	-1.596230	-0.000098
C36	C	-0.764198	-1.865268	-0.000096
C37	C	-0.713772	-1.866832	-0.000084
C38	C	-0.683395	-1.733092	-0.000098
C39	C	-0.149016	-1.884334	0.000001
C40	C	-0.098588	-1.885886	0.000024
C41	C	-0.088262	-1.616849	0.000013
C42	C	-0.138685	-1.615296	-0.000001
C43	C	-0.169061	-1.749051	-0.000013
O44	O	-0.214067	-1.498510	0.000023
O45	O	-0.233218	-1.996266	-0.000055
C46	C	-0.456600	-1.874806	-0.000082
C47	C	-0.476645	-1.739512	-0.000097
C48	C	-0.446267	-1.605781	-0.000097
C49	C	-0.527070	-1.737946	-0.000097
C50	C	-0.557448	-1.871677	-0.000097
C51	C	-0.537401	-2.006973	-0.000098
C52	C	-0.486978	-2.008537	-0.000082
C53	C	-0.466314	-1.470485	-0.000097
C54	C	-0.516737	-1.468933	-0.000111
C55	C	-0.547115	-1.602663	-0.000111
C56	C	0.162089	-1.728274	-0.000072
C57	C	0.215755	-1.729961	-0.000098
C58	C	0.071425	-2.010836	-0.000031
C59	C	0.073095	-2.174573	-0.000042
N60	N	0.073770	-1.741078	-0.419793
H61	H	-0.082271	-1.996072	0.000043
H62	H	-0.697456	-1.977009	-0.000071
H63	H	-0.533052	-1.358743	-0.000110
H64	H	-0.788940	-1.974157	-0.000096
H65	H	-0.173743	-1.993250	-0.000016
H66	H	-0.770182	-1.486052	-0.000082
H67	H	-0.562143	-2.115862	-0.000090
H68	H	-0.319395	-2.123406	-0.000027
O69	O	-0.058678	-1.487084	-0.000068
C70	C	-0.009875	-1.517495	-0.000015
H71	H	-0.007432	-1.633324	-0.055841
H72	H	0.004674	-1.511550	0.141495
C73	C	0.017480	-1.260015	-0.047139
C74	C	0.020481	-1.402274	-0.115719
H75	H	0.036206	-1.188938	-0.118503
H76	H	-0.015400	-1.239524	-0.047168
H77	H	0.029603	-1.255082	0.070785
H78	H	0.008353	-1.407210	-0.233631
H79	H	0.053359	-1.422762	-0.115712
O80	O	-0.158079	-1.483734	-0.000090
C81	C	-0.120451	-1.366038	-0.000035
H82	H	-0.086016	-1.406598	-0.055844
H83	H	-0.113512	-1.324827	0.141474
C84	C	-0.177530	-1.188533	-0.047195
C85	C	-0.135238	-1.238348	-0.115755
H86	H	-0.186652	-1.109764	-0.118570
H87	H	-0.202881	-1.267827	-0.047226
H88	H	-0.171743	-1.154201	0.070728
H89	H	-0.141028	-1.272695	-0.233667
H90	H	-0.109888	-1.159057	-0.115747
O91	O	-0.674006	-1.467736	-0.000018
C92	C	-0.702520	-1.348002	-0.000056
H93	H	-0.739981	-1.386343	0.055780
H94	H	-0.706289	-1.306474	-0.141563
C95	C	-0.631961	-1.174425	0.047053
C96	C	-0.677970	-1.221513	0.115646
H97	H	-0.616817	-1.096397	0.118415
H98	H	-0.612750	-1.255091	0.047072
H99	H	-0.635109	-1.139828	-0.070868
H100	H	-0.674821	-1.256125	0.233556
H101	H	-0.697180	-1.140849	0.115649
H102	H	-0.470663	-2.118716	-0.000068
H103	H	-0.410862	-2.120569	-0.000057
H104	H	-0.381774	-1.363415	-0.000126
H105	H	-0.290304	-1.366261	-0.000117
H106	H	-0.441585	-1.361583	-0.000101
