data_functionalizedCrystal
_audit_creation_method	'MofGen! by Chris Wilmer'
_symmetry_space_group_name_H-M	'P1'
_symmetry_Int_Tables_number	1
_symmetry_cell_setting	triclinic
loop_
_symmetry_equiv_pos_as_xyz
  x,y,z
_cell_length_a	21.295416
_cell_length_b	18.215407
_cell_length_c	21.295120
_cell_angle_alpha	89.938081
_cell_angle_beta	90.359211
_cell_angle_gamma	89.963524
loop_
_atom_site_label
_atom_site_type_symbol
_atom_site_fract_x
_atom_site_fract_y
_atom_site_fract_z
Zn1	Zn	0.248466	1.125389	-0.355848
Zn2	Zn	0.581799	1.458723	-0.022515
Zn3	Zn	0.915132	1.792056	0.310818
Zn4	Zn	0.354342	1.125184	-0.250575
Zn5	Zn	0.687676	1.458517	0.082758
Zn6	Zn	1.021009	1.791851	0.416092
Zn7	Zn	0.249102	1.002220	-0.250599
Zn8	Zn	0.582435	1.335553	0.082734
Zn9	Zn	0.915769	1.668886	0.416067
Zn10	Zn	0.353712	1.002276	-0.355820
Zn11	Zn	0.687046	1.335609	-0.022486
Zn12	Zn	1.020379	1.668943	0.310847
O13	O	0.301406	1.063767	-0.303211
O14	O	0.634739	1.397101	0.030123
O15	O	0.968072	1.730434	0.363456
O16	O	0.262508	1.228346	-0.341886
O17	O	0.595841	1.561680	-0.008552
O18	O	0.929174	1.895013	0.324781
O19	O	0.340912	1.108763	-0.162486
O20	O	0.674245	1.442096	0.170848
O21	O	1.007579	1.775430	0.504181
O22	O	0.160928	1.018621	-0.264583
O23	O	0.494262	1.351954	0.068750
O24	O	0.827595	1.685288	0.402083
O25	O	0.340295	1.228195	-0.264542
O26	O	0.673628	1.561529	0.068792
O27	O	1.006962	1.894862	0.402125
O28	O	0.160461	1.109113	-0.341909
O29	O	0.493794	1.442446	-0.008576
O30	O	0.827127	1.775780	0.324757
O31	O	0.263592	1.018422	-0.162504
O32	O	0.596926	1.351755	0.170830
O33	O	0.930259	1.685088	0.504163
O34	O	0.262982	0.899243	-0.264555
O35	O	0.596315	1.232576	0.068778
O36	O	0.929648	1.565910	0.402112
O37	O	0.339221	1.018717	-0.443916
O38	O	0.672555	1.352050	-0.110582
O39	O	1.005888	1.685383	0.222751
O40	O	0.339838	0.899284	-0.341860
O41	O	0.673172	1.232618	-0.008527
O42	O	1.006505	1.565951	0.324807
O43	O	0.261897	1.109167	-0.443937
O44	O	0.595230	1.442501	-0.110604
O45	O	0.928564	1.775834	0.222730
O46	O	0.442348	1.108817	-0.264513
O47	O	0.775682	1.442151	0.068820
O48	O	1.109015	1.775484	0.402153
O49	O	0.441886	1.018518	-0.341836
O50	O	0.775219	1.351851	-0.008503
O51	O	1.108552	1.685184	0.324830
C52	C	0.464958	1.063671	-0.303183
C53	C	0.798291	1.397005	0.030151
C54	C	1.131624	1.730338	0.363484
C55	C	0.534926	1.063698	-0.303192
C56	C	0.868259	1.397031	0.030141
C57	C	1.201592	1.730364	0.363475
C58	C	0.301411	0.872561	-0.303207
C59	C	0.634745	1.205894	0.030126
C60	C	0.968078	1.539228	0.363459
C61	C	0.301429	0.790762	-0.303221
C62	C	0.634762	1.124095	0.030112
C63	C	0.968095	1.457429	0.363446
C64	C	0.300418	1.063971	-0.467406
C65	C	0.633751	1.397305	-0.134073
C66	C	0.967085	1.730638	0.199260
C67	C	0.299997	1.064058	-0.537377
C68	C	0.633330	1.397392	-0.204044
C69	C	0.966664	1.730725	0.129290
C70	C	0.568012	1.110759	-0.262973
C71	C	0.901345	1.444092	0.070361
C72	C	1.234679	1.777425	0.403694
C73	C	0.633754	1.110793	-0.262990
C74	C	0.967088	1.444127	0.070344
C75	C	1.300421	1.777460	0.403677
C76	C	0.666408	1.063754	-0.303219
C77	C	0.999741	1.397087	0.030114
C78	C	1.333075	1.730421	0.363447
C79	C	0.633313	1.016690	-0.343446
C80	C	0.966647	1.350023	-0.010113
C81	C	1.299980	1.683356	0.323220
C82	C	0.567572	1.016661	-0.343433
C83	C	0.900906	1.349995	-0.010099
C84	C	1.234239	1.683328	0.323234
N85	N	0.769652	0.999380	-0.308022
N86	N	1.102985	1.332714	0.025312
N87	N	1.436319	1.666047	0.358645
N88	N	0.832103	0.999409	-0.308031
N89	N	1.165437	1.332742	0.025302
N90	N	1.498770	1.666076	0.358636
C91	C	0.864482	1.063837	-0.303264
C92	C	1.197816	1.397170	0.030069
C93	C	1.531149	1.730504	0.363403
N94	N	0.832051	1.128237	-0.298475
N95	N	1.165384	1.461570	0.034859
N96	N	1.498717	1.794903	0.368192
N97	N	0.769594	1.128207	-0.298462
N98	N	1.102927	1.461540	0.034871
N99	N	1.436260	1.794874	0.368204
C100	C	0.737693	1.063780	-0.303239
C101	C	1.071026	1.397113	0.030094
C102	C	1.404360	1.730446	0.363428
C103	C	0.968854	1.110940	-0.263061
C104	C	1.302188	1.444273	0.070272
C105	C	1.635521	1.777607	0.403606
C106	C	1.034598	1.110976	-0.263082
C107	C	1.367931	1.444309	0.070251
C108	C	1.701264	1.777643	0.403584
C109	C	1.034156	1.016865	-0.343536
C110	C	1.367489	1.350199	-0.010202
C111	C	1.700822	1.683532	0.323131
C112	C	0.968413	1.016836	-0.343518
C113	C	1.301747	1.350169	-0.010184
C114	C	1.635080	1.683503	0.323149
C115	C	0.935766	1.063872	-0.303277
C116	C	1.269100	1.397206	0.030056
C117	C	1.602433	1.730539	0.363390
C118	C	1.137215	1.063884	-0.303263
C119	C	1.470548	1.397218	0.030070
C120	C	1.803882	1.730551	0.363404
C121	C	1.067247	1.063937	-0.303313
C122	C	1.400580	1.397270	0.030020
C123	C	1.733913	1.730603	0.363354
C124	C	0.301401	1.255720	-0.303214
C125	C	0.634734	1.589053	0.030119
C126	C	0.968067	1.922387	0.363453
C127	C	0.301398	1.337519	-0.303216
C128	C	0.634732	1.670852	0.030118
C129	C	0.968065	2.004186	0.363451
C130	C	0.260913	1.525793	-0.343487
C131	C	0.594246	1.859126	-0.010154
C132	C	0.927580	2.192459	0.323179
C133	C	0.260919	1.602651	-0.343490
C134	C	0.594252	1.935985	-0.010156
C135	C	0.927586	2.269318	0.323177
C136	C	0.341918	1.602483	-0.262947
C137	C	0.675252	1.935816	0.070386
C138	C	1.008585	2.269150	0.403719
C139	C	0.341915	1.525626	-0.262949
C140	C	0.675249	1.858959	0.070385
C141	C	1.008582	2.192292	0.403718
C142	C	0.301409	1.487282	-0.303218
C143	C	0.634742	1.820616	0.030116
C144	C	0.968076	2.153949	0.363449
C145	C	0.301418	1.640999	-0.303219
C146	C	0.634751	1.974332	0.030114
C147	C	0.968085	2.307665	0.363448
C148	C	0.301425	1.724332	-0.303221
C149	C	0.634758	2.057666	0.030112
C150	C	0.968091	2.390999	0.363445
C151	C	0.301403	1.403944	-0.303216
C152	C	0.634736	1.737277	0.030117
C153	C	0.968070	2.070610	0.363450
C154	C	0.302344	1.063606	-0.139653
C155	C	0.635678	1.396940	0.193680
C156	C	0.969011	1.730273	0.527013
C157	C	0.302588	1.063662	-0.069683
C158	C	0.635921	1.396995	0.263650
C159	C	0.969255	1.730329	0.596983
C160	C	0.261875	1.110429	-0.037338
C161	C	0.595208	1.443762	0.295995
C162	C	0.928542	1.777096	0.629328
C163	C	0.261557	1.110483	0.028402
C164	C	0.594890	1.443817	0.361736
C165	C	0.928224	1.777150	0.695069
C166	C	0.301945	1.063757	0.061795
C167	C	0.635279	1.397090	0.395129
C168	C	0.968612	1.730424	0.728462
C169	C	0.342666	1.016987	0.029442
C170	C	0.675999	1.350320	0.362776
C171	C	1.009333	1.683653	0.696109
C172	C	0.342987	1.016939	-0.036297
C173	C	0.676321	1.350272	0.297036
C174	C	1.009654	1.683606	0.630370
N175	N	0.306671	0.999452	0.165164
N176	N	0.640004	1.332785	0.498497
N177	N	0.973338	1.666118	0.831831
N178	N	0.306362	0.999499	0.227613
N179	N	0.639696	1.332832	0.560947
N180	N	0.973029	1.666166	0.894280
C181	C	0.300981	1.063899	0.259864
C182	C	0.634314	1.397232	0.593198
C183	C	0.967647	1.730565	0.926531
N184	N	0.295908	1.128251	0.227306
N185	N	0.629241	1.461584	0.560639
N186	N	0.962574	1.794918	0.893973
N187	N	0.296213	1.128203	0.164851
N188	N	0.629547	1.461536	0.498184
N189	N	0.962880	1.794869	0.831517
C190	C	0.301602	1.063804	0.133079
C191	C	0.634935	1.397137	0.466412
C192	C	0.968268	1.730470	0.799745
C193	C	0.259921	1.110729	0.363493
C194	C	0.593254	1.444062	0.696826
C195	C	0.926588	1.777395	1.030160
C196	C	0.259607	1.110784	0.429235
C197	C	0.592941	1.444117	0.762568
C198	C	0.926274	1.777451	1.095901
C199	C	0.340713	1.017281	0.430273
C200	C	0.674047	1.350614	0.763607
C201	C	1.007380	1.683948	1.096940
C202	C	0.341030	1.017232	0.364533
C203	C	0.674363	1.350565	0.697866
C204	C	1.007697	1.683899	1.031199
C205	C	0.300631	1.063955	0.331146
C206	C	0.633964	1.397288	0.664480
C207	C	0.967297	1.730621	0.997813
H208	H	0.541433	1.149060	-0.230208
H209	H	0.874766	1.482394	0.103126
H210	H	1.208100	1.815727	0.436459
H211	H	1.060741	0.978568	-0.376294
H212	H	1.394075	1.311901	-0.042961
H213	H	1.727408	1.645235	0.290372
C214	C	0.214816	1.162233	0.464814
C215	C	0.548149	1.495566	0.798148
C216	C	0.881483	1.828899	1.131481
N217	N	0.181077	1.200983	0.491613
N218	N	0.514410	1.534316	0.824946
N219	N	0.847743	1.867650	1.158280
H220	H	0.540633	0.978338	-0.376185
H221	H	0.873966	1.311671	-0.042852
H222	H	1.207299	1.645005	0.290482
H223	H	0.374895	1.494270	-0.230156
H224	H	0.708229	1.827603	0.103178
H225	H	1.041562	2.160936	0.436511
C226	C	0.215488	1.162132	0.326766
C227	C	0.548821	1.495465	0.660099
C228	C	0.882154	1.828798	0.993432
N229	N	0.182021	1.200851	0.299105
N230	N	0.515355	1.534184	0.632438
N231	N	0.848688	1.867517	0.965771
C232	C	0.385142	0.965882	0.467002
C233	C	0.718476	1.299216	0.800335
C234	C	1.051809	1.632549	1.133668
N235	N	0.418608	0.927169	0.494669
N236	N	0.751942	1.260502	0.828002
N237	N	1.085275	1.593835	1.161335
H238	H	0.660699	1.149119	-0.230238
H239	H	0.994032	1.482452	0.103095
H240	H	1.327365	1.815786	0.436428
H241	H	0.659904	0.978391	-0.376203
H242	H	0.993237	1.311724	-0.042869
H243	H	1.326571	1.645058	0.290464
H244	H	0.374180	0.979146	0.338197
H245	H	0.707514	1.312479	0.671530
H246	H	1.040847	1.645813	1.004864
C247	C	0.932941	1.162691	-0.218805
C248	C	1.266274	1.496024	0.114528
C249	C	1.599607	1.829358	0.447862
N250	N	0.905892	1.201673	-0.185473
N251	N	1.239225	1.535006	0.147860
N252	N	1.572559	1.868340	0.481194
C253	C	0.387092	0.965586	0.066176
C254	C	0.720425	1.298919	0.399509
C255	C	1.053759	1.632252	0.732842
N256	N	0.420556	0.926870	0.093843
N257	N	0.753889	1.260203	0.427177
N258	N	1.087222	1.593537	0.760510
C259	C	1.070993	1.162749	-0.218835
C260	C	1.404326	1.496082	0.114498
C261	C	1.737659	1.829416	0.447832
N262	N	1.098406	1.201744	-0.185506
N263	N	1.431739	1.535078	0.147828
N264	N	1.765073	1.868411	0.481161
C265	C	0.217439	1.161831	-0.074059
C266	C	0.550772	1.495165	0.259274
C267	C	0.884105	1.828498	0.592607
N268	N	0.183971	1.200550	-0.101719
N269	N	0.517304	1.533883	0.231615
N270	N	0.850637	1.867216	0.564948
H271	H	0.227930	1.494576	-0.376277
H272	H	0.561263	1.827909	-0.042944
H273	H	0.894597	2.161243	0.290390
C274	C	0.932017	0.965079	-0.387776
C275	C	1.265350	1.298413	-0.054442
C276	C	1.598683	1.631746	0.278891
N277	N	0.904603	0.926102	-0.421120
N278	N	1.237936	1.259435	-0.087787
N279	N	1.571269	1.592769	0.245547
H280	H	0.376142	0.978854	-0.062632
H281	H	0.709475	1.312188	0.270701
H282	H	1.042808	1.645521	0.604035
C283	C	0.216367	1.645009	-0.387787
C284	C	0.549701	1.978342	-0.054453
C285	C	0.883034	2.311676	0.278880
N286	N	0.182808	1.676912	-0.421153
N287	N	0.516141	2.010246	-0.087819
N288	N	0.849475	2.343579	0.245514
C289	C	0.386465	1.644668	-0.218646
C290	C	0.719799	1.978001	0.114687
C291	C	1.053132	2.311334	0.448020
N292	N	0.420016	1.676440	-0.185275
N293	N	0.753350	2.009774	0.148059
N294	N	1.086683	2.343107	0.481392
H295	H	0.228401	1.148566	0.054743
H296	H	0.561735	1.481900	0.388076
H297	H	0.895068	1.815233	0.721410
