data_functionalizedCrystal
_audit_creation_method	'MofGen! by Chris Wilmer'
_symmetry_space_group_name_H-M	'P1'
_symmetry_Int_Tables_number	1
_symmetry_cell_setting	triclinic
loop_
_symmetry_equiv_pos_as_xyz
  x,y,z
_cell_length_a	19.077105
_cell_length_b	19.077068
_cell_length_c	19.077569
_cell_angle_alpha	90.064237
_cell_angle_beta	85.299277
_cell_angle_gamma	90.115316
loop_
_atom_site_label
_atom_site_type_symbol
_atom_site_fract_x
_atom_site_fract_y
_atom_site_fract_z
Zn1	Zn	1.081898	-0.305533	-0.453630
Zn2	Zn	1.581898	0.194467	0.046370
Zn3	Zn	1.072367	-0.427395	-0.340438
Zn4	Zn	1.572367	0.072605	0.159562
Zn5	Zn	0.959280	-0.305543	-0.331026
Zn6	Zn	1.459280	0.194457	0.168974
Zn7	Zn	0.959616	-0.418291	-0.453207
Zn8	Zn	1.459616	0.081709	0.046793
O9	O	1.018290	-0.364190	-0.394575
O10	O	1.518290	0.135810	0.105425
O11	O	1.179137	-0.325504	-0.442731
O12	O	1.679137	0.174496	0.057269
O13	O	1.053237	-0.415046	-0.240685
O14	O	1.553237	0.084954	0.259315
O15	O	0.979394	-0.207356	-0.343527
O16	O	1.479394	0.292644	0.156473
O17	O	1.172134	-0.415036	-0.359569
O18	O	1.672134	0.084964	0.140431
O19	O	1.069481	-0.207349	-0.433604
O20	O	1.569481	0.292651	0.066396
O21	O	0.970152	-0.325521	-0.233770
O22	O	1.470152	0.174479	0.266230
O23	O	0.860822	-0.316693	-0.343117
O24	O	1.360822	0.183307	0.156883
O25	O	0.979966	-0.399519	-0.551767
O26	O	1.479966	0.100481	-0.051767
O27	O	0.861068	-0.399528	-0.432883
O28	O	1.361068	0.100472	0.067117
O29	O	1.069807	-0.316676	-0.552078
O30	O	1.569807	0.183324	-0.052078
O31	O	1.053562	-0.524373	-0.359159
O32	O	1.553562	-0.024373	0.140841
O33	O	0.970724	-0.517684	-0.442010
O34	O	1.470724	-0.017684	0.057990
C35	C	0.835404	-0.357124	-0.386933
C36	C	1.335404	0.142876	0.113067
C37	C	0.757165	-0.354118	-0.383681
C38	C	1.257165	0.145882	0.116319
C39	C	0.720549	-0.395903	-0.428822
C40	C	1.220549	0.104097	0.071178
C41	C	0.647035	-0.393069	-0.425769
C42	C	1.147035	0.106931	0.074231
C43	C	0.610138	-0.348452	-0.377573
C44	C	1.110138	0.151548	0.122427
C45	C	0.646759	-0.306662	-0.332430
C46	C	1.146759	0.193338	0.167570
C47	C	0.720272	-0.309493	-0.335487
C48	C	1.220272	0.190507	0.164513
C49	C	0.390264	-0.335349	-0.363431
C50	C	0.890264	0.164651	0.136569
C51	C	0.316746	-0.332522	-0.360376
C52	C	0.816746	0.167478	0.139624
C53	C	0.317027	-0.418929	-0.453717
C54	C	0.817027	0.081071	0.046283
C55	C	0.390541	-0.421759	-0.456766
C56	C	0.890541	0.078241	0.043234
C57	C	0.427156	-0.379966	-0.411626
C58	C	0.927156	0.120034	0.088374
N59	N	0.534995	-0.345555	-0.374450
N60	N	1.034995	0.154445	0.125550
N61	N	0.502298	-0.382860	-0.414753
N62	N	1.002298	0.117140	0.085247
C63	C	1.011165	-0.546487	-0.401576
C64	C	1.511165	-0.046487	0.098424
C65	C	1.008182	-0.624475	-0.404598
C66	C	1.508182	-0.124475	0.095402
C67	C	1.049946	-0.664574	-0.362920
C68	C	1.549946	-0.164574	0.137080
C69	C	1.047145	-0.737852	-0.365766
C70	C	1.547145	-0.237852	0.134234
C71	C	1.002575	-0.771031	-0.410287
C72	C	1.502575	-0.271031	0.089713
C73	C	0.960809	-0.730927	-0.451969
C74	C	1.460809	-0.230927	0.048031
C75	C	0.963615	-0.657650	-0.449126
C76	C	1.463615	-0.157650	0.050874
C77	C	0.989560	-0.989815	-0.423414
C78	C	1.489560	-0.489815	0.076586
C79	C	0.986756	-1.063097	-0.426252
C80	C	1.486756	-0.563097	0.073748
C81	C	1.073093	-1.070017	-0.340050
C82	C	1.573093	-0.570017	0.159950
C83	C	1.075891	-0.996738	-0.337208
C84	C	1.575891	-0.496738	0.162792
C85	C	1.034128	-0.956641	-0.378893
C86	C	1.534128	-0.456641	0.121107
N87	N	0.999709	-0.845933	-0.413195
N88	N	1.499709	-0.345933	0.086805
N89	N	1.036998	-0.881740	-0.375988
N90	N	1.536998	-0.381740	0.124012
C91	C	1.201891	-0.371285	-0.402247
C92	C	1.701891	0.128715	0.097753
C93	C	1.280130	-0.374308	-0.405517
C94	C	1.780130	0.125692	0.094483
C95	C	1.025987	-0.357080	-0.578178
C96	C	1.525987	0.142920	-0.078178
C97	C	1.029267	-0.354051	-0.656418
C98	C	1.529267	0.145949	-0.156418
C99	C	1.025463	-0.181182	-0.387563
C100	C	1.525463	0.318818	0.112437
C101	C	1.028520	-0.103195	-0.384575
C102	C	1.528520	0.396805	0.115425
C103	C	0.984034	-0.395756	-0.693015
C104	C	1.484034	0.104244	-0.193015
C105	C	0.987121	-0.392909	-0.766531
C106	C	1.487121	0.107091	-0.266531
C107	C	1.035439	-0.348353	-0.803448
C108	C	1.535439	0.151647	-0.303448
C109	C	1.080677	-0.306647	-0.766846
C110	C	1.580677	0.193353	-0.266846
C111	C	1.077592	-0.309497	-0.693332
C112	C	1.577592	0.190503	-0.193332
C113	C	1.049684	-0.335205	-1.023329
C114	C	1.549684	0.164795	-0.523329
C115	C	1.052764	-0.332356	-1.096848
C116	C	1.552764	0.167644	-0.596848
C117	C	0.959208	-0.418620	-1.096527
C118	C	1.459208	0.081380	-0.596527
C119	C	0.956125	-0.421464	-1.023012
C120	C	1.456125	0.078536	-0.523012
C121	C	1.001365	-0.379760	-0.986417
C122	C	1.501365	0.120240	-0.486417
N123	N	1.038595	-0.345441	-0.878593
N124	N	1.538595	0.154559	-0.378593
N125	N	0.998213	-0.382676	-0.911274
N126	N	1.498213	0.117324	-0.411274
C127	C	1.010666	-0.371224	-0.211686
C128	C	1.510666	0.128776	0.288314
C129	C	1.007530	-0.374061	-0.133444
C130	C	1.507530	0.125939	0.366556
H131	H	0.616712	-0.270330	-0.293190
H132	H	1.116712	0.229670	0.206810
O133	O	0.915170	-0.459056	-1.132038
O134	O	1.415170	0.040944	-0.632038
C135	C	0.795044	-0.487653	-1.150806
C136	C	1.295044	0.012347	-0.650806
C137	C	0.844837	-0.441798	-1.110554
C138	C	1.344837	0.058202	-0.610554
H139	H	0.738169	-0.473727	-1.133441
H140	H	1.238169	0.026273	-0.633441
H141	H	0.805486	-0.477960	-1.209696
H142	H	1.305486	0.022040	-0.709696
H143	H	0.804622	-0.545263	-1.139046
H144	H	1.304622	-0.045263	-0.639046
H145	H	0.835288	-0.384173	-1.122256
H146	H	1.335288	0.115827	-0.622256
H147	H	0.834384	-0.451551	-1.051677
H148	H	1.334384	0.048449	-0.551677
H149	H	0.924523	-0.757947	-0.488222
H150	H	1.424523	-0.257947	0.011778
O151	O	0.937025	-0.438939	-0.657122
O152	O	1.437025	0.061061	-0.157122
C153	C	0.838158	-0.447943	-0.570494
C154	C	1.338158	0.052057	-0.070494
C155	C	0.891341	-0.398952	-0.611100
C156	C	1.391341	0.101048	-0.111100
H157	H	0.801219	-0.415635	-0.533265
H158	H	1.301219	0.084365	-0.033265
H159	H	0.806312	-0.477248	-0.609252
H160	H	1.306312	0.022752	-0.109252
H161	H	0.867610	-0.487228	-0.538868
H162	H	1.367610	0.012772	-0.038868
H163	H	0.861946	-0.359626	-0.642728
H164	H	1.361946	0.140374	-0.142728
H165	H	0.923186	-0.369698	-0.572306
H166	H	1.423186	0.130302	-0.072306
O167	O	1.093199	-0.632426	-0.319575
O168	O	1.593199	-0.132426	0.180425
C169	C	1.123277	-0.615956	-0.200423
C170	C	1.623277	-0.115956	0.299577
C171	C	1.074253	-0.652418	-0.249432
C172	C	1.574253	-0.152418	0.250568
H173	H	1.107968	-0.632095	-0.143701
H174	H	1.607968	-0.132095	0.356299
H175	H	1.180006	-0.632036	-0.215702
H176	H	1.680006	-0.132036	0.284298
H177	H	1.118121	-0.556698	-0.205585
H178	H	1.618121	-0.056698	0.294415
H179	H	1.079347	-0.711683	-0.244296
H180	H	1.579347	-0.211683	0.255704
H181	H	1.017544	-0.636281	-0.234140
H182	H	1.517544	-0.136281	0.265860
H183	H	0.929607	-0.625002	-0.483065
H184	H	1.429607	-0.125002	0.016935
H185	H	0.750084	-0.275463	-0.298732
H186	H	1.250084	0.224537	0.201268
H187	H	0.955553	-0.957173	-0.457354
H188	H	1.455553	-0.457173	0.042646
H189	H	1.081154	-0.770498	-0.331827
H190	H	1.581154	-0.270498	0.168173
O191	O	1.113586	-1.108940	-0.299462
O192	O	1.613586	-0.608940	0.200538
C193	C	1.142015	-1.137316	-0.182061
C194	C	1.642015	-0.637316	0.317939
C195	C	1.096094	-1.093205	-0.227940
C196	C	1.596094	-0.593205	0.272060
H197	H	1.127900	-1.124600	-0.124227
H198	H	1.627900	-0.624600	0.375773
H199	H	1.132349	-1.195398	-0.191680
H200	H	1.632349	-0.695398	0.308320
H201	H	1.199833	-1.124571	-0.196319
H202	H	1.699833	-0.624571	0.303681
H203	H	1.038260	-1.105891	-0.213710
H204	H	1.538260	-0.605891	0.286290
H205	H	1.105820	-1.035136	-0.218315
H206	H	1.605820	-0.535136	0.281685
O207	O	1.119087	-0.964482	-0.293881
O208	O	1.619087	-0.464482	0.206119
C209	C	1.127821	-0.885804	-0.196065
C210	C	1.627821	-0.385804	0.303935
C211	C	1.078822	-0.922300	-0.245077
C212	C	1.578822	-0.422300	0.254923
H213	H	1.095288	-0.851680	-0.156605
H214	H	1.595288	-0.351680	0.343395
H215	H	1.157176	-0.927025	-0.166714
H216	H	1.657176	-0.427025	0.333286
H217	H	1.167287	-0.851650	-0.228631
H218	H	1.667287	-0.351650	0.271369
H219	H	1.039316	-0.956451	-0.212563
H220	H	1.539316	-0.456451	0.287437
H221	H	1.049519	-0.881043	-0.274431
H222	H	1.549519	-0.381043	0.225569
O223	O	1.127552	-0.263382	-0.802812
O224	O	1.627552	0.236618	-0.302812
C225	C	1.173795	-0.220788	-0.916206
C226	C	1.673795	0.279212	-0.416206
C227	C	1.120665	-0.269806	-0.875564
C228	C	1.620665	0.230194	-0.375564
H229	H	1.168256	-0.225976	-0.975033
H230	H	1.668256	0.274024	-0.475033
H231	H	1.163049	-0.164277	-0.899115
H232	H	1.663049	0.335723	-0.399115
H233	H	1.229456	-0.235859	-0.904552
H234	H	1.729456	0.264141	-0.404552
H235	H	1.064985	-0.254799	-0.887197
H236	H	1.564985	0.245201	-0.387197
H237	H	1.131473	-0.326305	-0.892659
H238	H	1.631473	0.173695	-0.392659
H239	H	0.950471	-1.090108	-0.462519
H240	H	1.450471	-0.590108	0.037481
O241	O	0.943107	-0.433442	-0.801970
O242	O	1.443107	0.066558	-0.301970
C243	C	0.850011	-0.519329	-0.793896
C244	C	1.350011	-0.019329	-0.293896
C245	C	0.899806	-0.473449	-0.753674
C246	C	1.399806	0.026551	-0.253674
H247	H	0.815000	-0.551697	-0.754867
H248	H	1.315000	-0.051697	-0.254867
H249	H	0.815865	-0.484390	-0.825522
H250	H	1.315865	0.015610	-0.325522
H251	H	0.882345	-0.555905	-0.831088
H252	H	1.382345	-0.055905	-0.331088
H253	H	0.867528	-0.436867	-0.716446
H254	H	1.367528	0.063133	-0.216446
H255	H	0.933954	-0.508430	-0.722094
H256	H	1.433954	-0.008430	-0.222094
O257	O	0.909249	-0.464841	-0.987199
O258	O	1.409249	0.035159	-0.487199
C259	C	0.869386	-0.583725	-0.967898
C260	C	1.369386	-0.083725	-0.467898
C261	C	0.922538	-0.534690	-1.008487
C262	C	1.422538	-0.034690	-0.508487
H263	H	0.880102	-0.640206	-0.985104
H264	H	1.380102	-0.140206	-0.485104
H265	H	0.874936	-0.578662	-0.909060
H266	H	1.374936	-0.078662	-0.409060
H267	H	0.813731	-0.568595	-0.979515
H268	H	1.313731	-0.068595	-0.479515
H269	H	0.978215	-0.549787	-0.996928
H270	H	1.478215	-0.049787	-0.496928
H271	H	0.916927	-0.539759	-1.067312
H272	H	1.416927	-0.039759	-0.567312
H273	H	1.092108	-0.296067	-1.126903
H274	H	1.592108	0.203933	-0.626903
O275	O	1.121560	-0.268914	-0.657887
O276	O	1.621560	0.231086	-0.157887
C277	C	1.214709	-0.183083	-0.665960
C278	C	1.714709	0.316917	-0.165960
C279	C	1.164941	-0.228992	-0.706187
C280	C	1.664941	0.271008	-0.206187
H281	H	1.249805	-0.150806	-0.704995
H282	H	1.749805	0.349194	-0.204995
H283	H	1.182424	-0.146435	-0.628804
H284	H	1.682424	0.353565	-0.128804
H285	H	1.248776	-0.218067	-0.634297
H286	H	1.748776	0.281933	-0.134297
H287	H	1.130863	-0.194064	-0.737890
H288	H	1.630863	0.305936	-0.237890
H289	H	1.197268	-0.265646	-0.743302
H290	H	1.697268	0.234354	-0.243302
O291	O	0.425867	-0.294681	-0.319680
O292	O	0.925867	0.205319	0.180320
C293	C	0.512203	-0.203523	-0.310176
C294	C	1.012203	0.296477	0.189824
C295	C	0.471914	-0.249522	-0.359805
C296	C	0.971914	0.250478	0.140195
H297	H	0.549452	-0.167011	-0.342597
H298	H	1.049452	0.332989	0.157403
H299	H	0.473240	-0.171100	-0.275212
H300	H	0.973240	0.328900	0.224788
H301	H	0.543780	-0.238447	-0.275969
H302	H	1.043780	0.261553	0.224031
H303	H	0.440336	-0.214651	-0.394057
H304	H	0.940336	0.285349	0.105943
H305	H	0.510913	-0.281952	-0.394722
H306	H	1.010913	0.218048	0.105278
H307	H	0.750585	-0.432238	-0.468067
H308	H	1.250585	0.067762	0.031933
H309	H	0.420577	-0.458093	-0.496011
H310	H	0.920577	0.041907	0.003989
O311	O	0.611573	-0.433738	-0.469640
O312	O	1.111573	0.066262	0.030360
C313	C	0.619611	-0.519729	-0.562554
C314	C	1.119611	-0.019729	-0.062554
C315	C	0.659857	-0.473716	-0.512901
C316	C	1.159857	0.026284	-0.012901
H317	H	0.658631	-0.552052	-0.597553
H318	H	1.158631	-0.052052	-0.097553
H319	H	0.582421	-0.556336	-0.530179
H320	H	1.082421	-0.056336	-0.030179
H321	H	0.587980	-0.484819	-0.596724
H322	H	1.087980	0.015181	-0.096724
H323	H	0.691528	-0.508570	-0.478721
H324	H	1.191528	-0.008570	0.021279
H325	H	0.697005	-0.437103	-0.545318
H326	H	1.197005	0.062897	-0.045318
O327	O	0.281352	-0.459450	-0.497537
O328	O	0.781352	0.040550	0.002463
C329	C	0.168224	-0.493414	-0.534174
C330	C	0.668224	0.006586	-0.034174
C331	C	0.208538	-0.447475	-0.484513
C332	C	0.708538	0.052525	0.015487
H333	H	0.109346	-0.483759	-0.523652
H334	H	0.609346	0.016241	-0.023652
H335	H	0.185498	-0.479533	-0.591098
H336	H	0.685498	0.020467	-0.091098
H337	H	0.179988	-0.551004	-0.524504
H338	H	0.679988	-0.051004	-0.024504
H339	H	0.196793	-0.389872	-0.494121
H340	H	0.696793	0.110128	0.005879
H341	H	0.191259	-0.461415	-0.427606
H342	H	0.691259	0.038585	0.072394
H343	H	0.286707	-0.296181	-0.321132
H344	H	0.786707	0.203819	0.178868
H345	H	1.086522	-0.301247	-0.993542
H346	H	1.586522	0.198753	-0.493542
