data_functionalizedCrystal
_audit_creation_method	'MofGen! by Chris Wilmer'
_symmetry_space_group_name_H-M	'P1'
_symmetry_Int_Tables_number	1
_symmetry_cell_setting	triclinic
loop_
_symmetry_equiv_pos_as_xyz
  x,y,z
_cell_length_a	14.853568
_cell_length_b	9.065215
_cell_length_c	7.540329
_cell_angle_alpha	90.001076
_cell_angle_beta	90.001392
_cell_angle_gamma	95.675058
loop_
_atom_site_label
_atom_site_type_symbol
_atom_site_fract_x
_atom_site_fract_y
_atom_site_fract_z
O1	O	-0.132178	1.957779	0.147441
O2	O	0.367822	2.457779	0.647441
O3	O	-0.143024	1.528278	0.147448
O4	O	0.356976	2.028278	0.647448
O5	O	-0.006456	1.754501	0.147453
O6	O	0.493544	2.254501	0.647453
O7	O	-0.268746	1.731556	0.147436
O8	O	0.231254	2.231556	0.647436
O9	O	-0.006455	1.754493	-0.147512
O10	O	0.493545	2.254493	0.352488
O11	O	-0.143023	1.528271	-0.147517
O12	O	0.356977	2.028271	0.352483
O13	O	-0.132177	1.957771	-0.147524
O14	O	0.367823	2.457771	0.352476
Cu15	Cu	-0.137600	1.743020	-0.174453
Cu16	Cu	0.362400	2.243020	0.325547
Cu17	Cu	-0.137601	1.743029	0.174377
Cu18	Cu	0.362399	2.243029	0.674377
O19	O	-0.268745	1.731549	-0.147529
O20	O	0.231255	2.231549	0.352471
C21	C	0.027141	1.753457	-0.000023
C22	C	0.527141	2.253457	0.499977
C23	C	0.127247	1.750341	-0.000005
C24	C	0.627247	2.250341	0.499995
C25	C	-0.141982	1.473308	-0.000034
C26	C	0.358018	1.973308	0.499966
C27	C	-0.138867	1.309527	-0.000031
C28	C	0.361133	1.809527	0.499969
C29	C	0.540872	1.602788	-0.000025
C30	C	1.040872	2.102788	0.499975
C31	C	0.560166	1.871546	-0.000029
C32	C	1.060166	2.371546	0.499971
C33	C	0.466111	1.874476	-0.000021
C34	C	0.966111	2.374476	0.499979
C35	C	0.409432	1.741560	-0.000018
C36	C	0.909432	2.241560	0.499982
C37	C	0.446808	1.605714	-0.000023
C38	C	0.946808	2.105714	0.499977
C39	C	0.428727	2.010319	-0.000034
C40	C	0.928727	2.510319	0.499966
C41	C	0.334666	2.013255	-0.000028
C42	C	0.834666	2.513255	0.499972
C43	C	0.277986	1.880337	-0.000013
C44	C	0.777986	2.380337	0.499987
C45	C	0.315367	1.744486	-0.000015
C46	C	0.815367	2.244486	0.499985
C47	C	0.258688	1.611570	-0.000012
C48	C	0.758688	2.111570	0.499988
C49	C	0.296068	1.475717	-0.000003
C50	C	0.796068	1.975717	0.499997
C51	C	0.390127	1.472797	-0.000007
C52	C	0.890127	1.972797	0.499993
C53	C	0.183927	1.883257	-0.000008
C54	C	0.683927	2.383257	0.499992
C55	C	0.164624	1.614495	-0.000010
C56	C	0.664624	2.114495	0.499990
C57	C	0.697658	1.732591	-0.000042
C58	C	1.197658	2.232591	0.499958
C59	C	0.597551	1.735704	-0.000028
C60	C	1.097551	2.235704	0.499972
C61	C	-0.133219	2.012741	-0.000038
C62	C	0.366781	2.512741	0.499962
C63	C	-0.136334	2.176522	-0.000030
C64	C	0.363666	2.676522	0.499970
N65	N	-0.137598	1.743024	-0.419802
N66	N	0.362402	2.243024	0.080198
N67	N	-0.137595	1.743037	0.419726
N68	N	0.362405	2.243037	0.919726
H69	H	0.118481	1.506257	0.000000
H70	H	0.618481	2.006257	0.500000
H71	H	0.249908	1.367497	-0.000013
H72	H	0.749908	1.867497	0.499987
H73	H	0.571311	1.492180	-0.000010
H74	H	1.071311	1.992180	0.499990
O75	O	0.143609	2.029767	-0.000003
O76	O	0.643609	2.529767	0.499997
H77	H	0.166288	2.093642	-0.120223
H78	H	0.666288	2.593642	0.379777
H79	H	0.304240	2.123874	-0.000034
H80	H	0.804240	2.623874	0.499966
H81	H	0.420571	1.362192	-0.000001
H82	H	0.920571	1.862192	0.499999
H83	H	0.606319	1.979760	-0.000046
H84	H	1.106319	2.479760	0.499954
O85	O	0.489854	2.153674	-0.000063
O86	O	0.989854	2.653674	0.499937
H87	H	0.561538	2.128813	-0.000048
H88	H	1.061538	2.628813	0.499952
