data_functionalizedCrystal
_audit_creation_method	'MofGen! by Chris Wilmer'
_symmetry_space_group_name_H-M	'P1'
_symmetry_Int_Tables_number	1
_symmetry_cell_setting	triclinic
loop_
_symmetry_equiv_pos_as_xyz
  x,y,z
_cell_length_a	13.339070
_cell_length_b	15.995350
_cell_length_c	12.376457
_cell_angle_alpha	101.278656
_cell_angle_beta	75.589755
_cell_angle_gamma	99.560835
loop_
_atom_site_label
_atom_site_type_symbol
_atom_site_fract_x
_atom_site_fract_y
_atom_site_fract_z
O1	O	1.361687	0.408219	-0.094025
O2	O	1.861687	0.908219	0.405975
O3	O	1.067160	0.353123	-0.094021
O4	O	1.567160	0.853123	0.405979
O5	O	1.222474	0.260654	-0.094022
O6	O	1.722474	0.760654	0.405978
O7	O	1.206373	0.500688	-0.094024
O8	O	1.706373	1.000688	0.405976
O9	O	1.183660	0.283730	0.093990
O10	O	1.683660	0.783730	0.593990
O11	O	1.028345	0.376200	0.093991
O12	O	1.528345	0.876200	0.593991
O13	O	1.322873	0.431295	0.093987
O14	O	1.822873	0.931295	0.593987
Zn15	Zn	1.169446	0.407411	0.123840
Zn16	Zn	1.669446	0.907411	0.623840
Zn17	Zn	1.220586	0.377007	-0.123874
Zn18	Zn	1.720586	0.877007	0.376126
O19	O	1.167558	0.523765	0.093988
O20	O	1.667558	1.023765	0.593988
C21	C	1.010063	0.355354	-0.000015
C22	C	1.510063	0.855354	0.499985
C23	C	0.897761	0.327613	-0.000013
C24	C	1.397761	0.827613	0.499987
C25	C	0.532972	0.543314	-0.000033
C26	C	1.032972	1.043314	0.499967
C27	C	0.638486	0.569381	-0.000038
C28	C	1.138486	1.069381	0.499962
C29	C	0.703309	0.508941	-0.000031
C30	C	1.203309	1.008941	0.499969
C31	C	0.662609	0.422430	-0.000021
C32	C	1.162609	0.922430	0.499979
C33	C	0.557087	0.396360	-0.000025
C34	C	1.057087	0.896360	0.499975
C35	C	0.727425	0.361987	-0.000023
C36	C	1.227425	0.861987	0.499977
C37	C	0.686725	0.275476	-0.000013
C38	C	1.186725	0.775476	0.499987
C39	C	0.581212	0.249410	-0.000016
C40	C	1.081212	0.749410	0.499984
C41	C	0.516389	0.309850	-0.000023
C42	C	1.016389	0.809850	0.499977
C43	C	0.832947	0.388057	-0.000019
C44	C	1.332947	0.888057	0.499981
C45	C	0.857062	0.241103	-0.000011
C46	C	1.357062	0.741103	0.499989
C47	C	0.751549	0.215036	-0.000006
C48	C	1.251549	0.715036	0.499994
C49	C	1.202402	0.240842	-0.000018
C50	C	1.702402	0.740842	0.499982
C51	C	1.200407	0.147428	-0.000025
C52	C	1.700407	0.647428	0.499975
C53	C	1.193239	-0.191985	-0.000021
C54	C	1.693239	0.308015	0.499979
C55	C	1.082714	-0.170299	-0.000441
C56	C	1.582714	0.329701	0.499559
C57	C	1.084622	-0.073093	-0.000017
C58	C	1.584622	0.426907	0.499983
C59	C	1.196795	-0.023598	-0.000023
C60	C	1.696795	0.476402	0.499977
C61	C	1.229188	-0.038823	0.107338
C62	C	1.729188	0.461177	0.607338
C63	C	1.226391	-0.136094	0.107428
C64	C	1.726391	0.363906	0.607428
C65	C	1.272816	-0.162164	-0.106377
C66	C	1.772816	0.337836	0.393623
C67	C	1.273082	-0.065398	-0.107796
C68	C	1.773082	0.434602	0.392204
C69	C	1.198810	0.071568	-0.000021
C70	C	1.698810	0.571568	0.499979
C71	C	1.191226	-0.287149	-0.000015
C72	C	1.691226	0.212851	0.499985
C73	C	1.379970	0.429064	-0.000022
C74	C	1.879970	0.929064	0.499978
C75	C	1.492273	0.456804	-0.000031
C76	C	1.992273	0.956804	0.499969
C77	C	1.187631	0.543576	-0.000018
C78	C	1.687631	1.043576	0.499982
C79	C	1.189627	0.636990	-0.000019
C80	C	1.689627	1.136990	0.499981
N81	N	1.134551	0.428163	0.292899
N82	N	1.634551	0.928163	0.792899
N83	N	1.255489	0.356251	-0.292933
N84	N	1.755489	0.856251	0.207067
C85	C	1.336490	0.308063	0.647882
C86	C	1.836490	0.808063	1.147882
C87	C	1.360907	0.293538	0.529542
C88	C	1.860907	0.793538	1.029542
C89	C	1.304320	0.327193	0.470376
C90	C	1.804320	0.827193	0.970376
C91	C	1.223312	0.375376	0.529561
C92	C	1.723312	0.875376	1.029561
C93	C	1.198898	0.389908	0.647912
C94	C	1.698898	0.889908	1.147912
C95	C	1.166728	0.409038	0.470405
C96	C	1.666728	0.909038	0.970405
C97	C	1.085720	0.457221	0.529590
C98	C	1.585720	0.957221	1.029590
C99	C	1.061310	0.471751	0.647930
C100	C	1.561310	0.971751	1.147930
C101	C	1.117897	0.438096	0.707097
C102	C	1.617897	0.938096	1.207097
C103	C	1.191142	0.394505	0.352054
C104	C	1.691142	0.894505	0.852054
C105	C	1.053550	0.476350	0.352084
C106	C	1.553550	0.976350	0.852084
C107	C	1.029133	0.490876	0.470424
C108	C	1.529133	0.990876	0.970424
H109	H	0.548081	0.178966	-0.000020
H110	H	1.048081	0.678966	0.499980
H111	H	0.789223	0.530169	-0.000038
H112	H	1.289223	1.030169	0.499962
F113	F	1.330307	0.311731	0.344427
F114	F	1.830307	0.811731	0.844427
F115	F	0.708220	0.122967	0.000004
F116	F	1.208220	0.622967	0.500004
F117	F	1.158100	-0.000417	0.211774
F118	F	1.658100	0.499583	0.711774
F119	F	1.277354	0.343227	0.289078
F120	F	1.777354	0.843227	0.789078
F121	F	1.381752	-0.021518	-0.116282
F122	F	1.881752	0.478482	0.383718
F123	F	0.926049	0.176773	-0.000012
F124	F	1.426049	0.676773	0.499988
H125	H	1.057625	-0.064081	-0.076978
H126	H	1.557625	0.435919	0.423022
F127	F	1.045699	-0.220297	-0.101075
F128	F	1.545699	0.279703	0.398925
H129	H	0.963175	0.530108	0.518627
H130	H	1.463175	1.030108	1.018627
H131	H	1.249590	-0.057165	-0.187219
H132	H	1.749590	0.442835	0.312781
F133	F	0.463981	0.607626	-0.000055
F134	F	0.963981	1.107626	0.499945
H135	H	1.426864	0.254309	0.481358
H136	H	1.926864	0.754309	0.981358
F137	F	1.004431	-0.197342	0.099358
F138	F	1.504431	0.302658	0.599358
F139	F	1.007385	-0.037411	0.100747
F140	F	1.507385	0.462589	0.600747
F141	F	1.152730	-0.159223	0.212329
F142	F	1.652730	0.340777	0.712329
F143	F	0.993325	0.512174	0.289119
F144	F	1.493325	1.012174	0.789119
F145	F	1.331219	-0.152805	0.113802
F146	F	1.831219	0.347195	0.613802
F147	F	0.404086	0.282112	-0.000015
F148	F	0.904086	0.782112	0.499985
H149	H	0.995356	0.510992	0.696119
H150	H	1.495356	1.010992	1.196119
H151	H	0.671618	0.639816	-0.000055
H152	H	1.171618	1.139816	0.499945
H153	H	1.253451	-0.201093	-0.187751
H154	H	1.753451	0.298907	0.312249
H155	H	1.354519	-0.175067	-0.107103
H156	H	1.854519	0.324933	0.392897
H157	H	1.382561	0.280671	0.696064
H158	H	1.882561	0.780671	1.196064
H159	H	1.098014	0.449919	0.803459
H160	H	1.598014	0.949919	1.303459
H161	H	1.310774	-0.005063	0.111327
H162	H	1.810774	0.494937	0.611327
H163	H	0.866073	0.458495	-0.000023
H164	H	1.366073	0.958495	0.499977
