data_functionalizedCrystal
_audit_creation_method	'MofGen! by Chris Wilmer'
_symmetry_space_group_name_H-M	'P1'
_symmetry_Int_Tables_number	1
_symmetry_cell_setting	triclinic
loop_
_symmetry_equiv_pos_as_xyz
  x,y,z
_cell_length_a	21.295420
_cell_length_b	21.295416
_cell_length_c	16.625539
_cell_angle_alpha	89.969100
_cell_angle_beta	90.020640
_cell_angle_gamma	89.973887
loop_
_atom_site_label
_atom_site_type_symbol
_atom_site_fract_x
_atom_site_fract_y
_atom_site_fract_z
Zn1	Zn	0.962332	0.250679	0.455896
Zn2	Zn	1.295665	0.584012	0.789230
Zn3	Zn	1.628998	0.917346	1.122563
Zn4	Zn	0.962242	0.355952	0.321057
Zn5	Zn	1.295575	0.689286	0.654391
Zn6	Zn	1.628908	1.022619	0.987724
Zn7	Zn	0.857062	0.250693	0.321077
Zn8	Zn	1.190395	0.584027	0.654410
Zn9	Zn	1.523729	0.917360	0.987743
Zn10	Zn	0.857024	0.355906	0.455847
Zn11	Zn	1.190358	0.689240	0.789180
Zn12	Zn	1.523691	1.022573	1.122514
O13	O	0.909665	0.303308	0.388469
O14	O	1.242998	0.636641	0.721803
O15	O	1.576332	0.969974	1.055136
O16	O	1.050409	0.264657	0.438022
O17	O	1.383742	0.597990	0.771355
O18	O	1.717076	0.931324	1.104689
O19	O	0.948267	0.342015	0.208227
O20	O	1.281601	0.675348	0.541561
O21	O	1.614934	1.008681	0.874894
O22	O	0.871080	0.162602	0.338989
O23	O	1.204413	0.495935	0.672323
O24	O	1.537746	0.829269	1.005656
O25	O	1.050343	0.342001	0.338957
O26	O	1.383676	0.675334	0.672290
O27	O	1.717010	1.008667	1.005623
O28	O	0.948421	0.162591	0.438041
O29	O	1.281754	0.495925	0.771374
O30	O	1.615087	0.829258	1.104707
O31	O	0.870992	0.264681	0.208242
O32	O	1.204326	0.598015	0.541575
O33	O	1.537659	0.931348	0.874908
O34	O	0.768968	0.264637	0.338942
O35	O	1.102301	0.597970	0.672275
O36	O	1.435634	0.931303	1.005608
O37	O	0.871016	0.341923	0.568686
O38	O	1.204349	0.675256	0.902019
O39	O	1.537682	1.008589	1.235353
O40	O	0.768940	0.341936	0.437957
O41	O	1.102273	0.675270	0.771290
O42	O	1.435607	1.008603	1.104624
O43	O	0.948384	0.264612	0.568722
O44	O	1.281718	0.597946	0.902056
O45	O	1.615051	0.931279	1.235389
O46	O	0.948231	0.444036	0.338909
O47	O	1.281564	0.777369	0.672242
O48	O	1.614898	1.110702	1.005576
O49	O	0.870928	0.444002	0.437938
O50	O	1.204262	0.777335	0.771272
O51	O	1.537595	1.110669	1.104605
C52	C	0.746113	0.303284	0.388447
C53	C	1.079447	0.636617	0.721780
C54	C	1.412780	0.969950	1.055113
C55	C	0.676145	0.303288	0.388456
C56	C	1.009479	0.636622	0.721789
C57	C	1.342812	0.969955	1.055123
C58	C	0.176721	0.263130	0.440149
C59	C	0.510054	0.596463	0.773482
C60	C	0.843388	0.929796	1.106815
C61	C	0.242464	0.263125	0.440149
C62	C	0.575797	0.596458	0.773482
C63	C	0.909130	0.929792	1.106815
C64	C	0.275306	0.303327	0.388488
C65	C	0.608639	0.636660	0.721821
C66	C	0.941972	0.969994	1.055155
C67	C	0.242400	0.343548	0.336838
C68	C	0.575733	0.676881	0.670172
C69	C	0.909067	1.010215	1.003505
C70	C	0.176659	0.343556	0.336846
C71	C	0.509992	0.676889	0.670179
C72	C	0.843325	1.010223	1.003512
N73	N	0.378499	0.308074	0.317886
N74	N	0.711833	0.641407	0.651220
N75	N	1.045166	0.974740	0.984553
N76	N	0.440951	0.308063	0.317882
N77	N	0.774284	0.641396	0.651215
N78	N	1.107618	0.974729	0.984548
C79	C	0.473380	0.303306	0.388464
C80	C	0.806714	0.636639	0.721798
C81	C	1.140047	0.969973	1.055131
N82	N	0.440999	0.298549	0.459053
N83	N	0.774333	0.631883	0.792387
N84	N	1.107666	0.965216	1.125720
N85	N	0.378542	0.298557	0.459057
N86	N	0.711875	0.631891	0.792390
N87	N	1.045209	0.965224	1.125724
C88	C	0.346591	0.303323	0.388475
C89	C	0.679924	0.636656	0.721808
C90	C	1.013258	0.969990	1.055142
C91	C	0.577564	0.263086	0.440115
C92	C	0.910897	0.596419	0.773448
C93	C	1.244230	0.929752	1.106781
C94	C	0.643308	0.263085	0.440116
C95	C	0.976641	0.596419	0.773449
C96	C	1.309974	0.929752	1.106783
C97	C	0.643243	0.343505	0.336799
C98	C	0.976576	0.676838	0.670132
C99	C	1.309909	1.010172	1.003465
C100	C	0.577500	0.343509	0.336805
C101	C	0.910834	0.676842	0.670138
C102	C	1.244167	1.010175	1.003471
C103	C	0.544665	0.303296	0.388461
C104	C	0.877998	0.636629	0.721795
C105	C	1.211331	0.969962	1.055128
C106	C	0.909583	0.466859	0.388434
C107	C	1.242916	0.800193	0.721767
C108	C	1.576250	1.133526	1.055100
C109	C	0.909605	0.536827	0.388445
C110	C	1.242939	0.870161	0.721779
C111	C	1.576272	1.203494	1.055112
C112	C	0.949893	0.569691	0.336936
C113	C	1.283226	0.903024	0.670269
C114	C	1.616559	1.236357	1.003602
C115	C	0.949922	0.635433	0.336957
C116	C	1.283256	0.968767	0.670291
C117	C	1.616589	1.302100	1.003624
C118	C	0.909654	0.668310	0.388481
C119	C	1.242987	1.001643	0.721814
C120	C	1.576320	1.334977	1.055147
C121	C	0.869363	0.635439	0.440001
C122	C	1.202697	0.968772	0.773334
C123	C	1.536030	1.302105	1.106667
C124	C	0.869339	0.569697	0.439983
C125	C	1.202673	0.903031	0.773316
C126	C	1.536006	1.236364	1.106650
N127	N	0.854587	0.771572	0.394625
N128	N	1.187920	1.104905	0.727959
N129	N	1.521253	1.438238	1.061292
N130	N	0.854611	0.834023	0.394637
N131	N	1.187945	1.167356	0.727971
N132	N	1.521278	1.500690	1.061304
C133	C	0.909725	0.866385	0.388538
C134	C	1.243058	1.199718	0.721871
C135	C	1.576391	1.533051	1.055204
N136	N	0.964814	0.833936	0.382410
N137	N	1.298147	1.167269	0.715743
N138	N	1.631480	1.500602	1.049077
N139	N	0.964788	0.771478	0.382394
N140	N	1.298122	1.104812	0.715727
N141	N	1.631455	1.438145	1.049060
C142	C	0.909675	0.739595	0.388506
C143	C	1.243009	1.072929	0.721839
C144	C	1.576342	1.406262	1.055172
C145	C	0.950048	0.970533	0.337049
C146	C	1.283381	1.303867	0.670382
C147	C	1.616714	1.637200	1.003715
C148	C	0.950078	1.036277	0.337076
C149	C	1.283412	1.369610	0.670409
C150	C	1.616745	1.702944	1.003743
C151	C	0.869514	1.036281	0.440115
C152	C	1.202847	1.369615	0.773448
C153	C	1.536180	1.702948	1.106782
C154	C	0.869489	0.970539	0.440092
C155	C	1.202822	1.303872	0.773425
C156	C	1.536155	1.637206	1.106759
C157	C	0.909755	0.937669	0.388554
C158	C	1.243088	1.271002	0.721888
C159	C	1.576421	1.604336	1.055221
C160	C	1.073855	0.303332	0.388493
C161	C	1.407188	0.636666	0.721826
C162	C	1.740522	0.969999	1.055159
C163	C	1.143823	0.303343	0.388503
C164	C	1.477157	0.636676	0.721836
C165	C	1.810490	0.970010	1.055169
C166	C	0.909706	0.303261	0.598778
C167	C	1.243039	0.636594	0.932112
C168	C	1.576373	0.969927	1.265445
C169	C	0.909723	0.303241	0.688400
C170	C	1.243057	0.636574	1.021733
C171	C	1.576390	0.969908	1.355066
C172	C	0.909765	1.139117	0.388537
C173	C	1.243099	1.472451	0.721870
C174	C	1.576432	1.805784	1.055203
C175	C	0.909810	1.069149	0.388601
C176	C	1.243143	1.402483	0.721934
C177	C	1.576477	1.735816	1.055267
C178	C	0.909660	0.303309	0.178979
C179	C	1.242994	0.636642	0.512312
C180	C	1.576327	0.969976	0.845645
C181	C	0.909765	0.303152	0.089358
C182	C	1.243098	0.636485	0.422691
C183	C	1.576432	0.969818	0.756025
C184	C	0.909752	0.303170	1.016575
C185	C	1.243086	0.636504	1.349909
C186	C	1.576419	0.969837	1.683242
C187	C	0.909742	0.303192	0.925267
C188	C	1.243076	0.636525	1.258600
C189	C	1.576409	0.969859	1.591934
C190	C	0.909738	0.303206	0.852490
C191	C	1.243071	0.636539	1.185824
C192	C	1.576405	0.969873	1.519157
C193	C	0.909728	0.303227	0.761176
C194	C	1.243061	0.636560	1.094509
C195	C	1.576394	0.969893	1.427843
H196	H	0.550828	0.230342	0.482177
H197	H	0.884161	0.563675	0.815510
H198	H	1.217494	0.897009	1.148843
H199	H	0.670092	0.230341	0.482178
H200	H	1.003425	0.563674	0.815512
H201	H	1.336758	0.897008	1.148845
Br202	Br	1.004548	0.525084	0.267003
Br203	Br	1.337881	0.858417	0.600337
Br204	Br	1.671214	1.191751	0.933670
Br205	Br	0.286970	0.398113	0.266733
Br206	Br	0.620303	0.731446	0.600066
Br207	Br	0.953636	1.064779	0.933400
Br208	Br	0.287121	0.208546	0.510244
Br209	Br	0.620454	0.541879	0.843577
Br210	Br	0.953787	0.875212	1.176911
Br211	Br	1.004766	1.080879	0.267172
Br212	Br	1.338099	1.414212	0.600505
Br213	Br	1.671432	1.747546	0.933838
Br214	Br	0.814660	0.525094	0.509896
Br215	Br	1.147994	0.858427	0.843229
Br216	Br	1.481327	1.191761	1.176563
H217	H	0.982837	0.943770	0.295086
H218	H	1.316170	1.277103	0.628419
H219	H	1.649503	1.610436	0.961753
Br220	Br	0.532850	0.398078	0.266698
Br221	Br	0.866183	0.731411	0.600031
Br222	Br	1.199517	1.064744	0.933364
Br223	Br	0.687807	0.398073	0.266696
Br224	Br	1.021140	0.731407	0.600029
Br225	Br	1.354474	1.064740	0.933362
H226	H	0.982731	0.662196	0.295012
H227	H	1.316065	0.995529	0.628345
H228	H	1.649398	1.328862	0.961679
H229	H	0.836729	1.063049	0.482070
H230	H	1.170062	1.396382	0.815403
H231	H	1.503396	1.729716	1.148737
Br232	Br	0.814717	0.680055	0.509932
Br233	Br	1.148051	1.013388	0.843265
Br234	Br	1.481384	1.346722	1.176599
Br235	Br	0.132008	0.398133	0.266747
Br236	Br	0.465342	0.731467	0.600080
Br237	Br	0.798675	1.064800	0.933413
Br238	Br	0.814808	0.925935	0.510000
Br239	Br	1.148142	1.259269	0.843334
Br240	Br	1.481475	1.592602	1.176667
Br241	Br	0.132161	0.208560	0.510260
Br242	Br	0.465495	0.541893	0.843593
Br243	Br	0.798828	0.875226	1.176926
