data_functionalizedCrystal
_audit_creation_method	'MofGen! by Chris Wilmer'
_symmetry_space_group_name_H-M	'P1'
_symmetry_Int_Tables_number	1
_symmetry_cell_setting	triclinic
loop_
_symmetry_equiv_pos_as_xyz
  x,y,z
_cell_length_a	17.699077
_cell_length_b	17.699091
_cell_length_c	16.176319
_cell_angle_alpha	89.997684
_cell_angle_beta	90.005422
_cell_angle_gamma	96.716674
loop_
_atom_site_label
_atom_site_type_symbol
_atom_site_fract_x
_atom_site_fract_y
_atom_site_fract_z
O1	O	1.004083	-0.095688	0.068733
O2	O	0.783704	-0.108145	0.068737
O3	O	0.900117	0.008273	0.068732
O4	O	0.887670	-0.212105	0.068739
O5	O	0.900103	0.008273	-0.068761
O6	O	0.783691	-0.108145	-0.068756
O7	O	1.004069	-0.095687	-0.068760
Cu8	Cu	0.893879	-0.101916	-0.081312
Cu9	Cu	0.893895	-0.101916	0.081290
O10	O	0.887657	-0.212105	-0.068755
C11	C	0.755500	-0.107699	-0.000009
C12	C	0.671482	-0.106362	-0.000007
C13	C	0.632007	-0.105732	-0.074956
C14	C	0.553065	-0.104464	-0.074957
C15	C	0.513598	-0.103831	-0.000008
C16	C	0.553078	-0.104459	0.074946
C17	C	0.632020	-0.105722	0.074946
C18	C	0.234715	-0.099366	0.074947
C19	C	0.155767	-0.098105	0.074942
C20	C	0.155759	-0.098108	-0.074955
C21	C	0.234701	-0.099371	-0.074955
C22	C	0.274176	-0.099994	-0.000002
C23	C	0.359774	-0.101368	-0.000002
C24	C	0.428000	-0.102463	-0.000008
C25	C	0.899663	0.036470	-0.000013
C26	C	0.898322	0.120487	-0.000010
C27	C	1.032273	-0.096133	-0.000012
C28	C	1.116292	-0.097470	-0.000008
C29	C	0.897702	0.159955	0.074938
C30	C	0.896437	0.238898	0.074938
C31	C	0.895798	0.278373	-0.000011
C32	C	0.896417	0.238900	-0.074965
C33	C	0.897676	0.159957	-0.074964
C34	C	0.891337	0.557265	-0.074969
C35	C	0.890080	0.636213	-0.074964
C36	C	0.890098	0.636205	0.074933
C37	C	0.891357	0.557263	0.074933
C38	C	0.891972	0.517796	-0.000020
C39	C	0.893342	0.432197	-0.000019
C40	C	0.894434	0.363971	-0.000013
N41	N	0.893873	-0.101915	-0.195677
C42	C	0.888111	0.759698	-0.000010
C43	C	0.889454	0.675681	-0.000015
C44	C	0.939689	-0.147763	-0.238937
C45	C	0.939697	-0.147760	-0.325484
C46	C	0.893885	-0.101913	-0.368770
C47	C	0.848067	-0.056060	-0.325504
C48	C	0.848063	-0.056060	-0.238958
C49	C	0.848081	-0.056061	-0.674532
C50	C	0.848086	-0.056067	-0.761084
C51	C	0.939715	-0.147761	-0.761058
C52	C	0.939711	-0.147761	-0.674513
C53	C	0.893897	-0.101905	-0.631254
C54	C	0.893889	-0.101908	-0.537410
C55	C	0.893887	-0.101914	-0.462612
N56	N	0.893907	-0.101911	0.195655
H57	H	0.123635	-0.097590	0.135977
Br58	Br	0.895538	0.292470	-0.176683
Br59	Br	0.898514	0.106393	-0.176683
H60	H	0.266846	-0.099871	0.135979
H61	H	0.664159	-0.106237	0.135977
H62	H	0.977014	-0.185097	-0.639274
Br63	Br	1.001894	-0.209995	-0.819771
H64	H	0.664135	-0.106254	-0.135988
H65	H	0.810769	-0.018727	-0.360754
H66	H	0.895935	0.271029	0.135968
H67	H	0.810755	-0.018726	-0.203737
H68	H	0.977007	-0.185092	-0.360703
H69	H	0.898226	0.127820	0.135970
H70	H	0.520929	-0.103938	-0.135987
Br71	Br	0.785906	0.006157	-0.819828
H72	H	0.266831	-0.099890	-0.135986
Br73	Br	0.102183	-0.097260	-0.176681
Br74	Br	0.889215	0.689786	-0.176687
Br75	Br	0.785872	0.006140	-0.615835
H76	H	0.520939	-0.103939	0.135970
Br77	Br	0.892230	0.503694	0.176653
H78	H	0.889594	0.668348	0.135963
H79	H	0.891853	0.525142	-0.136001
H80	H	0.976991	-0.185101	-0.203700
