data_functionalizedCrystal
_audit_creation_method	'MofGen! by Chris Wilmer'
_symmetry_space_group_name_H-M	'P1'
_symmetry_Int_Tables_number	1
_symmetry_cell_setting	triclinic
loop_
_symmetry_equiv_pos_as_xyz
  x,y,z
_cell_length_a	17.077404
_cell_length_b	18.101395
_cell_length_c	17.077396
_cell_angle_alpha	89.971698
_cell_angle_beta	89.982756
_cell_angle_gamma	90.031329
loop_
_atom_site_label
_atom_site_type_symbol
_atom_site_fract_x
_atom_site_fract_y
_atom_site_fract_z
Zn1	Zn	1.199992	-0.294819	-0.443848
Zn2	Zn	1.699992	0.205181	0.056152
Zn3	Zn	1.199886	-0.418670	-0.312585
Zn4	Zn	1.699886	0.081330	0.187415
Zn5	Zn	1.068729	-0.294847	-0.312596
Zn6	Zn	1.568729	0.205153	0.187404
Zn7	Zn	1.068673	-0.418624	-0.443808
Zn8	Zn	1.568673	0.081376	0.056192
O9	O	1.134320	-0.356740	-0.378209
O10	O	1.634320	0.143260	0.121791
O11	O	1.309825	-0.311256	-0.426448
O12	O	1.809825	0.188744	0.073552
O13	O	1.182466	-0.402275	-0.202739
O14	O	1.682466	0.097725	0.297261
O15	O	1.086210	-0.191210	-0.330029
O16	O	1.586210	0.308790	0.169971
O17	O	1.309747	-0.402248	-0.330009
O18	O	1.809747	0.097752	0.169991
O19	O	1.182648	-0.191190	-0.426459
O20	O	1.682648	0.308810	0.073541
O21	O	1.086106	-0.311303	-0.202748
O22	O	1.586106	0.188697	0.297252
O23	O	0.958875	-0.311259	-0.329990
O24	O	1.458875	0.188741	0.170010
O25	O	1.086114	-0.402170	-0.553660
O26	O	1.586114	0.097830	-0.053660
O27	O	0.958834	-0.402197	-0.426391
O28	O	1.458834	0.097803	0.073609
O29	O	1.182594	-0.311211	-0.553690
O30	O	1.682594	0.188789	-0.053690
O31	O	1.182412	-0.522296	-0.329970
O32	O	1.682412	-0.022296	0.170030
O33	O	1.086011	-0.522263	-0.426379
O34	O	1.586011	-0.022263	0.073621
C35	C	0.930372	-0.356726	-0.378188
C36	C	1.430372	0.143274	0.121812
C37	C	0.843123	-0.356738	-0.378197
C38	C	1.343123	0.143262	0.121803
C39	C	0.802131	-0.404162	-0.428312
C40	C	1.302131	0.095838	0.071688
C41	C	0.720151	-0.404163	-0.428325
C42	C	1.220151	0.095837	0.071675
C43	C	0.679163	-0.356745	-0.378218
C44	C	1.179163	0.143255	0.121782
C45	C	0.720160	-0.309317	-0.328100
C46	C	1.220160	0.190683	0.171900
C47	C	0.802139	-0.309312	-0.328092
C48	C	1.302139	0.190688	0.171908
C49	C	0.549290	-0.309331	-0.328119
C50	C	1.049290	0.190669	0.171881
C51	C	0.467305	-0.309337	-0.328126
C52	C	0.967305	0.190663	0.171874
C53	C	0.467302	-0.404183	-0.428352
C54	C	0.967302	0.095817	0.071648
C55	C	0.549281	-0.404178	-0.428344
C56	C	1.049281	0.095822	0.071656
C57	C	0.590272	-0.356750	-0.378225
C58	C	1.090272	0.143250	0.121775
C59	C	1.134215	-0.549150	-0.378186
C60	C	1.634215	-0.049150	0.121814
C61	C	1.134242	-0.631464	-0.378203
C62	C	1.634242	-0.131464	0.121797
C63	C	1.134414	-0.930555	-0.378245
C64	C	1.634414	-0.430555	0.121755
C65	C	1.073902	-0.899240	-0.439054
C66	C	1.573902	-0.399240	0.060946
C67	C	1.073614	-0.813622	-0.438863
C68	C	1.573614	-0.313622	0.061137
C69	C	1.134329	-0.782173	-0.378225
C70	C	1.634329	-0.282173	0.121775
C71	C	1.111935	-0.813326	-0.295495
C72	C	1.611935	-0.313326	0.204505
C73	C	1.111545	-0.898971	-0.295859
C74	C	1.611545	-0.398971	0.204141
C75	C	1.217453	-0.898898	-0.399437
C76	C	1.717453	-0.398898	0.100563
C77	C	1.216965	-0.813247	-0.401252
C78	C	1.716965	-0.313247	0.098748
C79	C	1.134282	-0.698313	-0.378208
C80	C	1.634282	-0.198313	0.121792
C81	C	1.134459	-1.014415	-0.378256
C82	C	1.634459	-0.514415	0.121744
C83	C	1.339064	-0.356754	-0.378231
C84	C	1.839064	0.143246	0.121769
C85	C	1.426314	-0.356760	-0.378241
C86	C	1.926314	0.143240	0.121759
C87	C	1.134360	-0.356682	-0.582954
C88	C	1.634360	0.143318	-0.082954
C89	C	1.134376	-0.356658	-0.670203
C90	C	1.634376	0.143342	-0.170203
C91	C	1.134447	-0.163578	-0.378250
C92	C	1.634447	0.336422	0.121750
C93	C	1.134501	-0.081264	-0.378267
C94	C	1.634501	0.418736	0.121733
C95	C	1.084217	-0.309283	-0.711197
C96	C	1.584217	0.190717	-0.211197
C97	C	1.084230	-0.309266	-0.793178
C98	C	1.584230	0.190734	-0.293178
C99	C	1.134407	-0.356621	-0.834163
C100	C	1.634407	0.143379	-0.334163
C101	C	1.184568	-0.404001	-0.793163
C102	C	1.684568	0.095999	-0.293163
C103	C	1.184551	-0.404021	-0.711184
C104	C	1.684551	0.095979	-0.211184
C105	C	1.184602	-0.403955	-0.964033
C106	C	1.684602	0.096045	-0.464033
C107	C	1.184621	-0.403934	-1.046018
C108	C	1.684621	0.096066	-0.546018
C109	C	1.084281	-0.309200	-1.046027
C110	C	1.584281	0.190800	-0.546027
C111	C	1.084264	-0.309220	-0.964048
C112	C	1.584264	0.190780	-0.464048
C113	C	1.134427	-0.356599	-0.923054
C114	C	1.634427	0.143401	-0.423054
C115	C	1.134326	-0.356744	-0.174261
C116	C	1.634326	0.143256	0.325739
C117	C	1.134461	-0.356559	-0.087012
C118	C	1.634461	0.143441	0.412988
H119	H	0.582662	-0.270704	-0.287314
H120	H	1.082662	0.229296	0.212686
H121	H	1.043362	-0.270717	-0.677833
H122	H	1.543362	0.229283	-0.177833
F123	F	0.845747	-0.454635	-0.481641
F124	F	1.345747	0.045365	0.018359
F125	F	1.030814	-0.258871	-0.836803
F126	F	1.530814	0.241129	-0.336803
F127	F	1.237966	-0.454404	-0.836785
F128	F	1.737966	0.045596	-0.336785
H129	H	1.043409	-0.270656	-0.930680
H130	H	1.543409	0.229344	-0.430680
H131	H	0.433923	-0.442798	-0.469163
H132	H	0.933923	0.057202	0.030837
F133	F	1.238029	-0.454330	-1.089636
F134	F	1.738029	0.045670	-0.589636
F135	F	1.091925	-0.786086	-0.519044
F136	F	1.591925	-0.286086	-0.019044
H137	H	0.433935	-0.270716	-0.287333
H138	H	0.933935	0.229284	0.212667
F139	F	1.167730	-0.786703	-0.234658
F140	F	1.667730	-0.286703	0.265342
H141	H	0.686780	-0.442780	-0.469133
H142	H	1.186780	0.057220	0.030867
F143	F	1.237935	-0.454447	-0.667556
F144	F	1.737935	0.045553	-0.167556
F145	F	1.030895	-0.258774	-1.089657
F146	F	1.530895	0.241226	-0.589657
F147	F	1.092029	-0.926097	-0.519495
F148	F	1.592029	-0.426097	-0.019495
H149	H	1.012726	-0.920827	-0.425192
H150	H	1.512726	-0.420827	0.074808
F151	F	1.237988	-0.454385	-0.920406
F152	F	1.737988	0.045615	-0.420406
H153	H	0.582651	-0.442794	-0.469141
H154	H	1.082651	0.057206	0.030859
H155	H	1.153708	-0.919689	-0.249007
H156	H	1.653708	-0.419689	0.250993
F157	F	0.676535	-0.258846	-0.274777
F158	F	1.176535	0.241154	0.225223
H159	H	0.835513	-0.270691	-0.287287
H160	H	1.335513	0.229309	0.212713
H161	H	1.012064	-0.793199	-0.424826
H162	H	1.512064	-0.293199	0.075174
H163	H	1.051877	-0.791941	-0.277221
H164	H	1.551877	-0.291941	0.222779
F165	F	1.032205	-0.925171	-0.272395
F166	F	1.532205	-0.425171	0.227605
F167	F	1.239040	-0.786631	-0.480832
F168	F	1.739040	-0.286631	0.019168
F169	F	1.244140	-0.927061	-0.476945
F170	F	1.744140	-0.427061	0.023055
H171	H	1.262537	-0.919149	-0.355148
H172	H	1.762537	-0.419149	0.144852
F173	F	1.279014	-0.785256	-0.347586
F174	F	1.779014	-0.285256	0.152414
