data_functionalizedCrystal
_audit_creation_method	'MofGen! by Chris Wilmer'
_symmetry_space_group_name_H-M	'P1'
_symmetry_Int_Tables_number	1
_symmetry_cell_setting	triclinic
loop_
_symmetry_equiv_pos_as_xyz
  x,y,z
_cell_length_a	8.559649
_cell_length_b	11.026607
_cell_length_c	7.681481
_cell_angle_alpha	82.996689
_cell_angle_beta	94.913240
_cell_angle_gamma	89.182341
loop_
_atom_site_label
_atom_site_type_symbol
_atom_site_fract_x
_atom_site_fract_y
_atom_site_fract_z
O1	O	2.097103	-0.027535	-0.146401
O2	O	1.649454	0.033500	-0.146409
O3	O	1.836178	-0.170213	-0.146399
O4	O	1.910379	0.176178	-0.146411
O5	O	1.859146	-0.195338	0.146460
O6	O	1.672422	0.008376	0.146450
O7	O	2.120071	-0.052659	0.146458
Zn8	Zn	1.899893	-0.026131	0.192952
Zn9	Zn	1.869632	0.006971	-0.192903
O10	O	1.933347	0.151054	0.146448
C11	C	1.602739	0.025563	0.000020
C12	C	1.429318	0.039332	0.000016
C13	C	1.833973	-0.226711	0.000028
C14	C	1.793166	-0.357621	0.000021
C15	C	1.905841	-0.441927	0.000020
C16	C	1.863667	-0.577231	0.000013
C17	C	2.166786	-0.044722	0.000026
C18	C	2.340205	-0.058490	0.000017
C19	C	1.935551	0.207552	0.000017
C20	C	1.976358	0.338463	0.000013
N21	N	1.920557	-0.048724	0.456287
N22	N	1.848978	0.029554	-0.456238
H23	H	1.372932	0.133621	0.000004
O24	O	2.058101	-0.408345	0.000104
C25	C	2.066310	-0.280724	0.000062
H26	H	1.957478	-0.245335	0.055502
H27	H	2.072645	-0.235038	-0.140437
C28	C	2.347405	-0.294305	0.046822
C29	C	2.213741	-0.250841	0.114930
H30	H	2.438350	-0.275870	0.117671
H31	H	2.341876	-0.380285	0.046844
H32	H	2.352662	-0.256229	-0.070259
H33	H	2.208475	-0.288928	0.231999
H34	H	2.219272	-0.164866	0.114930
H35	H	1.665478	-0.385611	0.000007
O36	O	1.711410	-0.610820	0.000082
C37	C	1.703193	-0.738432	0.000027
H38	H	1.820719	-0.783339	0.055473
H39	H	1.674826	-0.760000	-0.140477
C40	C	1.429429	-0.732876	0.046764
C41	C	1.573774	-0.788032	0.114879
H42	H	1.349593	-0.763473	0.117603
H43	H	1.434962	-0.646900	0.046795
H44	H	1.405812	-0.750854	-0.070320
H45	H	1.597398	-0.770042	0.231952
H46	H	1.568241	-0.874006	0.114870
H47	H	1.993646	-0.128621	0.531497
H48	H	1.396583	-0.152771	0.000012
O49	O	1.761584	0.124827	0.454253
C50	C	1.605484	0.116235	0.499164
H51	H	1.602924	0.059282	0.633067
H52	H	1.532264	0.070765	0.395452
C53	C	1.540481	0.315155	0.342977
C54	C	1.537338	0.245213	0.507447
H55	H	1.498441	0.394715	0.348079
H56	H	1.645647	0.320943	0.312713
H57	H	1.479466	0.277249	0.256568
H58	H	1.598368	0.283111	0.593848
H59	H	1.432180	0.239435	0.537726
O60	O	2.128627	-0.627999	-0.000218
C61	C	2.147048	-0.545461	-0.151913
H62	H	2.029196	-0.499102	-0.202482
H63	H	2.191998	-0.597173	-0.258120
C64	C	2.410399	-0.505007	-0.043726
C65	C	2.265653	-0.448061	-0.105828
H66	H	2.483565	-0.444929	-0.015304
H67	H	2.397992	-0.560618	0.058471
H68	H	2.447836	-0.548099	-0.132243
H69	H	2.228209	-0.404984	-0.017304
H70	H	2.278057	-0.392440	-0.208010
