data_functionalizedCrystal
_audit_creation_method	'MofGen! by Chris Wilmer'
_symmetry_space_group_name_H-M	'P1'
_symmetry_Int_Tables_number	1
_symmetry_cell_setting	triclinic
loop_
_symmetry_equiv_pos_as_xyz
  x,y,z
_cell_length_a	12.759399
_cell_length_b	12.759401
_cell_length_c	12.759401
_cell_angle_alpha	89.996760
_cell_angle_beta	90.010338
_cell_angle_gamma	89.986329
loop_
_atom_site_label
_atom_site_type_symbol
_atom_site_fract_x
_atom_site_fract_y
_atom_site_fract_z
Zn1	Zn	-0.418475	-1.606080	0.594012
Zn2	Zn	-0.594129	-1.606022	0.418332
Zn3	Zn	-0.418459	-1.430432	0.418348
Zn4	Zn	-0.594107	-1.430368	0.593970
O5	O	-0.506292	-1.518226	0.506166
O6	O	-0.441792	-1.753093	0.570718
O7	O	-0.570829	-1.582732	0.271313
O8	O	-0.271440	-1.453783	0.441674
O9	O	-0.570844	-1.753051	0.441647
O10	O	-0.271452	-1.582831	0.570733
O11	O	-0.441765	-1.453727	0.271325
O12	O	-0.441743	-1.283403	0.441634
O13	O	-0.570806	-1.453674	0.740997
O14	O	-0.570791	-1.283356	0.570663
O15	O	-0.441770	-1.582769	0.741027
O16	O	-0.741147	-1.582670	0.441607
O17	O	-0.741131	-1.453618	0.570648
C18	C	-0.506263	-1.245258	0.506146
C19	C	-0.506276	-1.128482	0.506163
C20	C	-0.573577	-1.073623	0.573236
C21	C	-0.573586	-0.963899	0.573246
C22	C	-0.438992	-0.963902	0.439099
C23	C	-0.438978	-1.073624	0.439096
C24	C	-0.651288	-1.073620	0.650681
C25	C	-0.651297	-0.963896	0.650691
C26	C	-0.779260	-1.518159	0.506144
C27	C	-0.896036	-1.518227	0.506170
C28	C	-1.060538	-1.585458	0.573465
C29	C	-0.950814	-1.585394	0.573433
C30	C	-0.950989	-1.451127	0.438927
C31	C	-1.060711	-1.451198	0.438954
C32	C	-1.060435	-1.662973	0.651124
C33	C	-0.950711	-1.662909	0.651093
C34	C	-0.232259	-1.518321	0.506210
C35	C	-0.115482	-1.518361	0.506229
C36	C	-0.506287	-1.518221	0.780199
C37	C	-0.506285	-1.518219	0.896976
C38	C	-0.506313	-0.792259	0.506181
C39	C	-0.506300	-0.909036	0.506176
C40	C	-0.439110	-1.585432	0.951855
C41	C	-0.439112	-1.585426	1.061579
C42	C	-0.573474	-1.450990	1.061534
C43	C	-0.573466	-1.450992	0.951812
C44	C	-0.361540	-1.663051	0.951882
C45	C	-0.361542	-1.663045	1.061606
C46	C	-0.506314	-1.518219	1.233198
C47	C	-0.506296	-1.518211	1.116422
H48	H	-0.629619	-1.103405	0.732089
H49	H	-0.384199	-0.919224	0.384497
H50	H	-0.728530	-1.107641	0.621398
H51	H	-0.384168	-1.118286	0.384486
O52	O	-0.616697	-0.923474	0.743047
C53	C	-0.551520	-0.959915	0.916529
C54	C	-0.590713	-1.005834	0.812007
H55	H	-0.530480	-1.026480	0.972304
H56	H	-0.615771	-0.909656	0.952993
H57	H	-0.479218	-0.909601	0.901637
H58	H	-0.662996	-1.056195	0.826809
H59	H	-0.526399	-1.056033	0.775575
O60	O	-0.897830	-1.385993	0.373436
C61	C	-0.864435	-1.335072	0.194673
C62	C	-0.924679	-1.408923	0.268721
H63	H	-0.886136	-1.353570	0.109997
H64	H	-0.776562	-1.346549	0.206107
H65	H	-0.886062	-1.250362	0.213111
H66	H	-0.903139	-1.493662	0.250329
H67	H	-1.012537	-1.397355	0.257273
H68	H	-0.628162	-1.396257	0.907134
H69	H	-0.732637	-0.934105	0.628758
O70	O	-0.638622	-1.385545	1.114759
C71	C	-0.689644	-1.206815	1.148254
C72	C	-0.615779	-1.280812	1.087934
H73	H	-0.671216	-1.122125	1.126572
H74	H	-0.678106	-1.218265	1.236115
H75	H	-0.774355	-1.225290	1.126676
H76	H	-0.531040	-1.262383	1.109425
H77	H	-0.627408	-1.269348	1.000088
O78	O	-0.396168	-1.755246	0.911143
C79	C	-0.356016	-1.904782	0.803012
C80	C	-0.316673	-1.800383	0.849060
H81	H	-0.291757	-1.941316	0.752825
H82	H	-0.428289	-1.889819	0.752634
H83	H	-0.377113	-1.960540	0.869557
H84	H	-0.295517	-1.744574	0.782581
H85	H	-0.244437	-1.815427	0.899466
O86	O	-1.114033	-1.385873	0.373746
C87	C	-1.147721	-1.207231	0.322533
C88	C	-1.087290	-1.281094	0.396467
H89	H	-1.126105	-1.122503	0.340862
H90	H	-1.235565	-1.218720	0.334104
H91	H	-1.126175	-1.225802	0.237838
H92	H	-1.108748	-1.262569	0.481190
H93	H	-0.999461	-1.269591	0.384805
O94	O	-1.095717	-1.760134	0.625159
C95	C	-1.049763	-1.937133	0.577959
C96	C	-1.009665	-1.827147	0.607328
H97	H	-0.980212	-1.991349	0.563556
H98	H	-1.099397	-1.931987	0.503832
H99	H	-1.099380	-1.969507	0.644827
H100	H	-0.960005	-1.794709	0.540528
H101	H	-0.960088	-1.832360	0.681487
O102	O	-1.100864	-1.628172	0.743392
C103	C	-1.064434	-1.562554	0.916693
C104	C	-1.018509	-1.601973	0.812266
H105	H	-0.997872	-1.541342	0.972398
H106	H	-1.114613	-1.626746	0.953338
H107	H	-1.114829	-1.490317	0.901620
H108	H	-0.968066	-1.674192	0.827249
H109	H	-0.968389	-1.537718	0.775653
O110	O	-0.269327	-1.628166	1.102104
C111	C	-0.146392	-1.485320	1.113942
C112	C	-0.250827	-1.524702	1.067991
H113	H	-0.131413	-1.401657	1.086398
H114	H	-0.079827	-1.538156	1.086348
H115	H	-0.150660	-1.486973	1.203172
H116	H	-0.246662	-1.523048	0.978761
H117	H	-0.317350	-1.471856	1.095667
H118	H	-0.916627	-1.740210	0.622010
O119	O	-0.387744	-1.760070	1.097098
C120	C	-0.517881	-1.896859	1.100391
C121	C	-0.488353	-1.786968	1.060141
H122	H	-0.599214	-1.918649	1.070510
H123	H	-0.517957	-1.896891	1.189740
H124	H	-0.458285	-1.956426	1.070661
H125	H	-0.547919	-1.727338	1.089795
H126	H	-0.488243	-1.787022	0.970793
O127	O	-0.915101	-1.636984	0.748157
C128	C	-0.813282	-1.690084	0.898119
C129	C	-0.853563	-1.719586	0.788222
H130	H	-0.763503	-1.756841	0.930535
H131	H	-0.882714	-1.675590	0.952446
H132	H	-0.763749	-1.615934	0.892700
H133	H	-0.903079	-1.793750	0.793540
H134	H	-0.784084	-1.734011	0.733938
H135	H	-0.280164	-1.641292	0.922125
