data_functionalizedCrystal
_audit_creation_method	'MofGen! by Chris Wilmer'
_symmetry_space_group_name_H-M	'P1'
_symmetry_Int_Tables_number	1
_symmetry_cell_setting	triclinic
loop_
_symmetry_equiv_pos_as_xyz
  x,y,z
_cell_length_a	12.837943
_cell_length_b	19.188930
_cell_length_c	11.295483
_cell_angle_alpha	94.076039
_cell_angle_beta	85.461227
_cell_angle_gamma	88.986861
loop_
_atom_site_label
_atom_site_type_symbol
_atom_site_fract_x
_atom_site_fract_y
_atom_site_fract_z
O1	O	1.381633	0.177215	-0.099031
O2	O	1.079869	0.168252	-0.099037
O3	O	1.239458	0.071676	-0.099010
O4	O	1.222044	0.273791	-0.099057
O5	O	1.225441	0.080144	0.099038
O6	O	1.065852	0.176720	0.099012
O7	O	1.367616	0.185683	0.099017
Cu8	Cu	1.215454	0.181975	0.117098
Cu9	Cu	1.232031	0.171960	-0.117117
O10	O	1.208027	0.282259	0.098991
C11	C	1.034253	0.169458	-0.000013
C12	C	0.919217	0.160427	-0.000014
C13	C	0.677767	0.268994	-0.000022
C14	C	0.569680	0.260512	-0.000022
C15	C	0.594953	0.134982	-0.000006
C16	C	0.703040	0.143464	-0.000006
C17	C	0.744443	0.210472	-0.000016
C18	C	0.852533	0.218953	-0.000024
C19	C	0.877803	0.093423	0.000001
C20	C	0.769716	0.084941	0.000001
C21	C	1.231885	0.049861	0.000017
C22	C	1.230191	-0.027760	0.000027
C23	C	1.323833	-0.066260	0.000035
C24	C	1.322244	-0.139194	0.000016
C25	C	1.227005	-0.173623	0.000013
C26	C	1.133352	-0.135114	-0.000001
C27	C	1.134944	-0.062182	0.000006
N28	N	1.149437	-0.283739	0.067411
N29	N	1.147930	-0.353022	0.067407
C30	C	1.222201	-0.393362	-0.000011
N31	N	1.298051	-0.361803	-0.067410
N32	N	1.299560	-0.292515	-0.067400
C33	C	1.225268	-0.252705	0.000005
C34	C	1.314126	-0.510946	-0.000026
C35	C	1.312534	-0.583882	-0.000052
C36	C	1.123638	-0.579799	-0.000057
C37	C	1.125234	-0.506866	-0.000043
C38	C	1.220481	-0.472444	-0.000021
C39	C	1.413232	0.184477	-0.000009
C40	C	1.528268	0.193508	-0.000016
C41	C	1.215600	0.304074	-0.000039
C42	C	1.217295	0.381694	-0.000057
N43	N	1.203803	0.189018	0.281832
N44	N	1.243691	0.164912	-0.281852
C45	C	1.327566	0.114169	0.531142
C46	C	1.318768	0.119497	0.655804
C47	C	1.177405	0.204999	0.655821
C48	C	1.186202	0.199671	0.531159
C49	C	1.261286	0.154255	0.468824
C50	C	1.270089	0.148931	0.344159
C51	C	1.128721	0.234429	0.344179
C52	C	1.119923	0.239757	0.468841
H53	H	1.401391	-0.038239	0.000048
H54	H	1.388709	0.077195	0.480388
O55	O	1.064430	0.273478	0.283699
C56	C	1.005812	0.389158	0.245623
C57	C	1.078685	0.345017	0.314166
H58	H	1.017297	0.447005	0.270249
H59	H	1.024993	0.377615	0.145800
H60	H	0.921133	0.375525	0.270141
H61	H	1.163388	0.358625	0.289748
H62	H	1.059415	0.356566	0.413972
H63	H	0.932104	0.045770	-0.000002
H64	H	1.372737	0.086854	0.706541
O65	O	1.343046	0.104758	0.283788
C66	C	1.482365	0.020541	0.296935
C67	C	1.399772	0.070530	0.365448
H68	H	1.528265	-0.007135	0.362927
H69	H	1.441951	-0.019857	0.238622
H70	H	1.538075	0.051650	0.238521
H71	H	1.344037	0.039479	0.423928
H72	H	1.440256	0.110928	0.423687
H73	H	1.048980	-0.475518	-0.000042
H74	H	1.388792	-0.615228	-0.000053
O75	O	1.413303	-0.176495	0.000080
C76	C	1.600831	-0.172855	0.000036
C77	C	1.497783	-0.130529	-0.000009
H78	H	1.669161	-0.135710	-0.000061
H79	H	1.599001	-0.203548	0.082937
H80	H	1.610618	-0.210655	-0.082829
H81	H	1.487931	-0.092692	0.082799
H82	H	1.499660	-0.099884	-0.082965
O83	O	1.104327	0.249023	0.716338
C84	C	0.921260	0.279506	0.754482
C85	C	1.003913	0.229593	0.685890
H86	H	0.840058	0.263824	0.729871
H87	H	0.926270	0.276412	0.854297
H88	H	0.936279	0.335270	0.729994
H89	H	0.988949	0.173807	0.710278
H90	H	0.998883	0.232748	0.586091
O91	O	1.046852	0.283789	0.529348
C92	C	0.863791	0.314295	0.567475
C93	C	0.946433	0.264368	0.498901
H94	H	0.782586	0.298620	0.542865
H95	H	0.868796	0.311210	0.667293
H96	H	0.878826	0.370054	0.542970
H97	H	0.931453	0.208587	0.523306
H98	H	0.941409	0.267513	0.399099
H99	H	1.055808	-0.163150	-0.000006
H100	H	0.886241	0.273515	-0.000030
O101	O	1.043876	-0.024882	0.000058
C102	C	0.856358	-0.028532	-0.000025
C103	C	0.959413	-0.070860	-0.000059
H104	H	0.788045	-0.065688	-0.000146
H105	H	0.846441	0.009230	0.082883
H106	H	0.858307	0.002202	-0.082883
H107	H	0.957537	-0.101635	0.082742
H108	H	0.969291	-0.108579	-0.083023
O109	O	1.406740	-0.477617	-0.000079
C110	C	1.593924	-0.489360	-0.000029
C111	C	1.489115	-0.527192	0.000010
H112	H	1.660550	-0.529423	0.000068
H113	H	1.605322	-0.458872	-0.082928
H114	H	1.593479	-0.451763	0.082838
H115	H	1.489486	-0.564822	-0.082801
H116	H	1.477758	-0.557634	0.082964
H117	H	0.711478	0.323555	-0.000032
H118	H	1.046093	-0.607831	-0.000065
H119	H	0.515395	0.308167	-0.000024
H120	H	0.735989	0.030385	0.000023
O121	O	0.554852	0.069854	-0.000151
C122	C	0.550560	-0.044400	-0.102774
C123	C	0.596075	0.029324	-0.102742
H124	H	0.583853	-0.077186	-0.185722
H125	H	0.572210	-0.070194	-0.019944
H126	H	0.461852	-0.040382	-0.102712
H127	H	0.684787	0.025367	-0.102846
H128	H	0.574343	0.055090	-0.185564
