data_functionalizedCrystal
_audit_creation_method	'MofGen! by Chris Wilmer'
_symmetry_space_group_name_H-M	'P1'
_symmetry_Int_Tables_number	1
_symmetry_cell_setting	triclinic
loop_
_symmetry_equiv_pos_as_xyz
  x,y,z
_cell_length_a	6.817900
_cell_length_b	15.866870
_cell_length_c	17.110486
_cell_angle_alpha	113.747904
_cell_angle_beta	99.060439
_cell_angle_gamma	102.655915
loop_
_atom_site_label
_atom_site_type_symbol
_atom_site_fract_x
_atom_site_fract_y
_atom_site_fract_z
V1	V	-3.994516	-0.132305	-0.285311
O2	O	-3.964488	0.006651	-0.240083
O3	O	-3.963715	-0.262621	-0.321635
O4	O	-3.924086	-0.130141	-0.392283
O5	O	-4.004391	-0.126746	-0.168946
V6	V	-4.478718	-0.115700	-0.266744
O7	O	-4.254285	-0.168731	-0.326042
O8	O	-4.669147	-0.079274	-0.226014
O9	O	-4.286313	0.014617	-0.230420
O10	O	-4.626143	-0.254656	-0.311972
O11	O	-4.586240	-0.121259	-0.383109
O12	O	-4.325942	-0.117864	-0.159772
C13	C	-3.813710	-0.294394	-0.327011
C14	C	-3.869666	-0.400928	-0.357423
C15	C	-3.916664	-0.683339	-0.075324
C16	C	-3.969247	-0.783448	-0.103928
C17	C	-4.024060	-0.810624	-0.256779
C18	C	-3.971470	-0.710514	-0.228188
C19	C	-3.917777	-0.646879	-0.137460
C20	C	-3.972584	-0.674055	-0.290324
C21	C	-3.920009	-0.573954	-0.261736
C22	C	-3.866321	-0.510313	-0.171011
C23	C	-3.865203	-0.546778	-0.108872
C24	C	-4.026292	-0.737692	-0.381053
C25	C	-4.027406	-0.701233	-0.443188
C26	C	-3.974816	-0.601130	-0.414600
C27	C	-3.921127	-0.537489	-0.323875
C28	C	-3.975934	-0.564664	-0.476740
C29	C	-3.923359	-0.464564	-0.448151
C30	C	-3.868552	-0.437388	-0.295287
C31	C	-3.763158	-0.125401	-0.417128
C32	C	-3.786973	-0.124494	-0.504830
C33	C	-3.980095	-0.128851	-0.551458
C34	C	-4.002460	-0.127998	-0.633863
C35	C	-3.831705	-0.122795	-0.669640
C36	C	-3.638566	-0.118435	-0.623004
C37	C	-3.616200	-0.119281	-0.540598
C38	C	-3.890131	-0.119995	-0.918178
C39	C	-3.912515	-0.119152	-1.000591
C40	C	-4.276406	-0.128713	-1.011444
C41	C	-4.254026	-0.129565	-0.929038
C42	C	-4.060888	-0.125200	-0.882407
C43	C	-3.854562	-0.121926	-0.753872
C44	C	-4.038028	-0.126062	-0.798174
C45	C	-4.099661	0.046384	-0.225044
C46	C	-4.022942	0.152917	-0.194637
C47	C	-4.150213	-0.122607	-0.134924
C48	C	-4.105636	-0.123509	-0.047220
H49	H	-4.071137	-0.753058	-0.517060
Br50	Br	-3.406822	-0.111372	-0.671557
H51	H	-4.069102	-0.819200	-0.404326
H52	H	-3.715539	-0.117694	-0.783012
Br53	Br	-4.048846	-0.651038	-0.599867
H54	H	-3.924297	-0.434879	-0.498749
H55	H	-3.824798	-0.385570	-0.221406
Br56	Br	-3.680761	-0.112095	-1.049147
Br57	Br	-3.794997	-0.374460	-0.132209
Br58	Br	-3.792287	-0.460405	0.014263
Br59	Br	-3.628032	-0.114097	-0.854914
H60	H	-3.872909	-0.631521	-0.001443
H61	H	-3.968330	-0.813128	-0.053322
H62	H	-4.119150	-0.133094	-0.522338
Br63	Br	-3.354089	-0.113354	-0.477309
H64	H	-4.067791	-0.862449	-0.330651
H65	H	-4.177053	-0.130295	-0.769040
H66	H	-4.393076	-0.133800	-0.899914
H67	H	-4.159713	-0.131540	-0.671822
H68	H	-4.433652	-0.132266	-1.049419
