data_functionalizedCrystal
_audit_creation_method	'MofGen! by Chris Wilmer'
_symmetry_space_group_name_H-M	'P1'
_symmetry_Int_Tables_number	1
_symmetry_cell_setting	triclinic
loop_
_symmetry_equiv_pos_as_xyz
  x,y,z
_cell_length_a	15.625020
_cell_length_b	15.538191
_cell_length_c	13.330367
_cell_angle_alpha	89.997411
_cell_angle_beta	71.908986
_cell_angle_gamma	66.738808
loop_
_atom_site_label
_atom_site_type_symbol
_atom_site_fract_x
_atom_site_fract_y
_atom_site_fract_z
O1	O	1.156078	0.122913	-0.504034
O2	O	0.888789	0.137562	-0.406786
O3	O	1.074464	-0.006825	-0.474345
O4	O	0.970404	0.267300	-0.436475
O5	O	1.074445	-0.006828	-0.307491
O6	O	0.888770	0.137559	-0.239932
O7	O	1.156059	0.122910	-0.337180
Cu8	Cu	1.022413	0.130234	-0.273321
Cu9	Cu	1.022436	0.130238	-0.470645
O10	O	0.970385	0.267297	-0.269621
C11	C	0.855407	0.136898	-0.311217
C12	C	0.755969	0.134911	-0.275039
C13	C	0.615804	0.132108	-0.133102
C14	C	0.709241	0.133975	-0.167107
C15	C	0.709273	0.133975	-0.349009
C16	C	0.615836	0.132103	-0.315019
C17	C	0.569109	0.131171	-0.207064
C18	C	0.569141	0.131166	-0.388982
C19	C	0.475710	0.129299	-0.354994
C20	C	0.428974	0.128370	-0.247043
C21	C	0.475678	0.129304	-0.173077
C22	C	0.615867	0.132105	-0.496935
C23	C	0.569171	0.131168	-0.570898
C24	C	0.475742	0.129294	-0.536912
C25	C	0.429006	0.128365	-0.428961
C26	C	0.429038	0.128360	-0.610879
C27	C	0.335608	0.126493	-0.576891
C28	C	0.335576	0.126498	-0.394973
C29	C	1.085342	-0.041908	-0.394882
C30	C	1.117772	-0.146440	-0.406691
C31	C	0.795588	-0.434646	-0.289449
C32	C	0.826084	-0.532872	-0.300542
C33	C	0.997615	-0.555094	-0.362951
C34	C	0.967133	-0.456867	-0.351868
C35	C	0.866119	-0.396650	-0.315116
C36	C	1.037664	-0.418872	-0.377535
C37	C	1.007185	-0.320654	-0.366447
C38	C	0.906175	-0.260431	-0.329693
C39	C	0.835640	-0.298432	-0.304028
C40	C	1.138678	-0.479090	-0.414280
C41	C	1.209209	-0.441095	-0.439946
C42	C	1.178730	-0.342876	-0.428866
C43	C	1.077720	-0.282653	-0.392112
C44	C	1.249266	-0.304874	-0.454531
C45	C	1.218787	-0.206656	-0.443444
C46	C	1.047241	-0.184435	-0.381025
C47	C	1.189442	0.123574	-0.432751
C48	C	1.288880	0.125561	-0.468936
C49	C	0.959507	0.302380	-0.349086
C50	C	0.927077	0.406912	-0.337283
N51	N	1.022404	0.130231	-0.134536
N52	N	1.022454	0.130234	-0.609433
C53	C	0.940225	0.194147	0.367988
C54	C	1.104673	0.066321	0.308121
C55	C	1.104664	0.066318	0.203106
C56	C	1.022435	0.130232	0.180528
C57	C	0.940214	0.194148	0.262964
C58	C	1.186887	0.002410	0.120660
C59	C	1.186882	0.002405	0.015637
C60	C	1.104648	0.066315	-0.006941
C61	C	1.022424	0.130233	0.075503
C62	C	0.940194	0.194146	0.052925
C63	C	0.857966	0.258061	0.135369
C64	C	0.857980	0.258058	0.240386
C65	C	1.104634	0.066317	-0.111958
C66	C	0.940184	0.194147	-0.052099
H67	H	0.352895	0.126855	-0.219371
N68	N	0.938289	-0.119479	-0.341355
H69	H	0.929687	-0.051494	-0.338217
H70	H	0.906147	-0.131780	-0.391506
N71	N	1.106562	-0.620043	-0.402580
H72	H	1.115170	-0.688030	-0.405707
H73	H	1.138697	-0.607732	-0.476126
H74	H	1.253835	-0.049638	-0.051483
H75	H	1.276220	-0.175721	-0.464343
H76	H	1.253839	-0.049623	0.139047
N77	N	0.851487	0.263088	-0.076437
H78	H	0.872262	0.304850	-0.127577
H79	H	0.823405	0.226964	-0.109727
N80	N	0.565406	0.131088	-0.016665
H81	H	0.609465	0.131301	0.024922
H82	H	0.500563	0.188974	0.011195
N83	N	0.619581	0.132162	-0.687332
H84	H	0.575821	0.131281	-0.729029
H85	H	0.631951	0.191261	-0.695800
N86	N	0.285249	0.125474	-0.656671
H87	H	0.272880	0.066375	-0.656222
H88	H	0.220124	0.183063	-0.636979
N89	N	1.318154	-0.506054	-0.479589
H90	H	1.350352	-0.493822	-0.553158
H91	H	1.350265	-0.493789	-0.429384
N92	N	0.873297	-0.154495	-0.317746
H93	H	0.798604	-0.122116	-0.290571
H94	H	0.899687	-0.135271	-0.265498
N95	N	1.358212	-0.369826	-0.494150
H96	H	1.366818	-0.437812	-0.497272
H97	H	1.390356	-0.357521	-0.567697
N98	N	0.479434	0.129371	-0.727311
H99	H	0.491799	0.188472	-0.735861
H100	H	0.544564	0.071785	-0.755000
N101	N	0.726688	-0.233474	-0.264404
H102	H	0.686627	-0.272445	-0.249832
H103	H	0.710295	-0.192235	-0.196590
H104	H	1.163491	-0.559065	-0.423315
H105	H	0.713332	-0.385613	-0.259529
N106	N	1.193314	-0.002603	-0.200877
H107	H	1.245410	-0.043087	-0.170639
H108	H	1.172447	-0.044301	-0.236849
H109	H	0.747254	0.134745	-0.106868
N110	N	0.750006	-0.573854	-0.272856
H111	H	0.681392	-0.520801	-0.247892
H112	H	0.758921	-0.614123	-0.337951
N113	N	0.769280	0.327000	0.111012
H114	H	0.781759	0.317300	0.031972
H115	H	0.708924	0.315999	0.151336
N116	N	0.769298	0.326989	0.329303
H117	H	0.781787	0.317291	0.399255
H118	H	0.757839	0.393809	0.315110
N119	N	0.759673	0.134982	-0.465441
H120	H	0.825947	0.136307	-0.475751
H121	H	0.769746	0.076326	-0.508817
N122	N	0.425280	0.128284	-0.056640
H123	H	0.469338	0.128498	-0.015052
H124	H	0.360437	0.186170	-0.028780
H125	H	0.873274	0.246183	0.435117
N126	N	1.193357	-0.002602	0.332480
H127	H	1.172573	-0.044355	0.383628
H128	H	1.245408	-0.043032	0.264274
N129	N	0.716651	0.134091	-0.533600
H130	H	0.739168	0.134539	-0.613210
H131	H	0.712705	0.192856	-0.496403
H132	H	0.297522	0.125751	-0.307064
