data_functionalizedCrystal
_audit_creation_method	'MofGen! by Chris Wilmer'
_symmetry_space_group_name_H-M	'P1'
_symmetry_Int_Tables_number	1
_symmetry_cell_setting	triclinic
loop_
_symmetry_equiv_pos_as_xyz
  x,y,z
_cell_length_a	13.101039
_cell_length_b	15.538191
_cell_length_c	15.625429
_cell_angle_alpha	113.263208
_cell_angle_beta	75.329365
_cell_angle_gamma	92.020033
loop_
_atom_site_label
_atom_site_type_symbol
_atom_site_fract_x
_atom_site_fract_y
_atom_site_fract_z
O1	O	0.022850	-1.248145	-0.290892
O2	O	0.522850	-0.748145	0.209108
O3	O	-0.014716	-0.976302	-0.189780
O4	O	0.485284	-0.476302	0.310220
O5	O	0.052319	-1.116617	-0.370194
O6	O	0.552319	-0.616617	0.129806
O7	O	-0.044186	-1.107829	-0.110479
O8	O	0.455814	-0.607829	0.389521
O9	O	0.217934	-1.106550	-0.357233
O10	O	0.717934	-0.606550	0.142767
O11	O	0.150898	-0.966234	-0.176820
O12	O	0.650898	-0.466234	0.323180
O13	O	0.188464	-1.238078	-0.277932
O14	O	0.688464	-0.738078	0.222068
Zn15	Zn	0.195976	-1.100558	-0.225318
Zn16	Zn	0.695976	-0.600558	0.274682
Zn17	Zn	-0.022228	-1.113822	-0.242394
Zn18	Zn	0.477772	-0.613822	0.257606
O19	O	0.121428	-1.097762	-0.097518
O20	O	0.621428	-0.597762	0.402482
C21	C	0.064161	-0.936425	-0.172721
C22	C	0.564161	-0.436425	0.327279
C23	C	0.052454	-0.832604	-0.141210
C24	C	0.552454	-0.332604	0.358790
N25	N	0.344895	-1.091512	-0.213667
N26	N	0.844895	-0.591512	0.286333
N27	N	-0.171144	-1.122874	-0.254054
N28	N	0.328856	-0.622874	0.245946
C29	C	0.548045	-1.079206	-0.197807
C30	C	1.048045	-0.579206	0.302193
C31	C	0.625711	-1.135178	-0.269910
C32	C	1.125711	-0.635178	0.230090
C33	C	0.738751	-1.128330	-0.261086
C34	C	1.238751	-0.628330	0.238914
C35	C	0.434994	-1.086052	-0.206630
C36	C	0.934994	-0.586052	0.293370
C37	C	0.147174	-1.110189	-0.396141
C38	C	0.647174	-0.610189	0.103859
C39	C	0.183070	-1.106022	-0.492762
C40	C	0.683070	-0.606022	0.007238
C41	C	0.109585	-1.277954	-0.294991
C42	C	0.609585	-0.777954	0.205009
C43	C	0.121285	-1.381775	-0.326503
C44	C	0.621285	-0.881775	0.173497
C45	C	0.168763	-0.537334	-0.454265
C46	C	0.668763	-0.037334	0.045735
C47	C	0.157752	-0.439777	-0.424634
C48	C	0.657752	0.060223	0.075366
C49	C	0.095821	-0.421316	-0.257964
C50	C	0.595821	0.078684	0.242036
C51	C	0.106831	-0.518874	-0.287581
C52	C	0.606831	-0.018874	0.212419
C53	C	0.143302	-0.576876	-0.385733
C54	C	0.643302	-0.076876	0.114267
C55	C	0.081370	-0.558416	-0.219048
C56	C	0.581370	-0.058416	0.280952
C57	C	0.092375	-0.655965	-0.248664
C58	C	0.592375	-0.155965	0.251336
C59	C	0.128841	-0.713973	-0.346812
C60	C	0.628841	-0.213973	0.153188
C61	C	0.154307	-0.674426	-0.415348
C62	C	0.654307	-0.174426	0.084652
C63	C	0.044893	-0.500413	-0.120897
C64	C	0.544893	-0.000413	0.379103
C65	C	0.019432	-0.539954	-0.052364
C66	C	0.519432	-0.039954	0.447636
C67	C	0.030444	-0.637505	-0.081979
C68	C	0.530444	-0.137505	0.418021
C69	C	0.066910	-0.695513	-0.180127
C70	C	0.566910	-0.195513	0.319873
C71	C	0.004978	-0.677053	-0.013442
C72	C	0.504978	-0.177053	0.486558
C73	C	0.015983	-0.774603	-0.043058
C74	C	0.515983	-0.274603	0.456942
C75	C	0.077915	-0.793063	-0.209743
C76	C	0.577915	-0.293063	0.290257
C77	C	-0.150220	-1.119728	-0.845848
C78	C	0.349780	-0.619728	-0.345848
C79	C	-0.116460	-1.115806	-0.936634
C80	C	0.383540	-0.615806	-0.436634
C81	C	0.064081	-1.104832	-0.922492
C82	C	0.564081	-0.604832	-0.422492
C83	C	0.030337	-1.108757	-0.831705
C84	C	0.530337	-0.608757	-0.331705
C85	C	-0.076815	-1.116204	-0.793391
C86	C	0.423185	-0.616204	-0.293391
C87	C	0.103742	-1.105233	-0.779247
C88	C	0.603742	-0.605233	-0.279247
C89	C	0.069999	-1.109153	-0.688467
C90	C	0.569999	-0.609153	-0.188467
C91	C	-0.037149	-1.116597	-0.650144
C92	C	0.462851	-0.616597	-0.150144
C93	C	-0.110558	-1.120124	-0.702610
C94	C	0.389442	-0.620124	-0.202610
C95	C	0.210892	-1.097780	-0.817561
C96	C	0.710892	-0.597780	-0.317561
C97	C	0.284297	-1.094256	-0.765103
C98	C	0.784297	-0.594256	-0.265103
C99	C	0.250556	-1.098183	-0.674323
C100	C	0.750556	-0.598183	-0.174323
C101	C	0.143408	-1.105626	-0.636001
C102	C	0.643408	-0.605626	-0.136001
C103	C	0.323965	-1.094656	-0.621857
C104	C	0.823965	-0.594656	-0.121857
C105	C	0.290222	-1.098576	-0.531077
C106	C	0.790222	-0.598576	-0.031077
C107	C	0.109665	-1.109546	-0.545220
C108	C	0.609665	-0.609546	-0.045220
C109	C	0.026572	-1.104190	-0.071571
C110	C	0.526572	-0.604190	0.428429
C111	C	-0.009331	-1.108357	0.025049
C112	C	0.490669	-0.608357	0.525049
H113	H	0.607308	-1.188240	-0.338267
H114	H	1.107308	-0.688240	0.161733
Cl115	Cl	-0.245264	-1.129499	-0.654442
Cl116	Cl	0.254736	-0.629499	-0.154442
H117	H	0.184011	-0.721654	-0.495273
H118	H	0.684011	-0.221654	0.004727
Cl119	Cl	-0.208754	-1.120231	-1.002577
Cl120	Cl	0.291246	-0.620231	-0.502577
H121	H	0.566444	-1.026148	-0.129454
H122	H	1.066444	-0.526148	0.370546
H123	H	0.066122	-0.374079	-0.178048
H124	H	0.566122	0.125921	0.321952
Cl125	Cl	0.123777	-0.865986	-0.333135
Cl126	Cl	0.623777	-0.365986	0.166865
H127	H	0.137788	-0.793405	-0.370924
H128	H	0.637788	-0.293405	0.129076
H129	H	0.035931	-0.420982	-0.096787
H130	H	0.535931	0.079018	0.403213
Cl131	Cl	-0.079571	-1.121529	-0.536020
Cl132	Cl	0.420429	-0.621529	-0.036020
H133	H	0.178487	-0.407587	-0.480449
H134	H	0.678487	0.092413	0.019551
H135	H	-0.010267	-0.492717	0.027551
H136	H	0.489733	0.007283	0.527551
Cl137	Cl	0.214625	-0.610258	-0.577658
Cl138	Cl	0.714625	-0.110258	-0.077658
Cl139	Cl	-0.040886	-0.604127	0.109943
Cl140	Cl	0.459114	-0.104127	0.609943
Cl141	Cl	-0.284926	-1.129103	-0.797681
Cl142	Cl	0.215074	-0.629103	-0.297681
H143	H	0.151324	-1.098765	-0.953699
H144	H	0.651324	-0.598765	-0.453699
H145	H	-0.004741	-0.806797	0.012749
H146	H	0.495259	-0.306797	0.512749
H147	H	0.022413	-1.115618	-0.514026
H148	H	0.522413	-0.615618	-0.014026
H149	H	0.238360	-1.094578	-0.891476
H150	H	0.738360	-0.594578	-0.391476
H151	H	0.371540	-1.088189	-0.796310
H152	H	0.871540	-0.588189	-0.296310
Cl153	Cl	0.382504	-1.094151	-0.465127
Cl154	Cl	0.882504	-0.594151	0.034873
H155	H	0.411206	-1.088583	-0.653063
H156	H	0.911206	-0.588583	-0.153063
