data_functionalizedCrystal
_audit_creation_method	'MofGen! by Chris Wilmer'
_symmetry_space_group_name_H-M	'P1'
_symmetry_Int_Tables_number	1
_symmetry_cell_setting	triclinic
loop_
_symmetry_equiv_pos_as_xyz
  x,y,z
_cell_length_a	21.395362
_cell_length_b	12.759400
_cell_length_c	21.395355
_cell_angle_alpha	89.986153
_cell_angle_beta	89.956060
_cell_angle_gamma	90.030564
loop_
_atom_site_label
_atom_site_type_symbol
_atom_site_fract_x
_atom_site_fract_y
_atom_site_fract_z
Zn1	Zn	0.957929	-0.417943	-0.354606
Zn2	Zn	1.457929	0.082057	0.145394
Zn3	Zn	0.957861	-0.593607	-0.249837
Zn4	Zn	1.457861	-0.093607	0.250163
Zn5	Zn	0.853144	-0.417992	-0.249807
Zn6	Zn	1.353144	0.082008	0.250193
Zn7	Zn	0.853143	-0.593629	-0.354542
Zn8	Zn	1.353143	-0.093629	0.145458
O9	O	0.905519	-0.505793	-0.302198
O10	O	1.405519	-0.005793	0.197802
O11	O	1.045598	-0.441215	-0.340747
O12	O	1.545598	0.058785	0.159253
O13	O	0.943942	-0.570323	-0.162155
O14	O	1.443942	-0.070323	0.337845
O15	O	0.867073	-0.270964	-0.263723
O16	O	1.367073	0.229036	0.236277
O17	O	1.045548	-0.570275	-0.263774
O18	O	1.545548	-0.070275	0.236226
O19	O	0.944058	-0.270928	-0.340719
O20	O	1.444058	0.229072	0.159281
O21	O	0.867007	-0.441299	-0.162133
O22	O	1.367007	0.058701	0.337867
O23	O	0.765466	-0.441320	-0.263661
O24	O	1.265466	0.058680	0.236339
O25	O	0.867071	-0.570312	-0.442228
O26	O	1.367071	-0.070312	0.057772
O27	O	0.765465	-0.570360	-0.340609
O28	O	1.265465	-0.070360	0.159391
O29	O	0.944057	-0.441236	-0.442275
O30	O	1.444057	0.058764	0.057725
O31	O	0.943941	-0.740631	-0.263712
O32	O	1.443941	-0.240631	0.236288
O33	O	0.867005	-0.740647	-0.340638
O34	O	1.367005	-0.240647	0.159362
C35	C	0.742732	-0.505848	-0.302125
C36	C	1.242732	-0.005848	0.197875
C37	C	0.673090	-0.505897	-0.302109
C38	C	1.173090	-0.005897	0.197891
C39	C	0.905482	-0.778760	-0.302185
C40	C	1.405482	-0.278760	0.197815
C41	C	0.905523	-0.895537	-0.302200
C42	C	1.405523	-0.395537	0.197800
C43	C	0.640393	-0.573177	-0.342116
C44	C	1.140393	-0.073177	0.157884
C45	C	0.574958	-0.573152	-0.342144
C46	C	1.074958	-0.073152	0.157856
C47	C	0.542222	-0.505857	-0.302154
C48	C	1.042222	-0.005857	0.197846
C49	C	0.574927	-0.438564	-0.262144
C50	C	1.074927	0.061436	0.237856
C51	C	0.640361	-0.438584	-0.262122
C52	C	1.140361	0.061416	0.237878
C53	C	0.438496	-0.497393	-0.245748
C54	C	0.938496	0.002607	0.254252
C55	C	0.373063	-0.497380	-0.245769
C56	C	0.873063	0.002620	0.254231
C57	C	0.340401	-0.505788	-0.302223
C58	C	0.840401	-0.005788	0.197777
C59	C	0.373181	-0.514231	-0.358657
C60	C	0.873181	-0.014231	0.141343
C61	C	0.438615	-0.514251	-0.358635
C62	C	0.938615	-0.014251	0.141365
C63	C	0.471270	-0.505827	-0.302174
C64	C	0.971270	-0.005827	0.197826
C65	C	0.236752	-0.573044	-0.342263
C66	C	0.736752	-0.073044	0.157737
C67	C	0.171315	-0.573011	-0.342292
C68	C	0.671315	-0.073011	0.157708
C69	C	0.171286	-0.438428	-0.262287
C70	C	0.671286	0.061572	0.237713
C71	C	0.236721	-0.438456	-0.262264
C72	C	0.736721	0.061544	0.237736
C73	C	0.269450	-0.505769	-0.302251
C74	C	0.769450	-0.005769	0.197749
C75	C	0.945629	-0.950355	-0.262189
C76	C	1.445629	-0.450355	0.237811
C77	C	0.945667	-1.060079	-0.262209
C78	C	1.445667	-0.560079	0.237791
C79	C	0.865490	-1.060156	-0.342252
C80	C	1.365490	-0.560156	0.157748
C81	C	0.865455	-0.950434	-0.342235
C82	C	1.365455	-0.450434	0.157765
C83	C	0.985697	-0.895458	-0.222154
C84	C	1.485697	-0.395458	0.277846
C85	C	1.025805	-0.950277	-0.182139
C86	C	1.525805	-0.450277	0.317861
C87	C	1.025843	-1.060001	-0.182159
C88	C	1.525843	-0.560001	0.317841
C89	C	0.985774	-1.114906	-0.222193
C90	C	1.485774	-0.614906	0.277807
C91	C	1.068943	-0.505738	-0.302271
C92	C	1.568943	-0.005738	0.197729
C93	C	1.138584	-0.505714	-0.302303
C94	C	1.638584	-0.005714	0.197697
C95	C	0.905571	-0.505771	-0.465621
C96	C	1.405571	-0.005771	0.034379
C97	C	0.905593	-0.505762	-0.535263
C98	C	1.405593	-0.005762	-0.035263
C99	C	0.905574	-0.231759	-0.302225
C100	C	1.405574	0.268241	0.197775
C101	C	0.905597	-0.114983	-0.302236
C102	C	1.405597	0.385017	0.197764
C103	C	0.945678	-0.438550	-0.568001
C104	C	1.445678	0.061450	-0.068001
C105	C	0.945678	-0.438504	-0.633437
C106	C	1.445678	0.061496	-0.133437
C107	C	0.905598	-0.505691	-0.666131
C108	C	1.405598	-0.005691	-0.166131
C109	C	0.865505	-0.572908	-0.633384
C110	C	1.365505	-0.072908	-0.133384
C111	C	0.865503	-0.572944	-0.567950
C112	C	1.365503	-0.072944	-0.067950
C113	C	0.900638	-0.600292	-0.769799
C114	C	1.400638	-0.100292	-0.269799
C115	C	0.900645	-0.600258	-0.835232
C116	C	1.400645	-0.100258	-0.335232
C117	C	0.905602	-0.505580	-0.867952
C118	C	1.405602	-0.005580	-0.367952
C119	C	0.910566	-0.410932	-0.835230
C120	C	1.410566	0.089068	-0.335230
C121	C	0.910563	-0.410968	-0.769796
C122	C	1.410563	0.089032	-0.269796
C123	C	0.905596	-0.505659	-0.737083
C124	C	1.405596	-0.005659	-0.237083
C125	C	0.945688	-0.438312	-0.971643
C126	C	1.445688	0.061688	-0.471643
C127	C	0.945683	-0.438265	-1.037080
C128	C	1.445683	0.061735	-0.537080
C129	C	0.865514	-0.572678	-1.037026
C130	C	1.365514	-0.072678	-0.537026
C131	C	0.865516	-0.572716	-0.971591
C132	C	1.365516	-0.072716	-0.471591
C133	C	0.905607	-0.505534	-0.938903
C134	C	1.405607	-0.005534	-0.438903
C135	C	0.905503	-0.505738	-0.139410
C136	C	1.405503	-0.005738	0.360590
C137	C	0.905603	-0.505451	-0.069770
C138	C	1.405603	-0.005451	0.430230
H139	H	0.667037	-0.627988	-0.374678
H140	H	1.167037	-0.127988	0.125322
H141	H	0.978329	-0.383603	-0.945027
H142	H	1.478329	0.116397	-0.445027
H143	H	0.985813	-1.204251	-0.222210
H144	H	1.485813	-0.704251	0.277790
Br145	Br	0.530573	-0.664465	-0.396444
Br146	Br	1.030573	-0.164465	0.103556
Br147	Br	1.080281	-1.134396	-0.127862
Br148	Br	1.580281	-0.634396	0.372138
Br149	Br	0.917296	-0.282526	-0.725390
Br150	Br	1.417296	0.217474	-0.225390
Br151	Br	0.811029	-0.876030	-0.396540
Br152	Br	1.311029	-0.376030	0.103460
Br153	Br	0.281173	-0.664391	-0.396533
Br154	Br	0.781173	-0.164391	0.103467
Br155	Br	0.811113	-1.134670	-0.396580
Br156	Br	1.311113	-0.634670	0.103420
H157	H	0.832878	-0.627454	-0.944935
H158	H	1.332878	-0.127454	-0.444935
H159	H	0.978322	-0.383844	-0.541391
H160	H	1.478322	0.116156	-0.041391
Br161	Br	0.530502	-0.347225	-0.207876
Br162	Br	1.030502	0.152775	0.292124
H163	H	0.985668	-0.806115	-0.222132
H164	H	1.485668	-0.306115	0.277868
Br165	Br	0.684740	-0.347266	-0.207824
Br166	Br	1.184740	0.152734	0.292176
H167	H	1.058432	-0.905568	-0.149548
H168	H	1.558432	-0.405568	0.350452
Br169	Br	1.000067	-0.347255	-0.677878
Br170	Br	1.500067	0.152745	-0.177878
Br171	Br	0.483100	-0.525705	-0.435219
Br172	Br	0.983100	-0.025705	0.064781
Br173	Br	1.000099	-0.347056	-1.081513
Br174	Br	1.500099	0.152944	-0.581513
H175	H	0.263344	-0.383674	-0.229683
H176	H	0.763344	0.116326	0.270317
H177	H	0.914603	-0.333836	-0.861869
H178	H	1.414603	0.166164	-0.361869
Br179	Br	0.811112	-0.663848	-1.081390
Br180	Br	1.311112	-0.163848	-0.581390
Br181	Br	0.328583	-0.485924	-0.169182
Br182	Br	0.828583	0.014076	0.330818
H183	H	0.896607	-0.677325	-0.861869
H184	H	1.396607	-0.177325	-0.361869
Br185	Br	0.893929	-0.728798	-0.725401
Br186	Br	1.393929	-0.228798	-0.225401
H187	H	0.832871	-0.627608	-0.660008
H188	H	1.332871	-0.127608	-0.160008
H189	H	0.465084	-0.490542	-0.199774
H190	H	0.965084	0.009458	0.300226
H191	H	0.346589	-0.521076	-0.404627
H192	H	0.846589	-0.021076	0.095373
Br193	Br	0.126938	-0.664319	-0.396598
Br194	Br	0.626938	-0.164319	0.103402
Br195	Br	0.811097	-0.664167	-0.523516
Br196	Br	1.311097	-0.164167	-0.023516
H197	H	0.144633	-0.383631	-0.229729
H198	H	0.644633	0.116369	0.270271
