data_functionalizedCrystal
_audit_creation_method	'MofGen! by Chris Wilmer'
_symmetry_space_group_name_H-M	'P1'
_symmetry_Int_Tables_number	1
_symmetry_cell_setting	triclinic
loop_
_symmetry_equiv_pos_as_xyz
  x,y,z
_cell_length_a	14.971506
_cell_length_b	14.519731
_cell_length_c	12.996460
_cell_angle_alpha	89.998729
_cell_angle_beta	89.993480
_cell_angle_gamma	83.655621
loop_
_atom_site_label
_atom_site_type_symbol
_atom_site_fract_x
_atom_site_fract_y
_atom_site_fract_z
O1	O	1.187013	0.120263	-0.085576
O2	O	1.520346	0.453596	0.247757
O3	O	1.853680	0.786930	0.581090
O4	O	0.926624	0.134636	-0.085577
O5	O	1.259958	0.467969	0.247756
O6	O	1.593291	0.801302	0.581089
O7	O	1.063713	-0.006791	-0.085567
O8	O	1.397046	0.326542	0.247766
O9	O	1.730379	0.659875	0.581099
O10	O	1.049925	0.261690	-0.085586
O11	O	1.383258	0.595023	0.247747
O12	O	1.716591	0.928357	0.581080
O13	O	1.063695	-0.006783	0.085566
O14	O	1.397028	0.326550	0.418900
O15	O	1.730362	0.659883	0.752233
O16	O	0.926607	0.134644	0.085557
O17	O	1.259940	0.467977	0.418890
O18	O	1.593273	0.801310	0.752223
O19	O	1.186995	0.120271	0.085557
O20	O	1.520329	0.453605	0.418891
O21	O	1.853662	0.786938	0.752224
Cu22	Cu	1.056799	0.127458	0.101183
Cu23	Cu	1.390133	0.460792	0.434516
Cu24	Cu	1.723466	0.794125	0.767850
Cu25	Cu	1.056820	0.127449	-0.101203
Cu26	Cu	1.390154	0.460782	0.232131
Cu27	Cu	1.723487	0.794115	0.565464
O28	O	1.049907	0.261698	0.085548
O29	O	1.383240	0.595032	0.418881
O30	O	1.716574	0.928365	0.752214
C31	C	0.893291	0.133994	-0.000010
C32	C	1.226624	0.467327	0.333323
C33	C	1.559957	0.800660	0.666656
C34	C	0.793993	0.132057	-0.000010
C35	C	1.127327	0.465391	0.333323
C36	C	1.460660	0.798724	0.666656
C37	C	0.355759	0.207754	-0.000026
C38	C	0.689092	0.541088	0.333307
C39	C	1.022426	0.874421	0.666641
C40	C	0.449060	0.209566	-0.000031
C41	C	0.782394	0.542900	0.333303
C42	C	1.115727	0.876233	0.666636
C43	C	0.506227	0.126473	-0.000020
C44	C	0.839561	0.459806	0.333313
C45	C	1.172894	0.793139	0.666646
C46	C	0.470089	0.041561	-0.000016
C47	C	0.803422	0.374894	0.333318
C48	C	1.136756	0.708228	0.666651
C49	C	0.376789	0.039750	-0.000019
C50	C	0.710122	0.373083	0.333315
C51	C	1.043456	0.706417	0.666648
C52	C	0.664554	0.045342	-0.000007
C53	C	0.997888	0.378675	0.333326
C54	C	1.331221	0.712008	0.666659
C55	C	0.757861	0.047153	-0.000003
C56	C	1.091194	0.380486	0.333331
C57	C	1.424527	0.713819	0.666664
C58	C	0.736826	0.215158	-0.000020
C59	C	1.070159	0.548491	0.333314
C60	C	1.403492	0.881825	0.666647
C61	C	0.643526	0.213347	-0.000022
C62	C	0.976859	0.546680	0.333311
C63	C	1.310193	0.880014	0.666644
C64	C	0.607394	0.128435	-0.000016
C65	C	0.940727	0.461769	0.333317
C66	C	1.274061	0.795102	0.666651
C67	C	1.063058	-0.041146	-0.000000
C68	C	1.396391	0.292187	0.333333
C69	C	1.729724	0.625520	0.666666
C70	C	1.061122	-0.143526	0.000000
C71	C	1.394455	0.189808	0.333334
C72	C	1.727788	0.523141	0.666667
C73	C	1.059549	-0.226669	-0.000002
C74	C	1.392882	0.106664	0.333331
C75	C	1.726215	0.439998	0.666665
C76	C	1.057583	-0.330977	-0.000010
C77	C	1.390917	0.002357	0.333323
C78	C	1.724250	0.335690	0.666657
C79	C	1.056023	-0.414115	-0.000017
C80	C	1.389357	-0.080782	0.333317
C81	C	1.722690	0.252552	0.666650
C82	C	1.054058	-0.518429	-0.000022
C83	C	1.387391	-0.185096	0.333311
C84	C	1.720725	0.148237	0.666644
C85	C	1.220329	0.120913	-0.000012
C86	C	1.553662	0.454247	0.333322
C87	C	1.886996	0.787580	0.666655
C88	C	1.319626	0.122849	-0.000019
C89	C	1.652960	0.456183	0.333315
C90	C	1.986293	0.789516	0.666648
C91	C	1.050562	0.296053	-0.000022
C92	C	1.383895	0.629387	0.333312
C93	C	1.717229	0.962720	0.666645
C94	C	1.052498	0.398432	-0.000029
C95	C	1.385831	0.731766	0.333304
C96	C	1.719165	1.065099	0.666638
N97	N	1.056791	0.127465	0.243530
N98	N	1.390125	0.460798	0.576863
N99	N	1.723458	0.794131	0.910197
N100	N	1.056836	0.127435	-0.243550
N101	N	1.390169	0.460768	0.089784
N102	N	1.723502	0.794102	0.423117
C103	C	1.056795	0.127467	0.336636
C104	C	1.390129	0.460800	0.669969
C105	C	1.723462	0.794133	1.003303
C106	C	1.056803	0.127461	0.453441
C107	C	1.390137	0.460794	0.786774
C108	C	1.723470	0.794127	1.120108
C109	C	1.056815	0.127450	0.546539
C110	C	1.390148	0.460784	0.879873
C111	C	1.723481	0.794117	1.213206
C112	C	1.056824	0.127445	0.663352
C113	C	1.390158	0.460779	0.996685
C114	C	1.723491	0.794112	1.330019
H115	H	0.478475	0.278704	-0.000046
H116	H	0.811808	0.612037	0.333287
H117	H	1.145141	0.945371	0.666620
H118	H	0.347372	-0.029388	-0.000014
H119	H	0.680705	0.303945	0.333319
H120	H	1.014039	0.637279	0.666652
Cl121	Cl	0.541956	-0.062900	-0.000005
Cl122	Cl	0.875290	0.270433	0.333328
Cl123	Cl	1.208623	0.603766	0.666662
H124	H	0.309219	0.275419	-0.000027
H125	H	0.642552	0.608753	0.333307
H126	H	0.975886	0.942086	0.666640
H127	H	0.596982	0.281009	-0.000024
H128	H	0.930315	0.614343	0.333309
H129	H	1.263649	0.947676	0.666643
H130	H	0.635140	-0.023802	-0.000007
H131	H	0.968473	0.309531	0.333326
H132	H	1.301806	0.642865	0.666659
H133	H	0.766248	0.284296	-0.000024
H134	H	1.099582	0.617630	0.333309
H135	H	1.432915	0.950963	0.666643
H136	H	0.804404	-0.020510	-0.000003
H137	H	1.137738	0.312824	0.333331
H138	H	1.471071	0.646157	0.666664
