data_functionalizedCrystal
_audit_creation_method	'MofGen! by Chris Wilmer'
_symmetry_space_group_name_H-M	'P1'
_symmetry_Int_Tables_number	1
_symmetry_cell_setting	triclinic
loop_
_symmetry_equiv_pos_as_xyz
  x,y,z
_cell_length_a	16.120484
_cell_length_b	19.805407
_cell_length_c	19.805399
_cell_angle_alpha	90.019197
_cell_angle_beta	92.871043
_cell_angle_gamma	87.078256
loop_
_atom_site_label
_atom_site_type_symbol
_atom_site_fract_x
_atom_site_fract_y
_atom_site_fract_z
Zn1	Zn	-0.332012	-1.021072	-0.396374
Zn2	Zn	-0.471430	-1.015249	-0.288922
Zn3	Zn	-0.332026	-0.907886	-0.283200
Zn4	Zn	-0.471376	-0.902114	-0.402067
O5	O	-0.401711	-0.961580	-0.342641
O6	O	-0.350523	-1.115015	-0.382132
O7	O	-0.452966	-1.000985	-0.193447
O8	O	-0.215358	-0.927752	-0.293435
O9	O	-0.452953	-1.110737	-0.303188
O10	O	-0.215348	-1.010910	-0.376583
O11	O	-0.350546	-0.922106	-0.189243
O12	O	-0.350494	-0.812404	-0.298956
O13	O	-0.452861	-0.917916	-0.496028
O14	O	-0.452874	-0.808164	-0.386287
O15	O	-0.350471	-1.005313	-0.491844
O16	O	-0.588088	-0.995389	-0.308709
O17	O	-0.588049	-0.912270	-0.391836
C18	C	-0.401680	-0.785725	-0.342619
C19	C	-0.401687	-0.710493	-0.342626
C20	C	-0.348446	-0.677373	-0.383801
C21	C	-0.348448	-0.606685	-0.383802
C22	C	-0.401697	-0.569117	-0.342631
C23	C	-0.454942	-0.602242	-0.301452
C24	C	-0.454934	-0.672929	-0.301447
C25	C	-0.454972	-0.317167	-0.301467
C26	C	-0.454977	-0.246475	-0.301475
C27	C	-0.348486	-0.250923	-0.383822
C28	C	-0.348479	-0.321610	-0.383817
C29	C	-0.401719	-0.354729	-0.342635
C30	C	-0.401715	-0.431378	-0.342634
C31	C	-0.401707	-0.492470	-0.342636
C32	C	-0.618319	-0.952590	-0.351526
C33	C	-0.710985	-0.948805	-0.355349
C34	C	-0.880646	-0.941900	-0.362344
C35	C	-0.921935	-0.981382	-0.322948
C36	C	-1.016341	-0.977540	-0.326840
C37	C	-0.786232	-0.945741	-0.358453
C38	C	-0.184257	-0.970624	-0.333736
C39	C	-0.091591	-0.974478	-0.329941
C40	C	-0.401658	-0.961620	-0.519181
C41	C	-0.401636	-0.961637	-0.594412
C42	C	-0.401736	-0.138122	-0.342657
C43	C	-0.401730	-0.213354	-0.342647
C44	C	-0.348319	-1.007146	-0.627579
C45	C	-0.348295	-1.007154	-0.698267
C46	C	-0.401593	-0.961656	-0.735786
C47	C	-0.454912	-0.916142	-0.702614
C48	C	-0.454932	-0.916132	-0.631928
C49	C	-0.454834	-0.916184	-0.987685
C50	C	-0.454813	-0.916199	-1.058376
C51	C	-0.348197	-1.007206	-1.054024
C52	C	-0.348217	-1.007196	-0.983337
C53	C	-0.401533	-0.961680	-0.950171
C54	C	-0.401557	-0.961671	-0.873524
C55	C	-0.401573	-0.961668	-0.812433
C56	C	-0.401703	-0.961582	-0.166784
C57	C	-0.401491	-0.961705	-0.091544
H58	H	-0.498324	-0.344124	-0.267934
H59	H	-0.305132	-0.223949	-0.417352
C60	C	-0.289544	-1.057269	-1.090508
H61	H	-0.297157	-1.050757	-1.137979
H62	H	-0.301760	-1.102236	-1.079431
H63	H	-0.233527	-1.049690	-1.076626
H64	H	-0.305120	-0.352195	-0.417345
H65	H	-0.498216	-0.879146	-1.088923
H66	H	-0.886383	-1.018068	-0.286296
H67	H	-0.304880	-1.044214	-0.725268
C68	C	-0.928667	-0.892337	-0.411848
H69	H	-0.986738	-0.896221	-0.407994
H70	H	-0.914404	-0.902775	-0.456761
H71	H	-0.914503	-0.847429	-0.401317
C72	C	-0.513507	-0.709361	-0.256161
H73	H	-0.545228	-0.676864	-0.231647
H74	H	-0.481569	-0.738249	-0.225400
H75	H	-0.549873	-0.735438	-0.283501
H76	H	-0.304920	-1.044198	-0.597036
C77	C	-0.289874	-0.718695	-0.429091
H78	H	-0.297499	-0.765537	-0.423197
H79	H	-0.233844	-0.709427	-0.416963
H80	H	-0.302157	-0.706618	-0.475058
H81	H	-0.498294	-0.571649	-0.267926
H82	H	-0.498341	-0.215889	-0.267946
C83	C	-0.289587	-1.057241	-0.942069
H84	H	-0.257822	-1.084342	-0.971947
H85	H	-0.321487	-1.085402	-0.915804
H86	H	-0.253263	-1.032849	-0.913005
C87	C	-0.513601	-0.866088	-0.595445
H88	H	-0.545352	-0.839000	-0.627913
H89	H	-0.481729	-0.837914	-0.566552
H90	H	-0.549936	-0.890482	-0.569371
C91	C	-0.513463	-0.866105	-0.951210
H92	H	-0.545200	-0.839011	-0.983681
H93	H	-0.481555	-0.837942	-0.922333
H94	H	-0.549812	-0.890467	-0.925119
C95	C	-0.513540	-0.866094	-0.743881
H96	H	-0.545292	-0.838985	-0.714001
H97	H	-0.549863	-0.890478	-0.772947
H98	H	-0.481631	-0.837931	-0.770144
C99	C	-0.289884	-0.570256	-0.429096
H100	H	-0.258178	-0.602753	-0.453622
H101	H	-0.253517	-0.544178	-0.401765
H102	H	-0.321832	-0.541369	-0.459858
