data_functionalizedCrystal
_audit_creation_method	'MofGen! by Chris Wilmer'
_symmetry_space_group_name_H-M	'P1'
_symmetry_Int_Tables_number	1
_symmetry_cell_setting	triclinic
loop_
_symmetry_equiv_pos_as_xyz
  x,y,z
_cell_length_a	19.805407
_cell_length_b	12.759399
_cell_length_c	12.759393
_cell_angle_alpha	90.030906
_cell_angle_beta	89.976310
_cell_angle_gamma	89.984884
loop_
_atom_site_label
_atom_site_type_symbol
_atom_site_fract_x
_atom_site_fract_y
_atom_site_fract_z
Zn1	Zn	1.034816	0.418215	-0.594094
Zn2	Zn	1.034745	0.593931	-0.418413
Zn3	Zn	0.921623	0.418267	-0.418421
Zn4	Zn	0.921617	0.593853	-0.594042
O5	O	0.978200	0.506066	-0.506243
O6	O	1.129523	0.441536	-0.570808
O7	O	1.019712	0.570683	-0.271393
O8	O	0.936670	0.271239	-0.441750
O9	O	1.129471	0.570633	-0.441736
O10	O	1.019833	0.271201	-0.570816
O11	O	0.936602	0.441623	-0.271399
O12	O	0.826905	0.441547	-0.441699
O13	O	0.936660	0.570500	-0.741070
O14	O	0.826901	0.570550	-0.570727
O15	O	1.019827	0.441460	-0.741108
O16	O	1.019706	0.740942	-0.441685
O17	O	0.936591	0.740884	-0.570719
C18	C	0.802344	0.506046	-0.506209
C19	C	0.727112	0.506063	-0.506219
C20	C	0.978159	0.779034	-0.506219
C21	C	0.978203	0.895810	-0.506244
C22	C	0.978251	0.505966	-0.780276
C23	C	0.978273	0.505923	-0.897053
C24	C	0.691784	0.573336	-0.573295
C25	C	0.621095	0.573338	-0.573310
C26	C	0.585737	0.506071	-0.506243
C27	C	0.621070	0.438791	-0.439163
C28	C	0.691758	0.438785	-0.439155
C29	C	0.335997	0.438814	-0.439198
C30	C	0.265305	0.438828	-0.439210
C31	C	0.265335	0.573367	-0.573353
C32	C	0.336022	0.573361	-0.573345
C33	C	0.371349	0.506077	-0.506270
C34	C	0.447998	0.506075	-0.506256
C35	C	0.509090	0.506078	-0.506250
C36	C	1.154743	0.506087	-0.506277
C37	C	1.229975	0.506096	-0.506292
C38	C	0.978260	0.232033	-0.506290
C39	C	0.978286	0.115257	-0.506310
C40	C	1.021530	0.950667	-0.439132
C41	C	1.021574	1.060391	-0.439167
C42	C	0.934957	1.060392	-0.573428
C43	C	0.934917	0.950670	-0.573398
C44	C	1.021581	0.438721	-0.951936
C45	C	1.021592	0.438675	-1.061661
C46	C	0.934985	0.573043	-1.061608
C47	C	0.934971	0.573082	-0.951886
C48	C	0.978189	0.506091	-0.233275
C49	C	0.978298	0.505838	-0.116499
H50	H	0.720567	0.628116	-0.627906
C51	C	0.582175	0.364796	-0.365391
C52	C	0.533602	0.282377	-0.411068
C53	C	0.494707	0.208384	-0.337293
C54	C	0.504386	0.216809	-0.217840
C55	C	0.552962	0.299231	-0.172157
C56	C	0.591857	0.373225	-0.245932
H57	H	0.526435	0.276138	-0.499500
H58	H	0.458748	0.147369	-0.371111
H59	H	0.475594	0.162034	-0.163227
H60	H	0.560129	0.305471	-0.083725
H61	H	0.627816	0.434239	-0.212114
C62	C	0.887254	0.890317	-0.647224
C63	C	0.916533	0.814783	-0.729727
C64	C	0.868875	0.754429	-0.803552
C65	C	0.791937	0.769609	-0.794876
C66	C	0.762653	0.845147	-0.712370
C67	C	0.810312	0.905501	-0.638544
H68	H	0.973491	0.803542	-0.736153
H69	H	0.890553	0.698511	-0.864629
H70	H	0.756658	0.724932	-0.849526
H71	H	0.705696	0.856388	-0.705943
H72	H	0.788634	0.961419	-0.577468
H73	H	0.592334	0.628119	-0.627929
C74	C	1.069233	1.120732	-0.365340
C75	C	1.039960	1.196273	-0.282838
C76	C	1.087623	1.256613	-0.209008
C77	C	1.164559	1.241412	-0.217680
C78	C	1.193837	1.165868	-0.300185
C79	C	1.146174	1.105528	-0.374015
H80	H	0.983003	1.207529	-0.276416
H81	H	1.065949	1.312536	-0.147932
H82	H	1.199842	1.286079	-0.163026
H83	H	1.250794	1.154612	-0.306608
H84	H	1.167848	1.049605	-0.435091
C85	C	1.069206	0.364839	-0.891620
C86	C	1.122329	0.410395	-0.816201
C87	C	1.169954	0.336508	-0.755888
C88	C	1.164457	0.217067	-0.770994
C89	C	1.111332	0.171505	-0.846416
C90	C	1.063707	0.245391	-0.906729
H91	H	1.126400	0.498818	-0.805015
H92	H	1.209281	0.370237	-0.700055
H93	H	1.199712	0.162371	-0.726347
H94	H	1.107261	0.083081	-0.857602
H95	H	1.024381	0.211663	-0.962562
H96	H	0.364807	0.628140	-0.627954
H97	H	0.899699	0.627805	-0.907198
H98	H	0.899714	1.105072	-0.628101
H99	H	1.056857	0.383951	-1.106342
H100	H	0.899732	0.627724	-1.106266
H101	H	0.236563	0.628149	-0.627973
H102	H	0.236518	0.384045	-0.384595
C103	C	0.730621	0.364784	-0.365368
C104	C	0.779187	0.410200	-0.282799
C105	C	0.818048	0.336192	-0.209014
C106	C	0.808344	0.216768	-0.217797
C107	C	0.759775	0.171346	-0.300369
C108	C	0.720914	0.245354	-0.374155
H109	H	0.786373	0.498610	-0.276294
H110	H	0.854002	0.369817	-0.147889
H111	H	0.837111	0.161982	-0.163177
H112	H	0.752589	0.082935	-0.306874
H113	H	0.684960	0.211729	-0.435280
H114	H	1.056777	0.906003	-0.384453
H115	H	0.364752	0.384036	-0.384574
