data_functionalizedCrystal
_audit_creation_method	'MofGen! by Chris Wilmer'
_symmetry_space_group_name_H-M	'P1'
_symmetry_Int_Tables_number	1
_symmetry_cell_setting	triclinic
loop_
_symmetry_equiv_pos_as_xyz
  x,y,z
_cell_length_a	14.971482
_cell_length_b	14.853567
_cell_length_c	14.048226
_cell_angle_alpha	89.997365
_cell_angle_beta	89.994098
_cell_angle_gamma	83.623769
loop_
_atom_site_label
_atom_site_type_symbol
_atom_site_fract_x
_atom_site_fract_y
_atom_site_fract_z
O1	O	1.186970	0.117472	-0.079140
O2	O	1.686970	0.617472	0.420860
O3	O	0.926572	0.131544	-0.079144
O4	O	1.426572	0.631544	0.420856
O5	O	1.063727	-0.006723	-0.079145
O6	O	1.563727	0.493277	0.420855
O7	O	1.049816	0.255739	-0.079139
O8	O	1.549816	0.755739	0.420861
O9	O	1.063710	-0.006731	0.079177
O10	O	1.563710	0.493269	0.579177
O11	O	0.926556	0.131536	0.079178
O12	O	1.426556	0.631536	0.579178
O13	O	1.186954	0.117463	0.079181
O14	O	1.686954	0.617463	0.579181
Zn15	Zn	1.056752	0.124499	0.104316
Zn16	Zn	1.556752	0.624499	0.604316
Zn17	Zn	1.056774	0.124509	-0.104279
Zn18	Zn	1.556774	0.624509	0.395721
O19	O	1.049799	0.255731	0.079182
O20	O	1.549799	0.755731	0.579182
C21	C	0.893239	0.130912	0.000016
C22	C	1.393239	0.630912	0.500016
C23	C	0.793942	0.129027	0.000015
C24	C	1.293942	0.629027	0.500015
C25	C	0.747288	0.128136	0.086317
C26	C	1.247288	0.628136	0.586317
C27	C	0.653989	0.126351	0.086318
C28	C	1.153989	0.626351	0.586318
C29	C	0.607345	0.125464	0.000016
C30	C	1.107345	0.625464	0.500016
C31	C	0.654006	0.126354	-0.086293
C32	C	1.154006	0.626354	0.413707
C33	C	0.747303	0.128132	-0.086293
C34	C	1.247303	0.628132	0.413707
C35	C	0.459543	0.122649	-0.086287
C36	C	0.959543	0.622649	0.413713
C37	C	0.366238	0.120872	-0.086287
C38	C	0.866238	0.620872	0.413713
C39	C	0.366228	0.120868	0.086324
C40	C	0.866228	0.620868	0.586324
C41	C	0.459526	0.122646	0.086324
C42	C	0.959526	0.622646	0.586324
C43	C	0.506180	0.123537	0.000015
C44	C	1.006180	0.623537	0.500015
C45	C	1.063088	-0.040316	0.000013
C46	C	1.563088	0.459684	0.500013
C47	C	1.061200	-0.140399	0.000005
C48	C	1.561200	0.359601	0.500005
C49	C	0.971742	-0.552915	0.000022
C50	C	1.471742	-0.052915	0.500022
C51	C	1.134685	-0.574228	0.000024
C52	C	1.634685	-0.074228	0.500024
C53	C	1.136461	-0.480195	0.000018
C54	C	1.636461	0.019805	0.500018
C55	C	1.055876	-0.422517	0.000016
C56	C	1.555876	0.077483	0.500016
C57	C	0.973516	-0.458873	0.000019
C58	C	1.473516	0.041127	0.500019
C59	C	1.218820	-0.443832	0.000025
C60	C	1.718820	0.056168	0.500025
C61	C	1.220599	-0.349793	0.000020
C62	C	1.720599	0.150207	0.500020
C63	C	1.140014	-0.292114	0.000011
C64	C	1.640014	0.207886	0.500011
C65	C	1.057650	-0.328475	0.000013
C66	C	1.557650	0.171525	0.500013
C67	C	0.977065	-0.270797	0.000011
C68	C	1.477065	0.229203	0.500011
C69	C	0.894700	-0.307156	0.000006
C70	C	1.394700	0.192844	0.500006
C71	C	0.892930	-0.401193	0.000010
C72	C	1.392930	0.098807	0.500010
C73	C	1.141784	-0.198077	0.000007
C74	C	1.641784	0.301923	0.500007
C75	C	0.978839	-0.176755	0.000008
C76	C	1.478839	0.323245	0.500008
C77	C	1.220287	0.118096	0.000019
C78	C	1.720287	0.618096	0.500019
C79	C	1.319585	0.119980	0.000015
C80	C	1.819585	0.619980	0.500015
C81	C	1.050438	0.289324	0.000022
C82	C	1.550438	0.789324	0.500022
C83	C	1.052327	0.389407	0.000024
C84	C	1.552327	0.889407	0.500024
N85	N	1.056744	0.124491	0.246677
N86	N	1.556744	0.624491	0.746677
N87	N	1.056789	0.124510	-0.246639
N88	N	1.556789	0.624510	0.253361
C89	C	1.117495	0.063291	0.296495
C90	C	1.617495	0.563291	0.796495
C91	C	1.117501	0.063291	0.396152
C92	C	1.617501	0.563291	0.896152
C93	C	1.056760	0.124495	0.445991
C94	C	1.556760	0.624495	0.945991
C95	C	0.996002	0.185697	0.396166
C96	C	1.496002	0.685697	0.896166
C97	C	0.995992	0.185693	0.296510
C98	C	1.495992	0.685693	0.796510
C99	C	0.996028	0.185704	0.603880
C100	C	1.496028	0.685704	1.103880
C101	C	0.996038	0.185710	0.703543
C102	C	1.496038	0.685710	1.203543
C103	C	1.117537	0.063302	0.703522
C104	C	1.617537	0.563302	1.203522
C105	C	1.117527	0.063297	0.603867
C106	C	1.617527	0.563297	1.103867
C107	C	1.056770	0.124501	0.554049
C108	C	1.556770	0.624501	1.054049
H109	H	0.328238	0.120143	0.156600
H110	H	0.828238	0.620143	0.656600
Cl111	Cl	0.595340	0.125246	0.194817
Cl112	Cl	1.095340	0.625246	0.694817
H113	H	0.328263	0.120151	-0.156562
H114	H	0.828263	0.620151	0.343438
H115	H	0.825873	-0.430806	0.000007
H116	H	1.325873	0.069194	0.500007
H117	H	0.785288	0.128860	-0.156569
H118	H	1.285288	0.628860	0.343431
Cl119	Cl	0.919612	0.262630	0.233883
Cl120	Cl	1.419612	0.762630	0.733883
H121	H	1.200293	-0.621195	0.000034
H122	H	1.700293	-0.121195	0.500034
H123	H	0.616021	0.125625	-0.156562
H124	H	1.116021	0.625625	0.343438
H125	H	1.166969	0.013457	0.436713
H126	H	1.666969	0.513457	0.936713
Cl127	Cl	1.324142	-0.304093	0.000010
Cl128	Cl	1.824142	0.195907	0.500010
H129	H	0.904682	-0.582523	0.000014
H130	H	1.404682	-0.082523	0.500014
H131	H	0.497526	0.123375	-0.156569
H132	H	0.997526	0.623375	0.343431
Cl133	Cl	0.919672	0.262654	0.766189
Cl134	Cl	1.419672	0.762654	1.266189
H135	H	1.284428	-0.490800	0.000036
H136	H	1.784428	0.009200	0.500036
H137	H	0.913216	-0.129799	0.000002
H138	H	1.413216	0.370201	0.500002
H139	H	0.497501	0.123374	0.156598
H140	H	0.997501	0.623374	0.656598
H141	H	0.829089	-0.260183	0.000011
H142	H	1.329089	0.239817	0.500011
H143	H	1.208844	-0.168477	0.000017
H144	H	1.708844	0.331523	0.500017
Cl145	Cl	1.193865	-0.013652	0.233851
Cl146	Cl	1.693865	0.486348	0.733851
H147	H	1.166991	0.013465	0.563288
H148	H	1.666991	0.513465	1.063288
Cl149	Cl	0.805916	0.129256	0.194817
Cl150	Cl	1.305916	0.629256	0.694817
H151	H	1.167006	0.013468	0.744090
H152	H	1.667006	0.513468	1.244090
Cl153	Cl	0.919643	0.262646	0.541256
Cl154	Cl	1.419643	0.762646	1.041256
Cl155	Cl	0.919635	0.262637	0.458818
Cl156	Cl	1.419635	0.762637	0.958818
