data_functionalizedCrystal
_audit_creation_method	'MofGen! by Chris Wilmer'
_symmetry_space_group_name_H-M	'P1'
_symmetry_Int_Tables_number	1
_symmetry_cell_setting	triclinic
loop_
_symmetry_equiv_pos_as_xyz
  x,y,z
_cell_length_a	12.645331
_cell_length_b	21.295417
_cell_length_c	12.645323
_cell_angle_alpha	89.966008
_cell_angle_beta	89.977324
_cell_angle_gamma	90.029485
loop_
_atom_site_label
_atom_site_type_symbol
_atom_site_fract_x
_atom_site_fract_y
_atom_site_fract_z
Zn1	Zn	1.620637	-0.250621	-0.599379
Zn2	Zn	1.953970	0.082712	-0.266046
Zn3	Zn	2.287303	0.416045	0.067288
Zn4	Zn	1.620479	-0.355896	-0.422091
Zn5	Zn	1.953812	-0.022563	-0.088758
Zn6	Zn	2.287146	0.310771	0.244576
Zn7	Zn	1.443351	-0.250643	-0.422123
Zn8	Zn	1.776685	0.082691	-0.088790
Zn9	Zn	2.110018	0.416024	0.244543
Zn10	Zn	1.443294	-0.355855	-0.599306
Zn11	Zn	1.776627	-0.022521	-0.265973
Zn12	Zn	2.109960	0.310812	0.067360
O13	O	1.531940	-0.303254	-0.510725
O14	O	1.865273	0.030080	-0.177392
O15	O	2.198607	0.363413	0.155942
O16	O	1.768963	-0.264595	-0.575878
O17	O	2.102296	0.068739	-0.242545
O18	O	2.435630	0.402072	0.090788
O19	O	1.596941	-0.341960	-0.273748
O20	O	1.930274	-0.008627	0.059586
O21	O	2.263607	0.324707	0.392919
O22	O	1.466959	-0.162550	-0.445681
O23	O	1.800292	0.170783	-0.112347
O24	O	2.133626	0.504116	0.220986
O25	O	1.768847	-0.341939	-0.445625
O26	O	2.102180	-0.008606	-0.112292
O27	O	2.435514	0.324727	0.221041
O28	O	1.597210	-0.162535	-0.575910
O29	O	1.930543	0.170799	-0.242576
O30	O	2.263877	0.504132	0.090757
O31	O	1.466806	-0.264631	-0.273772
O32	O	1.800139	0.068702	0.059562
O33	O	2.133473	0.402036	0.392895
O34	O	1.294996	-0.264591	-0.445610
O35	O	1.628330	0.068742	-0.112277
O36	O	1.961663	0.402076	0.221056
O37	O	1.466860	-0.341869	-0.747663
O38	O	1.800194	-0.008536	-0.414330
O39	O	2.133527	0.324797	-0.080997
O40	O	1.294954	-0.341890	-0.575786
O41	O	1.628287	-0.008557	-0.242452
O42	O	1.961621	0.324777	0.090881
O43	O	1.597154	-0.264555	-0.747717
O44	O	1.930487	0.068779	-0.414383
O45	O	2.263820	0.402112	-0.081050
O46	O	1.596884	-0.443980	-0.445555
O47	O	1.930218	-0.110647	-0.112221
O48	O	2.263551	0.222687	0.221112
O49	O	1.466707	-0.443950	-0.575754
O50	O	1.800041	-0.110616	-0.242421
O51	O	2.133374	0.222717	0.090912
C52	C	1.256510	-0.303239	-0.510694
C53	C	1.589844	0.030095	-0.177361
C54	C	1.923177	0.363428	0.155972
C55	C	1.138680	-0.303247	-0.510706
C56	C	1.472014	0.030086	-0.177373
C57	C	1.805347	0.363419	0.155960
C58	C	1.531801	-0.466805	-0.510666
C59	C	1.865135	-0.133472	-0.177333
C60	C	2.198468	0.199861	0.156000
C61	C	1.531839	-0.536773	-0.510677
C62	C	1.865172	-0.203440	-0.177343
C63	C	2.198505	0.129893	0.155990
C64	C	0.971108	-0.254395	-0.429265
C65	C	1.304441	0.078938	-0.095931
C66	C	1.637774	0.412272	0.237402
C67	C	1.093667	-0.254521	-0.428906
C68	C	1.427001	0.078812	-0.095573
C69	C	1.760334	0.412145	0.237761
C70	C	1.094135	-0.369560	-0.480174
C71	C	1.427468	-0.036227	-0.146840
C72	C	1.760802	0.297107	0.186493
C73	C	0.971537	-0.369293	-0.479618
C74	C	1.304870	-0.035960	-0.146285
C75	C	1.638203	0.297373	0.187049
C76	C	0.971537	-0.286418	-0.622995
C77	C	1.304871	0.046915	-0.289661
C78	C	1.638204	0.380248	0.043672
C79	C	1.094144	-0.284937	-0.622372
C80	C	1.427477	0.048396	-0.289038
C81	C	1.760810	0.381730	0.044295
C82	C	1.599682	-0.569635	-0.442951
C83	C	1.933016	-0.236302	-0.109618
C84	C	2.266349	0.097032	0.223715
C85	C	1.599732	-0.635377	-0.442975
C86	C	1.933065	-0.302044	-0.109642
C87	C	2.266399	0.031289	0.223692
C88	C	1.531919	-0.668256	-0.510713
C89	C	1.865252	-0.334923	-0.177380
C90	C	2.198586	-0.001589	0.155954
C91	C	1.464071	-0.635386	-0.578452
C92	C	1.797404	-0.302053	-0.245118
C93	C	2.130738	0.031280	0.088215
C94	C	1.464031	-0.569645	-0.578433
C95	C	1.797364	-0.236312	-0.245100
C96	C	2.130697	0.097021	0.088233
N97	N	1.439183	-0.771521	-0.518784
N98	N	1.772516	-0.438187	-0.185451
N99	N	2.105850	-0.104854	0.147882
N100	N	1.439224	-0.833972	-0.518796
N101	N	1.772558	-0.500639	-0.185462
N102	N	2.105891	-0.167305	0.147871
C103	C	1.532038	-0.866331	-0.510774
C104	C	1.865371	-0.532997	-0.177441
C105	C	2.198705	-0.199664	0.155893
N106	N	1.624811	-0.833879	-0.502720
N107	N	1.958144	-0.500545	-0.169386
N108	N	2.291477	-0.167212	0.163947
N109	N	1.624768	-0.771421	-0.502703
N110	N	1.958102	-0.438088	-0.169370
N111	N	2.291435	-0.104755	0.163964
C112	C	1.531956	-0.739541	-0.510741
C113	C	1.865289	-0.406208	-0.177408
C114	C	2.198622	-0.072875	0.155926
C115	C	1.599941	-0.970478	-0.443071
C116	C	1.933274	-0.637144	-0.109737
C117	C	2.266608	-0.303811	0.223596
C118	C	1.599993	-1.036221	-0.443102
C119	C	1.933326	-0.702888	-0.109769
C120	C	2.266659	-0.369555	0.223565
C121	C	1.464322	-1.036229	-0.578573
C122	C	1.797655	-0.702896	-0.245240
C123	C	2.130989	-0.369562	0.088094
C124	C	1.464280	-0.970487	-0.578547
C125	C	1.797613	-0.637153	-0.245214
C126	C	2.130947	-0.303820	0.088119
C127	C	1.532088	-0.937615	-0.510791
C128	C	1.865421	-0.604282	-0.177457
C129	C	2.198755	-0.270948	0.155876
C130	C	1.808445	-0.303269	-0.510756
C131	C	2.141779	0.030064	-0.177423
C132	C	2.475112	0.363398	0.155910
C133	C	1.926275	-0.303276	-0.510770
C134	C	2.259609	0.030058	-0.177436
C135	C	2.592942	0.363391	0.155897
C136	C	1.532018	-0.303205	-0.787230
C137	C	1.865352	0.030128	-0.453897
C138	C	2.198685	0.363462	-0.120564
C139	C	1.532052	-0.303184	-0.905061
C140	C	1.865385	0.030149	-0.571727
C141	C	2.198718	0.363482	-0.238394
C142	C	1.532109	-0.139063	-0.510807
C143	C	1.865442	0.194270	-0.177474
C144	C	2.198775	0.527603	0.155860
C145	C	1.532180	-0.069095	-0.510842
C146	C	1.865514	0.264238	-0.177509
C147	C	2.198847	0.597571	0.155825
C148	C	1.449831	-0.351594	-1.072591
C149	C	1.783165	-0.018260	-0.739258
C150	C	2.116498	0.315073	-0.405924
C151	C	1.450046	-0.351833	-0.950031
C152	C	1.783380	-0.018500	-0.616698
C153	C	2.116713	0.314833	-0.283364
C154	C	1.643744	-0.321189	-0.949576
C155	C	1.977078	0.012145	-0.616242
C156	C	2.310411	0.345478	-0.282909
C157	C	1.643293	-0.321492	-1.072174
C158	C	1.976627	0.011841	-0.738840
C159	C	2.309960	0.345174	-0.405507
C160	C	1.503635	-0.236500	-1.072276
C161	C	1.836969	0.096834	-0.738943
C162	C	2.170302	0.430167	-0.405610
C163	C	1.501143	-0.236899	-0.949670
C164	C	1.834476	0.096434	-0.616336
C165	C	2.167810	0.429767	-0.283003
C166	C	1.531923	-0.303257	-0.235295
C167	C	1.865257	0.030077	0.098038
C168	C	2.198590	0.363410	0.431372
C169	C	1.532096	-0.303100	-0.117466
C170	C	1.865429	0.030233	0.215868
C171	C	2.198762	0.363567	0.549201
H172	H	1.123787	-0.205348	-0.448045
H173	H	1.457120	0.127985	-0.114712
H174	H	1.790453	0.461319	0.218621
O175	O	1.727112	-0.275888	-0.910984
O176	O	2.060446	0.057445	-0.577651
O177	O	2.393779	0.390779	-0.244317
H178	H	1.764882	-0.252533	-0.979816
H179	H	2.098215	0.080801	-0.646482
H180	H	2.431548	0.414134	-0.313149
H181	H	1.367222	-0.340567	-0.919932
H182	H	1.700555	-0.007233	-0.586599
H183	H	2.033888	0.326100	-0.253265
H184	H	1.655158	-0.943712	-0.387902
H185	H	1.988491	-0.610379	-0.054569
H186	H	2.321825	-0.277046	0.278764
O187	O	1.339788	-0.336810	-1.111620
O188	O	1.673121	-0.003477	-0.778286
O189	O	2.006455	0.329857	-0.444953
H190	H	1.308756	-0.377413	-1.157045
H191	H	1.642090	-0.044079	-0.823712
H192	H	1.975423	0.289254	-0.490378
O193	O	0.930650	-0.223483	-0.659779
O194	O	1.263983	0.109851	-0.326445
O195	O	1.597316	0.443184	0.006888
H196	H	0.877605	-0.203514	-0.598474
H197	H	1.210938	0.129819	-0.265141
H198	H	1.544272	0.463152	0.068192
O199	O	1.582998	-0.188641	-1.110725
O200	O	1.916331	0.144692	-0.777391
O201	O	2.249665	0.478025	-0.444058
H202	H	1.623225	-0.166962	-1.041807
H203	H	1.956558	0.166372	-0.708474
H204	H	2.289891	0.499705	-0.375140
O205	O	1.474452	-0.416579	-1.113442
O206	O	1.807786	-0.083245	-0.780109
O207	O	2.141119	0.250088	-0.446775
H208	H	1.555121	-0.430375	-1.087861
H209	H	1.888454	-0.097042	-0.754528
H210	H	2.221788	0.236292	-0.421195
H211	H	0.942886	-0.383589	-0.397575
H212	H	1.276219	-0.050255	-0.064242
H213	H	1.609552	0.283078	0.269091
O214	O	0.932032	-0.189074	-0.454322
O215	O	1.265365	0.144259	-0.120988
O216	O	1.598699	0.477593	0.212345
H217	H	0.958384	-0.175565	-0.534925
H218	H	1.291717	0.157769	-0.201592
H219	H	1.625051	0.491102	0.131742
H220	H	0.942545	-0.322021	-0.683723
H221	H	1.275878	0.011312	-0.350390
H222	H	1.609212	0.344646	-0.017057
H223	H	1.654898	-0.542873	-0.387782
H224	H	1.988231	-0.209539	-0.054449
H225	H	2.321565	0.123794	0.278884
O226	O	1.676257	-0.385002	-0.908907
O227	O	2.009591	-0.051669	-0.575574
O228	O	2.342924	0.281665	-0.242240
H229	H	1.755356	-0.397208	-0.940921
H230	H	2.088689	-0.063875	-0.607588
H231	H	2.422022	0.269458	-0.274255
H232	H	1.122941	-0.265663	-0.345743
H233	H	1.456275	0.067670	-0.012409
H234	H	1.789608	0.401003	0.320924
O235	O	1.574716	-0.186505	-0.909140
O236	O	1.908050	0.146829	-0.575807
O237	O	2.241383	0.480162	-0.242473
H238	H	1.634734	-0.208012	-0.856339
H239	H	1.968067	0.125321	-0.523005
H240	H	2.301401	0.458654	-0.189672
H241	H	1.655246	-1.062976	-0.387954
H242	H	1.988579	-0.729643	-0.054621
H243	H	2.321912	-0.396309	0.278713
O244	O	1.474793	-0.417251	-0.911167
O245	O	1.808126	-0.083917	-0.577834
O246	O	2.141460	0.249416	-0.244501
H247	H	1.486687	-0.448834	-0.979941
H248	H	1.820020	-0.115500	-0.646607
H249	H	2.153354	0.217833	-0.313274
O250	O	1.675233	-0.385983	-1.110069
O251	O	2.008566	-0.052650	-0.776735
O252	O	2.341900	0.280684	-0.443402
H253	H	1.690851	-0.416661	-1.040830
H254	H	2.024184	-0.083327	-0.707496
H255	H	2.357518	0.250006	-0.374163
H256	H	1.706664	-0.287705	-1.101861
H257	H	2.039997	0.045628	-0.768528
H258	H	2.373330	0.378961	-0.435195
O259	O	1.391098	-0.935034	-0.651583
O260	O	1.724432	-0.601701	-0.318250
O261	O	2.057765	-0.268367	0.015083
H262	H	1.337182	-0.905129	-0.604069
H263	H	1.670516	-0.571796	-0.270736
H264	H	2.003849	-0.238462	0.062598
O265	O	0.932236	-0.419162	-0.554825
O266	O	1.265569	-0.085829	-0.221492
O267	O	1.598903	0.247504	0.111841
H268	H	1.000799	-0.443367	-0.591422
H269	H	1.334133	-0.110034	-0.258088
H270	H	1.667466	0.223300	0.075245
O271	O	1.132750	-0.419099	-0.556329
O272	O	1.466083	-0.085765	-0.222995
O273	O	1.799417	0.247568	0.110338
H274	H	1.184229	-0.396928	-0.616889
H275	H	1.517562	-0.063595	-0.283556
H276	H	1.850895	0.269738	0.049778
H277	H	1.654982	-0.662138	-0.387825
H278	H	1.988315	-0.328805	-0.054492
H279	H	2.321649	0.004528	0.278841
H280	H	1.418947	-0.223321	-0.920574
H281	H	1.752281	0.110012	-0.587241
H282	H	2.085614	0.443345	-0.253907
O283	O	1.397620	-0.214761	-1.113190
O284	O	1.730953	0.118572	-0.779857
O285	O	2.064287	0.451906	-0.446524
H286	H	1.364029	-0.251188	-1.166198
H287	H	1.697363	0.082145	-0.832865
H288	H	2.030696	0.415479	-0.499531
H289	H	1.124785	-0.384101	-0.399012
H290	H	1.458118	-0.050768	-0.065678
H291	H	1.791452	0.282565	0.267655
H292	H	0.940256	-0.265413	-0.346591
H293	H	1.273589	0.067920	-0.013258
H294	H	1.606922	0.401253	0.320076
H295	H	1.408859	-0.662160	-0.633606
H296	H	1.742192	-0.328827	-0.300273
H297	H	2.075526	0.004506	0.033060
O298	O	1.390834	-0.534195	-0.651463
O299	O	1.724168	-0.200862	-0.318129
O300	O	2.057501	0.132471	0.015204
H301	H	1.343678	-0.568100	-0.698564
H302	H	1.677011	-0.234766	-0.365231
H303	H	2.010345	0.098567	-0.031897
H304	H	1.123266	-0.236138	-0.645395
H305	H	1.456599	0.097195	-0.312061
H306	H	1.789933	0.430528	0.021272
H307	H	1.409112	-1.062998	-0.633731
H308	H	1.742445	-0.729665	-0.300398
H309	H	2.075779	-0.396331	0.032935
H310	H	1.124789	-0.317942	-0.686348
H311	H	1.458122	0.015391	-0.353015
H312	H	1.791456	0.348724	-0.019681
