data_functionalizedCrystal
_audit_creation_method	'MofGen! by Chris Wilmer'
_symmetry_space_group_name_H-M	'P1'
_symmetry_Int_Tables_number	1
_symmetry_cell_setting	triclinic
loop_
_symmetry_equiv_pos_as_xyz
  x,y,z
_cell_length_a	23.532407
_cell_length_b	23.532407
_cell_length_c	15.186229
_cell_angle_alpha	89.991614
_cell_angle_beta	90.001988
_cell_angle_gamma	82.848678
loop_
_atom_site_label
_atom_site_type_symbol
_atom_site_fract_x
_atom_site_fract_y
_atom_site_fract_z
O1	O	0.755259	0.069134	-0.073128
O2	O	1.088592	0.402467	0.260206
O3	O	1.421925	0.735801	0.593539
O4	O	0.589395	0.079137	-0.073155
O5	O	0.922729	0.412471	0.260179
O6	O	1.256062	0.745804	0.593512
O7	O	0.677329	-0.008796	-0.073124
O8	O	1.010662	0.324537	0.260209
O9	O	1.343995	0.657871	0.593543
O10	O	0.667325	0.157067	-0.073158
O11	O	1.000659	0.490401	0.260175
O12	O	1.333992	0.823734	0.593509
O13	O	0.677323	-0.008797	0.073333
O14	O	1.010656	0.324536	0.406666
O15	O	1.343989	0.657869	0.740000
O16	O	0.589389	0.079136	0.073303
O17	O	0.922723	0.412469	0.406636
O18	O	1.256056	0.745803	0.739969
O19	O	0.755253	0.069133	0.073330
O20	O	1.088586	0.402466	0.406663
O21	O	1.421919	0.735800	0.739996
Zn22	Zn	0.672320	0.074134	0.096569
Zn23	Zn	1.005654	0.407468	0.429903
Zn24	Zn	1.338987	0.740801	0.763236
Zn25	Zn	0.672328	0.074136	-0.096394
Zn26	Zn	1.005661	0.407469	0.236939
Zn27	Zn	1.338995	0.740803	0.570272
O28	O	0.667320	0.157066	0.073299
O29	O	1.000653	0.490399	0.406633
O30	O	1.333986	0.823733	0.739966
C31	C	0.568176	0.078882	0.000071
C32	C	0.901510	0.412215	0.333404
C33	C	1.234843	0.745549	0.666737
C34	C	0.504959	0.078116	0.000061
C35	C	0.838293	0.411449	0.333394
C36	C	1.171626	0.744783	0.666728
C37	C	0.105856	0.125350	0.000091
C38	C	0.439190	0.458683	0.333425
C39	C	0.772523	0.792016	0.666758
C40	C	0.046456	0.124638	0.000097
C41	C	0.379789	0.457971	0.333430
C42	C	0.713123	0.791305	0.666764
O43	O	0.009711	0.168424	0.000120
O44	O	0.343045	0.501757	0.333453
O45	O	0.676378	0.835091	0.666787
N46	N	0.023830	0.072362	0.000106
N47	N	0.357163	0.405695	0.333439
N48	N	0.690496	0.739028	0.666773
C49	C	0.060607	0.020794	0.000119
C50	C	0.393941	0.354127	0.333452
C51	C	0.727274	0.687460	0.666785
O52	O	0.035908	-0.023737	0.000128
O53	O	0.369241	0.309596	0.333461
O54	O	0.702574	0.642930	0.666795
C55	C	0.120006	0.021506	0.000120
C56	C	0.453340	0.354839	0.333453
C57	C	0.786673	0.688172	0.666786
C58	C	0.142629	0.073785	0.000101
C59	C	0.475962	0.407119	0.333435
C60	C	0.809296	0.740452	0.666768
C61	C	0.128479	0.177625	0.000074
C62	C	0.461813	0.510958	0.333407
C63	C	0.795146	0.844292	0.666741
C64	C	0.187876	0.178336	0.000067
C65	C	0.521209	0.511670	0.333400
C66	C	0.854542	0.845003	0.666734
C67	C	0.224649	0.126772	0.000077
C68	C	0.557982	0.460105	0.333410
C69	C	0.891315	0.793439	0.666744
C70	C	0.202025	0.074496	0.000094
C71	C	0.535359	0.407830	0.333427
C72	C	0.868692	0.741163	0.666761
C73	C	0.156783	-0.030062	0.000138
C74	C	0.490116	0.303271	0.333472
C75	C	0.823450	0.636605	0.666805
C76	C	0.216185	-0.029345	0.000140
C77	C	0.549519	0.303988	0.333473
C78	C	0.882852	0.637321	0.666807
C79	C	0.238808	0.022934	0.000122
C80	C	0.572141	0.356268	0.333455
C81	C	0.905475	0.689601	0.666788
C82	C	0.298194	0.023643	0.000097
C83	C	0.631528	0.356977	0.333430
C84	C	0.964861	0.690310	0.666764
N85	N	0.320820	0.075920	0.000088
N86	N	0.654154	0.409253	0.333421
N87	N	0.987487	0.742586	0.666754
C88	C	0.284048	0.127484	0.000078
C89	C	0.617381	0.460817	0.333411
C90	C	0.950714	0.794151	0.666744
C91	C	-0.064135	0.019302	0.000119
C92	C	0.269198	0.352635	0.333452
C93	C	0.602532	0.685969	0.666785
C94	C	-0.123533	0.018589	0.000112
C95	C	0.209800	0.351923	0.333445
C96	C	0.543134	0.685256	0.666778
C97	C	-0.137680	0.122434	0.000091
C98	C	0.195653	0.455768	0.333425
C99	C	0.528986	0.789101	0.666758
C100	C	-0.078281	0.123146	0.000092
C101	C	0.255052	0.456480	0.333425
C102	C	0.588385	0.789813	0.666759
C103	C	-0.041509	0.071578	0.000109
C104	C	0.291824	0.404912	0.333443
C105	C	0.625158	0.738245	0.666776
C106	C	0.408784	0.128974	0.000062
C107	C	0.742118	0.462307	0.333395
C108	C	1.075451	0.795640	0.666729
C109	C	0.468186	0.129680	0.000051
C110	C	0.801520	0.463014	0.333384
C111	C	1.134853	0.796347	0.666718
C112	C	0.482329	0.025836	0.000076
C113	C	0.815662	0.359169	0.333409
C114	C	1.148995	0.692503	0.666743
C115	C	0.422932	0.025129	0.000082
C116	C	0.756265	0.358462	0.333415
C117	C	1.089598	0.691796	0.666749
C118	C	0.386160	0.076702	0.000078
C119	C	0.719494	0.410036	0.333411
C120	C	1.052827	0.743369	0.666745
O121	O	0.334974	-0.020119	0.000078
O122	O	0.668307	0.313214	0.333411
O123	O	1.001640	0.646547	0.666744
O124	O	0.308755	0.172007	0.000080
O125	O	0.642089	0.505340	0.333413
O126	O	0.975422	0.838674	0.666747
C127	C	0.677071	-0.030013	0.000107
C128	C	1.010404	0.303321	0.333440
C129	C	1.343738	0.636654	0.666773
C130	C	0.676305	-0.093230	0.000113
C131	C	1.009638	0.240104	0.333447
C132	C	1.342972	0.573437	0.666780
C133	C	0.723539	-0.492333	0.000073
C134	C	1.056872	-0.158999	0.333406
C135	C	1.390205	0.174334	0.666739
C136	C	0.722827	-0.551733	0.000066
C137	C	1.056160	-0.218400	0.333399
C138	C	1.389494	0.114934	0.666733
O139	O	0.766613	-0.588478	0.000041
O140	O	1.099946	-0.255144	0.333374
O141	O	1.433280	0.078189	0.666707
N142	N	0.670551	-0.574359	0.000058
N143	N	1.003884	-0.241026	0.333391
N144	N	1.337217	0.092307	0.666725
C145	C	0.618983	-0.537582	0.000048
C146	C	0.952316	-0.204248	0.333381
C147	C	1.285649	0.129085	0.666715
O148	O	0.574452	-0.562281	0.000040
O149	O	0.907785	-0.228948	0.333373
O150	O	1.241119	0.104385	0.666707
C151	C	0.619695	-0.478182	0.000049
C152	C	0.953028	-0.144849	0.333382
C153	C	1.286361	0.188484	0.666715
C154	C	0.671974	-0.455560	0.000065
C155	C	1.005308	-0.122227	0.333399
C156	C	1.338641	0.211107	0.666732
C157	C	0.775814	-0.469710	0.000089
C158	C	1.109147	-0.136376	0.333422
C159	C	1.442481	0.196957	0.666755
C160	C	0.776525	-0.410313	0.000097
C161	C	1.109859	-0.076980	0.333430
C162	C	1.443192	0.256353	0.666764
C163	C	0.724961	-0.373540	0.000090
C164	C	1.058294	-0.040207	0.333423
C165	C	1.391628	0.293126	0.666756
C166	C	0.672685	-0.396164	0.000074
C167	C	1.006019	-0.062830	0.333407
C168	C	1.339352	0.270503	0.666740
C169	C	0.568127	-0.441406	0.000032
C170	C	0.901460	-0.108073	0.333365
C171	C	1.234794	0.225261	0.666699
C172	C	0.568844	-0.382004	0.000032
C173	C	0.902177	-0.048670	0.333365
C174	C	1.235510	0.284663	0.666699
C175	C	0.621123	-0.359381	0.000049
C176	C	0.954457	-0.026048	0.333382
C177	C	1.287790	0.307286	0.666716
C178	C	0.621832	-0.299995	0.000075
C179	C	0.955166	0.033339	0.333408
C180	C	1.288499	0.366672	0.666742
N181	N	0.674109	-0.277368	0.000083
N182	N	1.007442	0.055965	0.333416
N183	N	1.340775	0.389298	0.666749
C184	C	0.725673	-0.314141	0.000090
C185	C	1.059006	0.019192	0.333423
C186	C	1.392340	0.352525	0.666757
C187	C	0.617491	-0.662324	0.000045
C188	C	0.950824	-0.328991	0.333379
C189	C	1.284158	0.004343	0.666712
C190	C	0.616778	-0.721722	0.000051
C191	C	0.950112	-0.388389	0.333385
C192	C	1.283445	-0.055055	0.666718
C193	C	0.720623	-0.735869	0.000068
C194	C	1.053957	-0.402536	0.333401
C195	C	1.387290	-0.069203	0.666734
C196	C	0.721335	-0.676470	0.000068
C197	C	1.054669	-0.343137	0.333401
C198	C	1.388002	-0.009804	0.666735
C199	C	0.669767	-0.639698	0.000053
C200	C	1.003101	-0.306365	0.333387
C201	C	1.336434	0.026969	0.666720
C202	C	0.727163	-0.189405	0.000109
C203	C	1.060496	0.143929	0.333442
C204	C	1.393829	0.477262	0.666775
C205	C	0.727869	-0.130003	0.000121
C206	C	1.061203	0.203331	0.333454
C207	C	1.394536	0.536664	0.666787
C208	C	0.624025	-0.115860	0.000100
C209	C	0.957358	0.217473	0.333433
C210	C	1.290692	0.550806	0.666766
C211	C	0.623318	-0.175257	0.000092
C212	C	0.956651	0.158076	0.333426
C213	C	1.289985	0.491409	0.666759
C214	C	0.674891	-0.212029	0.000094
C215	C	1.008225	0.121305	0.333427
C216	C	1.341558	0.454638	0.666760
O217	O	0.578070	-0.263215	0.000097
O218	O	0.911403	0.070118	0.333430
O219	O	1.244736	0.403451	0.666763
O220	O	0.770196	-0.289433	0.000087
O221	O	1.103529	0.043900	0.333420
O222	O	1.436863	0.377233	0.666753
C223	C	0.776472	0.069388	0.000102
C224	C	1.109805	0.402722	0.333436
C225	C	1.443138	0.736055	0.666769
C226	C	0.839689	0.070154	0.000106
C227	C	1.173022	0.403487	0.333440
C228	C	1.506355	0.736821	0.666773
C229	C	0.667577	0.178283	0.000066
C230	C	1.000910	0.511616	0.333400
C231	C	1.334244	0.844949	0.666733
C232	C	0.668343	0.241500	0.000054
C233	C	1.001676	0.574833	0.333387
C234	C	1.335010	0.908167	0.666721
N235	N	0.672319	0.074133	0.228262
N236	N	1.005652	0.407466	0.561595
N237	N	1.338986	0.740799	0.894929
N238	N	0.672334	0.074133	-0.228087
N239	N	1.005667	0.407466	0.105246
N240	N	1.339000	0.740799	0.438580
C241	C	0.711269	0.035209	0.453998
C242	C	1.044602	0.368542	0.787332
C243	C	1.377936	0.701876	1.120665
C244	C	0.711271	0.035208	0.546188
C245	C	1.044604	0.368541	0.879521
C246	C	1.377938	0.701874	1.212855
C247	C	0.633379	0.113059	0.546170
C248	C	0.966713	0.446392	0.879503
C249	C	1.300046	0.779725	1.212837
C250	C	0.633375	0.113057	0.453982
C251	C	0.966709	0.446390	0.787316
C252	C	1.300042	0.779723	1.120649
C253	C	0.672323	0.074133	0.407899
C254	C	1.005657	0.407466	0.741232
C255	C	1.338990	0.740799	1.074565
C256	C	0.672329	0.074133	0.592276
C257	C	1.005663	0.407466	0.925610
C258	C	1.338996	0.740800	1.258943
C259	C	0.672331	0.074132	0.692232
C260	C	1.005664	0.407465	1.025566
C261	C	1.338998	0.740799	1.358899
C262	C	0.672321	0.074133	0.307936
C263	C	1.005655	0.407466	0.641270
C264	C	1.338988	0.740800	0.974603
H265	H	0.206289	0.220908	0.000052
H266	H	0.539622	0.554241	0.333385
H267	H	0.872956	0.887574	0.666719
H268	H	0.770443	-0.111587	0.000137
H269	H	1.103777	0.221746	0.333470
H270	H	1.437110	0.555080	0.666803
H271	H	0.512280	-0.016146	0.000081
H272	H	0.845613	0.317187	0.333414
H273	H	1.178946	0.650520	0.666747
H274	H	0.404512	-0.017441	0.000084
H275	H	0.737845	0.315892	0.333417
H276	H	1.071178	0.649225	0.666751
H277	H	0.769159	-0.219337	0.000106
H278	H	1.102492	0.113996	0.333440
H279	H	1.435826	0.447329	0.666773
F280	F	0.752721	-0.006221	0.595248
F281	F	1.086054	0.327112	0.928581
F282	F	1.419388	0.660445	1.261915
H283	H	-0.167632	0.164421	0.000087
H284	H	0.165701	0.497754	0.333421
H285	H	0.499035	0.831087	0.666754
H286	H	0.526850	-0.352066	0.000019
H287	H	0.860183	-0.018732	0.333352
H288	H	1.193516	0.314601	0.666685
F289	F	0.832169	-0.386245	0.000096
F290	F	1.165502	-0.052911	0.333429
F291	F	1.498835	0.280422	0.666763
H292	H	0.742982	0.003514	0.416479
H293	H	1.076316	0.336847	0.749813
H294	H	1.409649	0.670180	1.083146
H295	H	0.601670	0.144751	0.583701
H296	H	0.935003	0.478084	0.917034
H297	H	1.268336	0.811417	1.250367
F298	F	0.591920	0.154484	0.404916
F299	F	0.925253	0.487818	0.738249
F300	F	1.258586	0.821151	1.071582
H301	H	0.378851	0.170970	0.000061
H302	H	0.712185	0.504303	0.333395
H303	H	1.045518	0.837637	0.666728
F304	F	0.492259	0.185326	0.000029
F305	F	0.825592	0.518659	0.333362
F306	F	1.158926	0.851993	0.666695
H307	H	0.098544	0.219617	0.000069
H308	H	0.431877	0.552951	0.333403
H309	H	0.765211	0.886284	0.666736
F310	F	0.132720	-0.085706	0.000145
F311	F	0.466053	0.247627	0.333479
F312	F	0.799386	0.580961	0.666812
H313	H	0.580748	-0.193677	0.000103
H314	H	0.914081	0.139656	0.333436
H315	H	1.247414	0.472989	0.666770
H316	H	0.574207	-0.740136	0.000053
H317	H	0.907540	-0.406802	0.333386
H318	H	1.240874	-0.073469	0.666719
F319	F	-0.054210	0.178789	0.000075
F320	F	0.279123	0.512122	0.333408
F321	F	0.612456	0.845455	0.666741
F322	F	0.830701	-0.508838	0.000096
F323	F	1.164034	-0.175505	0.333429
F324	F	1.497368	0.157828	0.666763
H325	H	0.525555	-0.459814	0.000013
H326	H	0.858889	-0.126481	0.333346
H327	H	1.192222	0.206852	0.666680
H328	H	0.763906	-0.658056	0.000081
H329	H	1.097239	-0.324722	0.333414
H330	H	1.430573	0.008611	0.666748
F331	F	0.255318	-0.084233	0.000161
F332	F	0.588652	0.249101	0.333494
F333	F	0.921985	0.582434	0.666827
F334	F	-0.025003	-0.035587	0.000129
F335	F	0.308330	0.297746	0.333462
F336	F	0.641663	0.631079	0.666795
F337	F	-0.147603	-0.037054	0.000111
F338	F	0.185730	0.296280	0.333444
F339	F	0.519064	0.629613	0.666778
F340	F	0.562602	-0.623192	0.000038
F341	F	0.895935	-0.289859	0.333371
F342	F	1.229268	0.043474	0.666705
F343	F	0.775503	-0.775016	0.000071
F344	F	1.108836	-0.441683	0.333404
F345	F	1.442170	-0.108350	0.666738
H346	H	0.582043	-0.085909	0.000097
H347	H	0.915376	0.247424	0.333430
H348	H	1.248709	0.580757	0.666764
