data_functionalizedCrystal
_audit_creation_method	'MofGen! by Chris Wilmer'
_symmetry_space_group_name_H-M	'P1'
_symmetry_Int_Tables_number	1
_symmetry_cell_setting	triclinic
loop_
_symmetry_equiv_pos_as_xyz
  x,y,z
_cell_length_a	16.109301
_cell_length_b	16.109301
_cell_length_c	14.586319
_cell_angle_alpha	90.004131
_cell_angle_beta	90.005770
_cell_angle_gamma	83.461481
loop_
_atom_site_label
_atom_site_type_symbol
_atom_site_fract_x
_atom_site_fract_y
_atom_site_fract_z
O1	O	0.106867	1.103131	0.076243
O2	O	0.606867	1.603131	0.576243
O3	O	0.120166	0.861070	0.076245
O4	O	0.620166	1.361070	0.576245
O5	O	-0.007515	0.988750	0.076235
O6	O	0.492485	1.488750	0.576235
O7	O	0.234547	0.975451	0.076254
O8	O	0.734547	1.475451	0.576254
O9	O	-0.007518	0.988740	-0.076246
O10	O	0.492482	1.488740	0.423754
O11	O	0.120163	0.861059	-0.076236
O12	O	0.620163	1.361059	0.423764
O13	O	0.106864	1.103121	-0.076238
O14	O	0.606864	1.603121	0.423762
Cu15	Cu	0.113513	0.982089	-0.090159
Cu16	Cu	0.613513	1.482089	0.409841
Cu17	Cu	0.113517	0.982101	0.090167
Cu18	Cu	0.613517	1.482101	0.590167
O19	O	0.234544	0.975441	-0.076227
O20	O	0.734544	1.475441	0.423773
C21	C	-0.038491	0.988206	-0.000006
C22	C	0.461509	1.488206	0.499994
C23	C	-0.130786	0.986591	-0.000007
C24	C	0.369214	1.486591	0.499993
C25	C	0.119626	0.830090	0.000005
C26	C	0.619626	1.330090	0.500005
C27	C	0.118011	0.737794	0.000006
C28	C	0.618011	1.237794	0.500006
C29	C	0.107404	1.134101	0.000004
C30	C	0.607404	1.634101	0.500004
C31	C	0.109019	1.226397	0.000010
C32	C	0.609019	1.726397	0.500010
C33	C	-0.353059	1.058599	0.000006
C34	C	0.146941	1.558599	0.500006
C35	C	-0.439779	1.057075	0.000014
C36	C	0.060221	1.557075	0.500014
C37	C	-0.419905	0.905586	0.000012
C38	C	0.080095	1.405586	0.500012
C39	C	-0.333186	0.907111	0.000011
C40	C	0.166814	1.407111	0.500011
C41	C	-0.299766	0.983620	0.000003
C42	C	0.200234	1.483620	0.500003
C43	C	-0.473205	0.980571	0.000012
C44	C	0.026795	1.480571	0.500012
C45	C	-0.567231	0.978918	0.000020
C46	C	-0.067231	1.478918	0.500020
C47	C	-0.205734	0.985273	-0.000003
C48	C	0.294266	1.485273	0.499997
C49	C	0.265521	0.975984	0.000016
C50	C	0.765521	1.475984	0.500016
C51	C	0.357816	0.977600	0.000023
C52	C	0.857816	1.477600	0.500023
N53	N	0.113510	0.982087	-0.216991
N54	N	0.613510	1.482087	0.283009
C55	C	0.037011	1.448669	-0.000000
C56	C	0.537011	1.948669	0.500000
C57	C	0.038535	1.535389	-0.000003
C58	C	0.538535	2.035389	0.499997
C59	C	0.190024	1.515515	0.000013
C60	C	0.690024	2.015515	0.500013
C61	C	0.188499	1.428796	0.000010
C62	C	0.688499	1.928796	0.500010
C63	C	0.111990	1.395376	0.000008
C64	C	0.611990	1.895376	0.500008
C65	C	0.115039	1.568815	0.000008
C66	C	0.615039	2.068815	0.500008
C67	C	0.116692	1.662841	0.000005
C68	C	0.616692	2.162841	0.500005
C69	C	0.110337	1.301344	0.000009
C70	C	0.610337	1.801344	0.500009
C71	C	0.056991	1.038646	-0.547990
C72	C	0.556991	1.538646	-0.047990
C73	C	0.056992	1.038644	-0.452008
C74	C	0.556992	1.538644	0.047992
C75	C	0.170038	0.925549	-0.452010
C76	C	0.670038	1.425549	0.047990
C77	C	0.170040	0.925555	-0.547989
C78	C	0.670040	1.425555	-0.047989
C79	C	0.113513	0.982103	-0.595977
C80	C	0.613513	1.482103	-0.095977
C81	C	0.113510	0.982094	-0.404016
C82	C	0.613510	1.482094	0.095984
C83	C	0.113511	0.982092	-0.299949
C84	C	0.613511	1.482092	0.200051
C85	C	0.113513	0.982107	-0.700050
C86	C	0.613513	1.482107	-0.200050
N87	N	0.113513	0.982110	0.216999
N88	N	0.613513	1.482110	0.716999
H89	H	-0.483168	1.118130	0.000018
H90	H	0.016832	1.618130	0.500018
H91	H	-0.447127	0.843295	0.000016
H92	H	0.052873	1.343295	0.500016
H93	H	-0.289792	0.846050	0.000011
H94	H	0.210208	1.346050	0.500011
C95	C	-0.005167	1.100852	-0.399222
C96	C	0.494833	1.600852	0.100778
H97	H	0.002935	1.092762	-0.335187
H98	H	0.502935	1.592762	0.164813
H99	H	-0.060663	1.091853	-0.414951
H100	H	0.439337	1.591853	0.085049
H101	H	0.003896	1.156332	-0.414954
H102	H	0.503896	1.656332	0.085046
C103	C	-0.047144	1.411908	-0.000013
C104	C	0.452856	1.911908	0.499987
H105	H	-0.091580	1.456071	-0.000027
H106	H	0.408420	1.956071	0.499973
H107	H	-0.050893	1.378494	0.053158
H108	H	0.449107	1.878494	0.553158
H109	H	-0.050884	1.378492	-0.053196
H110	H	0.449116	1.878492	0.446804
C111	C	-0.043942	1.594008	-0.000005
C112	C	0.456058	2.094008	0.499995
H113	H	-0.089722	1.561681	0.000000
H114	H	0.410278	2.061681	0.500000
H115	H	-0.046500	1.628249	-0.053177
H116	H	0.453500	2.128249	0.446823
H117	H	-0.046492	1.628251	0.053176
H118	H	0.453508	2.128251	0.553176
H119	H	0.216060	0.879508	-0.412929
H120	H	0.716060	1.379508	0.087071
C121	C	0.274177	1.552281	0.000027
C122	C	0.774177	2.052281	0.500027
H123	H	0.264348	1.611560	0.000038
H124	H	0.764348	2.111560	0.500038
H125	H	0.305053	1.533986	-0.053141
H126	H	0.805053	2.033986	0.446859
H127	H	0.305043	1.533986	0.053212
H128	H	0.805043	2.033986	0.553212
H129	H	0.249560	1.385402	0.000013
H130	H	0.749560	1.885402	0.500013
H131	H	0.216071	0.879511	-0.587063
H132	H	0.716071	1.379511	-0.087063
H133	H	0.010964	1.084691	-0.587059
H134	H	0.510964	1.584691	-0.087059
H135	H	-0.325851	1.120897	0.000002
H136	H	0.174149	1.620897	0.500002
