data_functionalizedCrystal
_audit_creation_method	'MofGen! by Chris Wilmer'
_symmetry_space_group_name_H-M	'P1'
_symmetry_Int_Tables_number	1
_symmetry_cell_setting	triclinic
loop_
_symmetry_equiv_pos_as_xyz
  x,y,z
_cell_length_a	23.532407
_cell_length_b	23.532407
_cell_length_c	22.010155
_cell_angle_alpha	89.999577
_cell_angle_beta	89.996931
_cell_angle_gamma	82.848678
loop_
_atom_site_label
_atom_site_type_symbol
_atom_site_fract_x
_atom_site_fract_y
_atom_site_fract_z
O1	O	0.755264	0.069127	-0.050455
O2	O	1.255264	0.569127	0.449545
O3	O	0.589400	0.079130	-0.050474
O4	O	1.089400	0.579130	0.449526
O5	O	0.677334	-0.008803	-0.050453
O6	O	1.177334	0.491197	0.449547
O7	O	0.667330	0.157060	-0.050476
O8	O	1.167330	0.657060	0.449524
O9	O	0.677318	-0.008790	0.050597
O10	O	1.177318	0.491210	0.550597
O11	O	0.589384	0.079143	0.050576
O12	O	1.089384	0.579143	0.550576
O13	O	0.755248	0.069140	0.050595
O14	O	1.255248	0.569140	0.550595
Cu15	Cu	0.672315	0.074143	0.059812
Cu16	Cu	1.172315	0.574143	0.559812
Cu17	Cu	0.672333	0.074127	-0.059691
Cu18	Cu	1.172333	0.574127	0.440309
O19	O	0.667314	0.157073	0.050574
O20	O	1.167314	0.657073	0.550574
C21	C	0.568176	0.078882	0.000049
C22	C	1.068176	0.578882	0.500049
C23	C	0.504959	0.078116	0.000042
C24	C	1.004959	0.578116	0.500042
C25	C	0.105856	0.125350	0.000063
C26	C	0.605856	0.625350	0.500063
C27	C	0.046456	0.124638	0.000067
C28	C	0.546456	0.624638	0.500067
O29	O	0.009711	0.168424	0.000083
O30	O	0.509711	0.668424	0.500083
N31	N	0.023830	0.072362	0.000073
N32	N	0.523830	0.572362	0.500073
C33	C	0.060607	0.020794	0.000082
C34	C	0.560607	0.520794	0.500082
O35	O	0.035908	-0.023737	0.000088
O36	O	0.535908	0.476263	0.500088
C37	C	0.120006	0.021506	0.000082
C38	C	0.620006	0.521506	0.500082
C39	C	0.142629	0.073785	0.000070
C40	C	0.642629	0.573785	0.500070
C41	C	0.128479	0.177625	0.000051
C42	C	0.628479	0.677625	0.500051
C43	C	0.187876	0.178336	0.000046
C44	C	0.687876	0.678336	0.500046
C45	C	0.224649	0.126772	0.000053
C46	C	0.724649	0.626772	0.500053
C47	C	0.202025	0.074497	0.000065
C48	C	0.702025	0.574497	0.500065
C49	C	0.156783	-0.030062	0.000096
C50	C	0.656783	0.469938	0.500096
C51	C	0.216185	-0.029345	0.000097
C52	C	0.716185	0.470655	0.500097
C53	C	0.238808	0.022934	0.000084
C54	C	0.738808	0.522934	0.500084
C55	C	0.298194	0.023643	0.000067
C56	C	0.798194	0.523643	0.500067
N57	N	0.320820	0.075920	0.000061
N58	N	0.820820	0.575920	0.500061
C59	C	0.284048	0.127484	0.000054
C60	C	0.784048	0.627484	0.500054
C61	C	-0.064135	0.019302	0.000082
C62	C	0.435865	0.519302	0.500082
C63	C	-0.123533	0.018589	0.000077
C64	C	0.376467	0.518589	0.500077
C65	C	-0.137680	0.122434	0.000063
C66	C	0.362320	0.622434	0.500063
C67	C	-0.078281	0.123146	0.000064
C68	C	0.421719	0.623146	0.500064
C69	C	-0.041509	0.071578	0.000076
C70	C	0.458491	0.571578	0.500076
C71	C	0.408784	0.128974	0.000043
C72	C	0.908784	0.628974	0.500043
C73	C	0.468186	0.129680	0.000035
C74	C	0.968186	0.629680	0.500035
C75	C	0.482329	0.025836	0.000052
C76	C	0.982329	0.525836	0.500052
C77	C	0.422932	0.025129	0.000057
C78	C	0.922932	0.525129	0.500057
C79	C	0.386160	0.076702	0.000054
C80	C	0.886160	0.576702	0.500054
O81	O	0.334974	-0.020119	0.000054
O82	O	0.834974	0.479881	0.500054
O83	O	0.308755	0.172007	0.000055
O84	O	0.808755	0.672007	0.500055
C85	C	0.677071	-0.030013	0.000074
C86	C	1.177071	0.469987	0.500074
C87	C	0.676305	-0.093230	0.000078
C88	C	1.176305	0.406770	0.500078
C89	C	0.723539	-0.492333	0.000050
C90	C	1.223539	0.007667	0.500050
C91	C	0.722827	-0.551733	0.000046
C92	C	1.222827	-0.051733	0.500046
O93	O	0.766613	-0.588478	0.000028
O94	O	1.266613	-0.088478	0.500028
N95	N	0.670551	-0.574359	0.000040
N96	N	1.170551	-0.074359	0.500040
C97	C	0.618983	-0.537582	0.000033
C98	C	1.118983	-0.037582	0.500033
O99	O	0.574452	-0.562281	0.000027
O100	O	1.074452	-0.062281	0.500027
C101	C	0.619695	-0.478182	0.000033
C102	C	1.119695	0.021818	0.500033
C103	C	0.671974	-0.455560	0.000045
C104	C	1.171974	0.044440	0.500045
C105	C	0.775814	-0.469710	0.000061
C106	C	1.275814	0.030290	0.500061
C107	C	0.776525	-0.410313	0.000067
C108	C	1.276525	0.089687	0.500067
C109	C	0.724961	-0.373540	0.000062
C110	C	1.224961	0.126460	0.500062
C111	C	0.672685	-0.396164	0.000051
C112	C	1.172685	0.103836	0.500051
C113	C	0.568127	-0.441406	0.000022
C114	C	1.068127	0.058594	0.500022
C115	C	0.568844	-0.382004	0.000022
C116	C	1.068844	0.117996	0.500022
C117	C	0.621123	-0.359381	0.000034
C118	C	1.121123	0.140619	0.500034
C119	C	0.621832	-0.299995	0.000052
C120	C	1.121832	0.200005	0.500052
N121	N	0.674109	-0.277368	0.000057
N122	N	1.174109	0.222632	0.500057
C123	C	0.725673	-0.314141	0.000062
C124	C	1.225673	0.185859	0.500062
C125	C	0.617491	-0.662324	0.000031
C126	C	1.117491	-0.162324	0.500031
C127	C	0.616778	-0.721722	0.000035
C128	C	1.116778	-0.221722	0.500035
C129	C	0.720623	-0.735869	0.000047
C130	C	1.220623	-0.235869	0.500047
C131	C	0.721335	-0.676470	0.000047
C132	C	1.221335	-0.176470	0.500047
C133	C	0.669767	-0.639698	0.000037
C134	C	1.169767	-0.139698	0.500037
C135	C	0.727163	-0.189405	0.000075
C136	C	1.227163	0.310595	0.500075
C137	C	0.727869	-0.130003	0.000083
C138	C	1.227869	0.369997	0.500083
C139	C	0.624025	-0.115860	0.000069
C140	C	1.124025	0.384140	0.500069
C141	C	0.623318	-0.175257	0.000064
C142	C	1.123318	0.324743	0.500064
C143	C	0.674891	-0.212029	0.000065
C144	C	1.174891	0.287971	0.500065
O145	O	0.578070	-0.263215	0.000067
O146	O	1.078070	0.236785	0.500067
O147	O	0.770196	-0.289433	0.000060
O148	O	1.270196	0.210567	0.500060
C149	C	0.776472	0.069388	0.000071
C150	C	1.276472	0.569388	0.500071
C151	C	0.839689	0.070154	0.000073
C152	C	1.339689	0.570154	0.500073
C153	C	0.667577	0.178283	0.000046
C154	C	1.167577	0.678283	0.500046
C155	C	0.668343	0.241500	0.000037
C156	C	1.168343	0.741500	0.500037
N157	N	0.672305	0.074153	0.143865
N158	N	1.172305	0.574153	0.643865
N159	N	0.672347	0.074112	-0.143744
N160	N	1.172347	0.574112	0.356256
C161	C	0.711273	0.035196	0.563653
C162	C	1.211273	0.535196	1.063653
C163	C	0.711275	0.035192	0.627261
C164	C	1.211275	0.535192	1.127261
O165	O	0.744384	0.002076	0.660160
O166	O	1.244384	0.502076	1.160160
N167	N	0.672333	0.074115	0.659072
N168	N	1.172333	0.574115	1.159072
C169	C	0.633382	0.113041	0.627272
C170	C	1.133382	0.613041	1.127272
O171	O	0.600259	0.146148	0.660170
O172	O	1.100259	0.646148	1.160170
C173	C	0.633377	0.113042	0.563665
C174	C	1.133377	0.613042	1.063665
C175	C	0.672326	0.074120	0.531858
C176	C	1.172326	0.574120	1.031858
C177	C	0.750217	-0.003723	0.531846
C178	C	1.250217	0.496277	1.031846
C179	C	0.750215	-0.003719	0.468243
C180	C	1.250215	0.496281	0.968243
C181	C	0.711268	0.035205	0.436447
C182	C	1.211268	0.535205	0.936447
C183	C	0.672324	0.074125	0.468255
C184	C	1.172324	0.574125	0.968255
C185	C	0.594424	0.151965	0.531866
C186	C	1.094424	0.651965	1.031866
C187	C	0.594422	0.151962	0.468256
C188	C	1.094422	0.651962	0.968256
C189	C	0.633370	0.113040	0.436448
C190	C	1.133370	0.613040	0.936448
C191	C	0.633374	0.113054	0.372856
C192	C	1.133374	0.613054	0.872856
N193	N	0.672317	0.074130	0.341045
N194	N	1.172317	0.574130	0.841045
C195	C	0.711263	0.035206	0.372841
C196	C	1.211263	0.535206	0.872841
C197	C	0.633395	0.113036	0.760850
C198	C	1.133395	0.613036	1.260850
C199	C	0.633402	0.113039	0.824455
C200	C	1.133402	0.613039	1.324455
C201	C	0.711294	0.035188	0.824440
C202	C	1.211294	0.535188	1.324440
C203	C	0.711290	0.035189	0.760833
C204	C	1.211290	0.535189	1.260833
C205	C	0.672337	0.074113	0.729039
C206	C	1.172337	0.574113	1.229039
C207	C	0.711256	0.035220	0.239269
C208	C	1.211256	0.535220	0.739269
C209	C	0.711252	0.035229	0.175660
C210	C	1.211252	0.535229	0.675660
C211	C	0.633358	0.113077	0.175681
C212	C	1.133358	0.613077	0.675681
C213	C	0.633364	0.113070	0.239284
C214	C	1.133364	0.613070	0.739284
C215	C	0.672315	0.074136	0.271077
C216	C	1.172315	0.574136	0.771077
O217	O	0.600282	0.146151	0.339916
O218	O	1.100282	0.646151	0.839916
O219	O	0.744376	0.002100	0.339935
O220	O	1.244376	0.502100	0.839935
H221	H	-0.059867	0.165717	0.000057
H222	H	0.440133	0.665717	0.500057
C223	C	0.754095	-0.007589	0.140676
C224	C	1.254095	0.492411	0.640676
H225	H	0.777285	-0.030775	0.168725
H226	H	1.277285	0.469225	0.668725
H227	H	0.777685	0.012777	0.115861
H228	H	1.277685	0.512777	0.615861
H229	H	0.733740	-0.031194	0.115865
H230	H	1.233740	0.468806	0.615865
C231	C	0.832540	-0.510151	0.000072
C232	C	1.332540	-0.010151	0.500072
H233	H	0.863770	-0.488162	0.000083
H234	H	1.363770	0.011838	0.500083
H235	H	0.834436	-0.533621	-0.035164
H236	H	1.334436	-0.033621	0.464836
H237	H	0.834415	-0.533613	0.035317
H238	H	1.334415	-0.033613	0.535317
C239	C	0.559273	-0.746603	0.000030
C240	C	1.059273	-0.246603	0.500030
H241	H	0.566228	-0.787246	0.000032
H242	H	1.066228	-0.287246	0.500032
H243	H	0.538062	-0.733957	-0.035210
H244	H	1.038062	-0.233957	0.464790
H245	H	0.538053	-0.733962	0.035271
H246	H	1.038053	-0.233962	0.535271
H247	H	0.781929	-0.035414	0.442349
H248	H	1.281929	0.464586	0.942349
C249	C	0.560763	-0.621879	0.000032
C250	C	1.060763	-0.121879	0.500032
H251	H	0.529531	-0.643866	0.000034
H252	H	1.029531	-0.143866	0.500034
H253	H	0.558881	-0.598411	-0.035205
H254	H	1.058881	-0.098411	0.464795
H255	H	0.558876	-0.598416	0.035276
H256	H	1.058876	-0.098416	0.535276
C257	C	0.834033	-0.385436	0.000068
C258	C	1.334033	0.114564	0.500068
H259	H	0.864637	-0.415850	0.000063
H260	H	1.364637	0.084150	0.500063
H261	H	0.836473	-0.362558	0.035305
H262	H	1.336473	0.137442	0.535305
H263	H	0.836474	-0.362562	-0.035176
H264	H	1.336474	0.137438	0.464824
C265	C	0.510620	-0.466281	0.000002
C266	C	1.010620	0.033719	0.500002
H267	H	0.517572	-0.506924	0.000004
H268	H	1.017572	-0.006924	0.500004
H269	H	0.489416	-0.453632	-0.035242
H270	H	0.989416	0.046368	0.464758
H271	H	0.489395	-0.453638	0.035240
H272	H	0.989395	0.046362	0.535240
H273	H	0.742973	0.003516	0.265148
H274	H	1.242973	0.503516	0.765148
C275	C	0.522786	-0.030880	0.000065
C276	C	1.022786	0.469120	0.500065
H277	H	0.561400	-0.022964	0.000068
H278	H	1.061400	0.477036	0.500068
H279	H	0.515965	-0.052342	-0.035167
H280	H	1.015965	0.447658	0.464833
H281	H	0.515957	-0.052320	0.035315
H282	H	1.015957	0.447680	0.535315
C283	C	0.793066	-0.046541	0.566811
C284	C	1.293066	0.453459	1.066811
H285	H	0.816258	-0.069713	0.538750
H286	H	1.316258	0.430287	1.038750
H287	H	0.772726	-0.070151	0.591630
H288	H	1.272726	0.429849	1.091630
H289	H	0.816661	-0.026170	0.591617
H290	H	1.316661	0.473830	1.091617
H291	H	-0.141947	-0.023982	0.000078
H292	H	0.358053	0.476018	0.500078
C293	C	0.754128	-0.007629	0.725851
C294	C	1.254128	0.492371	1.225851
H295	H	0.777320	-0.030811	0.753902
H296	H	1.277320	0.469189	1.253902
H297	H	0.777717	0.012734	0.701032
H298	H	1.277717	0.512734	1.201032
H299	H	0.733772	-0.031237	0.701044
H300	H	1.233772	0.468763	1.201044
C301	C	0.785379	-0.105121	0.000093
C302	C	1.285379	0.394879	0.500093
H303	H	0.815986	-0.135532	0.000088
H304	H	1.315986	0.364468	0.500088
H305	H	0.787813	-0.082246	0.035333
H306	H	1.287813	0.417754	0.535333
H307	H	0.787821	-0.082243	-0.035149
H308	H	1.287821	0.417757	0.464851
C309	C	0.754130	-0.007634	0.859423
C310	C	1.254130	0.492366	1.359423
H311	H	0.748547	-0.002061	0.901859
H312	H	1.248547	0.497939	1.401859
H313	H	0.792105	-0.001647	0.849000
H314	H	1.292105	0.498353	1.349000
H315	H	0.748155	-0.045613	0.848999
H316	H	1.248155	0.454387	1.348999
H317	H	0.601692	0.144738	0.850348
H318	H	1.101692	0.644738	1.350348
H319	H	0.763906	-0.658056	0.000056
H320	H	1.263906	-0.158056	0.500056
C321	C	0.256632	-0.086072	0.000103
C322	C	0.756632	0.413928	0.500103
H323	H	0.234647	-0.117306	0.000105
H324	H	0.734647	0.382694	0.500105
H325	H	0.280100	-0.087951	0.035338
H326	H	0.780100	0.412049	0.535338
H327	H	0.280095	-0.087957	-0.035143
H328	H	0.780095	0.412043	0.464857
H329	H	0.098544	0.219617	0.000048
H330	H	0.598544	0.719617	0.500048
H331	H	0.486602	0.172255	0.000025
H332	H	0.986602	0.672255	0.500025
C333	C	0.590516	0.155886	0.140698
C334	C	1.090516	0.655886	0.640698
H335	H	0.596091	0.150306	0.098261
H336	H	1.096091	0.650306	0.598261
H337	H	0.596475	0.193869	0.151117
H338	H	1.096475	0.693869	0.651117
H339	H	0.552544	0.149883	0.151125
H340	H	1.052544	0.649883	0.651125
C341	C	0.590552	0.155863	0.725881
C342	C	1.090552	0.655863	1.225881
H343	H	0.567366	0.179045	0.753940
H344	H	1.067366	0.679045	1.253940
H345	H	0.566957	0.135502	0.701069
H346	H	1.066957	0.635502	1.201069
H347	H	0.610905	0.179471	0.701069
H348	H	1.110905	0.679471	1.201069
H349	H	0.404512	-0.017441	0.000058
H350	H	0.904512	0.482559	0.500058
H351	H	0.562708	0.183658	0.557755
H352	H	1.062708	0.683658	1.057755
C353	C	0.212753	0.235844	0.000044
C354	C	0.712753	0.735844	0.500044
H355	H	0.182339	0.266448	0.000048
H356	H	0.682339	0.766448	0.500048
H357	H	0.235634	0.238286	-0.035192
H358	H	0.735634	0.738286	0.464808
H359	H	0.235625	0.238283	0.035289
H360	H	0.735625	0.738283	0.535289
H361	H	0.562700	0.183658	0.442372
H362	H	1.062700	0.683658	0.942372
H363	H	0.762610	-0.765821	0.000048
H364	H	1.262610	-0.265821	0.500048
H365	H	-0.034198	-0.022693	0.000086
H366	H	0.465802	0.477307	0.500086
C367	C	0.590501	0.155861	0.274274
C368	C	1.090501	0.655861	0.774274
H369	H	0.567297	0.179034	0.246225
H370	H	1.067297	0.679034	0.746225
H371	H	0.610823	0.179473	0.299105
H372	H	1.110823	0.679473	0.799105
H373	H	0.566919	0.135461	0.299068
H374	H	1.066919	0.635461	0.799068
C375	C	0.783892	-0.229845	0.000081
C376	C	1.283892	0.270155	0.500081
H377	H	0.815123	-0.207856	0.000094
H378	H	1.315123	0.292144	0.500094
H379	H	0.785787	-0.253311	-0.035157
H380	H	1.285787	0.246689	0.464843
H381	H	0.785768	-0.253310	0.035324
H382	H	1.285768	0.246690	0.535324
H383	H	0.526850	-0.352066	0.000013
H384	H	1.026850	0.147934	0.500013
C385	C	0.368344	0.185703	0.000032
C386	C	0.868344	0.685703	0.500032
H387	H	0.390333	0.216934	0.000017
H388	H	0.890333	0.716934	0.500017
H389	H	0.344875	0.187598	0.035269
H390	H	0.844875	0.687598	0.535269
H391	H	0.344883	0.187578	-0.035213
H392	H	0.844883	0.687578	0.464787
H393	H	0.580748	-0.193677	0.000071
H394	H	1.080748	0.306323	0.500071
C395	C	0.567307	-0.075406	0.000059
C396	C	1.067307	0.424594	0.500059
H397	H	0.536068	-0.097383	0.000055
H398	H	1.036068	0.402617	0.500055
H399	H	0.565439	-0.051940	-0.035179
H400	H	1.065439	0.448060	0.464821
H401	H	0.565420	-0.051940	0.035302
H402	H	1.065420	0.448060	0.535302
H403	H	0.138375	-0.072634	0.000106
H404	H	0.638375	0.427366	0.500106
C405	C	-0.178138	0.179155	0.000061
C406	C	0.321862	0.679155	0.500061
H407	H	-0.216753	0.171239	0.000069
H408	H	0.283247	0.671239	0.500069
H409	H	-0.171314	0.200604	-0.035180
H410	H	0.328686	0.700604	0.464820
H411	H	-0.171314	0.200607	0.035302
H412	H	0.328686	0.700607	0.535302
