data_functionalizedCrystal
_audit_creation_method	'MofGen! by Chris Wilmer'
_symmetry_space_group_name_H-M	'P1'
_symmetry_Int_Tables_number	1
_symmetry_cell_setting	triclinic
loop_
_symmetry_equiv_pos_as_xyz
  x,y,z
_cell_length_a	19.121063
_cell_length_b	19.121147
_cell_length_c	18.215399
_cell_angle_alpha	92.459497
_cell_angle_beta	92.409843
_cell_angle_gamma	89.873734
loop_
_atom_site_label
_atom_site_type_symbol
_atom_site_fract_x
_atom_site_fract_y
_atom_site_fract_z
Zn1	Zn	-0.324920	-1.059850	-0.477954
Zn2	Zn	-0.074920	-0.809850	-0.227954
Zn3	Zn	0.175080	-0.559850	0.022046
Zn4	Zn	0.425080	-0.309850	0.272046
Zn5	Zn	-0.442158	-1.054756	-0.359893
Zn6	Zn	-0.192158	-0.804756	-0.109893
Zn7	Zn	0.057842	-0.554756	0.140107
Zn8	Zn	0.307842	-0.304756	0.390107
Zn9	Zn	-0.319932	-0.942612	-0.349442
Zn10	Zn	-0.069932	-0.692612	-0.099442
Zn11	Zn	0.180068	-0.442612	0.150558
Zn12	Zn	0.430068	-0.192612	0.400558
Zn13	Zn	-0.437109	-0.937575	-0.477459
Zn14	Zn	-0.187109	-0.687575	-0.227459
Zn15	Zn	0.062891	-0.437575	0.022541
Zn16	Zn	0.312891	-0.187575	0.272541
O17	O	-0.381030	-0.998698	-0.416187
O18	O	-0.131030	-0.748698	-0.166187
O19	O	0.118970	-0.498698	0.083813
O20	O	0.368970	-0.248698	0.333813
O21	O	-0.344673	-1.157279	-0.466873
O22	O	-0.094673	-0.907279	-0.216873
O23	O	0.155327	-0.657279	0.033127
O24	O	0.405327	-0.407279	0.283127
O25	O	-0.425969	-1.039856	-0.255522
O26	O	-0.175969	-0.789856	-0.005522
O27	O	0.074031	-0.539856	0.244478
O28	O	0.324031	-0.289856	0.494478
O29	O	-0.222490	-0.962404	-0.362323
O30	O	0.027510	-0.712404	-0.112323
O31	O	0.277510	-0.462404	0.137677
O32	O	0.527510	-0.212404	0.387677
O33	O	-0.430806	-1.153536	-0.380134
O34	O	-0.180806	-0.903536	-0.130134
O35	O	0.069194	-0.653536	0.119866
O36	O	0.319194	-0.403536	0.369866
O37	O	-0.226155	-1.048538	-0.456740
O38	O	0.023845	-0.798538	-0.206740
O39	O	0.273845	-0.548538	0.043260
O40	O	0.523845	-0.298538	0.293260
O41	O	-0.336170	-0.957464	-0.247844
O42	O	-0.086170	-0.707464	0.002156
O43	O	0.163830	-0.457464	0.252156
O44	O	0.413830	-0.207464	0.502156
O45	O	-0.331275	-0.843839	-0.361843
O46	O	-0.081275	-0.593839	-0.111843
O47	O	0.168725	-0.343839	0.138157
O48	O	0.418725	-0.093839	0.388157
O49	O	-0.422202	-0.953819	-0.580509
O50	O	-0.172202	-0.703819	-0.330509
O51	O	0.077798	-0.453819	-0.080509
O52	O	0.327798	-0.203819	0.169491
O53	O	-0.417365	-0.840138	-0.455896
O54	O	-0.167365	-0.590138	-0.205896
O55	O	0.082635	-0.340138	0.044104
O56	O	0.332635	-0.090138	0.294104
O57	O	-0.339777	-1.043654	-0.580872
O58	O	-0.089777	-0.793654	-0.330872
O59	O	0.160223	-0.543654	-0.080872
O60	O	0.410223	-0.293654	0.169128
O61	O	-0.539591	-1.034971	-0.379654
O62	O	-0.289591	-0.784971	-0.129654
O63	O	-0.039591	-0.534971	0.120346
O64	O	0.210409	-0.284971	0.370346
O65	O	-0.535882	-0.948879	-0.466029
O66	O	-0.285882	-0.698879	-0.216029
O67	O	-0.035882	-0.448879	0.033971
O68	O	0.214118	-0.198879	0.283971
C69	C	-0.373231	-0.816551	-0.407682
C70	C	-0.123231	-0.566551	-0.157682
C71	C	0.126769	-0.316551	0.092318
C72	C	0.376769	-0.066551	0.342318
C73	C	-0.369912	-0.738627	-0.404062
C74	C	-0.119912	-0.488627	-0.154062
C75	C	0.130088	-0.238627	0.095938
C76	C	0.380088	0.011373	0.345938
C77	C	-0.348853	-0.298002	-0.381135
C78	C	-0.098853	-0.048002	-0.131135
C79	C	0.151147	0.201998	0.118865
C80	C	0.401147	0.451998	0.368865
C81	C	-0.351976	-0.371219	-0.384540
C82	C	-0.101976	-0.121219	-0.134540
C83	C	0.148024	0.128781	0.115460
C84	C	0.398024	0.378781	0.365460
C85	C	-0.398434	-0.405914	-0.435138
C86	C	-0.148434	-0.155914	-0.185138
C87	C	0.101566	0.094086	0.064862
C88	C	0.351566	0.344086	0.314862
C89	C	-0.441766	-0.367388	-0.482338
C90	C	-0.191766	-0.117388	-0.232338
C91	C	0.058234	0.132612	0.017662
C92	C	0.308234	0.382612	0.267662
C93	C	-0.438639	-0.294172	-0.478936
C94	C	-0.188639	-0.044172	-0.228936
C95	C	0.061361	0.205828	0.021064
C96	C	0.311361	0.455828	0.271064
C97	C	-0.410117	-0.626884	-0.447861
C98	C	-0.160117	-0.376884	-0.197861
C99	C	0.089883	-0.126884	0.052139
C100	C	0.339883	0.123116	0.302139
C101	C	-0.413242	-0.700106	-0.451258
C102	C	-0.163242	-0.450106	-0.201258
C103	C	0.086758	-0.200106	0.048742
C104	C	0.336758	0.049894	0.298742
C105	C	-0.323451	-0.703932	-0.353460
C106	C	-0.073451	-0.453932	-0.103460
C107	C	0.176549	-0.203932	0.146540
C108	C	0.426549	0.046068	0.396540
C109	C	-0.320331	-0.630714	-0.350059
C110	C	-0.070331	-0.380714	-0.100059
C111	C	0.179669	-0.130714	0.149941
C112	C	0.429669	0.119286	0.399941
C113	C	-0.363661	-0.592194	-0.397262
C114	C	-0.113661	-0.342194	-0.147262
C115	C	0.136339	-0.092194	0.102738
C116	C	0.386339	0.157806	0.352738
C117	C	-0.401628	-0.480754	-0.438619
C118	C	-0.151628	-0.230754	-0.188619
C119	C	0.098372	0.019246	0.061381
C120	C	0.348372	0.269246	0.311381
C121	C	-0.360462	-0.517356	-0.393785
C122	C	-0.110462	-0.267356	-0.143785
C123	C	0.139538	-0.017356	0.106215
C124	C	0.389538	0.232644	0.356215
C125	C	-0.563175	-0.990845	-0.423939
C126	C	-0.313175	-0.740845	-0.173939
C127	C	-0.063175	-0.490845	0.076061
C128	C	0.186825	-0.240845	0.326061
C129	C	-0.641100	-0.987550	-0.427283
C130	C	-0.391100	-0.737550	-0.177283
C131	C	-0.141100	-0.487550	0.072717
C132	C	0.108900	-0.237550	0.322717
C133	C	-0.679619	-1.030860	-0.383924
C134	C	-0.429619	-0.780860	-0.133924
C135	C	-0.179619	-0.530860	0.116076
C136	C	0.070381	-0.280860	0.366076
C137	C	-0.752838	-1.027764	-0.387073
C138	C	-0.502838	-0.777764	-0.137073
C139	C	-0.252838	-0.527764	0.112927
C140	C	-0.002838	-0.277764	0.362927
C141	C	-0.787536	-0.981355	-0.433579
C142	C	-0.537536	-0.731355	-0.183579
C143	C	-0.287536	-0.481355	0.066421
C144	C	-0.037536	-0.231355	0.316421
C145	C	-0.749012	-0.938043	-0.476943
C146	C	-0.499012	-0.688043	-0.226943
C147	C	-0.249012	-0.438043	0.023057
C148	C	0.000988	-0.188043	0.273057
C149	C	-0.675795	-0.941142	-0.473797
C150	C	-0.425795	-0.691142	-0.223797
C151	C	-0.175795	-0.441142	0.026203
C152	C	0.074205	-0.191142	0.276203
C153	C	-1.008511	-0.969756	-0.445330
C154	C	-0.758511	-0.719756	-0.195330
C155	C	-0.508511	-0.469756	0.054670
C156	C	-0.258511	-0.219756	0.304670
C157	C	-1.081733	-0.966659	-0.448471
C158	C	-0.831733	-0.716659	-0.198471
C159	C	-0.581733	-0.466659	0.051529
C160	C	-0.331733	-0.216659	0.301529
C161	C	-1.085553	-1.056381	-0.358602
C162	C	-0.835553	-0.806381	-0.108602
C163	C	-0.585553	-0.556381	0.141398
C164	C	-0.335553	-0.306381	0.391398
C165	C	-1.012334	-1.059474	-0.355457
C166	C	-0.762334	-0.809474	-0.105457
C167	C	-0.512334	-0.559474	0.144543
C168	C	-0.262334	-0.309474	0.394543
C169	C	-0.973817	-1.016164	-0.398824
C170	C	-0.723817	-0.766164	-0.148824
C171	C	-0.473817	-0.516164	0.101176
C172	C	-0.223817	-0.266164	0.351176
C173	C	-0.862378	-0.978189	-0.436798
C174	C	-0.612378	-0.728189	-0.186798
C175	C	-0.362378	-0.478189	0.063202
C176	C	-0.112378	-0.228189	0.313202
C177	C	-0.898977	-1.019335	-0.395608
C178	C	-0.648977	-0.769335	-0.145608
C179	C	-0.398977	-0.519335	0.104392
C180	C	-0.148977	-0.269335	0.354392
C181	C	-0.198174	-1.006601	-0.408421
C182	C	0.051826	-0.756601	-0.158421
C183	C	0.301826	-0.506601	0.091579
C184	C	0.551826	-0.256601	0.341579
C185	C	-0.120252	-1.009969	-0.405112
C186	C	0.129748	-0.759969	-0.155112
C187	C	0.379748	-0.509969	0.094888
C188	C	0.629748	-0.259969	0.344888
C189	C	-0.380983	-0.998743	-0.608140
C190	C	-0.130983	-0.748743	-0.358140
C191	C	0.119017	-0.498743	-0.108140
C192	C	0.369017	-0.248743	0.141860
C193	C	-0.380963	-0.998762	-0.689939
C194	C	-0.130963	-0.748762	-0.439939
C195	C	0.119037	-0.498762	-0.189939
C196	C	0.369037	-0.248762	0.060061
C197	C	-0.388856	-0.181557	-0.424716
C198	C	-0.138856	0.068443	-0.174716
C199	C	0.111144	0.318443	0.075284
C200	C	0.361144	0.568443	0.325284
C201	C	-0.392184	-0.259480	-0.428330
C202	C	-0.142184	-0.009480	-0.178330
C203	C	0.107816	0.240520	0.071670
C204	C	0.357816	0.490520	0.321670
C205	C	-0.338004	-1.045557	-0.878322
C206	C	-0.088004	-0.795557	-0.628322
C207	C	0.161996	-0.545557	-0.378322
C208	C	0.411996	-0.295557	-0.128322
C209	C	-0.337983	-1.045566	-0.955180
C210	C	-0.087983	-0.795566	-0.705180
C211	C	0.162017	-0.545566	-0.455180
C212	C	0.412017	-0.295566	-0.205180
C213	C	-0.423817	-0.952021	-0.954791
C214	C	-0.173817	-0.702021	-0.704791
C215	C	0.076183	-0.452021	-0.454791
C216	C	0.326183	-0.202021	-0.204791
C217	C	-0.423833	-0.952009	-0.877933
C218	C	-0.173833	-0.702009	-0.627933
C219	C	0.076167	-0.452009	-0.377933
C220	C	0.326167	-0.202009	-0.127933
C221	C	-0.380927	-0.998781	-0.839701
C222	C	-0.130927	-0.748781	-0.589701
C223	C	0.119073	-0.498781	-0.339701
C224	C	0.369073	-0.248781	-0.089701
C225	C	-0.380891	-0.998802	-0.993417
C226	C	-0.130891	-0.748802	-0.743417
C227	C	0.119109	-0.498802	-0.493417
C228	C	0.369109	-0.248802	-0.243417
C229	C	-0.380870	-0.998812	-1.076750
C230	C	-0.130870	-0.748812	-0.826750
C231	C	0.119130	-0.498812	-0.576750
C232	C	0.369130	-0.248812	-0.326750
C233	C	-0.380948	-0.998771	-0.756363
C234	C	-0.130948	-0.748771	-0.506363
C235	C	0.119052	-0.498771	-0.256363
C236	C	0.369052	-0.248771	-0.006363
C237	C	-0.381027	-0.998696	-0.224980
C238	C	-0.131027	-0.748696	0.025020
C239	C	0.118973	-0.498696	0.275020
C240	C	0.368973	-0.248696	0.525020
C241	C	-0.380855	-0.998821	-0.143180
C242	C	-0.130855	-0.748821	0.106820
C243	C	0.119145	-0.498821	0.356820
C244	C	0.369145	-0.248821	0.606820
H245	H	-0.288174	-0.735303	-0.315031
H246	H	-0.038174	-0.485303	-0.065031
H247	H	0.211826	-0.235303	0.184969
H248	H	0.461826	0.014697	0.434969
H249	H	-0.479590	-0.395642	-0.523539
H250	H	-0.229590	-0.145642	-0.273539
H251	H	0.020410	0.104358	-0.023539
H252	H	0.270410	0.354358	0.226461
Cl253	Cl	-0.284026	-1.104379	-1.003730
Cl254	Cl	-0.034026	-0.854379	-0.753730
Cl255	Cl	0.215974	-0.604379	-0.503730
Cl256	Cl	0.465974	-0.354379	-0.253730
H257	H	-0.451074	-0.728352	-0.492465
H258	H	-0.201074	-0.478352	-0.242465
H259	H	0.048926	-0.228352	0.007535
H260	H	0.298926	0.021648	0.257535
Cl261	Cl	-0.855354	-1.077679	-0.337149
Cl262	Cl	-0.605354	-0.827679	-0.087149
Cl263	Cl	-0.355354	-0.577679	0.162851
Cl264	Cl	-0.105354	-0.327679	0.412851
H265	H	-0.311023	-0.269758	-0.339932
H266	H	-0.061023	-0.019758	-0.089932
H267	H	0.188977	0.230242	0.160068
H268	H	0.438977	0.480242	0.410068
Cl269	Cl	-0.477794	-0.893196	-0.829377
Cl270	Cl	-0.227794	-0.643196	-0.579377
Cl271	Cl	0.022206	-0.393196	-0.329377
Cl272	Cl	0.272206	-0.143196	-0.079377
Cl273	Cl	-0.968719	-1.117829	-0.297001
Cl274	Cl	-0.718719	-0.867829	-0.047001
Cl275	Cl	-0.468719	-0.617829	0.202999
Cl276	Cl	-0.218719	-0.367829	0.452999
Cl277	Cl	-0.792634	-0.879704	-0.535412
Cl278	Cl	-0.542634	-0.629704	-0.285412
Cl279	Cl	-0.292634	-0.379704	-0.035412
Cl280	Cl	-0.042634	-0.129704	0.214588
Cl281	Cl	-0.906005	-0.919846	-0.495259
Cl282	Cl	-0.656005	-0.669846	-0.245259
Cl283	Cl	-0.406005	-0.419846	0.004741
Cl284	Cl	-0.156005	-0.169846	0.254741
Cl285	Cl	-0.627371	-0.886695	-0.528311
Cl286	Cl	-0.377371	-0.636695	-0.278311
Cl287	Cl	-0.127371	-0.386695	-0.028311
Cl288	Cl	0.122629	-0.136695	0.221689
H289	H	-0.282506	-0.602471	-0.308852
H290	H	-0.032506	-0.352471	-0.058852
H291	H	0.217494	-0.102471	0.191148
H292	H	0.467494	0.147529	0.441148
H293	H	-0.473922	-0.262808	-0.517370
H294	H	-0.223922	-0.012808	-0.267370
H295	H	0.026078	0.237192	-0.017370
H296	H	0.276078	0.487192	0.232630
H297	H	-1.109983	-0.928875	-0.486355
H298	H	-0.859983	-0.678875	-0.236355
H299	H	-0.609983	-0.428875	0.013645
H300	H	-0.359983	-0.178875	0.263645
Cl301	Cl	-0.297495	-0.419643	-0.325211
Cl302	Cl	-0.047495	-0.169643	-0.075211
Cl303	Cl	0.202505	0.080357	0.174789
Cl304	Cl	0.452505	0.330357	0.424789
Cl305	Cl	-0.464593	-0.578469	-0.507199
Cl306	Cl	-0.214593	-0.328469	-0.257199
Cl307	Cl	0.035407	-0.078469	-0.007199
Cl308	Cl	0.285407	0.171531	0.242801
Cl309	Cl	-0.284063	-1.104353	-0.830261
Cl310	Cl	-0.034063	-0.854353	-0.580261
Cl311	Cl	0.215937	-0.604353	-0.330261
Cl312	Cl	0.465937	-0.354353	-0.080261
H313	H	-0.322634	-0.489104	-0.352591
H314	H	-0.072634	-0.239104	-0.102591
H315	H	0.177366	0.010896	0.147409
H316	H	0.427366	0.260896	0.397409
H317	H	-0.439456	-0.509011	-0.479814
H318	H	-0.189456	-0.259011	-0.229814
H319	H	0.060544	-0.009011	0.020186
H320	H	0.310544	0.240989	0.270186
Cl321	Cl	-0.477756	-0.893230	-1.002859
Cl322	Cl	-0.227756	-0.643230	-0.752859
Cl323	Cl	0.022244	-0.393230	-0.502859
Cl324	Cl	0.272244	-0.143230	-0.252859
H325	H	-0.651372	-1.068648	-0.346051
H326	H	-0.401372	-0.818648	-0.096051
H327	H	-0.151372	-0.568648	0.153949
H328	H	0.098628	-0.318648	0.403949
H329	H	-0.784196	-1.063032	-0.351765
H330	H	-0.534196	-0.813032	-0.101765
H331	H	-0.284196	-0.563032	0.148235
H332	H	-0.034196	-0.313032	0.398235
H333	H	-1.116922	-1.091642	-0.323296
H334	H	-0.866922	-0.841642	-0.073296
H335	H	-0.616922	-0.591642	0.176704
H336	H	-0.366922	-0.341642	0.426704
H337	H	-0.977155	-0.934491	-0.480640
H338	H	-0.727155	-0.684491	-0.230640
H339	H	-0.477155	-0.434491	0.019360
H340	H	-0.227155	-0.184491	0.269360
