data_functionalizedCrystal
_audit_creation_method	'MofGen! by Chris Wilmer'
_symmetry_space_group_name_H-M	'P1'
_symmetry_Int_Tables_number	1
_symmetry_cell_setting	triclinic
loop_
_symmetry_equiv_pos_as_xyz
  x,y,z
_cell_length_a	18.215407
_cell_length_b	12.759394
_cell_length_c	18.215399
_cell_angle_alpha	89.974305
_cell_angle_beta	89.980650
_cell_angle_gamma	90.015285
loop_
_atom_site_label
_atom_site_type_symbol
_atom_site_fract_x
_atom_site_fract_y
_atom_site_fract_z
Zn1	Zn	1.125120	-0.418260	-0.416130
Zn2	Zn	1.125051	-0.593959	-0.293069
Zn3	Zn	1.002053	-0.418296	-0.293077
Zn4	Zn	1.002040	-0.593899	-0.416094
O5	O	1.063566	-0.506104	-0.354592
O6	O	1.228095	-0.441577	-0.399817
O7	O	1.108712	-0.570697	-0.190086
O8	O	1.018413	-0.271270	-0.309418
O9	O	1.228044	-0.570662	-0.309405
O10	O	1.108829	-0.271244	-0.399825
O11	O	1.018346	-0.441638	-0.190092
O12	O	0.899067	-0.441580	-0.309384
O13	O	1.018390	-0.570560	-0.519083
O14	O	0.899057	-0.570595	-0.399764
O15	O	1.108816	-0.441519	-0.519109
O16	O	1.108699	-0.740972	-0.309370
O17	O	1.018323	-0.740928	-0.399756
C18	C	0.872360	-0.506086	-0.354571
C19	C	0.790561	-0.506103	-0.354580
C20	C	0.602381	-0.573387	-0.401582
C21	C	0.525522	-0.573390	-0.401591
C22	C	0.525503	-0.438839	-0.307619
C23	C	0.602360	-0.438832	-0.307614
C24	C	0.640797	-0.506111	-0.354594
C25	C	0.487081	-0.506122	-0.354608
C26	C	0.403748	-0.506126	-0.354618
C27	C	0.724136	-0.506107	-0.354586
C28	C	1.063522	-0.779071	-0.354575
C29	C	1.063570	-0.895848	-0.354592
C30	C	1.157749	-0.895840	-0.260543
C31	C	1.204858	-0.950697	-0.213528
C32	C	1.204901	-1.060419	-0.213548
C33	C	1.157832	-1.115286	-0.260590
C34	C	1.110723	-1.060429	-0.307605
C35	C	1.110684	-0.950705	-0.307579
C36	C	1.016549	-1.060437	-0.401656
C37	C	1.016501	-0.950715	-0.401634
C38	C	0.969480	-1.115304	-0.448698
C39	C	0.922367	-1.060447	-0.495711
C40	C	0.922325	-0.950718	-0.495689
C41	C	0.969393	-0.895858	-0.448649
C42	C	1.255519	-0.506122	-0.354614
C43	C	1.337318	-0.506131	-0.354623
C44	C	1.063609	-0.506029	-0.546545
C45	C	1.063628	-0.505998	-0.628344
C46	C	1.063630	-0.232070	-0.354626
C47	C	1.063658	-0.115294	-0.354641
C48	C	1.110740	-0.438715	-0.893417
C49	C	1.110731	-0.438744	-0.816558
C50	C	1.016575	-0.573128	-0.816520
C51	C	1.016588	-0.573104	-0.893378
C52	C	1.063669	-0.505892	-0.931824
C53	C	1.063648	-0.505944	-0.778108
C54	C	1.063638	-0.505975	-0.694774
C55	C	1.063680	-0.505861	-1.015163
C56	C	1.063565	-0.506102	-0.163386
C57	C	1.063689	-0.505838	-0.081588
H58	H	1.157709	-0.806499	-0.260513
C59	C	0.501848	-0.260873	-0.271986
C60	C	0.483252	-0.364892	-0.255976
H61	H	0.475762	-0.215223	-0.240104
H62	H	0.553114	-0.251248	-0.265258
H63	H	0.489268	-0.245600	-0.321453
H64	H	0.495837	-0.380168	-0.206511
H65	H	0.431975	-0.374522	-0.262698
C66	C	1.246607	-0.782494	-0.171722
C67	C	1.256592	-0.890386	-0.161818
H68	H	1.278543	-0.745266	-0.139796
H69	H	1.257349	-0.764453	-0.221168
H70	H	1.197155	-0.764593	-0.160907
H71	H	1.306042	-0.908288	-0.172638
H72	H	1.245854	-0.908435	-0.112361
H73	H	1.149061	-0.384043	-0.785290
H74	H	0.978257	-0.627812	-0.924650
H75	H	1.243264	-1.105083	-0.175267
C76	C	0.974742	-0.632825	-0.698686
C77	C	0.964818	-0.646994	-0.774258
H78	H	0.942783	-0.678423	-0.672598
H79	H	1.024176	-0.648210	-0.686099
H80	H	0.963983	-0.562234	-0.686110
H81	H	0.975582	-0.717584	-0.786835
H82	H	0.915372	-0.631616	-0.786850
C83	C	0.594677	-0.706373	-0.494476
C84	C	0.644632	-0.647328	-0.453229
H85	H	0.620761	-0.752014	-0.526367
H86	H	0.564685	-0.746508	-0.462368
H87	H	0.564715	-0.660636	-0.522677
H88	H	0.674590	-0.693065	-0.425024
H89	H	0.674637	-0.607189	-0.485342
H90	H	0.494247	-0.628171	-0.439853
C91	C	0.625991	-0.387432	-0.183052
C92	C	0.644595	-0.364880	-0.255960
H93	H	0.652070	-0.341782	-0.151168
H94	H	0.574724	-0.377803	-0.176333
H95	H	0.638576	-0.458006	-0.172208
H96	H	0.632006	-0.294309	-0.266806
H97	H	0.695874	-0.374501	-0.262683
H98	H	1.157877	-1.204627	-0.260608
H99	H	0.969522	-1.204645	-0.448714
C100	C	0.880623	-1.228647	-0.537507
C101	C	0.870633	-1.120757	-0.547414
H102	H	0.848679	-1.265880	-0.569424
H103	H	0.930066	-1.246546	-0.548326
H104	H	0.869886	-1.246685	-0.488052
H105	H	0.881375	-1.102717	-0.596868
H106	H	0.821178	-1.102851	-0.536600
C107	C	0.829244	-0.961758	-0.588663
C108	C	0.870543	-0.890424	-0.547373
H109	H	0.797273	-0.924534	-0.620568
H110	H	0.861314	-1.004483	-0.616844
H111	H	0.801126	-1.004622	-0.556578
H112	H	0.898665	-0.847564	-0.579458
H113	H	0.838468	-0.847680	-0.519190
C114	C	0.950613	-0.738779	-0.378590
C115	C	0.969350	-0.775250	-0.448622
H116	H	0.950595	-0.664320	-0.378573
H117	H	0.903140	-0.763660	-0.365840
H118	H	0.985408	-0.763610	-0.343863
H119	H	0.934553	-0.750426	-0.483348
H120	H	1.016830	-0.750358	-0.461380
H121	H	1.149076	-0.383986	-0.924717
