data_functionalizedCrystal
_audit_creation_method	'MofGen! by Chris Wilmer'
_symmetry_space_group_name_H-M	'P1'
_symmetry_Int_Tables_number	1
_symmetry_cell_setting	triclinic
loop_
_symmetry_equiv_pos_as_xyz
  x,y,z
_cell_length_a	12.759401
_cell_length_b	12.759399
_cell_length_c	12.759393
_cell_angle_alpha	90.029793
_cell_angle_beta	89.980186
_cell_angle_gamma	89.974597
loop_
_atom_site_label
_atom_site_type_symbol
_atom_site_fract_x
_atom_site_fract_y
_atom_site_fract_z
Zn1	Zn	1.606188	0.418184	-0.594017
Zn2	Zn	1.606054	0.593896	-0.418336
Zn3	Zn	1.430490	0.418237	-0.418352
Zn4	Zn	1.430450	0.593826	-0.593973
O5	O	1.518295	0.506036	-0.506170
O6	O	1.753191	0.441500	-0.570724
O7	O	1.582726	0.570646	-0.271317
O8	O	1.453869	0.271209	-0.441680
O9	O	1.753093	0.570595	-0.441652
O10	O	1.582954	0.271170	-0.570740
O11	O	1.453740	0.441590	-0.271329
O12	O	1.283464	0.441522	-0.441637
O13	O	1.453801	0.570476	-0.741000
O14	O	1.283434	0.570527	-0.570665
O15	O	1.582915	0.441432	-0.741033
O16	O	1.582687	0.740908	-0.441610
O17	O	1.453672	0.740857	-0.570649
C18	C	1.245328	0.506023	-0.506149
C19	C	1.128551	0.506043	-0.506165
C20	C	1.518189	0.779003	-0.506146
C21	C	1.518240	0.895780	-0.506171
C22	C	1.518369	0.505940	-0.780203
C23	C	1.518400	0.505900	-0.896980
C24	C	1.073702	0.573318	-0.573244
C25	C	0.963978	0.573322	-0.573265
C26	C	0.963963	0.438773	-0.439118
C27	C	1.073685	0.438764	-0.439104
C28	C	0.814073	0.611023	-0.697125
C29	C	0.759220	0.678314	-0.764195
C30	C	0.794801	0.780845	-0.780142
C31	C	0.885234	0.816106	-0.729004
C32	C	0.940081	0.748820	-0.661926
C33	C	0.904502	0.646274	-0.645999
C34	C	1.223591	0.401074	-0.315242
C35	C	1.278441	0.333793	-0.248158
C36	C	1.242862	0.231260	-0.232200
C37	C	1.152426	0.196003	-0.283320
C38	C	1.097576	0.263285	-0.350404
C39	C	1.133163	0.365816	-0.366363
C40	C	1.792329	0.506050	-0.506191
C41	C	1.909105	0.506055	-0.506200
C42	C	1.451087	1.060384	-0.573320
C43	C	1.451041	0.950660	-0.573309
C44	C	1.585498	0.950629	-0.439047
C45	C	1.585548	1.060351	-0.439064
C46	C	1.413367	0.800661	-0.697158
C47	C	1.346100	0.745815	-0.764270
C48	C	1.243594	0.781508	-0.780316
C49	C	1.208333	0.872045	-0.729234
C50	C	1.275594	0.926885	-0.662114
C51	C	1.378115	0.891193	-0.646089
C52	C	1.623211	1.210353	-0.315213
C53	C	1.690468	1.265194	-0.248087
C54	C	1.792976	1.229504	-0.232031
C55	C	1.828233	1.138964	-0.283094
C56	C	1.760976	1.084122	-0.350220
C57	C	1.658469	1.119820	-0.366278
C58	C	1.518393	1.232003	-0.506207
C59	C	1.518337	1.115226	-0.506199
C60	C	1.585567	0.573069	-0.951840
C61	C	1.585597	0.573017	-1.061564
C62	C	1.451286	0.438623	-1.061559
C63	C	1.451261	0.438670	-0.951837
C64	C	1.709517	0.610499	-1.211526
C65	C	1.776675	0.677685	-1.266389
C66	C	1.792744	0.780216	-1.230771
C67	C	1.741642	0.815582	-1.140292
C68	C	1.674476	0.748401	-1.085434
C69	C	1.658427	0.645856	-1.121050
C70	C	1.327340	0.401200	-0.801873
C71	C	1.260168	0.334023	-0.747013
C72	C	1.244088	0.231491	-0.782629
C73	C	1.295172	0.196129	-0.873112
C74	C	1.362344	0.263305	-0.927971
C75	C	1.378426	0.365837	-0.892348
C76	C	1.518283	0.506055	-0.233202
C77	C	1.518455	0.505800	-0.116426
H78	H	1.118371	0.628098	-0.627852
H79	H	1.496841	0.771600	-0.684113
H80	H	1.911702	1.109900	-0.270016
F81	F	1.036319	0.786341	-0.607501
H82	H	1.396622	0.383889	-1.106237
H83	H	1.640218	0.905939	-0.384385
H84	H	1.374819	0.672100	-0.805860
F85	F	1.278058	0.087002	-0.911022
F86	F	1.416716	0.225666	-1.024270
H87	H	1.189383	0.176800	-0.737956
F88	F	1.620100	0.786029	-0.989139
H89	H	1.640245	0.627802	-0.907178
F90	F	1.205845	0.371643	-0.650679
H91	H	1.252575	0.484562	-0.328239
H92	H	1.396366	1.105060	-0.627993
F93	F	1.344454	0.510328	-0.763958
F94	F	1.238073	1.023233	-0.607751
H95	H	0.785102	0.527530	-0.684158
H96	H	0.914190	0.899602	-0.741985
F97	F	1.758737	0.924716	-1.102399
H98	H	0.750132	0.835634	-0.834753
H99	H	0.685590	0.649595	-0.805832
F100	F	0.905560	0.367176	-0.367750
H101	H	1.789690	1.010397	-0.391794
F102	F	1.831058	0.640044	-1.362682
F103	F	1.099225	0.910017	-0.746303
H104	H	1.023943	0.234567	-0.392035
F105	F	1.692433	0.501368	-1.249431
H106	H	1.123445	0.112519	-0.270310
F107	F	1.301234	0.159660	-0.160789
H108	H	1.352078	0.362508	-0.206533
H109	H	1.847732	1.274162	-0.177363
H110	H	1.847419	0.834922	-1.275454
F111	F	1.172006	0.723134	-0.851741
H112	H	1.661754	1.338920	-0.206512
H113	H	1.539742	1.239426	-0.328288
