data_functionalizedCrystal
_audit_creation_method	'MofGen! by Chris Wilmer'
_symmetry_space_group_name_H-M	'P1'
_symmetry_Int_Tables_number	1
_symmetry_cell_setting	triclinic
loop_
_symmetry_equiv_pos_as_xyz
  x,y,z
_cell_length_a	16.959455
_cell_length_b	12.827892
_cell_length_c	12.827885
_cell_angle_alpha	89.970214
_cell_angle_beta	90.020130
_cell_angle_gamma	89.987661
loop_
_atom_site_label
_atom_site_type_symbol
_atom_site_fract_x
_atom_site_fract_y
_atom_site_fract_z
Zn1	Zn	1.208455	0.416068	0.590873
Zn2	Zn	1.708455	0.916068	1.090873
Zn3	Zn	1.208375	0.590845	0.416133
Zn4	Zn	1.708375	1.090845	0.916133
Zn5	Zn	1.076270	0.416109	0.416144
Zn6	Zn	1.576270	0.916109	0.916144
Zn7	Zn	1.076259	0.590758	0.590830
Zn8	Zn	1.576259	1.090758	1.090830
O9	O	1.142340	0.503445	0.503495
O10	O	1.642340	1.003445	1.003495
O11	O	1.319055	0.439271	0.567706
O12	O	1.819055	0.939271	1.067706
O13	O	1.190822	0.567720	0.269898
O14	O	1.690822	1.067720	0.769898
O15	O	1.093843	0.269868	0.439344
O16	O	1.593843	0.769868	0.939344
O17	O	1.318996	0.567679	0.439326
O18	O	1.818996	1.067679	0.939326
O19	O	1.190958	0.269837	0.567717
O20	O	1.690958	0.769837	1.067717
O21	O	1.093765	0.439342	0.269906
O22	O	1.593765	0.939342	0.769906
O23	O	0.965658	0.439258	0.439303
O24	O	1.465658	0.939258	0.939303
O25	O	1.093824	0.567531	0.737072
O26	O	1.593824	1.067531	1.237072
O27	O	0.965649	0.567571	0.567644
O28	O	1.465649	1.067571	1.067644
O29	O	1.190948	0.439187	0.737103
O30	O	1.690948	0.939187	1.237103
O31	O	1.190811	0.737069	0.439285
O32	O	1.690811	1.237069	0.939285
O33	O	1.093746	0.737006	0.567634
O34	O	1.593746	1.237006	1.067634
C35	C	1.142290	0.774955	0.503476
C36	C	1.642290	1.274955	1.003476
C37	C	1.142341	0.891108	0.503503
C38	C	1.642341	1.391108	1.003503
C39	C	0.936973	0.503410	0.503471
C40	C	1.436973	1.003410	1.003471
C41	C	0.849117	0.503421	0.503485
C42	C	1.349117	1.003421	1.003485
C43	C	1.142393	0.503345	0.776065
C44	C	1.642393	1.003345	1.276065
C45	C	1.142416	0.503302	0.892218
C46	C	1.642416	1.003302	1.392218
C47	C	0.477621	0.436577	0.436807
C48	C	0.977621	0.936577	0.936807
C49	C	0.477661	0.570399	0.570242
C50	C	0.977661	1.070399	1.070242
C51	C	0.560207	0.570384	0.570236
C52	C	1.060207	1.070384	1.070236
C53	C	0.601464	0.503466	0.503513
C54	C	1.101464	1.003466	1.003513
C55	C	0.560174	0.436562	0.436796
C56	C	1.060174	0.936562	0.936796
C57	C	0.601503	0.637293	0.636944
C58	C	1.101503	1.137293	1.136944
C59	C	0.684054	0.637281	0.636940
C60	C	1.184054	1.137281	1.136940
C61	C	0.725312	0.570357	0.570221
C62	C	1.225312	1.070357	1.070221
C63	C	0.684017	0.503451	0.503502
C64	C	1.184017	1.003451	1.003502
C65	C	0.725274	0.436533	0.436779
C66	C	1.225274	0.936533	0.936779
C67	C	0.683981	0.369620	0.370065
C68	C	1.183981	0.869620	0.870065
C69	C	0.601433	0.369638	0.370078
C70	C	1.101433	0.869638	0.870078
C71	C	0.807860	0.570339	0.570208
C72	C	1.307860	1.070339	1.070208
C73	C	0.807827	0.436518	0.436769
C74	C	1.307827	0.936518	0.936769
C75	C	1.348508	0.503480	0.503519
C76	C	1.848508	1.003480	1.003519
C77	C	1.436364	0.503495	0.503530
C78	C	1.936364	1.003495	1.003530
C79	C	1.142411	0.230875	0.503536
C80	C	1.642411	0.730875	1.003536
C81	C	1.142441	0.114722	0.503554
C82	C	1.642441	0.614722	1.003554
C83	C	1.190429	0.942890	0.440063
C84	C	1.690429	1.442890	0.940063
C85	C	1.190483	1.062940	0.440089
C86	C	1.690483	1.562940	0.940089
C87	C	1.142331	0.503469	0.231985
C88	C	1.642331	1.003469	0.731985
C89	C	1.142462	0.503218	0.115832
C90	C	1.642462	1.003218	0.615832
C91	C	1.190481	0.439781	0.944018
C92	C	1.690481	0.939781	1.444018
C93	C	1.190506	0.439735	1.064069
C94	C	1.690506	0.939735	1.564069
H95	H	0.841413	0.382018	0.382440
H96	H	1.341413	0.882018	0.882440
H97	H	0.717583	0.315140	0.315735
H98	H	1.217583	0.815140	0.815735
H99	H	1.101266	1.070198	0.557867
H100	H	1.601266	1.570198	1.057867
Cl101	Cl	0.549517	0.285529	0.286216
Cl102	Cl	1.049517	0.785529	0.786216
Cl103	Cl	0.549634	0.721446	0.720785
Cl104	Cl	1.049634	1.221446	1.220785
Cl105	Cl	1.078927	0.587194	1.047068
Cl106	Cl	1.578927	1.087194	1.547068
H107	H	1.231563	0.898348	0.385732
H108	H	1.731563	1.398348	0.885732
H109	H	0.841477	0.624821	0.624523
H110	H	1.341477	1.124821	1.124523
H111	H	1.231651	1.107471	0.385772
H112	H	1.731651	1.607471	0.885772
H113	H	1.101215	0.935652	0.557841
H114	H	1.601215	1.435652	1.057841
H115	H	0.717667	0.691765	0.691263
H116	H	1.217667	1.191765	1.191263
H117	H	1.101279	0.557644	0.936747
H118	H	1.601279	1.057644	1.436747
H119	H	0.443997	0.382096	0.382493
H120	H	0.943997	0.882096	0.882493
Cl121	Cl	1.253970	0.355839	0.875278
Cl122	Cl	1.753970	0.855839	1.375278
H123	H	1.231659	0.385355	1.108616
H124	H	1.731659	0.885355	1.608616
Cl125	Cl	0.425795	0.654541	0.654096
Cl126	Cl	0.925795	1.154541	1.154096
