data_functionalizedCrystal
_audit_creation_method	'MofGen! by Chris Wilmer'
_symmetry_space_group_name_H-M	'P1'
_symmetry_Int_Tables_number	1
_symmetry_cell_setting	triclinic
loop_
_symmetry_equiv_pos_as_xyz
  x,y,z
_cell_length_a	16.625539
_cell_length_b	13.032831
_cell_length_c	16.625545
_cell_angle_alpha	97.169868
_cell_angle_beta	89.971893
_cell_angle_gamma	97.191849
loop_
_atom_site_label
_atom_site_type_symbol
_atom_site_fract_x
_atom_site_fract_y
_atom_site_fract_z
Zn1	Zn	-0.612179	-1.597616	-0.477784
Zn2	Zn	-0.477333	-1.597481	-0.612614
Zn3	Zn	-0.460266	-1.422857	-0.460662
Zn4	Zn	-0.595038	-1.422809	-0.595424
O5	O	-0.536204	-1.510191	-0.536621
O6	O	-0.608608	-1.743837	-0.510030
O7	O	-0.362233	-1.574281	-0.592486
O8	O	-0.480448	-1.446115	-0.350109
O9	O	-0.509537	-1.743738	-0.609089
O10	O	-0.592058	-1.574510	-0.362688
O11	O	-0.349694	-1.445985	-0.480848
O12	O	-0.463827	-1.276612	-0.464179
O13	O	-0.710148	-1.446034	-0.579790
O14	O	-0.562844	-1.276577	-0.563187
O15	O	-0.722741	-1.574464	-0.493361
O16	O	-0.492916	-1.574234	-0.723159
O17	O	-0.579394	-1.445903	-0.710529
C18	C	-0.509624	-1.238676	-0.509960
C19	C	-0.498272	-1.122521	-0.498574
C20	C	-0.746520	-1.510259	-0.536568
C21	C	-0.836144	-1.510288	-0.536545
C22	C	-0.536167	-1.510077	-0.746101
C23	C	-0.536188	-1.510124	-0.835727
C24	C	-1.164324	-1.510336	-0.536460
C25	C	-1.073014	-1.510320	-0.536486
C26	C	-1.000237	-1.510312	-0.536503
C27	C	-0.908921	-1.510295	-0.536528
C28	C	-0.326712	-1.510183	-0.536622
C29	C	-0.237109	-1.510357	-0.536438
C30	C	-0.562888	-1.782766	-0.563387
C31	C	-0.574260	-1.898921	-0.574793
C32	C	-0.542129	-1.070746	-0.542564
C33	C	-0.530397	-0.950693	-0.530797
C34	C	-0.536208	-1.510165	-0.908513
C35	C	-0.536232	-1.510226	-0.999828
C36	C	-0.536247	-1.510280	-1.072609
C37	C	-0.536270	-1.510340	-1.163929
C38	C	-0.536261	-1.510333	-0.326326
C39	C	-0.536285	-1.510394	-0.236711
H40	H	-0.588364	-1.115297	-0.588934
Br41	Br	-0.453339	-0.876453	-0.453492
Br42	Br	-0.651341	-0.973158	-0.652075
H43	H	-0.452042	-1.077970	-0.452198
