data_functionalizedCrystal
_audit_creation_method	'MofGen! by Chris Wilmer'
_symmetry_space_group_name_H-M	'P1'
_symmetry_Int_Tables_number	1
_symmetry_cell_setting	triclinic
loop_
_symmetry_equiv_pos_as_xyz
  x,y,z
_cell_length_a	16.120530
_cell_length_b	18.101395
_cell_length_c	16.120297
_cell_angle_alpha	87.127310
_cell_angle_beta	89.871860
_cell_angle_gamma	87.126665
loop_
_atom_site_label
_atom_site_type_symbol
_atom_site_fract_x
_atom_site_fract_y
_atom_site_fract_z
Zn1	Zn	1.247384	-0.375190	0.534565
Zn2	Zn	1.580718	-0.041857	0.867899
Zn3	Zn	1.914051	0.291477	1.201232
Zn4	Zn	1.254317	-0.493082	0.395508
Zn5	Zn	1.587651	-0.159749	0.728841
Zn6	Zn	1.920984	0.173584	1.062175
Zn7	Zn	1.115376	-0.362676	0.388483
Zn8	Zn	1.448710	-0.029343	0.721817
Zn9	Zn	1.782043	0.303991	1.055150
Zn10	Zn	1.108274	-0.492400	0.527477
Zn11	Zn	1.441607	-0.159067	0.860810
Zn12	Zn	1.774941	0.174266	1.194144
O13	O	1.181338	-0.430837	0.461508
O14	O	1.514671	-0.097504	0.794842
O15	O	1.848005	0.235830	1.128175
O16	O	1.364669	-0.396351	0.522025
O17	O	1.698003	-0.063018	0.855359
O18	O	2.031336	0.270315	1.188692
O19	O	1.241761	-0.470832	0.278211
O20	O	1.575094	-0.137499	0.611544
O21	O	1.908427	0.195835	0.944877
O22	O	1.132958	-0.260707	0.407888
O23	O	1.466292	0.072626	0.741221
O24	O	1.799625	0.405959	1.074555
O25	O	1.369763	-0.482966	0.419860
O26	O	1.703096	-0.149633	0.753194
O27	O	2.036430	0.183700	1.086527
O28	O	1.229944	-0.269901	0.515214
O29	O	1.563277	0.063432	0.848547
O30	O	1.896611	0.396765	1.181880
O31	O	1.139681	-0.375023	0.273050
O32	O	1.473015	-0.041689	0.606383
O33	O	1.806348	0.291644	0.939716
O34	O	0.998069	-0.374361	0.401015
O35	O	1.331402	-0.041028	0.734348
O36	O	1.664735	0.292305	1.067682
O37	O	1.120853	-0.481804	0.644783
O38	O	1.454186	-0.148471	0.978116
O39	O	1.787520	0.184863	1.311450
O40	O	0.992851	-0.469669	0.503133
O41	O	1.326184	-0.136336	0.836466
O42	O	1.659517	0.196997	1.169800
O43	O	1.223057	-0.395690	0.649990
O44	O	1.556390	-0.062357	0.983324
O45	O	1.889724	0.270977	1.316657
O46	O	1.234873	-0.596620	0.412987
O47	O	1.568207	-0.263287	0.746321
O48	O	1.901540	0.070046	1.079654
O49	O	1.127576	-0.596119	0.509945
O50	O	1.460909	-0.262786	0.843278
O51	O	1.794243	0.070547	1.176611
C52	C	0.965287	-0.420584	0.450543
C53	C	1.298621	-0.087251	0.783876
C54	C	1.631954	0.246083	1.117210
C55	C	0.872859	-0.416216	0.445872
C56	C	1.206192	-0.082883	0.779205
C57	C	1.539526	0.250450	1.112538
C58	C	0.703631	-0.408225	0.437350
C59	C	1.036964	-0.074892	0.770684
C60	C	1.370297	0.258441	1.104017
C61	C	0.659883	-0.453506	0.485727
C62	C	0.993216	-0.120173	0.819060
C63	C	1.326549	0.213161	1.152394
C64	C	0.565718	-0.449060	0.480986
C65	C	0.899052	-0.115727	0.814319
C66	C	1.232385	0.217607	1.147652
C67	C	0.797804	-0.412671	0.442091
C68	C	1.131137	-0.079337	0.775424
C69	C	1.464470	0.253996	1.108757
C70	C	1.181228	-0.623241	0.461478
C71	C	1.514561	-0.289908	0.794812
C72	C	1.847895	0.043425	1.128145
C73	C	1.181256	-0.705558	0.461497
C74	C	1.514589	-0.372224	0.794830
C75	C	1.847922	-0.038891	1.128164
C76	C	1.181436	-1.004659	0.461551
C77	C	1.514769	-0.671326	0.794884
C78	C	1.848102	-0.337992	1.128218
C79	C	1.114068	-0.973063	0.522721
C80	C	1.447401	-0.639730	0.856054
C81	C	1.780735	-0.306397	1.189388
C82	C	1.113774	-0.887422	0.522504
C83	C	1.447107	-0.554089	0.855837
C84	C	1.780440	-0.220756	1.189171
C85	C	1.181346	-0.856271	0.461525
C86	C	1.514680	-0.522938	0.794858
C87	C	1.848013	-0.189605	1.128192
C88	C	1.162064	-0.882548	0.372686
C89	C	1.495398	-0.549215	0.706019
C90	C	1.828731	-0.215881	1.039352
C91	C	1.161632	-0.968190	0.373050
C92	C	1.494965	-0.634857	0.706384
C93	C	1.828298	-0.301524	1.039717
C94	C	1.268265	-0.978132	0.488456
C95	C	1.601598	-0.644799	0.821790
C96	C	1.934932	-0.311465	1.155123
C97	C	1.267650	-0.892539	0.490352
C98	C	1.600984	-0.559205	0.823685
C99	C	1.934317	-0.225872	1.157019
C100	C	1.181297	-0.772409	0.461505
C101	C	1.514631	-0.439075	0.794838
C102	C	1.847964	-0.105742	1.128172
C103	C	1.181483	-1.088521	0.461565
C104	C	1.514816	-0.755188	0.794899
C105	C	1.848150	-0.421855	1.128232
C106	C	1.398232	-0.441131	0.472517
C107	C	1.731565	-0.107797	0.805850
C108	C	2.064899	0.225536	1.139184
C109	C	1.490660	-0.445517	0.477208
C110	C	1.823993	-0.112184	0.810542
C111	C	2.157326	0.221149	1.143875
C112	C	1.170389	-0.440067	0.678403
C113	C	1.503723	-0.106733	1.011736
C114	C	1.837056	0.226600	1.345069
C115	C	1.165724	-0.444000	0.770830
C116	C	1.499057	-0.110667	1.104163
C117	C	1.832390	0.222667	1.437497
C118	C	1.181470	-0.237683	0.461558
C119	C	1.514803	0.095650	0.794891
C120	C	1.848137	0.428983	1.128225
C121	C	1.181526	-0.155373	0.461579
C122	C	1.514860	0.177961	0.794912
C123	C	1.848193	0.511294	1.128246
C124	C	1.192292	-0.421592	0.245460
C125	C	1.525625	-0.088259	0.578794
C126	C	1.858958	0.245074	0.912127
C127	C	1.197119	-0.417458	0.153042
C128	C	1.530452	-0.084125	0.486375
C129	C	1.863785	0.249209	0.819708
C130	C	1.157175	-0.451163	0.940055
C131	C	1.490508	-0.117830	1.273388
C132	C	1.823842	0.215504	1.606721
C133	C	1.205665	-0.410297	0.983822
C134	C	1.538998	-0.076964	1.317156
C135	C	1.872331	0.256369	1.650489
C136	C	1.200908	-0.414283	1.077985
C137	C	1.534242	-0.080949	1.411318
C138	C	1.867575	0.252384	1.744651
C139	C	1.161931	-0.447178	0.845884
C140	C	1.495264	-0.113845	1.179217
C141	C	1.828597	0.219488	1.512550
H142	H	0.693149	-0.495611	0.530706
H143	H	1.026482	-0.162277	0.864039
H144	H	1.359815	0.171056	1.197372
H145	H	1.050005	-0.990950	0.504755
H146	H	1.383339	-0.657617	0.838089
H147	H	1.716672	-0.324284	1.171422
C148	C	0.658692	-0.351350	0.376587
C149	C	0.992025	-0.018016	0.709921
C150	C	1.325359	0.315317	1.043254
N151	N	0.624834	-0.308514	0.330819
N152	N	0.958168	0.024820	0.664152
N153	N	1.291501	0.358153	0.997485
C154	C	1.129372	-0.863671	0.611309
C155	C	1.462706	-0.530337	0.944643
C156	C	1.796039	-0.197004	1.277976
N157	N	1.141118	-0.845785	0.678202
N158	N	1.474451	-0.512451	1.011535
N159	N	1.807785	-0.179118	1.344868
C160	C	1.129450	-1.005537	0.611801
C161	C	1.462783	-0.672204	0.945134
C162	C	1.796116	-0.338871	1.278467
N163	N	1.141035	-1.030004	0.678897
N164	N	1.474368	-0.696671	1.012230
N165	N	1.807702	-0.363337	1.345564
H166	H	1.049324	-0.863273	0.504331
H167	H	1.382657	-0.529940	0.837664
H168	H	1.715991	-0.196606	1.170998
H169	H	1.250750	-0.372317	0.950575
H170	H	1.584083	-0.038984	1.283908
H171	H	1.917416	0.294350	1.617241
H172	H	1.098292	-0.984372	0.350776
H173	H	1.431625	-0.651039	0.684110
H174	H	1.764959	-0.317706	1.017443
C175	C	1.225360	-0.996170	0.309048
C176	C	1.558693	-0.662836	0.642381
C177	C	1.892026	-0.329503	0.975715
N178	N	1.273354	-1.017240	0.260837
N179	N	1.606688	-0.683907	0.594171
N180	N	1.940021	-0.350573	0.927504
C181	C	1.226526	-0.855068	0.309168
C182	C	1.559859	-0.521735	0.642501
C183	C	1.893192	-0.188402	0.975835
N184	N	1.275078	-0.834367	0.261327
N185	N	1.608411	-0.501034	0.594661
N186	N	1.941744	-0.167701	0.927994
H187	H	1.099423	-0.857320	0.350105
H188	H	1.432756	-0.523987	0.683439
H189	H	1.766090	-0.190653	1.016772
H190	H	1.286711	-1.003393	0.552368
H191	H	1.620044	-0.670060	0.885701
H192	H	1.953377	-0.336726	1.219035
C193	C	1.335999	-1.005838	0.428346
C194	C	1.669332	-0.672505	0.761679
C195	C	2.002665	-0.339172	1.095012
N196	N	1.387010	-1.026711	0.383068
N197	N	1.720343	-0.693378	0.716402
N198	N	2.053676	-0.360045	1.049735
H199	H	1.282271	-0.875783	0.555755
H200	H	1.615605	-0.542450	0.889088
H201	H	1.948938	-0.209117	1.222421
C202	C	1.338565	-0.864319	0.435027
C203	C	1.671899	-0.530986	0.768360
C204	C	2.005232	-0.197652	1.101693
N205	N	1.391977	-0.843065	0.393348
N206	N	1.725310	-0.509732	0.726681
N207	N	2.058644	-0.176398	1.060015
C208	C	1.096269	-0.502467	0.984969
C209	C	1.429602	-0.169134	1.318302
C210	C	1.762935	0.164199	1.651635
N211	N	1.050395	-0.541110	1.018807
N212	N	1.383729	-0.207776	1.352141
N213	N	1.717062	0.125557	1.685474
