data_functionalizedCrystal
_audit_creation_method	'MofGen! by Chris Wilmer'
_symmetry_space_group_name_H-M	'P1'
_symmetry_Int_Tables_number	1
_symmetry_cell_setting	triclinic
loop_
_symmetry_equiv_pos_as_xyz
  x,y,z
_cell_length_a	12.811445
_cell_length_b	11.295483
_cell_length_c	10.723024
_cell_angle_alpha	85.864673
_cell_angle_beta	84.255882
_cell_angle_gamma	99.539261
loop_
_atom_site_label
_atom_site_type_symbol
_atom_site_fract_x
_atom_site_fract_y
_atom_site_fract_z
O1	O	1.411685	0.251459	0.146871
O2	O	1.911685	0.751459	0.646871
O3	O	1.103879	0.218224	0.167947
O4	O	1.603879	0.718224	0.667947
O5	O	1.264882	0.235604	-0.024266
O6	O	1.764882	0.735604	0.475734
O7	O	1.250682	0.234079	0.339085
O8	O	1.750682	0.734079	0.839085
O9	O	1.250740	0.036026	-0.007410
O10	O	1.750740	0.536026	0.492590
O11	O	1.089738	0.018646	0.184804
O12	O	1.589738	0.518646	0.684804
O13	O	1.397543	0.051882	0.163728
O14	O	1.897543	0.551882	0.663728
Cu15	Cu	1.242349	0.017041	0.175805
Cu16	Cu	1.742349	0.517041	0.675805
Cu17	Cu	1.259073	0.253064	0.155870
Cu18	Cu	1.759073	0.753064	0.655870
O19	O	1.236541	0.034502	0.355941
O20	O	1.736541	0.534502	0.855941
C21	C	1.057396	0.114179	0.175710
C22	C	1.557396	0.614179	0.675710
C23	C	0.939958	0.101499	0.173711
C24	C	1.439958	0.601499	0.673711
N25	N	1.230595	-0.148964	0.189825
N26	N	1.730595	0.351036	0.689825
C27	C	0.734695	0.295272	0.151600
C28	C	1.234695	0.795272	0.651600
C29	C	0.624352	0.283363	0.149722
C30	C	1.124352	0.783363	0.649722
C31	C	0.608927	0.065772	0.168086
C32	C	1.108927	0.565772	0.668086
C33	C	0.719270	0.077682	0.169964
C34	C	1.219270	0.577682	0.669964
C35	C	0.782150	0.192435	0.161719
C36	C	1.282150	0.692435	0.661719
C37	C	0.892496	0.204344	0.163588
C38	C	1.392496	0.704344	0.663588
C39	C	0.877069	-0.013246	0.181961
C40	C	1.377069	0.486754	0.681961
C41	C	0.766726	-0.025155	0.180083
C42	C	1.266726	0.474845	0.680083
C43	C	1.355454	-0.384775	0.040844
C44	C	1.855454	0.115225	0.540844
C45	C	1.346579	-0.510397	0.051448
C46	C	1.846579	-0.010397	0.551448
C47	C	1.203963	-0.525832	0.221631
C48	C	1.703963	-0.025832	0.721631
C49	C	1.212839	-0.400210	0.211027
C50	C	1.712839	0.099790	0.711027
C51	C	1.288588	-0.329686	0.120632
C52	C	1.788588	0.170314	0.620632
C53	C	1.297468	-0.204061	0.110034
C54	C	1.797468	0.295939	0.610034
C55	C	1.154848	-0.219499	0.280210
C56	C	1.654848	0.280501	0.780210
C57	C	1.145972	-0.345121	0.290814
C58	C	1.645972	0.154879	0.790814
C59	C	1.444027	0.155929	0.155965
C60	C	1.944027	0.655929	0.655965
C61	C	1.561465	0.168617	0.157963
C62	C	2.061465	0.668617	0.657963
C63	C	1.256778	0.135705	-0.062323
C64	C	1.756778	0.635705	0.437677
C65	C	1.253686	0.135375	-0.200834
C66	C	1.753686	0.635375	0.299166
N67	N	1.270836	0.419071	0.141840
N68	N	1.770836	0.919071	0.641840
C69	C	1.343775	0.145104	-0.277082
C70	C	1.843775	0.645104	0.222918
C71	C	1.340582	0.144764	-0.420241
C72	C	1.840582	0.644764	0.079759
C73	C	1.244645	0.134403	0.393998
C74	C	1.744645	0.634403	0.893998
C75	C	1.247737	0.134741	0.532509
C76	C	1.747737	0.634741	1.032509
H77	H	0.943692	0.297782	0.156873
H78	H	1.443692	0.797782	0.656873
F79	F	0.699793	-0.147278	0.188863
F80	F	1.199793	0.352722	0.688863
H81	H	1.423267	0.153680	-0.236376
H82	H	1.923267	0.653680	0.263624
H83	H	1.174195	0.126800	-0.241541
H84	H	1.674195	0.626800	0.258459
H85	H	1.142283	-0.583270	0.295220
H86	H	1.642283	-0.083270	0.795220
H87	H	0.915718	-0.096984	0.190198
H88	H	1.415718	0.403016	0.690198
F89	F	1.436081	-0.309716	-0.055349
F90	F	1.936081	0.190284	0.444651
H91	H	1.417704	0.153087	-0.485756
H92	H	1.917704	0.653087	0.014244
H93	H	1.170609	0.126403	-0.401982
H94	H	1.670609	0.626403	0.098018
H95	H	1.084296	-0.402557	0.364409
H96	H	1.584296	0.097443	0.864409
F97	F	1.417745	-0.569023	-0.033475
F98	F	1.917745	-0.069023	0.466525
F99	F	0.801620	0.417400	0.142809
F100	F	1.301620	0.917400	0.642809
H101	H	0.585718	0.367104	0.141486
H102	H	1.085718	0.867104	0.641486
F103	F	0.541987	-0.056347	0.176880
F104	F	1.041987	0.443653	0.676880
F105	F	1.378089	-0.129006	0.013832
F106	F	1.878089	0.370994	0.513832
H107	H	1.100404	-0.174632	0.345182
H108	H	1.600404	0.325368	0.845182
