data_functionalizedCrystal
_audit_creation_method	'MofGen! by Chris Wilmer'
_symmetry_space_group_name_H-M	'P1'
_symmetry_Int_Tables_number	1
_symmetry_cell_setting	triclinic
loop_
_symmetry_equiv_pos_as_xyz
  x,y,z
_cell_length_a	27.732048
_cell_length_b	10.489741
_cell_length_c	9.565339
_cell_angle_alpha	90.000900
_cell_angle_beta	89.995294
_cell_angle_gamma	96.409085
loop_
_atom_site_label
_atom_site_type_symbol
_atom_site_fract_x
_atom_site_fract_y
_atom_site_fract_z
O1	O	0.068187	-1.691056	-0.116191
O2	O	0.074588	-1.319579	-0.116214
O3	O	0.001064	-1.516855	-0.116175
O4	O	0.141712	-1.493780	-0.116230
O5	O	0.001068	-1.516839	0.116345
O6	O	0.074593	-1.319563	0.116306
O7	O	0.068192	-1.691040	0.116329
Zn8	Zn	0.071393	-1.505299	0.153235
Zn9	Zn	0.071387	-1.505320	-0.153120
O10	O	0.141716	-1.493765	0.116290
C11	C	0.074107	-1.272061	0.000043
C12	C	0.072661	-1.130495	0.000036
C13	C	-0.016944	-1.516363	0.000089
C14	C	-0.070608	-1.514904	0.000100
N15	N	0.071397	-1.505295	0.362315
C16	C	-0.408745	-1.622299	0.000035
C17	C	-0.610439	-1.616888	0.000015
O18	O	-0.641075	-1.715093	-0.000040
N19	N	-0.630301	-1.499911	0.000009
C20	C	-0.599736	-1.384279	-0.000001
O21	O	-0.621258	-1.284660	-0.000021
C22	C	-0.398044	-1.389692	0.000009
C23	C	-0.378184	-1.506676	0.000029
C24	C	-0.388886	-1.739274	0.000054
C25	C	-0.338465	-1.740625	0.000066
C26	C	-0.307904	-1.625002	0.000060
C27	C	-0.327764	-1.508028	0.000042
C28	C	-0.367480	-1.274062	-0.000011
C29	C	-0.317054	-1.275425	-0.000012
C30	C	-0.297195	-1.392409	0.000008
C31	C	-0.246783	-1.393757	0.000048
N32	N	-0.226920	-1.510733	0.000054
C33	C	-0.257481	-1.626356	0.000060
C34	C	-0.705628	-1.381446	-0.000003
C35	C	-0.756051	-1.380092	-0.000003
C36	C	-0.766751	-1.612701	0.000010
C37	C	-0.716327	-1.614053	0.000020
C38	C	-0.685766	-1.498422	0.000003
C39	C	-0.151594	-1.629186	0.000088
C40	C	-0.101169	-1.630527	0.000106
C41	C	-0.090474	-1.397919	0.000085
C42	C	-0.140895	-1.396577	0.000074
C43	C	-0.171454	-1.512221	0.000071
O44	O	-0.216118	-1.295604	0.000088
O45	O	-0.235950	-1.725961	0.000049
C46	C	-0.459166	-1.620947	0.000023
C47	C	-0.479025	-1.503973	0.000004
C48	C	-0.448464	-1.388350	-0.000002
C49	C	-0.529448	-1.502619	0.000004
C50	C	-0.560009	-1.618242	0.000010
C51	C	-0.540147	-1.735219	0.000016
C52	C	-0.489727	-1.736570	0.000029
C53	C	-0.468327	-1.271374	-0.000008
C54	C	-0.518748	-1.270032	-0.000019
C55	C	-0.549308	-1.385654	-0.000013
C56	C	0.159724	-1.494257	0.000023
C57	C	0.213388	-1.495715	0.000003
C58	C	0.068673	-1.738559	0.000069
C59	C	0.070119	-1.880124	0.000067
C60	C	0.025879	-1.064411	0.000067
C61	C	0.047976	-0.971320	-0.114583
C62	C	0.047992	-0.971339	0.114663
C63	C	0.094777	-1.039269	-0.114709
C64	C	0.094786	-1.039297	0.114640
C65	C	0.116916	-0.946232	-0.000038
N66	N	0.071379	-1.505335	-0.362199
C67	C	0.105388	-1.414034	0.453500
C68	C	0.115168	-1.529101	0.546682
C69	C	0.061621	-1.390277	0.546688
C70	C	0.081198	-1.620419	0.453445
C71	C	0.027633	-1.481520	0.453443
C72	C	0.037394	-1.596671	0.546583
H73	H	-0.085003	-1.725793	0.000126
O74	O	0.159309	-1.553304	0.595394
C75	C	0.169871	-1.673712	0.545883
H76	H	0.147977	-1.699562	0.447032
H77	H	0.210249	-1.669191	0.521277
H78	H	0.159929	-1.749745	0.629300
O79	O	0.024308	-0.935584	0.230260
C80	C	-0.023679	-0.996354	0.229815
H81	H	-0.025684	-1.086598	0.162701
H82	H	-0.035171	-1.023463	0.341313
H83	H	-0.048983	-0.928145	0.185074
H84	H	0.114553	-1.069234	-0.211747
H85	H	0.134160	-1.336927	0.412630
O86	O	0.091154	-1.736385	0.404566
C87	C	0.091069	-1.734941	0.257174
H88	H	0.098277	-1.631738	0.218629
H89	H	0.120621	-1.792610	0.216495
H90	H	0.054242	-1.779309	0.217215
O91	O	0.003142	-1.689020	0.594984
C92	C	0.013617	-1.810064	0.547185
H93	H	0.053887	-1.805619	0.521173
H94	H	0.004142	-1.884829	0.632214
H95	H	-0.008706	-1.837623	0.449519
H96	H	-0.009359	-1.461348	0.412456
O97	O	0.051819	-1.274114	0.595380
C98	C	0.087763	-1.178178	0.547979
H99	H	0.105597	-1.213030	0.449850
H100	H	0.070402	-1.087353	0.522869
H101	H	0.116356	-1.156572	0.632887
H102	H	0.028180	-0.941183	-0.211498
H103	H	-0.322301	-1.835885	0.000077
O104	O	-0.181206	-1.741637	0.000152
C105	C	-0.152856	-1.845158	0.000137
H106	H	-0.115347	-1.812004	0.044159
H107	H	-0.171164	-1.926107	0.067653
H108	H	-0.149131	-1.881073	-0.111409
H109	H	0.155414	-0.895116	-0.000115
O110	O	-0.696980	-1.727609	-0.000159
C111	C	-0.668143	-1.735381	-0.120604
H112	H	-0.655939	-1.634610	-0.160760
H113	H	-0.634953	-1.785563	-0.093523
H114	H	-0.690218	-1.792252	-0.204924
H115	H	0.114566	-1.069467	0.211560
H116	H	-0.413764	-1.833433	0.000054
H117	H	-0.772216	-1.284832	0.000005
O118	O	-0.796462	-1.724987	-0.000242
C119	C	-0.825950	-1.731127	-0.120655
H120	H	-0.807710	-1.665533	-0.204814
H121	H	-0.831258	-1.833970	-0.161091
H122	H	-0.862726	-1.698845	-0.093432
O123	O	-0.675995	-1.269029	-0.000195
C124	C	-0.685054	-1.197966	-0.120636
H125	H	-0.723183	-1.230073	-0.160788
H126	H	-0.681893	-1.091525	-0.093550
H127	H	-0.657412	-1.214833	-0.204960
O128	O	-0.386738	-1.160388	-0.000288
C129	C	-0.371139	-1.089985	-0.120708
H130	H	-0.360412	-1.158433	-0.204859
H131	H	-0.401864	-1.036326	-0.161151
H132	H	-0.338530	-1.018268	-0.093491
O133	O	-0.287348	-1.163132	-0.000273
C134	C	-0.257846	-1.156977	-0.120674
H135	H	-0.276073	-1.222580	-0.204839
H136	H	-0.252542	-1.054134	-0.161109
H137	H	-0.221070	-1.189238	-0.093436
H138	H	-0.065582	-1.303782	0.000085
O139	O	-0.160168	-1.282911	-0.000186
C140	C	-0.144571	-1.212490	-0.120595
H141	H	-0.133832	-1.280921	-0.204747
H142	H	-0.175301	-1.158852	-0.161044
H143	H	-0.111969	-1.140752	-0.093362
O144	O	-0.470462	-1.850242	-0.000210
C145	C	-0.486049	-1.920677	-0.120614
H146	H	-0.496772	-1.852252	-0.204788
H147	H	-0.455319	-1.974339	-0.161032
H148	H	-0.518660	-1.992393	-0.093387
O149	O	-0.538092	-1.156464	-0.000226
C150	C	-0.566918	-1.148720	-0.120683
H151	H	-0.579120	-1.249499	-0.160813
H152	H	-0.600110	-1.098527	-0.093626
H153	H	-0.544836	-1.091871	-0.205012
O154	O	-0.569819	-1.847570	0.000265
C155	C	-0.560757	-1.918675	0.120674
H156	H	-0.543766	-1.851004	0.204849
H157	H	-0.596349	-1.970525	0.161085
H158	H	-0.534829	-1.991990	0.093454
H159	H	-0.443448	-1.177217	-0.000016
H160	H	-0.012578	-1.115791	-0.000061
