data_functionalizedCrystal
_audit_creation_method	'MofGen! by Chris Wilmer'
_symmetry_space_group_name_H-M	'P1'
_symmetry_Int_Tables_number	1
_symmetry_cell_setting	triclinic
loop_
_symmetry_equiv_pos_as_xyz
  x,y,z
_cell_length_a	16.992694
_cell_length_b	8.559649
_cell_length_c	16.053802
_cell_angle_alpha	92.204030
_cell_angle_beta	87.249047
_cell_angle_gamma	80.223444
loop_
_atom_site_label
_atom_site_type_symbol
_atom_site_fract_x
_atom_site_fract_y
_atom_site_fract_z
O1	O	1.023824	0.329978	-0.069320
O2	O	0.795762	0.326287	-0.069345
O3	O	0.929885	0.098096	-0.069329
O4	O	0.889700	0.558168	-0.069335
O5	O	0.922506	0.110601	0.069529
O6	O	0.788383	0.338792	0.069513
O7	O	1.016444	0.342483	0.069538
Zn8	Zn	0.901242	0.342623	0.091572
Zn9	Zn	0.910964	0.326147	-0.091379
O10	O	0.882321	0.570673	0.069523
C11	C	0.763145	0.327794	0.000081
C12	C	0.676954	0.313635	0.000072
C13	C	0.618488	0.450242	0.000071
C14	C	0.537502	0.436931	0.000082
C15	C	0.514985	0.287010	0.000089
C16	C	0.573459	0.150392	0.000093
C17	C	0.654442	0.163706	0.000087
C18	C	0.274709	0.231830	0.000112
C19	C	0.193719	0.218527	0.000115
C20	C	0.157768	0.505067	0.000106
C21	C	0.238755	0.518367	0.000096
C22	C	0.297221	0.381749	0.000104
N23	N	0.432206	0.273399	0.000099
N24	N	0.379998	0.395362	0.000100
C25	C	0.929241	0.045208	0.000098
C26	C	0.938306	-0.131015	0.000095
C27	C	1.049061	0.340975	0.000110
C28	C	1.135252	0.355134	0.000114
C29	C	0.882965	0.623562	0.000093
C30	C	0.873901	0.799784	0.000091
N31	N	0.894612	0.353867	0.216432
N32	N	0.917601	0.314891	-0.216239
C33	C	0.951698	0.256811	0.260132
C34	C	0.947067	0.264692	0.347539
C35	C	0.885353	0.369639	0.391243
C36	C	0.828261	0.466699	0.347536
C37	C	0.832890	0.458808	0.260132
C38	C	0.865138	0.404060	0.652650
C39	C	0.860515	0.411947	0.740061
C40	C	0.979321	0.209937	0.740057
C41	C	0.983946	0.202063	0.652651
C42	C	0.926852	0.299117	0.608952
N43	N	0.880619	0.377701	0.480586
N44	N	0.931583	0.291046	0.519610
H45	H	0.489901	0.548171	0.000080
C46	C	0.339012	0.081548	0.000109
C47	C	0.338879	-0.031991	0.072212
C48	C	0.403186	-0.182283	0.072206
C49	C	0.467625	-0.219036	0.000097
C50	C	0.467760	-0.105494	-0.072011
C51	C	0.403454	0.044798	-0.072005
H52	H	0.291176	-0.004787	0.125596
H53	H	0.403086	-0.266334	0.125586
H54	H	0.515228	-0.330292	0.000093
H55	H	0.515464	-0.132699	-0.125395
H56	H	0.403554	0.128849	-0.125385
H57	H	0.811826	-0.124646	0.000087
H58	H	0.555119	0.028324	0.000110
H59	H	0.110157	0.616292	0.000102
H60	H	0.257081	0.640447	0.000080
C61	C	1.019586	0.141365	0.212062
C62	C	1.082376	0.034599	0.260137
C63	C	1.150265	-0.080854	0.212070
C64	C	1.155363	-0.089541	0.115928
C65	C	1.092571	0.017229	0.067848
C66	C	1.024683	0.132682	0.115915
H67	H	1.078604	0.041026	0.331312
H68	H	1.196747	-0.159892	0.247663
H69	H	1.205618	-0.175006	0.080346
H70	H	1.096343	0.010802	-0.003326
H71	H	0.978200	0.211720	0.080323
H72	H	0.810257	0.497414	0.775641
C73	C	1.051829	0.086616	0.604573
C74	C	1.114627	-0.020158	0.652635
C75	C	1.182511	-0.135599	0.604554
C76	C	1.187597	-0.144266	0.508413
C77	C	1.124796	-0.037489	0.460346
C78	C	1.056912	0.077952	0.508426
H79	H	1.110864	-0.013745	0.723809
H80	H	1.229000	-0.214643	0.640137
H81	H	1.237849	-0.229723	0.472821
H82	H	1.128559	-0.043902	0.389171
H83	H	1.010424	0.156996	0.472844
C84	C	1.042116	0.103170	0.788126
C85	C	1.015840	-0.016599	0.848225
C86	C	1.078637	-0.123377	0.896293
C87	C	1.167711	-0.110388	0.884262
C88	C	1.193991	0.009385	0.824161
C89	C	1.131194	0.116164	0.776093
H90	H	0.949899	-0.026219	0.857133
H91	H	1.059182	-0.212041	0.940783
H92	H	1.214197	-0.189432	0.919844
H93	H	1.259933	0.019006	0.815252
H94	H	1.150649	0.204828	0.731602
H95	H	1.000384	-0.206593	0.000108
C96	C	0.760373	0.582144	0.395606
C97	C	0.755309	0.590917	0.491748
C98	C	0.687421	0.706370	0.539815
C99	C	0.624596	0.813050	0.491740
C100	C	0.629658	0.804281	0.395593
C101	C	0.697546	0.688828	0.347526
H102	H	0.801818	0.511942	0.527341
H103	H	0.683674	0.712860	0.610990
H104	H	0.574341	0.898515	0.527322
H105	H	0.583150	0.883256	0.360001
H106	H	0.701293	0.682338	0.276352
H107	H	0.636813	0.572324	0.000064
H108	H	0.175391	0.096437	0.000120
H109	H	0.702047	0.052465	0.000088
H110	H	0.993551	0.185660	0.383119
H111	H	0.818650	0.483089	0.617077
H112	H	0.786403	0.537840	0.224552
