data_functionalizedCrystal
_audit_creation_method	'MofGen! by Chris Wilmer'
_symmetry_space_group_name_H-M	'P1'
_symmetry_Int_Tables_number	1
_symmetry_cell_setting	triclinic
loop_
_symmetry_equiv_pos_as_xyz
  x,y,z
_cell_length_a	12.759401
_cell_length_b	13.897447
_cell_length_c	12.759393
_cell_angle_alpha	90.032074
_cell_angle_beta	90.018567
_cell_angle_gamma	90.018574
loop_
_atom_site_label
_atom_site_type_symbol
_atom_site_fract_x
_atom_site_fract_y
_atom_site_fract_z
Zn1	Zn	1.606220	-0.383983	0.593980
Zn2	Zn	2.106220	0.116017	1.093980
Zn3	Zn	1.606100	-0.545312	0.418298
Zn4	Zn	2.106100	-0.045312	0.918298
Zn5	Zn	1.430522	-0.384030	0.418319
Zn6	Zn	1.930522	0.115970	0.918319
Zn7	Zn	1.430496	-0.545235	0.593939
Zn8	Zn	1.930496	-0.045235	1.093939
O9	O	1.518334	-0.464640	0.506134
O10	O	2.018334	0.035360	1.006134
O11	O	1.753225	-0.405396	0.570683
O12	O	2.253225	0.094604	1.070683
O13	O	1.582769	-0.523970	0.271280
O14	O	2.082769	-0.023970	0.771280
O15	O	1.453890	-0.249042	0.441646
O16	O	1.953890	0.250958	0.941646
O17	O	1.753137	-0.523924	0.441611
O18	O	2.253137	-0.023924	0.941611
O19	O	1.582975	-0.249007	0.570703
O20	O	2.082975	0.250993	1.070703
O21	O	1.453773	-0.405477	0.271295
O22	O	1.953773	0.094523	0.771295
O23	O	1.283498	-0.405402	0.441607
O24	O	1.783498	0.094598	0.941607
O25	O	1.453846	-0.523792	0.740966
O26	O	1.953846	-0.023792	1.240966
O27	O	1.283478	-0.523838	0.570635
O28	O	1.783478	-0.023838	1.070635
O29	O	1.582949	-0.405321	0.740995
O30	O	2.082949	0.094679	1.240995
O31	O	1.582744	-0.680283	0.441572
O32	O	2.082744	-0.180283	0.941572
O33	O	1.453729	-0.680227	0.570615
O34	O	1.953729	-0.180227	1.070615
C35	C	1.245367	-0.464617	0.506119
C36	C	1.745367	0.035383	1.006119
C37	C	1.128590	-0.464631	0.506138
C38	C	1.628590	0.035369	1.006138
C39	C	1.073768	-0.403030	0.573450
C40	C	1.573768	0.096970	1.073450
C41	C	0.964043	-0.403048	0.573457
C42	C	1.464043	0.096952	1.073457
C43	C	0.963975	-0.526277	0.438836
C44	C	1.463975	-0.026277	0.938836
C45	C	1.073697	-0.526253	0.438825
C46	C	1.573697	-0.026253	0.938825
C47	C	1.128661	-0.341407	0.640763
C48	C	1.628661	0.158593	1.140763
C49	C	1.073838	-0.279802	0.708082
C50	C	1.573838	0.220198	1.208082
C51	C	0.964114	-0.279820	0.708088
C52	C	1.464114	0.220180	1.208088
C53	C	0.909213	-0.341444	0.640776
C54	C	1.409213	0.158556	1.140776
C55	C	1.518249	-0.715254	0.506110
C56	C	2.018249	-0.215254	1.006110
C57	C	1.518309	-0.822468	0.506134
C58	C	2.018309	-0.322468	1.006134
C59	C	1.518359	-0.909538	0.506158
C60	C	2.018359	-0.409538	1.006158
C61	C	1.518433	-1.018770	0.506185
C62	C	2.018433	-0.518770	1.006185
C63	C	1.792368	-0.464663	0.506149
C64	C	2.292368	0.035337	1.006149
C65	C	1.909144	-0.464673	0.506156
C66	C	2.409144	0.035327	1.006156
C67	C	1.518408	-0.464543	0.780167
C68	C	2.018408	0.035457	1.280167
C69	C	1.518439	-0.464501	0.896944
C70	C	2.018439	0.035499	1.396944
C71	C	1.518449	-0.213047	0.506181
C72	C	2.018449	0.286953	1.006181
C73	C	1.518498	-0.105833	0.506202
C74	C	2.018498	0.394167	1.006202
C75	C	1.518322	-0.464667	0.233167
C76	C	2.018322	0.035333	0.733167
C77	C	1.518494	-0.464437	0.116390
C78	C	2.018494	0.035563	0.616390
C79	C	1.585673	-0.402807	0.951823
C80	C	2.085673	0.097193	1.451823
C81	C	1.585698	-0.402772	1.061547
C82	C	2.085698	0.097228	1.561547
C83	C	1.451253	-0.526133	1.061504
C84	C	1.951253	-0.026133	1.561504
C85	C	1.451223	-0.526163	0.951782
C86	C	1.951223	-0.026163	1.451782
C87	C	1.652889	-0.341146	0.896986
C88	C	2.152889	0.158854	1.396986
C89	C	1.720129	-0.279447	0.951865
C90	C	2.220129	0.220553	1.451865
C91	C	1.720154	-0.279413	1.061589
C92	C	2.220154	0.220587	1.561589
C93	C	1.652939	-0.341076	1.116434
C94	C	2.152939	0.158924	1.616434
H95	H	1.218004	-0.341385	0.640765
H96	H	1.718004	0.158615	1.140765
H97	H	1.118546	-0.229624	0.762878
H98	H	1.618546	0.270376	1.262878
H99	H	1.774896	-0.229168	1.106269
H100	H	2.274896	0.270832	1.606269
H101	H	1.396460	-0.576384	0.907098
H102	H	1.896460	-0.076384	1.407098
H103	H	0.919480	-0.229652	0.762894
H104	H	1.419480	0.270348	1.262894
H105	H	0.819868	-0.341434	0.640765
H106	H	1.319868	0.158566	1.140765
H107	H	0.919266	-0.576450	0.384036
H108	H	1.419266	-0.076450	0.884036
H109	H	1.118335	-0.576414	0.384014
H110	H	1.618335	-0.076414	0.884014
H111	H	1.652953	-0.341031	1.205779
H112	H	2.152953	0.158969	1.705779
H113	H	1.652879	-0.341169	0.807643
H114	H	2.152879	0.158831	1.307643
H115	H	1.774846	-0.229238	0.907203
H116	H	2.274846	0.270762	1.407203
H117	H	1.396529	-0.576336	1.106167
H118	H	1.896529	-0.076336	1.606167
