data_functionalizedCrystal
_audit_creation_method	'MofGen! by Chris Wilmer'
_symmetry_space_group_name_H-M	'P1'
_symmetry_Int_Tables_number	1
_symmetry_cell_setting	triclinic
loop_
_symmetry_equiv_pos_as_xyz
  x,y,z
_cell_length_a	15.944551
_cell_length_b	15.944545
_cell_length_c	18.366186
_cell_angle_alpha	89.991659
_cell_angle_beta	89.995445
_cell_angle_gamma	83.497456
loop_
_atom_site_label
_atom_site_type_symbol
_atom_site_fract_x
_atom_site_fract_y
_atom_site_fract_z
O1	O	1.114527	0.108334	-0.060477
O2	O	0.869977	0.121690	-0.060496
O3	O	0.998933	-0.007263	-0.060477
O4	O	0.985571	0.237287	-0.060496
O5	O	0.998911	-0.007270	0.060622
O6	O	0.869955	0.121683	0.060604
O7	O	1.114505	0.108327	0.060622
Zn8	Zn	0.992227	0.115004	0.079840
Zn9	Zn	0.992256	0.115013	-0.079714
O10	O	0.985549	0.237280	0.060604
C11	C	0.838672	0.121132	0.000052
C12	C	0.745426	0.119470	0.000045
C13	C	0.530571	0.035565	0.000065
C14	C	0.469561	0.074531	-0.059646
C15	C	0.574700	0.116463	0.000054
C16	C	0.469562	0.074544	0.059749
C17	C	0.409788	0.113552	0.000066
C18	C	0.514918	0.155450	-0.059707
C19	C	0.514925	0.155452	0.059741
C20	C	0.453933	0.194476	0.000015
C21	C	0.669703	0.118137	0.000046
C22	C	0.314787	0.111884	0.000068
C23	C	0.998368	-0.038561	0.000073
C24	C	0.996708	-0.131807	0.000075
C25	C	0.911814	-0.402440	0.000054
C26	C	0.952754	-0.351851	-0.059652
C27	C	0.990787	-0.467451	0.000054
C28	C	0.952754	-0.351885	0.059743
C29	C	0.993692	-0.302537	0.000065
C30	C	1.031706	-0.418090	-0.059701
C31	C	1.031694	-0.418127	0.059747
C32	C	1.072692	-0.367571	0.000027
C33	C	0.989112	-0.562453	0.000047
C34	C	0.995374	-0.207538	0.000068
C35	C	1.145810	0.108885	0.000073
C36	C	1.239056	0.110547	0.000075
C37	C	0.986114	0.268578	0.000052
C38	C	0.987774	0.361824	0.000045
N39	N	0.992213	0.114998	0.188731
N40	N	0.992276	0.115012	-0.188605
C41	C	1.049334	0.057926	0.226840
C42	C	1.049339	0.057922	0.303068
C43	C	0.992232	0.115005	0.341184
C44	C	0.935101	0.172082	0.303066
C45	C	0.935091	0.172078	0.226840
C46	C	0.981229	0.191504	0.461938
C47	C	0.981245	0.191508	0.538163
C48	C	0.992256	0.115016	0.576291
C49	C	1.003269	0.038515	0.538186
C50	C	1.003260	0.038512	0.461959
C51	C	0.992235	0.115015	0.423839
C52	C	1.049385	0.057934	0.697055
C53	C	1.049384	0.057930	0.773284
C54	C	0.935150	0.172097	0.773281
C55	C	0.935147	0.172094	0.697054
C56	C	0.992269	0.115014	0.658945
H57	H	0.449461	0.040317	-0.110123
Cl58	Cl	0.901227	-0.307246	0.137672
H59	H	1.095843	0.011446	0.195814
Cl60	Cl	1.177776	-0.343647	-0.000016
H61	H	1.095896	0.011450	0.804313
H62	H	0.972248	0.253797	0.430900
Cl63	Cl	0.545996	0.208232	0.137678
Cl64	Cl	0.863278	0.243833	0.178929
H65	H	0.972282	0.253800	0.569183
Cl66	Cl	1.083175	-0.462555	-0.137720
H67	H	1.065008	-0.447080	0.110231
H68	H	0.563906	-0.031573	-0.000003
H69	H	0.534915	0.189644	-0.110243
H70	H	0.843802	-0.418092	-0.000010
H71	H	0.420773	0.261684	-0.000023
H72	H	0.888649	0.218572	0.804315
H73	H	0.919411	-0.322914	-0.110134
H74	H	0.888602	0.218558	0.334104
Cl75	Cl	1.121155	-0.013832	0.350984
Cl76	Cl	0.438539	0.021693	0.137687
H77	H	1.012225	-0.023778	0.430937
Cl78	Cl	1.017119	-0.057654	0.586110
Cl79	Cl	1.121190	-0.013828	0.649146
Cl80	Cl	0.863339	0.243850	0.649141
