data_functionalizedCrystal
_audit_creation_method	'MofGen! by Chris Wilmer'
_symmetry_space_group_name_H-M	'P1'
_symmetry_Int_Tables_number	1
_symmetry_cell_setting	triclinic
loop_
_symmetry_equiv_pos_as_xyz
  x,y,z
_cell_length_a	10.723024
_cell_length_b	15.021413
_cell_length_c	10.723023
_cell_angle_alpha	89.994937
_cell_angle_beta	84.467709
_cell_angle_gamma	90.007085
loop_
_atom_site_label
_atom_site_type_symbol
_atom_site_fract_x
_atom_site_fract_y
_atom_site_fract_z
O1	O	1.657195	0.074024	0.175011
O2	O	1.294042	0.074027	0.191764
O3	O	1.483996	0.074022	0.001811
O4	O	1.467241	0.074029	0.364964
O5	O	1.483966	-0.074042	0.001838
O6	O	1.294012	-0.074037	0.191791
O7	O	1.657165	-0.074040	0.175038
Zn8	Zn	1.475584	-0.097547	0.183419
Zn9	Zn	1.475623	0.097534	0.183383
O10	O	1.467211	-0.074035	0.364991
C11	C	1.247528	-0.000005	0.190558
C12	C	1.108973	-0.000004	0.186911
N13	N	1.475565	-0.230685	0.183442
C14	C	1.033991	-0.000001	0.293198
C15	C	0.890787	0.000000	0.289431
C16	C	1.387717	-0.470365	0.271235
C17	C	1.500686	-0.529700	0.296421
C18	C	1.475597	-0.412291	0.183412
C19	C	1.362659	-0.529698	0.158254
C20	C	1.475618	-0.587716	0.183384
C21	C	1.588624	-0.470320	0.208654
C22	C	1.450522	-0.470313	0.070437
C23	C	1.563572	-0.529621	0.095576
C24	C	1.475584	-0.311234	0.183430
C25	C	1.475644	-0.688771	0.183365
C26	C	1.703679	-0.000006	0.176243
C27	C	1.842234	-0.000002	0.179891
C28	C	1.482762	-0.000009	-0.044675
C29	C	1.479114	-0.000006	-0.183229
N30	N	1.475651	0.230672	0.183350
C31	C	1.473703	-0.076702	-0.388189
C32	C	1.477473	-0.076706	-0.244986
C33	C	1.468445	-0.000002	0.411477
C34	C	1.472093	0.000001	0.550031
H35	H	1.075812	-0.000004	0.386984
H36	H	1.267140	-0.555783	0.136988
C37	C	0.927921	0.000042	0.058414
C38	C	0.855364	0.000063	-0.043372
C39	C	0.934265	0.000115	-0.155294
H40	H	0.979301	-0.051576	0.054926
H41	H	0.979271	0.051697	0.055018
H42	H	0.804036	-0.051587	-0.039977
H43	H	0.803987	0.051677	-0.039925
H44	H	0.985615	0.051770	-0.158690
H45	H	0.985641	-0.051504	-0.158770
H46	H	0.885047	0.000138	-0.224369
H47	H	1.472284	-0.142366	-0.441314
H48	H	1.067152	0.000017	0.093125
C49	C	1.288884	-0.435710	0.370531
C50	C	1.315751	-0.465785	0.488603
C51	C	1.224751	-0.433867	0.580106
H52	H	1.208756	-0.456892	0.353629
H53	H	1.289074	-0.372468	0.369424
H54	H	1.315547	-0.529014	0.489708
H55	H	1.395862	-0.444606	0.505545
H56	H	1.224941	-0.370625	0.578999
H57	H	1.144629	-0.455051	0.563193
H58	H	1.242974	-0.454261	0.660230
C59	C	1.473906	0.087657	-0.379363
C60	C	1.471660	0.158422	-0.464107
C61	C	1.473313	0.239185	-0.399112
H62	H	1.547868	0.091089	-0.337456
H63	H	1.402568	0.091013	-0.319704
H64	H	1.542991	0.155067	-0.523744
H65	H	1.397704	0.155018	-0.506017
H66	H	1.401975	0.242542	-0.339453
H67	H	1.547276	0.242609	-0.357208
H68	H	1.471778	0.287209	-0.456600
H69	H	1.478864	-0.142375	-0.191858
H70	H	0.826354	0.000006	0.380421
H71	H	1.684164	-0.444347	0.230035
C72	C	1.662970	-0.564056	-0.003318
C73	C	1.780951	-0.533824	0.023599
C74	C	1.872550	-0.565540	-0.067458
H75	H	1.646002	-0.542842	-0.083408
H76	H	1.662056	-0.627300	-0.003239
H77	H	1.781863	-0.470593	0.023507
H78	H	1.797959	-0.555035	0.103673
H79	H	1.871637	-0.628783	-0.067379
H80	H	1.855570	-0.544324	-0.147542
H81	H	1.952612	-0.545039	-0.049201
H82	H	1.521914	-0.555786	0.391949
H83	H	1.429259	-0.444207	-0.025060
H84	H	1.477736	0.065665	-0.236351
