data_functionalizedCrystal
_audit_creation_method	'MofGen! by Chris Wilmer'
_symmetry_space_group_name_H-M	'P1'
_symmetry_Int_Tables_number	1
_symmetry_cell_setting	triclinic
loop_
_symmetry_equiv_pos_as_xyz
  x,y,z
_cell_length_a	15.995350
_cell_length_b	15.995350
_cell_length_c	14.472310
_cell_angle_alpha	90.001162
_cell_angle_beta	89.990621
_cell_angle_gamma	83.492375
loop_
_atom_site_label
_atom_site_type_symbol
_atom_site_fract_x
_atom_site_fract_y
_atom_site_fract_z
O1	O	1.110997	0.107921	-0.076758
O2	O	1.610997	0.607921	0.423242
O3	O	0.867221	0.121248	-0.076776
O4	O	1.367221	0.621248	0.423224
O5	O	0.995773	-0.007303	-0.076766
O6	O	1.495773	0.492697	0.423234
O7	O	0.982445	0.236472	-0.076769
O8	O	1.482445	0.736472	0.423231
O9	O	0.995740	-0.007296	0.076916
O10	O	1.495740	0.492704	0.576916
O11	O	0.867188	0.121256	0.076906
O12	O	1.367188	0.621256	0.576906
O13	O	1.110963	0.107928	0.076924
O14	O	1.610963	0.607928	0.576924
Cu15	Cu	0.989073	0.114593	0.090947
Cu16	Cu	1.489073	0.614593	0.590947
Cu17	Cu	0.989112	0.114584	-0.090800
Cu18	Cu	1.489112	0.614584	0.409200
O19	O	0.982412	0.236480	0.076913
O20	O	1.482412	0.736480	0.576913
C21	C	0.836010	0.120701	0.000062
C22	C	1.336010	0.620701	0.500062
C23	C	0.743060	0.119049	0.000055
C24	C	1.243060	0.619049	0.500055
C25	C	0.995205	-0.038494	0.000073
C26	C	1.495205	0.461506	0.500073
C27	C	0.993553	-0.131444	0.000068
C28	C	1.493553	0.368556	0.500068
C29	C	0.405312	0.113117	0.000074
C30	C	0.905312	0.613117	0.500074
C31	C	0.452746	0.021565	0.000418
C32	C	0.952746	0.521565	0.500418
C33	C	0.549436	0.023217	0.000065
C34	C	1.049436	0.523217	0.500065
C35	C	0.572873	0.116060	0.000065
C36	C	1.072873	0.616060	0.500065
C37	C	0.531804	0.161212	-0.087692
C38	C	1.031804	0.661212	0.412308
C39	C	0.435169	0.158912	-0.087759
C40	C	0.935169	0.658912	0.412241
C41	C	0.434792	0.160812	0.087007
C42	C	0.934792	0.660812	0.587007
C43	C	0.531737	0.160790	0.088160
C44	C	1.031737	0.660790	0.588160
C45	C	0.667570	0.117727	0.000057
C46	C	1.167570	0.617727	0.500057
C47	C	0.310614	0.111452	0.000076
C48	C	0.810614	0.611452	0.500076
C49	C	0.987621	-0.469192	0.000071
C50	C	1.487621	0.030808	0.500071
C51	C	0.896069	-0.421758	-0.000281
C52	C	1.396069	0.078242	0.499719
C53	C	0.897721	-0.325068	0.000066
C54	C	1.397721	0.174932	0.500066
C55	C	0.990564	-0.301631	0.000069
C56	C	1.490564	0.198369	0.500069
C57	C	1.035701	-0.342705	0.087831
C58	C	1.535701	0.157295	0.587831
C59	C	1.033401	-0.439340	0.087904
C60	C	1.533401	0.060660	0.587904
C61	C	1.035330	-0.439707	-0.086861
C62	C	1.535330	0.060293	0.413139
C63	C	1.035309	-0.342762	-0.088021
C64	C	1.535309	0.157238	0.411979
C65	C	0.992231	-0.206934	0.000071
C66	C	1.492231	0.293066	0.500071
C67	C	0.985956	-0.563890	0.000075
C68	C	1.485956	-0.063890	0.500075
C69	C	1.142175	0.108476	0.000083
C70	C	1.642175	0.608476	0.500083
C71	C	1.235125	0.110127	0.000084
C72	C	1.735125	0.610127	0.500084
C73	C	0.982980	0.267671	0.000072
C74	C	1.482980	0.767671	0.500072
C75	C	0.984631	0.360621	0.000071
C76	C	1.484631	0.860621	0.500071
N77	N	0.989051	0.114598	0.218778
N78	N	1.489051	0.614598	0.718778
N79	N	0.989140	0.114572	-0.218631
N80	N	1.489140	0.614572	0.281369
C81	C	0.989111	0.114581	0.592869
C82	C	1.489111	0.614581	1.092869
C83	C	0.920095	0.183135	0.553698
C84	C	1.420095	0.683135	1.053698
C85	C	0.920254	0.183385	0.446610
C86	C	1.420254	0.683385	0.946610
C87	C	0.989081	0.114590	0.407278
C88	C	1.489081	0.614590	0.907278
C89	C	1.076445	0.133671	0.446122
C90	C	1.576445	0.633671	0.946122
C91	C	1.076057	0.134159	0.553243
C92	C	1.576057	0.634159	1.053243
C93	C	0.971542	0.026741	0.553398
C94	C	1.471542	0.526741	1.053398
C95	C	0.969538	0.027327	0.446270
C96	C	1.469538	0.527327	0.946270
C97	C	0.989069	0.114593	0.302390
C98	C	1.489069	0.614593	0.802390
C99	C	0.989128	0.114579	0.697757
C100	C	1.489128	0.614579	1.197757
H101	H	0.577852	-0.012275	0.062973
H102	H	1.077852	0.487725	0.562973
F103	F	0.428515	-0.026264	0.082678
F104	F	0.928515	0.473736	0.582678
H105	H	0.433166	-0.014865	-0.062168
H106	H	0.933166	0.485135	0.437832
H107	H	1.005412	-0.460250	-0.153379
H108	H	1.505412	0.039750	0.346621
H109	H	0.545930	0.229421	-0.090955
H110	H	1.045930	0.729421	0.409045
H111	H	1.091540	0.198219	0.578220
H112	H	1.591540	0.698219	1.078220
H113	H	0.859626	-0.441349	0.062299
H114	H	1.359626	0.058651	0.562299
F115	F	0.834934	0.168511	0.587380
F116	F	1.334934	0.668511	1.087380
H117	H	0.577308	-0.012521	-0.062951
H118	H	1.077308	0.487479	0.437049
H119	H	0.416874	0.125979	-0.153359
H120	H	0.916874	0.625979	0.346641
F121	F	0.568907	0.120214	-0.173059
F122	F	1.068907	0.620214	0.326941
H123	H	0.931159	0.247952	0.580608
H124	H	1.431159	0.747952	1.080608
F125	F	1.145140	0.071312	0.587113
F126	F	1.645140	0.571312	1.087113
F127	F	0.393016	0.246766	-0.092965
F128	F	0.893016	0.746766	0.407035
H129	H	0.414242	0.130885	0.153524
H130	H	0.914242	0.630885	0.653524
H131	H	0.559040	0.127830	0.153082
H132	H	1.059040	0.627830	0.653082
F133	F	0.551814	0.249287	0.095088
F134	F	1.051814	0.749287	0.595088
F135	F	1.030980	-0.042479	0.411290
F136	F	1.530980	0.457521	0.911290
H137	H	1.000459	-0.457639	0.153505
H138	H	1.500459	0.042361	0.653505
H139	H	1.002307	-0.315516	-0.152945
H140	H	1.502307	0.184484	0.347055
H141	H	0.403031	0.228313	0.087600
H142	H	0.903031	0.728313	0.587600
H143	H	0.862239	-0.296649	-0.062846
H144	H	1.362239	0.203351	0.437154
F145	F	0.934891	0.268593	0.413100
F146	F	1.434891	0.768593	0.913100
F147	F	1.123805	-0.322679	-0.094950
F148	F	1.623805	0.177321	0.405050
F149	F	1.145179	0.070143	0.412824
F150	F	1.645179	0.570143	0.912824
F151	F	1.097168	0.216448	0.411046
F152	F	1.597168	0.716448	0.911046
H153	H	0.909219	0.008392	0.580461
H154	H	1.409219	0.508392	1.080461
F155	F	0.850993	-0.288638	0.082427
F156	F	1.350993	0.211362	0.582427
H157	H	0.905272	0.012845	0.420883
H158	H	1.405272	0.512845	0.920883
F159	F	1.124855	-0.324243	0.092103
F160	F	1.624855	0.175757	0.592103
H161	H	0.859490	-0.440293	-0.063217
H162	H	1.359490	0.059707	0.436783
H163	H	1.021872	-0.024275	0.578728
H164	H	1.521872	0.475725	1.078728
H165	H	1.004324	-0.314320	0.153137
H166	H	1.504324	0.185680	0.653137
F167	F	1.121254	-0.481493	0.093121
F168	F	1.621254	0.018507	0.593121
F169	F	0.835361	0.168568	0.412282
F170	F	1.335361	0.668568	0.912282
F171	F	1.123558	-0.481221	-0.087631
F172	F	1.623558	0.018779	0.412369
