data_functionalizedCrystal
_audit_creation_method	'MofGen! by Chris Wilmer'
_symmetry_space_group_name_H-M	'P1'
_symmetry_Int_Tables_number	1
_symmetry_cell_setting	triclinic
loop_
_symmetry_equiv_pos_as_xyz
  x,y,z
_cell_length_a	16.992694
_cell_length_b	10.540539
_cell_length_c	15.455313
_cell_angle_alpha	92.694186
_cell_angle_beta	87.142206
_cell_angle_gamma	87.596857
loop_
_atom_site_label
_atom_site_type_symbol
_atom_site_fract_x
_atom_site_fract_y
_atom_site_fract_z
O1	O	1.045302	0.264111	-0.072015
O2	O	0.817001	0.261155	-0.072041
O3	O	0.936360	0.078379	-0.072026
O4	O	0.925943	0.446887	-0.072030
O5	O	0.929534	0.088785	0.072235
O6	O	0.810175	0.271561	0.072220
O7	O	1.038476	0.274517	0.072246
Cu8	Cu	0.923702	0.273989	0.085405
Cu9	Cu	0.931774	0.261683	-0.085200
O10	O	0.919117	0.457293	0.072232
C11	C	0.784354	0.262557	0.000086
C12	C	0.697247	0.251216	0.000077
C13	C	0.647619	0.360636	0.000076
C14	C	0.565773	0.349973	0.000088
C15	C	0.533555	0.229889	0.000094
C16	C	0.583189	0.120461	0.000097
C17	C	0.665034	0.131125	0.000092
C18	C	0.289709	0.185692	0.000118
C19	C	0.207858	0.175036	0.000121
C20	C	0.190446	0.404549	0.000114
C21	C	0.272294	0.415202	0.000103
C22	C	0.321921	0.305774	0.000110
N23	N	0.449895	0.218988	0.000104
N24	N	0.405579	0.316677	0.000107
C25	C	0.932166	0.036211	0.000103
C26	C	0.929829	-0.104941	0.000098
C27	C	0.840284	-0.296163	-0.000236
C28	C	0.842638	-0.149316	0.000089
C29	C	0.967891	-0.157014	0.082483
C30	C	0.964912	-0.303812	0.082552
C31	C	0.974447	-0.316010	-0.081500
C32	C	0.975302	-0.169037	-0.082589
C33	C	1.071122	0.273115	0.000117
C34	C	1.158230	0.284456	0.000121
C35	C	0.923311	0.499461	0.000101
C36	C	0.925648	0.640612	0.000100
N37	N	0.918030	0.282645	0.205400
N38	N	0.937452	0.253018	-0.205195
C39	C	0.968756	0.205027	0.250801
C40	C	0.964474	0.211585	0.341608
C41	C	0.909469	0.295768	0.387013
C42	C	0.858738	0.373389	0.341607
C43	C	0.863017	0.366823	0.250801
C44	C	0.891000	0.324073	0.658593
C45	C	0.886727	0.330635	0.749405
C46	C	0.992462	0.168829	0.749400
C47	C	0.996739	0.162277	0.658592
C48	C	0.946005	0.239893	0.613193
N49	N	0.905093	0.302477	0.479833
N50	N	0.950379	0.233177	0.520375
H51	H	0.812416	-0.113837	-0.058968
H52	H	0.525368	0.439075	0.000087
H53	H	0.298519	0.512986	0.000088
H54	H	0.330106	0.096587	0.000125
C55	C	0.726066	0.511125	0.074218
C56	C	0.683032	0.492634	0.000066
H57	H	0.747930	0.592614	0.074208
H58	H	0.692127	0.505832	0.124519
H59	H	0.767335	0.447476	0.074207
H60	H	0.641760	0.556277	0.000080
H61	H	0.716974	0.497938	-0.050248
C62	C	0.795859	0.041657	0.080626
C63	C	0.793982	-0.091067	0.079938
H64	H	0.765816	0.077613	0.129922
H65	H	0.848868	0.066270	0.083049
H66	H	0.774152	0.071098	0.029376
H67	H	0.815694	-0.120510	0.131185
H68	H	0.740962	-0.115692	0.077522
C69	C	0.722022	0.436069	0.369587
C70	C	0.798273	0.465917	0.391518
H71	H	0.684694	0.493190	0.400404
H72	H	0.717313	0.443276	0.309016
H73	H	0.712344	0.351503	0.384480
H74	H	0.807954	0.550481	0.376618
H75	H	0.802984	0.458722	0.452102
H76	H	1.041528	0.093728	0.621625
C77	C	0.894602	-0.228748	0.214939
C78	C	0.919107	-0.339527	0.165671
H79	H	0.866318	-0.250794	0.266250
H80	H	0.939423	-0.183237	0.229992
H81	H	0.861434	-0.177093	0.181989
H82	H	0.952280	-0.391177	0.198619
H83	H	0.874279	-0.385058	0.150620
H84	H	1.037451	-0.357811	-0.082047
C85	C	0.057253	0.490117	0.000127
C86	C	0.135895	0.524827	0.000117
H87	H	0.023576	0.564378	0.000137
H88	H	0.049792	0.437603	-0.050176
H89	H	0.045053	0.444845	0.050438
H90	H	0.148096	0.570091	-0.050197
H91	H	0.143359	0.577362	0.050426
C92	C	0.233285	-0.050768	0.000138
C93	C	0.172443	0.043030	0.000130
H94	H	0.211419	-0.132256	0.000145
H95	H	0.267220	-0.045472	-0.050166
H96	H	0.262469	-0.038198	0.050449
H97	H	0.143262	0.030465	-0.050185
H98	H	0.138494	0.037730	0.050439
C99	C	0.465460	0.002205	0.000101
C100	C	0.547778	-0.011539	0.000102
H101	H	0.443602	-0.079290	0.000097
H102	H	0.446099	0.051227	0.050405
H103	H	0.450851	0.043980	-0.050209
H104	H	0.562387	-0.053306	0.050417
H105	H	0.567146	-0.060581	-0.050207
C106	C	0.847403	-0.431847	-0.129842
C107	C	0.797550	-0.344569	-0.079984
H108	H	0.821017	-0.461743	-0.179073
H109	H	0.893836	-0.391523	-0.148361
H110	H	0.861155	-0.501479	-0.095908
H111	H	0.783802	-0.274932	-0.113917
H112	H	0.751103	-0.384892	-0.061466
C113	C	1.097588	-0.169375	0.012638
C114	C	1.054133	-0.119034	0.086636
H115	H	1.150829	-0.145918	0.015200
H116	H	1.095708	-0.259399	0.010176
H117	H	1.075704	-0.136928	-0.037648
H118	H	1.076013	-0.151489	0.136921
H119	H	1.056018	-0.028992	0.089105
H120	H	1.005778	0.148382	0.378572
H121	H	1.013550	0.136482	0.213837
H122	H	1.033766	0.105637	0.786371
C123	C	0.786065	0.484679	0.667732
C124	C	0.835240	0.409399	0.608698
H125	H	0.751643	0.537363	0.636924
H126	H	0.755885	0.431482	0.703156
H127	H	0.817318	0.536264	0.703141
H128	H	0.803987	0.357807	0.573293
H129	H	0.865423	0.462602	0.573258
H130	H	0.841933	0.399192	0.786370
H131	H	0.705441	0.042024	0.000091
H132	H	0.803202	-0.325110	0.058505
H133	H	1.027442	-0.346069	0.086296
H134	H	0.935843	-0.112522	0.143784
C135	C	0.994070	-0.062567	-0.215540
C136	C	0.937813	-0.123295	-0.164870
H137	H	0.970924	-0.034328	-0.266337
H138	H	1.012175	0.008303	-0.183190
H139	H	1.037259	-0.120503	-0.231468
H140	H	0.894626	-0.065356	-0.148937
H141	H	0.919696	-0.194175	-0.197227
H142	H	0.949182	-0.354516	-0.143942
H143	H	0.821710	0.430026	0.213837
H144	H	1.039106	-0.139658	-0.087557
