data_functionalizedCrystal
_audit_creation_method	'MofGen! by Chris Wilmer'
_symmetry_space_group_name_H-M	'P1'
_symmetry_Int_Tables_number	1
_symmetry_cell_setting	triclinic
loop_
_symmetry_equiv_pos_as_xyz
  x,y,z
_cell_length_a	8.559649
_cell_length_b	13.339070
_cell_length_c	7.681481
_cell_angle_alpha	82.719484
_cell_angle_beta	85.061486
_cell_angle_gamma	87.296021
loop_
_atom_site_label
_atom_site_type_symbol
_atom_site_fract_x
_atom_site_fract_y
_atom_site_fract_z
O1	O	-2.115958	-0.043546	0.146429
O2	O	-1.673145	0.006959	0.146430
O3	O	-1.843731	-0.161608	0.146425
O4	O	-1.945373	0.125021	0.146435
O5	O	-1.822631	-0.140872	-0.146432
O6	O	-1.652046	0.027695	-0.146427
O7	O	-2.094859	-0.022809	-0.146428
Zn8	Zn	-1.870102	0.005735	-0.192925
Zn9	Zn	-1.897902	-0.021586	0.192927
O10	O	-1.924273	0.145758	-0.146422
C11	C	-1.604762	0.021154	0.000002
C12	C	-1.432433	0.032547	0.000003
C13	C	-1.816012	-0.187596	-0.000001
C14	C	-1.764835	-0.295922	0.000006
C15	C	-2.162763	-0.691630	0.000004
C16	C	-2.210850	-0.589852	-0.000013
C17	C	-2.099350	-0.516365	-0.000008
C18	C	-1.939755	-0.544665	0.000013
C19	C	-1.891662	-0.646452	0.000016
C20	C	-1.828250	-0.471187	0.000005
C21	C	-1.668655	-0.499487	0.000026
C22	C	-1.620570	-0.601264	0.000030
C23	C	-1.732069	-0.674751	0.000024
C24	C	-1.876343	-0.369400	0.000002
C25	C	-1.605242	-0.324222	0.000014
C26	C	-1.557155	-0.426000	0.000031
C27	C	-1.163242	-0.037005	0.000001
C28	C	-1.335571	-0.048398	0.000001
C29	C	-1.951992	0.171745	0.000008
C30	C	-2.003170	0.280070	0.000012
N31	N	-1.916873	-0.040239	0.456261
N32	N	-1.851140	0.024380	-0.456258
H33	H	-2.006286	-0.346369	-0.000016
O34	O	-1.400350	-0.151742	-0.000007
H35	H	-1.302297	-0.209242	0.000003
O36	O	-2.005717	-0.127632	0.555878
H37	H	-2.129153	-0.121863	0.520609
H38	H	-2.340791	-0.566818	-0.000033
H39	H	-1.784050	0.090342	0.468547
O40	O	-1.484972	-0.244966	0.000007
H41	H	-1.365916	-0.281740	-0.000012
H42	H	-1.427210	-0.449056	0.000047
O43	O	-1.367661	0.135902	-0.000008
H44	H	-1.237931	0.128938	-0.000022
O45	O	-2.151202	-0.406588	-0.000021
H46	H	-2.230995	-0.397952	0.119344
O47	O	-2.283003	-0.770888	-0.000027
H48	H	-2.365851	-0.770643	0.119321
O49	O	-1.680193	-0.784528	0.000019
H50	H	-1.784540	-0.830867	0.000004
H51	H	-1.490617	-0.624301	0.000033
