data_functionalizedCrystal
_audit_creation_method	'MofGen! by Chris Wilmer'
_symmetry_space_group_name_H-M	'P1'
_symmetry_Int_Tables_number	1
_symmetry_cell_setting	triclinic
loop_
_symmetry_equiv_pos_as_xyz
  x,y,z
_cell_length_a	14.044220
_cell_length_b	14.044220
_cell_length_c	13.101039
_cell_angle_alpha	93.667477
_cell_angle_beta	86.340132
_cell_angle_gamma	93.188878
loop_
_atom_site_label
_atom_site_type_symbol
_atom_site_fract_x
_atom_site_fract_y
_atom_site_fract_z
O1	O	1.281968	0.225348	-0.085109
O2	O	1.781968	0.725348	0.414891
O3	O	1.005298	0.217041	-0.085135
O4	O	1.505298	0.717041	0.414865
O5	O	1.139480	0.082860	-0.085112
O6	O	1.639480	0.582860	0.414888
O7	O	1.147787	0.359530	-0.085132
O8	O	1.647787	0.859530	0.414868
O9	O	1.129854	0.092504	0.085316
O10	O	1.629854	0.592504	0.585316
O11	O	0.995673	0.226686	0.085293
O12	O	1.495673	0.726686	0.585293
O13	O	1.272343	0.234993	0.085319
O14	O	1.772343	0.734993	0.585319
Zn15	Zn	1.132479	0.232371	0.112365
Zn16	Zn	1.632479	0.732371	0.612365
Zn17	Zn	1.145162	0.219663	-0.112181
Zn18	Zn	1.645162	0.719663	0.387819
O19	O	1.138161	0.369175	0.085296
O20	O	1.638161	0.869175	0.585296
C21	C	0.964864	0.218228	0.000076
C22	C	1.464864	0.718228	0.500076
C23	C	0.858722	0.207383	0.000066
C24	C	1.358722	0.707383	0.500066
C25	C	0.664383	0.187558	0.000088
C26	C	1.164383	0.687558	0.500088
C27	C	0.613253	0.264472	0.000087
C28	C	1.113253	0.764472	0.500087
C29	C	0.505116	0.253441	0.000099
C30	C	1.005116	0.753441	0.500099
C31	C	0.772529	0.198587	0.000076
C32	C	1.272529	0.698587	0.500076
C33	C	1.131031	0.052060	0.000102
C34	C	1.631031	0.552060	0.500102
C35	C	1.120187	-0.054083	0.000102
C36	C	1.620187	0.445917	0.500102
C37	C	1.100362	-0.248421	0.000086
C38	C	1.600362	0.251579	0.500086
C39	C	1.177276	-0.299551	0.000090
C40	C	1.677276	0.200449	0.500090
C41	C	1.166245	-0.407688	0.000080
C42	C	1.666245	0.092312	0.500080
C43	C	1.111391	-0.140275	0.000095
C44	C	1.611391	0.359725	0.500095
C45	C	1.312777	0.233806	0.000106
C46	C	1.812777	0.733806	0.500106
C47	C	1.418920	0.244651	0.000109
C48	C	1.918920	0.744651	0.500109
C49	C	1.146610	0.399974	0.000080
C50	C	1.646610	0.899974	0.500080
C51	C	1.157455	0.506116	0.000073
C52	C	1.657455	1.006116	0.500073
N53	N	1.123831	0.241043	0.265612
N54	N	1.623831	0.741043	0.765612
N55	N	1.153817	0.210984	-0.265428
N56	N	1.653817	0.710984	0.234572
C57	C	1.112065	0.252851	0.474653
C58	C	1.612065	0.752851	0.974653
C59	C	1.165580	0.199179	0.525538
C60	C	1.665580	0.699179	1.025538
C61	C	1.159034	0.205749	0.641855
C62	C	1.659034	0.705749	1.141855
C63	C	1.118610	0.246282	0.358325
C64	C	1.618610	0.746282	0.858325
H65	H	0.626945	0.113431	0.000099
H66	H	1.126945	0.613431	0.500099
H67	H	0.650693	0.338605	0.000077
H68	H	1.150693	0.838605	0.500077
C69	C	1.276042	-0.249457	0.000163
C70	C	1.776042	0.250543	0.500163
C71	C	1.267491	-0.150603	0.000198
C72	C	1.767491	0.349397	0.500198
C73	C	1.358448	-0.104421	0.000283
C74	C	1.858448	0.395579	0.500283
H75	H	1.313188	-0.270642	-0.059247
H76	H	1.813188	0.229358	0.440753
H77	H	1.306391	-0.263991	0.059625
H78	H	1.806391	0.236009	0.559625
H79	H	1.237155	-0.136076	-0.059258
H80	H	1.737155	0.363924	0.440742
H81	H	1.230362	-0.129391	0.059604
H82	H	1.730362	0.370609	0.559604
H83	H	1.388798	-0.118955	0.059744
H84	H	1.888798	0.381045	0.559744
H85	H	1.395587	-0.125614	-0.059129
H86	H	1.895587	0.374386	0.440871
H87	H	1.352659	-0.037344	0.000316
H88	H	1.852659	0.462656	0.500316
H89	H	1.061336	0.303733	0.518442
H90	H	1.561336	0.803733	1.018442
C91	C	1.001596	-0.298508	0.000134
C92	C	1.501596	0.201492	0.500134
C93	C	1.010152	-0.397358	0.000157
C94	C	1.510152	0.102642	0.500157
C95	C	0.919190	-0.443539	0.000220
C96	C	1.419190	0.056461	0.500220
H97	H	0.971159	-0.284036	-0.059280
H98	H	1.471159	0.215964	0.440720
H99	H	0.964528	-0.277262	0.059592
H100	H	1.464528	0.222738	0.559592
H101	H	1.047205	-0.418596	-0.059295
H102	H	1.547205	0.081404	0.440705
H103	H	1.040572	-0.411857	0.059566
H104	H	1.540572	0.088143	0.559566
H105	H	0.882122	-0.422293	0.059678
H106	H	1.382122	0.077707	0.559678
H107	H	0.888761	-0.429060	-0.059195
H108	H	1.388761	0.070940	0.440805
H109	H	0.924983	-0.510613	0.000245
H110	H	1.424983	-0.010613	0.500245
C111	C	1.232986	0.131202	0.466968
C112	C	1.732986	0.631202	0.966968
C113	C	1.226044	0.137994	0.361570
C114	C	1.726044	0.637994	0.861570
C115	C	1.288030	0.075301	0.307580
C116	C	1.788030	0.575301	0.807580
H117	H	1.216010	0.067628	0.484494
H118	H	1.716010	0.567628	0.984494
H119	H	1.296729	0.147655	0.484303
H120	H	1.796729	0.647655	0.984303
H121	H	1.162315	0.121535	0.344242
H122	H	1.662315	0.621535	0.844242
H123	H	1.243028	0.201554	0.344014
H124	H	1.743028	0.701554	0.844014
H125	H	1.351773	0.091754	0.324915
H126	H	1.851773	0.591754	0.824915
H127	H	1.271048	0.011732	0.325114
H128	H	1.771048	0.511732	0.825114
H129	H	1.283335	0.079908	0.236062
H130	H	1.783335	0.579908	0.736062
