data_functionalizedCrystal
_audit_creation_method	'MofGen! by Chris Wilmer'
_symmetry_space_group_name_H-M	'P1'
_symmetry_Int_Tables_number	1
_symmetry_cell_setting	triclinic
loop_
_symmetry_equiv_pos_as_xyz
  x,y,z
_cell_length_a	14.044220
_cell_length_b	10.540539
_cell_length_c	13.101039
_cell_angle_alpha	93.398267
_cell_angle_beta	86.340132
_cell_angle_gamma	88.857185
loop_
_atom_site_label
_atom_site_type_symbol
_atom_site_fract_x
_atom_site_fract_y
_atom_site_fract_z
O1	O	1.264944	0.299850	-0.085096
O2	O	0.988901	0.288796	-0.085123
O3	O	1.133220	0.110253	-0.085108
O4	O	1.120625	0.478393	-0.085111
O5	O	1.122866	0.123087	0.085321
O6	O	0.978547	0.301630	0.085306
O7	O	1.254589	0.312683	0.085332
Zn8	Zn	1.114924	0.309194	0.112379
Zn9	Zn	1.128566	0.292285	-0.112169
O10	O	1.110270	0.491226	0.085317
C11	C	0.948377	0.290375	0.000088
C12	C	0.843054	0.275945	0.000078
C13	C	0.650213	0.249565	0.000099
C14	C	0.593272	0.351908	0.000102
C15	C	0.485969	0.337230	0.000114
C16	C	0.757526	0.264241	0.000087
C17	C	1.127098	0.069271	0.000105
C18	C	1.124273	-0.071963	0.000099
C19	C	1.016007	-0.266367	-0.000294
C20	C	1.018849	-0.119430	0.000090
C21	C	1.169094	-0.121162	0.097427
C22	C	1.165492	-0.268064	0.097509
C23	C	1.179411	-0.282960	-0.096300
C24	C	1.180460	-0.135977	-0.097587
C25	C	1.295114	0.311104	0.000119
C26	C	1.400437	0.325534	0.000123
C27	C	1.116392	0.532208	0.000103
C28	C	1.119218	0.673442	0.000102
N29	N	1.105620	0.320734	0.265626
N30	N	1.137878	0.280737	-0.265416
C31	C	1.092962	0.336445	0.474667
C32	C	1.150533	0.265029	0.525549
C33	C	1.143490	0.273771	0.641867
C34	C	1.100004	0.327705	0.358339
H35	H	0.983167	-0.086117	-0.069679
H36	H	1.205111	0.197322	0.481752
C37	C	1.020250	0.426926	0.532922
C38	C	1.038176	0.551544	0.506896
C39	C	0.971208	0.634927	0.560541
H40	H	1.025061	0.421050	0.604488
H41	H	0.957846	0.404842	0.515382
H42	H	1.100565	0.573622	0.524443
H43	H	1.033357	0.557461	0.435339
H44	H	0.908804	0.612843	0.543002
H45	H	0.976025	0.629040	0.632105
H46	H	0.983356	0.719488	0.542883
C47	C	0.966151	-0.316885	-0.093449
C48	C	0.942501	-0.215654	-0.152341
C49	C	0.896586	-0.262154	-0.238174
H50	H	0.909678	-0.358490	-0.071711
H51	H	1.007534	-0.375482	-0.133474
H52	H	0.901120	-0.157079	-0.112322
H53	H	0.998956	-0.174040	-0.174104
H54	H	0.937968	-0.320750	-0.278200
H55	H	0.840117	-0.303758	-0.216427
H56	H	0.880541	-0.193478	-0.278147
C57	C	1.140051	-0.337206	-0.194696
C58	C	1.210544	-0.413068	-0.250476
C59	C	1.174305	-0.463074	-0.341109
H60	H	1.121434	-0.269640	-0.234550
H61	H	1.086273	-0.387258	-0.178479
H62	H	1.264305	-0.363019	-0.266696
H63	H	1.229168	-0.480654	-0.210652
H64	H	1.120527	-0.513126	-0.324892
H65	H	1.155689	-0.395500	-0.380955
H66	H	1.222125	-0.514561	-0.378963
H67	H	1.255598	-0.322536	-0.096948
H68	H	0.625112	0.450550	0.000096
H69	H	0.618376	0.150932	0.000105
H70	H	1.246295	-0.090708	0.101053
H71	H	0.970315	-0.295542	0.069103
H72	H	1.123576	-0.294577	0.170256
C73	C	0.959596	-0.062387	0.093359
C74	C	0.921093	-0.160242	0.149585
C75	C	0.866517	-0.107743	0.235525
H76	H	0.909335	-0.010790	0.071788
H77	H	0.998965	-0.012008	0.135099
H78	H	0.881726	-0.210600	0.107852
H79	H	0.971332	-0.211847	0.171181
H80	H	0.905886	-0.057364	0.277265
H81	H	0.816261	-0.056146	0.213945
H82	H	0.840393	-0.174129	0.273689
H83	H	1.257679	-0.104427	-0.103457
C84	C	1.116226	-0.062102	0.194083
C85	C	1.077214	-0.158376	0.251719
C86	C	1.028510	-0.104023	0.340768
H87	H	1.066491	-0.007044	0.175970
H88	H	1.159395	-0.014996	0.233517
H89	H	1.034047	-0.205461	0.212292
H90	H	1.126928	-0.213441	0.269859
H91	H	1.071679	-0.056917	0.380203
H92	H	0.978780	-0.048967	0.322645
H93	H	1.002042	-0.169337	0.379890
C94	C	1.266289	-0.321120	0.103476
C95	C	1.330162	-0.220887	0.106990
C96	C	1.423019	-0.269705	0.112507
H97	H	1.282716	-0.376403	0.044816
H98	H	1.269526	-0.366931	0.163514
H99	H	1.326928	-0.175096	0.046959
H100	H	1.313766	-0.165596	0.165647
H101	H	1.426257	-0.315516	0.172544
H102	H	1.439436	-0.324987	0.053845
H103	H	1.466367	-0.201704	0.114901
C104	C	1.137057	-0.093564	-0.193686
C105	C	1.205986	-0.031857	-0.253370
C106	C	1.166040	0.007228	-0.341906
H107	H	1.084613	-0.036813	-0.174996
H108	H	1.115659	-0.165671	-0.231963
H109	H	1.227370	0.040240	-0.215101
H110	H	1.258433	-0.088584	-0.272087
H111	H	1.144643	-0.064879	-0.380182
H112	H	1.113597	0.063974	-0.323205
H113	H	1.212805	0.049090	-0.382416
