data_functionalizedCrystal
_audit_creation_method	'MofGen! by Chris Wilmer'
_symmetry_space_group_name_H-M	'P1'
_symmetry_Int_Tables_number	1
_symmetry_cell_setting	triclinic
loop_
_symmetry_equiv_pos_as_xyz
  x,y,z
_cell_length_a	18.215407
_cell_length_b	13.897448
_cell_length_c	13.897441
_cell_angle_alpha	90.029627
_cell_angle_beta	90.019897
_cell_angle_gamma	90.018140
loop_
_atom_site_label
_atom_site_type_symbol
_atom_site_fract_x
_atom_site_fract_y
_atom_site_fract_z
Zn1	Zn	1.125109	-0.383982	0.545415
Zn2	Zn	1.125033	-0.545301	0.384116
Zn3	Zn	1.002042	-0.384023	0.384129
Zn4	Zn	1.002023	-0.545238	0.545365
O5	O	1.063552	-0.464636	0.464756
O6	O	1.228083	-0.405390	0.524033
O7	O	1.108694	-0.523950	0.249136
O8	O	1.018406	-0.249036	0.405551
O9	O	1.228027	-0.523911	0.405528
O10	O	1.108824	-0.249006	0.524046
O11	O	1.018333	-0.405460	0.249146
O12	O	0.899055	-0.405399	0.405502
O13	O	1.018375	-0.523803	0.680353
O14	O	0.899041	-0.523843	0.523962
O15	O	1.108806	-0.405329	0.680390
O16	O	1.108676	-0.680274	0.405480
O17	O	1.018301	-0.680228	0.523949
C18	C	0.872345	-0.464619	0.464729
C19	C	0.790547	-0.464635	0.464740
C20	C	0.602365	-0.526406	0.526344
C21	C	0.525506	-0.526409	0.526356
C22	C	0.525491	-0.402883	0.403190
C23	C	0.602348	-0.402876	0.403183
C24	C	0.640783	-0.464643	0.464759
C25	C	0.487067	-0.464653	0.464777
C26	C	0.403733	-0.464656	0.464790
C27	C	0.724122	-0.464639	0.464748
C28	C	1.063498	-0.715250	0.464728
C29	C	1.063542	-0.822464	0.464749
C30	C	1.063620	-1.018759	0.464809
C31	C	1.063575	-0.909527	0.464778
C32	C	1.255505	-0.464653	0.464785
C33	C	1.337303	-0.464660	0.464797
C34	C	1.063597	-0.464555	0.716349
C35	C	1.063616	-0.464520	0.823563
C36	C	1.063626	-0.213043	0.464805
C37	C	1.063657	-0.105829	0.464826
C38	C	1.063549	-0.464647	0.214142
C39	C	1.063673	-0.464410	0.106928
C40	C	1.063631	-0.464493	0.910633
C41	C	1.063652	-0.464450	1.019866
H42	H	0.633656	-0.576699	0.576485
C43	C	0.594619	-0.280778	0.281426
C44	C	0.644583	-0.334983	0.335480
H45	H	0.620695	-0.238870	0.239630
H46	H	0.564663	-0.243934	0.323515
H47	H	0.564621	-0.322773	0.244461
H48	H	0.674578	-0.292988	0.372451
H49	H	0.674551	-0.371830	0.293386
H50	H	0.494187	-0.352596	0.353056
C51	C	0.533246	-0.648517	0.648088
C52	C	0.483277	-0.594306	0.594048
H53	H	0.507174	-0.690438	0.689876
H54	H	0.563243	-0.606534	0.685053
H55	H	0.563203	-0.685356	0.605982
H56	H	0.453323	-0.557461	0.636154
H57	H	0.453268	-0.636294	0.557081
