data_functionalizedCrystal
_audit_creation_method	'MofGen! by Chris Wilmer'
_symmetry_space_group_name_H-M	'P1'
_symmetry_Int_Tables_number	1
_symmetry_cell_setting	triclinic
loop_
_symmetry_equiv_pos_as_xyz
  x,y,z
_cell_length_a	29.839134
_cell_length_b	29.839131
_cell_length_c	29.839125
_cell_angle_alpha	89.982291
_cell_angle_beta	90.021980
_cell_angle_gamma	89.963719
loop_
_atom_site_label
_atom_site_type_symbol
_atom_site_fract_x
_atom_site_fract_y
_atom_site_fract_z
Zn1	Zn	0.686720	0.178978	0.254125
Zn2	Zn	0.686652	0.254090	0.178995
Zn3	Zn	0.611602	0.178968	0.178995
Zn4	Zn	0.611550	0.254075	0.254083
O5	O	0.649131	0.216528	0.216549
O6	O	0.749578	0.188952	0.244176
O7	O	0.676690	0.244127	0.116128
O8	O	0.621617	0.116102	0.188978
O9	O	0.749528	0.244137	0.188979
O10	O	0.676805	0.116109	0.244176
O11	O	0.621551	0.188935	0.116127
O12	O	0.548728	0.188921	0.188938
O13	O	0.621528	0.244111	0.316956
O14	O	0.548690	0.244101	0.244105
O15	O	0.676755	0.188937	0.316987
O16	O	0.676639	0.316955	0.188938
O17	O	0.621462	0.316944	0.244105
C18	C	0.532408	0.216509	0.216517
C19	C	0.482474	0.216511	0.216514
C20	C	0.649050	0.333250	0.216527
C21	C	0.649056	0.383185	0.216533
C22	C	0.172820	0.245303	0.245240
C23	C	-0.014853	0.245315	0.245260
O24	O	-0.039127	0.269774	0.269665
N25	N	-0.038311	0.216544	0.216583
C26	C	-0.014848	0.187766	0.187902
O27	O	-0.039107	0.163291	0.163514
C28	C	0.172824	0.187751	0.187884
C29	C	0.196280	0.216527	0.216560
C30	C	0.196276	0.274076	0.273913
C31	C	0.243191	0.274075	0.273906
C32	C	0.266651	0.245299	0.245226
C33	C	0.243195	0.216526	0.216553
C34	C	0.196286	0.158971	0.159205
C35	C	0.243207	0.158969	0.159204
C36	C	0.266663	0.187745	0.187880
C37	C	0.313570	0.187749	0.187865
N38	N	0.337029	0.216520	0.216542
C39	C	0.313569	0.245295	0.245222
C40	C	-0.113379	0.187776	0.187912
C41	C	-0.160297	0.187780	0.187916
C42	C	-0.160298	0.245329	0.245275
C43	C	-0.113380	0.245327	0.245269
C44	C	-0.089921	0.216547	0.216589
C45	C	0.412095	0.245290	0.245205
C46	C	0.459014	0.245287	0.245194
C47	C	0.459012	0.187736	0.187837
C48	C	0.412096	0.187740	0.187846
C49	C	0.388639	0.216519	0.216534
O50	O	0.337873	0.163299	0.163477
O51	O	0.337836	0.269759	0.269613
C52	C	0.125905	0.245304	0.245247
C53	C	0.102449	0.216531	0.216574
C54	C	0.125909	0.187755	0.187893
C55	C	0.055531	0.216535	0.216577
C56	C	0.032071	0.245310	0.245258
C57	C	0.055529	0.274082	0.273934
C58	C	0.102445	0.274080	0.273927
C59	C	0.102451	0.158984	0.159217
C60	C	0.055535	0.158989	0.159226
C61	C	0.032075	0.187764	0.187906
C62	C	0.649143	0.216524	0.333728
C63	C	0.649148	0.216522	0.383662
C64	C	0.766309	0.216547	0.216582
C65	C	0.816244	0.216555	0.216596
C66	C	0.649225	0.099349	0.216582
C67	C	0.649265	0.049415	0.216595
C68	C	0.677914	0.692821	0.187866
C69	C	0.677969	0.880494	0.187883
O70	O	0.702441	0.904753	0.163493
N71	N	0.649224	0.903970	0.216583
C72	C	0.620465	0.880524	0.245283
O73	O	0.596020	0.904798	0.269698
C74	C	0.620412	0.692852	0.245268
C75	C	0.649156	0.669379	0.216563
C76	C	0.706656	0.669348	0.159164
C77	C	0.706640	0.622433	0.159158
C78	C	0.677882	0.598990	0.187854
C79	C	0.649140	0.622463	0.216557
C80	C	0.591656	0.669407	0.273969
C81	C	0.591646	0.622486	0.273964
C82	C	0.620390	0.599013	0.245259
C83	C	0.620367	0.552106	0.245248
N84	N	0.649112	0.528630	0.216548
C85	C	0.677869	0.552072	0.187851
C86	C	0.620494	0.979055	0.245289
C87	C	0.620507	1.025973	0.245292
C88	C	0.678012	1.025939	0.187893
C89	C	0.677996	0.979021	0.187887
C90	C	0.649239	0.955579	0.216589
C91	C	0.677834	0.453547	0.187841
C92	C	0.677814	0.406627	0.187836
C93	C	0.620311	0.406664	0.245237
C94	C	0.620329	0.453580	0.245240
C95	C	0.649094	0.477020	0.216540
O96	O	0.595912	0.527818	0.269629
O97	O	0.702318	0.527791	0.163447
C98	C	0.677930	0.739737	0.187872
C99	C	0.649188	0.763210	0.216574
C100	C	0.620430	0.739767	0.245271
C101	C	0.649200	0.810128	0.216578
C102	C	0.677958	0.833570	0.187881
C103	C	0.706703	0.810094	0.159181
C104	C	0.706687	0.763179	0.159175
C105	C	0.591685	0.763243	0.273971
C106	C	0.591703	0.810158	0.273974
C107	C	0.620461	0.833601	0.245277
C108	C	0.649145	0.216499	0.099827
C109	C	0.649227	0.216374	0.049893
C110	C	0.677935	0.187718	0.693325
C111	C	0.677957	0.187680	0.880998
O112	O	0.702399	0.163232	0.905279
N113	N	0.649208	0.216402	0.904448
C114	C	0.620449	0.245133	0.880976
O115	O	0.595993	0.269559	0.905228
C116	C	0.620424	0.245169	0.693304
C117	C	0.649179	0.216448	0.669857
C118	C	0.706687	0.158999	0.669877
C119	C	0.706683	0.159011	0.622962
C120	C	0.677927	0.187741	0.599494
C121	C	0.649175	0.216460	0.622941
C122	C	0.591663	0.273898	0.669833
C123	C	0.591659	0.273903	0.622912
C124	C	0.620414	0.245183	0.599465
C125	C	0.620415	0.245202	0.552558
N126	N	0.649164	0.216480	0.529108
C127	C	0.677920	0.187749	0.552576
C128	C	0.620464	0.245113	0.979507
C129	C	0.620471	0.245105	1.026425
C130	C	0.677979	0.187650	1.026443
C131	C	0.677974	0.187661	0.979524
C132	C	0.649214	0.216391	0.956057
C133	C	0.677910	0.187776	0.454050
C134	C	0.677904	0.187792	0.407130
C135	C	0.620395	0.245244	0.407116
C136	C	0.620401	0.245230	0.454032
C137	C	0.649161	0.216493	0.477497
O138	O	0.595982	0.269633	0.528248
O139	O	0.702366	0.163320	0.528316
C140	C	0.677939	0.187706	0.740240
C141	C	0.649187	0.216425	0.763688
C142	C	0.620431	0.245155	0.740219
C143	C	0.649194	0.216417	0.810605
C144	C	0.677950	0.187686	0.834074
C145	C	0.706699	0.158964	0.810624
C146	C	0.706695	0.158976	0.763708
C147	C	0.591682	0.273877	0.763669
C148	C	0.591689	0.273864	0.810585
C149	C	0.620445	0.245133	0.834053
H150	H	0.393001	0.268723	0.268566
N151	N	0.707383	1.049889	0.158574
N152	N	0.691605	1.076096	0.129932
H153	H	0.712348	1.093013	0.109228
N154	N	0.590932	0.382722	0.274550
N155	N	0.549480	0.388000	0.271530
H156	H	0.528732	0.371090	0.292235
H157	H	0.730097	0.135623	0.603875
N158	N	0.736078	0.129615	0.834593
N159	N	0.777531	0.132599	0.829369
H160	H	0.798277	0.111871	0.846298
N161	N	0.482971	0.158340	0.158539
N162	N	0.477712	0.161249	0.117078
H163	H	0.494634	0.140485	0.096388
H164	H	0.701402	0.959912	0.164514
H165	H	0.262305	0.135529	0.135852
N166	N	-0.089427	0.158373	0.158612
N167	N	-0.110382	0.132690	0.133011
H168	H	-0.093468	0.111925	0.112316
N169	N	0.707180	0.382648	0.158518
N170	N	0.735788	0.356432	0.174349
H171	H	0.756526	0.339497	0.153644
N172	N	0.736084	0.834038	0.129867
N173	N	0.761749	0.813080	0.104241
H174	H	0.782500	0.829991	0.083540
H175	H	0.596984	0.268637	0.388000
H176	H	0.597061	0.268497	1.045512
N177	N	0.736050	0.739212	0.129849
N178	N	0.761722	0.760156	0.104231
H179	H	0.782462	0.743233	0.083518
H180	H	0.177180	0.297509	0.297271
N181	N	0.591136	1.049940	0.274609
N182	N	0.565463	1.028998	0.300227
H183	H	0.544719	1.045923	0.320935
N184	N	0.591026	0.274557	0.477992
N185	N	0.562416	0.258726	0.504161
H186	H	0.541665	0.279432	0.521083
H187	H	0.597076	0.959972	0.268661
H188	H	0.730110	0.135588	0.744622
N189	N	0.388141	0.158349	0.158548
N190	N	0.409095	0.132660	0.132942
H191	H	0.392180	0.111898	0.112252
H192	H	0.568248	0.297285	0.688916
N193	N	0.267140	0.303471	0.303201
N194	N	0.246180	0.329158	0.328805
H195	H	0.263091	0.349920	0.349498
N196	N	0.736071	0.129657	0.693845
N197	N	0.764694	0.145464	0.720025
H198	H	0.785451	0.124742	0.736950
H199	H	0.701327	0.164374	0.473150
N200	N	0.482973	0.274676	0.274493
N201	N	0.509177	0.258912	0.303147
H202	H	0.526098	0.279667	0.323840
N203	N	0.707343	0.158315	0.955583
N204	N	0.704395	0.116860	0.960834
H205	H	0.725137	0.096131	0.943928
N206	N	0.172342	0.129575	0.129909
N207	N	0.193302	0.103886	0.104308
H208	H	0.176393	0.083123	0.083616
N209	N	0.707351	0.158307	1.050427
N210	N	0.707348	0.158306	1.092317
H211	H	0.728089	0.137582	1.109258
N212	N	0.707218	0.477479	0.158522
N213	N	0.732874	0.456507	0.132897
H214	H	0.753625	0.473409	0.112188
H215	H	0.121538	0.297512	0.297278
N216	N	0.562313	0.303197	0.834539
N217	N	0.562314	0.303184	0.876430
H218	H	0.541565	0.323897	0.893347
N219	N	-0.089429	0.274725	0.274561
N220	N	-0.110387	0.300416	0.300162
H221	H	-0.093474	0.321180	0.320852
N222	N	0.562302	0.303228	0.739708
N223	N	0.536637	0.328867	0.760656
H224	H	0.515886	0.349599	0.743735
N225	N	0.591080	0.274464	0.955546
N226	N	0.565416	0.300104	0.976494
H227	H	0.544664	0.320835	0.959574
N228	N	0.562274	0.303251	0.598949
N229	N	0.536604	0.328889	0.619893
H230	H	0.515851	0.349616	0.602970
N231	N	-0.184273	0.274723	0.274566
N232	N	-0.226164	0.274720	0.274561
H233	H	-0.243099	0.295477	0.295247
N234	N	0.031554	0.303476	0.303224
N235	N	-0.010336	0.303470	0.303221
H236	H	-0.027272	0.324228	0.323906
H237	H	0.036441	0.135556	0.135871
N238	N	0.736005	0.598466	0.129834
N239	N	0.761677	0.619410	0.104217
H240	H	0.782419	0.602487	0.083506
H241	H	0.568248	0.688511	0.297342
H242	H	0.596925	0.472692	0.268615
N243	N	-0.184246	0.158390	0.158615
N244	N	-0.163289	0.132701	0.133011
H245	H	-0.180201	0.111942	0.112317
N246	N	0.126403	0.129586	0.129917
N247	N	0.105448	0.103901	0.104318
H248	H	0.122362	0.083137	0.083621
N249	N	0.562314	0.739296	0.303287
N250	N	0.578089	0.713090	0.331932
H251	H	0.557344	0.696179	0.352639
N252	N	0.736039	0.693282	0.129847
N253	N	0.761697	0.672309	0.104226
H254	H	0.782449	0.689210	0.083518
H255	H	0.568229	0.603402	0.297337
N256	N	0.562333	0.834126	0.303297
N257	N	0.536660	0.813184	0.328915
H258	H	0.515920	0.830109	0.349627
H259	H	0.701321	0.164403	0.388042
