data_functionalizedCrystal
_audit_creation_method	'MofGen! by Chris Wilmer'
_symmetry_space_group_name_H-M	'P1'
_symmetry_Int_Tables_number	1
_symmetry_cell_setting	triclinic
loop_
_symmetry_equiv_pos_as_xyz
  x,y,z
_cell_length_a	25.427154
_cell_length_b	25.426324
_cell_length_c	25.422586
_cell_angle_alpha	60.006367
_cell_angle_beta	60.012446
_cell_angle_gamma	59.992398
loop_
_atom_site_label
_atom_site_type_symbol
_atom_site_fract_x
_atom_site_fract_y
_atom_site_fract_z
O1	O	0.072968	-0.768436	0.642532
O2	O	0.572968	-0.268436	1.142532
O3	O	0.027520	-0.598284	0.517710
O4	O	0.527520	-0.098284	1.017710
O5	O	0.135268	-0.705940	0.517611
O6	O	0.635268	-0.205940	1.017611
O7	O	-0.034780	-0.660780	0.642632
O8	O	0.465220	-0.160780	1.142632
O9	O	0.171018	-0.670200	0.553260
O10	O	0.671018	-0.170200	1.053260
O11	O	0.063270	-0.562544	0.553360
O12	O	0.563270	-0.062544	1.053360
O13	O	0.108718	-0.732696	0.678182
O14	O	0.608718	-0.232696	1.178182
Zn15	Zn	0.091670	-0.641945	0.621431
Zn16	Zn	0.591670	-0.141945	1.121431
Zn17	Zn	0.044568	-0.689034	0.574461
Zn18	Zn	0.544568	-0.189034	1.074461
O19	O	0.000970	-0.625039	0.678281
O20	O	0.500970	-0.125039	1.178281
N21	N	0.123818	-0.609812	0.653490
N22	N	0.623818	-0.109812	1.153490
N23	N	0.012426	-0.721173	0.542402
N24	N	0.512426	-0.221173	1.042402
C25	C	0.168482	-0.466269	0.698103
C26	C	0.668482	0.033731	1.198103
C27	C	0.168494	-0.565177	0.698095
C28	C	0.668494	-0.065177	1.198095
C29	C	0.193243	-0.540453	0.722807
C30	C	0.693243	-0.040453	1.222807
C31	C	0.301113	-0.521853	0.665993
C32	C	0.801113	-0.021853	1.165993
C33	C	0.368545	-0.544324	0.643486
C34	C	0.868545	-0.044324	1.143486
C35	C	0.368579	-0.653434	0.685090
C36	C	0.868579	-0.153434	1.185090
C37	C	0.301149	-0.630961	0.707599
C38	C	0.801149	-0.130961	1.207599
C39	C	0.184722	-0.432539	0.631812
C40	C	0.684722	0.067461	1.131812
C41	C	0.162210	-0.365100	0.609357
C42	C	0.662210	0.134900	1.109357
C43	C	0.107225	-0.365129	0.719489
C44	C	0.607225	0.134871	1.219489
C45	C	0.129737	-0.432567	0.741943
C46	C	0.629737	0.067433	1.241943
C47	C	0.102194	-0.548896	0.714421
C48	C	0.602194	-0.048896	1.214421
C49	C	0.079702	-0.571372	0.691949
C50	C	0.579702	-0.071372	1.191949
C51	C	0.189805	-0.626409	0.636839
C52	C	0.689805	-0.126409	1.136839
C53	C	0.212300	-0.603934	0.659303
C54	C	0.712300	-0.103934	1.159303
C55	C	0.102289	-0.548918	0.830735
C56	C	0.602289	-0.048918	1.330735
C57	C	0.079866	-0.571415	0.898171
C58	C	0.579866	-0.071415	1.398171
C59	C	0.190015	-0.626466	0.898104
C60	C	0.690015	-0.126466	1.398104
C61	C	0.212437	-0.603971	0.830666
C62	C	0.712437	-0.103971	1.330666
C63	C	0.168573	-0.565195	0.796984
C64	C	0.668573	-0.065195	1.296984
C65	C	0.267418	-0.565170	0.698047
C66	C	0.767418	-0.065170	1.198047
C67	C	-0.130981	-0.765617	0.497386
C68	C	0.369019	-0.265617	0.997386
C69	C	-0.032127	-0.765741	0.497606
C70	C	0.467873	-0.265741	0.997606
C71	C	-0.056804	-0.790430	0.472789
C72	C	0.443196	-0.290430	0.972789
C73	C	-0.075480	-0.898263	0.529507
C74	C	0.424520	-0.398263	1.029507
C75	C	-0.053057	-0.965702	0.552014
C76	C	0.446943	-0.465702	1.052014
C77	C	0.056052	-0.965829	0.510599
C78	C	0.556052	-0.465829	1.010599
C79	C	0.033627	-0.898392	0.488091
C80	C	0.533627	-0.398392	0.988091
C81	C	-0.164787	-0.781859	0.563659
C82	C	0.335213	-0.281859	1.063659
C83	C	-0.232219	-0.759299	0.586018
C84	C	0.267781	-0.259299	1.086018
C85	C	-0.232034	-0.704261	0.475827
C86	C	0.267966	-0.204261	0.975827
C87	C	-0.164602	-0.726821	0.453469
C88	C	0.335398	-0.226821	0.953469
C89	C	-0.048372	-0.699446	0.481299
C90	C	0.451628	-0.199446	0.981299
C91	C	-0.025938	-0.677008	0.503867
C92	C	0.474062	-0.177008	1.003867
C93	C	0.028987	-0.787155	0.559036
C94	C	0.528987	-0.287155	1.059036
C95	C	0.006552	-0.809596	0.536475
C96	C	0.506552	-0.309596	1.036475
C97	C	-0.048188	-0.699454	0.364860
C98	C	0.451812	-0.199454	0.864860
C99	C	-0.025608	-0.677017	0.297425
C100	C	0.474392	-0.177017	0.797425
C101	C	0.029406	-0.787170	0.297492
C102	C	0.529406	-0.287170	0.797492
C103	C	0.006827	-0.809605	0.364929
C104	C	0.506827	-0.309605	0.864929
C105	C	-0.031972	-0.765745	0.398611
C106	C	0.468028	-0.265745	0.898611
C107	C	-0.032140	-0.864611	0.497548
C108	C	0.467860	-0.364611	0.997548
N109	N	0.401319	-0.609788	0.653344
N110	N	0.901319	-0.109788	1.153344
O111	O	0.621664	-0.620517	0.494685
O112	O	1.121664	-0.120517	0.994685
O113	O	0.621901	-0.745740	0.664659
O114	O	1.121901	-0.245740	1.164659
O115	O	0.621803	-0.745452	0.556857
O116	O	1.121803	-0.245452	1.056857
O117	O	0.621762	-0.620805	0.602487
O118	O	1.121762	-0.120805	1.102487
O119	O	0.514676	-0.709815	0.592658
O120	O	1.014676	-0.209815	1.092658
O121	O	0.514774	-0.710104	0.700460
O122	O	1.014774	-0.210104	1.200460
O123	O	0.514537	-0.584881	0.530485
O124	O	1.014537	-0.084881	1.030485
Zn125	Zn	0.497647	-0.641834	0.621157
Zn126	Zn	0.997647	-0.141834	1.121157
Zn127	Zn	0.638791	-0.688787	0.573988
Zn128	Zn	1.138791	-0.188787	1.073988
O129	O	0.514635	-0.585169	0.638287
O130	O	1.014635	-0.085169	1.138287
N131	N	0.735119	-0.720834	0.541794
N132	N	1.235119	-0.220834	1.041794
N133	N	0.123794	-0.332357	0.653504
N134	N	0.623794	0.167643	1.153504
O135	O	-0.034774	-0.111885	0.642639
O136	O	0.465226	0.388115	1.142639
O137	O	0.135202	-0.111860	0.517412
O138	O	0.635202	0.388140	1.017412
O139	O	0.027364	-0.111888	0.517742
O140	O	0.527364	0.388112	1.017742
O141	O	0.073064	-0.111857	0.642310
O142	O	0.573064	0.388143	1.142310
O143	O	0.063120	-0.219026	0.553444
O144	O	0.563120	0.280974	1.053444
O145	O	0.170958	-0.218998	0.553115
O146	O	0.670958	0.281002	1.053115
O147	O	0.000983	-0.219022	0.678342
O148	O	0.500983	0.280978	1.178342
Zn149	Zn	0.091647	-0.236020	0.621397
Zn150	Zn	0.591647	0.263980	1.121397
Zn151	Zn	0.044537	-0.094862	0.574357
Zn152	Zn	0.544537	0.405138	1.074357
O153	O	0.108821	-0.218994	0.678013
O154	O	0.608821	0.281006	1.178013
N155	N	0.012383	0.001474	0.542251
N156	N	0.512383	0.501474	1.042251
N157	N	0.124036	-0.609854	0.930891
N158	N	0.624036	-0.109854	1.430891
O159	O	0.113202	-0.768401	1.151342
O160	O	0.613202	-0.268401	1.651342
O161	O	-0.011992	-0.598359	1.151385
O162	O	0.488008	-0.098359	1.651385
O163	O	-0.011700	-0.706176	1.151343
O164	O	0.488300	-0.206176	1.651343
O165	O	0.112910	-0.660584	1.151384
O166	O	0.612910	-0.160584	1.651384
O167	O	0.023980	-0.670446	1.044212
O168	O	0.523980	-0.170446	1.544212
O169	O	0.023689	-0.562630	1.044253
O170	O	0.523689	-0.062630	1.544253
O171	O	0.148882	-0.732671	1.044211
O172	O	0.648882	-0.232671	1.544211
Zn173	Zn	0.091951	-0.641977	1.027223
Zn174	Zn	0.591951	-0.141977	1.527223
Zn175	Zn	0.044940	-0.689053	1.168373
Zn176	Zn	0.544940	-0.189053	1.668373
O177	O	0.148590	-0.624854	1.044252
O178	O	0.648590	-0.124854	1.544252
N179	N	0.012853	-0.721183	1.264704
N180	N	0.512853	-0.221183	1.764704
C181	C	0.041135	-0.558973	0.518338
C182	C	0.541135	-0.058973	1.018338
C183	C	0.174567	-0.692292	0.518215
C184	C	0.674567	-0.192292	1.018215
C185	C	0.095103	-0.772007	0.677553
C186	C	0.595103	-0.272007	1.177553
C187	C	-0.038330	-0.638687	0.677677
C188	C	0.461670	-0.138687	1.177677
C189	C	0.568366	-0.745166	0.703974
C190	C	1.068366	-0.245166	1.203974
C191	C	0.568246	-0.744810	0.570474
C192	C	1.068246	-0.244810	1.070474
C193	C	0.568069	-0.585454	0.491172
C194	C	1.068069	-0.085454	0.991172
C195	C	0.568192	-0.585812	0.624671
C196	C	1.068192	-0.085812	1.124671
C197	C	0.174449	-0.165294	0.517975
C198	C	0.674449	0.334706	1.017975
C199	C	0.040949	-0.165460	0.518427
C200	C	0.540949	0.334540	1.018427
C201	C	-0.038309	-0.165456	0.677735
C202	C	0.461691	0.334544	1.177735
C203	C	0.095236	-0.165423	0.677328
C204	C	0.595236	0.334577	1.177328
C205	C	-0.011393	-0.559072	1.097824
C206	C	0.488607	-0.059072	1.597824
C207	C	-0.011024	-0.692583	1.097752
C208	C	0.488976	-0.192583	1.597752
C209	C	0.148283	-0.771958	1.097772
C210	C	0.648283	-0.271958	1.597772
C211	C	0.147922	-0.638440	1.097820
C212	C	0.647922	-0.138440	1.597820
H213	H	0.025889	-0.558152	0.925643
H214	H	0.525889	-0.058152	1.425643
O215	O	0.568179	-0.791548	0.558934
O216	O	1.068179	-0.291548	1.058934
C217	C	0.512734	-0.808914	0.603110
C218	C	1.012734	-0.308914	1.103110
H219	H	0.494268	-0.796089	0.647763
H220	H	0.994268	-0.296089	1.147763
H221	H	0.525260	-0.862957	0.617495
H222	H	1.025260	-0.362957	1.117495
H223	H	0.473841	-0.781740	0.579797
H224	H	0.973841	-0.281740	1.079797
O225	O	0.568067	-0.538527	0.432935
O226	O	1.068067	-0.038527	0.932935
C227	C	0.623523	-0.521198	0.404381
C228	C	1.123523	-0.021198	0.904381
H229	H	0.642070	-0.534245	0.443418
H230	H	1.142070	-0.034245	0.943418
H231	H	0.610981	-0.467122	0.377432
H232	H	1.110981	0.032878	0.877432
H233	H	0.662361	-0.548213	0.369203
H234	H	1.162361	-0.048213	0.869203
H235	H	0.175430	-0.337636	0.555374
H236	H	0.675430	0.162364	1.055374
O237	O	0.029439	-0.500639	0.471626
O238	O	0.529439	-0.000639	0.971626
C239	C	-0.033859	-0.460678	0.495008
C240	C	0.466141	0.039322	0.995008
H241	H	-0.064378	-0.491764	0.536378
H242	H	0.435622	0.008236	1.036378
H243	H	-0.055499	-0.429796	0.454630
H244	H	0.444501	0.070204	0.954630
H245	H	-0.032885	-0.428163	0.512921
H246	H	0.467115	0.071837	1.012921
H247	H	0.187070	-0.628684	1.097824
H248	H	0.687070	-0.128684	1.597824
H249	H	-0.087123	-0.165464	0.717049
H250	H	0.412877	0.334536	1.217049
H251	H	-0.050697	-0.510236	1.097837
H252	H	0.449303	-0.010236	1.597837
H253	H	0.223406	-0.701920	0.478955
H254	H	0.723406	-0.201920	0.978955
H255	H	-0.087172	-0.629063	0.716934
H256	H	0.412828	-0.129063	1.216934
H257	H	0.273654	-0.468282	0.658214
H258	H	0.773654	0.031718	1.158214
H259	H	0.105023	-0.165413	0.716462
H260	H	0.605023	0.334587	1.216462
O261	O	0.106778	-0.830362	0.724245
O262	O	0.606778	-0.330362	1.224245
C263	C	0.170087	-0.870311	0.700874
C264	C	0.670087	-0.370311	1.200874
H265	H	0.187070	-0.852755	0.646007
H266	H	0.687070	-0.352755	1.146007
H267	H	0.170966	-0.921946	0.720549
H268	H	0.670966	-0.421946	1.220549
H269	H	0.203416	-0.868537	0.717169
H270	H	0.703416	-0.368537	1.217169
H271	H	0.266286	-0.617183	0.646003
H272	H	0.766286	-0.117183	1.146003
O273	O	0.195198	-0.830220	1.097842
O274	O	0.695198	-0.330220	1.597842
C275	C	0.212493	-0.858750	1.153337
C276	C	0.712493	-0.358750	1.653337
H277	H	0.199438	-0.819691	1.171854
H278	H	0.699438	-0.319691	1.671854
H279	H	0.266561	-0.885730	1.140855
H280	H	0.766561	-0.385730	1.640855
H281	H	0.185465	-0.893899	1.192177
H282	H	0.685465	-0.393899	1.692177
O283	O	0.568147	-0.539157	0.636430
O284	O	1.068147	-0.039157	1.136430
C285	C	0.568239	-0.562632	0.699730
C286	C	1.068239	-0.062632	1.199730
H287	H	0.548010	-0.604007	0.730210
H288	H	1.048010	-0.104007	1.230210
H289	H	0.537131	-0.522301	0.721427
H290	H	1.037131	-0.022301	1.221427
H291	H	0.619650	-0.580571	0.698738
H292	H	1.119650	-0.080571	1.198738
O293	O	0.568472	-0.792007	0.762237
O294	O	1.068472	-0.292007	1.262237
C295	C	0.568473	-0.768807	0.802329
C296	C	1.068473	-0.268807	1.302329
H297	H	0.588704	-0.727432	0.771357
H298	H	1.088704	-0.227432	1.271357
H299	H	0.599628	-0.809279	0.833157
H300	H	1.099628	-0.309279	1.333157
H301	H	0.517091	-0.750952	0.834892
H302	H	1.017091	-0.250952	1.334892
O303	O	0.232588	-0.164899	0.471014
O304	O	0.732588	0.335101	0.971014
C305	C	0.272661	-0.164779	0.494145
C306	C	0.772661	0.335221	0.994145
H307	H	0.241683	-0.144708	0.535647
H308	H	0.741683	0.355292	1.035647
H309	H	0.303264	-0.133422	0.453694
H310	H	0.803264	0.366578	0.953694
H311	H	0.305440	-0.216108	0.511799
H312	H	0.805440	0.283892	1.011799
H313	H	0.066565	-0.517338	0.803314
H314	H	0.566565	-0.017338	1.303314
H315	H	-0.050155	-0.702322	1.097697
H316	H	0.449845	-0.202322	1.597697
H317	H	0.273715	-0.666239	0.733700
H318	H	0.773715	-0.166239	1.233700
H319	H	0.225736	-0.658027	0.925521
H320	H	0.725736	-0.158027	1.425521
H321	H	0.266414	-0.617231	0.803190
H322	H	0.766414	-0.117231	1.303190
O323	O	0.029298	-0.165598	0.471794
O324	O	0.529298	0.334402	0.971794
C325	C	0.014144	-0.221092	0.494012
C326	C	0.514144	0.278908	0.994012
H327	H	0.034953	-0.259856	0.534009
H328	H	0.534953	0.240144	1.034009
H329	H	0.035628	-0.239736	0.452541
H330	H	0.535628	0.260264	0.952541
H331	H	-0.040404	-0.208559	0.513449
H332	H	0.459596	0.291441	1.013449
O333	O	0.059615	-0.511155	0.752002
O334	O	0.559615	-0.011155	1.252002
C335	C	0.020580	-0.454600	0.717986
C336	C	0.520580	0.045400	1.217986
H337	H	0.046583	-0.445210	0.664031
H338	H	0.546583	0.054790	1.164031
H339	H	0.010386	-0.412126	0.730059
H340	H	0.510386	0.087874	1.230059
H341	H	-0.026794	-0.460732	0.732362
H342	H	0.473206	0.039268	1.232362
O343	O	0.015314	-0.555676	0.707830
O344	O	0.515314	-0.055676	1.207830
C345	C	-0.000947	-0.612347	0.741783
C346	C	0.499053	-0.112347	1.241783
H347	H	0.043500	-0.654710	0.729591
H348	H	0.543500	-0.154710	1.229591
H349	H	-0.040069	-0.606319	0.727455
H350	H	0.459931	-0.106319	1.227455
H351	H	-0.019419	-0.621837	0.795756
H352	H	0.480581	-0.121837	1.295756
O353	O	0.232446	-0.664030	0.599146
O354	O	0.732446	-0.164030	1.099146
C355	C	0.295785	-0.673593	0.589576
C356	C	0.795785	-0.173593	1.089576
H357	H	0.295665	-0.632939	0.597115
H358	H	0.795665	-0.132939	1.097115
H359	H	0.327770	-0.673935	0.538424
H360	H	0.827770	-0.173935	1.038424
H361	H	0.315140	-0.721638	0.625450
H362	H	0.815140	-0.221638	1.125450
H363	H	0.396045	-0.707006	0.692856
H364	H	0.896045	-0.207006	1.192856
H365	H	0.216267	-0.459978	0.596113
H366	H	0.716267	0.040022	1.096113
O367	O	0.401247	-0.502205	0.612251
O368	O	0.901247	-0.002205	1.112251
C369	C	0.384709	-0.456416	0.556679
C370	C	0.884709	0.043584	1.056679
H371	H	0.366158	-0.477196	0.541194
H372	H	0.866158	0.022804	1.041194
H373	H	0.429034	-0.444064	0.516186
H374	H	0.929034	0.055936	1.016186
H375	H	0.345564	-0.410960	0.567719
H376	H	0.845564	0.089040	1.067719
O377	O	0.069666	-0.332452	0.762131
O378	O	0.569666	0.167548	1.262131
C379	C	0.103762	-0.348910	0.801076
C380	C	0.603762	0.151090	1.301076
H381	H	0.143029	-0.397869	0.801720
H382	H	0.643029	0.102131	1.301720
H383	H	0.069194	-0.351225	0.852225
H384	H	0.569194	0.148775	1.352225
H385	H	0.126631	-0.310945	0.780776
H386	H	0.626631	0.189055	1.280776
O387	O	-0.041456	-0.612595	0.264745
O388	O	0.458544	-0.112595	0.764745
C389	C	-0.080530	-0.578701	0.308939
C390	C	0.419470	-0.078701	0.808939
H391	H	-0.105106	-0.610825	0.356981
H392	H	0.394894	-0.110825	0.856981
H393	H	-0.118632	-0.533672	0.289378
H394	H	0.381368	-0.033672	0.789378
H395	H	-0.049450	-0.564197	0.316192
H396	H	0.450550	-0.064197	0.816192
O397	O	0.114077	-0.465409	0.806328
O398	O	0.614077	0.034591	1.306328
C399	C	0.170761	-0.504401	0.822595
C400	C	0.670761	-0.004401	1.322595
H401	H	0.213110	-0.514487	0.778141
H402	H	0.713110	-0.014487	1.278141
H403	H	0.164764	-0.551832	0.861694
H404	H	0.664764	-0.051832	1.361694
H405	H	0.180244	-0.478416	0.841103
H406	H	0.680244	0.021584	1.341103
H407	H	-0.079784	-0.663733	0.392281
H408	H	0.420216	-0.163733	0.892281
H409	H	0.020039	-0.863588	0.392405
H410	H	0.520039	-0.363588	0.892405
O411	O	0.067101	-0.829863	0.264878
O412	O	0.567101	-0.329863	0.764878
C413	C	0.076553	-0.893184	0.309131
C414	C	0.576553	-0.393184	0.809131
H415	H	0.068948	-0.893050	0.357226
H416	H	0.568948	-0.393050	0.857226
H417	H	0.127694	-0.925258	0.289730
H418	H	0.627694	-0.425258	0.789730
H419	H	0.040661	-0.912448	0.316222
H420	H	0.540661	-0.412448	0.816222
H421	H	-0.079862	-0.663733	0.449648
H422	H	0.420138	-0.163733	0.949648
H423	H	-0.039168	-0.623025	0.490592
H424	H	0.460832	-0.123025	0.990592
H425	H	0.019779	-0.863579	0.549754
H426	H	0.519779	-0.363579	1.049754
O427	O	0.066532	-0.829845	0.596804
O428	O	0.566532	-0.329845	1.096804
C429	C	0.076072	-0.893168	0.606337
C430	C	0.576072	-0.393168	1.106337
H431	H	0.035450	-0.892996	0.598703
H432	H	0.535450	-0.392996	1.098703
H433	H	0.076340	-0.925174	0.657510
H434	H	0.576340	-0.425174	1.157510
H435	H	0.124140	-0.912540	0.570507
H436	H	0.624140	-0.412540	1.070507
H437	H	0.068924	-0.870994	0.462067
H438	H	0.568924	-0.370994	0.962067
H439	H	0.109606	-0.993335	0.502902
H440	H	0.609606	-0.493335	1.002902
H441	H	-0.088349	-0.993100	0.578027
H442	H	0.411651	-0.493100	1.078027
H443	H	-0.137414	-0.813456	0.599420
H444	H	0.362586	-0.313456	1.099420
O445	O	-0.139353	-0.865472	0.538589
O446	O	0.360647	-0.365472	1.038589
C447	C	-0.159880	-0.881938	0.508227
C448	C	0.340120	-0.381938	1.008227
H449	H	-0.116774	-0.900536	0.468442
H450	H	0.383226	-0.400536	0.968442
H451	H	-0.196952	-0.837561	0.486529
H452	H	0.303048	-0.337561	0.986529
H453	H	-0.182514	-0.921031	0.545157
H454	H	0.317486	-0.421031	1.045157
O455	O	-0.264962	-0.775163	0.650420
O456	O	0.235038	-0.275163	1.150420
C457	C	-0.220828	-0.814233	0.684388
C458	C	0.279172	-0.314233	1.184388
H459	H	-0.172733	-0.838793	0.652286
H460	H	0.327267	-0.338793	1.152286
H461	H	-0.240378	-0.852353	0.729361
H462	H	0.259622	-0.352353	1.229361
H463	H	-0.213683	-0.783147	0.698984
H464	H	0.286317	-0.283147	1.198984
H465	H	-0.137077	-0.713589	0.399501
H466	H	0.362923	-0.213589	0.899501
O467	O	-0.264598	-0.666566	0.433081
O468	O	0.235402	-0.166566	0.933081
C469	C	-0.220300	-0.657093	0.369789
C470	C	0.279700	-0.157093	0.869789
H471	H	-0.172254	-0.664683	0.370005
H472	H	0.327746	-0.164683	0.870005
H473	H	-0.239713	-0.605947	0.337725
H474	H	0.260287	-0.105947	0.837725
H475	H	-0.213113	-0.692987	0.350459
H476	H	0.286887	-0.192987	0.850459
