data_functionalizedCrystal
_audit_creation_method	'MofGen! by Chris Wilmer'
_symmetry_space_group_name_H-M	'P1'
_symmetry_Int_Tables_number	1
_symmetry_cell_setting	triclinic
loop_
_symmetry_equiv_pos_as_xyz
  x,y,z
_cell_length_a	9.065218
_cell_length_b	12.996460
_cell_length_c	9.065215
_cell_angle_alpha	89.999293
_cell_angle_beta	85.015291
_cell_angle_gamma	90.006338
loop_
_atom_site_label
_atom_site_type_symbol
_atom_site_fract_x
_atom_site_fract_y
_atom_site_fract_z
O1	O	1.960404	0.085567	0.216347
O2	O	2.293737	0.418901	0.549680
O3	O	2.627071	0.752234	0.883014
O4	O	1.531119	0.085568	0.234094
O5	O	1.864452	0.418902	0.567427
O6	O	2.197786	0.752235	0.900760
O7	O	1.754637	0.085563	0.010578
O8	O	2.087970	0.418897	0.343911
O9	O	2.421304	0.752230	0.677244
O10	O	1.736886	0.085572	0.439863
O11	O	2.070219	0.418906	0.773196
O12	O	2.403553	0.752239	1.106530
O13	O	1.754608	-0.085570	0.010590
O14	O	2.087941	0.247763	0.343924
O15	O	2.421275	0.581096	0.677257
O16	O	1.531090	-0.085565	0.234106
O17	O	1.864423	0.247768	0.567440
O18	O	2.197757	0.581101	0.900773
O19	O	1.960375	-0.085567	0.216360
O20	O	2.293708	0.247767	0.549693
O21	O	2.627042	0.581100	0.883027
Cu22	Cu	1.745730	-0.101192	0.225234
Cu23	Cu	2.079063	0.232142	0.558568
Cu24	Cu	2.412396	0.565475	0.891901
Cu25	Cu	1.745764	0.101194	0.225219
Cu26	Cu	2.079097	0.434527	0.558553
Cu27	Cu	2.412431	0.767860	0.891886
O28	O	1.736857	-0.085562	0.439876
O29	O	2.070190	0.247772	0.773209
O30	O	2.403524	0.581105	1.106542
C31	C	1.476118	0.000002	0.232394
C32	C	1.809451	0.333335	0.565728
C33	C	2.142785	0.666668	0.899061
C34	C	1.312275	0.000002	0.227295
C35	C	1.645608	0.333336	0.560628
C36	C	1.978942	0.666669	0.893961
N37	N	1.745716	-0.243539	0.225244
N38	N	2.079050	0.089794	0.558577
N39	N	2.412383	0.423128	0.891911
C40	C	1.745723	-0.336645	0.225248
C41	C	2.079057	-0.003312	0.558581
C42	C	2.412390	0.330022	0.891914
C43	C	1.745737	-0.453450	0.225238
C44	C	2.079070	-0.120117	0.558572
C45	C	2.412403	0.213217	0.891905
C46	C	1.745755	-0.546548	0.225222
C47	C	2.079088	-0.213215	0.558555
C48	C	2.412422	0.120118	0.891889
C49	C	1.745771	-0.663361	0.225214
C50	C	2.079104	-0.330028	0.558547
C51	C	2.412437	0.003306	0.891881
C52	C	2.015376	0.000002	0.218059
C53	C	2.348709	0.333336	0.551392
C54	C	2.682043	0.666669	0.884726
C55	C	2.179219	0.000009	0.223159
C56	C	2.512552	0.333342	0.556492
C57	C	2.845886	0.666675	0.889825
C58	C	1.752917	-0.000002	-0.044403
C59	C	2.086251	0.333331	0.288931
C60	C	2.419584	0.666664	0.622264
C61	C	1.747819	0.000001	-0.208246
C62	C	2.081153	0.333334	0.125088
C63	C	2.414486	0.666667	0.458421
N64	N	1.745789	0.243541	0.225198
N65	N	2.079122	0.576874	0.558531
N66	N	2.412456	0.910207	0.891864
C67	C	1.738576	0.000007	0.494856
C68	C	2.071910	0.333340	0.828189
C69	C	2.405243	0.666673	1.161523
C70	C	1.743674	0.000010	0.658699
C71	C	2.077008	0.333343	0.992033
C72	C	2.410341	0.666677	1.325366
