data_functionalizedCrystal
_audit_creation_method	'MofGen! by Chris Wilmer'
_symmetry_space_group_name_H-M	'P1'
_symmetry_Int_Tables_number	1
_symmetry_cell_setting	triclinic
loop_
_symmetry_equiv_pos_as_xyz
  x,y,z
_cell_length_a	12.827892
_cell_length_b	12.759401
_cell_length_c	12.827885
_cell_angle_alpha	89.980361
_cell_angle_beta	89.970214
_cell_angle_gamma	90.016917
loop_
_atom_site_label
_atom_site_type_symbol
_atom_site_fract_x
_atom_site_fract_y
_atom_site_fract_z
Zn1	Zn	-0.415940	1.606248	-0.590854
Zn2	Zn	-0.590717	1.606141	-0.416114
Zn3	Zn	-0.415996	1.430551	-0.416127
Zn4	Zn	-0.590644	1.430536	-0.590813
O5	O	-0.503324	1.518369	-0.503477
O6	O	-0.439132	1.753255	-0.567686
O7	O	-0.567594	1.582810	-0.269880
O8	O	-0.269752	1.453908	-0.439327
O9	O	-0.567540	1.753176	-0.439305
O10	O	-0.269711	1.582992	-0.567698
O11	O	-0.439227	1.453804	-0.269889
O12	O	-0.439156	1.283528	-0.439288
O13	O	-0.567416	1.453884	-0.737055
O14	O	-0.567469	1.283517	-0.567629
O15	O	-0.439061	1.582978	-0.737084
O16	O	-0.736944	1.582796	-0.439266
O17	O	-0.736890	1.453780	-0.567617
C18	C	-0.503311	1.245402	-0.503456
C19	C	-0.503331	1.128625	-0.503472
C20	C	-0.570246	1.073785	-0.570194
C21	C	-0.570250	0.964061	-0.570215
C22	C	-0.436422	0.964026	-0.436782
C23	C	-0.436413	1.073748	-0.436768
C24	C	-0.774834	1.518303	-0.503458
C25	C	-0.890987	1.518371	-0.503486
C26	C	-0.942764	1.582288	-0.440044
C27	C	-1.062814	1.582360	-0.440070
C28	C	-0.230754	1.518463	-0.503518
C29	C	-0.114601	1.518504	-0.503536
C30	C	-0.503224	1.518441	-0.776047
C31	C	-0.503181	1.518472	-0.892200
C32	C	-0.503338	1.792402	-0.503498
C33	C	-0.503344	1.909179	-0.503507
C34	C	-0.439648	1.454657	-0.943990
C35	C	-0.439603	1.454687	-1.064040
C36	C	-0.503349	1.518357	-0.231967
C37	C	-0.503097	1.518530	-0.115814
H38	H	-0.381917	1.118400	-0.382434
O39	O	-0.635104	0.910743	-0.635138
C40	C	-0.575698	0.847305	-0.702733
H41	H	-0.493399	0.880393	-0.709328
H42	H	-0.613594	0.846094	-0.783088
H43	H	-0.572063	0.764133	-0.670444
H44	H	-0.557541	1.573128	-0.936738
O45	O	-0.944238	1.453295	-0.568362
C46	C	-1.007249	1.513171	-0.635886
H47	H	-1.023449	1.592836	-0.599089
H48	H	-1.084073	1.470487	-0.649801
H49	H	-0.965179	1.524607	-0.713366
O50	O	-0.371521	0.910555	-0.372021
C51	C	-0.385856	0.801951	-0.386358
H52	H	-0.466548	0.786963	-0.420440
H53	H	-0.378670	0.760214	-0.308101
H54	H	-0.323944	0.770856	-0.442124
O55	O	-0.374860	1.389389	-1.117209
C56	C	-0.434388	1.321603	-1.180350
H57	H	-0.516676	1.315052	-1.147381
H58	H	-0.396593	1.240762	-1.181690
H59	H	-0.438029	1.354180	-1.263033
O60	O	-0.567885	1.583864	-1.062745
C61	C	-0.545088	1.688615	-1.089373
H62	H	-0.461620	1.693987	-1.119456
H63	H	-0.554058	1.740434	-1.017550
H64	H	-0.601150	1.716128	-1.152642
O65	O	-0.635350	1.127140	-0.634847
C66	C	-0.702756	1.190584	-0.575233
H67	H	-0.709119	1.157480	-0.492921
H68	H	-0.783221	1.191828	-0.612895
H69	H	-0.670436	1.273747	-0.571679
O70	O	-0.374829	1.389546	-0.890705
C71	C	-0.389318	1.403998	-0.782703
H72	H	-0.423567	1.485075	-0.767903
H73	H	-0.311095	1.396927	-0.741157
H74	H	-0.445004	1.341680	-0.751715
H75	H	-0.898218	1.636961	-0.385713
H76	H	-1.107341	1.637079	-0.385753
H77	H	-1.070082	1.463775	-0.557850
