data_functionalizedCrystal
_audit_creation_method	'MofGen! by Chris Wilmer'
_symmetry_space_group_name_H-M	'P1'
_symmetry_Int_Tables_number	1
_symmetry_cell_setting	triclinic
loop_
_symmetry_equiv_pos_as_xyz
  x,y,z
_cell_length_a	14.044191
_cell_length_b	14.044220
_cell_length_c	13.101039
_cell_angle_alpha	93.667477
_cell_angle_beta	86.337551
_cell_angle_gamma	93.190327
loop_
_atom_site_label
_atom_site_type_symbol
_atom_site_fract_x
_atom_site_fract_y
_atom_site_fract_z
O1	O	1.281976	0.225377	-0.085169
O2	O	1.781976	0.725377	0.414831
O3	O	1.005305	0.217064	-0.085182
O4	O	1.505305	0.717064	0.414818
O5	O	1.139487	0.082885	-0.085166
O6	O	1.639487	0.582885	0.414834
O7	O	1.147794	0.359556	-0.085186
O8	O	1.647794	0.859556	0.414814
O9	O	1.129861	0.092530	0.085263
O10	O	1.629861	0.592530	0.585263
O11	O	0.995679	0.226708	0.085247
O12	O	1.495679	0.726708	0.585247
O13	O	1.272350	0.235022	0.085259
O14	O	1.772350	0.735022	0.585259
Zn15	Zn	1.132486	0.232396	0.112312
Zn16	Zn	1.632486	0.732396	0.612312
Zn17	Zn	1.145169	0.219689	-0.112235
Zn18	Zn	1.645169	0.719689	0.387765
O19	O	1.138168	0.369200	0.085243
O20	O	1.638168	0.869200	0.585243
C21	C	0.964870	0.218250	0.000031
C22	C	1.464870	0.718250	0.500031
C23	C	0.858727	0.207402	0.000026
C24	C	1.358727	0.707402	0.500026
C25	C	0.613268	0.264503	0.000032
C26	C	1.113268	0.764503	0.500032
C27	C	0.664393	0.187587	0.000036
C28	C	1.164393	0.687587	0.500036
C29	C	0.772531	0.198615	0.000031
C30	C	1.272531	0.698615	0.500031
C31	C	0.505121	0.253476	0.000038
C32	C	1.005121	0.753476	0.500038
C33	C	1.131038	0.052086	0.000049
C34	C	1.631038	0.552086	0.500049
C35	C	1.120194	-0.054057	0.000050
C36	C	1.620194	0.445943	0.500050
C37	C	1.100368	-0.248396	0.000034
C38	C	1.600368	0.251604	0.500034
C39	C	1.177283	-0.299524	0.000034
C40	C	1.677283	0.200476	0.500034
C41	C	1.166252	-0.407661	0.000026
C42	C	1.666252	0.092339	0.500026
C43	C	1.111398	-0.140250	0.000043
C44	C	1.611398	0.359750	0.500043
C45	C	1.312785	0.233836	0.000044
C46	C	1.812785	0.733836	0.500044
C47	C	1.418929	0.244683	0.000042
C48	C	1.918929	0.744683	0.500042
C49	C	1.146617	0.400000	0.000026
C50	C	1.646617	0.900000	0.500026
C51	C	1.157462	0.506143	0.000019
C52	C	1.657462	1.006143	0.500019
N53	N	1.123838	0.241069	0.265560
N54	N	1.623838	0.741069	0.765560
N55	N	1.153824	0.211010	-0.265482
N56	N	1.653824	0.711010	0.234518
C57	C	1.112072	0.252876	0.474601
C58	C	1.612072	0.752876	0.974601
C59	C	1.165588	0.199205	0.525483
C60	C	1.665588	0.699205	1.025483
C61	C	1.159041	0.205775	0.641801
C62	C	1.659041	0.705775	1.141801
C63	C	1.118617	0.246308	0.358273
C64	C	1.618617	0.746308	0.858273
H65	H	0.650710	0.338629	0.000024
H66	H	1.150710	0.838629	0.500024
C67	C	1.209133	0.036732	0.492488
C68	C	1.709133	0.536732	0.992488
C69	C	1.234066	0.130421	0.466495
C70	C	1.734066	0.630421	0.966495
H71	H	1.251401	-0.005756	0.456101
H72	H	1.751401	0.494244	0.956101
H73	H	1.213596	0.032302	0.564050
H74	H	1.713596	0.532302	1.064050
H75	H	1.145495	0.020108	0.474925
H76	H	1.645495	0.520108	0.974925
H77	H	1.297701	0.147047	0.484065
H78	H	1.797701	0.647047	0.984065
H79	H	1.229611	0.134854	0.394918
H80	H	1.729611	0.634854	0.894918
H81	H	1.061342	0.303757	0.518392
H82	H	1.561342	0.803757	1.018392
H83	H	1.026241	-0.285836	0.000028
H84	H	1.526241	0.214164	0.500028
C85	C	0.514959	0.095808	0.000022
C86	C	1.014959	0.595808	0.500022
C87	C	0.613854	0.087507	0.000027
C88	C	1.113854	0.587507	0.500027
H89	H	0.483758	0.034024	0.000005
H90	H	0.983758	0.534024	0.500005
H91	H	0.493667	0.132856	0.059455
H92	H	0.993667	0.632856	0.559455
H93	H	0.500384	0.126160	-0.059410
H94	H	1.000384	0.626160	0.440590
H95	H	0.628430	0.057161	0.059464
H96	H	1.128430	0.557161	0.559464
H97	H	0.635154	0.050445	-0.059412
H98	H	1.135154	0.550445	0.440588
C99	C	1.269064	-0.150090	0.000067
C100	C	1.769064	0.349910	0.500067
C101	C	1.277362	-0.248986	0.000055
C102	C	1.777362	0.251014	0.500055
H103	H	1.330847	-0.118889	0.000089
H104	H	1.830847	0.381111	0.500089
H105	H	1.238733	-0.135507	-0.059366
H106	H	1.738733	0.364493	0.440634
H107	H	1.231996	-0.128804	0.059499
H108	H	1.731996	0.371196	0.559499
H109	H	1.314425	-0.270274	-0.059382
H110	H	1.814425	0.229726	0.440618
H111	H	1.307707	-0.263577	0.059494
H112	H	1.807707	0.236423	0.559494
