data_functionalizedCrystal
_audit_creation_method	'MofGen! by Chris Wilmer'
_symmetry_space_group_name_H-M	'P1'
_symmetry_Int_Tables_number	1
_symmetry_cell_setting	triclinic
loop_
_symmetry_equiv_pos_as_xyz
  x,y,z
_cell_length_a	10.489741
_cell_length_b	10.540539
_cell_length_c	9.016244
_cell_angle_alpha	90.000067
_cell_angle_beta	90.004667
_cell_angle_gamma	84.532333
loop_
_atom_site_label
_atom_site_type_symbol
_atom_site_fract_x
_atom_site_fract_y
_atom_site_fract_z
O1	O	-1.694038	-0.179097	-0.123241
O2	O	-1.322840	-0.195909	-0.123263
O3	O	-1.516908	-0.002798	-0.123250
O4	O	-1.499970	-0.372209	-0.123254
O5	O	-1.516879	-0.002802	0.123431
O6	O	-1.322812	-0.195913	0.123417
O7	O	-1.694009	-0.179102	0.123440
Cu8	Cu	-1.508408	-0.187508	0.145953
Cu9	Cu	-1.508442	-0.187503	-0.145776
O10	O	-1.499942	-0.372213	0.123426
C11	C	-1.275294	-0.194641	0.000074
C12	C	-1.133665	-0.190843	0.000065
C13	C	-1.741555	-0.180369	0.000099
C14	C	-1.883184	-0.184168	0.000098
C15	C	-1.515623	0.044503	0.000088
C16	C	-1.511823	0.185452	0.000080
C17	C	-1.065540	-0.067971	0.000081
C18	C	-0.973420	-0.126012	-0.121543
C19	C	-0.973426	-0.126046	0.121665
C20	C	-1.043411	-0.248934	-0.121659
C21	C	-1.043426	-0.248951	0.121658
C22	C	-0.951334	-0.307081	0.000004
C23	C	-1.501226	-0.419514	0.000085
C24	C	-1.505026	-0.560463	0.000084
N25	N	-1.508393	-0.187511	0.351139
C26	C	-1.366206	0.368896	-0.000483
C27	C	-1.370058	0.222277	0.000073
C28	C	-1.580030	0.247099	0.140951
C29	C	-1.575192	0.393644	0.141069
C30	C	-1.578108	0.394167	-0.139453
C31	C	-1.579414	0.247185	-0.141315
N32	N	-1.508466	-0.187490	-0.350962
C33	C	-1.404261	-0.290466	0.586164
C34	C	-1.404492	-0.290852	0.414273
C35	C	-1.641758	-0.217660	0.413485
C36	C	-1.641189	-0.218389	0.585430
C37	C	-1.480485	-0.054069	0.585682
C38	C	-1.477425	-0.054933	0.413728
H39	H	-1.115242	0.033036	-0.000070
Br40	Br	-1.095146	-0.335539	0.293049
Br41	Br	-1.748774	0.472858	-0.141025
Br42	Br	-0.921762	-0.039365	-0.292931
H43	H	-1.074245	-0.300881	-0.224599
H44	H	-0.901898	-0.408195	-0.000063
H45	H	-0.942443	-0.074036	0.224489
Br46	Br	-1.433861	-0.454524	0.658120
Br47	Br	-1.239306	-0.260700	0.344012
H48	H	-1.379316	-0.032081	0.372980
Br49	Br	-1.280605	0.151275	-0.168238
Br50	Br	-1.272878	0.416571	-0.168863
H51	H	-1.524760	0.421848	0.246367
Br52	Br	-1.272954	0.419858	0.166426
H53	H	-1.315988	0.180526	0.101217
Br54	Br	-1.745116	0.473582	0.151750
H55	H	-1.684138	0.224732	0.146194
H56	H	-1.532626	0.204503	0.245776
H57	H	-1.532238	0.425727	-0.246224
H58	H	-1.422478	-0.389838	0.373126
Br59	Br	-1.238568	-0.260672	0.655101
Br60	Br	-1.681978	-0.380628	0.652257
H61	H	-1.721216	-0.146409	0.627018
H62	H	-1.721195	-0.144706	0.372586
H63	H	-1.666776	-0.313901	0.370407
H64	H	-1.529507	0.206334	-0.245528
Br65	Br	-1.751685	0.206787	-0.155499
Br66	Br	-1.321794	-0.006273	0.658035
H67	H	-1.548293	0.025379	0.370757
Br68	Br	-1.607117	0.073679	0.653443
