data_functionalizedCrystal
_audit_creation_method	'MofGen! by Chris Wilmer'
_symmetry_space_group_name_H-M	'P1'
_symmetry_Int_Tables_number	1
_symmetry_cell_setting	triclinic
loop_
_symmetry_equiv_pos_as_xyz
  x,y,z
_cell_length_a	13.635800
_cell_length_b	23.752966
_cell_length_c	17.982968
_cell_angle_alpha	83.438366
_cell_angle_beta	77.548040
_cell_angle_gamma	100.066535
loop_
_atom_site_label
_atom_site_type_symbol
_atom_site_fract_x
_atom_site_fract_y
_atom_site_fract_z
V1	V	-1.999087	-0.079697	0.237979
O2	O	-2.001759	0.003278	0.233009
O3	O	-1.966631	-0.157495	0.236775
O4	O	-1.972445	-0.078713	0.341577
O5	O	-1.995904	-0.076049	0.127481
V6	V	-2.242287	-0.069743	0.224711
O7	O	-2.126560	-0.101530	0.267083
O8	O	-2.339913	-0.047910	0.195607
O9	O	-2.163140	0.008055	0.225916
O10	O	-2.298314	-0.152719	0.229681
O11	O	-2.304169	-0.073391	0.335209
O12	O	-2.157326	-0.070727	0.121113
V13	V	-1.499087	-0.079697	0.237979
O14	O	-1.501759	0.003278	0.233009
O15	O	-1.466631	-0.157495	0.236775
O16	O	-1.472445	-0.078713	0.341577
O17	O	-1.495904	-0.076049	0.127481
V18	V	-1.742287	-0.069743	0.224711
O19	O	-1.626560	-0.101530	0.267083
O20	O	-1.839913	-0.047910	0.195607
O21	O	-1.663140	0.008055	0.225916
O22	O	-1.798314	-0.152719	0.229681
O23	O	-1.804169	-0.073391	0.335209
O24	O	-1.657326	-0.070727	0.121113
C25	C	-1.887202	-0.176453	0.233130
C26	C	-1.901292	-0.240056	0.232836
C27	C	-2.079450	-0.637394	0.234912
C28	C	-2.092706	-0.697157	0.234647
O29	O	-2.176663	-0.730555	0.237783
N30	N	-2.008681	-0.724124	0.230693
C31	C	-1.911394	-0.691325	0.227011
O32	O	-1.841142	-0.719751	0.223623
C33	C	-1.898141	-0.631564	0.227281
C34	C	-1.982171	-0.604599	0.231228
C35	C	-2.163473	-0.610429	0.238860
C36	C	-2.150217	-0.550670	0.239123
C37	C	-2.052938	-0.517875	0.235438
C38	C	-1.968915	-0.544840	0.231491
C39	C	-1.800857	-0.598767	0.223604
C40	C	-1.787610	-0.539002	0.223875
C41	C	-1.871640	-0.512038	0.227822
C42	C	-1.858379	-0.452287	0.228070
N43	N	-1.942405	-0.425320	0.232024
C44	C	-2.039684	-0.458114	0.235709
C45	C	-1.939235	-0.816829	0.226445
C46	C	-1.952486	-0.876588	0.226169
C47	C	-2.133798	-0.882416	0.233807
C48	C	-2.120545	-0.822654	0.234078
C49	C	-2.023261	-0.789862	0.230399
C50	C	-2.011838	-0.332615	0.236260
C51	C	-1.998572	-0.272850	0.236520
C52	C	-1.817262	-0.267028	0.228886
C53	C	-1.830526	-0.326787	0.228622
C54	C	-1.927822	-0.359580	0.232312
O55	O	-1.774454	-0.418852	0.224939
O56	O	-2.109925	-0.429682	0.239105
C57	C	-1.894618	-0.075958	0.366814
C58	C	-1.913422	-0.075668	0.451509
C59	C	-2.074240	0.027010	0.229558
C60	C	-2.049769	0.090612	0.229858
C61	C	-2.066824	-0.073484	0.095872
C62	C	-2.037639	-0.073771	0.011177
C63	C	-1.394618	-0.075958	0.366814
C64	C	-1.413422	-0.075668	0.451509
C65	C	-1.387202	-0.176453	0.233130
C66	C	-1.401292	-0.240056	0.232836
C67	C	-2.012913	-0.078399	0.495195
C68	C	-2.030575	-0.078127	0.574774
C69	C	-1.948748	-0.075127	0.610666
C70	C	-1.849249	-0.072394	0.566974
C71	C	-1.831586	-0.072663	0.487395
C72	C	-1.920478	-0.071311	0.887905
C73	C	-1.938149	-0.071044	0.967490
C74	C	-2.119467	-0.076775	0.975284
C75	C	-2.101804	-0.077043	0.895705
C76	C	-2.002307	-0.074307	0.852019
C77	C	-1.983155	-0.074602	0.765730
C78	C	-1.967899	-0.074837	0.696955
C79	C	-1.574240	0.027010	0.229558
C80	C	-1.549769	0.090612	0.229858
C81	C	-1.566824	-0.073484	0.095872
C82	C	-1.537639	-0.073771	0.011177
C83	C	-1.512918	-0.078393	0.495181
C84	C	-1.530599	-0.078114	0.574759
C85	C	-1.448784	-0.075113	0.610665
C86	C	-1.349279	-0.072386	0.566986
C87	C	-1.331599	-0.072661	0.487409
C88	C	-1.498572	-0.272850	0.236520
C89	C	-1.511828	-0.332613	0.236255
C90	C	-1.427802	-0.359580	0.232301
C91	C	-1.330516	-0.326782	0.228618
C92	C	-1.317262	-0.267020	0.228889
C93	C	-1.624983	0.123406	0.226175
C94	C	-1.601998	0.183168	0.226444
C95	C	-1.503801	0.210135	0.230400
C96	C	-1.428580	0.177337	0.234080
C97	C	-1.451563	0.117576	0.233806
C98	C	-1.437224	-0.076766	-0.024709
C99	C	-1.409785	-0.077028	-0.104290
C100	C	-1.482764	-0.074301	-0.147983
C101	C	-1.583187	-0.071304	-0.112092
C102	C	-1.610623	-0.071037	-0.032514
H103	H	-2.067003	-0.250898	0.239731
H104	H	-1.782624	-0.069949	0.596203
H105	H	-1.611627	-0.080337	0.610312
H106	H	-1.485100	0.258797	0.230622
H107	H	-1.567000	-0.250901	0.239735
Cl108	Cl	-1.471029	-0.074770	0.710708
Cl109	Cl	-1.674924	-0.067882	-0.167031
H110	H	-1.750568	-0.070425	0.451823
H111	H	-1.762103	-0.348744	0.225413
H112	H	-2.091064	-0.359308	0.239266
H113	H	-1.438609	-0.408242	0.232081
H114	H	-1.460414	-0.074525	-0.212779
Cl115	Cl	-1.246439	-0.068621	0.612138
H116	H	-1.250578	-0.070443	0.451856
Cl117	Cl	-1.736872	-0.067282	0.012592
Cl118	Cl	-1.748440	0.089518	0.221200
Cl119	Cl	-1.696575	0.224388	0.221819
H120	H	-1.348627	0.199303	0.237300
Cl121	Cl	-1.615789	-0.082165	0.450060
Cl122	Cl	-1.634136	-0.373833	0.240880
Cl123	Cl	-1.345459	-0.080194	0.030203
Cl124	Cl	-1.224892	-0.360691	0.223643
H125	H	-2.168439	-0.079488	0.866487
Cl126	Cl	-1.194955	-0.225799	0.224249
Cl127	Cl	-1.694970	-0.225789	0.224246
Cl128	Cl	-2.256098	-0.923655	0.238446
Cl129	Cl	-2.255861	-0.516780	0.244077
Cl130	Cl	-2.115792	-0.082174	0.450083
H131	H	-1.390312	0.090879	0.236811
H132	H	-1.839469	-0.069103	0.852349
Cl133	Cl	-2.285780	-0.651646	0.243491
Cl134	Cl	-1.283539	-0.080800	-0.149392
H135	H	-1.884056	-0.898536	0.222945
Cl136	Cl	-1.816923	-0.775608	0.221811
Cl137	Cl	-2.226189	-0.788763	0.239044
H138	H	-1.708390	-0.512305	0.220884
Cl139	Cl	-1.695206	-0.632650	0.218634
H140	H	-2.111588	-0.080347	0.610340
Cl141	Cl	-2.244552	-0.080211	1.030208
H142	H	-1.871508	-0.068600	0.996710
