data_functionalizedCrystal
_audit_creation_method	'MofGen! by Chris Wilmer'
_symmetry_space_group_name_H-M	'P1'
_symmetry_Int_Tables_number	1
_symmetry_cell_setting	triclinic
loop_
_symmetry_equiv_pos_as_xyz
  x,y,z
_cell_length_a	8.497374
_cell_length_b	19.805407
_cell_length_c	19.805405
_cell_angle_alpha	89.973590
_cell_angle_beta	89.985911
_cell_angle_gamma	90.004504
loop_
_atom_site_label
_atom_site_type_symbol
_atom_site_fract_x
_atom_site_fract_y
_atom_site_fract_z
Zn1	Zn	0.892011	1.034635	0.269581
Zn2	Zn	0.628188	1.034580	0.382739
Zn3	Zn	0.628226	0.921479	0.269569
Zn4	Zn	0.891907	0.921413	0.382733
O5	O	0.760083	0.978027	0.326155
O6	O	0.857043	1.129344	0.284598
O7	O	0.407431	1.019581	0.367724
O8	O	0.663277	0.936541	0.174854
O9	O	0.663213	1.129303	0.367735
O10	O	0.857079	1.019676	0.174862
O11	O	0.407458	0.936487	0.284579
O12	O	0.663176	0.826754	0.284573
O13	O	1.112683	0.936428	0.367725
O14	O	0.856901	0.826705	0.367714
O15	O	1.112760	1.019611	0.284593
O16	O	0.663111	1.019517	0.477455
O17	O	0.856864	0.936374	0.477450
C18	C	0.760032	0.802171	0.326142
C19	C	0.760048	0.726939	0.326153
C20	C	0.860757	0.691587	0.369510
C21	C	0.860779	0.620899	0.369511
C22	C	0.760083	0.585563	0.326158
C23	C	0.659369	0.620920	0.282797
C24	C	0.659356	0.691607	0.282793
C25	C	0.659421	0.335847	0.282812
C26	C	0.659439	0.265155	0.282821
C27	C	0.860844	0.265138	0.369530
C28	C	0.860831	0.335825	0.369526
C29	C	0.760124	0.371176	0.326162
C30	C	0.760103	0.447824	0.326161
C31	C	0.760095	0.508916	0.326163
C32	C	0.760007	0.977951	0.502011
C33	C	0.760027	0.977980	0.577243
C34	C	1.171563	0.978022	0.326156
C35	C	1.350207	0.978023	0.326164
C36	C	0.760135	1.154569	0.326169
C37	C	0.760157	1.229801	0.326175
C38	C	0.760194	0.978122	0.149613
C39	C	0.760241	0.978162	0.074381
C40	C	0.659245	1.021314	0.612567
C41	C	0.659280	1.021343	0.683256
C42	C	0.760090	0.978034	0.718619
C43	C	0.860882	0.934697	0.683290
C44	C	0.860854	0.934672	0.612603
C45	C	0.860999	0.934797	0.968363
C46	C	0.861016	0.934824	1.039055
C47	C	0.659425	1.021468	1.039016
C48	C	0.659397	1.021443	0.968329
C49	C	0.760195	0.978109	0.933006
C50	C	0.760158	0.978080	0.856358
C51	C	0.760120	0.978059	0.795266
H52	H	0.942851	0.236347	0.404836
O53	O	0.561371	1.063591	1.073225
C54	C	0.472414	1.101820	1.026853
H55	H	0.466874	1.074078	0.976490
H56	H	0.348140	1.109093	1.047292
H57	H	0.530290	1.153202	1.019281
O58	O	0.958887	0.892720	0.717715
C59	C	1.060903	0.931232	0.758543
H60	H	1.005380	0.982550	0.769101
H61	H	1.081999	0.903672	0.808269
H62	H	1.177821	0.938616	0.731276
H63	H	0.577303	1.056707	0.939538
O64	O	0.561148	1.063289	0.578188
C65	C	0.459178	1.024778	0.537337
H66	H	0.449324	0.971481	0.558684
H67	H	0.337825	1.049304	0.536537
H68	H	0.507927	1.022410	0.483757
H69	H	0.942923	0.899386	0.583843
H70	H	0.942751	0.720352	0.404815
O71	O	0.561445	0.726026	0.240773
C72	C	0.459358	0.766880	0.279238
H73	H	0.514777	0.777451	0.330569
H74	H	0.438330	0.816598	0.251652
H75	H	0.342419	0.739629	0.286596
H76	H	0.942785	0.592118	0.404817
O77	O	0.561451	0.370076	0.240668
C78	C	0.472609	0.323727	0.202396
H79	H	0.467030	0.273331	0.230125
H80	H	0.348342	0.344145	0.195082
H81	H	0.530612	0.316227	0.151033
H82	H	0.942823	0.364592	0.404830
O83	O	0.561438	0.230803	0.240803
C84	C	0.459410	0.189887	0.279276
H85	H	0.449447	0.211171	0.332576
H86	H	0.338103	0.189091	0.254717
H87	H	0.508173	0.136315	0.281647
H88	H	0.943119	0.899556	1.067846
H89	H	0.577387	0.592144	0.247496
H90	H	0.943069	0.899512	0.939609
H91	H	0.577212	1.056630	0.712013
