data_functionalizedCrystal
_audit_creation_method	'MofGen! by Chris Wilmer'
_symmetry_space_group_name_H-M	'P1'
_symmetry_Int_Tables_number	1
_symmetry_cell_setting	triclinic
loop_
_symmetry_equiv_pos_as_xyz
  x,y,z
_cell_length_a	9.065215
_cell_length_b	13.596369
_cell_length_c	14.519709
_cell_angle_alpha	90.006934
_cell_angle_beta	84.347421
_cell_angle_gamma	90.004765
loop_
_atom_site_label
_atom_site_type_symbol
_atom_site_fract_x
_atom_site_fract_y
_atom_site_fract_z
O1	O	1.957871	0.081783	0.135215
O2	O	2.291205	0.415116	0.468549
O3	O	2.624538	0.748449	0.801882
O4	O	1.528378	0.081787	0.146310
O5	O	1.861711	0.415121	0.479643
O6	O	2.195045	0.748454	0.812977
O7	O	1.754512	0.081776	0.006608
O8	O	2.087846	0.415109	0.339941
O9	O	2.421179	0.748443	0.673274
O10	O	1.731737	0.081794	0.274918
O11	O	2.065071	0.415127	0.608251
O12	O	2.398404	0.748460	0.941585
O13	O	1.754490	-0.081807	0.006600
O14	O	2.087823	0.251526	0.339933
O15	O	2.421156	0.584860	0.673267
O16	O	1.528356	-0.081796	0.146302
O17	O	1.861689	0.251538	0.479636
O18	O	2.195022	0.584871	0.812969
O19	O	1.957849	-0.081800	0.135208
O20	O	2.291182	0.251533	0.468541
O21	O	2.624516	0.584866	0.801874
Zn22	Zn	1.743099	-0.107770	0.140754
Zn23	Zn	2.076432	0.225563	0.474087
Zn24	Zn	2.409765	0.558896	0.807421
Zn25	Zn	1.743128	0.107757	0.140764
Zn26	Zn	2.076462	0.441090	0.474097
Zn27	Zn	2.409795	0.774424	0.807431
O28	O	1.731715	-0.081789	0.274910
O29	O	2.065048	0.251544	0.608244
O30	O	2.398382	0.584878	0.941577
C31	C	1.473400	-0.000004	0.145241
C32	C	1.806734	0.333330	0.478574
C33	C	2.140067	0.666663	0.811907
C34	C	1.309617	-0.000002	0.142054
C35	C	1.642950	0.333331	0.475388
C36	C	1.976283	0.666664	0.808721
N37	N	1.743089	-0.254862	0.140746
N38	N	2.076422	0.078471	0.474080
N39	N	2.409756	0.411804	0.807413
C40	C	1.743126	-0.656153	0.140765
C41	C	2.076460	-0.322820	0.474098
C42	C	2.409793	0.010514	0.807432
C43	C	1.743112	-0.544502	0.140763
C44	C	2.076445	-0.211168	0.474096
C45	C	2.409778	0.122165	0.807430
C46	C	1.743108	-0.455511	0.140756
C47	C	2.076442	-0.122178	0.474090
C48	C	2.409775	0.211155	0.807423
C49	C	1.743092	-0.343853	0.140753
C50	C	2.076426	-0.010519	0.474086
C51	C	2.409759	0.322814	0.807420
C52	C	2.012827	-0.000007	0.136277
C53	C	2.346160	0.333326	0.469611
C54	C	2.679494	0.666659	0.802944
C55	C	2.176610	-0.000002	0.139464
C56	C	2.509944	0.333331	0.472797
C57	C	2.843277	0.666664	0.806130
C58	C	1.753439	-0.000016	-0.027764
C59	C	2.086773	0.333318	0.305570
C60	C	2.420106	0.666651	0.638903
C61	C	1.750259	-0.000016	-0.130168
C62	C	2.083592	0.333317	0.203165
C63	C	2.416926	0.666650	0.536498
N64	N	1.743150	0.254849	0.140764
N65	N	2.076483	0.588182	0.474097
N66	N	2.409816	0.921516	0.807431
C67	C	1.738550	0.000009	-0.505150
C68	C	2.071883	0.333343	-0.171816
C69	C	2.405216	0.666676	0.161517
C70	C	1.741801	0.000002	-0.400818
C71	C	2.075135	0.333335	-0.067485
C72	C	2.408468	0.666669	0.265849
C73	C	1.744404	-0.000004	-0.317662
C74	C	2.077737	0.333329	0.015671
C75	C	2.411071	0.666662	0.349004
C76	C	1.747656	-0.000010	-0.213324
C77	C	2.080990	0.333323	0.120009
C78	C	2.414323	0.666657	0.453343
C79	C	1.732788	0.000005	0.309282
C80	C	2.066121	0.333338	0.642615
C81	C	2.399454	0.666671	0.975948
C82	C	1.735968	0.000012	0.411686
C83	C	2.069301	0.333345	0.745019
C84	C	2.402635	0.666678	1.078353
