data_functionalizedCrystal
_audit_creation_method	'MofGen! by Chris Wilmer'
_symmetry_space_group_name_H-M	'P1'
_symmetry_Int_Tables_number	1
_symmetry_cell_setting	triclinic
loop_
_symmetry_equiv_pos_as_xyz
  x,y,z
_cell_length_a	16.959454
_cell_length_b	12.594517
_cell_length_c	16.959447
_cell_angle_alpha	90.021624
_cell_angle_beta	89.973264
_cell_angle_gamma	89.984870
loop_
_atom_site_label
_atom_site_type_symbol
_atom_site_fract_x
_atom_site_fract_y
_atom_site_fract_z
Zn1	Zn	-0.314770	-1.627179	-0.447082
Zn2	Zn	-0.446963	-1.627074	-0.314912
Zn3	Zn	-0.314791	-1.449200	-0.314903
Zn4	Zn	-0.446899	-1.449152	-0.447034
O5	O	-0.380856	-1.538151	-0.380983
O6	O	-0.332324	-1.776111	-0.429574
O7	O	-0.429465	-1.603455	-0.204300
O8	O	-0.204177	-1.472873	-0.332453
O9	O	-0.429445	-1.776034	-0.332469
O10	O	-0.204162	-1.603633	-0.429565
O11	O	-0.332359	-1.472772	-0.204293
O12	O	-0.332297	-1.300248	-0.332406
O13	O	-0.429337	-1.472792	-0.557651
O14	O	-0.429357	-1.300213	-0.429482
O15	O	-0.332262	-1.603587	-0.557687
O16	O	-0.557565	-1.603409	-0.332422
O17	O	-0.557518	-1.472691	-0.429491
C18	C	-0.380823	-1.261610	-0.380939
C19	C	-0.380828	-1.143305	-0.380938
C20	C	-0.586222	-1.538062	-0.380969
C21	C	-0.674078	-1.538121	-0.380990
C22	C	-0.327971	-1.003276	-0.328250
C23	C	-0.308718	-1.074127	-0.400383
C24	C	-0.400046	-1.074026	-0.308814
C25	C	-0.361556	-1.003370	-0.453153
C26	C	-0.452918	-1.003262	-0.361535
C27	C	-0.433692	-1.074081	-0.433718
C28	C	-1.045560	-1.470185	-0.431521
C29	C	-1.045548	-1.606414	-0.330525
C30	C	-0.963002	-1.606377	-0.330517
C31	C	-0.921731	-1.538242	-0.381012
C32	C	-0.963006	-1.470143	-0.431514
C33	C	-0.921721	-1.674466	-0.280011
C34	C	-0.839171	-1.674431	-0.280001
C35	C	-0.797898	-1.606300	-0.330500
C36	C	-0.839178	-1.538200	-0.381005
C37	C	-0.797907	-1.470065	-0.431499
C38	C	-0.839185	-1.401969	-0.482008
C39	C	-0.921734	-1.402013	-0.482013
C40	C	-0.715350	-1.606257	-0.330495
C41	C	-0.715353	-1.470023	-0.431492
C42	C	-0.174687	-1.538270	-0.381014
C43	C	-0.086831	-1.538320	-0.381027
C44	C	-0.380790	-1.538196	-0.587151
C45	C	-0.380762	-1.538215	-0.675008
C46	C	-0.380875	-0.815772	-0.381012
C47	C	-0.380847	-0.934078	-0.380982
C48	C	-0.431221	-1.470243	-1.046467
C49	C	-0.330137	-1.606441	-1.046500
C50	C	-0.330153	-1.606413	-0.963954
C51	C	-0.380706	-1.538299	-0.922661
C52	C	-0.431241	-1.470214	-0.963914
C53	C	-0.279625	-1.674504	-0.922695
C54	C	-0.279640	-1.674479	-0.840144
C55	C	-0.330189	-1.606360	-0.798849
C56	C	-0.380726	-1.538271	-0.840107
C57	C	-0.431278	-1.470158	-0.798814
C58	C	-0.481811	-1.402063	-0.840071
C59	C	-0.481790	-1.402095	-0.922620
C60	C	-0.330210	-1.606328	-0.716301
C61	C	-0.431298	-1.470130	-0.716261
C62	C	-0.380864	-1.538169	-0.175617
C63	C	-0.380669	-1.538356	-0.087760
H64	H	-0.283230	-0.972190	-0.283730
O65	O	-0.225137	-1.747915	-0.795646
H66	H	-0.189980	-1.795278	-0.838229
H67	H	-0.289069	-1.661772	-0.682713
O68	O	-0.227980	-1.115378	-0.422155
H69	H	-0.184199	-1.087031	-0.378316
O70	O	-0.794663	-1.328472	-0.536460
H71	H	-0.837230	-1.281119	-0.571578
O72	O	-0.536325	-1.328594	-0.795522
H73	H	-0.522747	-1.245072	-0.811360
O74	O	-0.794649	-1.747884	-0.225537
H75	H	-0.837217	-1.795275	-0.190432
O76	O	-0.670838	-1.396536	-0.485956
H77	H	-0.633273	-1.342401	-0.450530
O78	O	-0.536291	-1.328653	-0.967115
H79	H	-0.527788	-1.340125	-1.031453
H80	H	-0.472457	-1.414653	-0.682646
O81	O	-0.966231	-1.747990	-0.225579
H82	H	-1.030566	-1.736601	-0.234088
H83	H	-0.955350	-1.346572	-0.523134
H84	H	-0.345239	-0.972463	-0.514185
O85	O	-0.485721	-1.396794	-1.090957
H86	H	-0.477219	-1.408252	-1.155296
H87	H	-0.288984	-1.661901	-1.080125
O88	O	-0.225105	-1.747945	-0.967250
H89	H	-0.238672	-1.831478	-0.951436
O90	O	-0.492912	-1.115018	-0.492823
H91	H	-0.476781	-1.086569	-0.552626
H92	H	-1.079172	-1.414746	-0.472647
O93	O	-1.090071	-1.679917	-0.276088
H94	H	-1.127738	-1.632348	-0.235842
O95	O	-0.533635	-0.961979	-0.339741
H96	H	-0.549448	-0.990220	-0.279797
H97	H	-0.681744	-1.661694	-0.289368
H98	H	-0.416292	-1.105065	-0.247800
