data_functionalizedCrystal
_audit_creation_method	'MofGen! by Chris Wilmer'
_symmetry_space_group_name_H-M	'P1'
_symmetry_Int_Tables_number	1
_symmetry_cell_setting	triclinic
loop_
_symmetry_equiv_pos_as_xyz
  x,y,z
_cell_length_a	14.971506
_cell_length_b	23.532357
_cell_length_c	13.448316
_cell_angle_alpha	89.987857
_cell_angle_beta	89.992937
_cell_angle_gamma	83.225340
loop_
_atom_site_label
_atom_site_type_symbol
_atom_site_fract_x
_atom_site_fract_y
_atom_site_fract_z
O1	O	1.186131	0.074273	-0.082711
O2	O	0.925637	0.083149	-0.082713
O3	O	1.063762	-0.004189	-0.082692
O4	O	1.048005	0.161610	-0.082733
O5	O	1.063745	-0.004194	0.082692
O6	O	0.925619	0.083143	0.082671
O7	O	1.186113	0.074268	0.082672
Cu8	Cu	1.055865	0.078705	0.097772
Cu9	Cu	1.055885	0.078711	-0.097813
O10	O	1.047988	0.161605	0.082651
C11	C	0.892308	0.082747	-0.000021
C12	C	0.793025	0.081551	-0.000021
C13	C	0.354235	0.128297	-0.000043
C14	C	0.447523	0.129416	-0.000047
C15	C	0.505300	0.078102	-0.000030
C16	C	0.469784	0.025666	-0.000019
C17	C	0.376498	0.024547	-0.000021
C18	C	0.664222	0.028001	-0.000011
C19	C	0.757515	0.029119	-0.000007
C20	C	0.735248	0.132870	-0.000037
C21	C	0.641961	0.131751	-0.000040
C22	C	0.606452	0.079315	-0.000026
C23	C	1.063359	-0.025410	0.000003
C24	C	1.062174	-0.088633	0.000013
C25	C	1.054745	-0.480674	-0.090192
C26	C	1.053618	-0.540078	-0.090198
O27	O	1.053013	-0.570795	-0.166867
N28	N	1.053050	-0.569795	-0.000048
C29	C	1.053600	-0.540103	0.090113
O30	O	1.053012	-0.570834	0.166792
C31	C	1.054720	-0.480699	0.090118
C32	C	1.055297	-0.450987	-0.000038
C33	C	1.055321	-0.450961	-0.180340
C34	C	1.056449	-0.391561	-0.180334
C35	C	1.057001	-0.361874	-0.090180
C36	C	1.056425	-0.391587	-0.000032
C37	C	1.055263	-0.451008	0.180278
C38	C	1.056382	-0.391601	0.180274
C39	C	1.056959	-0.361888	0.090119
C40	C	1.058105	-0.302499	0.090128
N41	N	1.058673	-0.272783	-0.000021
C42	C	1.058121	-0.302470	-0.090175
C43	C	1.051246	-0.664855	0.090096
C44	C	1.050133	-0.724258	0.090093
C45	C	1.050149	-0.724229	-0.090218
C46	C	1.051269	-0.664825	-0.090214
C47	C	1.051814	-0.635138	-0.000053
C48	C	1.060491	-0.177726	-0.090156
C49	C	1.061622	-0.118321	-0.090142
C50	C	1.061601	-0.118355	0.090169
C51	C	1.060474	-0.177755	0.090155
C52	C	1.059916	-0.207439	-0.000015
O53	O	1.058707	-0.271745	0.166759
O54	O	1.058696	-0.271731	-0.166841
C55	C	1.219442	0.074669	-0.000022
C56	C	1.318725	0.075865	-0.000028
C57	C	1.048391	0.182826	-0.000046
C58	C	1.049576	0.246050	-0.000062
N59	N	1.055857	0.078700	0.235337
N60	N	1.055900	0.078712	-0.235377
C61	C	1.117038	0.040043	0.287387
C62	C	1.117043	0.040043	0.391490
C63	C	1.055872	0.078702	0.443541
C64	C	0.994685	0.117361	0.391484
C65	C	0.994676	0.117359	0.287383
C66	C	0.994709	0.117365	0.608464
C67	C	0.994719	0.117369	0.712573
C68	C	1.117077	0.040049	0.712571
C69	C	1.117068	0.040046	0.608470
C70	C	1.055882	0.078706	0.556420
H71	H	0.594921	0.173536	-0.000047
Br72	Br	0.783437	0.204034	-0.000039
Br73	Br	1.059732	-0.218002	-0.212530
Br74	Br	1.200072	-0.012423	0.462132
Br75	Br	0.911697	0.169838	0.783207
Br76	Br	0.275833	0.197942	-0.000054
H77	H	0.804555	-0.012666	-0.000001
Br78	Br	1.200094	-0.012415	0.537825
Br79	Br	0.616031	-0.043164	0.000012
Br80	Br	0.495712	0.200578	-0.000077
H81	H	1.056812	-0.367432	0.253696
Br82	Br	1.059711	-0.218082	0.212509
Br83	Br	0.328305	-0.046614	-0.000005
H84	H	0.944855	0.148836	0.245005
H85	H	0.516833	-0.016115	-0.000011
Br86	Br	1.200118	-0.012414	0.783213
H87	H	1.062094	-0.094131	-0.163560
Br88	Br	1.057225	-0.351245	-0.302694
Br89	Br	1.054571	-0.491240	-0.302709
Br90	Br	1.052052	-0.624507	-0.212571
Br91	Br	1.049395	-0.764530	-0.212572
H92	H	1.166854	0.008564	0.245013
Br93	Br	0.911665	0.169831	0.537828
Br94	Br	1.049371	-0.764577	0.212451
Br95	Br	0.911657	0.169826	0.462121
Br96	Br	1.051991	-0.624572	0.212469
H97	H	1.054794	-0.475190	0.253692
H98	H	1.062054	-0.094173	0.163570
