data_functionalizedCrystal
_audit_creation_method	'MofGen! by Chris Wilmer'
_symmetry_space_group_name_H-M	'P1'
_symmetry_Int_Tables_number	1
_symmetry_cell_setting	triclinic
loop_
_symmetry_equiv_pos_as_xyz
  x,y,z
_cell_length_a	19.288840
_cell_length_b	15.995362
_cell_length_c	15.072220
_cell_angle_alpha	90.004809
_cell_angle_beta	89.997378
_cell_angle_gamma	96.688301
loop_
_atom_site_label
_atom_site_type_symbol
_atom_site_fract_x
_atom_site_fract_y
_atom_site_fract_z
O1	O	0.921624	-0.104358	-0.073920
O2	O	1.421624	0.395642	0.426080
O3	O	0.719398	-0.118470	-0.073888
O4	O	1.219398	0.381530	0.426112
O5	O	0.826035	0.010495	-0.073911
O6	O	1.326035	0.510495	0.426089
O7	O	0.814988	-0.233322	-0.073897
O8	O	1.314988	0.266678	0.426103
O9	O	0.826045	0.010515	0.073654
O10	O	1.326045	0.510515	0.573654
O11	O	0.719409	-0.118450	0.073677
O12	O	1.219409	0.381550	0.573677
O13	O	0.921635	-0.104338	0.073645
O14	O	1.421635	0.395662	0.573645
Zn15	Zn	0.820523	-0.111391	0.097090
Zn16	Zn	1.320523	0.388609	0.597090
Zn17	Zn	0.820509	-0.111417	-0.097333
Zn18	Zn	1.320509	0.388583	0.402667
O19	O	0.814998	-0.233302	0.073668
O20	O	1.314998	0.266698	0.573668
C21	C	0.693526	-0.118009	-0.000102
C22	C	1.193526	0.381991	0.499898
C23	C	0.616417	-0.116657	-0.000090
C24	C	1.116417	0.383343	0.499910
C25	C	0.580206	-0.116018	-0.080530
C26	C	1.080206	0.383982	0.419470
C27	C	0.507756	-0.114738	-0.080541
C28	C	1.007756	0.385262	0.419459
C29	C	0.471522	-0.114079	-0.000107
C30	C	0.971522	0.385921	0.499893
C31	C	0.507741	-0.114723	0.080343
C32	C	1.007741	0.385277	0.580343
C33	C	0.580189	-0.116012	0.080352
C34	C	1.080189	0.383988	0.580352
C35	C	0.362064	-0.062987	0.061501
C36	C	0.862064	0.437013	0.561501
C37	C	0.289618	-0.061693	0.061489
C38	C	0.789618	0.438307	0.561489
C39	C	0.248067	-0.110109	-0.000131
C40	C	0.748067	0.389891	0.499869
C41	C	0.278973	-0.159807	-0.061753
C42	C	0.778973	0.340193	0.438247
C43	C	0.351421	-0.161096	-0.061744
C44	C	0.851421	0.338904	0.438256
C45	C	0.392964	-0.112683	-0.000108
C46	C	0.892964	0.387317	0.499892
C47	C	0.133297	-0.108083	-0.080588
C48	C	0.633297	0.391917	0.419412
C49	C	0.060845	-0.106808	-0.080596
C50	C	0.560845	0.393192	0.419404
C51	C	0.060832	-0.106785	0.080291
C52	C	0.560832	0.393215	0.580291
C53	C	0.133282	-0.108068	0.080296
C54	C	0.633282	0.391932	0.580296
C55	C	0.169511	-0.108713	-0.000146
C56	C	0.669511	0.391287	0.499854
C57	C	0.825582	0.041697	-0.000132
C58	C	1.325582	0.541697	0.499868
C59	C	0.824208	0.134642	-0.000143
C60	C	1.324208	0.634642	0.499857
C61	C	0.819275	0.472368	-0.000159
C62	C	1.319275	0.972368	0.499841
C63	C	0.743328	0.424640	-0.000475
C64	C	1.243328	0.924640	0.499525
C65	C	0.744703	0.327955	-0.000137
C66	C	1.244703	0.827955	0.499863
C67	C	0.821722	0.304818	-0.000151
C68	C	1.321722	0.804818	0.499849
C69	C	0.859187	0.346052	0.084106
C70	C	1.359187	0.846052	0.584106
C71	C	0.857275	0.442680	0.084171
C72	C	1.357275	0.942680	0.584171
C73	C	0.858832	0.443021	-0.083638
C74	C	1.358832	0.943021	0.416362
C75	C	0.858817	0.346076	-0.084746
C76	C	1.358817	0.846076	0.415254
C77	C	0.823109	0.210127	-0.000144
C78	C	1.323109	0.710127	0.499856
C79	C	0.817890	0.567060	-0.000160
C80	C	1.317890	1.067060	0.499840
C81	C	0.947507	-0.104798	-0.000144
C82	C	1.447507	0.395202	0.499856
C83	C	1.024615	-0.106151	-0.000161
C84	C	1.524615	0.393849	0.499839
C85	C	0.815442	0.735494	-0.000128
C86	C	1.315442	1.235494	0.499872
C87	C	0.816788	0.642545	-0.000167
C88	C	1.316788	1.142545	0.499833
N89	N	0.820500	-0.111429	-0.230022
N90	N	1.320500	0.388571	0.269978
C91	C	0.820513	-0.111410	-0.411020
C92	C	1.320513	0.388590	0.088980
C93	C	0.763346	-0.180272	-0.448676
C94	C	1.263346	0.319728	0.051324
C95	C	0.763500	-0.180505	-0.551502
C96	C	1.263500	0.319495	-0.051502
C97	C	0.820525	-0.111391	-0.589224
C98	C	1.320525	0.388609	-0.089224
C99	C	0.893028	-0.130063	-0.551897
C100	C	1.393028	0.369937	-0.051897
C101	C	0.892686	-0.130568	-0.449040
C102	C	1.392686	0.369432	0.050960
C103	C	0.805832	-0.023663	-0.448905
C104	C	1.305832	0.476337	0.051095
C105	C	0.804191	-0.024242	-0.551769
C106	C	1.304191	0.475758	-0.051769
C107	C	0.820536	-0.111379	-0.689937
C108	C	1.320536	0.388621	-0.189937
C109	C	0.820507	-0.111424	-0.310306
C110	C	1.320507	0.388576	0.189694
N111	N	0.820538	-0.111372	0.229779
N112	N	1.320538	0.388628	0.729779
H113	H	0.609699	-0.116543	-0.146032
H114	H	1.109699	0.383457	0.353968
H115	H	0.831426	0.318713	-0.147078
H116	H	1.331426	0.818713	0.352922
C117	C	0.825277	0.470623	-0.169918
C118	C	1.325277	0.970623	0.330082
N119	N	0.799995	0.491411	-0.234900
N120	N	1.299995	0.991411	0.265100
C121	C	0.704912	0.289390	-0.081728
C122	C	1.204912	0.789390	0.418272
N123	N	0.674936	0.260347	-0.143184
N124	N	1.174936	0.760347	0.356816
C125	C	0.407763	-0.009719	0.129290
C126	C	0.907763	0.490281	0.629290
N127	N	0.442183	0.030401	0.180346
N128	N	0.942183	0.530401	0.680346
C129	C	0.021014	-0.106101	-0.169091
C130	C	0.521014	0.393899	0.330909
N131	N	-0.008988	-0.105566	-0.235747
N132	N	0.491012	0.394434	0.264253
H133	H	0.914983	0.330932	-0.089844
H134	H	1.414983	0.830932	0.410156
H135	H	0.478234	-0.114189	0.145833
H136	H	0.978234	0.385811	0.645833
H137	H	0.914827	0.474999	-0.084218
H138	H	1.414827	0.974999	0.415782
H139	H	0.709610	-0.169441	-0.576740
H140	H	1.209610	0.330559	-0.076740
H141	H	0.713111	0.444125	0.059620
H142	H	1.213111	0.944125	0.559620
C143	C	0.690294	-0.165605	-0.415241
C144	C	1.190294	0.334395	0.084759
N145	N	0.635270	-0.154561	-0.390045
N146	N	1.135270	0.345439	0.109955
H147	H	0.609671	-0.116533	0.145858
H148	H	1.109671	0.383467	0.645858
H149	H	0.754093	-0.005616	-0.422938
H150	H	1.254093	0.494384	0.077062
C151	C	0.775851	-0.267758	-0.413787
C152	C	1.275851	0.232242	0.086213
N153	N	0.785273	-0.333651	-0.387508
N154	N	1.285273	0.166349	0.112492
H155	H	0.750856	-0.010063	-0.576167
H156	H	1.250856	0.489937	-0.076167
H157	H	0.772897	-0.245621	-0.576127
H158	H	1.272897	0.254379	-0.076127
H159	H	0.031330	-0.106254	0.145782
H160	H	0.531330	0.393746	0.645782
C161	C	0.173150	-0.108807	-0.169075
C162	C	0.673150	0.391193	0.330925
N163	N	0.203164	-0.109356	-0.235724
N164	N	0.703164	0.390644	0.264276
H165	H	0.905609	-0.194548	-0.425068
H166	H	1.405609	0.305452	0.074932
C167	C	0.702306	0.449514	-0.082100
C168	C	1.202306	0.949514	0.417900
N169	N	0.671407	0.468257	-0.143580
N170	N	1.171407	0.968257	0.356420
C171	C	0.704664	0.290164	0.081617
C172	C	1.204664	0.790164	0.581617
N173	N	0.674507	0.261700	0.143199
N174	N	1.174507	0.761700	0.643199
C175	C	0.820370	0.467273	0.169270
C176	C	1.320370	0.967273	0.669270
N177	N	0.792569	0.485792	0.233366
N178	N	1.292569	0.985792	0.733366
H179	H	0.915771	0.332147	0.087229
H180	H	1.415771	0.832147	0.587229
C181	C	0.824042	0.307593	0.168834
C182	C	1.324042	0.807593	0.668834
N183	N	0.797566	0.278627	0.232649
N184	N	1.297566	0.778627	0.732649
C185	C	0.910910	-0.215504	-0.586710
C186	C	1.410910	0.284496	-0.086710
N187	N	0.924374	-0.279862	-0.612926
N188	N	1.424374	0.220138	-0.112926
C189	C	0.173117	-0.108759	0.168788
C190	C	0.673117	0.391241	0.668788
N191	N	0.203120	-0.109280	0.235444
N192	N	0.703120	0.390720	0.735444
C193	C	0.856802	0.048198	-0.586433
C194	C	1.356802	0.548198	-0.086433
N195	N	0.896438	0.102758	-0.612534
N196	N	1.396438	0.602758	-0.112534
C197	C	0.932601	0.486540	0.089332
C198	C	1.432601	0.986540	0.589332
N199	N	0.989336	0.519572	0.093226
N200	N	1.489336	1.019572	0.593226
C201	C	0.862147	0.045562	-0.415996
C202	C	1.362147	0.545562	0.084004
N203	N	0.904565	0.097696	-0.391204
N204	N	1.404565	0.597696	0.108796
H205	H	0.936563	-0.082370	-0.424128
H206	H	1.436563	0.417630	0.075872
H207	H	0.376581	-0.201564	-0.111918
H208	H	0.876581	0.298436	0.388082
C209	C	0.467917	-0.114029	-0.169035
C210	C	0.967917	0.385971	0.330965
N211	N	0.437912	-0.113493	-0.235689
N212	N	0.937912	0.386507	0.264311
C213	C	0.233272	-0.213075	-0.129536
C214	C	0.733272	0.286925	0.370464
N215	N	0.198847	-0.253195	-0.180587
N216	N	0.698847	0.246805	0.319413
H217	H	0.936600	-0.081217	-0.576330
H218	H	1.436600	0.418783	-0.076330
H219	H	0.264461	-0.021221	0.111661
H220	H	0.764461	0.478779	0.611661
