data_functionalizedCrystal
_audit_creation_method	'MofGen! by Chris Wilmer'
_symmetry_space_group_name_H-M	'P1'
_symmetry_Int_Tables_number	1
_symmetry_cell_setting	triclinic
loop_
_symmetry_equiv_pos_as_xyz
  x,y,z
_cell_length_a	21.295419
_cell_length_b	21.295417
_cell_length_c	11.169409
_cell_angle_alpha	90.040352
_cell_angle_beta	90.023164
_cell_angle_gamma	90.044503
loop_
_atom_site_label
_atom_site_type_symbol
_atom_site_fract_x
_atom_site_fract_y
_atom_site_fract_z
Zn1	Zn	0.962351	-0.250310	0.678583
Zn2	Zn	1.462351	0.249690	1.178583
Zn3	Zn	0.962257	-0.355598	0.477872
Zn4	Zn	1.462257	0.144402	0.977872
Zn5	Zn	0.857076	-0.250374	0.477906
Zn6	Zn	1.357076	0.249626	0.977906
Zn7	Zn	0.857045	-0.355572	0.678505
Zn8	Zn	1.357045	0.144428	1.178505
O9	O	0.909682	-0.302963	0.578216
O10	O	1.409682	0.197037	1.078216
O11	O	1.050428	-0.264260	0.651977
O12	O	1.550428	0.235740	1.151977
O13	O	0.948279	-0.341677	0.309927
O14	O	1.448279	0.158323	0.809927
O15	O	0.871094	-0.162276	0.504573
O16	O	1.371094	0.337724	1.004573
O17	O	1.050359	-0.341615	0.504515
O18	O	1.550359	0.158385	1.004515
O19	O	0.948438	-0.162229	0.652010
O20	O	1.448438	0.337771	1.152010
O21	O	0.871003	-0.264369	0.309951
O22	O	1.371003	0.235631	0.809951
O23	O	0.768983	-0.264344	0.504497
O24	O	1.268983	0.235656	1.004497
O25	O	0.871040	-0.341571	0.846465
O26	O	1.371040	0.158429	1.346465
O27	O	0.768959	-0.341633	0.651877
O28	O	1.268959	0.158367	1.151877
O29	O	0.948407	-0.264235	0.846523
O30	O	1.448407	0.235765	1.346523
O31	O	0.948248	-0.443684	0.504440
O32	O	1.448248	0.056316	1.004440
O33	O	0.870949	-0.443665	0.651844
O34	O	1.370949	0.056335	1.151844
C35	C	0.746131	-0.302993	0.578183
C36	C	1.246131	0.197007	1.078183
C37	C	0.676162	-0.303022	0.578197
C38	C	1.176162	0.196978	1.078197
C39	C	0.643354	-0.262809	0.655099
C40	C	1.143354	0.237191	1.155099
C41	C	0.577612	-0.262792	0.655103
C42	C	1.077612	0.237208	1.155103
C43	C	0.544680	-0.302999	0.578219
C44	C	1.044680	0.197001	1.078219
C45	C	0.577496	-0.343215	0.501302
C46	C	1.077496	0.156785	1.001302
C47	C	0.643237	-0.343226	0.501291
C48	C	1.143237	0.156774	1.001291
N49	N	0.441405	-0.358078	0.568841
N50	N	0.941405	0.141922	1.068841
N51	N	0.378954	-0.358065	0.568858
N52	N	0.878954	0.141935	1.068858
C53	C	0.346605	-0.302966	0.578245
C54	C	0.846605	0.197034	1.078245
N55	N	0.379067	-0.247879	0.587638
N56	N	0.879067	0.252121	1.087638
N57	N	0.441524	-0.247892	0.587627
N58	N	0.941524	0.252108	1.087627
C59	C	0.473395	-0.302991	0.578222
C60	C	0.973395	0.197009	1.078222
C61	C	0.242511	-0.262732	0.655156
C62	C	0.742511	0.237268	1.155156
C63	C	0.176768	-0.262714	0.655153
C64	C	0.676768	0.237286	1.155153
C65	C	0.176654	-0.343142	0.501357
C66	C	0.676654	0.156858	1.001357
C67	C	0.242396	-0.343155	0.501355
C68	C	0.742396	0.156845	1.001355
C69	C	0.275321	-0.302950	0.578261
C70	C	0.775321	0.197050	1.078261
C71	C	0.909602	-0.466515	0.578156
C72	C	1.409602	0.033485	1.078156
C73	C	0.909625	-0.536483	0.578170
C74	C	1.409625	-0.036483	1.078170
C75	C	0.949875	-0.569268	0.654995
C76	C	1.449875	-0.069268	1.154995
C77	C	0.949898	-0.635011	0.655025
C78	C	1.449898	-0.135011	1.155025
C79	C	0.909676	-0.667965	0.578208
C80	C	1.409676	-0.167965	1.078208
C81	C	0.869418	-0.635173	0.501377
C82	C	1.369418	-0.135173	1.001377
C83	C	0.869393	-0.569431	0.501358
C84	C	1.369393	-0.069431	1.001358
N85	N	0.904918	-0.771238	0.473172
N86	N	1.404918	-0.271238	0.973172
N87	N	0.904946	-0.833689	0.473193
N88	N	1.404946	-0.333689	0.973193
C89	C	0.909750	-0.866040	0.578262
C90	C	1.409750	-0.366040	1.078262
N91	N	0.914537	-0.833580	0.683311
N92	N	1.414537	-0.333580	1.183311
N93	N	0.914512	-0.771123	0.683288
N94	N	1.414512	-0.271123	1.183288
C95	C	0.909699	-0.739251	0.578220
C96	C	1.409699	-0.239251	1.078220
C97	C	0.950026	-0.970111	0.655126
C98	C	1.450026	-0.470111	1.155126
C99	C	0.950044	-1.035854	0.655157
C100	C	1.450044	-0.535854	1.155157
C101	C	0.869568	-1.036015	0.501499
C102	C	1.369568	-0.536015	1.001499
C103	C	0.869547	-0.970273	0.501478
C104	C	1.369547	-0.470273	1.001478
C105	C	0.909779	-0.937324	0.578290
C106	C	1.409779	-0.437324	1.078290
C107	C	1.073872	-0.302933	0.578251
C108	C	1.573872	0.197067	1.078251
C109	C	1.143841	-0.302921	0.578266
C110	C	1.643841	0.197079	1.078266
C111	C	0.909730	-0.302893	0.891259
C112	C	1.409730	0.197107	1.391259
C113	C	0.909751	-0.302864	1.024659
C114	C	1.409751	0.197136	1.524659
C115	C	0.909780	-0.138773	0.578304
C116	C	1.409780	0.361227	1.078304
C117	C	0.909821	-0.068805	0.578341
C118	C	1.409821	0.431195	1.078341
C119	C	0.909670	-0.302987	0.266392
C120	C	1.409670	0.197013	0.766392
C121	C	0.909772	-0.302840	0.132992
C122	C	1.409772	0.197160	0.632992
H123	H	0.550894	-0.230043	0.717724
H124	H	1.050894	0.269957	1.217724
H125	H	0.836668	-0.662009	0.438835
H126	H	1.336668	-0.162009	0.938835
H127	H	0.149841	-0.375880	0.438756
H128	H	0.649841	0.124120	0.938756
H129	H	0.550679	-0.375951	0.438701
H130	H	1.050679	0.124049	0.938701
H131	H	0.669950	-0.375973	0.438666
H132	H	1.169950	0.124027	0.938666
H133	H	0.670157	-0.230071	0.717721
H134	H	1.170157	0.269929	1.217721
H135	H	0.269320	-0.229991	0.717770
H136	H	0.769320	0.270009	1.217770
H137	H	0.982669	-0.661709	0.717599
H138	H	1.482669	-0.161709	1.217599
H139	H	0.150056	-0.229964	0.717773
H140	H	0.650056	0.270036	1.217773
H141	H	0.836815	-1.062846	0.438961
H142	H	1.336815	-0.562846	0.938961
H143	H	0.836615	-0.542737	0.438797
H144	H	1.336615	-0.042737	0.938797
H145	H	0.269109	-0.375903	0.438738
H146	H	0.769109	0.124097	0.938738
H147	H	0.982784	-0.943283	0.717674
H148	H	1.482784	-0.443283	1.217674
H149	H	0.982820	-1.062547	0.717723
H150	H	1.482820	-0.562547	1.217723
H151	H	0.982634	-0.542443	0.717543
H152	H	1.482634	-0.042443	1.217543
H153	H	0.836774	-0.943577	0.438915
H154	H	1.336774	-0.443577	0.938915
