data_functionalizedCrystal
_audit_creation_method	'MofGen! by Chris Wilmer'
_symmetry_space_group_name_H-M	'P1'
_symmetry_Int_Tables_number	1
_symmetry_cell_setting	triclinic
loop_
_symmetry_equiv_pos_as_xyz
  x,y,z
_cell_length_a	11.026607
_cell_length_b	16.109301
_cell_length_c	15.186229
_cell_angle_alpha	90.000638
_cell_angle_beta	89.998222
_cell_angle_gamma	83.976251
loop_
_atom_site_label
_atom_site_type_symbol
_atom_site_fract_x
_atom_site_fract_y
_atom_site_fract_z
O1	O	0.155971	-1.126503	-0.073169
O2	O	0.175382	-0.887350	-0.073183
O3	O	-0.010969	-0.987106	-0.073174
O4	O	0.342322	-1.026747	-0.073178
O5	O	-0.010971	-0.987097	0.073283
O6	O	0.175379	-0.887341	0.073274
O7	O	0.155969	-1.126494	0.073288
Zn8	Zn	0.165674	-1.006916	0.096534
Zn9	Zn	0.165677	-1.006928	-0.096429
O10	O	0.342319	-1.026738	0.073279
C11	C	0.174594	-0.856253	0.000044
C12	C	0.172237	-0.763604	0.000039
C13	C	-0.056178	-0.979788	0.000053
C14	C	-0.190883	-0.957987	0.000049
C15	C	0.156756	-1.157591	0.000059
C16	C	0.159114	-1.250240	0.000059
C17	C	-0.264713	-1.018183	0.000051
C18	C	-0.403938	-0.995652	0.000046
C19	C	0.387529	-1.034056	0.000050
C20	C	0.522234	-1.055857	0.000049
N21	N	0.165670	-1.006914	0.228227
C22	C	0.277333	-0.557080	0.000048
C23	C	0.275108	-0.470027	0.000053
C24	C	0.054010	-0.456769	0.000052
C25	C	0.056235	-0.543821	0.000053
C26	C	0.167900	-0.593975	0.000046
C27	C	0.163450	-0.419869	0.000051
C28	C	0.161038	-0.325481	0.000057
C29	C	0.170314	-0.688369	0.000042
N30	N	0.165671	-1.006935	-0.228122
C31	C	0.083182	-1.051109	0.453954
C32	C	0.083179	-1.051112	0.546144
C33	C	0.248163	-0.962734	0.546145
C34	C	0.248159	-0.962728	0.453957
C35	C	0.165670	-1.006920	0.407864
C36	C	0.165671	-1.006929	0.592241
C37	C	0.165669	-1.006931	0.692198
C38	C	0.165671	-1.006917	0.307901
H39	H	-0.443797	-0.927432	0.000037
O40	O	-0.061800	-0.583625	0.000053
H41	H	-0.139821	-0.534126	0.000046
H42	H	0.016009	-1.087093	0.583668
O43	O	0.337140	-0.915084	0.595865
H44	H	0.431735	-0.939835	0.578155
H45	H	0.016013	-1.087092	0.416427
O46	O	0.393140	-0.430233	0.000060
H47	H	0.397417	-0.390881	-0.059626
O48	O	-0.211928	-1.108547	0.000052
H49	H	-0.154952	-1.121351	0.059750
H50	H	0.315331	-0.926740	0.416428
O51	O	-0.243679	-0.867625	0.000042
H52	H	-0.168419	-0.826957	0.000036
H53	H	-0.437909	-1.124077	-0.000014
O54	O	0.397764	-0.611178	0.000059
H55	H	0.473484	-0.570894	0.000072
H56	H	-0.036904	-0.415924	0.000063
