data_functionalizedCrystal
_audit_creation_method	'MofGen! by Chris Wilmer'
_symmetry_space_group_name_H-M	'P1'
_symmetry_Int_Tables_number	1
_symmetry_cell_setting	triclinic
loop_
_symmetry_equiv_pos_as_xyz
  x,y,z
_cell_length_a	12.759399
_cell_length_b	21.395364
_cell_length_c	21.395355
_cell_angle_alpha	89.974702
_cell_angle_beta	90.014263
_cell_angle_gamma	89.968183
loop_
_atom_site_label
_atom_site_type_symbol
_atom_site_fract_x
_atom_site_fract_y
_atom_site_fract_z
Zn1	Zn	-0.417920	-0.957927	0.354292
Zn2	Zn	-0.593584	-0.957858	0.249523
Zn3	Zn	-0.417971	-0.853142	0.249528
Zn4	Zn	-0.593608	-0.853140	0.354262
O5	O	-0.505771	-0.905517	0.301901
O6	O	-0.441190	-1.045596	0.340405
O7	O	-0.570300	-0.943939	0.161846
O8	O	-0.270943	-0.867072	0.263440
O9	O	-0.570250	-1.045545	0.263432
O10	O	-0.270906	-0.944057	0.340410
O11	O	-0.441278	-0.867005	0.161849
O12	O	-0.441301	-0.765464	0.263410
O13	O	-0.570292	-0.867068	0.441944
O14	O	-0.570341	-0.765462	0.340358
O15	O	-0.441214	-0.944055	0.441966
O16	O	-0.740609	-0.943937	0.263402
O17	O	-0.740626	-0.867001	0.340353
C18	C	-0.505830	-0.742729	0.301881
C19	C	-0.505881	-0.673088	0.301888
C20	C	-0.438791	-0.640423	0.342030
C21	C	-0.438767	-0.574988	0.342031
C22	C	-0.505851	-0.542220	0.301898
C23	C	-0.572945	-0.574892	0.261748
C24	C	-0.572960	-0.640326	0.261743
C25	C	-0.600471	-0.438511	0.296863
C26	C	-0.600457	-0.373078	0.296872
C27	C	-0.505803	-0.340399	0.301909
C28	C	-0.411160	-0.373161	0.306950
C29	C	-0.411175	-0.438595	0.306945
C30	C	-0.505841	-0.471267	0.301898
C31	C	-0.438681	-0.236782	0.342055
C32	C	-0.438655	-0.171345	0.342052
C33	C	-0.572843	-0.171250	0.261772
C34	C	-0.572860	-0.236686	0.261771
C35	C	-0.505780	-0.269448	0.301916
C36	C	-0.778738	-0.905478	0.301887
C37	C	-0.895515	-0.905519	0.301902
C38	C	-0.950333	-0.945626	0.261879
C39	C	-1.060057	-0.945666	0.261900
C40	C	-1.060135	-0.865488	0.341968
C41	C	-0.950413	-0.865451	0.341950
C42	C	-1.209889	-1.019619	0.239607
C43	C	-1.264710	-1.059720	0.199574
C44	C	-1.229135	-1.069357	0.138441
C45	C	-1.138741	-1.038884	0.117329
C46	C	-1.083925	-0.998778	0.157358
C47	C	-1.119498	-0.989153	0.218499
C48	C	-0.800580	-0.791497	0.364237
C49	C	-0.745762	-0.751388	0.404264
C50	C	-0.781334	-0.741745	0.465397
C51	C	-0.871732	-0.772207	0.486508
C52	C	-0.926550	-0.812316	0.446481
C53	C	-0.890970	-0.821960	0.385348
C54	C	-0.231738	-0.905572	0.301929
C55	C	-0.114961	-0.905596	0.301941
C56	C	-0.505750	-0.905569	0.465325
C57	C	-0.505741	-0.905591	0.534966
C58	C	-0.505725	-0.068940	0.301918
C59	C	-0.505738	-0.138581	0.301917
C60	C	-0.505716	-0.905501	0.139114
C61	C	-0.505429	-0.905600	0.069473
C62	C	-0.438527	-0.945676	0.567692
C63	C	-0.438482	-0.945675	0.633127
C64	C	-0.505669	-0.905596	0.665834
C65	C	-0.572887	-0.865503	0.633100
C66	C	-0.572923	-0.865500	0.567666
C67	C	-0.600270	-0.900635	0.769504
C68	C	-0.600236	-0.900642	0.834937
C69	C	-0.505558	-0.905600	0.867655
C70	C	-0.410911	-0.910564	0.834932
C71	C	-0.410947	-0.910561	0.769498
C72	C	-0.505637	-0.905594	0.736787
C73	C	-0.438290	-0.945686	0.971334
C74	C	-0.438243	-0.945681	1.036770
C75	C	-0.572658	-0.865512	1.036742
C76	C	-0.572695	-0.865513	0.971307
C77	C	-0.505513	-0.905604	0.938606
H78	H	-0.627595	-0.666921	0.229054
O79	O	-0.648218	-0.718566	0.381507
H80	H	-0.616069	-0.689065	0.419614
O81	O	-0.645201	-0.135918	0.218482
H82	H	-0.633925	-0.084929	0.225231
O83	O	-0.366397	-0.539750	0.385329
H84	H	-0.377652	-0.488745	0.378583
H85	H	-0.383580	-0.978327	0.944708
O86	O	-0.308790	-0.915905	0.870220
H87	H	-0.269583	-0.960493	0.857689
O88	O	-0.645300	-0.539549	0.218461
H89	H	-0.627150	-0.552085	0.169305
O90	O	-0.645354	-0.822271	0.668371
H91	H	-0.634044	-0.829010	0.719371
H92	H	-0.384054	-0.263458	0.374739
H93	H	-0.677304	-0.896604	0.861575
H94	H	-0.334113	-0.465268	0.311047
H95	H	-0.627352	-0.832872	1.063371
H96	H	-0.900696	-0.764355	0.536288
H97	H	-0.334083	-0.346555	0.311051
O98	O	-0.365747	-0.988919	1.072073
H99	H	-0.319048	-1.016798	1.038338
H100	H	-0.771602	-0.799351	0.314458
H101	H	-1.238855	-1.011783	0.289388
H102	H	-0.384016	-0.144751	0.374739
O103	O	-0.702577	-0.473745	0.291424
H104	H	-0.700817	-0.503528	0.248973
O105	O	-0.645162	-0.822262	0.936003
H106	H	-0.691867	-0.794386	0.969737
O107	O	-0.702392	-0.895280	0.734216
H108	H	-0.768198	-0.891836	0.767961
H109	H	-0.677522	-0.346408	0.292771
H110	H	-0.905637	-0.978252	0.229270
H111	H	-0.627655	-0.832855	0.541021
H112	H	-0.627496	-0.263281	0.229086
O113	O	-1.024053	-0.845177	0.469243
H114	H	-1.004116	-0.875037	0.509986
O115	O	-0.366439	-0.675762	0.385323
H116	H	-0.312930	-0.705584	0.357331
O117	O	-0.986428	-0.965915	0.134599
H118	H	-0.970894	-0.979354	0.085363
O119	O	-1.100370	-1.049275	0.051389
H120	H	-1.153667	-1.082287	0.027103
H121	H	-1.338309	-1.084532	0.216770
O122	O	-1.288248	-1.112616	0.095264
H123	H	-1.357072	-1.132190	0.120215
H124	H	-1.104847	-0.832865	0.374573
O125	O	-0.722372	-0.698457	0.508623
H126	H	-0.641081	-0.715877	0.514853
O127	O	-0.366067	-0.988915	0.532422
H128	H	-0.283606	-0.978186	0.544970
O129	O	-0.365994	-0.988917	0.668437
H130	H	-0.319291	-1.016797	0.634705
O131	O	-0.308873	-0.915912	0.734201
H132	H	-0.243026	-0.919357	0.767940
