data_functionalizedCrystal
_audit_creation_method	'MofGen! by Chris Wilmer'
_symmetry_space_group_name_H-M	'P1'
_symmetry_Int_Tables_number	1
_symmetry_cell_setting	triclinic
loop_
_symmetry_equiv_pos_as_xyz
  x,y,z
_cell_length_a	18.101398
_cell_length_b	12.759399
_cell_length_c	12.759393
_cell_angle_alpha	90.030045
_cell_angle_beta	90.017030
_cell_angle_gamma	90.013954
loop_
_atom_site_label
_atom_site_type_symbol
_atom_site_fract_x
_atom_site_fract_y
_atom_site_fract_z
Zn1	Zn	1.132219	-0.418256	0.593951
Zn2	Zn	1.632219	0.081744	1.093951
Zn3	Zn	1.132142	-0.593975	0.418276
Zn4	Zn	1.632142	-0.093975	0.918276
Zn5	Zn	1.008372	-0.418305	0.418295
Zn6	Zn	1.508372	0.081695	0.918295
Zn7	Zn	1.008362	-0.593888	0.593922
Zn8	Zn	1.508362	-0.093888	1.093922
O9	O	1.070274	-0.506106	0.506111
O10	O	1.570274	-0.006106	1.006111
O11	O	1.235842	-0.441582	0.570652
O12	O	1.735842	0.058418	1.070652
O13	O	1.115696	-0.570729	0.271258
O14	O	1.615696	-0.070729	0.771258
O15	O	1.024838	-0.271277	0.441617
O16	O	1.524838	0.228723	0.941617
O17	O	1.235786	-0.570682	0.441584
O18	O	1.735786	-0.070682	0.941584
O19	O	1.115827	-0.271242	0.570670
O20	O	1.615827	0.228758	1.070670
O21	O	1.024763	-0.441665	0.271272
O22	O	1.524763	0.058335	0.771272
O23	O	0.904738	-0.441580	0.441588
O24	O	1.404738	0.058420	0.941588
O25	O	1.024820	-0.570533	0.740947
O26	O	1.524820	-0.070533	1.240947
O27	O	0.904731	-0.570581	0.570621
O28	O	1.404731	-0.070581	1.070621
O29	O	1.115817	-0.441497	0.740969
O30	O	1.615817	0.058503	1.240969
O31	O	1.115686	-0.740985	0.441556
O32	O	1.615686	-0.240985	0.941556
O33	O	1.024745	-0.740921	0.570602
O34	O	1.524745	-0.240921	1.070602
C35	C	1.070226	-0.779073	0.506097
C36	C	1.570226	-0.279073	1.006097
C37	C	1.070274	-0.895850	0.506125
C38	C	1.570274	-0.395850	1.006125
C39	C	0.877864	-0.506077	0.506104
C40	C	1.377864	-0.006077	1.006104
C41	C	0.795549	-0.506090	0.506126
C42	C	1.295549	-0.006090	1.006126
C43	C	1.022961	-0.950814	0.438893
C44	C	1.522961	-0.450814	0.938893
C45	C	1.023012	-1.060538	0.438910
C46	C	1.523012	-0.560538	0.938910
C47	C	1.117689	-1.060325	0.573400
C48	C	1.617689	-0.560325	1.073400
C49	C	1.117642	-0.950603	0.573377
C50	C	1.617642	-0.450603	1.073377
C51	C	0.975594	-0.896061	0.371641
C52	C	1.475594	-0.396061	0.871641
C53	C	0.928277	-0.951025	0.304405
C54	C	1.428277	-0.451025	0.804405
C55	C	0.928327	-1.060749	0.304421
C56	C	1.428327	-0.560749	0.804421
C57	C	0.975694	-1.115509	0.371675
C58	C	1.475694	-0.615509	0.871675
C59	C	0.644841	-0.506110	0.506124
C60	C	1.144841	-0.006110	1.006124
C61	C	0.613507	-0.587398	0.587182
C62	C	1.113507	-0.087398	1.087182
C63	C	0.527889	-0.587727	0.586942
C64	C	1.027889	-0.087727	1.086942
C65	C	0.496458	-0.506129	0.506124
C66	C	0.996458	-0.006129	1.006124
C67	C	0.527513	-0.535688	0.395269
C68	C	1.027513	-0.035688	0.895269
C69	C	0.613158	-0.536267	0.395738
C70	C	1.113158	-0.036267	0.895738
C71	C	0.613300	-0.395061	0.534953
C72	C	1.113300	0.104939	1.034953
C73	C	0.527650	-0.395669	0.537395
C74	C	1.027650	0.104331	1.037395
C75	C	0.412599	-0.506138	0.506117
C76	C	0.912599	-0.006138	1.006117
C77	C	0.728701	-0.506103	0.506123
C78	C	1.228701	-0.006103	1.006123
C79	C	1.263436	-0.506136	0.506119
C80	C	1.763436	-0.006136	1.006119
C81	C	1.345750	-0.506149	0.506122
C82	C	1.845750	-0.006149	1.006122
C83	C	1.070326	-0.506000	0.780145
C84	C	1.570326	-0.006000	1.280145
C85	C	1.070348	-0.505955	0.896921
C86	C	1.570348	-0.005955	1.396921
C87	C	1.070342	-0.232073	0.506149
C88	C	1.570342	0.267927	1.006149
C89	C	1.070371	-0.115296	0.506165
C90	C	1.570371	0.384704	1.006165
C91	C	1.070265	-0.506136	0.233144
C92	C	1.570265	-0.006136	0.733144
C93	C	1.070386	-0.505885	0.116368
C94	C	1.570386	-0.005885	0.616368
C95	C	1.117737	-0.438759	0.951796
C96	C	1.617737	0.061241	1.451796
C97	C	1.117755	-0.438722	1.061520
C98	C	1.617755	0.061278	1.561520
C99	C	1.022992	-0.573083	1.061485
C100	C	1.522992	-0.073083	1.561485
C101	C	1.022972	-0.573115	0.951763
C102	C	1.522972	-0.073115	1.451763
C103	C	1.165113	-0.371599	0.896955
C104	C	1.665113	0.128401	1.396955
C105	C	1.212507	-0.304399	0.951830
C106	C	1.712507	0.195601	1.451830
C107	C	1.212524	-0.304361	1.061554
C108	C	1.712524	0.195639	1.561554
C109	C	1.165149	-0.371523	1.116403
C110	C	1.665149	0.128477	1.616403
H111	H	0.889716	-0.906434	0.249643
H112	H	1.389716	-0.406434	0.749643
N113	N	0.639604	-0.643772	0.363474
N114	N	1.139604	-0.143772	0.863474
H115	H	0.670673	-0.637850	0.298006
H116	H	1.170673	-0.137850	0.798006
H117	H	0.595590	-0.690285	0.349136
H118	H	1.095590	-0.190285	0.849136
H119	H	0.975736	-1.204854	0.371676
H120	H	1.475736	-0.704854	0.871676
H121	H	1.156252	-1.104919	0.628156
H122	H	1.656252	-0.604919	1.128156
N123	N	1.165095	-0.371620	0.778611
N124	N	1.665095	0.128380	1.278611
H125	H	1.114294	-0.352300	0.752184
H126	H	1.614294	0.147700	1.252184
H127	H	1.178713	-0.443717	0.752244
H128	H	1.678713	0.056283	1.252244
N129	N	1.168673	-0.891311	0.645885
N130	N	1.668673	-0.391311	1.145885
H131	H	1.198684	-0.942644	0.688497
H132	H	1.698684	-0.442644	1.188497
H133	H	1.138491	-0.845785	0.694460
H134	H	1.638491	-0.345785	1.194460
N135	N	0.877298	-1.120039	0.231909
N136	N	1.377298	-0.620039	0.731909
H137	H	0.907431	-1.165557	0.183261
H138	H	1.407431	-0.665557	0.683261
H139	H	0.847295	-1.068637	0.189374
H140	H	1.347295	-0.568637	0.689374
H141	H	0.506894	-0.569286	0.669126
H142	H	1.006894	-0.069286	1.169126
N143	N	1.263610	-0.231973	0.892679
N144	N	1.763610	0.268027	1.392679
H145	H	1.256414	-0.242199	0.814843
H146	H	1.756414	0.257801	1.314843
H147	H	1.316494	-0.248348	0.911872
H148	H	1.816494	0.251652	1.411872
N149	N	1.165164	-0.371470	1.234749
N150	N	1.665164	0.128530	1.734749
H151	H	1.215966	-0.390780	1.261181
H152	H	1.715966	0.109220	1.761181
H153	H	1.127932	-0.424204	1.261083
H154	H	1.627932	0.075796	1.761083
H155	H	0.984372	-0.627816	0.907083
H156	H	1.484372	-0.127816	1.407083
H157	H	1.251109	-0.249636	1.106230
H158	H	1.751109	0.250364	1.606230
H159	H	0.634127	-0.569171	0.669622
H160	H	1.134127	-0.069171	1.169622
N161	N	0.971889	-0.645507	1.120638
N162	N	1.471889	-0.145507	1.620638
H163	H	0.979092	-0.635288	1.198473
H164	H	1.479092	-0.135288	1.698473
H165	H	0.983383	-0.720554	1.101449
H166	H	1.483383	-0.220554	1.601449
N167	N	0.641985	-0.695782	0.562163
N168	N	1.141985	-0.195782	1.062163
H169	H	0.675094	-0.692455	0.498551
H170	H	1.175094	-0.192455	0.998551
H171	H	0.598927	-0.743929	0.547379
H172	H	1.098927	-0.243929	1.047379
H173	H	0.507382	-0.670020	0.567816
H174	H	1.007382	-0.170020	1.067816
H175	H	0.507154	-0.478297	0.333216
H176	H	1.007154	0.021703	0.833216
H177	H	0.975546	-0.806718	0.371621
H178	H	1.475546	-0.306718	0.871621
N179	N	0.640152	-0.314845	0.456767
N180	N	1.140152	0.185155	0.956767
H181	H	0.669479	-0.258948	0.494379
H182	H	1.169479	0.241052	0.994379
H183	H	0.596353	-0.281720	0.420626
H184	H	1.096353	0.218280	0.920626
H185	H	0.633885	-0.479591	0.333272
H186	H	1.133885	0.020409	0.833272
N187	N	0.499074	-0.642017	0.362437
N188	N	0.999074	-0.142017	0.862437
H189	H	0.515478	-0.696448	0.414960
H190	H	1.015478	-0.196448	0.914960
H191	H	0.519370	-0.660249	0.290996
H192	H	1.019370	-0.160249	0.790996
N193	N	0.641938	-0.359284	0.640223
N194	N	1.141938	0.140716	1.140223
H195	H	0.675653	-0.414706	0.670293
H196	H	1.175653	0.085294	1.170293
H197	H	0.598992	-0.347487	0.689342
H198	H	1.098992	0.152513	1.189342
H199	H	0.507356	-0.373371	0.618978
H200	H	1.007356	0.126629	1.118978
H201	H	0.506255	-0.331906	0.482707
H202	H	1.006255	0.168094	0.982707
