data_functionalizedCrystal
_audit_creation_method	'MofGen! by Chris Wilmer'
_symmetry_space_group_name_H-M	'P1'
_symmetry_Int_Tables_number	1
_symmetry_cell_setting	triclinic
loop_
_symmetry_equiv_pos_as_xyz
  x,y,z
_cell_length_a	22.863218
_cell_length_b	22.862586
_cell_length_c	22.858745
_cell_angle_alpha	60.006856
_cell_angle_beta	60.013818
_cell_angle_gamma	59.991795
loop_
_atom_site_label
_atom_site_type_symbol
_atom_site_fract_x
_atom_site_fract_y
_atom_site_fract_z
O1	O	0.081006	-0.854581	0.714630
O2	O	0.581006	-0.354581	1.214630
O3	O	0.030492	-0.665350	0.575795
O4	O	0.530492	-0.165350	1.075795
O5	O	0.150314	-0.785089	0.575706
O6	O	0.650314	-0.285089	1.075706
O7	O	-0.038816	-0.734841	0.714718
O8	O	0.461184	-0.234841	1.214718
O9	O	0.190066	-0.745348	0.615369
O10	O	0.690066	-0.245348	1.115369
O11	O	0.070244	-0.625609	0.615458
O12	O	0.570244	-0.125609	1.115458
O13	O	0.120758	-0.814840	0.754293
O14	O	0.620758	-0.314840	1.254293
Zn15	Zn	0.101812	-0.713914	0.691173
Zn16	Zn	0.601812	-0.213914	1.191173
Zn17	Zn	0.049438	-0.766275	0.638915
Zn18	Zn	0.549438	-0.266275	1.138915
O19	O	0.000936	-0.695100	0.754381
O20	O	0.500936	-0.195100	1.254381
N21	N	0.137558	-0.678184	0.726840
N22	N	0.637558	-0.178184	1.226840
N23	N	0.013698	-0.802011	0.603247
N24	N	0.513698	-0.302011	1.103247
C25	C	0.187224	-0.518558	0.776483
C26	C	0.687224	-0.018558	1.276483
C27	C	0.187235	-0.628552	0.776467
C28	C	0.687235	-0.128552	1.276467
C29	C	0.214753	-0.601061	0.803961
C30	C	0.714753	-0.101061	1.303961
C31	C	0.334724	-0.580392	0.740801
C32	C	0.834724	-0.080392	1.240801
C33	C	0.409718	-0.605392	0.715784
C34	C	0.909718	-0.105392	1.215784
C35	C	0.409746	-0.726732	0.762051
C36	C	0.909746	-0.226732	1.262051
C37	C	0.334754	-0.701730	0.787070
C38	C	0.834754	-0.201730	1.287070
C39	C	0.205297	-0.481049	0.702756
C40	C	0.705297	0.018951	1.202756
C41	C	0.180267	-0.406048	0.677779
C42	C	0.680267	0.093952	1.177779
C43	C	0.119099	-0.406071	0.800259
C44	C	0.619099	0.093929	1.300259
C45	C	0.144128	-0.481071	0.825236
C46	C	0.644128	0.018929	1.325236
C47	C	0.113501	-0.610437	0.794610
C48	C	0.613501	-0.110437	1.294610
C49	C	0.088492	-0.635428	0.769607
C50	C	0.588492	-0.135428	1.269607
C51	C	0.210943	-0.696652	0.708337
C52	C	0.710943	-0.196652	1.208337
C53	C	0.235956	-0.671660	0.733331
C54	C	0.735956	-0.171660	1.233331
C55	C	0.113585	-0.610461	0.923980
C56	C	0.613585	-0.110461	1.423980
C57	C	0.088635	-0.635476	0.998978
C58	C	0.588635	-0.135476	1.498978
C59	C	0.211128	-0.696714	0.998930
C60	C	0.711128	-0.196714	1.498930
C61	C	0.236077	-0.671700	0.923930
C62	C	0.736077	-0.171700	1.423930
C63	C	0.187303	-0.628571	0.886457
C64	C	0.687303	-0.128571	1.386457
C65	C	0.297246	-0.628559	0.776441
C66	C	0.797246	-0.128559	1.276441
C67	C	-0.117796	-0.823430	0.581283
C68	C	0.382204	-0.323430	1.081283
C69	C	-0.007671	-0.823587	0.471446
C70	C	0.492329	-0.323587	0.971446
C71	C	-0.007879	-0.933535	0.581483
C72	C	0.492121	-0.433535	1.081483
C73	C	-0.007861	-0.823583	0.581554
C74	C	0.492139	-0.323583	1.081554
C75	C	-0.035301	-0.851035	0.553942
C76	C	0.464699	-0.351035	1.053942
N77	N	0.446162	-0.678198	0.726752
N78	N	0.946162	-0.178198	1.226752
O79	O	0.691234	-0.690164	0.550341
O80	O	1.191234	-0.190164	1.050341
O81	O	0.691462	-0.829422	0.739388
O82	O	1.191462	-0.329422	1.239388
O83	O	0.691373	-0.829102	0.619485
O84	O	1.191373	-0.329102	1.119485
O85	O	0.691323	-0.690484	0.670244
O86	O	1.191323	-0.190484	1.170244
O87	O	0.572233	-0.789455	0.659278
O88	O	1.072233	-0.289455	1.159278
O89	O	0.572322	-0.789775	0.779181
O90	O	1.072322	-0.289775	1.279181
O91	O	0.572094	-0.650517	0.590134
O92	O	1.072094	-0.150517	1.090134
Zn93	Zn	0.553292	-0.713851	0.690976
Zn94	Zn	1.053292	-0.213851	1.190976
Zn95	Zn	0.710264	-0.766088	0.638547
Zn96	Zn	1.210264	-0.266088	1.138547
O97	O	0.572183	-0.650837	0.710037
O98	O	1.072183	-0.150837	1.210037
N99	N	0.817394	-0.801741	0.602763
N100	N	1.317394	-0.301741	1.102763
N101	N	0.137538	-0.369628	0.726874
N102	N	0.637538	0.130372	1.226874
O103	O	-0.038795	-0.124419	0.714761
O104	O	0.461205	0.375581	1.214761
O105	O	0.150256	-0.124417	0.575522
O106	O	0.650256	0.375583	1.075522
O107	O	0.030331	-0.124432	0.575860
O108	O	0.530331	0.375568	1.075860
O109	O	0.081131	-0.124404	0.714423
O110	O	0.581131	0.375596	1.214423
O111	O	0.070086	-0.243584	0.615573
O112	O	0.570086	0.256416	1.115573
O113	O	0.190011	-0.243569	0.615236
O114	O	0.690011	0.256431	1.115236
O115	O	0.000960	-0.243571	0.754474
O116	O	0.500960	0.256429	1.254474
Zn117	Zn	0.101797	-0.262488	0.691160
Zn118	Zn	0.601797	0.237512	1.191160
Zn119	Zn	0.049419	-0.105500	0.638836
Zn120	Zn	0.549419	0.394500	1.138836
O121	O	0.120885	-0.243556	0.754137
O122	O	0.620885	0.256444	1.254137
N123	N	0.013669	0.001640	0.603123
N124	N	0.513669	0.501640	1.103123
N125	N	0.137749	-0.678230	1.035381
N126	N	0.637749	-0.178230	1.535381
O127	O	0.125655	-0.854547	1.280566
O128	O	0.625655	-0.354547	1.780566
O129	O	-0.013567	-0.665426	1.280590
O130	O	0.486433	-0.165426	1.780590
O131	O	-0.013245	-0.785328	1.280537
O132	O	0.486755	-0.285328	1.780537
O133	O	0.125333	-0.734644	1.280618
O134	O	0.625333	-0.234644	1.780618
O135	O	0.026456	-0.745599	1.161392
O136	O	0.526456	-0.245599	1.661392
O137	O	0.026134	-0.625697	1.161444
O138	O	0.526134	-0.125697	1.661444
O139	O	0.165355	-0.814817	1.161420
O140	O	0.665355	-0.314817	1.661420
Zn141	Zn	0.102048	-0.713949	1.142516
Zn142	Zn	0.602048	-0.213949	1.642516
Zn143	Zn	0.049740	-0.766294	1.299495
Zn144	Zn	0.549740	-0.266294	1.799495
O145	O	0.165033	-0.694915	1.161473
O146	O	0.665033	-0.194915	1.661473
N147	N	0.014038	-0.802020	1.406629
N148	N	0.514038	-0.302020	1.906629
C149	C	0.045634	-0.621635	0.576499
C150	C	0.545634	-0.121635	1.076499
C151	C	0.194019	-0.769918	0.576389
C152	C	0.694019	-0.269918	1.076389
C153	C	0.105616	-0.858555	0.753588
C154	C	0.605616	-0.358555	1.253588
C155	C	-0.042769	-0.710272	0.753698
C156	C	0.457231	-0.210272	1.253698
C157	C	0.631920	-0.828776	0.783102
C158	C	1.131920	-0.328776	1.283102
C159	C	0.631811	-0.828380	0.634616
C160	C	1.131811	-0.328380	1.134616
C161	C	0.631633	-0.651162	0.546422
C162	C	1.131633	-0.151162	1.046422
C163	C	0.631745	-0.651559	0.694907
C164	C	1.131745	-0.151559	1.194907
C165	C	0.193900	-0.183846	0.576155
C166	C	0.693900	0.316154	1.076155
C167	C	0.045437	-0.184012	0.576622
C168	C	0.545437	0.315988	1.076622
C169	C	-0.042734	-0.183994	0.753792
C170	C	0.457266	0.316006	1.253792
C171	C	0.105780	-0.183977	0.753375
C172	C	0.605780	0.316023	1.253375
C173	C	-0.012889	-0.621735	1.221020
C174	C	0.487111	-0.121735	1.721020
C175	C	-0.012483	-0.770211	1.220931
C176	C	0.487517	-0.270211	1.720931
C177	C	0.164678	-0.858508	1.220991
C178	C	0.664678	-0.358508	1.720991
C179	C	0.164280	-0.710023	1.221052
C180	C	0.664280	-0.210023	1.721052
H181	H	0.028603	-0.620718	1.029520
H182	H	0.528603	-0.120718	1.529520
O183	O	0.032367	-0.184073	0.524784
O184	O	0.532367	0.315927	1.024784
C185	C	-0.038054	-0.184070	0.550882
C186	C	0.461946	0.315930	1.050882
H187	H	-0.056884	-0.206602	0.611904
H188	H	0.443116	0.293398	1.111904
H189	H	-0.039086	-0.218692	0.529097
H190	H	0.460914	0.281308	1.029097
H191	H	-0.075133	-0.126914	0.532748
H192	H	0.424867	0.373086	1.032748
H193	H	0.248339	-0.780632	0.532734
H194	H	0.748339	-0.280632	1.032734
O195	O	0.118589	-0.923454	0.805520
O196	O	0.618589	-0.423454	1.305520
C197	C	0.188997	-0.967890	0.779540
C198	C	0.688997	-0.467890	1.279540
H199	H	0.207895	-0.948369	0.718519
H200	H	0.707895	-0.448369	1.218519
H201	H	0.189970	-1.025313	0.801421
H202	H	0.689970	-0.525313	1.301421
H203	H	0.226059	-0.965922	0.797673
H204	H	0.726059	-0.465922	1.297673
O205	O	0.216204	-0.697170	1.221196
O206	O	0.716204	-0.197170	1.721196
C207	C	0.235506	-0.746299	1.282893
C208	C	0.735506	-0.246299	1.782893
H209	H	0.189618	-0.767290	1.326013
H210	H	0.689618	-0.267290	1.826013
H211	H	0.247117	-0.718388	1.303622
H212	H	0.747117	-0.218388	1.803622
H213	H	0.285390	-0.792944	1.268935
H214	H	0.785390	-0.292944	1.768935
H215	H	-0.097027	-0.183996	0.797505
H216	H	0.402973	0.316004	1.297505
O217	O	-0.107601	-0.697370	0.805712
O218	O	0.392399	-0.197370	1.305712
C219	C	-0.152123	-0.626979	0.779805
C220	C	0.347877	-0.126979	1.279805
H221	H	-0.117626	-0.592963	0.733799
H222	H	0.382374	-0.092963	1.233799
H223	H	-0.186441	-0.602989	0.824762
H224	H	0.313559	-0.102989	1.324762
H225	H	-0.188305	-0.628064	0.759907
H226	H	0.311695	-0.128064	1.259907
O227	O	0.632025	-0.880867	0.847903
O228	O	1.132025	-0.380867	1.347903
C229	C	0.632020	-0.855067	0.892496
C230	C	1.132020	-0.355067	1.392496
H231	H	0.654525	-0.809057	0.858055
H232	H	1.154525	-0.309057	1.358055
H233	H	0.666659	-0.900080	0.926790
H234	H	1.166659	-0.400080	1.426790
H235	H	0.574872	-0.835202	0.928701
H236	H	1.074872	-0.335202	1.428701
O237	O	0.631737	-0.880358	0.621778
O238	O	1.131737	-0.380358	1.121778
C239	C	0.570069	-0.899662	0.670898
C240	C	1.070069	-0.399662	1.170898
H241	H	0.549525	-0.885396	0.720558
H242	H	1.049525	-0.385396	1.220558
H243	H	0.583995	-0.959764	0.686897
H244	H	1.083995	-0.459764	1.186897
H245	H	0.526822	-0.869436	0.644958
H246	H	1.026822	-0.369436	1.144958
H247	H	0.248082	-0.183515	0.532333
H248	H	0.748082	0.316485	1.032333
H249	H	0.116656	-0.183968	0.796904
H250	H	0.616656	0.316032	1.296904
O251	O	0.631421	-0.598933	0.481709
O252	O	1.131421	-0.098933	0.981709
C253	C	0.569692	-0.538589	0.491203
C254	C	1.069692	-0.038589	0.991203
H255	H	0.526615	-0.555887	0.543675
H256	H	1.026615	-0.055887	1.043675
H257	H	0.548925	-0.512946	0.444755
H258	H	1.048925	-0.012946	0.944755
H259	H	0.583619	-0.498137	0.492858
H260	H	1.083619	0.001863	0.992858
O261	O	-0.064969	-0.556909	1.221058
O262	O	0.435031	-0.056909	1.721058
C263	C	-0.039178	-0.512331	1.221069
C264	C	0.460822	-0.012331	1.721069
H265	H	0.006810	-0.546789	1.243635
H266	H	0.506810	-0.046789	1.743635
H267	H	-0.084197	-0.478005	1.255665
H268	H	0.415803	0.021995	1.755665
H269	H	-0.019292	-0.476152	1.163916
H270	H	0.480708	0.023848	1.663916
O271	O	-0.064312	-0.783225	1.220810
O272	O	0.435688	-0.283225	1.720810
C273	C	-0.038218	-0.853649	1.220788
C274	C	0.461782	-0.353649	1.720788
H275	H	0.022802	-0.872524	1.198280
H276	H	0.522802	-0.372524	1.698280
H277	H	-0.059993	-0.854652	1.186135
H278	H	0.440007	-0.354652	1.686135
H279	H	-0.056362	-0.890715	1.277930
H280	H	0.443638	-0.390715	1.777930
O281	O	0.216803	-0.923300	1.220886
O282	O	0.716803	-0.423300	1.720886
C283	C	0.233453	-0.936141	1.159152
C284	C	0.733453	-0.436141	1.659152
H285	H	0.186100	-0.902703	1.138570
H286	H	0.686100	-0.402703	1.638570
H287	H	0.245155	-0.995381	1.173009
H288	H	0.745155	-0.495381	1.673009
H289	H	0.282565	-0.920723	1.115958
H290	H	0.782565	-0.420723	1.615958
O291	O	0.066106	-0.568598	0.887691
O292	O	0.566106	-0.068598	1.387691
C293	C	-0.004312	-0.557959	0.936892
C294	C	0.495688	-0.057959	1.436892
H295	H	-0.004142	-0.603181	0.990343
H296	H	0.495858	-0.103181	1.490343
H297	H	-0.039938	-0.557560	0.915238
H298	H	0.460062	-0.057560	1.415238
H299	H	-0.025797	-0.504534	0.944880
H300	H	0.474203	-0.004534	1.444880
O301	O	0.631694	-0.599675	0.707989
O302	O	1.131694	-0.099675	1.207989
C303	C	0.631784	-0.625782	0.778392
C304	C	1.131784	-0.125782	1.278392
H305	H	0.609280	-0.671791	0.812286
H306	H	1.109280	-0.171791	1.312286
H307	H	0.597186	-0.580925	0.802520
H308	H	1.097186	-0.080925	1.302520
H309	H	0.688957	-0.645738	0.777302
H310	H	1.188957	-0.145738	1.277302
H311	H	0.250848	-0.731818	1.029432
H312	H	0.750848	-0.231818	1.529432
H313	H	0.073825	-0.575337	0.829731
H314	H	0.573825	-0.075337	1.329731
O315	O	0.307715	-0.689338	0.887593
O316	O	0.807715	-0.189338	1.387593
C317	C	0.345409	-0.732779	0.936752
C318	C	0.845409	-0.232779	1.436752
H319	H	0.309667	-0.723214	0.990221
H320	H	0.809667	-0.223214	1.490221
H321	H	0.395452	-0.718725	0.915070
H322	H	0.895452	-0.218725	1.415070
H323	H	0.361589	-0.791523	0.944716
H324	H	0.861589	-0.291523	1.444716
H325	H	0.028452	-0.620662	0.784363
H326	H	0.528452	-0.120662	1.284363
H327	H	0.295996	-0.686402	0.718551
H328	H	0.795996	-0.186402	1.218551
O329	O	0.258311	-0.738416	0.666334
O330	O	0.758311	-0.238416	1.166334
C331	C	0.301642	-0.700533	0.603451
C332	C	0.801642	-0.200533	1.103451
H333	H	0.272656	-0.640532	0.593046
H334	H	0.772656	-0.140532	1.093046
H335	H	0.312972	-0.713937	0.556197
H336	H	0.812972	-0.213937	1.056197
H337	H	0.354337	-0.716496	0.610258
H338	H	0.854337	-0.216496	1.110258
O339	O	0.298456	-0.748615	0.821647
O340	O	0.798456	-0.248615	1.321647
C341	C	0.347647	-0.818560	0.825672
C342	C	0.847647	-0.318560	1.325672
H343	H	0.401088	-0.815707	0.781368
H344	H	0.901088	-0.315707	1.281368
H345	H	0.325970	-0.849338	0.818886
H346	H	0.825970	-0.349338	1.318886
H347	H	0.355658	-0.847194	0.880016
H348	H	0.855658	-0.347194	1.380016
H349	H	0.440287	-0.786313	0.770693
H350	H	0.940287	-0.286313	1.270693
H351	H	0.440232	-0.566167	0.686761
H352	H	0.940232	-0.066167	1.186761
H353	H	0.240384	-0.511568	0.663058
H354	H	0.740384	-0.011568	1.163058
O355	O	0.298403	-0.509295	0.730444
O356	O	0.798403	-0.009295	1.230444
C357	C	0.347569	-0.472143	0.693603
C358	C	0.847569	0.027857	1.193603
H359	H	0.401042	-0.510640	0.702242
H360	H	0.901042	-0.010640	1.202242
H361	H	0.325911	-0.426914	0.714842
H362	H	0.825911	0.073086	1.214842
H363	H	0.355512	-0.448833	0.633938
H364	H	0.855512	0.051167	1.133938
H365	H	0.194981	-0.375507	0.617742
H366	H	0.694981	0.124493	1.117742
H367	H	0.084019	-0.375548	0.839959
H368	H	0.584019	0.124452	1.339959
H369	H	0.129402	-0.511613	0.885274
H370	H	0.629402	-0.011613	1.385274
H371	H	0.034845	-0.567275	0.532897
H372	H	0.534845	-0.067275	1.032897
