data_functionalizedCrystal
_audit_creation_method	'MofGen! by Chris Wilmer'
_symmetry_space_group_name_H-M	'P1'
_symmetry_Int_Tables_number	1
_symmetry_cell_setting	triclinic
loop_
_symmetry_equiv_pos_as_xyz
  x,y,z
_cell_length_a	19.288864
_cell_length_b	9.065218
_cell_length_c	8.140239
_cell_angle_alpha	90.001330
_cell_angle_beta	90.015309
_cell_angle_gamma	84.076066
loop_
_atom_site_label
_atom_site_type_symbol
_atom_site_fract_x
_atom_site_fract_y
_atom_site_fract_z
O1	O	0.922774	0.184027	0.137135
O2	O	1.422774	0.684027	0.637135
O3	O	0.720706	0.208852	0.137022
O4	O	1.220706	0.708852	0.637022
O5	O	0.825917	-0.018349	0.137077
O6	O	1.325917	0.481651	0.637077
O7	O	0.817564	0.411228	0.137079
O8	O	1.317564	0.911228	0.637079
O9	O	0.825914	-0.018351	-0.136150
O10	O	1.325914	0.481649	0.363850
O11	O	0.720703	0.208851	-0.136206
O12	O	1.220703	0.708851	0.363794
O13	O	0.922771	0.184025	-0.136092
O14	O	1.422771	0.684025	0.363908
Zn15	Zn	0.821736	0.196438	-0.179530
Zn16	Zn	1.321736	0.696438	0.320470
Zn17	Zn	0.821741	0.196440	0.180459
Zn18	Zn	1.321741	0.696440	0.680459
O19	O	0.817560	0.411227	-0.136148
O20	O	1.317560	0.911227	0.363852
C21	C	0.694822	0.208053	0.000394
C22	C	1.194822	0.708053	0.500394
C23	C	0.617700	0.205655	0.000351
C24	C	1.117700	0.705655	0.500351
C25	C	0.574039	0.338966	0.000377
C26	C	1.074039	0.838966	0.500377
C27	C	0.501574	0.336713	0.000395
C28	C	1.001574	0.836713	0.500395
C29	C	0.472774	0.201141	0.000420
C30	C	0.972774	0.701141	0.500420
C31	C	0.516445	0.067812	0.000384
C32	C	1.016445	0.567812	0.500384
C33	C	0.588908	0.070069	0.000349
C34	C	1.088908	0.570069	0.500349
C35	C	0.363686	0.094567	0.096198
C36	C	0.863686	0.594567	0.596198
C37	C	0.291224	0.092317	0.096243
C38	C	0.791224	0.592317	0.596243
C39	C	0.249274	0.194176	0.000519
C40	C	0.749274	0.694176	0.500519
C41	C	0.279794	0.298311	-0.095228
C42	C	0.779794	0.798311	0.404772
C43	C	0.352257	0.300568	-0.095263
C44	C	0.852257	0.800568	0.404737
C45	C	0.394201	0.198680	0.000456
C46	C	0.894201	0.698680	0.500456
C47	C	0.127038	0.325054	0.000563
C48	C	0.627038	0.825054	0.500563
C49	C	0.054572	0.322796	0.000571
C50	C	0.554572	0.822796	0.500571
C51	C	0.069445	0.053891	0.000576
C52	C	0.569445	0.553891	0.500576
C53	C	0.141909	0.056153	0.000552
C54	C	0.641909	0.556153	0.500552
C55	C	0.170701	0.191739	0.000553
C56	C	0.670701	0.691739	0.500553
C57	C	0.825112	-0.073309	0.000466
C58	C	1.325112	0.426691	0.500466
C59	C	0.822712	-0.237067	0.000472
C60	C	1.322712	0.262933	0.500472
C61	C	0.948655	0.184825	0.000539
C62	C	1.448655	0.684825	0.500539
C63	C	1.025777	0.187222	0.000593
C64	C	1.525777	0.687222	0.500593
C65	C	0.818365	0.466186	0.000467
C66	C	1.318365	0.966186	0.500467
C67	C	0.820765	0.629945	0.000471
C68	C	1.320765	1.129945	0.500471
N69	N	0.821738	0.196435	-0.425212
N70	N	1.321738	0.696435	0.074788
N71	N	0.821744	0.196430	0.426141
N72	N	1.321744	0.696430	0.926141
H73	H	0.045997	-0.056494	0.000698
H74	H	0.545997	0.443506	0.500698
H75	H	0.397836	0.011618	0.174158
H76	H	0.897836	0.511618	0.674158
C77	C	0.484771	-0.081316	0.000414
C78	C	0.984771	0.418684	0.500414
H79	H	0.521156	-0.160392	0.000382
H80	H	1.021156	0.339608	0.500382
H81	H	0.456832	-0.087788	0.095709
H82	H	0.956832	0.412212	0.595709
H83	H	0.456793	-0.087783	-0.094863
H84	H	0.956793	0.412217	0.405137
C85	C	0.605710	0.488100	0.000369
C86	C	1.105710	0.988100	0.500369
H87	H	0.655120	0.470356	0.000359
H88	H	1.155120	0.970356	0.500359
H89	H	0.590760	0.542980	-0.094900
H90	H	1.090760	1.042980	0.405100
H91	H	0.590798	0.542961	0.095673
H92	H	1.090798	1.042961	0.595673
H93	H	0.019024	0.431359	0.000583
H94	H	0.519024	0.931359	0.500583
C95	C	0.453538	0.483361	0.000449
C96	C	0.953538	0.983361	0.500449
H97	H	0.481064	0.564432	0.000459
H98	H	0.981064	1.064432	0.500459
H99	H	0.424936	0.488086	-0.094808
H100	H	0.924936	0.988086	0.405192
H101	H	0.424986	0.488046	0.095765
H102	H	0.924986	0.988046	0.595765
H103	H	0.177459	-0.052404	0.000539
H104	H	0.677459	0.447596	0.500539
H105	H	0.266380	0.007529	0.174213
H106	H	0.766380	0.507529	0.674213
H107	H	0.377104	0.385354	-0.173229
H108	H	0.877104	0.885354	0.326771
H109	H	0.624457	-0.038493	0.000329
H110	H	1.124457	0.461507	0.500329
H111	H	0.245640	0.381255	-0.173177
H112	H	0.745640	0.881255	0.326823
H113	H	0.150482	0.435456	0.000540
H114	H	0.650482	0.935456	0.500540
