data_functionalizedCrystal
_audit_creation_method	'MofGen! by Chris Wilmer'
_symmetry_space_group_name_H-M	'P1'
_symmetry_Int_Tables_number	1
_symmetry_cell_setting	triclinic
loop_
_symmetry_equiv_pos_as_xyz
  x,y,z
_cell_length_a	16.109301
_cell_length_b	10.540539
_cell_length_c	15.186229
_cell_angle_alpha	89.998389
_cell_angle_beta	89.999362
_cell_angle_gamma	83.993486
loop_
_atom_site_label
_atom_site_type_symbol
_atom_site_fract_x
_atom_site_fract_y
_atom_site_fract_z
O1	O	1.104128	0.163159	-0.073169
O2	O	1.604128	0.663159	0.426831
O3	O	0.862191	0.183464	-0.073182
O4	O	1.362191	0.683464	0.426818
O5	O	0.988679	-0.011474	-0.073174
O6	O	1.488679	0.488526	0.426826
O7	O	0.977640	0.358096	-0.073177
O8	O	1.477640	0.858096	0.426823
O9	O	0.988671	-0.011477	0.073283
O10	O	1.488671	0.488523	0.573283
O11	O	0.862182	0.183461	0.073275
O12	O	1.362182	0.683461	0.573275
O13	O	1.104120	0.163156	0.073289
O14	O	1.604120	0.663156	0.573289
Zn15	Zn	0.983150	0.173308	0.096535
Zn16	Zn	1.483150	0.673308	0.596535
Zn17	Zn	0.983161	0.173312	-0.096429
Zn18	Zn	1.483161	0.673312	0.403571
O19	O	0.977631	0.358094	0.073280
O20	O	1.477631	0.858094	0.573280
C21	C	0.831206	0.182640	0.000045
C22	C	1.331206	0.682640	0.500045
C23	C	0.738896	0.180174	0.000039
C24	C	1.238896	0.680174	0.500039
C25	C	0.517296	0.290112	0.000049
C26	C	1.017296	0.790112	0.500049
C27	C	0.430561	0.287785	0.000054
C28	C	0.930561	0.787785	0.500054
C29	C	0.449021	0.056499	0.000053
C30	C	0.949021	0.556499	0.500053
C31	C	0.535754	0.058827	0.000053
C32	C	1.035754	0.558827	0.500053
C33	C	0.569889	0.175637	0.000047
C34	C	1.069889	0.675637	0.500047
C35	C	0.396421	0.170982	0.000052
C36	C	0.896421	0.670982	0.500052
C37	C	0.302380	0.168459	0.000058
C38	C	0.802380	0.668459	0.500058
C39	C	0.663936	0.178162	0.000042
C40	C	1.163936	0.678162	0.500042
C41	C	0.987847	-0.058767	0.000053
C42	C	1.487847	0.441233	0.500053
C43	C	0.985370	-0.199679	0.000048
C44	C	1.485370	0.300321	0.500048
C45	C	0.890460	-0.381753	-0.000286
C46	C	1.390460	0.118247	0.499714
C47	C	0.892971	-0.235171	0.000044
C48	C	1.392971	0.264829	0.500044
C49	C	1.029832	-0.261972	0.083685
C50	C	1.529832	0.238028	0.583685
C51	C	1.026678	-0.408472	0.083755
C52	C	1.526678	0.091528	0.583755
C53	C	1.028567	-0.409014	-0.082794
C54	C	1.528567	0.090986	0.417206
C55	C	1.029418	-0.262044	-0.083900
C56	C	1.529418	0.237956	0.416100
C57	C	1.135104	0.163980	0.000060
C58	C	1.635104	0.663980	0.500060
C59	C	1.227414	0.166446	0.000059
C60	C	1.727414	0.666446	0.500059
C61	C	0.978463	0.405386	0.000052
C62	C	1.478463	0.905386	0.500052
C63	C	0.980940	0.546299	0.000051
C64	C	1.480940	1.046299	0.500051
N65	N	0.983148	0.173305	0.228228
N66	N	1.483148	0.673305	0.728228
N67	N	0.983169	0.173305	-0.228121
N68	N	1.483169	0.673305	0.271879
C69	C	1.039177	0.087015	0.453954
C70	C	1.539177	0.587015	0.953954
C71	C	1.039179	0.087012	0.546144
C72	C	1.539179	0.587012	1.046144
C73	C	0.927134	0.259598	0.546146
C74	C	1.427134	0.759598	1.046146
C75	C	0.927128	0.259594	0.453958
C76	C	1.427128	0.759594	0.953958
C77	C	0.983154	0.173304	0.407864
C78	C	1.483154	0.673304	0.907864
C79	C	0.983163	0.173305	0.592242
C80	C	1.483163	0.673305	1.092242
C81	C	0.983165	0.173303	0.692198
C82	C	1.483165	0.673303	1.192198
C83	C	0.983151	0.173305	0.307902
C84	C	1.483151	0.673305	0.807902
H85	H	0.857986	-0.192068	-0.059910
H86	H	1.357986	0.307932	0.440090
Cl87	Cl	1.134596	-0.228956	0.088497
Cl88	Cl	1.634596	0.271044	0.588497
Cl89	Cl	1.109606	-0.021468	0.396012
Cl90	Cl	1.609606	0.478532	0.896012
H91	H	0.545085	0.385227	0.000050
H92	H	1.045085	0.885227	0.500050
Cl93	Cl	0.364447	0.431704	0.000058
Cl94	Cl	0.864447	0.931704	0.500058
Cl95	Cl	0.406102	-0.090341	0.000055
Cl96	Cl	0.906102	0.409659	0.500055
Cl97	Cl	0.838565	-0.169919	0.092756
Cl98	Cl	1.338565	0.330081	0.592756
Cl99	Cl	1.109608	-0.021472	0.604083
Cl100	Cl	1.609608	0.478528	1.104083
H101	H	0.853964	-0.409832	-0.060263
H102	H	1.353964	0.090168	0.439737
H103	H	0.854106	-0.411444	0.059352
H104	H	1.354106	0.088556	0.559352
Cl105	Cl	0.975931	-0.451293	0.180272
Cl106	Cl	1.475931	0.048707	0.680272
H107	H	1.093130	-0.457388	0.087553
H108	H	1.593130	0.042612	0.587553
H109	H	0.881521	0.329855	0.583684
H110	H	1.381521	0.829855	1.083684
Cl111	Cl	0.856691	0.368074	0.396011
Cl112	Cl	1.356691	0.868074	0.896011
H113	H	0.998939	-0.218934	0.145921
H114	H	1.498939	0.281066	0.645921
H115	H	0.578578	-0.034398	0.000054
H116	H	1.078578	0.465602	0.500054
H117	H	0.998666	-0.440139	-0.146185
H118	H	1.498666	0.059861	0.353815
H119	H	0.996886	-0.220721	-0.145772
H120	H	1.496886	0.279279	0.354228
H121	H	1.096785	-0.238783	-0.088946
H122	H	1.596785	0.261217	0.411054
H123	H	1.095307	-0.457191	-0.083353
H124	H	1.595307	0.042809	0.416647
