data_functionalizedCrystal
_audit_creation_method	'MofGen! by Chris Wilmer'
_symmetry_space_group_name_H-M	'P1'
_symmetry_Int_Tables_number	1
_symmetry_cell_setting	triclinic
loop_
_symmetry_equiv_pos_as_xyz
  x,y,z
_cell_length_a	14.908979
_cell_length_b	13.897441
_cell_length_c	14.908520
_cell_angle_alpha	93.265227
_cell_angle_beta	96.420994
_cell_angle_gamma	93.273185
loop_
_atom_site_label
_atom_site_type_symbol
_atom_site_fract_x
_atom_site_fract_y
_atom_site_fract_z
Zn1	Zn	1.363010	-0.478698	-0.280408
Zn2	Zn	1.863010	0.021302	0.219592
Zn3	Zn	1.354163	-0.327278	-0.431799
Zn4	Zn	1.854163	0.172722	0.068201
Zn5	Zn	1.211637	-0.327284	-0.289191
Zn6	Zn	1.711637	0.172716	0.210809
Zn7	Zn	1.202878	-0.498385	-0.440474
Zn8	Zn	1.702878	0.001615	0.059526
O9	O	1.282922	-0.407911	-0.360468
O10	O	1.782922	0.092089	0.139532
O11	O	1.488500	-0.450370	-0.293185
O12	O	1.988500	0.049630	0.206815
O13	O	1.335220	-0.192302	-0.412926
O14	O	1.835220	0.307698	0.087074
O15	O	1.239085	-0.339132	-0.161356
O16	O	1.739085	0.160868	0.338644
O17	O	1.482000	-0.339123	-0.404411
O18	O	1.982000	0.160877	0.095589
O19	O	1.350298	-0.450376	-0.154903
O20	O	1.850298	0.049624	0.345097
O21	O	1.230506	-0.192306	-0.308153
O22	O	1.730506	0.307694	0.191847
O23	O	1.083811	-0.358222	-0.316564
O24	O	1.583811	0.141778	0.183436
O25	O	1.224157	-0.630751	-0.419196
O26	O	1.724157	-0.130751	0.080804
O27	O	1.077376	-0.483930	-0.427712
O28	O	1.577376	0.016070	0.072288
O29	O	1.341805	-0.616286	-0.301596
O30	O	1.841805	-0.116286	0.198404
O31	O	1.326726	-0.358213	-0.559620
O32	O	1.826726	0.141787	-0.059620
O33	O	1.215578	-0.483925	-0.565993
O34	O	1.715578	0.016075	-0.065993
C35	C	1.047751	-0.423214	-0.374033
C36	C	1.547751	0.076786	0.125967
C37	C	0.947143	-0.429784	-0.379858
C38	C	1.447143	0.070216	0.120142
C39	C	0.802009	-0.504389	-0.446024
C40	C	1.302009	-0.004389	0.053976
C41	C	0.896539	-0.498224	-0.440552
C42	C	1.396539	0.001776	0.059448
C43	C	0.903210	-0.367503	-0.324635
C44	C	1.403210	0.132497	0.175365
C45	C	0.808680	-0.373669	-0.330107
C46	C	1.308680	0.126331	0.169893
C47	C	0.758082	-0.442115	-0.390803
C48	C	1.258082	0.057885	0.109197
C49	C	0.663551	-0.448284	-0.396271
C50	C	1.163551	0.051716	0.103729
C51	C	0.670223	-0.317560	-0.280359
C52	C	1.170223	0.182440	0.219641
C53	C	0.764754	-0.311395	-0.274886
C54	C	1.264754	0.188605	0.225114
C55	C	1.282991	-0.659495	-0.360384
C56	C	1.782991	-0.159495	0.139616
C57	C	1.283020	-0.766705	-0.360348
C58	C	1.783020	-0.266705	0.139652
C59	C	1.283048	-0.962995	-0.360286
C60	C	1.783048	-0.462995	0.139714
C61	C	1.283030	-0.853766	-0.360323
C62	C	1.783030	-0.353766	0.139677
C63	C	1.519011	-0.392550	-0.346850
C64	C	2.019011	0.107450	0.153150
C65	C	1.619618	-0.386004	-0.341048
C66	C	2.119618	0.113996	0.158952
C67	C	1.269266	-0.423224	-0.595649
C68	C	1.769266	0.076776	-0.095649
C69	C	1.263507	-0.429801	-0.696256
C70	C	1.763507	0.070199	-0.196256
C71	C	1.282909	-0.157299	-0.360483
C72	C	1.782909	0.342701	0.139517
C73	C	1.283070	-0.050061	-0.360253
C74	C	1.783070	0.449939	0.139747
C75	C	1.368543	-0.311349	-0.878602
C76	C	1.868543	0.188651	-0.378602
C77	C	1.363135	-0.317526	-0.973131
C78	C	1.863135	0.182474	-0.473131
C79	C	1.247288	-0.448336	-0.979844
C80	C	1.747288	0.051664	-0.479844
C81	C	1.252696	-0.442159	-0.885315
C82	C	1.752696	0.057841	-0.385315
C83	C	1.313325	-0.373662	-0.834697
C84	C	1.813325	0.126338	-0.334697
C85	C	1.318728	-0.367481	-0.740167
C86	C	1.818728	0.132519	-0.240167
C87	C	1.202886	-0.498295	-0.746881
C88	C	1.702886	0.001705	-0.246881
C89	C	1.197477	-0.504472	-0.841410
C90	C	1.697477	-0.004472	-0.341410
C91	C	1.296656	-0.392559	-0.124367
C92	C	1.796656	0.107441	0.375633
C93	C	1.302508	-0.386016	-0.023755
C94	C	1.802508	0.113984	0.476245
H95	H	0.634449	-0.266855	-0.235390
H96	H	1.134449	0.233145	0.264610
H97	H	1.408101	-0.266786	-1.008874
H98	H	1.908101	0.233214	-0.508874
H99	H	1.197933	-0.504108	-1.021072
H100	H	1.697933	-0.004108	-0.521072
C101	C	0.944273	-0.565684	-0.500612
C102	C	1.444273	-0.065684	-0.000612
C103	C	0.995147	-0.511206	-0.555443
C104	C	1.495147	-0.011206	-0.055443
C105	C	1.039122	-0.573319	-0.610793
C106	C	1.539122	-0.073319	-0.110793
H107	H	0.983236	-0.603136	-0.463997
H108	H	1.483236	-0.103136	0.036003
H109	H	0.900623	-0.607313	-0.537593
H110	H	1.400623	-0.107313	-0.037593
H111	H	1.038792	-0.469593	-0.518466
H112	H	1.538792	0.030407	-0.018466
H113	H	0.956205	-0.473756	-0.592076
H114	H	1.456205	0.026244	-0.092076
H115	H	0.995471	-0.614948	-0.647774
H116	H	1.495471	-0.114948	-0.147774
H117	H	1.078080	-0.610768	-0.574172
H118	H	1.578080	-0.110768	-0.074172
H119	H	1.073638	-0.536365	-0.648009
H120	H	1.573638	-0.036365	-0.148009
H121	H	1.368092	-0.311706	-0.698955
H122	H	1.868092	0.188294	-0.198955
C123	C	0.746954	-0.578561	-0.511973
C124	C	1.246954	-0.078561	-0.011973
C125	C	0.689286	-0.531170	-0.573064
C126	C	1.189286	-0.031170	-0.073064
C127	C	0.638551	-0.599469	-0.633822
C128	C	1.138551	-0.099469	-0.133822
H129	H	0.786549	-0.614803	-0.544165
H130	H	1.286549	-0.114803	-0.044165
H131	H	0.712046	-0.620789	-0.479551
H132	H	1.212046	-0.120789	0.020449
H133	H	0.724191	-0.488959	-0.605483
H134	H	1.224191	0.011041	-0.105483
H135	H	0.649672	-0.494933	-0.540899
H136	H	1.149672	0.005067	-0.040899
H137	H	0.603643	-0.641697	-0.601400
H138	H	1.103643	-0.141697	-0.101400
H139	H	0.678153	-0.635707	-0.666006
H140	H	1.178153	-0.135707	-0.166006
H141	H	0.599411	-0.567325	-0.675274
H142	H	1.099411	-0.067325	-0.175274
H143	H	0.944423	-0.311771	-0.275226
H144	H	1.444423	0.188229	0.224774
H145	H	1.148118	-0.560242	-0.882636
H146	H	1.648118	-0.060242	-0.382636
H147	H	1.157920	-0.549032	-0.711124
H148	H	1.657920	-0.049032	-0.211124
H149	H	0.622355	-0.504020	-0.445689
H150	H	1.122355	-0.004020	0.054311
H151	H	1.417903	-0.255570	-0.837389
H152	H	1.917903	0.244430	-0.337389
C153	C	0.819853	-0.237184	-0.209014
C154	C	1.319853	0.262816	0.290986
C155	C	0.912043	-0.245126	-0.216024
C156	C	1.412043	0.254874	0.283976
C157	C	0.962826	-0.176789	-0.155344
C158	C	1.462826	0.323211	0.344656
H159	H	0.803685	-0.174169	-0.223017
H160	H	1.303685	0.325831	0.276983
H161	H	0.807944	-0.248469	-0.149086
H162	H	1.307944	0.251531	0.350914
H163	H	0.923946	-0.233834	-0.275938
H164	H	1.423946	0.266166	0.224062
H165	H	0.928238	-0.308126	-0.202012
H166	H	1.428238	0.191874	0.297988
H167	H	0.950917	-0.188074	-0.095416
H168	H	1.450917	0.311926	0.404584
H169	H	0.946650	-0.113779	-0.169353
H170	H	1.446650	0.386221	0.330647
H171	H	1.025382	-0.182175	-0.160086
H172	H	1.525382	0.317825	0.339914
