data_functionalizedCrystal
_audit_creation_method	'MofGen! by Chris Wilmer'
_symmetry_space_group_name_H-M	'P1'
_symmetry_Int_Tables_number	1
_symmetry_cell_setting	triclinic
loop_
_symmetry_equiv_pos_as_xyz
  x,y,z
_cell_length_a	19.805407
_cell_length_b	25.639239
_cell_length_c	19.805399
_cell_angle_alpha	89.971274
_cell_angle_beta	89.980427
_cell_angle_gamma	90.038686
loop_
_atom_site_label
_atom_site_type_symbol
_atom_site_fract_x
_atom_site_fract_y
_atom_site_fract_z
Zn1	Zn	1.034678	-0.208163	-0.382714
Zn2	Zn	1.368011	0.125170	-0.049381
Zn3	Zn	1.701345	0.458504	0.283952
Zn4	Zn	1.034569	-0.295597	-0.269524
Zn5	Zn	1.367902	0.037736	0.063810
Zn6	Zn	1.701235	0.371070	0.397143
Zn7	Zn	0.921493	-0.208177	-0.269539
Zn8	Zn	1.254826	0.125156	0.063795
Zn9	Zn	1.588159	0.458489	0.397128
Zn10	Zn	0.921432	-0.295569	-0.382670
Zn11	Zn	1.254765	0.037764	-0.049337
Zn12	Zn	1.588099	0.371098	0.283996
O13	O	0.978043	-0.251877	-0.326112
O14	O	1.311376	0.081457	0.007222
O15	O	1.644709	0.414790	0.340555
O16	O	1.129380	-0.219767	-0.367711
O17	O	1.462713	0.113567	-0.034378
O18	O	1.796047	0.446900	0.298955
O19	O	1.019548	-0.284018	-0.174809
O20	O	1.352882	0.049315	0.158524
O21	O	1.686215	0.382648	0.491858
O22	O	0.936578	-0.135010	-0.284576
O23	O	1.269911	0.198323	0.048757
O24	O	1.603245	0.531656	0.382090
O25	O	1.129300	-0.284004	-0.284551
O26	O	1.462633	0.049329	0.048783
O27	O	1.795966	0.382662	0.382116
O28	O	1.019735	-0.135000	-0.367726
O29	O	1.353068	0.198334	-0.034393
O30	O	1.686402	0.531667	0.298941
O31	O	0.936472	-0.219791	-0.174820
O32	O	1.269805	0.113542	0.158513
O33	O	1.603139	0.446875	0.491846
O34	O	0.826768	-0.219764	-0.284534
O35	O	1.160101	0.113569	0.048799
O36	O	1.493435	0.446902	0.382133
O37	O	0.936475	-0.283957	-0.477393
O38	O	1.269808	0.049376	-0.144060
O39	O	1.603141	0.382710	0.189274
O40	O	0.826723	-0.283971	-0.367651
O41	O	1.160057	0.049362	-0.034318
O42	O	1.493390	0.382696	0.299015
O43	O	1.019676	-0.219740	-0.477425
O44	O	1.353009	0.113593	-0.144092
O45	O	1.686343	0.446927	0.189242
O46	O	1.019489	-0.368758	-0.284508
O47	O	1.352823	-0.035425	0.048825
O48	O	1.686156	0.297908	0.382158
O49	O	0.936368	-0.368738	-0.367637
O50	O	1.269702	-0.035405	-0.034303
O51	O	1.603035	0.297929	0.299030
C52	C	0.802187	-0.251867	-0.326090
C53	C	1.135520	0.081467	0.007243
C54	C	1.468853	0.414800	0.340577
C55	C	0.726955	-0.251875	-0.326097
C56	C	1.060288	0.081458	0.007237
C57	C	1.393621	0.414792	0.340570
C58	C	0.691605	-0.285357	-0.369306
C59	C	1.024938	0.047976	-0.035972
C60	C	1.358272	0.381309	0.297361
C61	C	0.620917	-0.285358	-0.369315
C62	C	0.954250	0.047975	-0.035982
C63	C	1.287583	0.381308	0.297351
C64	C	0.585579	-0.251879	-0.326112
C65	C	0.918912	0.081454	0.007222
C66	C	1.252246	0.414788	0.340555
C67	C	0.620934	-0.218393	-0.282901
C68	C	0.954267	0.114941	0.050433
C69	C	1.287600	0.448274	0.383766
C70	C	0.691621	-0.218390	-0.282895
C71	C	1.024954	0.114944	0.050438
C72	C	1.358288	0.448277	0.383772
C73	C	0.335860	-0.218404	-0.282923
C74	C	0.669194	0.114929	0.050410
C75	C	1.002527	0.448262	0.383744
C76	C	0.265168	-0.218411	-0.282931
C77	C	0.598502	0.114922	0.050403
C78	C	0.931835	0.448256	0.383736
C79	C	0.265156	-0.285373	-0.369343
C80	C	0.598489	0.047960	-0.036010
C81	C	0.931823	0.381294	0.297323
C82	C	0.335843	-0.285370	-0.369338
C83	C	0.669177	0.047963	-0.036004
C84	C	1.002510	0.381297	0.297329
C85	C	0.371192	-0.251882	-0.326129
C86	C	0.704525	0.081451	0.007204
C87	C	1.037858	0.414785	0.340537
C88	C	0.447840	-0.251881	-0.326121
C89	C	0.781174	0.081453	0.007213
C90	C	1.114507	0.414786	0.340546
C91	C	0.508932	-0.251883	-0.326117
C92	C	0.842265	0.081451	0.007217
C93	C	1.175599	0.414784	0.340550
C94	C	0.977929	-0.387719	-0.326081
C95	C	1.311262	-0.054386	0.007253
C96	C	1.644596	0.278947	0.340586
C97	C	0.977942	-0.445833	-0.326090
C98	C	1.311275	-0.112500	0.007243
C99	C	1.644609	0.220833	0.340576
C100	C	1.021437	-0.806194	-0.282901
C101	C	1.354770	-0.472861	0.050433
C102	C	1.688103	-0.139528	0.383766
C103	C	1.021463	-0.860799	-0.282910
C104	C	1.354796	-0.527465	0.050424
C105	C	1.688130	-0.194132	0.383757
O106	O	1.058326	-0.889034	-0.246154
O107	O	1.391659	-0.555700	0.087179
O108	O	1.724992	-0.222367	0.420512
N109	N	0.978162	-0.888116	-0.326157
N110	N	1.311495	-0.554782	0.007177
N111	N	1.644828	-0.221449	0.340510
C112	C	0.934836	-0.860825	-0.369402
C113	C	1.268169	-0.527492	-0.036069
C114	C	1.601503	-0.194159	0.297264
O115	O	0.898008	-0.889075	-0.406189
O116	O	1.231341	-0.555741	-0.072855
O117	O	1.564675	-0.222408	0.260478
C118	C	0.934814	-0.806222	-0.369396
C119	C	1.268147	-0.472889	-0.036063
C120	C	1.601481	-0.139556	0.297271
C121	C	0.978113	-0.778908	-0.326141
C122	C	1.311446	-0.445575	0.007192
C123	C	1.644780	-0.112241	0.340525
C124	C	1.064733	-0.778880	-0.239650
C125	C	1.398066	-0.445547	0.093683
C126	C	1.731400	-0.112213	0.427017
C127	C	1.064706	-0.724279	-0.239640
C128	C	1.398039	-0.390946	0.093693
C129	C	1.731372	-0.057613	0.427026
C130	C	1.021382	-0.696993	-0.282881
C131	C	1.354716	-0.363660	0.050452
C132	C	1.688049	-0.030327	0.383786
C133	C	0.978086	-0.724307	-0.326132
C134	C	1.311419	-0.390974	0.007202
C135	C	1.644753	-0.057641	0.340535
C136	C	0.891492	-0.778933	-0.412645
C137	C	1.224826	-0.445600	-0.079311
C138	C	1.558159	-0.112266	0.254022
C139	C	0.891474	-0.724326	-0.412635
C140	C	1.224807	-0.390993	-0.079302
C141	C	1.558141	-0.057659	0.254031
C142	C	0.934773	-0.697012	-0.369381
C143	C	1.268107	-0.363679	-0.036047
C144	C	1.601440	-0.030345	0.297286
C145	C	0.934735	-0.642421	-0.369363
C146	C	1.268068	-0.309087	-0.036029
C147	C	1.601402	0.024246	0.297304
N148	N	0.978036	-0.615104	-0.326116
N149	N	1.311370	-0.281770	0.007218
N150	N	1.644703	0.051563	0.340551
C151	C	1.021360	-0.642390	-0.282875
C152	C	1.354693	-0.309057	0.050458
C153	C	1.688027	0.024277	0.383792
C154	C	0.934887	-0.975496	-0.369413
C155	C	1.268220	-0.642163	-0.036079
C156	C	1.601554	-0.308829	0.297254
C157	C	0.934906	-1.030098	-0.369416
C158	C	1.268239	-0.696765	-0.036083
C159	C	1.601572	-0.363432	0.297251
C160	C	1.021533	-1.030068	-0.282924
C161	C	1.354867	-0.696734	0.050409
C162	C	1.688200	-0.363401	0.383743
C163	C	1.021511	-0.975464	-0.282918
C164	C	1.354845	-0.642131	0.050415
C165	C	1.688178	-0.308798	0.383749
C166	C	0.978188	-0.948179	-0.326166
C167	C	1.311522	-0.614846	0.007168
C168	C	1.644855	-0.281512	0.340501
C169	C	1.021299	-0.527725	-0.282857
C170	C	1.354632	-0.194392	0.050476
C171	C	1.687966	0.138942	0.383809
C172	C	1.021266	-0.473119	-0.282849
C173	C	1.354599	-0.139786	0.050484
C174	C	1.687932	0.193547	0.383817
C175	C	0.934641	-0.473155	-0.369343
C176	C	1.267974	-0.139822	-0.036010
C177	C	1.601307	0.193512	0.297323
C178	C	0.934671	-0.527756	-0.369349
C179	C	1.268004	-0.194422	-0.036016
C180	C	1.601338	0.138911	0.297317
C181	C	0.978006	-0.555039	-0.326104
C182	C	1.311339	-0.221706	0.007230
C183	C	1.644672	0.111628	0.340563
O184	O	0.897893	-0.614151	-0.406101
O185	O	1.231226	-0.280818	-0.072768
O186	O	1.564560	0.052516	0.260565
O187	O	1.058188	-0.614134	-0.246101
O188	O	1.391522	-0.280801	0.087232
O189	O	1.724855	0.052533	0.420566
C190	C	1.154585	-0.251887	-0.326134
C191	C	1.487919	0.081446	0.007199
C192	C	1.821252	0.414780	0.340532
C193	C	1.229817	-0.251891	-0.326144
C194	C	1.563151	0.081442	0.007190
C195	C	1.896484	0.414775	0.340523
C196	C	0.978081	-0.251844	-0.502655
C197	C	1.311414	0.081490	-0.169321
C198	C	1.644747	0.414823	0.164012
C199	C	0.978097	-0.251830	-0.577887
C200	C	1.311430	0.081504	-0.244553
C201	C	1.644764	0.414837	0.088780
C202	C	0.978175	-0.115504	-0.326158
C203	C	1.311509	0.217830	0.007176
C204	C	1.644842	0.551163	0.340509
C205	C	0.978232	-0.057389	-0.326177
C206	C	1.311565	0.275944	0.007156
C207	C	1.644899	0.609277	0.340489
C208	C	1.021421	-0.218390	-0.613249
C209	C	1.354754	0.114943	-0.279915
C210	C	1.688087	0.448276	0.053418
C211	C	1.021428	-0.218375	-0.683937
C212	C	1.354761	0.114958	-0.350604
C213	C	1.688094	0.448292	-0.017270
C214	C	0.978114	-0.251802	-0.719262
C215	C	1.311447	0.081531	-0.385929
C216	C	1.644780	0.414864	-0.052596
C217	C	0.934785	-0.285243	-0.683895
C218	C	1.268118	0.048090	-0.350562
C219	C	1.601452	0.381423	-0.017229
C220	C	0.934775	-0.285255	-0.613208
C221	C	1.268108	0.048078	-0.279875
C222	C	1.601442	0.381411	0.053459
C223	C	0.934823	-0.285194	-0.968969
C224	C	1.268157	0.048139	-0.635635
C225	C	1.601490	0.381472	-0.302302
C226	C	0.934838	-0.285181	-1.039661
C227	C	1.268171	0.048152	-0.706328
C228	C	1.601504	0.381486	-0.372994
C229	C	1.021476	-0.218314	-1.039698
C230	C	1.354809	0.115019	-0.706364
C231	C	1.688143	0.448353	-0.373031
C232	C	1.021466	-0.218326	-0.969011
C233	C	1.354799	0.115007	-0.635677
C234	C	1.688133	0.448340	-0.302344
C235	C	0.978135	-0.251765	-0.933650
C236	C	1.311468	0.081568	-0.600316
C237	C	1.644802	0.414902	-0.266983
C238	C	0.978127	-0.251780	-0.857001
C239	C	1.311460	0.081553	-0.523668
C240	C	1.644794	0.414886	-0.190335
C241	C	0.978125	-0.251790	-0.795909
C242	C	1.311458	0.081543	-0.462576
C243	C	1.644791	0.414877	-0.129243
C244	C	0.978044	-0.251872	-0.150256
C245	C	1.311377	0.081462	0.183078
C246	C	1.644711	0.414795	0.516411
C247	C	0.978159	-0.251738	-0.075024
C248	C	1.311492	0.081595	0.258309
C249	C	1.644826	0.414928	0.591642
H250	H	0.364633	-0.191140	-0.247735
H251	H	0.697966	0.142193	0.085598
H252	H	1.031299	0.475526	0.418931
C253	C	1.069194	-1.060087	-0.235362
C254	C	1.402527	-0.726754	0.097972
C255	C	1.735861	-0.393421	0.431305
H256	H	1.094978	-1.036002	-0.209597
H257	H	1.428312	-0.702669	0.123736
H258	H	1.761645	-0.369336	0.457070
H259	H	1.098675	-1.081353	-0.261288
H260	H	1.432009	-0.748019	0.072046
H261	H	1.765342	-0.414686	0.405379
H262	H	1.043324	-1.081422	-0.205848
H263	H	1.376658	-0.748089	0.127485
H264	H	1.709991	-0.414755	0.460819
C265	C	0.887191	-0.321951	-1.078521
C266	C	1.220524	0.011382	-0.745187
C267	C	1.553857	0.344716	-0.411854
H268	H	0.893410	-0.317158	-1.125684
H269	H	1.226744	0.016175	-0.792350
H270	H	1.560077	0.349509	-0.459017
H271	H	0.841718	-0.314298	-1.066935
H272	H	1.175052	0.019035	-0.733602
H273	H	1.508385	0.352368	-0.400269
H274	H	0.897062	-0.357085	-1.066925
H275	H	1.230396	-0.023752	-0.733591
H276	H	1.563729	0.309581	-0.400258
H277	H	1.056525	-0.450882	-0.247624
H278	H	1.389858	-0.117549	0.085710
H279	H	1.723192	0.215785	0.419043
C280	C	1.112383	-0.808889	-0.192073
C281	C	1.445717	-0.475556	0.141260
C282	C	1.779050	-0.142222	0.474593
H283	H	1.106204	-0.845322	-0.198263
H284	H	1.439537	-0.511989	0.135070
H285	H	1.772871	-0.178656	0.468403
H286	H	1.102491	-0.799960	-0.146591
H287	H	1.435824	-0.466627	0.186742
H288	H	1.769157	-0.133294	0.520076
H289	H	1.157855	-0.799901	-0.202017
H290	H	1.491188	-0.466567	0.131316
H291	H	1.824521	-0.133234	0.464649
C292	C	0.582065	-0.181568	-0.235376
C293	C	0.915398	0.151766	0.097958
C294	C	1.248731	0.485099	0.431291
H295	H	0.534903	-0.186369	-0.241561
H296	H	0.868236	0.146965	0.091772
H297	H	1.201569	0.480298	0.425106
H298	H	0.593679	-0.146447	-0.245360
H299	H	0.927012	0.186886	0.087973
H300	H	1.260346	0.520220	0.421307
H301	H	0.593627	-0.189178	-0.189878
H302	H	0.926960	0.144155	0.143455
H303	H	1.260293	0.477489	0.476788
H304	H	1.056587	-0.549933	-0.247644
H305	H	1.389921	-0.216599	0.085689
H306	H	1.723254	0.116734	0.419022
H307	H	0.364612	-0.312634	-0.404516
H308	H	0.697945	0.020699	-0.071183
H309	H	1.031278	0.354033	0.262151
H310	H	1.056708	-0.191146	-0.712726
H311	H	1.390041	0.142187	-0.379392
H312	H	1.723375	0.475520	-0.046059
C313	C	0.226274	-0.322188	-0.416904
C314	C	0.559608	0.011146	-0.083570
C315	C	0.892941	0.344479	0.249763
H316	H	0.257445	-0.342124	-0.442634
H317	H	0.590778	-0.008791	-0.109301
H318	H	0.924112	0.324543	0.224032
H319	H	0.198741	-0.302203	-0.446438
H320	H	0.532075	0.031131	-0.113105
H321	H	0.865408	0.364464	0.220228
H322	H	0.198657	-0.344952	-0.390980
H323	H	0.531991	-0.011618	-0.057647
H324	H	0.865324	0.321715	0.275687
C325	C	1.112322	-0.694238	-0.192049
C326	C	1.445655	-0.360905	0.141284
C327	C	1.778989	-0.027572	0.474618
H328	H	1.106101	-0.657809	-0.198222
H329	H	1.439434	-0.324476	0.135111
H330	H	1.772768	0.008858	0.468444
H331	H	1.157801	-0.703144	-0.201985
H332	H	1.491134	-0.369810	0.131348
H333	H	1.824468	-0.036477	0.464682
H334	H	1.102427	-0.703226	-0.146568
H335	H	1.435761	-0.369893	0.186766
H336	H	1.769094	-0.036559	0.520099
H337	H	1.056769	-0.953228	-0.247697
H338	H	1.390103	-0.619895	0.085637
H339	H	1.723436	-0.286562	0.418970
C340	C	0.887272	-1.060138	-0.416992
C341	C	1.220606	-0.726805	-0.083658
C342	C	1.553939	-0.393472	0.249675
H343	H	0.861472	-1.036062	-0.442744
H344	H	1.194806	-0.702729	-0.109411
H345	H	1.528139	-0.369396	0.223923
H346	H	0.857805	-1.081477	-0.391081
H347	H	1.191138	-0.748143	-0.057747
H348	H	1.524471	-0.414810	0.275586
H349	H	0.913160	-1.081401	-0.446516
H350	H	1.246493	-0.748068	-0.113183
H351	H	1.579827	-0.414735	0.220150
C352	C	0.730509	-0.181560	-0.235366
C353	C	1.063842	0.151773	0.097967
C354	C	1.397175	0.485107	0.431300
H355	H	0.777668	-0.186349	-0.241555
H356	H	1.111001	0.146985	0.091778
H357	H	1.444335	0.480318	0.425111
H358	H	0.718901	-0.189163	-0.189871
H359	H	1.052234	0.144170	0.143462
H360	H	1.385568	0.477503	0.476795
H361	H	0.718955	-0.146440	-0.245363
H362	H	1.052288	0.186894	0.087971
H363	H	1.385622	0.520227	0.421304
C364	C	0.887148	-0.321965	-0.930081
C365	C	1.220481	0.011369	-0.596747
C366	C	1.553814	0.344702	-0.263414
H367	H	0.861354	-0.341870	-0.961245
H368	H	1.194687	-0.008536	-0.627912
H369	H	1.528021	0.324797	-0.294578
H370	H	0.857676	-0.301956	-0.902517
H371	H	1.191009	0.031378	-0.569184
H372	H	1.524343	0.364711	-0.235851
H373	H	0.912998	-0.344759	-0.902493
H374	H	1.246332	-0.011426	-0.569160
H375	H	1.579665	0.321907	-0.235827
C376	C	0.887141	-0.322013	-0.722751
C377	C	1.220474	0.011320	-0.389418
C378	C	1.553808	0.344654	-0.056084
H379	H	0.893356	-0.317221	-0.769915
H380	H	1.226690	0.016112	-0.436581
H381	H	1.560023	0.349446	-0.103248
H382	H	0.841669	-0.314362	-0.711162
H383	H	1.175003	0.018972	-0.377828
H384	H	1.508336	0.352305	-0.044495
H385	H	0.897016	-0.357147	-0.711154
H386	H	1.230350	-0.023813	-0.377821
H387	H	1.563683	0.309520	-0.044487
C388	C	0.887221	-0.945487	-0.416980
C389	C	1.220554	-0.612153	-0.083647
C390	C	1.553888	-0.278820	0.249686
H391	H	0.861435	-0.969580	-0.442730
H392	H	1.194768	-0.636246	-0.109397
H393	H	1.528101	-0.302913	0.223936
H394	H	0.913080	-0.924151	-0.446497
H395	H	1.246413	-0.590818	-0.113164
H396	H	1.579746	-0.257485	0.220170
H397	H	0.857732	-0.924223	-0.391054
H398	H	1.191065	-0.590890	-0.057721
H399	H	1.524398	-0.257556	0.275612
H400	H	0.899489	-0.312480	-0.584417
H401	H	1.232823	0.020853	-0.251084
H402	H	1.566156	0.354187	0.082249
H403	H	0.856230	-0.801163	-0.447864
H404	H	1.189563	-0.467830	-0.114531
H405	H	1.522897	-0.134496	0.218803
H406	H	0.856196	-0.702113	-0.447855
H407	H	1.189529	-0.368780	-0.114522
H408	H	1.522863	-0.035446	0.218812
H409	H	0.720372	-0.312622	-0.404485
H410	H	1.053705	0.020711	-0.071152
H411	H	1.387038	0.354045	0.262182
H412	H	0.899415	-0.549996	-0.404573
H413	H	1.232749	-0.216663	-0.071239
H414	H	1.566082	0.116671	0.262094
H415	H	0.899365	-0.450930	-0.404548
H416	H	1.232698	-0.117597	-0.071214
H417	H	1.566032	0.215737	0.262119
H418	H	1.056694	-0.191171	-0.584492
H419	H	1.390028	0.142162	-0.251159
H420	H	1.723361	0.475495	0.082175
H421	H	0.592138	-0.312624	-0.404500
H422	H	0.925471	0.020710	-0.071167
H423	H	1.258805	0.354043	0.262167
C424	C	0.226298	-0.181578	-0.235410
C425	C	0.559631	0.151755	0.097923
C426	C	0.892965	0.485089	0.431257
H427	H	0.257474	-0.161629	-0.209681
H428	H	0.590807	0.171704	0.123652
H429	H	0.924140	0.505038	0.456986
H430	H	0.198694	-0.201547	-0.205872
H431	H	0.532028	0.131786	0.127461
H432	H	0.865361	0.465120	0.460794
H433	H	0.198753	-0.158827	-0.261368
H434	H	0.532086	0.174507	0.071966
H435	H	0.865419	0.507840	0.405299
C436	C	1.069109	-0.181557	-0.930153
C437	C	1.402442	0.151777	-0.596820
C438	C	1.735775	0.485110	-0.263487
H439	H	1.062901	-0.186356	-0.882990
H440	H	1.396235	0.146977	-0.549657
H441	H	1.729568	0.480311	-0.216323
H442	H	1.059239	-0.146425	-0.941748
H443	H	1.392572	0.186909	-0.608415
H444	H	1.725906	0.520242	-0.275082
H445	H	1.114583	-0.189211	-0.941743
H446	H	1.447917	0.144122	-0.608409
H447	H	1.781250	0.477455	-0.275076
C448	C	1.069135	-0.181528	-1.078596
C449	C	1.402469	0.151805	-0.745263
C450	C	1.735802	0.485139	-0.411930
H451	H	1.062935	-0.186303	-1.125754
H452	H	1.396269	0.147031	-0.792421
H453	H	1.729602	0.480364	-0.459088
H454	H	1.114602	-0.189187	-1.067018
H455	H	1.447936	0.144147	-0.733684
H456	H	1.781269	0.477480	-0.400351
H457	H	1.059260	-0.146398	-1.067020
H458	H	1.392594	0.186935	-0.733687
H459	H	1.725927	0.520269	-0.400354
