data_functionalizedCrystal
_audit_creation_method	'MofGen! by Chris Wilmer'
_symmetry_space_group_name_H-M	'P1'
_symmetry_Int_Tables_number	1
_symmetry_cell_setting	triclinic
loop_
_symmetry_equiv_pos_as_xyz
  x,y,z
_cell_length_a	25.639239
_cell_length_b	18.050591
_cell_length_c	25.639234
_cell_angle_alpha	90.029669
_cell_angle_beta	89.975095
_cell_angle_gamma	89.968232
loop_
_atom_site_label
_atom_site_type_symbol
_atom_site_fract_x
_atom_site_fract_y
_atom_site_fract_z
Zn1	Zn	-0.208279	-1.135280	-0.295747
Zn2	Zn	-0.295707	-1.135156	-0.208311
Zn3	Zn	-0.208277	-1.011087	-0.208310
Zn4	Zn	-0.295675	-1.011025	-0.295700
O5	O	-0.251985	-1.073137	-0.252017
O6	O	-0.219891	-1.239188	-0.284168
O7	O	-0.284122	-1.118672	-0.135146
O8	O	-0.135112	-1.027640	-0.219928
O9	O	-0.284124	-1.239097	-0.219929
O10	O	-0.135114	-1.118884	-0.284167
O11	O	-0.219888	-1.027519	-0.135145
O12	O	-0.219856	-0.907154	-0.219883
O13	O	-0.284069	-1.027533	-0.368872
O14	O	-0.284067	-0.907108	-0.284088
O15	O	-0.219860	-1.118823	-0.368906
O16	O	-0.368868	-1.118611	-0.219884
O17	O	-0.368844	-1.027413	-0.284089
C18	C	-0.251958	-0.880185	-0.251981
C19	C	-0.251959	-0.797639	-0.251978
C20	C	-0.387827	-1.073012	-0.251993
C21	C	-0.445941	-1.073026	-0.252000
C22	C	-0.216994	-0.598192	-0.217136
C23	C	-0.264680	-0.548758	-0.204266
C24	C	-0.251970	-0.646509	-0.251996
C25	C	-0.204295	-0.548861	-0.264859
C26	C	-0.251976	-0.500523	-0.252012
C27	C	-0.299681	-0.598162	-0.239101
C28	C	-0.239264	-0.598269	-0.299716
C29	C	-0.286983	-0.548858	-0.286864
C30	C	-0.251966	-0.730607	-0.251985
C31	C	-0.251985	-0.416427	-0.252023
C32	C	-0.806304	-1.120748	-0.218643
C33	C	-0.860908	-1.120777	-0.218650
O34	O	-0.889145	-1.161222	-0.190262
N35	N	-0.888224	-1.073267	-0.252052
C36	C	-0.860932	-1.025732	-0.285453
O37	O	-0.889179	-0.985324	-0.313865
C38	C	-0.806328	-1.025707	-0.285448
C39	C	-0.779016	-1.073214	-0.252040
C40	C	-0.778992	-1.168252	-0.185238
C41	C	-0.724391	-1.168222	-0.185230
C42	C	-0.697103	-1.120688	-0.218628
C43	C	-0.724415	-1.073184	-0.252032
C44	C	-0.779037	-0.978175	-0.318851
C45	C	-0.724430	-0.978155	-0.318844
C46	C	-0.697118	-1.025663	-0.285436
C47	C	-0.642527	-1.025620	-0.285422
N48	N	-0.615212	-1.073130	-0.252020
C49	C	-0.642500	-1.120664	-0.218623
C50	C	-0.975602	-1.025787	-0.285461
C51	C	-1.030205	-1.025808	-0.285463
C52	C	-1.030178	-1.120854	-0.218661
C53	C	-0.975574	-1.120830	-0.218656
C54	C	-0.948287	-1.073297	-0.252059
C55	C	-0.527835	-1.120597	-0.218609
C56	C	-0.473229	-1.120560	-0.218603
C57	C	-0.473261	-1.025517	-0.285407
C58	C	-0.527862	-1.025550	-0.285412
C59	C	-0.555147	-1.073096	-0.252011
O60	O	-0.614256	-0.985198	-0.313797
O61	O	-0.614245	-1.161071	-0.190220
C62	C	-0.115612	-1.073282	-0.252053
C63	C	-0.057497	-1.073345	-0.252068
C64	C	-0.251961	-1.073185	-0.388390
C65	C	-0.251951	-1.073206	-0.446504
C66	C	-0.252002	-0.266842	-0.252044
C67	C	-0.251987	-0.349388	-0.252032
C68	C	-0.218441	-1.025763	-0.806873
C69	C	-0.218432	-1.025767	-0.861477
O70	O	-0.189999	-0.985393	-0.889718
N71	N	-0.251869	-1.073230	-0.888787
C72	C	-0.285321	-1.120687	-0.861490
O73	O	-0.313761	-1.161058	-0.889733
C74	C	-0.285332	-1.120679	-0.806886
C75	C	-0.251890	-1.073218	-0.779579
C76	C	-0.185002	-0.978306	-0.779565
C77	C	-0.185011	-0.978303	-0.724965
C78	C	-0.218459	-1.025758	-0.697671
C79	C	-0.251899	-1.073215	-0.724979
C80	C	-0.318787	-1.168131	-0.779590
C81	C	-0.318796	-1.168119	-0.724983
C82	C	-0.285353	-1.120658	-0.697676
C83	C	-0.285356	-1.120667	-0.643085
N84	N	-0.251919	-1.073204	-0.615775
C85	C	-0.218471	-1.025749	-0.643068
C86	C	-0.285294	-1.120700	-0.976160
C87	C	-0.285280	-1.120713	-1.030763
C88	C	-0.218392	-1.025792	-1.030746
C89	C	-0.218404	-1.025783	-0.976143
C90	C	-0.251857	-1.073237	-0.948850
C91	C	-0.218492	-1.025747	-0.528403
C92	C	-0.218502	-1.025751	-0.473798
C93	C	-0.285392	-1.120669	-0.473819
C94	C	-0.285380	-1.120669	-0.528419
C95	C	-0.251928	-1.073202	-0.555710
O96	O	-0.313776	-1.161019	-0.614809
O97	O	-0.190041	-0.985378	-0.614818
C98	C	-0.251971	-1.073132	-0.116175
C99	C	-0.251833	-1.073255	-0.058061
H100	H	-0.187450	-0.619853	-0.187627
H101	H	-0.163980	-0.527165	-0.275714
H102	H	-0.312533	-1.159352	-0.953942
H103	H	-0.275433	-0.527012	-0.163916
H104	H	-0.228497	-0.620033	-0.340054
H105	H	-0.191267	-0.987103	-0.451567
H106	H	-0.191252	-0.987096	-0.550617
H107	H	-0.801204	-1.206963	-0.158042
H108	H	-0.340013	-0.619728	-0.228183
H109	H	-0.316597	-0.527333	-0.316351
H110	H	-0.702156	-1.206908	-0.158028
H111	H	-0.191157	-0.987151	-1.052978
H112	H	-0.157780	-0.939652	-0.702736
H113	H	-0.450993	-1.159246	-0.191396
H114	H	-0.451035	-0.986813	-0.312597
H115	H	-0.550044	-1.159315	-0.191412
H116	H	-0.953340	-1.159514	-0.191453
H117	H	-1.052405	-1.159561	-0.191469
H118	H	-0.346020	-1.206779	-0.801814
H119	H	-1.052438	-0.987116	-0.312662
H120	H	-0.953388	-0.987074	-0.312660
H121	H	-0.801266	-0.939486	-0.346053
H122	H	-0.702216	-0.939449	-0.346046
H123	H	-0.550101	-0.986868	-0.312617
H124	H	-0.191171	-0.987137	-0.953913
H125	H	-0.157764	-0.939659	-0.801782
H126	H	-0.312507	-1.159368	-1.052991
H127	H	-0.346035	-1.206767	-0.702764
H128	H	-0.312606	-1.159323	-0.550654
H129	H	-0.312623	-1.159308	-0.451587
