data_functionalizedCrystal
_audit_creation_method	'MofGen! by Chris Wilmer'
_symmetry_space_group_name_H-M	'P1'
_symmetry_Int_Tables_number	1
_symmetry_cell_setting	triclinic
loop_
_symmetry_equiv_pos_as_xyz
  x,y,z
_cell_length_a	16.625546
_cell_length_b	12.759401
_cell_length_c	12.759393
_cell_angle_alpha	90.021396
_cell_angle_beta	89.963756
_cell_angle_gamma	89.976710
loop_
_atom_site_label
_atom_site_type_symbol
_atom_site_fract_x
_atom_site_fract_y
_atom_site_fract_z
Zn1	Zn	-0.320936	-1.606198	-0.594030
Zn2	Zn	-0.455793	-1.606069	-0.418336
Zn3	Zn	-0.320980	-1.430500	-0.418360
Zn4	Zn	-0.455732	-1.430465	-0.593968
O5	O	-0.388360	-1.518308	-0.506174
O6	O	-0.338832	-1.753202	-0.570739
O7	O	-0.437953	-1.582740	-0.271318
O8	O	-0.208142	-1.453876	-0.441699
O9	O	-0.437911	-1.753107	-0.441658
O10	O	-0.208109	-1.582960	-0.570763
O11	O	-0.338907	-1.453751	-0.271336
O12	O	-0.338848	-1.283475	-0.441640
O13	O	-0.437807	-1.453816	-0.740998
O14	O	-0.437850	-1.283449	-0.570658
O15	O	-0.338773	-1.582926	-0.741043
O16	O	-0.568617	-1.582706	-0.441598
O17	O	-0.568573	-1.453690	-0.570634
C18	C	-0.388348	-1.245341	-0.506145
C19	C	-0.388362	-1.128564	-0.506158
C20	C	-0.439990	-1.073716	-0.573231
C21	C	-0.439992	-0.963992	-0.573249
C22	C	-0.336735	-0.963974	-0.439112
C23	C	-0.336730	-1.073696	-0.439101
C24	C	-0.597851	-1.518209	-0.506130
C25	C	-0.687472	-1.518262	-0.506146
C26	C	-1.015648	-1.518446	-0.506255
C27	C	-0.924339	-1.518391	-0.506228
C28	C	-0.851563	-1.518353	-0.506200
C29	C	-0.760249	-1.518300	-0.506174
C30	C	-0.178051	-1.518437	-0.506241
C31	C	-0.088430	-1.518491	-0.506269
C32	C	-0.388279	-1.518382	-0.780207
C33	C	-0.388244	-1.518413	-0.896984
C34	C	-0.388371	-0.792341	-0.506196
C35	C	-0.388369	-0.909118	-0.506188
C36	C	-0.336661	-1.451272	-0.951855
C37	C	-0.336636	-1.451297	-1.061579
C38	C	-0.439780	-1.585611	-1.061552
C39	C	-0.439808	-1.585581	-0.951830
C40	C	-0.388383	-1.518296	-0.233206
C41	C	-0.388191	-1.518468	-0.116430
H42	H	-0.294683	-1.118354	-0.384482
C43	C	-0.279946	-1.377377	-0.891529
N44	N	-0.237229	-1.321713	-0.846094
H45	H	-0.481816	-1.640257	-0.907152
H46	H	-0.294700	-0.919286	-0.384515
H47	H	-0.482032	-0.919340	-0.627868
C48	C	-0.279886	-1.377442	-1.121932
N49	N	-0.237138	-1.321813	-1.167389
H50	H	-0.481760	-1.640298	-1.106220
H51	H	-0.482030	-1.118387	-0.627836
