data_functionalizedCrystal
_audit_creation_method	'MofGen! by Chris Wilmer'
_symmetry_space_group_name_H-M	'P1'
_symmetry_Int_Tables_number	1
_symmetry_cell_setting	triclinic
loop_
_symmetry_equiv_pos_as_xyz
  x,y,z
_cell_length_a	16.974885
_cell_length_b	16.992695
_cell_length_c	15.455301
_cell_angle_alpha	87.173129
_cell_angle_beta	89.355145
_cell_angle_gamma	92.976847
loop_
_atom_site_label
_atom_site_type_symbol
_atom_site_fract_x
_atom_site_fract_y
_atom_site_fract_z
O1	O	1.055361	-0.099821	-0.001883
O2	O	0.826692	-0.113236	0.014156
O3	O	0.940110	0.007611	0.006194
O4	O	0.941944	-0.220668	0.006079
O5	O	0.933554	0.013714	-0.137609
O6	O	0.820137	-0.107133	-0.129647
O7	O	1.048806	-0.093718	-0.145686
Cu8	Cu	0.933873	-0.099868	-0.150797
Cu9	Cu	0.941625	-0.107086	0.019267
O10	O	0.935388	-0.214564	-0.137724
C11	C	0.794020	-0.109788	-0.055684
C12	C	0.706432	-0.108599	-0.049540
C13	C	0.213795	-0.102240	-0.006486
C14	C	0.296092	-0.103357	-0.012270
C15	C	0.333659	-0.100594	-0.093550
C16	C	0.288925	-0.096706	-0.169051
C17	C	0.206629	-0.095584	-0.163266
C18	C	0.579402	-0.103589	-0.119256
C19	C	0.661703	-0.104714	-0.125035
C20	C	0.668866	-0.111363	0.031746
C21	C	0.586568	-0.110245	0.037523
C22	C	0.541841	-0.106353	-0.037977
N23	N	0.417780	-0.101738	-0.099464
N24	N	0.457722	-0.105204	-0.032063
C25	C	0.934473	0.039865	-0.065542
C26	C	0.927436	0.126881	-0.065048
C27	C	1.081478	-0.097165	-0.075844
C28	C	1.169066	-0.098355	-0.081982
N29	N	0.928425	-0.094791	-0.270411
C30	C	0.941025	-0.246819	-0.065986
C31	C	0.948062	-0.333835	-0.066474
C32	C	0.995334	0.177399	-0.069811
C33	C	0.988718	0.259158	-0.069339
C34	C	0.914203	0.290398	-0.064109
C35	C	0.846300	0.239873	-0.059343
C36	C	0.852917	0.158116	-0.059809
C37	C	0.886776	0.533883	-0.062174
C38	C	0.880164	0.615648	-0.061711
C39	C	1.022583	0.634926	-0.071705
C40	C	1.029193	0.553166	-0.072176
C41	C	0.961291	0.502649	-0.067405
N42	N	0.907438	0.373969	-0.063629
N43	N	0.968057	0.419079	-0.067879
C44	C	0.977159	-0.140249	-0.319217
C45	C	0.973050	-0.136404	-0.409737
C46	C	0.920202	-0.087105	-0.451449
C47	C	0.871467	-0.041642	-0.402637
C48	C	0.875581	-0.045483	-0.312119
C49	C	0.902456	-0.070534	-0.721788
C50	C	0.898345	-0.066698	-0.812313
C51	C	0.999929	-0.161460	-0.819407
C52	C	1.004035	-0.165300	-0.728886
C53	C	0.955302	-0.119834	-0.680082
N54	N	0.915999	-0.083176	-0.543975
N55	N	0.959510	-0.123759	-0.587558
N56	N	0.947078	-0.112157	0.138881
H57	H	0.183214	-0.104495	0.059700
H58	H	0.319518	-0.094452	-0.235231
H59	H	0.542996	-0.100408	-0.180735
C60	C	0.821971	0.004515	-0.258428
H61	H	0.831994	-0.004828	-0.198546
H62	H	0.768290	-0.009609	-0.269553
H63	H	0.832568	0.058836	-0.274055
H64	H	0.170211	-0.092428	-0.224743
H65	H	0.855306	-0.026553	-0.846272
C66	C	0.345290	-0.107635	0.070775
H67	H	0.311129	-0.109130	0.120010
H68	H	0.380677	-0.062502	0.071557
H69	H	0.374407	-0.153925	0.071998
H70	H	0.555987	-0.112494	0.103710
H71	H	0.705291	-0.114531	0.093214
C72	C	0.703029	-0.101673	-0.214445
H73	H	0.758447	-0.102909	-0.207073
H74	H	0.691211	-0.054414	-0.245932
H75	H	0.684934	-0.145837	-0.245481
C76	C	1.063405	0.314725	-0.074587
H77	H	1.108730	0.284410	-0.077781
H78	H	1.066078	0.344889	-0.024468
H79	H	1.061491	0.349149	-0.124767
C80	C	1.053535	-0.211466	-0.873089
H81	H	1.085594	-0.241380	-0.835281
H82	H	1.086180	-0.177720	-0.910801
H83	H	1.021901	-0.246163	-0.906293
C84	C	1.097271	0.690492	-0.076943
H85	H	1.142596	0.660177	-0.080129
H86	H	1.099937	0.720655	-0.026822
H87	H	1.095365	0.724918	-0.127123
H88	H	1.056012	0.151970	-0.074075
C89	C	1.111160	0.518807	-0.077917
H90	H	1.150652	0.560604	-0.080677
H91	H	1.114420	0.489443	-0.128451
H92	H	1.118983	0.485185	-0.028150
H93	H	1.012735	-0.173420	-0.449471
H94	H	0.819481	0.641080	-0.057466
C95	C	0.812086	0.478325	-0.056941
H96	H	0.766761	0.508643	-0.053772
H97	H	0.813985	0.443896	-0.006770
H98	H	0.809423	0.448166	-0.107071
C99	C	0.764335	0.274236	-0.053593
H100	H	0.770116	0.330163	-0.054008
H101	H	0.738445	0.254745	-0.001471
H102	H	0.733878	0.259005	-0.101772
H103	H	0.797627	0.116984	-0.055930
H104	H	1.020189	-0.180399	-0.285261
C105	C	1.062167	-0.219530	-0.683009
H106	H	1.090607	-0.246050	-0.725041
H107	H	1.033743	-0.257216	-0.645595
H108	H	1.098024	-0.188775	-0.650096
H109	H	0.862775	-0.033511	-0.682063
C110	C	0.813334	0.012585	-0.448518
H111	H	0.817857	0.008356	-0.509418
H112	H	0.825273	0.065643	-0.434479
H113	H	0.761000	-0.002805	-0.429971
