data_functionalizedCrystal
_audit_creation_method	'MofGen! by Chris Wilmer'
_symmetry_space_group_name_H-M	'P1'
_symmetry_Int_Tables_number	1
_symmetry_cell_setting	triclinic
loop_
_symmetry_equiv_pos_as_xyz
  x,y,z
_cell_length_a	17.038272
_cell_length_b	17.038272
_cell_length_c	16.098678
_cell_angle_alpha	87.070750
_cell_angle_beta	92.926035
_cell_angle_gamma	91.111556
loop_
_atom_site_label
_atom_site_type_symbol
_atom_site_fract_x
_atom_site_fract_y
_atom_site_fract_z
O1	O	1.045484	0.173807	-0.069152
O2	O	0.817671	0.171100	-0.069177
O3	O	0.930224	0.058547	-0.069158
O4	O	0.932931	0.286359	-0.069171
O5	O	0.936764	0.051993	0.069353
O6	O	0.824212	0.164546	0.069335
O7	O	1.052024	0.167253	0.069359
Zn8	Zn	0.939156	0.164859	0.091338
Zn9	Zn	0.930539	0.173494	-0.091156
O10	O	0.939472	0.279805	0.069340
C11	C	0.791649	0.165360	0.000076
C12	C	0.704365	0.158013	0.000067
C13	C	0.931031	0.025978	0.000097
C14	C	0.923683	-0.061306	0.000096
C15	C	0.658755	0.225476	0.000064
C16	C	0.576744	0.218567	0.000075
C17	C	0.540343	0.144193	0.000085
C18	C	0.585959	0.076724	0.000090
C19	C	0.667969	0.083634	0.000084
C20	C	0.292956	0.119781	0.000108
C21	C	0.210940	0.112877	0.000112
C22	C	0.201731	0.254720	0.000098
C23	C	0.283743	0.261624	0.000088
C24	C	0.329351	0.194154	0.000098
C25	C	0.456514	0.137129	0.000094
C26	C	0.413179	0.201219	0.000094
C27	C	0.991147	-0.106916	0.000104
C28	C	0.984238	-0.188927	0.000096
C29	C	0.909864	-0.225328	0.000085
C30	C	0.842395	-0.179712	0.000074
C31	C	0.849305	-0.097702	0.000077
C32	C	0.885453	-0.472715	0.000071
C33	C	0.878548	-0.554731	0.000071
C34	C	1.020392	-0.563941	0.000091
C35	C	1.027295	-0.481929	0.000098
C36	C	0.959826	-0.436320	0.000083
C37	C	0.902800	-0.309157	0.000079
C38	C	0.966890	-0.352492	0.000084
C39	C	1.078047	0.172993	0.000105
C40	C	1.165331	0.180340	0.000108
C41	C	0.938664	0.312375	0.000083
C42	C	0.946012	0.399659	0.000079
N43	N	0.945043	0.158965	0.215886
N44	N	0.924659	0.179381	-0.215704
C45	C	0.897260	0.206718	0.259484
C46	C	0.901400	0.202593	0.346672
C47	C	0.953321	0.150712	0.390260
C48	C	1.001109	0.102958	0.346657
C49	C	0.996972	0.107087	0.259470
C50	C	0.968310	0.135756	0.653506
C51	C	0.972442	0.131629	0.740699
C52	C	0.872734	0.231266	0.740708
C53	C	0.868598	0.235387	0.653520
C54	C	0.916389	0.187636	0.609924
C55	C	0.957552	0.146493	0.479380
C56	C	0.912161	0.191859	0.520805
H57	H	0.688386	0.286039	0.000056
Br58	Br	0.801866	-0.358564	0.000056
Br59	Br	0.741457	-0.229111	0.000046
H60	H	0.817982	-0.584366	0.000075
H61	H	0.854978	0.248961	0.224000
H62	H	0.539612	0.273503	0.000072
H63	H	0.330081	0.064843	0.000117
Br64	Br	0.807879	0.296070	0.799877
Br65	Br	0.836554	0.267404	0.405843
H66	H	1.035883	0.068203	0.223974
Br67	Br	0.798131	0.305795	0.594362
H68	H	1.043388	0.060717	0.382152
H69	H	0.830514	-0.435590	0.000059
Br70	Br	1.028015	0.076083	0.538540
H71	H	1.007222	0.096874	0.618017
H72	H	1.075321	-0.601084	0.000101
H73	H	0.869890	0.234104	0.485313
H74	H	1.014723	0.089378	0.776185
Br75	Br	1.128233	-0.432533	0.000086
Br76	Br	0.757742	-0.035801	0.000059
H77	H	0.313374	0.322187	0.000070
H78	H	0.181306	0.052310	0.000118
Br79	Br	0.139830	0.346280	0.000086
H80	H	1.039175	-0.226059	0.000104
H81	H	0.426869	0.076572	0.000125
Br82	Br	1.067823	-0.303090	0.000091
H83	H	0.556315	0.016167	0.000110
Br84	Br	0.462581	0.302152	0.000087
H85	H	1.051710	-0.077285	0.000118
H86	H	0.705103	0.028698	0.000086
