data_functionalizedCrystal
_audit_creation_method	'MofGen! by Chris Wilmer'
_symmetry_space_group_name_H-M	'P1'
_symmetry_Int_Tables_number	1
_symmetry_cell_setting	triclinic
loop_
_symmetry_equiv_pos_as_xyz
  x,y,z
_cell_length_a	6.817900
_cell_length_b	16.417824
_cell_length_c	27.924003
_cell_angle_alpha	96.647383
_cell_angle_beta	81.026729
_cell_angle_gamma	76.614455
loop_
_atom_site_label
_atom_site_type_symbol
_atom_site_fract_x
_atom_site_fract_y
_atom_site_fract_z
V1	V	4.003304	-0.261670	-0.067521
O2	O	4.013985	-0.256160	0.002838
O3	O	3.933130	-0.260389	-0.133491
O4	O	3.954642	-0.375561	-0.066661
O5	O	3.992323	-0.140190	-0.064455
V6	V	4.489787	-0.247078	-0.059084
O7	O	4.258069	-0.293678	-0.086028
O8	O	4.685220	-0.215070	-0.040577
O9	O	4.336755	-0.248359	0.006886
O10	O	4.596504	-0.252588	-0.129442
O11	O	4.618165	-0.368558	-0.062150
O12	O	4.315243	-0.133187	-0.059944
C13	C	3.772842	-0.256392	-0.149568
C14	C	3.796751	-0.256104	-0.203500
C15	C	3.929870	-0.177485	-0.581615
C16	C	3.840033	-0.178463	-0.378906
O17	O	3.796395	-0.113309	-0.346709
N18	N	3.866361	-0.255344	-0.360597
C19	C	3.915138	-0.331987	-0.392969
O20	O	3.935450	-0.397401	-0.372745
C21	C	4.004960	-0.331007	-0.595677
C22	C	3.978649	-0.254121	-0.613983
C23	C	3.903560	-0.100605	-0.599921
C24	C	3.926029	-0.100361	-0.650596
C25	C	3.974808	-0.176998	-0.682963
C26	C	4.001118	-0.253878	-0.664657
C27	C	4.053722	-0.407648	-0.628047
C28	C	4.076171	-0.407397	-0.678727
C29	C	4.049860	-0.330511	-0.697033
C30	C	4.072367	-0.330271	-0.747699
N31	N	4.046039	-0.253389	-0.766008
C32	C	3.997260	-0.176753	-0.733640
C33	C	3.867982	-0.332495	-0.286544
C34	C	3.845530	-0.332740	-0.235868
C35	C	3.770423	-0.179216	-0.221808
C36	C	3.792890	-0.178972	-0.272486
C37	C	3.841654	-0.255614	-0.304853
C38	C	4.044451	-0.176247	-0.840060
C39	C	4.066934	-0.176011	-0.890740
C40	C	4.142029	-0.329535	-0.904795
C41	C	4.119559	-0.329772	-0.854120
C42	C	4.070760	-0.253121	-0.821753
O43	O	4.115979	-0.395390	-0.779924
O44	O	3.976913	-0.111347	-0.753873
C45	C	3.907401	-0.177728	-0.530940
C46	C	3.933711	-0.254608	-0.512634
C47	C	3.982490	-0.331245	-0.545002
C48	C	3.911259	-0.254853	-0.461957
C49	C	3.862480	-0.178217	-0.429590
C50	C	3.836152	-0.101335	-0.447898
C51	C	3.858622	-0.101092	-0.498573
C52	C	4.008818	-0.408126	-0.526693
C53	C	3.986348	-0.408363	-0.476018
C54	C	3.937568	-0.331727	-0.443650
C55	C	3.800283	-0.403305	-0.064318
C56	C	3.841636	-0.496415	-0.064052
C57	C	3.962331	-0.722935	-0.107877
C58	C	4.001203	-0.810421	-0.107623
C59	C	3.950136	-0.785801	-0.018724
C60	C	3.911280	-0.698317	-0.018978
C61	C	3.917369	-0.666886	-0.063556
C62	C	3.995097	-0.841857	-0.063048
C63	C	4.037242	-0.936713	-0.062772
C64	C	3.875225	-0.572024	-0.063832
C65	C	4.160384	-0.252354	0.022960
C66	C	4.115713	-0.252648	0.076892
C67	C	4.132944	-0.105439	-0.062288
C68	C	4.070830	-0.012328	-0.062552
H69	H	4.045509	-0.113399	-0.905641
N70	N	3.862748	-0.637858	0.028829
H71	H	3.839061	-0.577669	0.021902
H72	H	3.981674	-0.650682	0.046637
H73	H	4.115871	-0.469809	-0.705078
N74	N	3.920584	-0.415164	-0.321452
H75	H	3.933856	-0.463898	-0.302159
H76	H	4.054824	-0.421267	-0.344472
N77	N	3.968933	-0.689039	-0.155957
H78	H	4.077240	-0.656202	-0.159692
H79	H	3.830587	-0.650418	-0.156368
N80	N	4.049685	-0.870866	-0.155429
H81	H	3.943661	-0.904803	-0.155656
H82	H	4.190283	-0.910567	-0.158931
N83	N	3.991792	-0.093576	-0.805155
H84	H	3.978534	-0.044842	-0.824448
H85	H	4.104106	-0.093179	-0.785505
N86	N	3.897639	-0.017434	-0.670336
H87	H	3.863324	0.031071	-0.642136
H88	H	3.782031	-0.011128	-0.689367
H89	H	4.075138	-0.470257	-0.613152
H90	H	3.945179	-0.811403	0.017570
H91	H	3.863832	-0.038195	-0.573572
H92	H	3.730703	-0.116816	-0.195446
N93	N	3.764512	-0.096047	-0.292229
H94	H	3.730209	-0.047539	-0.264030
H95	H	3.648900	-0.089738	-0.311259
H96	H	3.866994	-0.395350	-0.220969
N97	N	4.147949	-0.412691	-0.834367
H98	H	4.291558	-0.449067	-0.847943
H99	H	4.044886	-0.443281	-0.844579
N100	N	4.194678	-0.412183	-0.939718
H101	H	4.082394	-0.412640	-0.959373
H102	H	4.207996	-0.460890	-0.920407
N103	N	3.830244	-0.018164	-0.518313
H104	H	3.795932	0.030341	-0.490113
H105	H	3.714638	-0.011855	-0.537345
H106	H	4.007797	-0.470979	-0.461119
N107	N	3.783550	-0.018676	-0.412982
H108	H	3.773315	-0.030506	-0.378103
H109	H	3.647790	0.017745	-0.417081
H110	H	4.048534	-0.470534	-0.553043
