data_functionalizedCrystal
_audit_creation_method	'MofGen! by Chris Wilmer'
_symmetry_space_group_name_H-M	'P1'
_symmetry_Int_Tables_number	1
_symmetry_cell_setting	triclinic
loop_
_symmetry_equiv_pos_as_xyz
  x,y,z
_cell_length_a	13.897449
_cell_length_b	18.050589
_cell_length_c	18.050583
_cell_angle_alpha	90.027890
_cell_angle_beta	89.980272
_cell_angle_gamma	89.964475
loop_
_atom_site_label
_atom_site_type_symbol
_atom_site_fract_x
_atom_site_fract_y
_atom_site_fract_z
Zn1	Zn	1.474554	0.295618	-0.419966
Zn2	Zn	1.474410	0.419823	-0.295786
Zn3	Zn	1.313253	0.295653	-0.295787
Zn4	Zn	1.313177	0.419772	-0.419931
O5	O	1.393849	0.357716	-0.357867
O6	O	1.609516	0.312100	-0.403507
O7	O	1.453004	0.403387	-0.191861
O8	O	1.334742	0.191723	-0.312274
O9	O	1.609411	0.403353	-0.312273
O10	O	1.453249	0.191698	-0.403508
O11	O	1.334603	0.312160	-0.191862
O12	O	1.178261	0.312111	-0.312240
O13	O	1.334612	0.403267	-0.523860
O14	O	1.178205	0.403301	-0.403449
O15	O	1.453175	0.312052	-0.523886
O16	O	1.452930	0.523740	-0.312239
O17	O	1.334473	0.523704	-0.403448
C18	C	1.143234	0.357705	-0.357841
C19	C	1.036020	0.357718	-0.357848
C20	C	0.948950	0.357720	-0.357860
C21	C	0.839718	0.357726	-0.357883
C22	C	1.393704	0.550668	-0.357856
C23	C	1.393730	0.633214	-0.357875
C24	C	1.329347	0.832672	-0.407458
C25	C	1.305828	0.882118	-0.339691
C26	C	1.393803	0.784345	-0.357886
C27	C	1.417347	0.881980	-0.425662
C28	C	1.393871	0.930330	-0.357901
C29	C	1.370238	0.832703	-0.290082
C30	C	1.481798	0.832562	-0.376099
C31	C	1.458312	0.881985	-0.308284
C32	C	1.393761	0.700246	-0.357877
C33	C	1.393913	1.014426	-0.357902
C34	C	1.645441	0.357728	-0.357894
C35	C	1.752655	0.357733	-0.357905
C36	C	1.393901	0.357650	-0.551573
C37	C	1.393923	0.357622	-0.634119
C38	C	1.393983	1.164011	-0.357896
C39	C	1.393946	1.081465	-0.357911
C40	C	1.458458	0.307968	-0.882958
C41	C	1.481985	0.375731	-0.833550
C42	C	1.393985	0.357574	-0.931239
C43	C	1.370473	0.289839	-0.833566
C44	C	1.393957	0.357594	-0.785254
C45	C	1.417559	0.425373	-0.882918
C46	C	1.306005	0.339435	-0.882938
C47	C	1.329499	0.407245	-0.833552
C48	C	1.394004	0.357562	-1.015338
C49	C	1.393938	0.357614	-0.701158
C50	C	1.393852	0.357729	-0.164915
C51	C	1.394017	0.357548	-0.082370
H52	H	1.231447	0.903901	-0.324300
O53	O	1.570739	0.394157	-0.807758
C54	C	1.596003	0.465097	-0.833973
H55	H	1.553298	0.477930	-0.886333
H56	H	1.578900	0.508249	-0.789742
C57	C	1.756841	0.451198	-0.787321
C58	C	1.704396	0.466957	-0.851633
H59	H	1.823703	0.452348	-0.798211
H60	H	1.739820	0.403405	-0.769656
H61	H	1.742577	0.487161	-0.750468
H62	H	1.718651	0.430990	-0.888481
H63	H	1.721422	0.514744	-0.869304
O64	O	1.217260	0.321221	-0.908886
C65	C	1.180743	0.380090	-0.951828
H66	H	1.217622	0.433901	-0.934933
H67	H	1.195155	0.368695	-1.012962
C68	C	1.026271	0.321008	-0.959726
C69	C	1.071562	0.387100	-0.938971
H70	H	0.958923	0.325331	-0.951799
H71	H	1.050874	0.281345	-0.930798
H72	H	1.038291	0.311519	-1.010669
H73	H	1.059552	0.396582	-0.888027
H74	H	1.046954	0.426764	-0.967891
H75	H	1.350599	0.232548	-0.811885
H76	H	1.512850	0.903502	-0.266321
O77	O	1.441353	0.493794	-0.908541
C78	C	1.457998	0.541659	-0.848148
H79	H	1.418949	0.519728	-0.797130
H80	H	1.538509	0.544582	-0.836427
C81	C	1.468132	0.646560	-0.929588
C82	C	1.420164	0.619626	-0.866928
H83	H	1.444799	0.694655	-0.941172
H84	H	1.456922	0.614312	-0.970277
H85	H	1.535221	0.648989	-0.919812
H86	H	1.353078	0.617189	-0.876707
H87	H	1.431363	0.651876	-0.826241
O88	O	1.264430	0.457410	-0.807953
C89	C	1.219521	0.492829	-0.868362
H90	H	1.267972	0.488933	-0.919190
H91	H	1.147862	0.464639	-0.880541
C92	C	1.142305	0.579649	-0.786807
C93	C	1.201817	0.574869	-0.849234
H94	H	1.131380	0.630254	-0.775008
H95	H	1.172558	0.555785	-0.746108
H96	H	1.082596	0.556152	-0.796965
H97	H	1.261529	0.598356	-0.839072
H98	H	1.171574	0.598739	-0.889930
O99	O	1.264109	0.806868	-0.457316
C100	C	1.171469	0.832138	-0.437849
H101	H	1.169704	0.846030	-0.376248
H102	H	1.153379	0.883815	-0.471365
C103	C	1.099260	0.754107	-0.530179
C104	C	1.097091	0.771164	-0.454519
H105	H	1.053379	0.716498	-0.540465
H106	H	1.161674	0.737084	-0.543297
H107	H	1.084188	0.797177	-0.558101
H108	H	1.112174	0.728097	-0.426599
H109	H	1.034678	0.788179	-0.441397
H110	H	1.556162	0.810780	-0.391522
O111	O	1.346379	0.806869	-0.221743
C112	C	1.346615	0.728763	-0.222563
H113	H	1.335832	0.708291	-0.281734
H114	H	1.418415	0.707576	-0.200555
C115	C	1.277692	0.724861	-0.100583
C116	C	1.264440	0.699718	-0.173257
H117	H	1.227006	0.706944	-0.070167
H118	H	1.277537	0.777483	-0.100029
H119	H	1.337528	0.707204	-0.082254
H120	H	1.204611	0.717383	-0.191589
H121	H	1.264583	0.647098	-0.173813
H122	H	1.513034	0.266062	-0.904651
O123	O	1.440966	0.907717	-0.494087
C124	C	1.372767	0.882606	-0.546158
H125	H	1.336017	0.830646	-0.524121
H126	H	1.316604	0.927630	-0.555836
C127	C	1.468920	0.928361	-0.646801
C128	C	1.423788	0.864540	-0.619737
H129	H	1.500390	0.917221	-0.692189
H130	H	1.514865	0.945282	-0.611720
H131	H	1.422109	0.965876	-0.654859
H132	H	1.470600	0.827030	-0.611670
H133	H	1.377852	0.847613	-0.654819
