data_functionalizedCrystal
_audit_creation_method	'MofGen! by Chris Wilmer'
_symmetry_space_group_name_H-M	'P1'
_symmetry_Int_Tables_number	1
_symmetry_cell_setting	triclinic
loop_
_symmetry_equiv_pos_as_xyz
  x,y,z
_cell_length_a	17.077404
_cell_length_b	19.805405
_cell_length_c	17.077396
_cell_angle_alpha	90.031650
_cell_angle_beta	90.018362
_cell_angle_gamma	90.024381
loop_
_atom_site_label
_atom_site_type_symbol
_atom_site_fract_x
_atom_site_fract_y
_atom_site_fract_z
Zn1	Zn	1.200035	-0.269500	0.443802
Zn2	Zn	1.199934	-0.382693	0.312528
Zn3	Zn	1.068767	-0.269519	0.312552
Zn4	Zn	1.068727	-0.382648	0.443754
O5	O	1.134366	-0.326090	0.378159
O6	O	1.309869	-0.284526	0.426398
O7	O	1.182509	-0.367707	0.202684
O8	O	1.086239	-0.174800	0.329992
O9	O	1.309795	-0.367688	0.329952
O10	O	1.182681	-0.174786	0.426421
O11	O	1.086141	-0.284559	0.202702
O12	O	0.958915	-0.284515	0.329947
O13	O	1.086171	-0.367612	0.553608
O14	O	0.958886	-0.367631	0.426340
O15	O	1.182643	-0.284482	0.553642
O16	O	1.182470	-0.477404	0.329906
O17	O	1.086073	-0.477371	0.426317
C18	C	0.930418	-0.326071	0.378141
C19	C	0.843168	-0.326079	0.378153
C20	C	0.802218	-0.282853	0.428449
C21	C	0.720237	-0.282858	0.428452
C22	C	0.679209	-0.326092	0.378163
C23	C	0.720165	-0.369319	0.327862
C24	C	0.802144	-0.369311	0.327855
C25	C	0.549295	-0.369335	0.327881
C26	C	0.467311	-0.369344	0.327889
C27	C	0.467388	-0.282881	0.428479
C28	C	0.549367	-0.282873	0.428472
C29	C	0.590318	-0.326102	0.378171
C30	C	1.134278	-0.501946	0.378121
C31	C	1.134312	-0.577178	0.378131
C32	C	1.184555	-0.612517	0.327982
C33	C	1.184588	-0.683205	0.328000
C34	C	1.134374	-0.718554	0.378162
C35	C	1.084129	-0.683210	0.428317
C36	C	1.084100	-0.612523	0.428303
C37	C	1.084245	-0.968283	0.428375
C38	C	1.084276	-1.038975	0.428383
C39	C	1.184733	-1.038966	0.328072
C40	C	1.184704	-0.968278	0.328058
C41	C	1.134462	-0.932941	0.378215
C42	C	1.134427	-0.856293	0.378196
C43	C	1.134404	-0.795201	0.378177
C44	C	1.339110	-0.326110	0.378177
C45	C	1.426360	-0.326118	0.378185
C46	C	1.134414	-0.326040	0.582903
C47	C	1.134434	-0.326019	0.670153
C48	C	1.134476	-0.149547	0.378214
C49	C	1.134523	-0.074315	0.378238
C50	C	1.134364	-0.326091	0.174211
C51	C	1.134496	-0.325921	0.086962
C52	C	1.184668	-0.282730	0.711163
C53	C	1.184678	-0.282707	0.793143
C54	C	1.134456	-0.325978	0.834113
C55	C	1.084216	-0.369269	0.793098
C56	C	1.084203	-0.369287	0.711119
C57	C	1.084247	-0.369228	0.963968
C58	C	1.084261	-0.369211	1.045952
C59	C	1.184722	-0.282648	1.045992
C60	C	1.184709	-0.282666	0.964013
C61	C	1.134470	-0.325959	0.923004
H62	H	0.433908	-0.404549	0.286940
H63	H	1.225500	-0.711975	0.287163
C64	C	0.593617	-0.416346	0.273244
C65	C	0.540142	-0.454227	0.229222
C66	C	0.580942	-0.497550	0.178895
H67	H	0.625598	-0.390494	0.239022
H68	H	0.625579	-0.445902	0.303194
H69	H	0.508193	-0.424675	0.199273
H70	H	0.508159	-0.480093	0.263423
H71	H	0.612904	-0.527105	0.208846
H72	H	0.612921	-0.471692	0.144679
H73	H	0.544665	-0.523261	0.149026
H74	H	0.582770	-0.247672	0.469426
C75	C	1.029675	-0.416071	1.090530
C76	C	0.979417	-0.377719	1.137610
C77	C	0.929123	-0.420862	1.178691
H78	H	0.999674	-0.441865	1.054452
H79	H	1.059656	-0.445554	1.122553
H80	H	0.949438	-0.348248	1.105589
H81	H	1.009396	-0.351927	1.173702
H82	H	0.959105	-0.450345	1.210714
H83	H	0.899128	-0.446653	1.142607
H84	H	0.895022	-0.394846	1.210644
H85	H	0.835617	-0.247649	0.469402
C86	C	0.675732	-0.235848	0.482934
C87	C	0.628681	-0.192405	0.438588
C88	C	0.587678	-0.149084	0.488751
H89	H	0.643691	-0.261706	0.517095
H90	H	0.711880	-0.210061	0.512875
H91	H	0.592536	-0.218190	0.408660
H92	H	0.660701	-0.166533	0.404429
H93	H	0.623827	-0.123297	0.518692
H94	H	0.555643	-0.174948	0.522909
H95	H	0.555755	-0.119600	0.458669
H96	H	0.434042	-0.247682	0.469434
H97	H	0.686754	-0.404518	0.286912
C98	C	1.029820	-0.929891	0.482922
C99	C	1.074213	-0.889263	0.533289
C100	C	1.024099	-0.853892	0.583556
H101	H	0.995606	-0.902302	0.452951
H102	H	0.999933	-0.961051	0.512838
H103	H	1.104086	-0.858106	0.503376
H104	H	1.108424	-0.916835	0.563276
H105	H	0.994212	-0.885052	0.613472
H106	H	0.989888	-0.826307	0.553580
H107	H	1.054212	-0.826327	0.617741
H108	H	0.835485	-0.404509	0.286898
H109	H	1.043247	-0.711996	0.469164
C110	C	1.239158	-0.574264	0.273486
C111	C	1.283180	-0.620346	0.229587
C112	C	1.333499	-0.585134	0.179385
H113	H	1.209227	-0.546728	0.239182
H114	H	1.273375	-0.546661	0.303521
H115	H	1.248968	-0.647937	0.199555
H116	H	1.313128	-0.647882	0.263871
H117	H	1.367715	-0.557531	0.209419
H118	H	1.303561	-0.557600	0.145085
H119	H	1.363379	-0.616395	0.149598
H120	H	1.043322	-0.404498	0.826462
H121	H	1.225590	-0.939500	0.287208
H122	H	1.225645	-1.067746	0.287235
C123	C	1.029729	-1.077233	0.482940
C124	C	0.985739	-1.031158	0.526880
C125	C	0.935494	-1.066376	0.577149
H126	H	0.995484	-1.104852	0.452977
H127	H	1.059737	-1.104753	0.517211
H128	H	0.955733	-1.003649	0.492613
H129	H	1.019964	-1.003537	0.556859
H130	H	0.965502	-1.093896	0.611420
H131	H	0.901254	-1.093993	0.547179
H132	H	0.905646	-1.035119	0.606973
H133	H	1.225609	-0.247436	0.930658
C134	C	1.239085	-0.235616	0.837702
C135	C	1.194669	-0.192201	0.884748
C136	C	1.244761	-0.148799	0.925796
H137	H	1.273295	-0.261416	0.869749
H138	H	1.268977	-0.209812	0.801580
H139	H	1.164791	-0.218002	0.920866
H140	H	1.160461	-0.166386	0.852721
H141	H	1.274652	-0.122995	0.889674
H142	H	1.278968	-0.174605	0.957838
H143	H	1.214631	-0.119333	0.957716
H144	H	1.043188	-0.583751	0.469140
C145	C	1.239226	-0.235675	0.666827
C146	C	1.283206	-0.197746	0.720292
C147	C	1.333464	-0.154383	0.679481
H148	H	1.273478	-0.261500	0.634841
H149	H	1.209229	-0.206151	0.634869
H150	H	1.313201	-0.227265	0.752237
H151	H	1.248974	-0.171907	0.752280
H152	H	1.303467	-0.124859	0.647524
H153	H	1.367711	-0.180213	0.647497
H154	H	1.363305	-0.128639	0.715751
C155	C	1.239172	-0.235659	1.090654
C156	C	1.228415	-0.244883	1.171217
C157	C	1.278549	-0.201604	1.212387
H158	H	1.291940	-0.245526	1.077326
H159	H	1.227696	-0.190172	1.077270
H160	H	1.239896	-0.290360	1.184596
H161	H	1.175657	-0.235012	1.184569
H162	H	1.267074	-0.156116	1.199003
H163	H	1.331314	-0.211474	1.199052
H164	H	1.271252	-0.207852	1.267052
H165	H	1.043325	-0.404471	0.930580
H166	H	1.043289	-0.404531	0.677730
