data_functionalizedCrystal
_audit_creation_method	'MofGen! by Chris Wilmer'
_symmetry_space_group_name_H-M	'P1'
_symmetry_Int_Tables_number	1
_symmetry_cell_setting	triclinic
loop_
_symmetry_equiv_pos_as_xyz
  x,y,z
_cell_length_a	8.497374
_cell_length_b	12.759401
_cell_length_c	12.759399
_cell_angle_alpha	89.983359
_cell_angle_beta	89.991562
_cell_angle_gamma	90.001753
loop_
_atom_site_label
_atom_site_type_symbol
_atom_site_fract_x
_atom_site_fract_y
_atom_site_fract_z
Zn1	Zn	0.891958	1.606064	0.418406
Zn2	Zn	0.628160	1.606013	0.594052
Zn3	Zn	0.628185	1.430422	0.418393
Zn4	Zn	0.891892	1.430354	0.594048
O5	O	0.760048	1.518213	0.506225
O6	O	0.856982	1.753079	0.441713
O7	O	0.407401	1.582728	0.570747
O8	O	0.663213	1.453771	0.271373
O9	O	0.663171	1.753041	0.570760
O10	O	0.857005	1.582815	0.271383
O11	O	0.407419	1.453722	0.441691
O12	O	0.663149	1.283392	0.441686
O13	O	1.112663	1.453655	0.570752
O14	O	0.856893	1.283342	0.570739
O15	O	1.112711	1.582749	0.441709
O16	O	0.663107	1.582661	0.741073
O17	O	0.856869	1.453605	0.741069
C18	C	0.760017	1.245246	0.506212
C19	C	0.760041	1.128469	0.506232
C20	C	0.760013	1.518149	0.779192
C21	C	0.760050	1.518217	0.895969
C22	C	0.860765	1.073609	0.573532
C23	C	0.860796	0.963885	0.573536
C24	C	0.659366	0.963891	0.438937
C25	C	0.659344	1.073613	0.438928
C26	C	1.171529	1.518205	0.506226
C27	C	1.350173	1.518208	0.506237
C28	C	0.760081	1.792246	0.506238
C29	C	0.760095	1.909023	0.506244
C30	C	0.760119	1.518307	0.232191
C31	C	0.760149	1.518346	0.115415
C32	C	0.659273	1.585494	0.950797
C33	C	0.659326	1.585561	1.060521
C34	C	0.860938	1.451067	1.060578
C35	C	0.860891	1.451006	0.950856
H36	H	0.942818	0.919222	0.628337
C37	C	0.971845	1.377130	1.120960
C38	C	0.958811	1.257693	1.105977
C39	C	1.069716	1.183753	1.166358
C40	C	1.193657	1.229249	1.241721
C41	C	1.206697	1.348692	1.256707
C42	C	1.095791	1.422633	1.196326
H43	H	0.867058	1.224009	1.050186
H44	H	1.060063	1.095333	1.155263
H45	H	1.275756	1.174514	1.286418
H46	H	1.298450	1.382377	1.312498
H47	H	1.105445	1.511053	1.207420
H48	H	0.577164	1.640223	0.906111
H49	H	0.577265	1.640346	1.105158
C50	C	0.548604	0.903547	0.364906
C51	C	0.437820	0.963896	0.290868
C52	C	0.327057	0.903554	0.216834
C53	C	0.327077	0.782864	0.216837
C54	C	0.437865	0.722509	0.290878
C55	C	0.548628	0.782850	0.364912
H56	H	0.437802	1.053244	0.290863
H57	H	0.245045	0.948234	0.162024
H58	H	0.245083	0.738196	0.162033
H59	H	0.437883	0.633161	0.290883
H60	H	0.630640	0.738171	0.419722
C61	C	0.971754	1.376996	0.890537
C62	C	0.903257	1.294512	0.815190
C63	C	1.014120	1.220509	0.754872
C64	C	1.193479	1.228990	0.769900
C65	C	1.261985	1.311478	0.845251
C66	C	1.151122	1.385481	0.905569
H67	H	0.770477	1.288230	0.804063
H68	H	0.963406	1.159446	0.699093
H69	H	1.275546	1.174209	0.725249
H70	H	1.394765	1.317759	0.856378
H71	H	1.201836	1.446543	0.961348
C72	C	0.548532	1.133966	0.364896
C73	C	0.561713	1.118908	0.245474
C74	C	0.450909	1.179260	0.171444
C75	C	0.326925	1.254670	0.216836
C76	C	0.313739	1.269731	0.336264
C77	C	0.424543	1.209379	0.410294
H78	H	0.653498	1.063082	0.211867
H79	H	0.460670	1.168110	0.083036
H80	H	0.244901	1.299346	0.162034
H81	H	0.221954	1.325557	0.369871
H82	H	0.414781	1.220529	0.498702
H83	H	0.942763	1.118269	0.628332
