data_functionalizedCrystal
_audit_creation_method	'MofGen! by Chris Wilmer'
_symmetry_space_group_name_H-M	'P1'
_symmetry_Int_Tables_number	1
_symmetry_cell_setting	triclinic
loop_
_symmetry_equiv_pos_as_xyz
  x,y,z
_cell_length_a	16.992694
_cell_length_b	9.130313
_cell_length_c	16.992695
_cell_angle_alpha	89.996964
_cell_angle_beta	89.331777
_cell_angle_gamma	90.000495
loop_
_atom_site_label
_atom_site_type_symbol
_atom_site_fract_x
_atom_site_fract_y
_atom_site_fract_z
O1	O	1.050852	0.121617	-0.166914
O2	O	0.822452	0.121660	-0.165083
O3	O	0.935737	0.121627	-0.051799
O4	O	0.937568	0.121650	-0.280199
O5	O	0.935722	-0.121972	-0.051799
O6	O	0.822438	-0.121939	-0.165083
O7	O	1.050838	-0.121982	-0.166914
Cu8	Cu	0.936637	-0.144203	-0.165999
Cu9	Cu	0.936654	0.143881	-0.165999
O10	O	0.937554	-0.121949	-0.280199
C11	C	0.793085	-0.000134	-0.162727
C12	C	0.705600	-0.000118	-0.155699
C13	C	0.659610	-0.000112	-0.223517
C14	C	0.577409	-0.000133	-0.216908
C15	C	0.541201	-0.000149	-0.142480
C16	C	0.587198	-0.000159	-0.074657
C17	C	0.669397	-0.000148	-0.081267
C18	C	0.295886	-0.000191	-0.115086
C19	C	0.213681	-0.000197	-0.108481
C20	C	0.203898	-0.000173	-0.250732
C21	C	0.286099	-0.000154	-0.257336
C22	C	0.332089	-0.000172	-0.189512
N23	N	0.457178	-0.000166	-0.135723
N24	N	0.416110	-0.000166	-0.196270
N25	N	0.936630	-0.346825	-0.165999
C26	C	0.987390	-0.576811	-0.216756
C27	C	0.987370	-0.423474	-0.216761
C28	C	0.885901	-0.423521	-0.115233
C29	C	0.885917	-0.576855	-0.115233
C30	C	1.038138	-0.653452	-0.267516
C31	C	1.088867	-0.576767	-0.318283
C32	C	1.088847	-0.423430	-0.318288
C33	C	1.038099	-0.346778	-0.267526
C34	C	1.080205	-0.000184	-0.169270
C35	C	1.167690	-0.000191	-0.176299
C36	C	0.933374	-0.000172	-0.022439
C37	C	0.926345	-0.000170	0.065046
N38	N	0.936666	0.346504	-0.165993
C39	C	0.939917	-0.000147	-0.309559
C40	C	0.946945	-0.000139	-0.397044
C41	C	0.994163	-0.000184	0.111037
C42	C	0.987554	-0.000169	0.193238
C43	C	0.913127	-0.000150	0.229446
C44	C	0.845303	-0.000131	0.183449
C45	C	0.851913	-0.000136	0.101250
C46	C	0.885732	-0.000125	0.474760
C47	C	0.879127	-0.000124	0.556966
C48	C	1.021379	-0.000159	0.566749
C49	C	1.027982	-0.000173	0.484547
C50	C	0.960159	-0.000146	0.438558
N51	N	0.906369	-0.000139	0.313468
N52	N	0.966917	-0.000147	0.354537
H53	H	0.315574	-0.000124	-0.317942
H54	H	0.844585	-0.361099	-0.073906
N55	N	0.174625	-0.000205	-0.028202
H56	H	0.216231	-0.000216	0.013762
H57	H	0.140731	-0.090509	-0.022366
N58	N	0.765026	-0.000101	0.222497
H59	H	0.771128	-0.000106	0.281549
H60	H	0.735117	-0.090400	0.205994
H61	H	1.054770	-0.000209	0.081563
N62	N	1.060700	-0.000193	0.242843
H63	H	1.108852	-0.000219	0.207432
H64	H	1.061044	-0.090498	0.277164
N65	N	1.143592	-0.659429	-0.373037
H66	H	1.135910	-0.768203	-0.365332
H67	H	1.199866	-0.632602	-0.361106
N68	N	0.831217	-0.659587	-0.060479
H69	H	0.794843	-0.723216	-0.092318
H70	H	0.799121	-0.587686	-0.028327
N71	N	0.798849	-0.000089	0.596022
H72	H	0.792928	-0.090393	0.629908
H73	H	0.756934	-0.000014	0.554369
H74	H	0.333322	-0.000206	-0.059859
H75	H	0.166444	-0.000162	-0.305950
H76	H	1.076596	-0.000178	0.604202
N77	N	1.108257	-0.000202	0.445495
H78	H	1.150218	-0.000209	0.487104
H79	H	1.114106	0.090098	0.411598
H80	H	1.038081	-0.221921	-0.267542
N81	N	0.527806	-0.000105	-0.290056
H82	H	0.470239	-0.000119	-0.274578
H83	H	0.540041	-0.090397	-0.322276
N84	N	0.812583	-0.000105	0.425164
H85	H	0.780345	0.090202	0.437333
H86	H	0.780395	-0.090462	0.437356
N87	N	0.698660	-0.000077	-0.303793
H88	H	0.657049	-0.000078	-0.345751
H89	H	0.732556	-0.090375	-0.309637
N90	N	0.548149	-0.000200	0.005620
H91	H	0.489097	-0.000205	-0.000482
H92	H	0.564651	0.090098	0.035530
N93	N	0.718999	-0.000151	-0.008116
H94	H	0.753321	0.090152	-0.007685
H95	H	0.753273	-0.090512	-0.007732
H96	H	0.796688	-0.000124	0.063804
H97	H	1.038162	-0.778306	-0.267516
N98	N	1.143559	-0.340712	-0.373036
H99	H	1.111697	-0.277106	-0.409404
H100	H	1.175699	-0.412627	-0.405136
