data_functionalizedCrystal
_audit_creation_method	'MofGen! by Chris Wilmer'
_symmetry_space_group_name_H-M	'P1'
_symmetry_Int_Tables_number	1
_symmetry_cell_setting	triclinic
loop_
_symmetry_equiv_pos_as_xyz
  x,y,z
_cell_length_a	15.944551
_cell_length_b	16.109301
_cell_length_c	15.186229
_cell_angle_alpha	90.000638
_cell_angle_beta	89.995303
_cell_angle_gamma	96.519891
loop_
_atom_site_label
_atom_site_type_symbol
_atom_site_fract_x
_atom_site_fract_y
_atom_site_fract_z
O1	O	0.107966	-1.103166	-0.073175
O2	O	0.121402	-0.861108	-0.073189
O3	O	-0.007593	-0.988747	-0.073174
O4	O	0.236961	-0.975527	-0.073190
O5	O	-0.007594	-0.988738	0.073284
O6	O	0.121401	-0.861099	0.073268
O7	O	0.107964	-1.103157	0.073282
Zn8	Zn	0.114682	-0.982127	0.096529
Zn9	Zn	0.114685	-0.982138	-0.096435
O10	O	0.236960	-0.975518	0.073267
C11	C	0.120857	-0.830129	0.000038
C12	C	0.119226	-0.737833	0.000033
C13	C	-0.038887	-0.988194	0.000055
C14	C	-0.132133	-0.986548	0.000056
C15	C	0.108510	-1.134136	0.000054
C16	C	0.110141	-1.226432	0.000053
C17	C	-0.346962	-0.903499	0.000039
C18	C	-0.407993	-0.942060	0.072253
C19	C	-0.302858	-0.983572	0.000049
C20	C	-0.407975	-0.942087	-0.072142
C21	C	-0.467769	-0.980691	0.000038
C22	C	-0.362660	-1.022155	0.072323
C23	C	-0.362636	-1.022171	-0.072137
C24	C	-0.423649	-1.060790	0.000095
C25	C	-0.207856	-0.985229	0.000055
C26	C	-0.562770	-0.979039	0.000038
C27	C	0.268254	-0.976071	0.000036
C28	C	0.361500	-0.977717	0.000030
N29	N	0.114680	-0.982125	0.228221
C30	C	0.191975	-0.515584	0.000038
C31	C	0.190435	-0.428863	0.000044
C32	C	0.037387	-0.448688	0.000050
C33	C	0.038927	-0.535407	0.000051
C34	C	0.116224	-0.568853	0.000040
C35	C	0.113143	-0.395412	0.000045
C36	C	0.111473	-0.301386	0.000052
C37	C	0.117894	-0.662885	0.000036
N38	N	0.114680	-0.982146	-0.228128
C39	C	0.057580	-1.038663	0.453951
C40	C	0.057578	-1.038666	0.546141
C41	C	0.171783	-0.925603	0.546136
C42	C	0.171780	-0.925597	0.453948
C43	C	0.114680	-0.982132	0.407858
C44	C	0.114680	-0.982140	0.592236
C45	C	0.114679	-0.982143	0.692192
C46	C	0.114680	-0.982128	0.307895
H47	H	-0.313632	-0.837035	0.000107
H48	H	-0.428040	-0.908213	-0.133198
H49	H	-0.342516	-1.056013	-0.133188
H50	H	0.254914	-0.542812	0.000036
H51	H	0.252119	-0.385495	0.000044
H52	H	0.011085	-1.084696	0.416427
H53	H	0.011082	-1.084698	0.583667
H54	H	-0.025546	-0.421446	0.000064
H55	H	-0.456830	-1.127313	0.000139
H56	H	0.218278	-0.879558	0.416417
H57	H	-0.428091	-0.908189	0.133301
H58	H	-0.022762	-0.578781	0.000055
H59	H	0.218274	-0.879574	0.583672
H60	H	-0.342682	-1.055990	0.133442
