data_functionalizedCrystal
_audit_creation_method	'MofGen! by Chris Wilmer'
_symmetry_space_group_name_H-M	'P1'
_symmetry_Int_Tables_number	1
_symmetry_cell_setting	triclinic
loop_
_symmetry_equiv_pos_as_xyz
  x,y,z
_cell_length_a	18.215407
_cell_length_b	13.897448
_cell_length_c	18.215398
_cell_angle_alpha	90.021215
_cell_angle_beta	89.983001
_cell_angle_gamma	89.982988
loop_
_atom_site_label
_atom_site_type_symbol
_atom_site_fract_x
_atom_site_fract_y
_atom_site_fract_z
Zn1	Zn	1.125096	0.384115	-0.416089
Zn2	Zn	1.625096	0.884115	0.083911
Zn3	Zn	1.125017	0.545417	-0.293032
Zn4	Zn	1.625017	1.045417	0.206968
Zn5	Zn	1.002030	0.384131	-0.293042
Zn6	Zn	1.502030	0.884131	0.206958
Zn7	Zn	1.002006	0.545362	-0.416062
Zn8	Zn	1.502006	1.045362	0.083938
O9	O	1.063537	0.464756	-0.354556
O10	O	1.563537	0.964756	0.145444
O11	O	1.228070	0.405528	-0.399772
O12	O	1.728070	0.905528	0.100228
O13	O	1.108679	0.524052	-0.190049
O14	O	1.608679	1.024052	0.309951
O15	O	1.018398	0.249147	-0.309380
O16	O	1.518398	0.749147	0.190620
O17	O	1.228012	0.524036	-0.309363
O18	O	1.728012	1.024036	0.190637
O19	O	1.108814	0.249135	-0.399782
O20	O	1.608814	0.749135	0.100218
O21	O	1.018321	0.405555	-0.190056
O22	O	1.518321	0.905555	0.309944
O23	O	0.899042	0.405502	-0.309353
O24	O	1.399042	0.905502	0.190647
O25	O	1.018358	0.523943	-0.519050
O26	O	1.518358	1.023943	-0.019050
O27	O	0.899025	0.523958	-0.399736
O28	O	1.399025	1.023958	0.100264
O29	O	1.108792	0.405475	-0.519070
O30	O	1.608792	0.905475	-0.019070
O31	O	1.108656	0.680392	-0.309336
O32	O	1.608656	1.180392	0.190664
O33	O	1.018281	0.680351	-0.399726
O34	O	1.518281	1.180351	0.100274
C35	C	0.872331	0.464727	-0.354543
C36	C	1.372331	0.964727	0.145457
C37	C	0.790532	0.464737	-0.354555
C38	C	1.290532	0.964737	0.145445
C39	C	0.602368	0.403157	-0.401706
C40	C	1.102368	0.903157	0.098294
C41	C	0.525509	0.403165	-0.401708
C42	C	1.025509	0.903165	0.098292
C43	C	0.525459	0.526383	-0.307419
C44	C	1.025459	1.026383	0.192581
C45	C	0.602316	0.526369	-0.307414
C46	C	1.102316	1.026369	0.192586
C47	C	0.640769	0.464757	-0.354561
C48	C	1.140769	0.964757	0.145439
C49	C	0.487053	0.464779	-0.354569
C50	C	0.987053	0.964779	0.145431
C51	C	0.403719	0.464789	-0.354572
C52	C	0.903719	0.964789	0.145428
C53	C	0.724108	0.464746	-0.354558
C54	C	1.224108	0.964746	0.145442
C55	C	1.063477	0.715371	-0.354543
C56	C	1.563477	1.215371	0.145457
C57	C	1.063519	0.822584	-0.354563
C58	C	1.563519	1.322584	0.145437
C59	C	1.063591	1.018879	-0.354616
C60	C	1.563591	1.518879	0.145384
C61	C	1.063549	0.909647	-0.354588
C62	C	1.563549	1.409647	0.145412
C63	C	1.255490	0.464787	-0.354569
C64	C	1.755490	0.964787	0.145431
C65	C	1.337289	0.464800	-0.354575
C66	C	1.837289	0.964800	0.145425
C67	C	1.063611	1.213163	-0.354594
C68	C	1.563611	1.713163	0.145406
C69	C	1.063627	1.105949	-0.354632
C70	C	1.563627	1.605949	0.145368
C71	C	1.063581	0.464701	-0.546509
C72	C	1.563581	0.964701	-0.046509
C73	C	1.063600	0.464677	-0.628308
C74	C	1.563600	0.964677	-0.128308
C75	C	1.110683	0.526259	-0.893366
C76	C	1.610683	1.026259	-0.393366
C77	C	1.110671	0.526293	-0.816508
C78	C	1.610671	1.026293	-0.316508
C79	C	1.016572	0.402909	-0.816498
C80	C	1.516572	0.902909	-0.316498
C81	C	1.016580	0.402881	-0.893356
C82	C	1.516580	0.902881	-0.393356
C83	C	1.063640	0.464555	-0.931788
C84	C	1.563640	0.964555	-0.431788
C85	C	1.063620	0.464616	-0.778072
C86	C	1.563620	0.964616	-0.278072
C87	C	1.063608	0.464652	-0.694738
C88	C	1.563608	0.964652	-0.194738
C89	C	1.063651	0.464520	-1.015127
C90	C	1.563651	0.964520	-0.515127
C91	C	1.063536	0.464742	-0.163350
C92	C	1.563536	0.964742	0.336650
C93	C	1.063660	0.464494	-0.081551
C94	C	1.563660	0.964494	0.418449
H95	H	0.494246	0.353002	-0.440097
H96	H	0.994246	0.853002	0.059903
H97	H	0.494142	0.576545	-0.269034
H98	H	0.994142	1.076545	0.230966
H99	H	0.633673	0.352986	-0.440094
H100	H	1.133673	0.852986	0.059906
H101	H	0.633583	0.576532	-0.269019
H102	H	1.133583	1.076532	0.230981
H103	H	0.978268	0.352633	-0.924639
H104	H	1.478268	0.852633	-0.424639
C105	C	1.162443	0.594110	-0.935639
C106	C	1.662443	1.094110	-0.435639
N107	N	1.201429	0.645221	-0.967476
N108	N	1.701429	1.145221	-0.467476
C109	C	1.162438	0.594152	-0.774247
C110	C	1.662438	1.094152	-0.274247
N111	N	1.201436	0.645260	-0.742418
N112	N	1.701436	1.145260	-0.242418
C113	C	0.964821	0.335056	-0.774216
C114	C	1.464821	0.835056	-0.274216
N115	N	0.925846	0.283941	-0.742370
N116	N	1.425846	0.783941	-0.242370
