data_functionalizedCrystal
_audit_creation_method	'MofGen! by Chris Wilmer'
_symmetry_space_group_name_H-M	'P1'
_symmetry_Int_Tables_number	1
_symmetry_cell_setting	triclinic
loop_
_symmetry_equiv_pos_as_xyz
  x,y,z
_cell_length_a	9.065218
_cell_length_b	7.681481
_cell_length_c	9.065215
_cell_angle_alpha	95.826309
_cell_angle_beta	85.015291
_cell_angle_gamma	84.191250
loop_
_atom_site_label
_atom_site_type_symbol
_atom_site_fract_x
_atom_site_fract_y
_atom_site_fract_z
O1	O	1.946634	0.146430	0.230141
O2	O	2.279967	0.479763	0.563474
O3	O	2.613301	0.813097	0.896807
O4	O	1.517349	0.146432	0.247887
O5	O	1.850682	0.479765	0.581221
O6	O	2.184016	0.813099	0.914554
O7	O	1.740868	0.146423	0.024371
O8	O	2.074201	0.479757	0.357704
O9	O	2.407534	0.813090	0.691037
O10	O	1.723115	0.146439	0.453657
O11	O	2.056449	0.479772	0.786991
O12	O	2.389782	0.813105	1.120324
O13	O	1.768378	-0.146435	-0.003204
O14	O	2.101712	0.186898	0.330130
O15	O	2.435045	0.520231	0.663463
O16	O	1.544860	-0.146427	0.220313
O17	O	1.878193	0.186907	0.553646
O18	O	2.211526	0.520240	0.886980
O19	O	1.974145	-0.146429	0.202566
O20	O	2.307478	0.186904	0.535900
O21	O	2.640811	0.520238	0.869233
Zn22	Zn	1.763870	-0.192925	0.207062
Zn23	Zn	2.097203	0.140408	0.540395
Zn24	Zn	2.430537	0.473741	0.873728
Zn25	Zn	1.727624	0.192929	0.243392
Zn26	Zn	2.060957	0.526262	0.576725
Zn27	Zn	2.394290	0.859595	0.910059
O28	O	1.750626	-0.146420	0.426083
O29	O	2.083959	0.186913	0.759416
O30	O	2.417293	0.520246	1.092750
C31	C	1.476118	0.000003	0.232395
C32	C	1.809451	0.333336	0.565728
C33	C	2.142784	0.666670	0.899061
C34	C	1.312275	0.000004	0.227295
C35	C	1.645608	0.333337	0.560628
C36	C	1.978941	0.666670	0.893962
N37	N	1.788618	-0.456261	0.182266
N38	N	2.121951	-0.122927	0.515600
N39	N	2.455285	0.210406	0.848933
C40	C	2.015376	0.000004	0.218059
C41	C	2.348709	0.333337	0.551393
C42	C	2.682042	0.666671	0.884726
C43	C	2.179218	0.000015	0.223160
C44	C	2.512551	0.333348	0.556493
C45	C	2.845884	0.666682	0.889827
C46	C	1.752918	-0.000004	-0.044403
C47	C	2.086251	0.333329	0.288930
C48	C	2.419585	0.666663	0.622264
C49	C	1.747819	0.000001	-0.208246
C50	C	2.081153	0.333335	0.125088
C51	C	2.414486	0.666668	0.458421
N52	N	1.702887	0.456264	0.268176
N53	N	2.036220	0.789597	0.601509
N54	N	2.369554	1.122931	0.934842
C55	C	1.738575	0.000011	0.494857
C56	C	2.071909	0.333345	0.828190
C57	C	2.405242	0.666678	1.161524
C58	C	1.743673	0.000017	0.658701
C59	C	2.077006	0.333351	0.992034
C60	C	2.410339	0.666684	1.325367
H61	H	1.615373	-0.468536	0.355863
H62	H	1.948707	-0.135203	0.689196
H63	H	2.282040	0.198131	1.022530
H64	H	1.876149	-0.531470	0.094584
H65	H	2.209482	-0.198136	0.427917
H66	H	2.542815	0.135197	0.761251
