data_functionalizedCrystal
_audit_creation_method	'MofGen! by Chris Wilmer'
_symmetry_space_group_name_H-M	'P1'
_symmetry_Int_Tables_number	1
_symmetry_cell_setting	triclinic
loop_
_symmetry_equiv_pos_as_xyz
  x,y,z
_cell_length_a	8.497374
_cell_length_b	8.497374
_cell_length_c	16.959455
_cell_angle_alpha	90.001960
_cell_angle_beta	90.002841
_cell_angle_gamma	90.004389
loop_
_atom_site_label
_atom_site_type_symbol
_atom_site_fract_x
_atom_site_fract_y
_atom_site_fract_z
Zn1	Zn	0.892136	0.628445	1.208398
Zn2	Zn	0.628402	0.892194	1.208391
Zn3	Zn	0.628360	0.628408	1.076253
Zn4	Zn	0.892130	0.892163	1.076235
O5	O	0.760257	0.760303	1.142320
O6	O	0.857171	0.663460	1.319008
O7	O	0.407634	0.857201	1.190867
O8	O	0.663336	0.407651	1.093793
O9	O	0.663407	0.857236	1.319003
O10	O	0.857131	0.407678	1.190880
O11	O	0.407603	0.663398	1.093786
O12	O	0.663330	0.663367	0.965640
O13	O	1.112893	0.857182	1.093763
O14	O	0.857120	0.857146	0.965627
O15	O	1.112898	0.663430	1.190862
O16	O	0.663401	1.112953	1.190850
O17	O	0.857161	1.112929	1.093756
C18	C	0.760221	0.760250	0.936953
C19	C	0.760243	0.760266	0.849097
C20	C	1.350377	0.760328	1.142324
C21	C	1.171733	0.760320	1.142316
C22	C	0.760280	1.170182	1.142310
C23	C	0.760254	1.348826	1.142331
C24	C	0.659561	0.659319	0.477604
C25	C	0.861043	0.861416	0.477639
C26	C	0.861034	0.861393	0.560185
C27	C	0.760284	0.760334	0.601444
C28	C	0.659545	0.659297	0.560157
C29	C	0.961760	0.962440	0.601477
C30	C	0.961753	0.962422	0.684028
C31	C	0.861011	0.861353	0.725289
C32	C	0.760268	0.760311	0.683997
C33	C	0.659519	0.659252	0.725257
C34	C	0.558783	0.558200	0.683966
C35	C	0.558802	0.558228	0.601418
C36	C	0.860992	0.861326	0.807838
C37	C	0.659503	0.659229	0.807810
C38	C	0.760294	0.760356	1.348488
C39	C	0.760310	0.760379	1.436344
H40	H	0.577469	0.576923	0.841398
H41	H	0.476787	0.475959	0.567792
O42	O	0.561762	0.561310	0.437378
C43	C	0.472564	0.471680	0.310196
C44	C	0.583373	0.582783	0.355653
H45	H	0.490022	0.488979	0.244114
H46	H	0.345277	0.499181	0.326358
H47	H	0.500441	0.344533	0.326471
H48	H	0.555639	0.709967	0.339402
H49	H	0.710628	0.555147	0.339487
H50	H	1.043779	1.044703	0.717640
O51	O	0.958852	0.959434	0.437441
C52	C	1.048091	1.049107	0.310282
C53	C	0.937263	0.937994	0.355711
H54	H	1.030652	1.031836	0.244195
H55	H	1.175373	1.021593	0.326456
H56	H	1.020218	1.176250	0.326571
H57	H	0.964994	0.810814	0.339446
H58	H	0.810014	0.965644	0.339533
H59	H	1.043773	1.044728	0.567878
H60	H	0.943005	0.943605	0.841452
H61	H	0.476747	0.475924	0.717570
