data_functionalizedCrystal
_audit_creation_method	'MofGen! by Chris Wilmer'
_symmetry_space_group_name_H-M	'P1'
_symmetry_Int_Tables_number	1
_symmetry_cell_setting	triclinic
loop_
_symmetry_equiv_pos_as_xyz
  x,y,z
_cell_length_a	12.759395
_cell_length_b	15.297327
_cell_length_c	12.759387
_cell_angle_alpha	99.642565
_cell_angle_beta	89.979491
_cell_angle_gamma	99.708038
loop_
_atom_site_label
_atom_site_type_symbol
_atom_site_fract_x
_atom_site_fract_y
_atom_site_fract_z
Zn1	Zn	1.533819	-0.359077	-0.666313
Zn2	Zn	1.503266	-0.509964	-0.521018
Zn3	Zn	1.358107	-0.359126	-0.490660
Zn4	Zn	1.327678	-0.509900	-0.696644
O5	O	1.430717	-0.434517	-0.593659
O6	O	1.676786	-0.379099	-0.647051
O7	O	1.483958	-0.490002	-0.369979
O8	O	1.406937	-0.232874	-0.488562
O9	O	1.654338	-0.489955	-0.540303
O10	O	1.536031	-0.232838	-0.617614
O11	O	1.377311	-0.379183	-0.347675
O12	O	1.207051	-0.379120	-0.517973
O13	O	1.355076	-0.489845	-0.839632
O14	O	1.184695	-0.489893	-0.669309
O15	O	1.506526	-0.379037	-0.817348
O16	O	1.454452	-0.636201	-0.569714
O17	O	1.325449	-0.636154	-0.698746
C18	C	1.157752	-0.434506	-0.593639
C19	C	1.040972	-0.434523	-0.593659
C20	C	1.383362	-0.668911	-0.640838
C21	C	1.363199	-0.769187	-0.661057
C22	C	1.017694	-0.550057	-0.751065
C23	C	0.951193	-0.607831	-0.829773
C24	C	0.841469	-0.607842	-0.829788
C25	C	0.798245	-0.550070	-0.751089
C26	C	0.864747	-0.492296	-0.672381
C27	C	0.974471	-0.492294	-0.672373
C28	C	0.888026	-0.376759	-0.514982
C29	C	0.997749	-0.376751	-0.514960
C30	C	0.844802	-0.318988	-0.436283
C31	C	0.911303	-0.261217	-0.357569
C32	C	1.021033	-0.261209	-0.357556
C33	C	1.064250	-0.318977	-0.436253
C34	C	1.575257	-1.051818	-0.449512
C35	C	1.594200	-0.957605	-0.430510
C36	C	1.536452	-0.910495	-0.488145
C37	C	1.459756	-0.957609	-0.564785
C38	C	1.440805	-1.051832	-0.583783
C39	C	1.402000	-0.910509	-0.622416
C40	C	1.325305	-0.957623	-0.699056
C41	C	1.306358	-1.051836	-0.718051
C42	C	1.364106	-1.098945	-0.660416
C43	C	1.420952	-0.816286	-0.603419
C44	C	1.286500	-0.816300	-0.737690
C45	C	1.267557	-0.910513	-0.756692
C46	C	1.704749	-0.434528	-0.593680
C47	C	1.821524	-0.434533	-0.593689
C48	C	1.430815	-0.434428	-0.867675
C49	C	1.430856	-0.434391	-0.984444
C50	C	1.478287	-0.199207	-0.546318
C51	C	1.498558	-0.098932	-0.526145
C52	C	1.588569	-0.319013	-0.961261
C53	C	1.667443	-0.261311	-1.004527
C54	C	1.667475	-0.261278	-1.114242
C55	C	1.588623	-0.318952	-1.180694
C56	C	1.509749	-0.376654	-1.137428
C57	C	1.509727	-0.376682	-1.027709
C58	C	1.352034	-0.492025	-1.160610
C59	C	1.352004	-0.492064	-1.050896
C60	C	1.273182	-0.549699	-1.227062
C61	C	1.194310	-0.607407	-1.183796
C62	C	1.194282	-0.607438	-1.074074
C63	C	1.273130	-0.549766	-1.007629
C64	C	1.430694	-0.434540	-0.320696
C65	C	1.430908	-0.434323	-0.203876
H66	H	0.986398	-0.654865	-0.893849
H67	H	1.107034	-0.550060	-0.751055
C68	C	1.638018	-1.102802	-0.386793
C69	C	1.709227	-1.041381	-0.315594
C70	C	1.767054	-1.088315	-0.257785
H71	H	1.676484	-1.139504	-0.434304
H72	H	1.590469	-1.139593	-0.348346
H73	H	1.756770	-1.004606	-0.354039
H74	H	1.670789	-1.004678	-0.268062
H75	H	1.719504	-1.125106	-0.219337
H76	H	1.805513	-1.125015	-0.305303
H77	H	1.815368	-1.046648	-0.209463
H78	H	0.876102	-0.214180	-0.293503
H79	H	1.348689	-1.175661	-0.675886
C80	C	1.588863	-0.318809	-1.299793
C81	C	1.674823	-0.255943	-1.323463
C82	C	1.675083	-0.255797	-1.433167
H83	H	1.524295	-0.303162	-1.321582
H84	H	1.595318	-0.377006	-1.336366
H85	H	1.668359	-0.197760	-1.286903
H86	H	1.739404	-0.271577	-1.301699
H87	H	1.681538	-0.313993	-1.469740
H88	H	1.610511	-0.240150	-1.454946
H89	H	1.733411	-0.213149	-1.449243
H90	H	1.731641	-0.214353	-0.950410
C91	C	1.273182	-0.549859	-1.346221
C92	C	1.282589	-0.635751	-1.399798
C93	C	1.282579	-0.635940	-1.509569
H94	H	1.331431	-0.507306	-1.362623
H95	H	1.208528	-0.534290	-1.367941
H96	H	1.347236	-0.651309	-1.378086
H97	H	1.224346	-0.678319	-1.383427
H98	H	1.217925	-0.620371	-1.531290
H99	H	1.340829	-0.593383	-1.525961
H100	H	1.288952	-0.694218	-1.545936
H101	H	1.075174	-0.214156	-0.293469
H102	H	1.483397	-0.777935	-0.541017
H103	H	1.273118	-0.549790	-0.918293
H104	H	1.153591	-0.318979	-0.436248
C105	C	1.557216	-0.808206	-0.467406
C106	C	1.636762	-0.777028	-0.387975
C107	C	1.655935	-0.682801	-0.368853
H108	H	1.493787	-0.786836	-0.444839
H109	H	1.579712	-0.786806	-0.530888
H110	H	1.614262	-0.798419	-0.324506
H111	H	1.700206	-0.798373	-0.410520
H112	H	1.678431	-0.661401	-0.432335
H113	H	1.592501	-0.661440	-0.346290
H114	H	1.709915	-0.661635	-0.314965
C115	C	0.769091	-0.670468	-0.915180
C116	C	0.663754	-0.658093	-0.898357
C117	C	0.597053	-0.715759	-0.977006
H118	H	0.774689	-0.731103	-0.911954
H119	H	0.789694	-0.657332	-0.983176
H120	H	0.643158	-0.671235	-0.830378
H121	H	0.658123	-0.597470	-0.901593
H122	H	0.617655	-0.702623	-1.045002
H123	H	0.602660	-0.776390	-0.973773
H124	H	0.525576	-0.707364	-0.965608
C125	C	1.108593	-0.670196	-1.027314
C126	C	1.039571	-0.720710	-1.109000
C127	C	0.960633	-0.778545	-1.065972
H128	H	1.069669	-0.635802	-0.977575
H129	H	1.140795	-0.709571	-0.992468
H130	H	1.007371	-0.681340	-1.143828
H131	H	1.078464	-0.755122	-1.158745
H132	H	0.992835	-0.817919	-1.031126
H133	H	0.921717	-0.744144	-1.016233
H134	H	0.913798	-0.812831	-1.121390
H135	H	0.708903	-0.550077	-0.751116
C136	C	1.223075	-1.102827	-0.801334
C137	C	1.176575	-1.041410	-0.847763
C138	C	1.099860	-1.088348	-0.924496
H139	H	1.169821	-1.139643	-0.768644
H140	H	1.255842	-1.139504	-0.854596
H141	H	1.143807	-1.004748	-0.794510
H142	H	1.229801	-1.004592	-0.880474
H143	H	1.132627	-1.125025	-0.977758
H144	H	1.046613	-1.125162	-0.891797
H145	H	1.068307	-1.046684	-0.956014
H146	H	1.205110	-0.948887	-0.819092
C147	C	1.223945	-0.765001	-0.800202
C148	C	1.256978	-0.672406	-0.767184
C149	C	1.199389	-0.625115	-0.824749
H150	H	1.150223	-0.780391	-0.787936
H151	H	1.236212	-0.780333	-0.873920
H152	H	1.244702	-0.657080	-0.693483
H153	H	1.330691	-0.656989	-0.779452
H154	H	1.211657	-0.640448	-0.898467
H155	H	1.125670	-0.640513	-0.812478
H156	H	1.221801	-0.562285	-0.802361
H157	H	1.656644	-0.919248	-0.368109
H158	H	1.588559	-0.319043	-0.871926
H159	H	0.755459	-0.318997	-0.436304
H160	H	1.731696	-0.214286	-1.149468
H161	H	1.130111	-0.654356	-1.237908
