data_functionalizedCrystal
_audit_creation_method	'MofGen! by Chris Wilmer'
_symmetry_space_group_name_H-M	'P1'
_symmetry_Int_Tables_number	1
_symmetry_cell_setting	triclinic
loop_
_symmetry_equiv_pos_as_xyz
  x,y,z
_cell_length_a	10.723024
_cell_length_b	27.732048
_cell_length_c	9.798715
_cell_angle_alpha	90.008083
_cell_angle_beta	90.003391
_cell_angle_gamma	83.555262
loop_
_atom_site_label
_atom_site_type_symbol
_atom_site_fract_x
_atom_site_fract_y
_atom_site_fract_z
O1	O	1.654382	0.067789	0.113499
O2	O	1.290961	0.074278	0.113505
O3	O	1.483959	0.000707	0.113476
O4	O	1.461384	0.141360	0.113528
O5	O	1.483944	0.000707	-0.113507
O6	O	1.290947	0.074278	-0.113477
O7	O	1.654368	0.067789	-0.113483
Zn8	Zn	1.472655	0.071033	-0.149519
Zn9	Zn	1.472674	0.071033	0.149540
O10	O	1.461370	0.141360	-0.113454
C11	C	1.244474	0.073806	0.000014
C12	C	1.105978	0.072393	0.000016
C13	C	1.483478	-0.017303	-0.000019
C14	C	1.482051	-0.070967	-0.000030
C15	C	1.029292	0.113559	0.000032
C16	C	0.886149	0.112100	0.000033
C17	C	1.587117	-0.409130	0.000038
C18	C	1.581823	-0.610822	0.000057
O19	O	1.677898	-0.641481	0.000115
N20	N	1.467383	-0.630656	0.000058
C21	C	1.354259	-0.600064	0.000063
O22	O	1.256800	-0.621562	0.000078
C23	C	1.359554	-0.398373	0.000053
C24	C	1.474001	-0.378541	0.000039
C25	C	1.701554	-0.389298	0.000025
C26	C	1.702877	-0.338877	0.000013
C27	C	1.589761	-0.308289	0.000013
C28	C	1.475324	-0.328121	0.000026
C29	C	1.246432	-0.367781	0.000068
C30	C	1.247766	-0.317356	0.000069
C31	C	1.362213	-0.297524	0.000054
C32	C	1.363531	-0.247113	0.000015
N33	N	1.477970	-0.227278	0.000014
C34	C	1.591085	-0.257867	0.000014
C35	C	1.351487	-0.705956	0.000065
C36	C	1.350163	-0.756378	0.000065
C37	C	1.577727	-0.767133	0.000062
C38	C	1.579050	-0.716709	0.000052
C39	C	1.465926	-0.686121	0.000064
C40	C	1.593854	-0.151980	-0.000013
C41	C	1.595166	-0.101555	-0.000031
C42	C	1.367603	-0.090805	-0.000021
C43	C	1.366290	-0.141226	-0.000010
C44	C	1.479425	-0.171813	-0.000002
O45	O	1.267507	-0.216425	-0.000028
O46	O	1.688531	-0.236359	0.000029
C47	C	1.585794	-0.459550	0.000050
C48	C	1.471357	-0.479382	0.000063
C49	C	1.358241	-0.448793	0.000064
C50	C	1.470033	-0.529804	0.000063
C51	C	1.583148	-0.560392	0.000062
C52	C	1.697587	-0.540558	0.000062
C53	C	1.698910	-0.490138	0.000049
C54	C	1.243802	-0.468628	0.000065
C55	C	1.242489	-0.519048	0.000075
C56	C	1.355604	-0.549637	0.000074
C57	C	1.700855	0.068261	0.000010
C58	C	1.839351	0.069674	0.000018
C59	C	1.461851	0.159370	0.000044
C60	C	1.463278	0.213034	0.000064
N61	N	1.472651	0.071033	-0.353618
C62	C	1.553691	0.040006	-0.421408
C63	C	1.553711	0.040005	-0.578570
N64	N	1.472687	0.071030	0.353640
H65	H	1.069611	0.149884	0.000037
H66	H	1.153237	-0.383919	0.000088
O67	O	1.229460	-0.672971	0.000058
H68	H	1.224596	-0.649738	0.092575
O69	O	0.926618	0.022988	-0.000003
H70	H	0.870555	-0.008312	-0.000006
H71	H	1.065659	0.036068	0.000037
H72	H	1.688366	-0.085411	-0.000047
H73	H	0.820258	0.147342	0.000052
O74	O	1.823567	-0.422286	0.000004
H75	H	1.903352	-0.400016	-0.000018
O76	O	1.380762	0.106212	-0.569150
H77	H	1.433054	0.129802	-0.504013
O78	O	1.715874	-0.184967	-0.000024
H79	H	1.795662	-0.162698	-0.000052
O80	O	1.125745	-0.284367	0.000067
H81	H	1.120899	-0.261133	0.092580
O82	O	1.822354	-0.468754	0.000062
H83	H	1.876662	-0.481023	-0.092442
O84	O	1.121793	-0.435638	0.000040
H85	H	1.042004	-0.457906	0.000027
O86	O	1.226722	-0.777764	0.000051
H87	H	1.220676	-0.800478	0.092558
O88	O	1.826315	-0.317490	0.000037
H89	H	1.904738	-0.347237	0.000060
H90	H	1.273098	-0.157373	-0.000036
O91	O	1.702486	-0.695320	0.000062
H92	H	1.780913	-0.725065	0.000072
O93	O	1.645634	0.004820	-0.655774
H94	H	1.630223	-0.032897	-0.628440
H95	H	1.403280	0.097593	-0.411932
O96	O	1.699736	-0.800127	0.000062
H97	H	1.704571	-0.823349	0.092585
O98	O	1.245601	-0.057810	-0.000018
H99	H	1.265759	-0.019417	-0.000013
O100	O	1.819595	-0.573554	0.000053
H101	H	1.824438	-0.596775	0.092576
O102	O	1.119042	-0.540436	0.000088
H103	H	1.040615	-0.510690	0.000099
O104	O	1.645548	0.004805	-0.344183
H105	H	1.631104	0.010325	-0.232859
