data_functionalizedCrystal
_audit_creation_method	'MofGen! by Chris Wilmer'
_symmetry_space_group_name_H-M	'P1'
_symmetry_Int_Tables_number	1
_symmetry_cell_setting	triclinic
loop_
_symmetry_equiv_pos_as_xyz
  x,y,z
_cell_length_a	17.019282
_cell_length_b	14.519709
_cell_length_c	16.098692
_cell_angle_alpha	86.949862
_cell_angle_beta	83.070929
_cell_angle_gamma	83.534293
loop_
_atom_site_label
_atom_site_type_symbol
_atom_site_fract_x
_atom_site_fract_y
_atom_site_fract_z
O1	O	1.047113	0.117739	-0.005866
O2	O	1.547113	0.617739	0.494134
O3	O	0.816718	0.131857	0.010665
O4	O	1.316718	0.631857	0.510665
O5	O	0.938024	-0.009437	0.001954
O6	O	1.438024	0.490563	0.501954
O7	O	0.925806	0.259033	0.002846
O8	O	1.425806	0.759033	0.502846
O9	O	0.944327	-0.002061	-0.137008
O10	O	1.444327	0.497939	0.362992
O11	O	0.823020	0.139233	-0.128296
O12	O	1.323020	0.639233	0.371704
O13	O	1.053416	0.125114	-0.144827
O14	O	1.553416	0.625114	0.355173
Zn15	Zn	0.939219	0.133345	-0.158625
Zn16	Zn	1.439219	0.633345	0.341375
Zn17	Zn	0.930915	0.123627	0.024463
Zn18	Zn	1.430915	0.623627	0.524463
O19	O	0.932109	0.266409	-0.136116
O20	O	1.432109	0.766409	0.363884
C21	C	0.940606	-0.040109	-0.067486
C22	C	1.440606	0.459891	0.432514
C23	C	0.938900	-0.142491	-0.067364
C24	C	1.438900	0.357509	0.432636
C25	C	0.790383	0.134866	-0.056700
C26	C	1.290383	0.634866	0.443300
C27	C	0.702524	0.132833	-0.050396
C28	C	1.202524	0.632833	0.449604
C29	C	0.932618	-0.517391	-0.066892
C30	C	1.432618	-0.017391	0.433108
C31	C	0.934362	-0.413082	-0.067023
C32	C	1.434362	0.086918	0.432977
C33	C	0.935759	-0.329945	-0.067129
C34	C	1.435759	0.170055	0.432871
C35	C	0.937504	-0.225629	-0.067259
C36	C	1.437504	0.274371	0.432741
C37	C	0.664688	0.135896	-0.123185
C38	C	1.164688	0.635896	0.376815
C39	C	0.582137	0.133971	-0.117264
C40	C	1.082137	0.633971	0.382736
C41	C	0.537422	0.128990	-0.038554
C42	C	1.037422	0.628990	0.461446
C43	C	0.575264	0.125924	0.034239
C44	C	1.075264	0.625924	0.534239
C45	C	0.657814	0.127842	0.028318
C46	C	1.157814	0.627842	0.528318
C47	C	0.288001	0.122990	-0.016886
C48	C	0.788001	0.622990	0.483114
C49	C	0.205445	0.121075	-0.010970
C50	C	0.705445	0.621075	0.489030
C51	C	0.212324	0.129121	-0.162474
C52	C	0.712324	0.629121	0.337526
C53	C	0.294875	0.131045	-0.168389
C54	C	0.794875	0.631045	0.331611
C55	C	0.332710	0.127973	-0.095595
C56	C	0.832710	0.627973	0.404405
C57	C	0.453041	0.127025	-0.032501
C58	C	0.953041	0.627025	0.467499
C59	C	0.417090	0.129932	-0.101649
C60	C	0.917090	0.629932	0.398351
C61	C	1.079750	0.122105	-0.077460
C62	C	1.579750	0.622105	0.422540
C63	C	1.167609	0.124138	-0.083758
C64	C	1.667609	0.624138	0.416242
C65	C	0.929527	0.297081	-0.066674
C66	C	1.429527	0.797081	0.433326
C67	C	0.931233	0.399463	-0.066791
C68	C	1.431233	0.899463	0.433209
N69	N	0.944892	0.139976	-0.283578
N70	N	1.444892	0.639976	0.216422
C71	C	0.898817	0.086215	-0.323884
C72	C	1.398817	0.586215	0.176116
C73	C	0.902805	0.090865	-0.411357
C74	C	1.402805	0.590865	0.088643
C75	C	0.952873	0.149272	-0.458522
C76	C	1.452873	0.649272	0.041478
C77	C	0.998950	0.203040	-0.418210
C78	C	1.498950	0.703040	0.081790
C79	C	0.994956	0.198394	-0.330738
C80	C	1.494956	0.698394	0.169262
C81	C	0.967331	0.166110	-0.722801
C82	C	1.467331	0.666110	-0.222801
C83	C	0.971322	0.170749	-0.810278
C84	C	1.471322	0.670749	-0.310278
C85	C	0.875177	0.058576	-0.803419
C86	C	1.375177	0.558576	-0.303419
C87	C	0.871192	0.053931	-0.715947
C88	C	1.371192	0.553931	-0.215947
C89	C	0.917265	0.107702	-0.675642
C90	C	1.417265	0.607702	-0.175642
C91	C	0.956953	0.154025	-0.547934
C92	C	1.456953	0.654025	-0.047934
C93	C	0.913180	0.102954	-0.586232
C94	C	1.413180	0.602954	-0.086232
N95	N	0.925248	0.116988	0.149415
N96	N	1.425248	0.616988	0.649415
H97	H	0.701088	0.139961	-0.187279
H98	H	1.201088	0.639961	0.312721
H99	H	0.551336	0.136450	-0.176536
H100	H	1.051336	0.636450	0.323464
H101	H	0.865287	0.047086	-0.444170
H102	H	1.365287	0.547086	0.055830
H103	H	0.997721	0.201577	-0.586345
H104	H	1.497721	0.701577	-0.086345
H105	H	0.830424	0.006367	-0.677550
H106	H	1.330424	0.506367	-0.177550
H107	H	0.331277	0.135097	-0.232482
H108	H	0.831277	0.635097	0.267518
H109	H	0.453501	0.133983	-0.165735
H110	H	0.953501	0.633983	0.334265
H111	H	0.872412	0.055403	-0.547826
H112	H	1.372412	0.555403	-0.047826
H113	H	0.181510	0.131620	-0.221739
H114	H	0.681510	0.631620	0.278261
H115	H	1.012095	0.218315	-0.848678
H116	H	1.512095	0.718315	-0.348678
H117	H	0.837666	0.014800	-0.836245
H118	H	1.337666	0.514800	-0.336245
H119	H	1.039712	0.250600	-0.456618
H120	H	1.539712	0.750600	0.043382
H121	H	1.004851	0.209890	-0.689996
H122	H	1.504851	0.709890	-0.189996
H123	H	1.032473	0.242175	-0.297922
H124	H	1.532473	0.742175	0.202078
H125	H	0.169040	0.117021	0.053128
H126	H	0.669040	0.617021	0.553128
H127	H	0.318797	0.120487	0.042388
H128	H	0.818797	0.620487	0.542388
H129	H	0.538851	0.121861	0.098327
H130	H	1.038851	0.621861	0.598327
H131	H	0.688619	0.125350	0.087590
H132	H	1.188619	0.625350	0.587590
H133	H	0.416625	0.122969	0.031585
H134	H	0.916625	0.622969	0.531585
H135	H	0.858049	0.038651	-0.285488
H136	H	1.358049	0.538651	0.214512
