data_functionalizedCrystal
_audit_creation_method	'MofGen! by Chris Wilmer'
_symmetry_space_group_name_H-M	'P1'
_symmetry_Int_Tables_number	1
_symmetry_cell_setting	triclinic
loop_
_symmetry_equiv_pos_as_xyz
  x,y,z
_cell_length_a	27.731993
_cell_length_b	27.731996
_cell_length_c	16.176319
_cell_angle_alpha	89.987220
_cell_angle_beta	90.004112
_cell_angle_gamma	82.620891
loop_
_atom_site_label
_atom_site_type_symbol
_atom_site_fract_x
_atom_site_fract_y
_atom_site_fract_z
O1	O	0.640936	0.057394	-0.068535
O2	O	0.500137	0.066167	-0.068587
O3	O	0.574922	-0.008619	-0.068541
O4	O	0.566150	0.132180	-0.068580
O5	O	0.574912	-0.008623	0.068952
O6	O	0.500127	0.066163	0.068907
O7	O	0.640925	0.057389	0.068959
Cu8	Cu	0.570525	0.061776	0.081487
Cu9	Cu	0.570537	0.061781	-0.081115
O10	O	0.566140	0.132176	0.068913
C11	C	0.482124	0.065985	0.000154
C12	C	0.428468	0.065443	0.000135
C13	C	0.574737	-0.026628	0.000208
C14	C	0.574194	-0.080284	0.000216
C15	C	0.045314	0.061515	-0.074772
C16	C	0.246971	0.063582	-0.074795
O17	O	0.273049	0.063832	-0.138536
N18	N	0.272186	0.063838	0.000151
C19	C	0.246984	0.063574	0.075108
O20	O	0.273058	0.063834	0.138853
C21	C	0.045328	0.061503	0.075130
C22	C	0.020115	0.061252	0.000179
C23	C	0.020101	0.061263	-0.149716
C24	C	-0.030310	0.060749	-0.149710
C25	C	-0.055509	0.060486	-0.074759
C26	C	-0.030296	0.060738	0.000186
C27	C	0.020127	0.061236	0.150086
C28	C	-0.030290	0.060717	0.150085
C29	C	-0.055502	0.060466	0.075134
C30	C	-0.105907	0.059962	0.075143
N31	N	-0.131121	0.059705	0.000198
C32	C	-0.105923	0.059968	-0.074754
C33	C	0.352856	0.064662	0.075091
C34	C	0.403269	0.065180	0.075086
C35	C	0.403253	0.065187	-0.074817
C36	C	0.352838	0.064672	-0.074811
C37	C	0.327641	0.064406	0.000145
C38	C	-0.211791	0.058889	-0.074734
C39	C	-0.262207	0.058377	-0.074721
C40	C	-0.262186	0.058367	0.075181
C41	C	-0.211775	0.058882	0.075169
C42	C	-0.186578	0.059141	0.000204
O43	O	-0.132015	0.059706	0.138852
O44	O	-0.132004	0.059697	-0.138489
C45	C	0.095726	0.062029	-0.074778
C46	C	0.120938	0.062280	0.000166
C47	C	0.095740	0.062018	0.075117
C48	C	0.171352	0.062799	0.000161
C49	C	0.196551	0.063061	-0.074790
C50	C	0.171336	0.062805	-0.149736
C51	C	0.120925	0.062291	-0.149729
C52	C	0.120954	0.062274	0.150063
C53	C	0.171366	0.062789	0.150050
C54	C	0.196565	0.063051	0.075099
C55	C	0.570785	-0.412998	-0.074773
C56	C	0.568724	-0.614655	-0.074788
O57	O	0.568441	-0.640724	-0.138529
N58	N	0.568462	-0.639875	0.000159
C59	C	0.568713	-0.614677	0.075115
O60	O	0.568438	-0.640754	0.138861
C61	C	0.570770	-0.413019	0.075129
C62	C	0.571037	-0.387803	0.000177
C63	C	0.571051	-0.387781	-0.149718
C64	C	0.571569	-0.337370	-0.149714
C65	C	0.571821	-0.312175	-0.074764
C66	C	0.571555	-0.337392	0.000182
C67	C	0.571018	-0.387821	0.150084
C68	C	0.571531	-0.337404	0.150081
C69	C	0.571797	-0.312187	0.075129
C70	C	0.572325	-0.261786	0.075137
N71	N	0.572586	-0.236567	0.000190
C72	C	0.572334	-0.261761	-0.074760
C73	C	0.567634	-0.720550	0.075102
C74	C	0.567120	-0.770964	0.075098
C75	C	0.567130	-0.770939	-0.074805
C76	C	0.567647	-0.720524	-0.074800
C77	C	0.567895	-0.695330	0.000155
C78	C	0.573422	-0.155894	-0.074745
C79	C	0.573942	-0.105479	-0.074734
C80	C	0.573929	-0.105508	0.075169
C81	C	0.573412	-0.155919	0.075158
C82	C	0.573157	-0.181111	0.000194
O83	O	0.572602	-0.235686	0.138844
O84	O	0.572598	-0.235674	-0.138497
C85	C	0.570267	-0.463409	-0.074777
C86	C	0.570001	-0.488625	0.000168
C87	C	0.570253	-0.463430	0.075118
C88	C	0.569488	-0.539039	0.000165
C89	C	0.569236	-0.564234	-0.074785
C90	C	0.569497	-0.539014	-0.149732
C91	C	0.570015	-0.488603	-0.149727
C92	C	0.569992	-0.488650	0.150065
C93	C	0.569474	-0.539061	0.150054
C94	C	0.569222	-0.564256	0.075104
C95	C	0.658938	0.057572	0.000216
C96	C	0.712594	0.058114	0.000230
C97	C	0.566325	0.150185	0.000162
C98	C	0.566868	0.203841	0.000148
N99	N	0.570520	0.061771	0.195852
N100	N	0.570546	0.061782	-0.195480
C101	C	0.603645	0.028670	0.239136
C102	C	0.603647	0.028669	0.325683
C103	C	0.570527	0.061773	0.368945
C104	C	0.537399	0.094877	0.325654
C105	C	0.537394	0.094874	0.239109
C106	C	0.537415	0.094886	0.674682
C107	C	0.537423	0.094886	0.761234
C108	C	0.603668	0.028680	0.761257
C109	C	0.603664	0.028678	0.674712
C110	C	0.570534	0.061780	0.631429
C111	C	0.570531	0.061779	0.537585
C112	C	0.570532	0.061776	0.462787
H113	H	-0.282733	0.058173	-0.135758
H114	H	0.510420	0.121829	0.203867
C115	C	0.566832	-0.798697	0.157551
N116	N	0.566611	-0.819583	0.219657
C117	C	0.430982	0.065472	-0.157264
N118	N	0.451870	0.065682	-0.219360
C119	C	0.501034	0.131361	0.627083
N120	N	0.473652	0.158858	0.591227
C121	C	0.640108	-0.007737	0.808876
N122	N	0.667554	-0.035165	0.844741
H123	H	0.573200	-0.176452	0.136190
H124	H	-0.191281	0.059100	-0.135777
C125	C	0.574202	-0.077784	0.157610
N126	N	0.574402	-0.056899	0.219705
C127	C	0.566849	-0.798662	-0.157251
N128	N	0.566633	-0.819545	-0.219345
H129	H	0.191862	0.063022	-0.210764
C130	C	0.093198	0.062009	-0.232182
N131	N	0.072318	0.061794	-0.294290
H132	H	-0.050834	0.060542	-0.210743
C133	C	0.573150	-0.183599	-0.157209
N134	N	0.572950	-0.204467	-0.219320
C135	C	0.567910	-0.692843	0.157564
N136	N	0.568120	-0.671977	0.219676
H137	H	0.571784	-0.316843	-0.210747
C138	C	0.500961	0.131287	0.373245
N139	N	0.473516	0.158712	0.409089
H140	H	0.630620	0.001715	0.360925
H141	H	0.510451	0.121844	0.796456
C142	C	0.199094	0.063065	0.232508
N143	N	0.219978	0.063268	0.294614
C144	C	0.570718	-0.415547	0.232538
N145	N	0.570490	-0.436429	0.294648
H146	H	0.569261	-0.559589	0.211094
C147	C	0.640098	-0.007740	0.627129
N148	N	0.667539	-0.035173	0.591291
C149	C	0.093241	0.061994	0.232520
N150	N	0.072369	0.061788	0.294632
C151	C	0.325110	0.064391	-0.157262
N152	N	0.304227	0.064176	-0.219367
C153	C	0.640080	-0.007748	0.191557
N154	N	0.667523	-0.035181	0.155723
C155	C	0.570305	-0.460871	-0.232181
N156	N	0.570521	-0.439987	-0.294290
H157	H	0.574160	-0.084950	-0.135771
C158	C	-0.058004	0.060427	0.232545
N159	N	-0.078878	0.060210	0.294654
H160	H	0.570844	-0.408289	-0.210755
H161	H	0.569294	-0.559537	-0.210759
H162	H	0.040613	0.061475	-0.210754
H163	H	0.570197	-0.468142	0.211100
C164	C	0.430997	0.065462	0.157537
N165	N	0.451880	0.065671	0.219643
C166	C	-0.184041	0.059162	0.157618
N167	N	-0.163154	0.059368	0.219720
C168	C	0.325143	0.064379	0.157554
N169	N	0.304272	0.064171	0.219667
H170	H	0.571725	-0.316892	0.211120
H171	H	0.040647	0.061439	0.211119
H172	H	0.567863	-0.699997	-0.135833
H173	H	-0.282713	0.058155	0.136205
