data_functionalizedCrystal
_audit_creation_method	'MofGen! by Chris Wilmer'
_symmetry_space_group_name_H-M	'P1'
_symmetry_Int_Tables_number	1
_symmetry_cell_setting	triclinic
loop_
_symmetry_equiv_pos_as_xyz
  x,y,z
_cell_length_a	15.711784
_cell_length_b	12.811415
_cell_length_c	11.892283
_cell_angle_alpha	80.670937
_cell_angle_beta	84.948255
_cell_angle_gamma	78.264741
loop_
_atom_site_label
_atom_site_type_symbol
_atom_site_fract_x
_atom_site_fract_y
_atom_site_fract_z
O1	O	1.139990	-0.583981	0.153908
O2	O	0.888522	-0.503545	0.145655
O3	O	1.021502	-0.392648	0.134286
O4	O	1.007009	-0.694879	0.165277
O5	O	1.032566	-0.383414	-0.054663
O6	O	0.899586	-0.494312	-0.043294
O7	O	1.151054	-0.574748	-0.035041
Zn8	Zn	1.027077	-0.533064	-0.069167
Zn9	Zn	1.012499	-0.545229	0.179781
O10	O	1.018073	-0.685645	-0.023672
C11	C	0.861882	-0.485789	0.049832
C12	C	0.766019	-0.446624	0.045814
C13	C	0.641429	-0.299182	0.030694
C14	C	0.731506	-0.335994	0.034470
C15	C	0.710460	-0.520486	0.053393
C16	C	0.620380	-0.483689	0.049624
C17	C	0.585872	-0.373036	0.038273
C18	C	0.564822	-0.557544	0.057203
C19	C	0.474750	-0.520750	0.053429
C20	C	0.440235	-0.410101	0.042075
C21	C	0.495799	-0.336242	0.034499
C22	C	0.599333	-0.668197	0.068546
C23	C	0.543776	-0.742051	0.076125
C24	C	0.453701	-0.705258	0.072358
C25	C	0.419186	-0.594609	0.061005
C26	C	0.398137	-0.779117	0.079934
C27	C	0.308064	-0.742323	0.076160
C28	C	0.329114	-0.557815	0.057230
C29	C	1.026561	-0.348456	0.035755
C30	C	1.025142	-0.230531	0.023670
C31	C	1.177694	-0.592504	0.060784
C32	C	1.273556	-0.631669	0.064809
C33	C	1.013014	-0.729837	0.074861
C34	C	1.014433	-0.847763	0.086953
C35	C	1.010396	-0.019010	0.206976
C36	C	1.009062	0.091791	0.195627
C37	C	1.021135	0.101876	-0.010378
C38	C	1.022468	-0.008925	0.000972
C39	C	1.017100	-0.069365	0.109652
C40	C	1.018440	-0.180169	0.121001
C41	C	1.030506	-0.170081	-0.085002
C42	C	1.029172	-0.059280	-0.096352
N43	N	1.037032	-0.524763	-0.239068
C44	C	1.106396	-0.466984	-0.422495
C45	C	1.099418	-0.472788	-0.303561
C46	C	0.981621	-0.570941	-0.293516
C47	C	0.988599	-0.565137	-0.412449
C48	C	1.050988	-0.513156	-0.476935
C49	C	1.057961	-0.507346	-0.595871
C50	C	0.940169	-0.605506	-0.585823
C51	C	0.933192	-0.611309	-0.466889
N52	N	1.002551	-0.553524	0.349681
H53	H	0.467701	-0.246138	0.025268
H54	H	0.895050	-0.643098	-0.630161
H55	H	1.108758	-0.465017	-0.648376
H56	H	0.301015	-0.467711	0.047999
H57	H	1.144537	-0.435192	-0.259240
H58	H	1.006033	-0.068222	0.295468
O59	O	1.026923	0.167089	-0.127581
H60	H	0.971225	0.161594	-0.176170
O61	O	0.696484	-0.707881	0.072609
H62	H	0.711148	-0.797229	0.081756
H63	H	0.930832	-0.613272	-0.240995
O64	O	1.034981	0.005904	-0.213568
H65	H	1.032939	0.091409	-0.205112
H66	H	1.014072	-0.229378	0.209495
O67	O	0.865884	-0.667342	-0.397340
H68	H	0.870329	-0.663606	-0.305492
H69	H	1.003600	0.132786	0.274878
O70	O	0.435359	-0.898461	0.092170
H71	H	0.507326	-0.911638	0.093522
O72	O	1.173682	-0.410925	-0.492060
H73	H	1.211042	-0.379797	-0.434221
O74	O	0.343086	-0.370406	0.037991
H75	H	0.319371	-0.324630	0.109915
O76	O	0.604198	-0.179832	0.018448
H77	H	0.622023	-0.146413	0.091643
O78	O	0.791436	-0.256336	0.026297
H79	H	0.774694	-0.208802	0.098051
O80	O	0.747680	-0.639831	0.065639
H81	H	0.819647	-0.653011	0.066997
H82	H	1.035968	-0.211092	-0.164250
H83	H	0.571885	-0.832146	0.085362
O84	O	0.248132	-0.821973	0.084342
H85	H	0.287258	-0.905098	0.092882
