data_functionalizedCrystal
_audit_creation_method	'MofGen! by Chris Wilmer'
_symmetry_space_group_name_H-M	'P1'
_symmetry_Int_Tables_number	1
_symmetry_cell_setting	triclinic
loop_
_symmetry_equiv_pos_as_xyz
  x,y,z
_cell_length_a	12.594516
_cell_length_b	16.625548
_cell_length_c	16.625539
_cell_angle_alpha	89.981168
_cell_angle_beta	90.021462
_cell_angle_gamma	89.984088
loop_
_atom_site_label
_atom_site_type_symbol
_atom_site_fract_x
_atom_site_fract_y
_atom_site_fract_z
Zn1	Zn	-0.423764	-1.232688	0.455975
Zn2	Zn	-0.601759	-1.232615	0.321154
Zn3	Zn	-0.423795	-1.097859	0.321152
Zn4	Zn	-0.601700	-1.097836	0.455940
O5	O	-0.512755	-1.165249	0.388555
O6	O	-0.447387	-1.345511	0.438107
O7	O	-0.578190	-1.214718	0.208322
O8	O	-0.274845	-1.115784	0.339050
O9	O	-0.578160	-1.345457	0.339055
O10	O	-0.274822	-1.214843	0.438105
O11	O	-0.447440	-1.115713	0.208320
O12	O	-0.447383	-0.985023	0.339016
O13	O	-0.578059	-1.115745	0.568777
O14	O	-0.578089	-0.985006	0.438044
O15	O	-0.447330	-1.214821	0.568803
O16	O	-0.750697	-1.214696	0.339020
O17	O	-0.750654	-1.115674	0.438047
C18	C	-0.512733	-0.955759	0.388526
C19	C	-0.512750	-0.866138	0.388533
C20	C	-0.512748	-0.537962	0.388557
C21	C	-0.512746	-0.629270	0.388548
C22	C	-0.512750	-0.702047	0.388545
C23	C	-0.512746	-0.793361	0.388537
C24	C	-0.789296	-1.165197	0.388548
C25	C	-0.907601	-1.165248	0.388571
C26	C	-0.976869	-1.111385	0.442394
C27	C	-1.047726	-1.091744	0.368819
C28	C	-1.047543	-1.184962	0.462159
C29	C	-0.976900	-1.145568	0.314957
C30	C	-0.976710	-1.238820	0.408347
C31	C	-1.047535	-1.219208	0.334721
C32	C	-0.235134	-1.165324	0.388581
C33	C	-0.116828	-1.165356	0.388592
C34	C	-0.512684	-1.165289	0.598864
C35	C	-0.512654	-1.165306	0.688486
C36	C	-0.512769	-0.375558	0.388577
C37	C	-0.512758	-0.465179	0.388567
C38	C	-0.512748	-1.165256	0.179065
C39	C	-0.512478	-1.165396	0.089444
C40	C	-0.512631	-1.165319	0.761268
C41	C	-0.512591	-1.165338	0.852577
C42	C	-0.512554	-1.165357	0.925353
C43	C	-0.512515	-1.165377	1.016667
H44	H	-0.945839	-1.065753	0.487844
F45	F	-0.936513	-1.123740	0.233602
F46	F	-1.088496	-1.010482	0.346959
H47	H	-1.078368	-1.264804	0.289161
H48	H	-0.945496	-1.300974	0.425092
F49	F	-1.088106	-1.206698	0.543489
