data_functionalizedCrystal
_audit_creation_method	'MofGen! by Chris Wilmer'
_symmetry_space_group_name_H-M	'P1'
_symmetry_Int_Tables_number	1
_symmetry_cell_setting	triclinic
loop_
_symmetry_equiv_pos_as_xyz
  x,y,z
_cell_length_a	19.805407
_cell_length_b	29.839132
_cell_length_c	19.805399
_cell_angle_alpha	90.031779
_cell_angle_beta	89.980427
_cell_angle_gamma	89.954737
loop_
_atom_site_label
_atom_site_type_symbol
_atom_site_fract_x
_atom_site_fract_y
_atom_site_fract_z
Zn1	Zn	1.034647	0.178864	-0.382700
Zn2	Zn	1.034525	0.253991	-0.269503
Zn3	Zn	0.921462	0.178876	-0.269524
Zn4	Zn	0.921388	0.253967	-0.382650
O5	O	0.978005	0.216425	-0.326094
O6	O	1.129347	0.188834	-0.367696
O7	O	1.019506	0.244042	-0.174790
O8	O	0.936558	0.116007	-0.284567
O9	O	1.129257	0.244030	-0.284531
O10	O	1.019715	0.115998	-0.367717
O11	O	0.936439	0.188856	-0.174805
O12	O	0.826735	0.188832	-0.284519
O13	O	0.936432	0.243990	-0.477373
O14	O	0.826681	0.244002	-0.367632
O15	O	1.019643	0.188811	-0.477410
O16	O	1.019435	0.316855	-0.284483
O17	O	0.936314	0.316838	-0.367611
C18	C	0.802149	0.216416	-0.326073
C19	C	0.726917	0.216423	-0.326079
C20	C	0.691563	0.245193	-0.369286
C21	C	0.620874	0.245194	-0.369296
C22	C	0.585542	0.216427	-0.326094
C23	C	0.620901	0.187654	-0.282886
C24	C	0.691588	0.187651	-0.282880
C25	C	0.335828	0.187664	-0.282908
C26	C	0.265136	0.187669	-0.282916
C27	C	0.265114	0.245207	-0.369324
C28	C	0.335801	0.245204	-0.369318
C29	C	0.371154	0.216429	-0.326112
C30	C	0.447803	0.216428	-0.326103
C31	C	0.508895	0.216430	-0.326099
C32	C	0.977871	0.333147	-0.326054
C33	C	0.977876	0.383082	-0.326059
C34	C	1.021317	0.692722	-0.282845
C35	C	1.021382	0.880395	-0.282860
O36	O	1.058244	0.904656	-0.246106
N37	N	0.978076	0.903867	-0.326105
C38	C	0.934755	0.880418	-0.369353
O39	O	0.897927	0.904688	-0.406141
C40	C	0.934694	0.692746	-0.369341
C41	C	0.977997	0.669276	-0.326088
C42	C	1.064617	0.669252	-0.239596
C43	C	1.064598	0.622336	-0.239590
C44	C	1.021279	0.598891	-0.282833
C45	C	0.977978	0.622360	-0.326082
C46	C	0.891376	0.669297	-0.412591
C47	C	0.891366	0.622376	-0.412585
C48	C	0.934670	0.598907	-0.369332
C49	C	0.934639	0.551999	-0.369318
N50	N	0.977945	0.528527	-0.326073
C51	C	1.021264	0.551973	-0.282831
C52	C	0.934789	0.978948	-0.369355
C53	C	0.934803	1.025866	-0.369358
C54	C	1.021431	1.025840	-0.282866
C55	C	1.021413	0.978921	-0.282861
C56	C	0.978094	0.955476	-0.326110
C57	C	1.021220	0.453447	-0.282821
C58	C	1.021195	0.406527	-0.282817
C59	C	0.934570	0.406558	-0.369311
C60	C	0.934592	0.453473	-0.369313
C61	C	0.977923	0.476917	-0.326065
O62	O	0.897802	0.527709	-0.406059
O63	O	1.058097	0.527694	-0.246059
C64	C	1.021336	0.739637	-0.282851
C65	C	0.978036	0.763107	-0.326100
C66	C	0.934716	0.739661	-0.369342
C67	C	0.978050	0.810025	-0.326102
C68	C	1.021369	0.833470	-0.282859
C69	C	1.064675	0.809998	-0.239614
C70	C	1.064656	0.763083	-0.239608
C71	C	0.891411	0.763133	-0.412588
C72	C	0.891433	0.810049	-0.412590
C73	C	0.934753	0.833494	-0.369347
C74	C	1.154548	0.216434	-0.326117
C75	C	1.229780	0.216437	-0.326126
C76	C	0.978043	0.216396	-0.502637
C77	C	0.978059	0.216384	-0.577869
C78	C	0.978133	1.099246	-0.326135
C79	C	0.978122	1.049312	-0.326115
C80	C	1.021388	0.187652	-0.613234
C81	C	1.021395	0.187638	-0.683922
C82	C	0.978076	0.216361	-0.719245
C83	C	0.934743	0.245095	-0.683876
C84	C	0.934733	0.245105	-0.613188
C85	C	0.934781	0.245053	-0.968949
C86	C	0.934795	0.245041	-1.039641
C87	C	1.021443	0.187586	-1.039683
C88	C	1.021434	0.187597	-0.968995
C89	C	0.978098	0.216329	-0.933632
C90	C	0.978090	0.216342	-0.856984
C91	C	0.978087	0.216350	-0.795892
C92	C	0.978006	0.216420	-0.150238
C93	C	0.978121	0.216306	-0.075007
H94	H	0.364604	0.164237	-0.247722
O95	O	0.370091	0.273100	-0.411382
C96	C	0.391712	0.295021	-0.526452
C97	C	0.352850	0.263395	-0.478889
H98	H	0.377776	0.287193	-0.581040
H99	H	0.448315	0.290076	-0.519086
H100	H	0.377777	0.331234	-0.514433
H101	H	0.366728	0.227170	-0.490879
H102	H	0.296257	0.268379	-0.486264
O103	O	0.586636	0.273189	-0.411280
C104	C	0.594073	0.330253	-0.496998
C105	C	0.632932	0.298576	-0.449475
H106	H	0.631487	0.350780	-0.527900
H107	H	0.560962	0.353744	-0.465882
H108	H	0.560996	0.309659	-0.532427
H109	H	0.666046	0.319134	-0.414035
H110	H	0.666001	0.275083	-0.480632
H111	H	1.099917	0.743977	-0.204388
H112	H	0.899517	0.268431	-1.068399
O113	O	0.892742	0.273040	-0.578755
C114	C	0.883556	0.333720	-0.498939
C115	C	0.931188	0.302107	-0.537881
H116	H	0.914621	0.357234	-0.465894
H117	H	0.848199	0.313120	-0.465802
H118	H	0.852580	0.354229	-0.536334
H119	H	0.962208	0.281590	-0.500535
H120	H	0.966500	0.322731	-0.571029
O121	O	0.849293	0.832865	-0.454512
C122	C	0.757954	0.885915	-0.463565
C123	C	0.805614	0.860098	-0.416007
H124	H	0.722637	0.907947	-0.432453
H125	H	0.726943	0.861115	-0.494459
H126	H	0.789035	0.907821	-0.499002
H127	H	0.774585	0.838192	-0.380529
H128	H	0.836627	0.884923	-0.385161
H129	H	0.856111	0.688398	-0.447809
O130	O	0.230891	0.159743	-0.240853
C131	C	0.209215	0.137850	-0.125781
C132	C	0.248047	0.169494	-0.173340
H133	H	0.223060	0.145729	-0.071187
H134	H	0.223169	0.101627	-0.137717
H135	H	0.152622	0.142787	-0.133237
H136	H	0.304648	0.164597	-0.165911
H137	H	0.234037	0.205705	-0.161393
H138	H	0.899469	0.268480	-0.712641
O139	O	0.230666	0.273113	-0.411279
C140	C	0.121760	0.298640	-0.449562
C141	C	0.160685	0.267005	-0.402028
H142	H	0.065173	0.293719	-0.442089
H143	H	0.135642	0.290798	-0.504175
H144	H	0.135654	0.334849	-0.437576
H145	H	0.146811	0.230786	-0.413952
H146	H	0.146798	0.274885	-0.347429
O147	O	0.586477	0.159749	-0.240945
C148	C	0.477592	0.134229	-0.202690
C149	C	0.516491	0.165863	-0.250211
H150	H	0.421002	0.139155	-0.210176
H151	H	0.491407	0.142068	-0.148073
H152	H	0.491577	0.098020	-0.214674
H153	H	0.502527	0.202083	-0.238288
H154	H	0.502672	0.157985	-0.304814
H155	H	1.099897	0.688336	-0.204383
O156	O	0.892656	0.272999	-0.934708
C157	C	0.806658	0.329952	-0.942133
C158	C	0.854350	0.298337	-0.980998
H159	H	0.775665	0.350439	-0.979542
H160	H	0.837646	0.353484	-0.909042
H161	H	0.771321	0.309312	-0.909035
H162	H	0.889697	0.318940	-1.014134
H163	H	0.823320	0.274804	-1.014047
H164	H	1.099861	0.603230	-0.204372
O165	O	1.106751	0.832847	-0.197688
C166	C	1.145170	0.905122	-0.159389
C167	C	1.097486	0.879299	-0.206897
H168	H	1.137686	0.942683	-0.166808
H169	H	1.199745	0.895883	-0.171350
H170	H	1.133348	0.895913	-0.104796
H171	H	1.109247	0.888494	-0.261506
H172	H	1.042926	0.888541	-0.194878
O173	O	0.892399	0.383800	-0.411249
C174	C	0.777253	0.369522	-0.444051
C175	C	0.824927	0.395315	-0.396495
H176	H	0.722693	0.378829	-0.432148
H177	H	0.784625	0.331952	-0.436617
H178	H	0.789156	0.378713	-0.498633
H179	H	0.813054	0.386162	-0.341895
H180	H	0.817547	0.432879	-0.403987
O181	O	1.063330	0.476146	-0.240745
C182	C	1.149271	0.471156	-0.154978
C183	C	1.101611	0.445394	-0.202587
H184	H	1.180243	0.446304	-0.124125
H185	H	1.118259	0.493144	-0.119512
H186	H	1.184629	0.493097	-0.186093
H187	H	1.066243	0.423428	-0.171527
H188	H	1.132665	0.423433	-0.238055
H189	H	0.720373	0.164221	-0.247700
O190	O	1.063167	0.383710	-0.240728
C191	C	1.072313	0.330754	-0.149370
C192	C	1.024705	0.356572	-0.196979
H193	H	1.041236	0.308800	-0.113996
H194	H	1.103266	0.355553	-0.118417
H195	H	1.107692	0.308770	-0.180488
H196	H	0.989285	0.378557	-0.165913
H197	H	0.993799	0.331748	-0.227933
H198	H	1.056711	0.164209	-0.940239
H199	H	1.056674	0.959815	-0.247641
O200	O	1.063531	1.048689	-0.240964
C201	C	1.102004	1.120963	-0.202716
C202	C	1.054276	1.095140	-0.250182
H203	H	1.094527	1.158524	-0.210142
H204	H	1.156567	1.111713	-0.214714
H205	H	1.090218	1.111764	-0.148112
H206	H	1.066001	1.104325	-0.304802
H207	H	0.999728	1.104392	-0.238126
O208	O	0.892711	1.048592	-0.411432
C209	C	0.806762	1.043654	-0.497194
C210	C	0.854405	1.017863	-0.449585
H211	H	0.775769	1.018820	-0.528043
H212	H	0.837789	1.065572	-0.532664
H213	H	0.771422	1.065668	-0.466080
H214	H	0.889755	0.995825	-0.480645
H215	H	0.823337	0.995973	-0.414113
O216	O	1.063374	0.159726	-0.578851
C217	C	1.072541	0.099062	-0.499113
C218	C	1.024918	0.130669	-0.537993
H219	H	1.041468	0.075555	-0.466081
H220	H	1.107893	0.119667	-0.465969
H221	H	1.103522	0.078544	-0.536548
H222	H	0.993893	0.151194	-0.500606
H223	H	0.989611	0.110039	-0.571147
H224	H	0.899512	0.959863	-0.404575
H225	H	1.056680	0.164242	-0.712713
H226	H	0.856092	0.603290	-0.447807
O227	O	0.892599	0.476256	-0.411421
C228	C	0.859660	0.490561	-0.526526
C229	C	0.907263	0.464744	-0.478910
H230	H	0.871490	0.481257	-0.581100
H231	H	0.867121	0.528127	-0.519165
H232	H	0.805089	0.481389	-0.514554
H233	H	0.961853	0.473879	-0.490852
H234	H	0.899744	0.427184	-0.486279
H235	H	0.856136	0.744047	-0.447802
H236	H	0.720325	0.268620	-0.404463
H237	H	1.056727	0.164189	-1.068484
