data_functionalizedCrystal
_audit_creation_method	'MofGen! by Chris Wilmer'
_symmetry_space_group_name_H-M	'P1'
_symmetry_Int_Tables_number	1
_symmetry_cell_setting	triclinic
loop_
_symmetry_equiv_pos_as_xyz
  x,y,z
_cell_length_a	15.944499
_cell_length_b	17.038272
_cell_length_c	15.021413
_cell_angle_alpha	90.004029
_cell_angle_beta	89.990095
_cell_angle_gamma	87.294583
loop_
_atom_site_label
_atom_site_type_symbol
_atom_site_fract_x
_atom_site_fract_y
_atom_site_fract_z
O1	O	1.121741	0.100633	-0.074087
O2	O	1.455074	0.433967	0.259247
O3	O	1.788408	0.767300	0.592580
O4	O	0.878076	0.113108	-0.074077
O5	O	1.211410	0.446441	0.259256
O6	O	1.544743	0.779774	0.592590
O7	O	0.998461	-0.006945	-0.074075
O8	O	1.331794	0.326388	0.259259
O9	O	1.665127	0.659722	0.592592
O10	O	1.001357	0.220686	-0.074089
O11	O	1.334690	0.554019	0.259244
O12	O	1.668024	0.887353	0.592578
O13	O	0.998441	-0.006928	0.073989
O14	O	1.331775	0.326405	0.407323
O15	O	1.665108	0.659739	0.740656
O16	O	0.878057	0.113125	0.073987
O17	O	1.211390	0.446458	0.407321
O18	O	1.544724	0.779792	0.740654
O19	O	1.121722	0.100651	0.073977
O20	O	1.455055	0.433984	0.407311
O21	O	1.788389	0.767317	0.740644
Zn22	Zn	0.999886	0.106890	0.097491
Zn23	Zn	1.333220	0.440224	0.430824
Zn24	Zn	1.666553	0.773557	0.764157
Zn25	Zn	0.999912	0.106868	-0.097590
Zn26	Zn	1.333245	0.440201	0.235743
Zn27	Zn	1.666578	0.773534	0.569076
O28	O	1.001338	0.220703	0.073975
O29	O	1.334671	0.554037	0.407309
O30	O	1.668004	0.887370	0.740642
C31	C	0.846735	0.112606	-0.000044
C32	C	1.180069	0.445939	0.333290
C33	C	1.513402	0.779272	0.666623
C34	C	0.753378	0.111074	-0.000040
C35	C	1.086711	0.444408	0.333294
C36	C	1.420044	0.777741	0.666627
C37	C	0.466822	0.180822	-0.000057
C38	C	0.800155	0.514155	0.333276
C39	C	1.133488	0.847489	0.666609
C40	C	0.525272	0.144557	-0.073060
C41	C	0.858605	0.477890	0.260273
C42	C	1.191938	0.811224	0.593607
C43	C	0.417344	0.105512	-0.000060
C44	C	0.750677	0.438845	0.333273
C45	C	1.084011	0.772178	0.666607
C46	C	0.525237	0.144554	0.072920
C47	C	0.858570	0.477887	0.406253
C48	C	1.191904	0.811220	0.739586
C49	C	0.582448	0.108249	-0.000048
C50	C	0.915782	0.441582	0.333285
C51	C	1.249115	0.774916	0.666618
C52	C	0.474564	0.069226	-0.073123
C53	C	0.807898	0.402559	0.260210
C54	C	1.141231	0.735893	0.593544
C55	C	0.474524	0.069233	0.072922
C56	C	0.807858	0.402566	0.406256
C57	C	1.141191	0.735900	0.739589
C58	C	0.532953	0.032913	-0.000098
C59	C	0.866286	0.366247	0.333235
C60	C	1.199619	0.699580	0.666568
C61	C	0.322232	0.103937	-0.000067
C62	C	0.655565	0.437270	0.333266
C63	C	0.988898	0.770604	0.666599
C64	C	0.677559	0.109818	-0.000047
C65	C	1.010893	0.443151	0.333286
C66	C	1.344226	0.776484	0.666619
C67	C	0.995817	-0.036065	-0.000043
C68	C	1.329150	0.297268	0.333291
C69	C	1.662483	0.630602	0.666624
C70	C	0.987957	-0.122859	-0.000043
C71	C	1.321291	0.210474	0.333291
C72	C	1.654624	0.543808	0.666624
C73	C	1.060116	-0.172964	-0.000045
C74	C	1.393449	0.160369	0.333289
C75	C	1.726782	0.493703	0.666622
C76	C	1.052726	-0.254516	-0.000053
C77	C	1.386059	0.078818	0.333281
C78	C	1.719393	0.412151	0.666614
C79	C	0.973177	-0.285960	-0.000053
C80	C	1.306510	0.047373	0.333281
C81	C	1.639844	0.380706	0.666614
C82	C	0.901013	-0.235849	-0.000053
C83	C	1.234347	0.097485	0.333280
C84	C	1.567680	0.430818	0.666613
C85	C	0.908404	-0.154299	-0.000051
C86	C	1.241737	0.179035	0.333282
C87	C	1.575070	0.512368	0.666615
C88	C	0.947068	-0.531721	-0.000064
C89	C	1.280401	-0.198388	0.333270
C90	C	1.613734	0.134945	0.666603
C91	C	0.939682	-0.613278	-0.000063
C92	C	1.273016	-0.279944	0.333271
C93	C	1.606349	0.053389	0.666604
C94	C	1.091396	-0.631939	-0.000064
C95	C	1.424729	-0.298606	0.333269
C96	C	1.758063	0.034728	0.666603
C97	C	1.098780	-0.550387	-0.000057
C98	C	1.432113	-0.217053	0.333277
C99	C	1.765446	0.116280	0.666610
C100	C	1.026616	-0.500282	-0.000062
C101	C	1.359949	-0.166949	0.333271
C102	C	1.693282	0.166384	0.666604
C103	C	0.965622	-0.369319	-0.000058
C104	C	1.298955	-0.035985	0.333275
C105	C	1.632288	0.297348	0.666609
C106	C	1.034172	-0.416925	-0.000063
C107	C	1.367505	-0.083592	0.333270
C108	C	1.700838	0.249741	0.666604
C109	C	1.153063	0.101153	-0.000058
C110	C	1.486396	0.434486	0.333275
C111	C	1.819729	0.767819	0.666609
C112	C	1.246420	0.102684	-0.000068
C113	C	1.579754	0.436017	0.333266
C114	C	1.913087	0.769351	0.666599
C115	C	1.003981	0.249823	-0.000059
C116	C	1.337315	0.583157	0.333274
C117	C	1.670648	0.916490	0.666608
C118	C	1.011841	0.336617	-0.000065
C119	C	1.345174	0.669950	0.333269
C120	C	1.678508	1.003284	0.666602
N121	N	0.999875	0.106905	0.230628
N122	N	1.333208	0.440239	0.563962
N123	N	1.666542	0.773572	0.897295
N124	N	0.999929	0.106847	-0.230728
N125	N	1.333263	0.440180	0.102605
N126	N	1.666596	0.773513	0.435939
C127	C	0.944198	0.162392	0.470311
C128	C	1.277532	0.495725	0.803644
C129	C	1.610865	0.829058	1.136977
C130	C	1.021183	0.177557	0.529641
C131	C	1.354517	0.510891	0.862974
C132	C	1.687850	0.844224	1.196308
C133	C	0.999895	0.106886	0.412235
C134	C	1.333229	0.440219	0.745569
C135	C	1.666562	0.773552	1.078902
C136	C	0.922932	0.091738	0.529647
C137	C	1.256265	0.425071	0.862980
C138	C	1.589599	0.758404	1.196313
C139	C	0.999908	0.106869	0.587659
C140	C	1.333241	0.440202	0.920993
C141	C	1.666575	0.773535	1.254326
C142	C	1.076921	0.122087	0.470259
C143	C	1.410254	0.455420	0.803592
C144	C	1.743588	0.788753	1.136926
C145	C	0.978617	0.036236	0.470260
C146	C	1.311951	0.369570	0.803593
C147	C	1.645284	0.702903	1.136926
C148	C	1.055655	0.051372	0.529563
C149	C	1.388988	0.384705	0.862897
C150	C	1.722322	0.718039	1.196230
C151	C	0.999887	0.106898	0.311178
C152	C	1.333220	0.440231	0.644511
C153	C	1.666553	0.773564	0.977845
C154	C	0.999925	0.106856	0.688715
C155	C	1.333258	0.440190	1.022048
C156	C	1.666592	0.773523	1.355381
H157	H	0.452127	0.037413	0.134646
H158	H	0.785460	0.370747	0.467980
H159	H	1.118794	0.704080	0.801313
H160	H	1.098940	-0.391320	-0.000083
H161	H	1.432274	-0.057986	0.333250
H162	H	1.765607	0.275347	0.666584
H163	H	0.452321	0.037395	-0.134910
H164	H	0.785655	0.370728	0.198423
H165	H	1.118988	0.704062	0.531756
H166	H	1.142032	0.134963	0.444282
H167	H	1.475365	0.468296	0.777616
H168	H	1.808699	0.801630	1.110949
H169	H	1.102816	0.004422	0.555416
H170	H	1.436150	0.337756	0.888750
H171	H	1.769483	0.671089	1.222083
H172	H	0.897151	0.209369	0.444294
H173	H	1.230484	0.542702	0.777627
H174	H	1.563818	0.876036	1.110961
H175	H	0.874901	-0.638876	-0.000048
H176	H	1.208234	-0.305543	0.333285
H177	H	1.541568	0.027791	0.666618
H178	H	0.888306	-0.490935	-0.000068
H179	H	1.221640	-0.157602	0.333266
H180	H	1.554973	0.175731	0.666599
H181	H	1.124893	-0.147369	-0.000039
H182	H	1.458226	0.185964	0.333294
H183	H	1.791559	0.519298	0.666627
H184	H	0.960587	-0.023484	0.444156
H185	H	1.293920	0.309850	0.777490
H186	H	1.627253	0.643183	1.110823
H187	H	0.561664	-0.029643	-0.000133
H188	H	0.894997	0.303691	0.333200
H189	H	1.228330	0.637024	0.666534
H190	H	1.039192	0.237296	0.555723
H191	H	1.372525	0.570630	0.889057
H192	H	1.705858	0.903963	1.222390
H193	H	0.547580	0.176427	0.134635
H194	H	0.880913	0.509760	0.467969
H195	H	1.214246	0.843093	0.801302
H196	H	1.111485	-0.295309	-0.000052
H197	H	1.444819	0.038025	0.333281
H198	H	1.778152	0.371358	0.666614
H199	H	0.836243	-0.261457	-0.000059
H200	H	1.169576	0.071876	0.333275
H201	H	1.502909	0.405210	0.666608
H202	H	1.163557	-0.524791	-0.000057
H203	H	1.496890	-0.191458	0.333277
H204	H	1.830223	0.141875	0.666610
H205	H	0.857840	0.078933	0.555735
H206	H	1.191174	0.412266	0.889069
H207	H	1.524507	0.745600	1.222402
H208	H	1.150147	-0.672743	-0.000061
H209	H	1.483481	-0.339409	0.333272
H210	H	1.816814	-0.006076	0.666605
H211	H	0.849644	-0.113503	-0.000050
H212	H	1.182978	0.219830	0.333283
H213	H	1.516311	0.553164	0.666617
H214	H	0.900852	-0.394930	-0.000056
H215	H	1.234186	-0.061597	0.333277
H216	H	1.567519	0.271737	0.666611
H217	H	0.547652	0.176406	-0.134778
H218	H	0.880986	0.509739	0.198555
H219	H	1.214319	0.843072	0.531888
H220	H	0.437954	0.243322	-0.000132
H221	H	0.771288	0.576655	0.333202
H222	H	1.104621	0.909988	0.666535
