data_functionalizedCrystal
_audit_creation_method	'MofGen! by Chris Wilmer'
_symmetry_space_group_name_H-M	'P1'
_symmetry_Int_Tables_number	1
_symmetry_cell_setting	triclinic
loop_
_symmetry_equiv_pos_as_xyz
  x,y,z
_cell_length_a	9.065215
_cell_length_b	15.995292
_cell_length_c	7.540329
_cell_angle_alpha	89.999602
_cell_angle_beta	89.997574
_cell_angle_gamma	84.241657
loop_
_atom_site_label
_atom_site_type_symbol
_atom_site_fract_x
_atom_site_fract_y
_atom_site_fract_z
O1	O	1.957465	0.122762	-0.147448
O2	O	1.527939	0.132835	-0.147454
O3	O	1.754488	0.005997	-0.147454
O4	O	1.730916	0.249600	-0.147448
O5	O	1.754475	0.005995	0.147512
O6	O	1.527925	0.132833	0.147511
O7	O	1.957452	0.122760	0.147517
Cu8	Cu	1.742687	0.127796	0.174447
Cu9	Cu	1.742703	0.127798	-0.174384
O10	O	1.730902	0.249598	0.147517
C11	C	1.472969	0.131866	0.000027
C12	C	1.309195	0.128973	0.000024
C13	C	1.753522	-0.025207	0.000025
C14	C	1.750646	-0.118182	0.000011
C15	C	1.740072	-0.456001	0.000027
C16	C	1.903589	-0.431449	0.000689
C17	C	1.906697	-0.334750	0.000018
C18	C	1.745319	-0.288405	0.000020
C19	C	1.663576	-0.318124	-0.168415
C20	C	1.661607	-0.414930	-0.168550
C21	C	1.658253	-0.414814	0.166881
C22	C	1.664312	-0.318276	0.169101
C23	C	1.748275	-0.193686	0.000010
C24	C	1.737110	-0.550719	0.000025
C25	C	2.012422	0.123728	0.000032
C26	C	2.176196	0.126621	0.000024
C27	C	1.731869	0.280802	0.000035
C28	C	1.734745	0.373777	0.000036
N29	N	1.742687	0.127795	0.419795
N30	N	1.742715	0.127794	-0.419732
H31	H	1.966611	-0.458969	0.121481
O32	O	1.983203	-0.311396	0.143883
C33	C	2.192665	-0.244488	0.250620
C34	C	2.106137	-0.270853	0.087526
H35	H	2.292092	-0.211719	0.205114
H36	H	2.117193	-0.199667	0.336167
H37	H	2.232820	-0.302622	0.331334
H38	H	2.065970	-0.212769	0.006675
H39	H	2.181665	-0.315703	0.002110
H40	H	1.546522	-0.286199	0.179275
H41	H	1.720351	-0.297633	-0.293765
H42	H	1.544823	-0.287157	-0.174675
O43	O	1.719340	-0.448201	0.319072
C44	C	1.776696	-0.573109	0.494653
C45	C	1.707483	-0.535410	0.322220
H46	H	1.767105	-0.643620	0.497272
H47	H	1.898574	-0.561382	0.500904
H48	H	1.715549	-0.542215	0.613508
H49	H	1.768512	-0.566280	0.203269
H50	H	1.585597	-0.547127	0.316124
H51	H	1.966271	-0.459991	-0.119424
H52	H	1.971105	-0.315857	-0.120932
O53	O	1.518506	-0.433233	-0.177787
C54	C	1.261174	-0.378852	-0.194168
C55	C	1.423163	-0.358011	-0.183727
H56	H	1.184042	-0.318049	-0.198936
H57	H	1.245225	-0.417243	-0.318850
H58	H	1.234332	-0.416705	-0.072308
H59	H	1.450115	-0.320131	-0.305496
H60	H	1.439029	-0.319660	-0.058969
O61	O	1.514607	-0.432486	0.168484
C62	C	1.279596	-0.415438	0.320288
C63	C	1.442221	-0.395339	0.318685
H64	H	1.221032	-0.385429	0.441733
H65	H	1.221507	-0.389396	0.194973
H66	H	1.275888	-0.486428	0.325399
H67	H	1.446064	-0.324361	0.313637
H68	H	1.500240	-0.421439	0.443993
H69	H	1.718230	-0.441316	-0.294460
H70	H	1.723834	-0.299260	0.293708
