data_functionalizedCrystal
_audit_creation_method	'MofGen! by Chris Wilmer'
_symmetry_space_group_name_H-M	'P1'
_symmetry_Int_Tables_number	1
_symmetry_cell_setting	triclinic
loop_
_symmetry_equiv_pos_as_xyz
  x,y,z
_cell_length_a	12.827892
_cell_length_b	12.827893
_cell_length_c	12.759393
_cell_angle_alpha	90.019703
_cell_angle_beta	90.030856
_cell_angle_gamma	90.015362
loop_
_atom_site_label
_atom_site_type_symbol
_atom_site_fract_x
_atom_site_fract_y
_atom_site_fract_z
Zn1	Zn	-0.415972	1.597674	0.594020
Zn2	Zn	-0.590753	1.597567	0.418343
Zn3	Zn	-0.416026	1.422914	0.418356
Zn4	Zn	-0.590672	1.422901	0.593980
O5	O	-0.503356	1.510264	0.506175
O6	O	-0.439168	1.743896	0.570727
O7	O	-0.567632	1.574360	0.271323
O8	O	-0.269783	1.446147	0.441681
O9	O	-0.567579	1.743817	0.441658
O10	O	-0.269743	1.574542	0.570740
O11	O	-0.439261	1.446043	0.271333
O12	O	-0.439182	1.276676	0.441642
O13	O	-0.567441	1.446124	0.741007
O14	O	-0.567493	1.276666	0.570672
O15	O	-0.439090	1.574529	0.741036
O16	O	-0.736978	1.574347	0.441619
O17	O	-0.736919	1.446020	0.570659
C18	C	-0.503336	1.238754	0.506155
C19	C	-0.503352	1.122601	0.506171
C20	C	-0.566944	1.070839	0.569921
C21	C	-0.566962	0.950789	0.569940
C22	C	-0.774866	1.510199	0.506156
C23	C	-0.891019	1.510266	0.506184
C24	C	-0.942798	1.573842	0.442401
C25	C	-1.062849	1.573913	0.442428
C26	C	-0.230786	1.510358	0.506216
C27	C	-0.114633	1.510398	0.506234
C28	C	-0.503250	1.510337	0.780208
C29	C	-0.503205	1.510368	0.896985
C30	C	-0.503377	1.782834	0.506196
C31	C	-0.503386	1.898987	0.506204
C32	C	-0.503385	1.510251	0.233207
C33	C	-0.503136	1.510422	0.116431
C34	C	-0.436367	1.577238	0.951864
C35	C	-0.436329	1.577263	1.061588
C36	C	-0.569978	1.443545	1.061545
C37	C	-0.570009	1.443516	0.951823
C38	C	-0.359209	1.654442	0.951890
C39	C	-0.359171	1.654467	1.061614
H40	H	-0.448919	1.078040	0.451611
H41	H	-0.621409	0.906274	0.624515
C42	C	-0.429828	0.959102	0.432467
H43	H	-0.389948	0.911029	0.392479
H44	H	-0.384377	1.001708	0.472767
H45	H	-0.469788	1.001651	0.386648
H46	H	-0.282275	1.625510	1.095661
C47	C	-0.882630	1.647303	0.368604
H48	H	-0.809836	1.637614	0.378263
H49	H	-0.900396	1.717535	0.384029
H50	H	-0.900531	1.632067	0.297983
C51	C	-0.951182	1.436806	0.579986
H52	H	-0.903128	1.396916	0.620005
H53	H	-0.993835	1.391361	0.539730
H54	H	-0.993687	1.476830	0.625774
H55	H	-0.380847	1.735403	1.091395
H56	H	-0.278279	1.632791	0.922133
C57	C	-0.643521	1.369953	0.891454
H58	H	-0.633967	1.379501	0.818253
H59	H	-0.713733	1.385214	0.909418
H60	H	-0.628197	1.299748	0.909436
C61	C	-1.122996	1.647441	0.368652
H62	H	-1.195792	1.637846	0.378351
H63	H	-1.105223	1.632190	0.298029
H64	H	-1.105091	1.717657	0.384075
H65	H	-0.388222	1.731301	0.917856
C66	C	-0.643464	1.370022	1.121869
H67	H	-0.633878	1.379620	1.195076
H68	H	-0.628173	1.299809	1.103884
H69	H	-0.713688	1.385296	1.103872
H70	H	-0.621370	1.115400	0.624490
H71	H	-1.070111	1.455962	0.560840
