data_functionalizedCrystal
_audit_creation_method	'MofGen! by Chris Wilmer'
_symmetry_space_group_name_H-M	'P1'
_symmetry_Int_Tables_number	1
_symmetry_cell_setting	triclinic
loop_
_symmetry_equiv_pos_as_xyz
  x,y,z
_cell_length_a	16.120297
_cell_length_b	12.759401
_cell_length_c	12.759400
_cell_angle_alpha	89.984446
_cell_angle_beta	92.876661
_cell_angle_gamma	87.120011
loop_
_atom_site_label
_atom_site_type_symbol
_atom_site_fract_x
_atom_site_fract_y
_atom_site_fract_z
Zn1	Zn	-0.471371	-1.576124	-0.448372
Zn2	Zn	0.028629	-1.076124	0.051628
Zn3	Zn	-0.331969	-1.584933	-0.615156
Zn4	Zn	0.168031	-1.084933	-0.115156
Zn5	Zn	-0.331978	-1.409338	-0.439497
Zn6	Zn	0.168022	-0.909338	0.060503
Zn7	Zn	-0.471340	-1.400419	-0.624012
Zn8	Zn	0.028660	-0.900419	-0.124012
O9	O	-0.401665	-1.492703	-0.531759
O10	O	0.098335	-0.992703	-0.031759
O11	O	-0.452888	-1.724313	-0.470504
O12	O	0.047112	-1.224313	0.029496
O13	O	-0.215307	-1.569059	-0.584435
O14	O	0.284693	-1.069059	-0.084435
O15	O	-0.350486	-1.431509	-0.293654
O16	O	0.149514	-0.931509	0.206346
O17	O	-0.350470	-1.730785	-0.593040
O18	O	0.149530	-1.230785	-0.093040
O19	O	-0.452897	-1.554046	-0.300175
O20	O	0.047103	-1.054046	0.199825
O21	O	-0.215314	-1.440050	-0.455379
O22	O	0.284686	-0.940050	0.044621
O23	O	-0.350456	-1.261134	-0.463966
O24	O	0.149544	-0.761134	0.036034
O25	O	-0.588008	-1.416307	-0.608133
O26	O	-0.088008	-0.916307	-0.108133
O27	O	-0.452844	-1.254581	-0.599528
O28	O	0.047156	-0.754581	-0.099528
O29	O	-0.588030	-1.545397	-0.479091
O30	O	-0.088030	-1.045397	0.020909
O31	O	-0.350441	-1.560410	-0.763351
O32	O	0.149559	-1.060410	-0.263351
O33	O	-0.452836	-1.424849	-0.769857
O34	O	0.047164	-0.924849	-0.269857
C35	C	-0.401648	-1.219737	-0.531745
C36	C	0.098352	-0.719737	-0.031745
C37	C	-0.401661	-1.102960	-0.531766
C38	C	0.098339	-0.602960	-0.031766
C39	C	-0.619114	-1.478875	-0.545590
C40	C	-0.119114	-0.978875	-0.045590
C41	C	-0.711778	-1.472982	-0.551483
C42	C	-0.211778	-0.972982	-0.051483
C43	C	-0.401652	-1.492645	-0.804726
C44	C	0.098348	-0.992645	-0.304726
C45	C	-0.401674	-1.492714	-0.921504
C46	C	0.098326	-0.992714	-0.421504
C47	C	-0.881437	-1.462184	-0.562220
C48	C	-0.381437	-0.962184	-0.062220
C49	C	-0.922744	-1.523430	-0.500984
C50	C	-0.422744	-1.023430	-0.000984
C51	C	-1.017148	-1.517422	-0.506958
C52	C	-0.517148	-1.017422	-0.006958
C53	C	-0.787024	-1.468190	-0.556248
C54	C	-0.287024	-0.968190	-0.056248
C55	C	-0.185061	-1.506539	-0.517907
C56	C	0.314939	-1.006539	-0.017907
C57	C	-0.092397	-1.512635	-0.511717
C58	C	0.407603	-1.012635	-0.011717
C59	C	-0.401682	-1.766735	-0.531774
C60	C	0.098318	-1.266735	-0.031774
C61	C	-0.401689	-1.883512	-0.531780
C62	C	0.098311	-1.383512	-0.031780
C63	C	-0.454891	-1.044718	-0.602450
C64	C	0.045109	-0.544718	-0.102450
C65	C	-0.454907	-0.934993	-0.602455
C66	C	0.045093	-0.434993	-0.102455
C67	C	-0.348457	-0.941761	-0.461089
C68	C	0.151543	-0.441761	0.038911
C69	C	-0.348445	-1.051483	-0.461079
C70	C	0.151555	-0.551483	0.038921
C71	C	-0.455063	-1.556538	-1.089412
C72	C	0.044937	-1.056538	-0.589412
C73	C	-0.455044	-1.556485	-0.979687
C74	C	0.044956	-1.056485	-0.479687
C75	C	-0.348314	-1.429000	-0.973051
C76	C	0.151686	-0.929000	-0.473051
C77	C	-0.348329	-1.429059	-1.082775
C78	C	0.151671	-0.929059	-0.582775
C79	C	-0.401696	-1.492789	-0.257728
C80	C	0.098304	-0.992789	0.242272
C81	C	-0.401709	-1.492826	-0.140952
C82	C	0.098291	-0.992826	0.359048
H83	H	-0.887210	-1.580375	-0.444069
H84	H	-0.387210	-1.080375	0.055931
H85	H	-0.498532	-1.608457	-1.136777
H86	H	0.001468	-1.108457	-0.636777
H87	H	-0.916969	-1.405243	-0.619130
H88	H	-0.416969	-0.905243	-0.119130
F89	F	-0.511830	-1.624298	-0.924839
F90	F	-0.011830	-1.124298	-0.424839
F91	F	-0.291536	-1.361249	-1.137630
F92	F	0.208464	-0.861249	-0.637630
F93	F	-0.511530	-1.099499	-0.677678
F94	F	-0.011530	-0.599499	-0.177678
F95	F	-0.511563	-0.873013	-0.677685
F96	F	-0.011563	-0.373013	-0.177685
F97	F	-0.291510	-1.361135	-0.911126
F98	F	0.208490	-0.861135	-0.411126
H99	H	-0.305129	-0.899835	-0.403540
H100	H	0.194871	-0.399835	0.096460
F101	F	-0.291792	-1.113472	-0.385838
F102	F	0.208208	-0.613472	0.114162
