data_functionalizedCrystal
_audit_creation_method	'MofGen! by Chris Wilmer'
_symmetry_space_group_name_H-M	'P1'
_symmetry_Int_Tables_number	1
_symmetry_cell_setting	triclinic
loop_
_symmetry_equiv_pos_as_xyz
  x,y,z
_cell_length_a	23.532407
_cell_length_b	23.532407
_cell_length_c	13.596369
_cell_angle_alpha	90.000007
_cell_angle_beta	89.989360
_cell_angle_gamma	82.848678
loop_
_atom_site_label
_atom_site_type_symbol
_atom_site_fract_x
_atom_site_fract_y
_atom_site_fract_z
O1	O	0.069136	0.755260	-0.081679
O2	O	0.079139	0.589397	-0.081709
O3	O	-0.008794	0.677330	-0.081675
O4	O	0.157069	0.667327	-0.081713
O5	O	-0.008799	0.677321	0.081908
O6	O	0.079134	0.589388	0.081874
O7	O	0.069131	0.755251	0.081904
Zn8	Zn	0.074132	0.672318	0.107862
Zn9	Zn	0.074138	0.672330	-0.107666
O10	O	0.157064	0.667318	0.081870
C11	C	0.078882	0.568176	0.000079
C12	C	0.078116	0.504959	0.000068
C13	C	0.125350	0.105856	0.000102
C14	C	0.124638	0.046456	0.000108
O15	O	0.168424	0.009711	0.000134
N16	N	0.072362	0.023830	0.000118
C17	C	0.020794	0.060607	0.000133
O18	O	-0.023737	0.035908	0.000143
C19	C	0.021506	0.120006	0.000133
C20	C	0.073785	0.142629	0.000113
C21	C	0.177625	0.128479	0.000083
C22	C	0.178336	0.187876	0.000075
C23	C	0.126772	0.224649	0.000086
C24	C	0.074496	0.202025	0.000105
C25	C	-0.030062	0.156783	0.000155
C26	C	-0.029345	0.216185	0.000156
C27	C	0.022934	0.238808	0.000136
C28	C	0.023643	0.298194	0.000108
N29	N	0.075920	0.320820	0.000098
C30	C	0.127484	0.284048	0.000087
C31	C	0.019302	-0.064135	0.000133
C32	C	0.018589	-0.123533	0.000125
C33	C	0.122434	-0.137680	0.000102
C34	C	0.123146	-0.078281	0.000103
C35	C	0.071578	-0.041509	0.000122
C36	C	0.128974	0.408784	0.000069
C37	C	0.129680	0.468186	0.000057
C38	C	0.025836	0.482329	0.000085
C39	C	0.025129	0.422932	0.000092
C40	C	0.076702	0.386160	0.000087
O41	O	-0.020119	0.334974	0.000087
O42	O	0.172007	0.308755	0.000090
C43	C	-0.030013	0.677071	0.000119
C44	C	-0.093230	0.676305	0.000127
C45	C	-0.492333	0.723539	0.000081
C46	C	-0.551733	0.722827	0.000074
O47	O	-0.588478	0.766613	0.000045
N48	N	-0.574359	0.670551	0.000065
C49	C	-0.537582	0.618983	0.000054
O50	O	-0.562281	0.574452	0.000044
C51	C	-0.478182	0.619695	0.000054
C52	C	-0.455560	0.671974	0.000073
C53	C	-0.469710	0.775814	0.000099
C54	C	-0.410313	0.776525	0.000108
C55	C	-0.373540	0.724961	0.000100
C56	C	-0.396164	0.672685	0.000082
C57	C	-0.441406	0.568127	0.000036
C58	C	-0.382004	0.568844	0.000036
C59	C	-0.359381	0.621123	0.000055
C60	C	-0.299995	0.621832	0.000084
N61	N	-0.277368	0.674109	0.000092
C62	C	-0.314141	0.725673	0.000101
C63	C	-0.662324	0.617491	0.000051
C64	C	-0.721722	0.616778	0.000057
C65	C	-0.735869	0.720623	0.000075
C66	C	-0.676470	0.721335	0.000076
C67	C	-0.639698	0.669767	0.000060
C68	C	-0.189405	0.727163	0.000121
C69	C	-0.130003	0.727869	0.000135
C70	C	-0.115860	0.624025	0.000111
C71	C	-0.175257	0.623318	0.000103
C72	C	-0.212029	0.674891	0.000105
O73	O	-0.263215	0.578070	0.000108
O74	O	-0.289433	0.770196	0.000097
C75	C	0.178283	0.667577	0.000074
C76	C	0.241500	0.668343	0.000060
C77	C	0.069388	0.776472	0.000114
C78	C	0.070154	0.839689	0.000119
N79	N	0.074128	0.672315	0.254953
N80	N	0.074138	0.672338	-0.254758
C81	C	0.074139	0.672329	0.656244
C82	C	0.074138	0.672323	0.544593
C83	C	0.074134	0.672322	0.455602
C84	C	0.074132	0.672316	0.343944
H85	H	-0.016146	0.512280	0.000090
H86	H	0.165717	-0.059867	0.000092
H87	H	-0.022693	-0.034198	0.000140
F88	F	-0.076714	0.569149	0.000103
F89	F	0.233980	0.211944	0.000058
H90	H	0.172255	0.486602	0.000040
F91	F	-0.084233	0.255318	0.000179
H92	H	-0.111587	0.770443	0.000153
H93	H	-0.023982	-0.141947	0.000126
F94	F	-0.085706	0.132720	0.000162
F95	F	-0.228531	0.782053	0.000123
F96	F	-0.652399	0.776978	0.000096
H97	H	-0.352066	0.526850	0.000021
F98	F	-0.386245	0.832169	0.000107
F99	F	0.232512	0.089351	0.000071
F100	F	0.177314	-0.176827	0.000094
H101	H	-0.017441	0.404512	0.000094
F102	F	-0.508838	0.830701	0.000107
H103	H	-0.765821	0.762610	0.000078
F104	F	-0.745792	0.561135	0.000055
F105	F	-0.623192	0.562602	0.000042
H106	H	-0.459814	0.525555	0.000015
H107	H	0.170970	0.378851	0.000069
F108	F	-0.199335	0.567676	0.000101
