data_functionalizedCrystal
_audit_creation_method	'MofGen! by Chris Wilmer'
_symmetry_space_group_name_H-M	'P1'
_symmetry_Int_Tables_number	1
_symmetry_cell_setting	triclinic
loop_
_symmetry_equiv_pos_as_xyz
  x,y,z
_cell_length_a	14.044220
_cell_length_b	12.837943
_cell_length_c	11.295483
_cell_angle_alpha	94.538773
_cell_angle_beta	94.468632
_cell_angle_gamma	85.991091
loop_
_atom_site_label
_atom_site_type_symbol
_atom_site_fract_x
_atom_site_fract_y
_atom_site_fract_z
O1	O	0.242691	-1.404877	-0.099010
O2	O	0.742691	-0.904877	0.400990
O3	O	0.230415	-1.101936	-0.099017
O4	O	0.730415	-0.601936	0.400983
O5	O	0.098158	-1.248859	-0.099002
O6	O	0.598158	-0.748859	0.400998
O7	O	0.374947	-1.257954	-0.099025
O8	O	0.874947	-0.757954	0.400975
O9	O	0.109755	-1.235952	0.099047
O10	O	0.609755	-0.735952	0.599047
O11	O	0.242012	-1.089030	0.099032
O12	O	0.742012	-0.589030	0.599032
O13	O	0.254287	-1.391970	0.099039
O14	O	0.754287	-0.891970	0.599039
Cu15	Cu	0.249208	-1.239322	0.117119
Cu16	Cu	0.749208	-0.739322	0.617119
Cu17	Cu	0.235494	-1.254585	-0.117097
Cu18	Cu	0.735494	-0.754585	0.382903
O19	O	0.386544	-1.245048	0.099024
O20	O	0.886544	-0.745048	0.599024
C21	C	0.232067	-1.056479	0.000007
C22	C	0.732067	-0.556479	0.500007
C23	C	0.219699	-0.940259	0.000005
C24	C	0.719699	-0.440259	0.500005
N25	N	0.258854	-1.228594	0.281854
N26	N	0.758854	-0.728594	0.781854
C27	C	0.068282	-1.238424	0.000023
C28	C	0.568282	-0.738424	0.500023
C29	C	-0.038016	-1.226550	0.000024
C30	C	0.461984	-0.726550	0.500024
C31	C	-0.232639	-1.204843	0.000007
C32	C	0.267361	-0.704843	0.500007
C33	C	-0.282665	-1.289060	0.000005
C34	C	0.217335	-0.789060	0.500005
C35	C	-0.390961	-1.276982	-0.000005
C36	C	0.109039	-0.776982	0.499995
C37	C	-0.124334	-1.216919	0.000016
C38	C	0.375666	-0.716919	0.500016
C39	C	0.416420	-1.255482	-0.000004
C40	C	0.916420	-0.755482	0.499996
C41	C	0.522717	-1.267357	-0.000013
C42	C	1.022717	-0.767357	0.499987
C43	C	0.252635	-1.437428	0.000012
C44	C	0.752635	-0.937428	0.500012
C45	C	0.265002	-1.553649	0.000007
C46	C	0.765002	-1.053649	0.500007
C47	C	0.368378	-0.713048	0.000009
C48	C	0.868378	-0.213048	0.500009
C49	C	0.356763	-0.603848	0.000008
C50	C	0.856763	-0.103848	0.500008
C51	C	0.184853	-0.612656	0.000010
C52	C	0.684853	-0.112656	0.500010
C53	C	0.196469	-0.721856	0.000011
C54	C	0.696469	-0.221856	0.500011
C55	C	0.288234	-0.772048	0.000009
C56	C	0.788234	-0.272048	0.500009
C57	C	0.299849	-0.881251	0.000002
C58	C	0.799849	-0.381251	0.500002
C59	C	0.127940	-0.890056	0.000012
C60	C	0.627940	-0.390056	0.500012
C61	C	0.116324	-0.780856	0.000011
C62	C	0.616324	-0.280856	0.500011
N63	N	0.225841	-1.265320	-0.281832
N64	N	0.725841	-0.765320	0.218168
C65	C	0.156351	-1.342540	0.531156
C66	C	0.656351	-0.842540	1.031156
C67	C	0.163648	-1.334441	0.655818
C68	C	0.663648	-0.834441	1.155818
C69	C	0.280740	-1.204292	0.655845
C70	C	0.780740	-0.704292	1.155845
C71	C	0.273443	-1.212391	0.531182
C72	C	0.773443	-0.712391	1.031182
C73	C	0.211247	-1.281518	0.468842
C74	C	0.711247	-0.781518	0.968842
C75	C	0.203956	-1.289622	0.344177
C76	C	0.703956	-0.789622	0.844177
C77	C	0.321042	-1.159469	0.344206
C78	C	0.821042	-0.659469	0.844206
C79	C	0.328339	-1.151370	0.468869
C80	C	0.828339	-0.651370	0.968869
H81	H	-0.244167	-1.370237	-0.000073
H82	H	0.255833	-0.870237	0.499927
Cl83	Cl	-0.292082	-1.079527	-0.000002
Cl84	Cl	0.207918	-0.579527	0.499998
H85	H	0.118944	-1.384129	0.706551
H86	H	0.618944	-0.884129	1.206551
H87	H	0.374569	-0.922115	0.000002
H88	H	0.874569	-0.422115	0.500002
Cl89	Cl	0.358913	-1.117383	0.734228
Cl90	Cl	0.858913	-0.617383	1.234228
H91	H	0.378975	-1.095084	0.519641
H92	H	0.878975	-0.595084	1.019641
Cl93	Cl	0.000968	-0.717748	0.000016
Cl94	Cl	0.500968	-0.217748	0.500016
Cl95	Cl	0.457520	-0.529679	0.000012
Cl96	Cl	0.957520	-0.029679	0.500012
Cl97	Cl	0.483736	-0.776152	-0.000010
Cl98	Cl	0.983736	-0.276152	0.499990
Cl99	Cl	0.069501	-0.549539	0.000028
Cl100	Cl	0.569501	-0.049539	0.500028
H101	H	0.365746	-1.109784	0.293456
H102	H	0.865746	-0.609784	0.793456
Cl103	Cl	0.125770	-1.376526	0.265808
Cl104	Cl	0.625770	-0.876526	0.765808
Cl105	Cl	0.027181	-0.964236	-0.000007
Cl106	Cl	0.527181	-0.464236	0.499993
H107	H	0.105716	-1.398833	0.480397
H108	H	0.605716	-0.898833	0.980397
