data_functionalizedCrystal
_audit_creation_method	'MofGen! by Chris Wilmer'
_symmetry_space_group_name_H-M	'P1'
_symmetry_Int_Tables_number	1
_symmetry_cell_setting	triclinic
loop_
_symmetry_equiv_pos_as_xyz
  x,y,z
_cell_length_a	17.699083
_cell_length_b	10.723024
_cell_length_c	16.776229
_cell_angle_alpha	89.994545
_cell_angle_beta	89.998886
_cell_angle_gamma	83.875442
loop_
_atom_site_label
_atom_site_type_symbol
_atom_site_fract_x
_atom_site_fract_y
_atom_site_fract_z
O1	O	1.005074	0.157797	-0.066174
O2	O	0.784825	0.178327	-0.066200
O3	O	0.900030	-0.013601	-0.066184
O4	O	0.889869	0.349725	-0.066191
O5	O	0.900014	-0.013613	0.066393
O6	O	0.784809	0.178315	0.066376
O7	O	1.005058	0.157785	0.066402
Zn8	Zn	0.894931	0.168048	0.087439
Zn9	Zn	0.894952	0.168064	-0.087237
O10	O	0.889854	0.349713	0.066386
C11	C	0.756616	0.177585	0.000085
C12	C	0.672584	0.175378	0.000075
C13	C	0.624673	0.288036	0.000073
C14	C	0.545717	0.285955	0.000083
C15	C	0.514672	0.171215	0.000090
C16	C	0.562589	0.058549	0.000094
C17	C	0.641544	0.060631	0.000090
C18	C	0.244173	0.050148	0.000114
C19	C	0.165212	0.048075	0.000116
C20	C	0.148346	0.275473	0.000108
C21	C	0.227301	0.277555	0.000103
C22	C	0.275210	0.164889	0.000112
C23	C	0.360824	0.167147	0.000102
C24	C	0.429060	0.168956	0.000094
C25	C	0.899283	-0.060094	0.000103
C26	C	0.897070	-0.198610	0.000100
C27	C	0.961533	-0.274698	0.000107
C28	C	0.959248	-0.417863	0.000104
C29	C	1.033268	0.158527	0.000115
C30	C	1.117300	0.160734	0.000120
C31	C	0.890601	0.396206	0.000097
C32	C	0.892813	0.534723	0.000095
N33	N	0.894923	0.168037	0.206650
N34	N	0.894966	0.168065	-0.206448
C35	C	0.945952	0.083086	0.248374
C36	C	0.945956	0.083085	0.331826
C37	C	0.894934	0.168042	0.373553
C38	C	0.843900	0.252997	0.331822
C39	C	0.843893	0.252991	0.248372
C40	C	0.843928	0.253021	0.668370
C41	C	0.843941	0.253023	0.751826
C42	C	0.945991	0.083115	0.751824
C43	C	0.945983	0.083109	0.668374
C44	C	0.894947	0.168059	0.626651
C45	C	0.894942	0.168058	0.536162
C46	C	0.894942	0.168050	0.464040
H47	H	0.506711	0.377693	0.000081
O48	O	0.290596	-0.059406	0.000084
C49	C	0.246262	-0.161119	0.000108
H50	H	0.187508	-0.129262	-0.024993
H51	H	0.274971	-0.240042	-0.038378
H52	H	0.240455	-0.196301	0.063714
O53	O	0.794250	0.335344	0.207803
C54	C	0.747224	0.268609	0.159530
H55	H	0.745442	0.170205	0.184689
H56	H	0.687332	0.319642	0.158585
H57	H	0.770870	0.262015	0.096281
H58	H	0.252572	0.370988	0.000094
H59	H	1.018413	-0.233851	0.000118
O60	O	0.829162	-0.247180	0.000196
C61	C	0.787744	-0.206326	0.068864
H62	H	0.808759	-0.116066	0.091763
H63	H	0.724807	-0.188205	0.053414
H64	H	0.796174	-0.281670	0.116942
H65	H	0.802390	0.322208	0.785798
O66	O	0.654952	0.399388	0.000028
C67	C	0.734913	0.377074	0.000042
H68	H	0.752947	0.279644	-0.025054
H69	H	0.759529	0.450484	-0.038454
H70	H	0.756923	0.383053	0.063644
O71	O	0.995543	0.000437	0.207968
C72	C	1.040594	-0.074522	0.262695
H73	H	1.009562	-0.075862	0.322185
H74	H	1.051624	-0.174201	0.238593
H75	H	1.097025	-0.034122	0.271560
O76	O	0.532472	-0.052944	0.000240
C77	C	0.556913	-0.121627	0.068893
H78	H	0.573680	-0.054532	0.116884
H79	H	0.508816	-0.174577	0.091941
H80	H	0.608004	-0.191310	0.053370
O81	O	0.688056	-0.048837	-0.000054
C82	C	0.673880	-0.118527	-0.068703
H83	H	0.647238	-0.052569	-0.116696
H84	H	0.729631	-0.168728	-0.091752
H85	H	0.633312	-0.190634	-0.053176
O86	O	0.995425	0.000443	0.372389
C87	C	0.954512	-0.076448	0.420686
H88	H	0.894813	-0.078441	0.395549
H89	H	0.984885	-0.175690	0.421630
H90	H	0.950755	-0.037393	0.483931
H91	H	1.014433	-0.483241	0.000113
O92	O	0.826991	-0.387247	-0.000054
C93	C	0.824148	-0.311031	-0.068705
H94	H	0.862580	-0.358876	-0.116692
H95	H	0.763265	-0.296084	-0.091761
H96	H	0.844300	-0.216504	-0.053175
H97	H	0.802354	0.322166	0.365801
H98	H	0.139939	-0.045366	0.000123
H99	H	0.987545	0.013940	0.785804
H100	H	0.987532	0.013934	0.634403
O101	O	0.794433	0.335723	0.627887
C102	C	0.807369	0.459217	0.648288
H103	H	0.867970	0.459693	0.671213
H104	H	0.798977	0.521867	0.593408
H105	H	0.765622	0.495951	0.696737
O106	O	0.101696	0.384805	0.000142
C107	C	0.025351	0.358373	0.000131
H108	H	0.021815	0.260373	0.025238
H109	H	-0.010040	0.430201	0.038619
H110	H	0.002542	0.363172	-0.063471
