data_functionalizedCrystal
_audit_creation_method	'MofGen! by Chris Wilmer'
_symmetry_space_group_name_H-M	'P1'
_symmetry_Int_Tables_number	1
_symmetry_cell_setting	triclinic
loop_
_symmetry_equiv_pos_as_xyz
  x,y,z
_cell_length_a	16.109301
_cell_length_b	14.519709
_cell_length_c	14.586319
_cell_angle_alpha	90.001130
_cell_angle_beta	90.003489
_cell_angle_gamma	83.570864
loop_
_atom_site_label
_atom_site_type_symbol
_atom_site_fract_x
_atom_site_fract_y
_atom_site_fract_z
O1	O	1.103339	0.118536	0.076192
O2	O	0.861303	0.133288	0.076205
O3	O	0.988738	-0.008340	0.076190
O4	O	0.975904	0.260164	0.076207
O5	O	0.988723	-0.008332	-0.076291
O6	O	0.861287	0.133296	-0.076276
O7	O	1.103324	0.118544	-0.076289
Cu8	Cu	0.982304	0.125921	-0.090205
Cu9	Cu	0.982322	0.125911	0.090121
O10	O	0.975888	0.260172	-0.076274
C11	C	0.830319	0.132694	-0.000034
C12	C	0.738021	0.130903	-0.000029
C13	C	0.988132	-0.042695	-0.000051
C14	C	0.986340	-0.145072	-0.000051
C15	C	0.429158	0.209085	-0.000040
C16	C	0.515881	0.210777	-0.000035
C17	C	0.535463	0.042740	-0.000033
C18	C	0.448742	0.041049	-0.000032
C19	C	0.395591	0.124224	-0.000040
C20	C	0.569036	0.127607	-0.000036
C21	C	0.663065	0.129441	-0.000030
C22	C	0.301556	0.122391	-0.000044
C23	C	0.979741	-0.519954	-0.000027
C24	C	0.981574	-0.415650	-0.000034
C25	C	0.983040	-0.332516	-0.000040
C26	C	0.984873	-0.228206	-0.000045
C27	C	1.134307	0.119138	-0.000048
C28	C	1.226606	0.120929	-0.000047
C29	C	0.976494	0.294526	-0.000031
C30	C	0.978287	0.396904	-0.000025
N31	N	0.982297	0.125927	-0.217037
C32	C	1.032817	0.181865	-0.452042
C33	C	1.032825	0.181858	-0.548023
C34	C	0.931814	0.069953	-0.548035
C35	C	0.931811	0.069956	-0.452055
C36	C	0.982310	0.125916	-0.404062
C37	C	0.982323	0.125908	-0.596022
C38	C	0.982332	0.125901	-0.700089
C39	C	0.982303	0.125923	-0.299988
N40	N	0.982336	0.125897	0.216953
H41	H	0.543206	0.279879	-0.000034
H42	H	0.890681	0.024391	-0.412988
O43	O	0.587009	-0.038114	-0.000153
C44	C	0.571782	-0.089631	-0.079134
H45	H	0.506031	-0.066967	-0.105462
H46	H	0.577771	-0.166549	-0.061371
H47	H	0.619230	-0.077036	-0.134434
O48	O	1.081798	0.236192	-0.405278
C49	C	1.070982	0.224184	-0.310274
H50	H	1.007974	0.197875	-0.297171
H51	H	1.073178	0.293308	-0.273798
H52	H	1.123046	0.171659	-0.283031
H53	H	0.421412	-0.028059	-0.000029
O54	O	0.377646	0.289963	0.000003
C55	C	0.425874	0.365225	-0.000017
H56	H	0.490565	0.341797	0.028848
H57	H	0.393974	0.423496	0.044257
H58	H	0.432081	0.391242	-0.073168
O59	O	0.882777	0.015687	-0.594797
C60	C	0.893572	0.027715	-0.689802
H61	H	0.917345	0.097592	-0.702892
H62	H	0.831244	0.025364	-0.726252
H63	H	0.940855	-0.030084	-0.717084
H64	H	1.073954	0.227416	-0.587085
