data_functionalizedCrystal
_audit_creation_method	'MofGen! by Chris Wilmer'
_symmetry_space_group_name_H-M	'P1'
_symmetry_Int_Tables_number	1
_symmetry_cell_setting	triclinic
loop_
_symmetry_equiv_pos_as_xyz
  x,y,z
_cell_length_a	12.759395
_cell_length_b	19.120786
_cell_length_c	12.759387
_cell_angle_alpha	92.476434
_cell_angle_beta	90.020509
_cell_angle_gamma	92.466757
loop_
_atom_site_label
_atom_site_type_symbol
_atom_site_fract_x
_atom_site_fract_y
_atom_site_fract_z
Zn1	Zn	1.588349	-0.279566	0.576121
Zn2	Zn	1.580710	-0.397042	0.392927
Zn3	Zn	1.412645	-0.279604	0.400456
Zn4	Zn	1.405113	-0.396992	0.568569
O5	O	1.496704	-0.338301	0.484518
O6	O	1.734357	-0.295154	0.551830
O7	O	1.558371	-0.381500	0.246902
O8	O	1.442302	-0.181308	0.430070
O9	O	1.728744	-0.381463	0.417238
O10	O	1.571391	-0.181280	0.559130
O11	O	1.434894	-0.295220	0.252433
O12	O	1.264625	-0.295171	0.422747
O13	O	1.429465	-0.381378	0.716595
O14	O	1.259092	-0.381415	0.546259
O15	O	1.564088	-0.295106	0.722143
O16	O	1.551068	-0.495326	0.409915
O17	O	1.422057	-0.495289	0.538958
C18	C	1.223738	-0.338292	0.484501
C19	C	1.106960	-0.338306	0.484517
C20	C	1.101227	-0.428257	0.612904
C21	C	1.043500	-0.473238	0.677100
C22	C	0.933777	-0.473246	0.677112
C23	C	0.881781	-0.428267	0.612924
C24	C	0.939508	-0.383286	0.548728
C25	C	1.049233	-0.383284	0.548720
C26	C	0.945241	-0.293333	0.420348
C27	C	1.054963	-0.293327	0.420329
C28	C	0.893245	-0.248354	0.356160
C29	C	0.950972	-0.203375	0.291957
C30	C	1.060701	-0.203369	0.291946
C31	C	1.112691	-0.248346	0.356133
C32	C	1.484945	-0.520793	0.472823
C33	C	1.480010	-0.598864	0.467855
C34	C	1.544852	-0.635467	0.532770
C35	C	1.540211	-0.708823	0.528104
C36	C	1.470733	-0.745575	0.458516
C37	C	1.405884	-0.708967	0.393598
C38	C	1.410521	-0.635612	0.398270
C39	C	1.453369	-0.967062	0.441049
C40	C	1.448740	-1.040422	0.436380
C41	C	1.583066	-1.040273	0.570888
C42	C	1.587700	-0.966917	0.575549
C43	C	1.522848	-0.930316	0.510635
C44	C	1.465990	-0.820557	0.453743
C45	C	1.527587	-0.855335	0.515415
C46	C	1.770737	-0.338310	0.484537
C47	C	1.887514	-0.338314	0.484544
C48	C	1.496788	-0.338232	0.758556
C49	C	1.496824	-0.338203	0.875335
C50	C	1.508539	-0.155096	0.496282
C51	C	1.513582	-0.077025	0.501295
C52	C	1.496685	-0.338319	0.211550
C53	C	1.496865	-0.338150	0.094784
C54	C	1.637015	-0.248374	0.881132
C55	C	1.707126	-0.203448	0.938892
C56	C	1.707154	-0.203423	1.048615
C57	C	1.637060	-0.248326	1.100581
C58	C	1.566949	-0.293251	1.042821
C59	C	1.566932	-0.293273	0.933095
C60	C	1.426754	-0.383075	1.037024
C61	C	1.426730	-0.383106	0.927301
C62	C	1.356661	-0.427978	1.088990
C63	C	1.286553	-0.472908	1.031229
C64	C	1.286530	-0.472932	0.921500
C65	C	1.356619	-0.428031	0.869541
H66	H	0.908628	-0.166754	0.239705
C67	C	1.124193	-0.153885	0.221325
N68	N	1.172011	-0.116614	0.168129
H69	H	1.400566	-0.937267	0.388192
H70	H	0.803903	-0.248361	0.356179
C71	C	1.784225	-0.154057	0.881722
N72	N	1.842294	-0.116854	0.838664
C73	C	1.233388	-0.248348	0.356120
N74	N	1.324298	-0.248351	0.356114
C75	C	0.761084	-0.428268	0.612959
N76	N	0.670174	-0.428267	0.612987
C77	C	1.339191	-0.595350	0.326857
N78	N	1.285460	-0.565025	0.273068
C79	C	1.389660	-0.860991	0.377104
N80	N	1.332200	-0.891448	0.319348
C81	C	1.329522	-0.749397	0.316987
N82	N	1.272030	-0.779847	0.259255
H83	H	1.764238	-0.166837	1.095644
H84	H	1.584151	-0.825410	0.572077
C85	C	1.621285	-0.595047	0.609322
N86	N	1.678854	-0.564604	0.666985
H87	H	1.593020	-0.738622	0.580957
C88	C	1.664150	-0.926496	0.652082
N89	N	1.721743	-0.896050	0.709719
H90	H	1.635863	-1.070082	0.623738
H91	H	1.637010	-0.248396	0.791789
H92	H	1.637080	-0.248295	1.189924
H93	H	1.392158	-1.070343	0.379712
H94	H	1.356684	-0.427952	1.178333
C95	C	1.209399	-0.522354	0.857972
N96	N	1.151303	-0.559579	0.810127
H97	H	1.229483	-0.509461	1.073549
C98	C	0.870275	-0.522728	0.747729
N99	N	0.822446	-0.559999	0.800917
H100	H	1.356611	-0.428049	0.780198
H101	H	1.085847	-0.509858	0.729362
C102	C	1.221924	-0.428252	0.612895
N103	N	1.312835	-0.428248	0.612893
