data_functionalizedCrystal
_audit_creation_method	'MofGen! by Chris Wilmer'
_symmetry_space_group_name_H-M	'P1'
_symmetry_Int_Tables_number	1
_symmetry_cell_setting	triclinic
loop_
_symmetry_equiv_pos_as_xyz
  x,y,z
_cell_length_a	18.050590
_cell_length_b	18.050590
_cell_length_c	18.050582
_cell_angle_alpha	90.023337
_cell_angle_beta	89.999233
_cell_angle_gamma	90.007719
loop_
_atom_site_label
_atom_site_type_symbol
_atom_site_fract_x
_atom_site_fract_y
_atom_site_fract_z
Zn1	Zn	1.135342	-0.295921	0.419598
Zn2	Zn	1.385342	-0.045921	0.669598
Zn3	Zn	1.635342	0.204079	0.919598
Zn4	Zn	1.885342	0.454079	1.169598
Zn5	Zn	1.135274	-0.420105	0.295406
Zn6	Zn	1.385274	-0.170105	0.545406
Zn7	Zn	1.635274	0.079895	0.795406
Zn8	Zn	1.885274	0.329895	1.045406
Zn9	Zn	1.011162	-0.295910	0.295456
Zn10	Zn	1.261162	-0.045910	0.545456
Zn11	Zn	1.511162	0.204090	0.795456
Zn12	Zn	1.761162	0.454090	1.045456
Zn13	Zn	1.011131	-0.420051	0.419589
Zn14	Zn	1.261131	-0.170051	0.669589
Zn15	Zn	1.511131	0.079949	0.919589
Zn16	Zn	1.761131	0.329949	1.169589
O17	O	1.073227	-0.357997	0.357512
O18	O	1.323227	-0.107997	0.607512
O19	O	1.573227	0.142003	0.857512
O20	O	1.823227	0.392003	1.107512
O21	O	1.239258	-0.312422	0.403106
O22	O	1.489258	-0.062422	0.653106
O23	O	1.739258	0.187578	0.903106
O24	O	1.989258	0.437578	1.153106
O25	O	1.118795	-0.403648	0.191488
O26	O	1.368795	-0.153648	0.441488
O27	O	1.618795	0.096352	0.691488
O28	O	1.868795	0.346352	0.941488
O29	O	1.027676	-0.191987	0.311948
O30	O	1.277676	0.058013	0.561948
O31	O	1.527676	0.308013	0.811948
O32	O	1.777676	0.558013	1.061948
O33	O	1.239208	-0.403659	0.311863
O34	O	1.489208	-0.153659	0.561863
O35	O	1.739208	0.096341	0.811863
O36	O	1.989208	0.346341	1.061863
O37	O	1.118911	-0.191995	0.403155
O38	O	1.368911	0.058005	0.653155
O39	O	1.618911	0.308005	0.903155
O40	O	1.868911	0.558005	1.153155
O41	O	1.027610	-0.312402	0.191525
O42	O	1.277610	-0.062402	0.441525
O43	O	1.527610	0.187598	0.691525
O44	O	1.777610	0.437598	0.941525
O45	O	0.907233	-0.312350	0.311939
O46	O	1.157233	-0.062350	0.561939
O47	O	1.407233	0.187650	0.811939
O48	O	1.657233	0.437650	1.061939
O49	O	1.027623	-0.403567	0.523514
O50	O	1.277623	-0.153567	0.773514
O51	O	1.527623	0.096433	1.023514
O52	O	1.777623	0.346433	1.273514
O53	O	0.907210	-0.403555	0.403139
O54	O	1.157210	-0.153555	0.653139
O55	O	1.407210	0.096445	0.903139
O56	O	1.657210	0.346445	1.153139
O57	O	1.118881	-0.312370	0.523521
O58	O	1.368881	-0.062370	0.773521
O59	O	1.618881	0.187630	1.023521
O60	O	1.868881	0.437630	1.273521
O61	O	1.118765	-0.524022	0.311854
O62	O	1.368765	-0.274022	0.561854
O63	O	1.618765	-0.024022	0.811854
O64	O	1.868765	0.225978	1.061854
O65	O	1.027557	-0.523982	0.403091
O66	O	1.277557	-0.273982	0.653091
O67	O	1.527557	-0.023982	0.903091
O68	O	1.777557	0.226018	1.153091
C69	C	0.880275	-0.357946	0.357544
C70	C	1.130275	-0.107946	0.607544
C71	C	1.380275	0.142054	0.857544
C72	C	1.630275	0.392054	1.107544
C73	C	0.797729	-0.357942	0.357575
C74	C	1.047729	-0.107942	0.607575
C75	C	1.297729	0.142058	0.857575
C76	C	1.547729	0.392058	1.107575
C77	C	0.598288	-0.407682	0.407052
C78	C	0.848288	-0.157682	0.657052
C79	C	1.098288	0.092318	0.907052
C80	C	1.348288	0.342318	1.157052
C81	C	0.548883	-0.339967	0.425328
C82	C	0.798883	-0.089967	0.675328
C83	C	1.048883	0.160033	0.925328
C84	C	1.298883	0.410033	1.175328
C85	C	0.646599	-0.357984	0.357539
C86	C	0.896599	-0.107984	0.607539
C87	C	1.146599	0.142016	0.857539
C88	C	1.396599	0.392016	1.107539
C89	C	0.548922	-0.425737	0.339262
C90	C	0.798922	-0.175737	0.589262
C91	C	1.048922	0.074263	0.839262
C92	C	1.298922	0.324263	1.089262
C93	C	0.500614	-0.358030	0.357505
C94	C	0.750614	-0.108030	0.607505
C95	C	1.000614	0.141970	0.857505
C96	C	1.250614	0.391970	1.107505
C97	C	0.598282	-0.290233	0.375850
C98	C	0.848282	-0.040233	0.625850
C99	C	1.098282	0.209767	0.875850
C100	C	1.348282	0.459767	1.125850
C101	C	0.598324	-0.376049	0.289753
C102	C	0.848324	-0.126049	0.539753
C103	C	1.098324	0.123951	0.789753
C104	C	1.348324	0.373951	1.039753
C105	C	0.548942	-0.308287	0.308004
C106	C	0.798942	-0.058287	0.558004
C107	C	1.048942	0.191713	0.808004
C108	C	1.298942	0.441713	1.058004
C109	C	0.730697	-0.357958	0.357560
C110	C	0.980697	-0.107958	0.607560
C111	C	1.230697	0.142042	0.857560
C112	C	1.480697	0.392042	1.107560
C113	C	0.416517	-0.358047	0.357484
C114	C	0.666517	-0.108047	0.607484
C115	C	0.916517	0.141953	0.857484
C116	C	1.166517	0.391953	1.107484
C117	C	1.073170	-0.550949	0.357482
C118	C	1.323170	-0.300949	0.607482
C119	C	1.573170	-0.050949	0.857482
C120	C	1.823170	0.199051	1.107482
C121	C	1.073214	-0.633494	0.357495
C122	C	1.323214	-0.383494	0.607495
C123	C	1.573214	-0.133494	0.857495
C124	C	1.823214	0.116506	1.107495
C125	C	1.122915	-0.832940	0.307949
C126	C	1.372915	-0.582940	0.557949
C127	C	1.622915	-0.332940	0.807949
C128	C	1.872915	-0.082940	1.057949
C129	C	1.141051	-0.882282	0.375725
C130	C	1.391051	-0.632282	0.625725
C131	C	1.641051	-0.382282	0.875725
C132	C	1.891051	-0.132282	1.125725
C133	C	1.073256	-0.784625	0.357524
C134	C	1.323256	-0.534625	0.607524
C135	C	1.573256	-0.284625	0.857524
C136	C	1.823256	-0.034625	1.107524
C137	C	1.055196	-0.882364	0.289779
C138	C	1.305196	-0.632364	0.539779
C139	C	1.555196	-0.382364	0.789779
C140	C	1.805196	-0.132364	1.039779
C141	C	1.073298	-0.930610	0.357547
C142	C	1.323298	-0.680610	0.607547
C143	C	1.573298	-0.430610	0.857547
C144	C	1.823298	-0.180610	1.107547
C145	C	1.091426	-0.832880	0.425335
C146	C	1.341426	-0.582880	0.675335
C147	C	1.591426	-0.332880	0.925335
C148	C	1.841426	-0.082880	1.175335
C149	C	1.005539	-0.832958	0.339344
C150	C	1.255539	-0.582958	0.589344
C151	C	1.505539	-0.332958	0.839344
C152	C	1.755539	-0.082958	1.089344
C153	C	1.023649	-0.882278	0.407166
C154	C	1.273649	-0.632278	0.657166
C155	C	1.523649	-0.382278	0.907166
C156	C	1.773649	-0.132278	1.157166
C157	C	1.073233	-0.700527	0.357510
C158	C	1.323233	-0.450527	0.607510
C159	C	1.573233	-0.200527	0.857510
C160	C	1.823233	0.049473	1.107510
C161	C	1.073320	-1.014706	0.357568
C162	C	1.323320	-0.764706	0.607568
C163	C	1.573320	-0.514706	0.857568
C164	C	1.823320	-0.264706	1.107568
C165	C	1.266933	-0.358048	0.357480
C166	C	1.516933	-0.108048	0.607480
C167	C	1.766933	0.141952	0.857480
C168	C	2.016933	0.391952	1.107480
C169	C	1.349478	-0.358070	0.357467
C170	C	1.599478	-0.108070	0.607467
C171	C	1.849478	0.141930	0.857467
C172	C	2.099478	0.391930	1.107467
C173	C	1.073256	-0.357964	0.551218
C174	C	1.323256	-0.107964	0.801218
C175	C	1.573256	0.142036	1.051218
C176	C	1.823256	0.392036	1.301218
C177	C	1.073269	-0.357950	0.633763
C178	C	1.323269	-0.107950	0.883763
C179	C	1.573269	0.142050	1.133763
C180	C	1.823269	0.392050	1.383763
C181	C	1.073305	-0.164291	0.357558
C182	C	1.323305	0.085709	0.607558
C183	C	1.573305	0.335709	0.857558
C184	C	1.823305	0.585709	1.107558
C185	C	1.073338	-0.081745	0.357578
C186	C	1.323338	0.168255	0.607578
C187	C	1.573338	0.418255	0.857578
C188	C	1.823338	0.668255	1.107578
C189	C	1.073241	-0.357976	0.164560
C190	C	1.323241	-0.107976	0.414560
C191	C	1.573241	0.142024	0.664560
C192	C	1.823241	0.392024	0.914560
C193	C	1.073372	-0.357781	0.082014
C194	C	1.323372	-0.107781	0.332014
C195	C	1.573372	0.142219	0.582014
C196	C	1.823372	0.392219	0.832014
C197	C	1.023680	-0.407475	0.833211
C198	C	1.273680	-0.157475	1.083211
C199	C	1.523680	0.092525	1.333211
C200	C	1.773680	0.342525	1.583211
C201	C	1.091439	-0.425641	0.882583
C202	C	1.341439	-0.175641	1.132583
C203	C	1.591439	0.074359	1.382583
C204	C	1.841439	0.324359	1.632583
C205	C	1.073305	-0.357893	0.784894
C206	C	1.323305	-0.107893	1.034894
C207	C	1.573305	0.142107	1.284894
C208	C	1.823305	0.392107	1.534894
C209	C	1.005584	-0.339706	0.882603
C210	C	1.255584	-0.089706	1.132603
C211	C	1.505584	0.160294	1.382603
C212	C	1.755584	0.410294	1.632603
C213	C	1.073335	-0.357840	0.930879
C214	C	1.323335	-0.107840	1.180879
C215	C	1.573335	0.142160	1.430879
C216	C	1.823335	0.392160	1.680879
C217	C	1.141099	-0.376095	0.833179
C218	C	1.391099	-0.126095	1.083179
C219	C	1.641099	0.123905	1.333179
C220	C	1.891099	0.373905	1.583179
C221	C	1.055199	-0.290128	0.833195
C222	C	1.305199	-0.040128	1.083195
C223	C	1.555199	0.209872	1.333195
C224	C	1.805199	0.459872	1.583195
C225	C	1.123004	-0.308269	0.882545
C226	C	1.373004	-0.058269	1.132545
C227	C	1.623004	0.191731	1.382545
C228	C	1.873004	0.441731	1.632545
C229	C	1.073287	-0.357926	0.700796
C230	C	1.323287	-0.107926	0.950796
C231	C	1.573287	0.142074	1.200796
C232	C	1.823287	0.392074	1.450796
C233	C	1.073360	-0.357807	1.014976
C234	C	1.323360	-0.107807	1.264976
C235	C	1.573360	0.142193	1.514976
C236	C	1.823360	0.392193	1.764976
H237	H	0.527236	-0.483016	0.323820
H238	H	0.777236	-0.233016	0.573820
H239	H	1.027236	0.016984	0.823820
H240	H	1.277236	0.266984	1.073820
H241	H	0.948271	-0.811275	0.323932
H242	H	1.198271	-0.561275	0.573932
H243	H	1.448271	-0.311275	0.823932
H244	H	1.698271	-0.061275	1.073932
H245	H	1.106662	-0.811235	0.482685
H246	H	1.356662	-0.561235	0.732685
H247	H	1.606662	-0.311235	0.982685
H248	H	1.856662	-0.061235	1.232685
H249	H	0.948301	-0.324346	0.904313
H250	H	1.198301	-0.074346	1.154313
H251	H	1.448301	0.175654	1.404313
H252	H	1.698301	0.425654	1.654313
N253	N	1.178554	-0.804228	0.252476
N254	N	1.428554	-0.554228	0.502476
N255	N	1.678554	-0.304228	0.752476
N256	N	1.928554	-0.054228	1.002476
H257	H	1.165423	-0.823001	0.201419
H258	H	1.415423	-0.573001	0.451419
H259	H	1.665423	-0.323001	0.701419
H260	H	1.915423	-0.073001	0.951419
H261	H	1.229688	-0.822174	0.266382
H262	H	1.479688	-0.572174	0.516382
H263	H	1.729688	-0.322174	0.766382
H264	H	1.979688	-0.072174	1.016382
N265	N	0.626875	-0.214340	0.396407
N266	N	0.876875	0.035660	0.646407
N267	N	1.126875	0.285660	0.896407
N268	N	1.376875	0.535660	1.146407
H269	H	0.583696	-0.179986	0.405680
H270	H	0.833696	0.070014	0.655680
H271	H	1.083696	0.320014	0.905680
H272	H	1.333696	0.570014	1.155680
H273	H	0.658083	-0.194242	0.354548
H274	H	0.908083	0.055758	0.604548
H275	H	1.158083	0.305758	0.854548
H276	H	1.408083	0.555758	1.104548
N277	N	1.216928	-0.910989	0.396109
N278	N	1.466928	-0.660989	0.646109
N279	N	1.716928	-0.410989	0.896109
N280	N	1.966928	-0.160989	1.146109
H281	H	1.216255	-0.966938	0.396438
H282	H	1.466255	-0.716938	0.646438
H283	H	1.716255	-0.466938	0.896438
H284	H	1.966255	-0.216938	1.146438
H285	H	1.230931	-0.892163	0.446912
H286	H	1.480931	-0.642163	0.696912
H287	H	1.730931	-0.392163	0.946912
H288	H	1.980931	-0.142163	1.196912
N289	N	1.178670	-0.252703	0.911071
N290	N	1.428670	-0.002703	1.161071
N291	N	1.678670	0.247297	1.411071
N292	N	1.928670	0.497297	1.661071
H293	H	1.152414	-0.214071	0.941889
H294	H	1.402414	0.035929	1.191889
H295	H	1.652414	0.285929	1.441889
H296	H	1.902414	0.535929	1.691889
H297	H	1.204116	-0.227961	0.867825
H298	H	1.454116	0.022039	1.117825
H299	H	1.704116	0.272039	1.367825
H300	H	1.954116	0.522039	1.617825
N301	N	0.968033	-0.910784	0.462766
N302	N	1.218033	-0.660784	0.712766
N303	N	1.468033	-0.410784	0.962766
N304	N	1.718033	-0.160784	1.212766
H305	H	0.981782	-0.892680	0.513901
H306	H	1.231782	-0.642680	0.763901
H307	H	1.481782	-0.392680	1.013901
H308	H	1.731782	-0.142680	1.263901
H309	H	0.968057	-0.966732	0.462112
H310	H	1.218057	-0.716732	0.712112
H311	H	1.468057	-0.466732	0.962112
H312	H	1.718057	-0.216732	1.212112
H313	H	1.198399	-0.391520	0.811561
H314	H	1.448399	-0.141520	1.061561
H315	H	1.698399	0.108480	1.311561
H316	H	1.948399	0.358480	1.561561
H317	H	0.619957	-0.449636	0.448970
H318	H	0.869957	-0.199636	0.698970
H319	H	1.119957	0.050364	0.948970
H320	H	1.369957	0.300364	1.198970
N321	N	0.520109	-0.319744	0.501238
N322	N	0.770109	-0.069744	0.751238
N323	N	1.020109	0.180256	1.001238
N324	N	1.270109	0.430256	1.251238
H325	H	0.538052	-0.357297	0.538618
H326	H	0.788052	-0.107297	0.788618
H327	H	1.038052	0.142703	1.038618
H328	H	1.288052	0.392703	1.288618
H329	H	0.464164	-0.319429	0.500468
H330	H	0.714164	-0.069429	0.750468
H331	H	0.964164	0.180571	1.000468
H332	H	1.214164	0.430571	1.250468
N333	N	1.034865	-0.214274	0.804424
N334	N	1.284865	0.035726	1.054424
N335	N	1.534865	0.285726	1.304424
N336	N	1.784865	0.535726	1.554424
H337	H	0.983660	-0.200601	0.822368
H338	H	1.233660	0.049399	1.072368
H339	H	1.483660	0.299399	1.322368
H340	H	1.733660	0.549399	1.572368
H341	H	1.035528	-0.214806	0.748479
H342	H	1.285528	0.035194	0.998479
H343	H	1.535528	0.285194	1.248479
H344	H	1.785528	0.535194	1.498479
H345	H	1.039903	-0.904100	0.232479
H346	H	1.289903	-0.654100	0.482479
H347	H	1.539903	-0.404100	0.732479
H348	H	1.789903	-0.154100	0.982479
N349	N	1.111742	-0.501519	0.911326
N350	N	1.361742	-0.251519	1.161326
N351	N	1.611742	-0.001519	1.411326
N352	N	1.861742	0.248481	1.661326
H353	H	1.112073	-0.500812	0.967274
H354	H	1.362073	-0.250812	1.217274
H355	H	1.612073	-0.000812	1.467274
H356	H	1.862073	0.249188	1.717274
H357	H	1.162528	-0.515584	0.892523
H358	H	1.412528	-0.265584	1.142523
H359	H	1.662528	-0.015584	1.392523
H360	H	1.912528	0.234416	1.642523
H361	H	0.527412	-0.266230	0.266118
H362	H	0.777412	-0.016230	0.516118
H363	H	1.027412	0.233770	0.766118
H364	H	1.277412	0.483770	1.016118
N365	N	0.968144	-0.463081	0.804508
N366	N	1.218144	-0.213081	1.054508
N367	N	1.468144	0.036919	1.304508
N368	N	1.718144	0.286919	1.554508
H369	H	0.981933	-0.514238	0.822474
H370	H	1.231933	-0.264238	1.072474
H371	H	1.481933	-0.014238	1.322474
H372	H	1.731933	0.235762	1.572474
H373	H	0.968217	-0.462309	0.748563
H374	H	1.218217	-0.212309	0.998563
H375	H	1.468217	0.037691	1.248563
H376	H	1.718217	0.287691	1.498563
H377	H	0.620058	-0.391334	0.232459
H378	H	0.870058	-0.141334	0.482459
H379	H	1.120058	0.108666	0.732459
H380	H	1.370058	0.358666	0.982459
