data_functionalizedCrystal
_audit_creation_method	'MofGen! by Chris Wilmer'
_symmetry_space_group_name_H-M	'P1'
_symmetry_Int_Tables_number	1
_symmetry_cell_setting	triclinic
loop_
_symmetry_equiv_pos_as_xyz
  x,y,z
_cell_length_a	25.639242
_cell_length_b	18.101395
_cell_length_c	18.101390
_cell_angle_alpha	89.968664
_cell_angle_beta	89.971876
_cell_angle_gamma	90.026632
loop_
_atom_site_label
_atom_site_type_symbol
_atom_site_fract_x
_atom_site_fract_y
_atom_site_fract_z
Zn1	Zn	0.799283	-0.294890	-0.418915
Zn2	Zn	0.799209	-0.418747	-0.295077
Zn3	Zn	0.711851	-0.294914	-0.295069
Zn4	Zn	0.711816	-0.418684	-0.418858
O5	O	0.755540	-0.356809	-0.356980
O6	O	0.872439	-0.311336	-0.402515
O7	O	0.787604	-0.402356	-0.191443
O8	O	0.723494	-0.191278	-0.311517
O9	O	0.872384	-0.402333	-0.311531
O10	O	0.787731	-0.191260	-0.402507
O11	O	0.723422	-0.311377	-0.191437
O12	O	0.638681	-0.311316	-0.311462
O13	O	0.723436	-0.402226	-0.522498
O14	O	0.638656	-0.402250	-0.402410
O15	O	0.787697	-0.311275	-0.522540
O16	O	0.787571	-0.522371	-0.311476
O17	O	0.723364	-0.522325	-0.402418
C18	C	0.755470	-0.549219	-0.356958
C19	C	0.755488	-0.631533	-0.356973
C20	C	0.619697	-0.356779	-0.356929
C21	C	0.561583	-0.356785	-0.356925
C22	C	0.755603	-0.930624	-0.357013
C23	C	0.715299	-0.899301	-0.414373
C24	C	0.715107	-0.813683	-0.414194
C25	C	0.755546	-0.782242	-0.356994
C26	C	0.740628	-0.813397	-0.278941
C27	C	0.740368	-0.899042	-0.279284
C28	C	0.810912	-0.898973	-0.377019
C29	C	0.810587	-0.813321	-0.378730
C30	C	0.755514	-0.698382	-0.356978
C31	C	0.755633	-1.014484	-0.357023
C32	C	0.201216	-0.404237	-0.404291
C33	C	0.146612	-0.404241	-0.404303
O34	O	0.118371	-0.444551	-0.444532
N35	N	0.119301	-0.356829	-0.357028
C36	C	0.146597	-0.309404	-0.309744
O37	O	0.118353	-0.269076	-0.269534
C38	C	0.201200	-0.309396	-0.309736
C39	C	0.228508	-0.356817	-0.357009
C40	C	0.228524	-0.451653	-0.451560
C41	C	0.283125	-0.451649	-0.451547
C42	C	0.310417	-0.404229	-0.404265
C43	C	0.283109	-0.356813	-0.356996
C44	C	0.228496	-0.261967	-0.262456
C45	C	0.283103	-0.261963	-0.262453
C46	C	0.310411	-0.309384	-0.309726
C47	C	0.365002	-0.309389	-0.309701
N48	N	0.392313	-0.356802	-0.356976
C49	C	0.365020	-0.404222	-0.404258
C50	C	0.031926	-0.309423	-0.309764
C51	C	-0.022676	-0.309433	-0.309767
C52	C	-0.022657	-0.404270	-0.404327
C53	C	0.031946	-0.404263	-0.404320
C54	C	0.059237	-0.356835	-0.357038
C55	C	0.479686	-0.404211	-0.404227
C56	C	0.534291	-0.404205	-0.404208
C57	C	0.534268	-0.309365	-0.309650
C58	C	0.479667	-0.309374	-0.309667
C59	C	0.452377	-0.356799	-0.356961
O60	O	0.393277	-0.269098	-0.269494
O61	O	0.393271	-0.444536	-0.444467
C62	C	0.891913	-0.356838	-0.357030
C63	C	0.950027	-0.356851	-0.357052
C64	C	0.755571	-0.356741	-0.550142
C65	C	0.755584	-0.356712	-0.632456
C66	C	0.755624	-0.163647	-0.357018
C67	C	0.755660	-0.081333	-0.357034
C68	C	0.755612	-0.356666	-0.931547
C69	C	0.796177	-0.299643	-0.900248
C70	C	0.796051	-0.299432	-0.814630
C71	C	0.755599	-0.356689	-0.783164
C72	C	0.700519	-0.335480	-0.814225
C73	C	0.700762	-0.335052	-0.899871
C74	C	0.769643	-0.435045	-0.899964
C75	C	0.770852	-0.434645	-0.814314
C76	C	0.755588	-0.356703	-0.699305
C77	C	0.755620	-0.356650	-1.015406
C78	C	0.755539	-0.356822	-0.164569
C79	C	0.755627	-0.356643	-0.082255
H80	H	0.724440	-0.792616	-0.472069
H81	H	0.674111	-0.793256	-0.400941
H82	H	0.842204	-0.791915	-0.339998
N83	N	0.199093	-0.502811	-0.502554
H84	H	0.176458	-0.472773	-0.536938
H85	H	0.224719	-0.532834	-0.532441
N86	N	0.850151	-0.317114	-0.786864
H87	H	0.875523	-0.278711	-0.805565
H88	H	0.850159	-0.317064	-0.731070
H89	H	0.743454	-0.479415	-0.792893
N90	N	0.686816	-0.925595	-0.256836
H91	H	0.663599	-0.881664	-0.246812
H92	H	0.671365	-0.956217	-0.298004
H93	H	0.768450	-0.919765	-0.235089
H94	H	0.669510	-0.374778	-0.920573
H95	H	0.556523	-0.442823	-0.442703
N96	N	0.659393	-0.388794	-0.787228
H97	H	0.676111	-0.427300	-0.754524
H98	H	0.632107	-0.360952	-0.758187
N99	N	0.563714	-0.258220	-0.258661
H100	H	0.554233	-0.205322	-0.270262
H101	H	0.554179	-0.269715	-0.205746
H102	H	0.688408	-0.278822	-0.792783
H103	H	0.674551	-0.920884	-0.401287
H104	H	0.769060	-0.793033	-0.235038
H105	H	0.054177	-0.442876	-0.442814
H106	H	0.821836	-0.792955	-0.436173
H107	H	0.787008	-0.241903	-0.921782
H108	H	0.700625	-0.792009	-0.261692
H109	H	0.786764	-0.241367	-0.794153
H110	H	-0.044889	-0.442880	-0.442829
N111	N	0.450217	-0.258245	-0.258656
H112	H	0.427544	-0.288312	-0.224291
H113	H	0.475835	-0.228229	-0.228750
N114	N	0.850458	-0.317014	-0.927545
H115	H	0.849283	-0.362014	-0.960467
H116	H	0.864407	-0.273526	-0.956426
H117	H	0.824513	-0.920518	-0.432966
H118	H	0.054144	-0.270802	-0.271256
H119	H	0.809103	-0.454356	-0.921617
N120	N	0.685005	-0.259163	-0.926354
H121	H	0.677968	-0.226302	-0.882392
H122	H	0.714096	-0.237289	-0.957005
H123	H	0.457473	-0.442827	-0.442740
N124	N	0.730508	-0.491327	-0.926767
H125	H	0.703818	-0.466219	-0.959209
H126	H	0.749108	-0.530833	-0.956038
N127	N	0.824541	-0.455840	-0.787423
H128	H	0.848385	-0.463518	-0.831177
H129	H	0.838882	-0.415100	-0.755185
H130	H	0.840940	-0.919229	-0.335242
N131	N	0.312575	-0.502795	-0.502536
H132	H	0.286993	-0.532831	-0.532487
H133	H	0.335252	-0.472691	-0.536859
H134	H	0.724539	-0.919846	-0.472435
H135	H	-0.044905	-0.270826	-0.271265
H136	H	0.305321	-0.223337	-0.223955
N137	N	0.199051	-0.210820	-0.211468
H138	H	0.224634	-0.180781	-0.181522
H139	H	0.176420	-0.176586	-0.241678
