data_functionalizedCrystal
_audit_creation_method	'MofGen! by Chris Wilmer'
_symmetry_space_group_name_H-M	'P1'
_symmetry_Int_Tables_number	1
_symmetry_cell_setting	triclinic
loop_
_symmetry_equiv_pos_as_xyz
  x,y,z
_cell_length_a	14.971482
_cell_length_b	14.044220
_cell_length_c	13.448316
_cell_angle_alpha	89.992660
_cell_angle_beta	89.993798
_cell_angle_gamma	88.400743
loop_
_atom_site_label
_atom_site_type_symbol
_atom_site_fract_x
_atom_site_fract_y
_atom_site_fract_z
O1	O	1.196680	0.123521	-0.082682
O2	O	1.696680	0.623521	0.417318
O3	O	0.937445	0.138319	-0.082687
O4	O	1.437445	0.638319	0.417313
O5	O	1.063172	-0.007069	-0.082675
O6	O	1.563172	0.492931	0.417325
O7	O	1.070954	0.268909	-0.082694
O8	O	1.570954	0.768909	0.417306
O9	O	1.063154	-0.007078	0.082709
O10	O	1.563154	0.492922	0.582709
O11	O	0.937427	0.138310	0.082697
O12	O	1.437427	0.638310	0.582697
O13	O	1.196662	0.123512	0.082702
O14	O	1.696662	0.623512	0.582702
Cu15	Cu	1.067043	0.130910	0.097800
Cu16	Cu	1.567043	0.630910	0.597800
Cu17	Cu	1.067064	0.130921	-0.097785
Cu18	Cu	1.567064	0.630921	0.402215
O19	O	1.070936	0.268900	0.082690
O20	O	1.570936	0.768900	0.582690
C21	C	0.904059	0.137653	0.000004
C22	C	1.404059	0.637653	0.500004
C23	C	0.804606	0.135672	0.000003
C24	C	1.304606	0.635672	0.500003
C25	C	0.757878	0.134734	0.090155
C26	C	1.257878	0.634734	0.590155
C27	C	0.664432	0.132857	0.090156
C28	C	1.164432	0.632857	0.590156
C29	C	0.617715	0.131925	0.000004
C30	C	1.117715	0.631925	0.500004
C31	C	0.664450	0.132860	-0.090155
C32	C	1.164450	0.632860	0.409845
C33	C	0.757894	0.134730	-0.090155
C34	C	1.257894	0.634730	0.409845
C35	C	0.469681	0.128965	-0.090148
C36	C	0.969681	0.628965	0.409852
C37	C	0.376229	0.127097	-0.090148
C38	C	0.876229	0.627097	0.409852
C39	C	0.376218	0.127092	0.090163
C40	C	0.876218	0.627092	0.590163
C41	C	0.469663	0.128962	0.090163
C42	C	0.969663	0.628962	0.590163
C43	C	0.516391	0.129899	0.000003
C44	C	1.016391	0.629899	0.500003
C45	C	1.059756	-0.042392	0.000018
C46	C	1.559756	0.457608	0.500018
C47	C	1.049595	-0.147629	0.000019
C48	C	1.549595	0.352371	0.500019
C49	C	1.031018	-0.340311	0.000004
C50	C	1.531018	0.159689	0.500004
C51	C	1.103085	-0.397864	0.000002
C52	C	1.603085	0.102136	0.500002
C53	C	1.092749	-0.505079	-0.000006
C54	C	1.592749	-0.005079	0.499994
C55	C	1.041353	-0.233086	0.000012
C56	C	1.541353	0.266914	0.500012
C57	C	1.230048	0.124178	0.000009
C58	C	1.730048	0.624178	0.500009
C59	C	1.329501	0.126159	0.000004
C60	C	1.829501	0.626159	0.500004
C61	C	1.074351	0.304223	-0.000005
C62	C	1.574351	0.804223	0.499995
C63	C	1.084513	0.409460	-0.000012
C64	C	1.584513	0.909460	0.499988
N65	N	1.067035	0.130902	0.235365
N66	N	1.567035	0.630902	0.735365
N67	N	1.067079	0.130921	-0.235349
N68	N	1.567079	0.630921	0.264651
C69	C	1.122727	0.066551	0.287410
C70	C	1.622727	0.566551	0.787410
C71	C	1.122733	0.066550	0.391514
C72	C	1.622733	0.566550	0.891514
C73	C	1.067050	0.130906	0.443569
C74	C	1.567050	0.630906	0.943569
C75	C	1.011351	0.195260	0.391516
C76	C	1.511351	0.695260	0.891516
C77	C	1.011341	0.195255	0.287415
C78	C	1.511341	0.695255	0.787415
C79	C	1.011376	0.195266	0.608496
C80	C	1.511376	0.695266	1.108496
C81	C	1.011387	0.195272	0.712605
C82	C	1.511387	0.695272	1.212605
C83	C	1.122768	0.066561	0.712595
C84	C	1.622768	0.566561	1.212595
C85	C	1.122758	0.066556	0.608494
C86	C	1.622758	0.566556	1.108494
C87	C	1.067060	0.130912	0.556448
C88	C	1.567060	0.630912	1.056448
H89	H	0.626391	0.132077	0.163567
H90	H	1.126391	0.632077	0.663567
H91	H	0.507697	0.129726	0.163572
H92	H	1.007697	0.629726	0.663572
C93	C	0.937188	-0.382519	0.000010
C94	C	1.437188	0.117481	0.500010
H95	H	0.942464	-0.450088	0.000016
H96	H	1.442464	0.049912	0.500016
H97	H	0.905606	-0.361756	-0.057657
H98	H	1.405606	0.138244	0.442343
H99	H	0.905612	-0.361773	0.057696
H100	H	1.405612	0.138227	0.557696
H101	H	1.168118	0.014160	0.754977
H102	H	1.668118	0.514160	1.254977
C103	C	0.324804	0.126482	0.189335
C104	C	0.824804	0.626482	0.689335
H105	H	0.262456	0.125353	0.176426
H106	H	0.762456	0.625353	0.676426
H107	H	0.337839	0.182158	0.226083
H108	H	0.837839	0.682158	0.726083
H109	H	0.342381	0.071672	0.226669
H110	H	0.842381	0.571672	0.726669
H111	H	0.966043	0.247677	0.754983
H112	H	1.466043	0.747677	1.254983
C113	C	0.950114	0.266060	0.551248
C114	C	1.450114	0.766060	1.051248
H115	H	0.916960	0.304397	0.597158
H116	H	1.416960	0.804397	1.097158
H117	H	0.910153	0.231898	0.510650
H118	H	1.410153	0.731898	1.010650
H119	H	0.985446	0.305578	0.510626
H120	H	1.485446	0.805578	1.010626
C121	C	0.950084	0.266045	0.230164
C122	C	1.450084	0.766045	0.730164
H123	H	0.916928	0.304381	0.276075
H124	H	1.416928	0.804381	0.776075
H125	H	0.910124	0.231878	0.189569
H126	H	1.410124	0.731878	0.689569
H127	H	0.985411	0.305565	0.189540
H128	H	1.485411	0.805565	0.689540
H129	H	1.172547	-0.366615	-0.000063
H130	H	1.672547	0.133385	0.499937
H131	H	0.795908	0.135500	0.163567
H132	H	1.295908	0.635500	0.663567
C133	C	1.183978	-0.004243	0.230158
C134	C	1.683978	0.495757	0.730158
H135	H	1.217141	-0.042574	0.276069
H136	H	1.717141	0.457426	0.776069
H137	H	1.223932	0.029918	0.189531
H138	H	1.723932	0.529918	0.689531
H139	H	1.148642	-0.043766	0.189567
H140	H	1.648642	0.456234	0.689567
H141	H	0.338195	0.126339	-0.163558
H142	H	0.838195	0.626339	0.336442
H143	H	1.168081	0.014150	0.433889
H144	H	1.668081	0.514150	0.933889
H145	H	0.507724	0.129728	-0.163565
H146	H	1.007724	0.629728	0.336435
H147	H	0.626405	0.132095	-0.163558
H148	H	1.126405	0.632095	0.336442
H149	H	0.795939	0.135496	-0.163566
H150	H	1.295939	0.635496	0.336434
H151	H	0.966008	0.247657	0.433906
H152	H	1.466008	0.747657	0.933906
C153	C	1.184007	-0.004233	0.551234
C154	C	1.684007	0.495767	1.051234
H155	H	1.217174	-0.042567	0.597138
H156	H	1.717174	0.457433	1.097138
H157	H	1.223957	0.029931	0.510606
H158	H	1.723957	0.529931	1.010606
H159	H	1.148669	-0.043754	0.510643
H160	H	1.648669	0.456246	1.010643
