data_functionalizedCrystal
_audit_creation_method	'MofGen! by Chris Wilmer'
_symmetry_space_group_name_H-M	'P1'
_symmetry_Int_Tables_number	1
_symmetry_cell_setting	triclinic
loop_
_symmetry_equiv_pos_as_xyz
  x,y,z
_cell_length_a	6.817900
_cell_length_b	11.102193
_cell_length_c	10.992410
_cell_angle_alpha	91.893750
_cell_angle_beta	108.764651
_cell_angle_gamma	108.604125
loop_
_atom_site_label
_atom_site_type_symbol
_atom_site_fract_x
_atom_site_fract_y
_atom_site_fract_z
V1	V	-4.113414	-0.175840	-0.400598
O2	O	-4.072416	0.008450	-0.392967
O3	O	-4.090173	-0.348661	-0.397863
O4	O	-4.091019	-0.173135	-0.575310
O5	O	-4.071564	-0.168291	-0.214291
V6	V	-4.590412	-0.153797	-0.378313
O7	O	-4.388985	-0.224193	-0.449480
O8	O	-4.765038	-0.105443	-0.329431
O9	O	-4.390447	0.019024	-0.381049
O10	O	-4.748807	-0.338086	-0.385944
O11	O	-4.749659	-0.161345	-0.564620
O12	O	-4.389601	-0.156501	-0.203601
C13	C	-3.940452	-0.390791	-0.391544
C14	C	-4.002910	-0.532074	-0.390473
C15	C	-3.998808	-0.761256	-0.153116
C16	C	-3.908733	-0.676725	-0.035959
C17	C	-3.850051	-0.543978	-0.036969
C18	C	-3.881443	-0.495760	-0.155148
C19	C	-3.971517	-0.580291	-0.272305
C20	C	-4.030201	-0.713039	-0.271283
C21	C	-4.092985	-0.616604	-0.507630
C22	C	-4.151683	-0.749352	-0.506623
C23	C	-4.124376	-0.568386	-0.625809
C24	C	-4.214467	-0.652918	-0.742970
C25	C	-4.273153	-0.785672	-0.741955
C26	C	-4.241758	-0.833883	-0.623780
C27	C	-3.941530	-0.166889	-0.617895
C28	C	-4.004670	-0.165821	-0.760723
C29	C	-3.871839	-0.156090	-0.955846
C30	C	-3.806281	-0.157728	-0.807363
C31	C	-4.202091	-0.291132	-0.837830
C32	C	-4.266410	-0.290024	-0.986397
C33	C	-4.145327	-0.047376	-0.948358
C34	C	-4.074621	-0.046782	-0.799346
C35	C	-4.203509	0.061148	-0.387363
C36	C	-4.120291	0.202430	-0.388444
C37	C	-4.202431	-0.162752	-0.161010
C38	C	-4.118529	-0.163813	-0.018180
H39	H	-3.883177	-0.715999	0.060261
H40	H	-4.046603	-0.869344	-0.152282
F41	F	-3.612758	-0.039973	-0.737637
F42	F	-4.369014	-0.875627	-0.866653
H43	H	-3.833632	-0.387668	-0.155959
F44	F	-4.398586	-0.304790	-0.800189
H45	H	-4.076582	-0.460295	-0.626623
F46	F	-3.754169	-0.454012	0.087723
H47	H	-4.250429	-0.378188	-1.032670
F48	F	-4.011408	0.077004	-0.974968
H49	H	-4.289541	-0.941970	-0.622943
H50	H	-3.931807	0.045918	-0.746985
H51	H	-4.240004	-0.613646	-0.839182
F52	F	-3.719173	-0.037408	-0.980282
F53	F	-3.838719	-0.265443	-1.018571
H54	H	-3.748698	-0.242551	-0.782550
F55	F	-4.141738	-0.406655	-0.804367
H56	H	-4.448360	-0.300920	-1.029029
H57	H	-4.216741	-0.045310	-0.766834
F58	F	-4.379239	-0.053323	-1.001743
