data_functionalizedCrystal
_audit_creation_method	'MofGen! by Chris Wilmer'
_symmetry_space_group_name_H-M	'P1'
_symmetry_Int_Tables_number	1
_symmetry_cell_setting	triclinic
loop_
_symmetry_equiv_pos_as_xyz
  x,y,z
_cell_length_a	10.654556
_cell_length_b	10.654550
_cell_length_c	9.130313
_cell_angle_alpha	89.999890
_cell_angle_beta	89.999332
_cell_angle_gamma	84.486156
loop_
_atom_site_label
_atom_site_type_symbol
_atom_site_fract_x
_atom_site_fract_y
_atom_site_fract_z
O1	O	-1.667830	-0.176430	0.121810
O2	O	-1.302352	-0.193228	0.121809
O3	O	-1.493494	-0.002090	0.121804
O4	O	-1.476688	-0.367568	0.121815
O5	O	-1.493491	-0.002095	-0.121794
O6	O	-1.302350	-0.193233	-0.121789
O7	O	-1.667827	-0.176435	-0.121789
Cu8	Cu	-1.485088	-0.184834	-0.144032
Cu9	Cu	-1.485091	-0.184828	0.144052
O10	O	-1.476685	-0.367573	-0.121784
C11	C	-1.255553	-0.191995	0.000010
C12	C	-1.116110	-0.188300	0.000010
C13	C	-1.492259	0.044706	0.000007
C14	C	-1.488567	0.184149	0.000012
C15	C	-1.714626	-0.177667	0.000014
C16	C	-1.854069	-0.181362	0.000024
C17	C	-0.919581	-0.183098	0.132807
C18	C	-1.050604	-0.186562	0.132801
C19	C	-1.050589	-0.186561	-0.132784
C20	C	-0.919570	-0.183087	-0.132776
C21	C	-0.919590	-0.183104	0.286141
C22	C	-1.050612	-0.186569	0.286134
C23	C	-1.477921	-0.414368	0.000017
C24	C	-1.481612	-0.553812	0.000022
N25	N	-1.485095	-0.184838	-0.346654
C26	C	-1.601108	0.263632	0.000008
C27	C	-1.597631	0.394653	0.000018
C28	C	-1.369063	0.366695	0.000030
C29	C	-1.372540	0.235676	0.000031
C30	C	-1.733071	0.279775	-0.000006
C31	C	-1.729594	0.410796	0.000004
C32	C	-1.569755	-0.100231	-0.423308
C33	C	-1.569752	-0.100216	-0.576645
C34	C	-1.400425	-0.269426	-0.576660
C35	C	-1.400423	-0.269434	-0.423326
C36	C	-1.667518	-0.002543	-0.423301
C37	C	-1.667515	-0.002527	-0.576638
N38	N	-1.485094	-0.184815	0.346675
H39	H	-0.866239	-0.181649	-0.240901
H40	H	-1.758702	-0.033133	-0.375742
Cl41	Cl	-1.797925	0.224752	-0.162405
H42	H	-1.331476	-0.338316	-0.360916
H43	H	-0.867885	-0.272547	0.333721
H44	H	-1.102319	-0.097121	0.333711
H45	H	-1.280898	0.170965	0.000054
H46	H	-1.075446	-0.275251	0.344995
H47	H	-1.274598	0.408665	0.000047
Cl48	Cl	-1.293986	-0.375769	-0.673057
Cl49	Cl	-1.634411	0.146491	-0.359035
Cl50	Cl	-1.132942	-0.188732	-0.299723
Cl51	Cl	-1.812759	0.234439	0.157375
Cl52	Cl	-1.620395	0.138304	-0.650064
H53	H	-1.769476	0.456440	0.105184
H54	H	-1.764026	-0.024048	-0.618254
Cl55	Cl	-0.881254	-0.046200	0.377037
Cl56	Cl	-1.806352	0.475274	-0.157385
