data_functionalizedCrystal
_audit_creation_method	'MofGen! by Chris Wilmer'
_symmetry_space_group_name_H-M	'P1'
_symmetry_Int_Tables_number	1
_symmetry_cell_setting	triclinic
loop_
_symmetry_equiv_pos_as_xyz
  x,y,z
_cell_length_a	13.897448
_cell_length_b	13.897449
_cell_length_c	10.686551
_cell_angle_alpha	94.398514
_cell_angle_beta	94.407384
_cell_angle_gamma	90.018519
loop_
_atom_site_label
_atom_site_type_symbol
_atom_site_fract_x
_atom_site_fract_y
_atom_site_fract_z
Zn1	Zn	-0.342075	1.516575	0.713555
Zn2	Zn	-0.515784	1.504086	0.502545
Zn3	Zn	-0.354506	1.342882	0.502557
Zn4	Zn	-0.503336	1.355241	0.713485
O5	O	-0.428925	1.429696	0.608036
O6	O	-0.365125	1.649901	0.685588
O7	O	-0.504801	1.472304	0.325964
O8	O	-0.217873	1.365977	0.530581
O9	O	-0.492748	1.640726	0.530560
O10	O	-0.208740	1.493588	0.685600
O11	O	-0.386311	1.353868	0.325973
O12	O	-0.374241	1.209539	0.530513
O13	O	-0.471533	1.387041	0.890077
O14	O	-0.483586	1.218619	0.685481
O15	O	-0.353055	1.505572	0.890128
O16	O	-0.649116	1.484288	0.530492
O17	O	-0.639971	1.374932	0.685469
C18	C	-0.428913	1.179079	0.607992
C19	C	-0.428929	1.071866	0.608003
C20	C	-0.428931	0.984797	0.608024
C21	C	-0.428935	0.875567	0.608062
C22	C	-0.679542	1.429624	0.607999
C23	C	-0.786754	1.429683	0.608026
C24	C	-0.983044	1.429789	0.608105
C25	C	-0.873814	1.429728	0.608065
C26	C	-0.177328	1.429797	0.608100
C27	C	-0.070113	1.429840	0.608127
C28	C	-0.409519	1.449078	0.937169
C29	C	-0.401249	1.457338	1.077426
C30	C	-0.428938	1.681292	0.608080
C31	C	-0.428944	1.788507	0.608100
C32	C	-0.448186	1.410445	0.280183
C33	C	-0.456184	1.402372	0.139927
H34	H	-0.509547	1.348998	1.086136
H35	H	-0.347890	1.510723	1.131223
