data_functionalizedCrystal
_audit_creation_method	'MofGen! by Chris Wilmer'
_symmetry_space_group_name_H-M	'P1'
_symmetry_Int_Tables_number	1
_symmetry_cell_setting	triclinic
loop_
_symmetry_equiv_pos_as_xyz
  x,y,z
_cell_length_a	16.625545
_cell_length_b	21.395364
_cell_length_c	21.395356
_cell_angle_alpha	89.980845
_cell_angle_beta	89.974643
_cell_angle_gamma	90.030606
loop_
_atom_site_label
_atom_site_type_symbol
_atom_site_fract_x
_atom_site_fract_y
_atom_site_fract_z
Zn1	Zn	-0.320913	0.957876	-0.354197
Zn2	Zn	-0.070913	1.207876	-0.104197
Zn3	Zn	0.179087	1.457876	0.145803
Zn4	Zn	0.429087	1.707876	0.395803
Zn5	Zn	-0.455750	0.957789	-0.249424
Zn6	Zn	-0.205750	1.207789	0.000576
Zn7	Zn	0.044250	1.457789	0.250576
Zn8	Zn	0.294250	1.707789	0.500576
Zn9	Zn	-0.320947	0.853092	-0.249442
Zn10	Zn	-0.070947	1.103092	0.000558
Zn11	Zn	0.179053	1.353092	0.250558
Zn12	Zn	0.429053	1.603092	0.500558
Zn13	Zn	-0.455720	0.853069	-0.354172
Zn14	Zn	-0.205720	1.103069	-0.104172
Zn15	Zn	0.044280	1.353069	0.145828
Zn16	Zn	0.294280	1.603069	0.395828
O17	O	-0.388333	0.905457	-0.301809
O18	O	-0.138333	1.155457	-0.051809
O19	O	0.111667	1.405457	0.198191
O20	O	0.361667	1.655457	0.448191
O21	O	-0.338799	1.045542	-0.340302
O22	O	-0.088799	1.295542	-0.090302
O23	O	0.161201	1.545542	0.159698
O24	O	0.411201	1.795542	0.409698
O25	O	-0.437895	0.943875	-0.161749
O26	O	-0.187895	1.193875	0.088251
O27	O	0.062105	1.443875	0.338251
O28	O	0.312105	1.693875	0.588251
O29	O	-0.208110	0.867038	-0.263356
O30	O	0.041890	1.117038	-0.013356
O31	O	0.291890	1.367038	0.236644
O32	O	0.541890	1.617038	0.486644
O33	O	-0.437862	1.045479	-0.263325
O34	O	-0.187862	1.295479	-0.013325
O35	O	0.062138	1.545479	0.236675
O36	O	0.312138	1.795479	0.486675
O37	O	-0.208086	0.944022	-0.340319
O38	O	0.041914	1.194022	-0.090319
O39	O	0.291914	1.444022	0.159681
O40	O	0.541914	1.694022	0.409681
O41	O	-0.338856	0.866954	-0.161762
O42	O	-0.088856	1.116954	0.088238
O43	O	0.161144	1.366954	0.338238
O44	O	0.411144	1.616954	0.588238
O45	O	-0.338826	0.765411	-0.263332
O46	O	-0.088826	1.015411	-0.013332
O47	O	0.161174	1.265411	0.236668
O48	O	0.411174	1.515411	0.486668
O49	O	-0.437811	0.866998	-0.441854
O50	O	-0.187811	1.116998	-0.191854
O51	O	0.062189	1.366998	0.058146
O52	O	0.312189	1.616998	0.308146
O53	O	-0.437843	0.765394	-0.340277
O54	O	-0.187843	1.015394	-0.090277
O55	O	0.062157	1.265394	0.159723
O56	O	0.312157	1.515394	0.409723
O57	O	-0.338769	0.943999	-0.441872
O58	O	-0.088769	1.193999	-0.191872
O59	O	0.161231	1.443999	0.058128
O60	O	0.411231	1.693999	0.308128
O61	O	-0.568579	0.943852	-0.263301
O62	O	-0.318579	1.193852	-0.013301
O63	O	-0.068579	1.443852	0.236699
O64	O	0.181421	1.693852	0.486699
O65	O	-0.568556	0.866915	-0.340259
O66	O	-0.318556	1.116915	-0.090259
O67	O	-0.068556	1.366915	0.159741
O68	O	0.181444	1.616915	0.409741
C69	C	-0.388336	0.742669	-0.301804
C70	C	-0.138336	0.992669	-0.051804
C71	C	0.111664	1.242669	0.198196
C72	C	0.361664	1.492669	0.448196
C73	C	-0.388356	0.673028	-0.301817
C74	C	-0.138356	0.923028	-0.051817
C75	C	0.111644	1.173028	0.198183
C76	C	0.361644	1.423028	0.448183
C77	C	-0.597824	0.905388	-0.301789
C78	C	-0.347824	1.155388	-0.051789
C79	C	-0.097824	1.405388	0.198211
C80	C	0.152176	1.655388	0.448211
C81	C	-0.687445	0.905417	-0.301802
C82	C	-0.437445	1.155417	-0.051802
C83	C	-0.187445	1.405417	0.198198
C84	C	0.062555	1.655417	0.448198
C85	C	-0.760227	0.905441	-0.301814
C86	C	-0.510227	1.155441	-0.051814
C87	C	-0.260227	1.405441	0.198186
C88	C	-0.010227	1.655441	0.448186
C89	C	-0.851535	0.905477	-0.301828
C90	C	-0.601535	1.155477	-0.051828
C91	C	-0.351535	1.405477	0.198172
C92	C	-0.101535	1.655477	0.448172
C93	C	-0.924312	0.905510	-0.301836
C94	C	-0.674312	1.155510	-0.051836
C95	C	-0.424312	1.405510	0.198164
C96	C	-0.174312	1.655510	0.448164
C97	C	-1.015626	0.905546	-0.301849
C98	C	-0.765626	1.155546	-0.051849
C99	C	-0.515626	1.405546	0.198151
C100	C	-0.265626	1.655546	0.448151
C101	C	-0.388283	0.905506	-0.465232
C102	C	-0.138283	1.155506	-0.215232
C103	C	0.111717	1.405506	0.034768
C104	C	0.361717	1.655506	0.284768
C105	C	-0.388261	0.905527	-0.534874
C106	C	-0.138261	1.155527	-0.284874
C107	C	0.111739	1.405527	-0.034874
C108	C	0.361739	1.655527	0.215126
C109	C	-0.178024	0.905542	-0.301843
C110	C	0.071976	1.155542	-0.051843
C111	C	0.321976	1.405542	0.198157
C112	C	0.571976	1.655542	0.448157
C113	C	-0.088403	0.905578	-0.301857
C114	C	0.161597	1.155578	-0.051857
C115	C	0.411597	1.405578	0.198143
C116	C	0.661597	1.655578	0.448143
C117	C	-0.388330	1.068880	-0.301814
C118	C	-0.138330	1.318880	-0.051814
C119	C	0.111670	1.568880	0.198186
C120	C	0.361670	1.818880	0.448186
C121	C	-0.388329	1.138521	-0.301817
C122	C	-0.138329	1.388521	-0.051817
C123	C	0.111671	1.638521	0.198183
C124	C	0.361671	1.888521	0.448183
C125	C	-0.336787	1.640351	-0.341898
C126	C	-0.086787	1.890351	-0.091898
C127	C	0.163213	2.140351	0.158102
C128	C	0.413213	2.390351	0.408102
C129	C	-0.336778	1.574916	-0.341896
C130	C	-0.086778	1.824916	-0.091896
C131	C	0.163222	2.074916	0.158104
C132	C	0.413222	2.324916	0.408104
C133	C	-0.388353	1.542159	-0.301819
C134	C	-0.138353	1.792159	-0.051819
C135	C	0.111647	2.042159	0.198181
C136	C	0.361647	2.292159	0.448181
C137	C	-0.439927	1.574844	-0.261731
C138	C	-0.189927	1.824844	-0.011731
C139	C	0.060073	2.074844	0.238269
C140	C	0.310073	2.324844	0.488269
C141	C	-0.439928	1.640278	-0.261729
C142	C	-0.189928	1.890278	-0.011729
C143	C	0.060072	2.140278	0.238271
C144	C	0.310072	2.390278	0.488271
C145	C	-0.460997	1.438459	-0.296862
C146	C	-0.210997	1.688459	-0.046862
C147	C	0.039003	1.938459	0.203138
C148	C	0.289003	2.188459	0.453138
C149	C	-0.460996	1.373026	-0.296868
C150	C	-0.210996	1.623026	-0.046868
C151	C	0.039004	1.873026	0.203132
C152	C	0.289004	2.123026	0.453132
C153	C	-0.388348	1.340339	-0.301820
C154	C	-0.138348	1.590339	-0.051820
C155	C	0.111652	1.840339	0.198180
C156	C	0.361652	2.090339	0.448180
C157	C	-0.315697	1.373092	-0.306779
C158	C	-0.065697	1.623092	-0.056779
C159	C	0.184303	1.873092	0.193221
C160	C	0.434303	2.123092	0.443221
C161	C	-0.315699	1.438526	-0.306778
C162	C	-0.065699	1.688526	-0.056778
C163	C	0.184301	1.938526	0.193222
C164	C	0.434301	2.188526	0.443222
C165	C	-0.388357	1.471207	-0.301816
C166	C	-0.138357	1.721207	-0.051816
C167	C	0.111643	1.971207	0.198184
C168	C	0.361643	2.221207	0.448184
C169	C	-0.336764	1.236710	-0.341901
C170	C	-0.086764	1.486710	-0.091901
C171	C	0.163236	1.736710	0.158099
C172	C	0.413236	1.986710	0.408099
C173	C	-0.336754	1.171273	-0.341894
C174	C	-0.086754	1.421273	-0.091894
C175	C	0.163246	1.671273	0.158106
C176	C	0.413246	1.921273	0.408106
C177	C	-0.439910	1.171202	-0.261732
C178	C	-0.189910	1.421202	-0.011732
C179	C	0.060090	1.671202	0.238268
C180	C	0.310090	1.921202	0.488268
C181	C	-0.439913	1.236638	-0.261736
C182	C	-0.189913	1.486638	-0.011736
C183	C	0.060087	1.736638	0.238264
C184	C	0.310087	1.986638	0.488264
C185	C	-0.388341	1.269387	-0.301823
C186	C	-0.138341	1.519387	-0.051823
C187	C	0.111659	1.769387	0.198177
C188	C	0.361659	2.019387	0.448177
C189	C	-0.336686	0.865485	-0.567584
C190	C	-0.086686	1.115485	-0.317584
C191	C	0.163314	1.365485	-0.067584
C192	C	0.413314	1.615485	0.182416
C193	C	-0.336671	0.865483	-0.633019
C194	C	-0.086671	1.115483	-0.383019
C195	C	0.163329	1.365483	-0.133019
C196	C	0.413329	1.615483	0.116981
C197	C	-0.388223	0.905534	-0.665742
C198	C	-0.138223	1.155534	-0.415742
C199	C	0.111777	1.405534	-0.165742
C200	C	0.361777	1.655534	0.084258
C201	C	-0.439809	0.945578	-0.633024
C202	C	-0.189809	1.195578	-0.383024
C203	C	0.060191	1.445578	-0.133024
C204	C	0.310191	1.695578	0.116976
C205	C	-0.439828	0.945575	-0.567590
C206	C	-0.189828	1.195575	-0.317590
C207	C	0.060172	1.445575	-0.067590
C208	C	0.310172	1.695575	0.182410
C209	C	-0.394556	0.961986	-0.769424
C210	C	-0.144556	1.211986	-0.519424
C211	C	0.105444	1.461986	-0.269424
C212	C	0.355444	1.711986	-0.019424
C213	C	-0.394531	0.961991	-0.834857
C214	C	-0.144531	1.211991	-0.584857
C215	C	0.105469	1.461991	-0.334857
C216	C	0.355469	1.711991	-0.084857
C217	C	-0.388169	0.905544	-0.867563
C218	C	-0.138169	1.155544	-0.617563
C219	C	0.111831	1.405544	-0.367563
C220	C	0.361831	1.655544	-0.117563
C221	C	-0.381814	0.849091	-0.834828
C222	C	-0.131814	1.099091	-0.584828
C223	C	0.118186	1.349091	-0.334828
C224	C	0.368186	1.599091	-0.084828
C225	C	-0.381833	0.849088	-0.769393
C226	C	-0.131833	1.099088	-0.519393
C227	C	0.118167	1.349088	-0.269393
C228	C	0.368167	1.599088	-0.019393
C229	C	-0.388208	0.905542	-0.736695
C230	C	-0.138208	1.155542	-0.486695
C231	C	0.111792	1.405542	-0.236695
C232	C	0.361792	1.655542	0.013305
C233	C	-0.336574	0.865497	-0.971226
C234	C	-0.086574	1.115497	-0.721226
C235	C	0.163426	1.365497	-0.471226
C236	C	0.413426	1.615497	-0.221226
C237	C	-0.336565	0.865493	-1.036662
C238	C	-0.086565	1.115493	-0.786662
C239	C	0.163435	1.365493	-0.536662
C240	C	0.413435	1.615493	-0.286662
C241	C	-0.439698	0.945594	-1.036666
C242	C	-0.189698	1.195594	-0.786666
C243	C	0.060302	1.445594	-0.536666
C244	C	0.310302	1.695594	-0.286666
C245	C	-0.439712	0.945592	-0.971230
C246	C	-0.189712	1.195592	-0.721230
C247	C	0.060288	1.445592	-0.471230
C248	C	0.310288	1.695592	-0.221230
C249	C	-0.388145	0.905544	-0.938514
C250	C	-0.138145	1.155544	-0.688514
C251	C	0.111855	1.405544	-0.438514
C252	C	0.361855	1.655544	-0.188514
C253	C	-0.388324	0.905444	-0.139022
C254	C	-0.138324	1.155444	0.110978
C255	C	0.111676	1.405444	0.360978
C256	C	0.361676	1.655444	0.610978
C257	C	-0.388118	0.905544	-0.069381
C258	C	-0.138118	1.155544	0.180619
C259	C	0.111882	1.405544	0.430619
C260	C	0.361882	1.655544	0.680619
H261	H	-0.294792	1.667012	-0.374540
H262	H	-0.044792	1.917012	-0.124540
H263	H	0.205208	2.167012	0.125460
H264	H	0.455208	2.417012	0.375460
H265	H	-0.294699	0.832873	-0.540950
H266	H	-0.044699	1.082873	-0.290950
H267	H	0.205301	1.332873	-0.040950
H268	H	0.455301	1.582873	0.209050
H269	H	-0.294568	0.832882	-1.063294
H270	H	-0.044568	1.082882	-0.813294
H271	H	0.205432	1.332882	-0.563294
H272	H	0.455432	1.582882	-0.313294
H273	H	-0.294755	1.144669	-0.374532
H274	H	-0.044755	1.394669	-0.124532
H275	H	0.205245	1.644669	0.125468
H276	H	0.455245	1.894669	0.375468
H277	H	-0.481919	1.548169	-0.229100
H278	H	-0.231919	1.798169	0.020900
H279	H	0.018081	2.048169	0.270900
H280	H	0.268081	2.298169	0.520900
H281	H	-0.294766	1.263376	-0.374538
H282	H	-0.044766	1.513376	-0.124538
H283	H	0.205234	1.763376	0.125462
H284	H	0.455234	2.013376	0.375462
H285	H	-0.376628	0.803127	-0.861455
H286	H	-0.126628	1.053127	-0.611455
H287	H	0.123372	1.303127	-0.361455
H288	H	0.373372	1.553127	-0.111455
H289	H	-0.481910	1.263243	-0.229100
H290	H	-0.231910	1.513243	0.020900
H291	H	0.018090	1.763243	0.270900
H292	H	0.268090	2.013243	0.520900
H293	H	-0.481904	1.144533	-0.229101
H294	H	-0.231904	1.394533	0.020899
H295	H	0.018096	1.644533	0.270899
H296	H	0.268096	1.894533	0.520899
H297	H	-0.520160	1.465068	-0.292830
H298	H	-0.270160	1.715068	-0.042830
H299	H	-0.020160	1.965068	0.207170
H300	H	0.229840	2.215068	0.457170
H301	H	-0.294668	0.832877	-0.659657
H302	H	-0.044668	1.082877	-0.409657
H303	H	0.205332	1.332877	-0.159657
H304	H	0.455332	1.582877	0.090343
H305	H	-0.481826	0.978184	-0.540958
H306	H	-0.231826	1.228184	-0.290958
H307	H	0.018174	1.478184	-0.040958
H308	H	0.268174	1.728184	0.209042
H309	H	-0.520153	1.346363	-0.292833
H310	H	-0.270153	1.596363	-0.042833
H311	H	-0.020153	1.846363	0.207167
H312	H	0.229847	2.096363	0.457167
H313	H	-0.376661	0.803122	-0.742743
H314	H	-0.126661	1.053122	-0.492743
H315	H	0.123339	1.303122	-0.242743
H316	H	0.373339	1.553122	0.007257
H317	H	-0.294586	0.832887	-0.944587
H318	H	-0.044586	1.082887	-0.694587
H319	H	0.205414	1.332887	-0.444587
H320	H	0.455414	1.582887	-0.194587
H321	H	-0.481671	0.978206	-1.063308
H322	H	-0.231671	1.228206	-0.813308
H323	H	0.018329	1.478206	-0.563308
H324	H	0.268329	1.728206	-0.313308
H325	H	-0.481708	0.978200	-0.944597
H326	H	-0.231708	1.228200	-0.694597
H327	H	0.018292	1.478200	-0.444597
H328	H	0.268292	1.728200	-0.194597
H329	H	-0.256540	1.346479	-0.310811
H330	H	-0.006540	1.596479	-0.060811
H331	H	0.243460	1.846479	0.189189
H332	H	0.493460	2.096479	0.439189
H333	H	-0.399701	1.007958	-0.861505
H334	H	-0.149701	1.257958	-0.611505
H335	H	0.100299	1.507958	-0.361505
H336	H	0.350299	1.757958	-0.111505
H337	H	-0.481924	1.666883	-0.229090
H338	H	-0.231924	1.916883	0.020910
H339	H	0.018076	2.166883	0.270910
H340	H	0.268076	2.416883	0.520910
H341	H	-0.399730	1.007956	-0.742801
H342	H	-0.149730	1.257956	-0.492801
H343	H	0.100270	1.507956	-0.242801
H344	H	0.350270	1.757956	0.007199
H345	H	-0.294780	1.548305	-0.374533
H346	H	-0.044780	1.798305	-0.124533
H347	H	0.205220	2.048305	0.125467
H348	H	0.455220	2.298305	0.375467
H349	H	-0.256544	1.465191	-0.310813
H350	H	-0.006544	1.715191	-0.060813
H351	H	0.243456	1.965191	0.189187
H352	H	0.493456	2.215191	0.439187
H353	H	-0.481783	0.978188	-0.659671
H354	H	-0.231783	1.228188	-0.409671
H355	H	0.018217	1.478188	-0.159671
H356	H	0.268217	1.728188	0.090329
