data_functionalizedCrystal
_audit_creation_method	'MofGen! by Chris Wilmer'
_symmetry_space_group_name_H-M	'P1'
_symmetry_Int_Tables_number	1
_symmetry_cell_setting	triclinic
loop_
_symmetry_equiv_pos_as_xyz
  x,y,z
_cell_length_a	8.597366
_cell_length_b	15.995343
_cell_length_c	7.088929
_cell_angle_alpha	83.771720
_cell_angle_beta	103.954530
_cell_angle_gamma	84.417347
loop_
_atom_site_label
_atom_site_type_symbol
_atom_site_fract_x
_atom_site_fract_y
_atom_site_fract_z
O1	O	2.101352	0.114986	0.187142
O2	O	1.636670	0.128657	0.110589
O3	O	1.881724	-0.000078	0.150995
O4	O	1.856299	0.243721	0.146736
O5	O	1.914473	-0.017321	0.474370
O6	O	1.669419	0.111414	0.433964
O7	O	2.134101	0.097743	0.510517
Cu8	Cu	1.904750	0.103004	0.501767
Cu9	Cu	1.866021	0.123396	0.119339
O10	O	1.889048	0.226478	0.470111
C11	C	1.593582	0.119528	0.262481
C12	C	1.416401	0.118007	0.233293
C13	C	1.897050	-0.039894	0.312515
C14	C	1.893908	-0.132843	0.312012
C15	C	1.888197	-0.303023	0.311028
C16	C	1.711308	-0.326238	0.281883
C17	C	1.707903	-0.422873	0.280579
C18	C	1.882573	-0.470576	0.310061
C19	C	1.952852	-0.431716	0.140422
C20	C	1.954936	-0.334918	0.140634
C21	C	1.994769	-0.354633	0.508812
C22	C	1.988482	-0.451252	0.510137
C23	C	1.879402	-0.565271	0.309509
C24	C	1.891371	-0.208328	0.311567
C25	C	2.177189	0.106872	0.358620
C26	C	2.354369	0.108394	0.387795
C27	C	1.873721	0.266294	0.308586
C28	C	1.876862	0.359244	0.309076
N29	N	1.932002	0.088661	0.770749
N30	N	1.838782	0.137732	-0.149641
H31	H	1.333961	0.125067	0.078677
C32	C	1.465737	0.098854	0.596684
H33	H	1.574207	0.101171	0.589575
H34	H	1.458042	0.045951	0.666697
H35	H	1.433680	0.143570	0.662640
C36	C	1.708262	0.206428	0.718550
H37	H	1.710117	0.205438	0.585350
H38	H	1.729084	0.260522	0.754674
H39	H	1.605050	0.195695	0.734280
H40	H	1.651640	-0.448887	0.401176
H41	H	1.656126	-0.305230	0.402729
C42	C	2.062535	0.019963	0.902559
H43	H	2.118077	-0.009269	0.823565
H44	H	2.013025	-0.019023	0.972520
H45	H	2.137055	0.045805	0.992893
C46	C	1.602128	-0.277498	0.088621
H47	H	1.663879	-0.243067	0.025612
H48	H	1.516472	-0.242676	0.115928
H49	H	1.558698	-0.316686	0.005078
C50	C	1.596120	-0.438138	0.085639
H51	H	1.552628	-0.385235	0.006926
H52	H	1.510589	-0.467088	0.111672
H53	H	1.656196	-0.471498	0.018026
H54	H	1.937520	-0.477039	0.635808
C55	C	1.853770	-0.288699	-0.059712
H56	H	1.811781	-0.329141	-0.140462
H57	H	1.920046	-0.256796	-0.121092
H58	H	1.767040	-0.251656	-0.041180
H59	H	2.083858	-0.320021	0.154150
H60	H	2.080707	-0.463319	0.155253
H61	H	2.117068	-0.484917	0.542807
H62	H	1.877881	-0.444415	-0.007309
C63	C	1.938472	-0.326480	0.685162
H64	H	1.849436	-0.282981	0.639808
H65	H	2.024620	-0.305615	0.770600
H66	H	1.906578	-0.373480	0.753846
H67	H	2.125146	-0.340805	0.532051
