data_functionalizedCrystal
_audit_creation_method	'MofGen! by Chris Wilmer'
_symmetry_space_group_name_H-M	'P1'
_symmetry_Int_Tables_number	1
_symmetry_cell_setting	triclinic
loop_
_symmetry_equiv_pos_as_xyz
  x,y,z
_cell_length_a	16.625548
_cell_length_b	12.594516
_cell_length_c	16.625539
_cell_angle_alpha	90.025003
_cell_angle_beta	90.020568
_cell_angle_gamma	90.012884
loop_
_atom_site_label
_atom_site_type_symbol
_atom_site_fract_x
_atom_site_fract_y
_atom_site_fract_z
Zn1	Zn	1.232740	-0.423710	0.455928
Zn2	Zn	1.732740	0.076290	0.955928
Zn3	Zn	1.232668	-0.601711	0.321103
Zn4	Zn	1.732668	-0.101711	0.821103
Zn5	Zn	1.097902	-0.423750	0.321108
Zn6	Zn	1.597902	0.076250	0.821108
Zn7	Zn	1.097897	-0.601650	0.455893
Zn8	Zn	1.597897	-0.101650	0.955893
O9	O	1.165302	-0.512705	0.388508
O10	O	1.665302	-0.012705	0.888508
O11	O	1.345563	-0.447331	0.438055
O12	O	1.845563	0.052669	0.938055
O13	O	1.214763	-0.578147	0.208271
O14	O	1.714763	-0.078147	0.708271
O15	O	1.115820	-0.274799	0.339010
O16	O	1.615820	0.225201	0.839010
O17	O	1.345510	-0.578107	0.339000
O18	O	1.845510	-0.078107	0.839000
O19	O	1.214885	-0.274769	0.438061
O20	O	1.714885	0.225231	0.938061
O21	O	1.115751	-0.447400	0.208275
O22	O	1.615751	0.052600	0.708275
O23	O	0.985069	-0.447341	0.338975
O24	O	1.485069	0.052659	0.838975
O25	O	1.115813	-0.578003	0.568730
O26	O	1.615813	-0.078003	1.068730
O27	O	0.985066	-0.578043	0.438001
O28	O	1.485066	-0.078043	0.938001
O29	O	1.214881	-0.447271	0.568756
O30	O	1.714881	0.052729	1.068756
O31	O	1.214759	-0.750649	0.338966
O32	O	1.714759	-0.250649	0.838966
O33	O	1.115743	-0.750604	0.437996
O34	O	1.615743	-0.250604	0.937996
C35	C	0.955811	-0.512690	0.388485
C36	C	1.455811	-0.012690	0.888485
C37	C	0.866190	-0.512709	0.388495
C38	C	1.366190	-0.012709	0.888495
C39	C	0.538014	-0.512716	0.388529
C40	C	1.038014	-0.012716	0.888529
C41	C	0.629323	-0.512711	0.388517
C42	C	1.129323	-0.012711	0.888517
C43	C	0.702099	-0.512713	0.388512
C44	C	1.202099	-0.012713	0.888512
C45	C	0.793414	-0.512707	0.388501
C46	C	1.293414	-0.012707	0.888501
C47	C	1.165265	-0.789246	0.388494
C48	C	1.665265	-0.289246	0.888494
C49	C	1.165322	-0.907552	0.388515
C50	C	1.665322	-0.407552	0.888515
C51	C	1.219240	-0.976791	0.334710
C52	C	1.719240	-0.476791	0.834710
C53	C	1.238943	-1.047491	0.408305
C54	C	1.738943	-0.547491	0.908305
C55	C	1.145720	-1.047650	0.314967
C56	C	1.645720	-0.547650	0.814967
C57	C	1.185064	-0.976694	0.462148
C58	C	1.685064	-0.476694	0.962148
C59	C	1.091806	-0.976846	0.368761
C60	C	1.591806	-0.476846	0.868761
C61	C	1.111482	-1.047515	0.442406
C62	C	1.611482	-0.547515	0.942406
C63	C	1.375611	-0.512721	0.388531
C64	C	1.875611	-0.012721	0.888531
C65	C	1.465232	-0.512728	0.388541
C66	C	1.965232	-0.012728	0.888541
C67	C	1.165354	-0.512626	0.598817
C68	C	1.665354	-0.012626	1.098817
C69	C	1.165377	-0.512592	0.688438
C70	C	1.665377	-0.012592	1.188438
C71	C	1.165361	-0.235085	0.388540
C72	C	1.665361	0.264915	0.888540
C73	C	1.165387	-0.116779	0.388553
C74	C	1.665387	0.383221	0.888553
C75	C	1.165296	-0.512708	0.179017
C76	C	1.665296	-0.012708	0.679017
C77	C	1.165430	-0.512441	0.089396
C78	C	1.665430	-0.012441	0.589396
C79	C	1.165414	-0.512473	1.016614
C80	C	1.665414	-0.012473	1.516614
C81	C	1.165401	-0.512510	0.925305
C82	C	1.665401	-0.012510	1.425305
C83	C	1.165396	-0.512534	0.852529
C84	C	1.665396	-0.012534	1.352529
C85	C	1.165382	-0.512568	0.761215
C86	C	1.665382	-0.012568	1.261215
H87	H	1.264843	-0.945736	0.289250
H88	H	1.764843	-0.445736	0.789250
O89	O	1.125996	-1.084704	0.240687
O90	O	1.625996	-0.584704	0.740687
C91	C	1.160563	-1.090840	0.100019
C92	C	1.660563	-0.590840	0.600019
C93	C	1.182973	-1.048790	0.184093
C94	C	1.682973	-0.548790	0.684093
H95	H	1.206626	-1.061840	0.054242
H96	H	1.706626	-0.561840	0.554242
H97	H	1.098326	-1.060539	0.082656
H98	H	1.598326	-0.560539	0.582656
H99	H	1.160173	-1.181347	0.100932
H100	H	1.660173	-0.681347	0.600932
H101	H	1.183409	-0.958286	0.183245
H102	H	1.683409	-0.458286	0.683245
H103	H	1.245196	-1.079173	0.201423
H104	H	1.745196	-0.579173	0.701423
H105	H	1.201609	-0.945660	0.524416
H106	H	1.701609	-0.445660	1.024416
O107	O	1.313192	-1.084474	0.428132
O108	O	1.813192	-0.584474	0.928132
C109	C	1.453937	-1.090347	0.393860
C110	C	1.953937	-0.590347	0.893860
C111	C	1.369892	-1.048419	0.371311
C112	C	1.869892	-0.548419	0.871311
H113	H	1.499804	-1.061194	0.347943
H114	H	1.999804	-0.561194	0.847943
H115	H	1.453148	-1.180858	0.394223
H116	H	1.953148	-0.680858	0.894223
H117	H	1.471086	-1.059965	0.456153
H118	H	1.971086	-0.559965	0.956153
H119	H	1.352691	-1.078722	0.309015
H120	H	1.852691	-0.578722	0.809015
H121	H	1.370727	-0.957909	0.371004
H122	H	1.870727	-0.457909	0.871004
O123	O	1.057028	-1.084391	0.496655
O124	O	1.557028	-0.584391	0.996655
C125	C	0.937044	-1.187886	0.518216
C126	C	1.437044	-0.687886	1.018216
C127	C	0.998638	-1.146172	0.456691
C128	C	1.498638	-0.646172	0.956691
H129	H	0.889830	-1.237863	0.485931
H130	H	1.389830	-0.737863	0.985931
H131	H	0.906546	-1.117998	0.549345
H132	H	1.406546	-0.617998	1.049345
H133	H	0.969197	-1.238741	0.564937
H134	H	1.469197	-0.738741	1.064937
H135	H	0.966546	-1.095334	0.409921
H136	H	1.466546	-0.595334	0.909921
H137	H	1.029133	-1.216108	0.425623
H138	H	1.529133	-0.716108	0.925623
H139	H	1.029625	-0.945789	0.352009
H140	H	1.529625	-0.445789	0.852009
