data_functionalizedCrystal
_audit_creation_method	'MofGen! by Chris Wilmer'
_symmetry_space_group_name_H-M	'P1'
_symmetry_Int_Tables_number	1
_symmetry_cell_setting	triclinic
loop_
_symmetry_equiv_pos_as_xyz
  x,y,z
_cell_length_a	10.723024
_cell_length_b	9.065218
_cell_length_c	8.140239
_cell_angle_alpha	89.997198
_cell_angle_beta	89.997644
_cell_angle_gamma	84.741877
loop_
_atom_site_label
_atom_site_type_symbol
_atom_site_fract_x
_atom_site_fract_y
_atom_site_fract_z
O1	O	0.182984	1.959359	-0.136613
O2	O	0.197993	1.529989	-0.136615
O3	O	0.008953	1.754578	-0.136608
O4	O	0.372025	1.734770	-0.136620
O5	O	0.008950	1.754565	0.136619
O6	O	0.197991	1.529976	0.136612
O7	O	0.182982	1.959346	0.136614
Zn8	Zn	0.190486	1.744659	0.179994
Zn9	Zn	0.190489	1.744676	-0.179995
O10	O	0.372022	1.734757	0.136607
C11	C	0.196550	1.475004	-0.000002
C12	C	0.192237	1.311186	-0.000003
C13	C	-0.037554	1.753130	0.000004
C14	C	-0.176126	1.748817	-0.000002
C15	C	-0.250598	1.874486	-0.000004
C16	C	-0.393819	1.870031	-0.000010
C17	C	0.418529	1.736205	-0.000008
C18	C	0.557101	1.740518	-0.000013
C19	C	0.184425	2.014331	-0.000003
C20	C	0.188738	2.178150	-0.000013
N21	N	0.190483	1.744659	0.425676
N22	N	0.190482	1.744688	-0.425677
H23	H	-0.208325	1.985373	0.000007
H24	H	-0.457815	1.977613	-0.000004
H25	H	-0.378911	1.632930	-0.000001
O26	O	-0.226690	1.616613	-0.000226
C27	C	-0.301189	1.606342	-0.141760
H28	H	-0.332163	1.722343	-0.188938
H29	H	-0.244477	1.541571	-0.240845
C30	C	-0.379294	1.383444	-0.040840
C31	C	-0.417345	1.525919	-0.098777
H32	H	-0.450942	1.333830	-0.014331
H33	H	-0.329099	1.390360	0.054511
H34	H	-0.332033	1.329487	-0.123421
H35	H	-0.464592	1.579879	-0.016190
H36	H	-0.467551	1.519011	-0.194114
