data_functionalizedCrystal
_audit_creation_method	'MofGen! by Chris Wilmer'
_symmetry_space_group_name_H-M	'P1'
_symmetry_Int_Tables_number	1
_symmetry_cell_setting	triclinic
loop_
_symmetry_equiv_pos_as_xyz
  x,y,z
_cell_length_a	9.065218
_cell_length_b	9.065218
_cell_length_c	9.130307
_cell_angle_alpha	89.998400
_cell_angle_beta	89.998522
_cell_angle_gamma	85.015885
loop_
_atom_site_label
_atom_site_type_symbol
_atom_site_fract_x
_atom_site_fract_y
_atom_site_fract_z
O1	O	-0.216354	-1.960395	0.121797
O2	O	-0.234101	-1.531111	0.121798
O3	O	-0.010585	-1.754626	0.121794
O4	O	-0.439870	-1.736880	0.121800
O5	O	-0.010583	-1.754619	-0.121805
O6	O	-0.234099	-1.531103	-0.121801
O7	O	-0.216352	-1.960388	-0.121802
Cu8	Cu	-0.225225	-1.745745	-0.144044
Cu9	Cu	-0.225228	-1.745754	0.144040
O10	O	-0.439868	-1.736872	-0.121799
C11	C	-0.232394	-1.476120	-0.000001
C12	C	-0.227294	-1.312277	-0.000000
C13	C	0.044403	-1.752917	-0.000003
C14	C	0.208245	-1.747817	0.000004
C15	C	-0.218059	-2.015378	0.000000
C16	C	-0.223158	-2.179221	0.000009
C17	C	-0.494855	-1.738582	0.000002
C18	C	-0.658698	-1.743681	0.000004
N19	N	-0.225222	-1.745750	-0.346667
C20	C	-0.027358	-1.943755	-0.346660
C21	C	0.071570	-2.042767	-0.423324
C22	C	0.071571	-2.042782	-0.576657
C23	C	-0.027364	-1.943771	-0.653331
C24	C	-0.126292	-1.844758	-0.576667
C25	C	-0.126285	-1.844757	-0.423330
C26	C	-0.324147	-1.646748	-0.576674
C27	C	-0.324157	-1.646738	-0.423340
C28	C	-0.423081	-1.547737	-0.653347
C29	C	-0.522019	-1.448729	-0.576684
C30	C	-0.522017	-1.448720	-0.423341
C31	C	-0.423085	-1.547726	-0.346677
N32	N	-0.225219	-1.745761	0.346663
H33	H	-0.027361	-1.943765	-0.221808
H34	H	-0.423070	-1.547747	-0.778200
H35	H	-0.602558	-1.368115	-0.639121
H36	H	0.152124	-2.123379	-0.360883
Cl37	Cl	-0.646383	-1.324230	-0.326978
Cl38	Cl	-0.027343	-1.943771	-0.846094
H39	H	0.152131	-2.123401	-0.639077
Cl40	Cl	-0.423079	-1.547729	-0.153914
