data_functionalizedCrystal
_audit_creation_method	'MofGen! by Chris Wilmer'
_symmetry_space_group_name_H-M	'P1'
_symmetry_Int_Tables_number	1
_symmetry_cell_setting	triclinic
loop_
_symmetry_equiv_pos_as_xyz
  x,y,z
_cell_length_a	14.971486
_cell_length_b	16.109301
_cell_length_c	14.048226
_cell_angle_alpha	89.992144
_cell_angle_beta	89.998499
_cell_angle_gamma	83.537805
loop_
_atom_site_label
_atom_site_type_symbol
_atom_site_fract_x
_atom_site_fract_y
_atom_site_fract_z
O1	O	1.186791	0.108348	-0.079054
O2	O	1.686791	0.608348	0.420946
O3	O	0.926372	0.121323	-0.079081
O4	O	1.426372	0.621323	0.420919
O5	O	1.063735	-0.006187	-0.079057
O6	O	1.563735	0.493813	0.420943
O7	O	1.049427	0.235857	-0.079078
O8	O	1.549427	0.735857	0.420922
O9	O	1.063719	-0.006194	0.079264
O10	O	1.563719	0.493806	0.579264
O11	O	0.926355	0.121315	0.079241
O12	O	1.426355	0.621315	0.579241
O13	O	1.186774	0.108340	0.079267
O14	O	1.686774	0.608340	0.579267
Zn15	Zn	1.056562	0.114826	0.104391
Zn16	Zn	1.556562	0.614826	0.604391
Zn17	Zn	1.056584	0.114836	-0.104204
Zn18	Zn	1.556584	0.614836	0.395796
O19	O	1.049411	0.235850	0.079244
O20	O	1.549411	0.735850	0.579244
C21	C	0.893040	0.120739	0.000077
C22	C	1.393040	0.620739	0.500077
C23	C	0.793745	0.119000	0.000067
C24	C	1.293745	0.619000	0.500067
C25	C	1.063147	-0.037166	0.000104
C26	C	1.563147	0.462834	0.500104
C27	C	1.061410	-0.129464	0.000105
C28	C	1.561410	0.370536	0.500105
C29	C	0.736412	0.193908	0.000062
C30	C	1.236412	0.693908	0.500062
C31	C	0.643115	0.192269	0.000076
C32	C	1.143115	0.692269	0.500076
C33	C	0.607153	0.115721	0.000089
C34	C	1.107153	0.615721	0.500089
C35	C	0.664494	0.040807	0.000097
C36	C	1.164494	0.540807	0.500097
C37	C	0.757789	0.042447	0.000089
C38	C	1.257789	0.542447	0.500089
C39	C	0.470036	0.037395	0.000110
C40	C	0.970036	0.537395	0.500110
C41	C	0.376734	0.035755	0.000116
C42	C	0.876734	0.535755	0.500116
C43	C	0.355362	0.187217	0.000097
C44	C	0.855362	0.687217	0.500097
C45	C	0.448657	0.188857	0.000090
C46	C	0.948657	0.688857	0.500090
C47	C	0.505991	0.113942	0.000096
C48	C	1.005991	0.613942	0.500096
C49	C	1.138878	-0.351640	0.000098
C50	C	1.638878	0.148360	0.500098
C51	C	1.137239	-0.438362	0.000090
C52	C	1.637239	0.061638	0.500090
C53	C	0.974262	-0.418691	0.000077
C54	C	1.474262	0.081309	0.500077
C55	C	0.975902	-0.331970	0.000078
C56	C	1.475902	0.168030	0.500078
C57	C	1.058213	-0.298447	0.000094
C58	C	1.558213	0.201553	0.500094
C59	C	1.054933	-0.471890	0.000085
C60	C	1.554933	0.028110	0.500085
C61	C	1.053155	-0.565918	0.000076
C62	C	1.553155	-0.065918	0.500076
C63	C	1.059992	-0.204413	0.000101
C64	C	1.559992	0.295587	0.500101
C65	C	1.220106	0.108924	0.000108
C66	C	1.720106	0.608924	0.500108
C67	C	1.319401	0.110663	0.000111
C68	C	1.819401	0.610663	0.500111
C69	C	1.049999	0.266829	0.000080
C70	C	1.549999	0.766829	0.500080
C71	C	1.051736	0.359127	0.000073
C72	C	1.551736	0.859127	0.500073
N73	N	1.056554	0.114819	0.246752
N74	N	1.556554	0.614819	0.746752
N75	N	1.056599	0.114837	-0.246565
N76	N	1.556599	0.614837	0.253435
C77	C	1.117397	0.058381	0.296580
C78	C	1.617397	0.558381	0.796580
C79	C	1.117403	0.058381	0.396238
C80	C	1.617403	0.558381	0.896238
C81	C	1.056570	0.114823	0.446065
C82	C	1.556570	0.614823	0.946065
C83	C	0.995719	0.171263	0.396230
C84	C	1.495719	0.671263	0.896230
C85	C	0.995710	0.171259	0.296574
C86	C	1.495710	0.671259	0.796574
C87	C	0.995745	0.171269	0.603944
C88	C	1.495745	0.671269	1.103944
C89	C	0.995756	0.171275	0.703607
C90	C	1.495756	0.671275	1.203607
C91	C	1.117439	0.058391	0.703608
C92	C	1.617439	0.558391	1.203608
C93	C	1.117429	0.058387	0.603952
C94	C	1.617429	0.558387	1.103952
C95	C	1.056580	0.114829	0.554123
C96	C	1.556580	0.614829	1.054123
H97	H	0.596437	0.253267	0.000071
H98	H	1.096437	0.753267	0.500071
O99	O	1.182999	-0.002502	0.242831
O100	O	1.682999	0.497498	0.742831
H101	H	1.252727	0.008184	0.261942
H102	H	1.752727	0.508184	0.761942
H103	H	1.166984	0.012434	0.744184
H104	H	1.666984	0.512434	1.244184
O105	O	0.930112	0.232146	0.449973
O106	O	1.430112	0.732146	0.949973
H107	H	0.887799	0.271388	0.398578
H108	H	1.387799	0.771388	0.898578
H109	H	0.910211	-0.288658	0.000072
H110	H	1.410211	0.211342	0.500072
H111	H	1.166946	0.012424	0.436808
H112	H	1.666946	0.512424	0.936808
O113	O	1.183038	-0.002490	0.550203
O114	O	1.683038	0.497510	1.050203
H115	H	1.225345	-0.041744	0.601592
H116	H	1.725345	0.458256	1.101592
H117	H	1.205901	-0.324348	0.000108
H118	H	1.705901	0.175652	0.500108
H119	H	0.946218	0.217235	0.744171
H120	H	1.446218	0.717235	1.244171
H121	H	0.308675	0.248215	0.000097
H122	H	0.808675	0.748215	0.500097
H123	H	0.946192	0.217228	0.563377
H124	H	1.446192	0.717228	1.063377
H125	H	1.202924	-0.481669	0.000092
H126	H	1.702924	0.018331	0.500092
O127	O	0.930091	0.232135	0.242822
O128	O	1.430091	0.732135	0.742822
H129	H	0.887796	0.271390	0.294211
H130	H	1.387796	0.771390	0.794211
O131	O	0.625705	-0.041755	0.000117
O132	O	1.125705	0.458245	0.500117
H133	H	0.681250	-0.093569	0.000130
H134	H	1.181250	0.406431	0.500130
O135	O	0.775199	0.276471	0.000058
O136	O	1.275199	0.776471	0.500058
H137	H	0.719653	0.328284	0.000069
H138	H	1.219653	0.828284	0.500069
O139	O	0.885485	-0.454846	0.000081
O140	O	1.385485	0.045154	0.500081
H141	H	0.897894	-0.524086	0.000095
H142	H	1.397894	-0.024086	0.500095
H143	H	0.477934	0.251189	0.000070
H144	H	0.977934	0.751189	0.500070
H145	H	0.347458	-0.026577	0.000128
H146	H	0.847458	0.473423	0.500128
H147	H	0.804470	-0.018551	0.000093
H148	H	1.304470	0.481449	0.500093
O149	O	0.531880	-0.043403	0.000113
O150	O	1.031880	0.456597	0.500113
H151	H	0.491202	-0.096908	0.000111
H152	H	0.991202	0.403092	0.500111
