data_functionalizedCrystal
_audit_creation_method	'MofGen! by Chris Wilmer'
_symmetry_space_group_name_H-M	'P1'
_symmetry_Int_Tables_number	1
_symmetry_cell_setting	triclinic
loop_
_symmetry_equiv_pos_as_xyz
  x,y,z
_cell_length_a	19.805405
_cell_length_b	19.805407
_cell_length_c	19.805399
_cell_angle_alpha	89.982197
_cell_angle_beta	89.970699
_cell_angle_gamma	90.023727
loop_
_atom_site_label
_atom_site_type_symbol
_atom_site_fract_x
_atom_site_fract_y
_atom_site_fract_z
Zn1	Zn	-0.269527	1.034736	-0.382680
Zn2	Zn	0.230473	1.534736	0.117320
Zn3	Zn	-0.382716	1.034650	-0.269488
Zn4	Zn	0.117284	1.534650	0.230512
Zn5	Zn	-0.269541	0.921550	-0.269508
Zn6	Zn	0.230459	1.421550	0.230492
Zn7	Zn	-0.382674	0.921514	-0.382638
Zn8	Zn	0.117326	1.421514	0.117362
O9	O	-0.326115	0.978113	-0.326078
O10	O	0.173885	1.478113	0.173922
O11	O	-0.284554	1.129441	-0.367674
O12	O	0.215446	1.629441	0.132326
O13	O	-0.367726	1.019627	-0.174774
O14	O	0.132274	1.519627	0.325226
O15	O	-0.174822	0.936615	-0.284546
O16	O	0.325178	1.436615	0.215454
O17	O	-0.367713	1.129378	-0.284512
O18	O	0.132287	1.629378	0.215488
O19	O	-0.174813	1.019772	-0.367693
O20	O	0.325187	1.519772	0.132307
O21	O	-0.284576	0.936533	-0.174788
O22	O	0.215424	1.436533	0.325212
O23	O	-0.284536	0.826829	-0.284506
O24	O	0.215464	1.326829	0.215494
O25	O	-0.367642	0.936553	-0.477360
O26	O	0.132358	1.436553	0.022640
O27	O	-0.367655	0.826802	-0.367622
O28	O	0.132345	1.326802	0.132378
O29	O	-0.284514	1.019737	-0.477391
O30	O	0.215486	1.519737	0.022609
O31	O	-0.477427	1.019592	-0.284472
O32	O	0.022573	1.519592	0.215528
O33	O	-0.477397	0.936471	-0.367603
O34	O	0.022603	1.436471	0.132397
C35	C	-0.326093	0.802257	-0.326062
C36	C	0.173907	1.302257	0.173938
C37	C	-0.326101	0.727025	-0.326071
C38	C	0.173899	1.227025	0.173929
C39	C	-0.282876	0.691714	-0.369439
C40	C	0.217124	1.191714	0.130561
C41	C	-0.282880	0.621025	-0.369442
C42	C	0.217120	1.121025	0.130558
C43	C	-0.326112	0.585649	-0.326079
C44	C	0.173888	1.085649	0.173921
C45	C	-0.369338	0.620965	-0.282706
C46	C	0.130662	1.120965	0.217294
C47	C	-0.369330	0.691652	-0.282701
C48	C	0.130670	1.191652	0.217299
C49	C	-0.369368	0.335892	-0.282727
C50	C	0.130632	0.835892	0.217273
C51	C	-0.369374	0.265199	-0.282737
C52	C	0.130626	0.765199	0.217263
C53	C	-0.282918	0.265265	-0.369468
C54	C	0.217082	0.765265	0.130532
C55	C	-0.282910	0.335952	-0.369462
C56	C	0.217090	0.835952	0.130538
C57	C	-0.326134	0.371262	-0.326087
C58	C	0.173866	0.871262	0.173913
C59	C	-0.326128	0.447910	-0.326084
C60	C	0.173872	0.947910	0.173916
C61	C	-0.326121	0.509002	-0.326085
C62	C	0.173879	1.009002	0.173915
C63	C	-0.501971	0.978036	-0.326046
C64	C	-0.001971	1.478036	0.173954
C65	C	-0.577203	0.978066	-0.326054
C66	C	-0.077203	1.478066	0.173946
C67	C	-0.612540	1.021389	-0.282813
C68	C	-0.112540	1.521389	0.217187
C69	C	-0.683228	1.021418	-0.282828
C70	C	-0.183228	1.521418	0.217172
C71	C	-0.718578	0.978119	-0.326081
C72	C	-0.218578	1.478119	0.173919
C73	C	-0.683236	0.934794	-0.369327
C74	C	-0.183236	1.434794	0.130673
C75	C	-0.612549	0.934769	-0.369315
C76	C	-0.112549	1.434769	0.130685
C77	C	-0.968309	0.934894	-0.369377
C78	C	-0.468309	1.434894	0.130623
C79	C	-1.039001	0.934921	-0.369384
C80	C	-0.539001	1.434921	0.130616
C81	C	-1.038989	1.021542	-0.282890
C82	C	-0.538989	1.521542	0.217110
C83	C	-0.968302	1.021517	-0.282878
C84	C	-0.468302	1.521517	0.217122
C85	C	-0.932965	0.978195	-0.326126
C86	C	-0.432965	1.478195	0.173874
C87	C	-0.856317	0.978165	-0.326110
C88	C	-0.356317	1.478165	0.173890
C89	C	-0.795225	0.978145	-0.326094
C90	C	-0.295225	1.478145	0.173906
C91	C	-0.149572	0.978207	-0.326126
C92	C	0.350428	1.478207	0.173874
C93	C	-0.074340	0.978248	-0.326146
C94	C	0.425660	1.478248	0.173854
C95	C	-0.326072	0.978151	-0.502621
C96	C	0.173928	1.478151	-0.002621
C97	C	-0.326054	0.978167	-0.577853
C98	C	0.173946	1.478167	-0.077853
C99	C	-0.326136	1.154655	-0.326095
C100	C	0.173864	1.654655	0.173905
C101	C	-0.326146	1.229887	-0.326102
C102	C	0.173854	1.729887	0.173898
C103	C	-0.282767	1.021481	-0.613214
C104	C	0.217233	1.521481	-0.113214
C105	C	-0.282747	1.021488	-0.683903
C106	C	0.217253	1.521488	-0.183903
C107	C	-0.326018	0.978184	-0.719229
C108	C	0.173982	1.478184	-0.219229
C109	C	-0.369308	0.934864	-0.683863
C110	C	0.130692	1.434864	-0.183863
C111	C	-0.369323	0.934854	-0.613176
C112	C	0.130677	1.434854	-0.113176
C113	C	-0.369244	0.934902	-0.968936
C114	C	0.130756	1.434902	-0.468936
C115	C	-0.369227	0.934917	-1.039628
C116	C	0.130773	1.434917	-0.539628
C117	C	-0.282668	1.021536	-1.039663
C118	C	0.217332	1.521536	-0.539663
C119	C	-0.282684	1.021527	-0.968976
C120	C	0.217316	1.521527	-0.468976
C121	C	-0.325970	0.978205	-0.933616
C122	C	0.174030	1.478205	-0.433616
C123	C	-0.325990	0.978197	-0.856968
C124	C	0.174010	1.478197	-0.356968
C125	C	-0.326002	0.978194	-0.795876
C126	C	0.173998	1.478194	-0.295876
C127	C	-0.326108	0.978114	-0.150222
C128	C	0.173892	1.478114	0.349778
C129	C	-0.325936	0.978229	-0.074991
C130	C	0.174064	1.478229	0.425009
H131	H	-0.247721	0.236507	-0.404783
H132	H	0.252279	0.736507	0.095217
C133	C	-0.946591	1.054554	-0.168292
C134	C	-0.446591	1.554554	0.331708
C135	C	-0.929448	1.069114	-0.235334
C136	C	-0.429448	1.569114	0.264666
H137	H	-0.922607	1.083944	-0.138943
H138	H	-0.422607	1.583944	0.361057
H139	H	-0.935044	1.009086	-0.158346
H140	H	-0.435044	1.509086	0.341654
H141	H	-0.993748	1.060771	-0.162119
H142	H	-0.493748	1.560771	0.337881
H143	H	-0.882291	1.062893	-0.241508
H144	H	-0.382291	1.562893	0.258492
H145	H	-0.940991	1.114594	-0.245283
H146	H	-0.440991	1.614594	0.254717
C147	C	-0.454869	0.849238	-0.676723
C148	C	0.045131	1.349238	-0.176723
C149	C	-0.416873	0.887261	-0.722691
C150	C	0.083127	1.387261	-0.222691
H151	H	-0.484232	0.819847	-0.700694
H152	H	0.015768	1.319847	-0.200694
H153	H	-0.480767	0.878709	-0.649150
H154	H	0.019233	1.378709	-0.149150
H155	H	-0.425373	0.823360	-0.649156
H156	H	0.074627	1.323360	-0.149156
H157	H	-0.446368	0.913142	-0.750254
H158	H	0.053632	1.413142	-0.250254
H159	H	-0.390972	0.857786	-0.750275
H160	H	0.109028	1.357786	-0.250275
C161	C	-0.859962	0.896393	-0.407776
C162	C	-0.359962	1.396393	0.092224
C163	C	-0.929472	0.887272	-0.416911
C164	C	-0.429472	1.387272	0.083089
H165	H	-0.835986	0.866994	-0.437126
H166	H	-0.335986	1.366994	0.062874
H167	H	-0.848417	0.886508	-0.362294
H168	H	-0.348417	1.386508	0.137706
H169	H	-0.848343	0.941862	-0.417723
H170	H	-0.348343	1.441862	0.082277
H171	H	-0.941092	0.841804	-0.406959
H172	H	-0.441092	1.341804	0.093041
H173	H	-0.941023	0.897153	-0.462403
H174	H	-0.441023	1.397153	0.037597
H175	H	-0.404580	0.236398	-0.247424
H176	H	0.095420	0.736398	0.252576
C177	C	-0.168051	1.054580	-1.061455
C178	C	0.331949	1.554580	-0.561455
C179	C	-0.235078	1.069153	-1.078531
C180	C	0.264922	1.569153	-0.578531
H181	H	-0.138674	1.083980	-1.085446
H182	H	0.361326	1.583980	-0.585446
H183	H	-0.158139	1.009117	-1.073038
H184	H	0.341861	1.509117	-0.573038
H185	H	-0.161880	1.060773	-1.014299
H186	H	0.338120	1.560773	-0.514299
H187	H	-0.241250	1.062956	-1.125686
H188	H	0.258750	1.562956	-0.625686
H189	H	-0.244993	1.114627	-1.066951
H190	H	0.255007	1.614627	-0.566951
C191	C	-1.118558	0.843896	-0.378729
C192	C	-0.618558	1.343896	0.121271
C193	C	-1.077859	0.887327	-0.416936
C194	C	-0.577859	1.387327	0.083064
H195	H	-1.142544	0.814514	-0.408085
H196	H	-0.642544	1.314514	0.091915
H197	H	-1.149716	0.869700	-0.352980
H198	H	-0.649716	1.369700	0.147020
H199	H	-1.091014	0.818011	-0.349219
H200	H	-0.591014	1.318011	0.150781
H201	H	-1.105404	0.913216	-0.446443
H202	H	-0.605404	1.413216	0.053557
H203	H	-1.046697	0.861521	-0.442697
H204	H	-0.546697	1.361521	0.057303
C205	C	-0.273386	1.112524	-0.533739
C206	C	0.226614	1.612524	-0.033739
C207	C	-0.235199	1.069082	-0.574386
C208	C	0.264801	1.569082	-0.074386
H209	H	-0.244017	1.141911	-0.509774
H210	H	0.255983	1.641911	-0.009774
H211	H	-0.299164	1.086727	-0.502565
H212	H	0.200836	1.586727	-0.002565
H213	H	-0.302870	1.138402	-0.561318
H214	H	0.197130	1.638402	-0.061318
H215	H	-0.205719	1.043200	-0.546807
H216	H	0.294281	1.543200	-0.046807
H217	H	-0.209410	1.094882	-0.605565
H218	H	0.290590	1.594882	-0.105565
C219	C	-0.244260	1.059957	-0.860634
C220	C	0.255740	1.559957	-0.360634
C221	C	-0.235108	1.069117	-0.930146
C222	C	0.264892	1.569117	-0.430146
H223	H	-0.214885	1.089337	-0.836663
H224	H	0.285115	1.589337	-0.336663
H225	H	-0.234361	1.014485	-0.849055
H226	H	0.265639	1.514485	-0.349055
H227	H	-0.289739	1.069850	-0.849039
H228	H	0.210261	1.569850	-0.349039
H229	H	-0.189630	1.059220	-0.941741
H230	H	0.310370	1.559220	-0.441741
H231	H	-0.245002	1.114600	-0.941729
H232	H	0.254998	1.614600	-0.441729
C233	C	-0.460312	0.925419	-0.889427
C234	C	0.039688	1.425419	-0.389427
C235	C	-0.416829	0.887283	-0.930081
C236	C	0.083171	1.387283	-0.430081
H237	H	-0.489687	0.896017	-0.865437
H238	H	0.010313	1.396017	-0.365437
H239	H	-0.486196	0.954897	-0.916997
H240	H	0.013804	1.454897	-0.416997
H241	H	-0.434540	0.951200	-0.858266
H242	H	0.065460	1.451200	-0.358266
H243	H	-0.442600	0.861506	-0.961245
H244	H	0.057400	1.361506	-0.461245
H245	H	-0.390942	0.857793	-0.902508
H246	H	0.109058	1.357793	-0.402508
H247	H	-0.583763	1.056644	-0.247589
H248	H	-0.083763	1.556644	0.252411
C249	C	-0.250082	0.357770	-0.484133
C250	C	0.249918	0.857770	0.015867
C251	C	-0.235387	0.374835	-0.417127
C252	C	0.264613	0.874835	0.082873
H253	H	-0.220738	0.381772	-0.513557
H254	H	0.279262	0.881772	-0.013557
H255	H	-0.295564	0.369349	-0.493952
H256	H	0.204436	0.869349	0.006048
H257	H	-0.243899	0.310617	-0.490334
H258	H	0.256101	0.810617	0.009666
H259	H	-0.241575	0.421988	-0.410924
H260	H	0.258425	0.921988	0.089076
H261	H	-0.189894	0.363261	-0.407305
H262	H	0.310106	0.863261	0.092695
C263	C	-0.619656	0.849148	-0.454815
C264	C	-0.119656	1.349148	0.045185
C265	C	-0.573703	0.887148	-0.416848
C266	C	-0.073703	1.387148	0.083152
H267	H	-0.595673	0.819748	-0.484160
H268	H	-0.095673	1.319748	0.015840
H269	H	-0.647187	0.878633	-0.480731
H270	H	-0.147187	1.378633	0.019269
H271	H	-0.647265	0.823282	-0.425300
H272	H	-0.147265	1.323282	0.074700
H273	H	-0.546097	0.913018	-0.446363
H274	H	-0.046097	1.413018	0.053637
H275	H	-0.546160	0.857659	-0.390930
H276	H	-0.046160	1.357659	0.109070
C277	C	-0.197426	0.628190	-0.455179
C278	C	0.302574	1.128190	0.044821
C279	C	-0.235368	0.582211	-0.417115
C280	C	0.264632	1.082211	0.082885
H281	H	-0.168095	0.604226	-0.484613
H282	H	0.331905	1.104226	0.015387
H283	H	-0.171495	0.655757	-0.425736
H284	H	0.328505	1.155757	0.074264
H285	H	-0.226957	0.655761	-0.481010
H286	H	0.273043	1.155761	0.018990
H287	H	-0.205837	0.554644	-0.391279
H288	H	0.294163	1.054644	0.108721
H289	H	-0.261301	0.554633	-0.446562
H290	H	0.238699	1.054633	0.053438
H291	H	-0.404565	0.899576	-0.584385
H292	H	0.095435	1.399576	-0.084385
H293	H	-1.067768	1.056820	-0.247678
H294	H	-0.567768	1.556820	0.252322
C295	C	-0.483830	0.901870	-1.061352
C296	C	0.016170	1.401870	-0.561352
C297	C	-0.416792	0.887308	-1.078458
C298	C	0.083208	1.387308	-0.578458
H299	H	-0.513192	0.872477	-1.085321
H300	H	-0.013192	1.372477	-0.585321
H301	H	-0.493738	0.947337	-1.072942
H302	H	0.006262	1.447337	-0.572942
H303	H	-0.490024	0.895661	-1.014191
H304	H	0.009976	1.395661	-0.514191
H305	H	-0.410596	0.893522	-1.125618
H306	H	0.089404	1.393522	-0.625618
H307	H	-0.406881	0.841830	-1.066872
H308	H	0.093119	1.341830	-0.566872
C309	C	-0.273585	0.771242	-0.460500
C310	C	0.226415	1.271242	0.039500
C311	C	-0.235355	0.730596	-0.417107
C312	C	0.264645	1.230596	0.082893
H313	H	-0.244244	0.795241	-0.489930
H314	H	0.255756	1.295241	0.010070
H315	H	-0.299320	0.802387	-0.434672
H316	H	0.200680	1.302387	0.065328
H317	H	-0.303109	0.743659	-0.486336
H318	H	0.196891	1.243659	0.013664
H319	H	-0.205834	0.758180	-0.391267
H320	H	0.294166	1.258180	0.108733
H321	H	-0.209609	0.699447	-0.442938
H322	H	0.290391	1.199447	0.057062
H323	H	-0.404564	0.364632	-0.247409
H324	H	0.095436	0.864632	0.252591
H325	H	-0.247500	1.056761	-0.712691
H326	H	0.252500	1.556761	-0.212691
C327	C	-0.460381	0.541443	-0.273144
C328	C	0.039619	1.041443	0.226856
C329	C	-0.416861	0.582081	-0.235042
C330	C	0.083139	1.082081	0.264958
H331	H	-0.489724	0.517443	-0.243717
H332	H	0.010276	1.017443	0.256283
H333	H	-0.434639	0.510299	-0.298967
H334	H	0.065361	1.010299	0.201033
H335	H	-0.486304	0.569032	-0.302582
H336	H	0.013696	1.069032	0.197418
H337	H	-0.390935	0.554492	-0.205608
H338	H	0.109065	1.054492	0.294392
H339	H	-0.442606	0.613230	-0.209208
H340	H	0.057394	1.113230	0.290792
C341	C	-0.454800	0.684492	-0.196977
C342	C	0.045200	1.184492	0.303023
C343	C	-0.416849	0.730469	-0.235034
C344	C	0.083151	1.230469	0.264966
H345	H	-0.484138	0.708457	-0.167551
H346	H	0.015862	1.208457	0.332449
H347	H	-0.425280	0.656923	-0.171143
H348	H	0.074720	1.156923	0.328857
H349	H	-0.480729	0.656923	-0.226430
H350	H	0.019271	1.156923	0.273570
H351	H	-0.390915	0.758034	-0.205581
H352	H	0.109085	1.258034	0.294419
H353	H	-0.446372	0.758049	-0.260870
H354	H	0.053628	1.258049	0.239130
H355	H	-0.711997	1.056695	-0.247617
H356	H	-0.211997	1.556695	0.252383
H357	H	-0.712023	0.899543	-0.404547
H358	H	-0.212023	1.399543	0.095453
