data_functionalizedCrystal
_audit_creation_method	'MofGen! by Chris Wilmer'
_symmetry_space_group_name_H-M	'P1'
_symmetry_Int_Tables_number	1
_symmetry_cell_setting	triclinic
loop_
_symmetry_equiv_pos_as_xyz
  x,y,z
_cell_length_a	14.044220
_cell_length_b	14.044190
_cell_length_c	15.455313
_cell_angle_alpha	92.904485
_cell_angle_beta	87.080121
_cell_angle_gamma	93.190328
loop_
_atom_site_label
_atom_site_type_symbol
_atom_site_fract_x
_atom_site_fract_y
_atom_site_fract_z
O1	O	1.281001	0.226350	-0.072056
O2	O	1.531001	0.476350	0.177944
O3	O	1.781001	0.726350	0.427944
O4	O	2.031001	0.976350	0.677944
O5	O	1.004331	0.218043	-0.072077
O6	O	1.254331	0.468043	0.177923
O7	O	1.504331	0.718043	0.427923
O8	O	1.754331	0.968043	0.677923
O9	O	1.138509	0.083861	-0.072049
O10	O	1.388509	0.333861	0.177951
O11	O	1.638509	0.583861	0.427951
O12	O	1.888509	0.833861	0.677951
O13	O	1.146823	0.360532	-0.072083
O14	O	1.396823	0.610532	0.177917
O15	O	1.646823	0.860532	0.427917
O16	O	1.896823	1.110532	0.677917
O17	O	1.130833	0.091500	0.072211
O18	O	1.380833	0.341500	0.322211
O19	O	1.630833	0.591500	0.572211
O20	O	1.880833	0.841500	0.822211
O21	O	0.996655	0.225682	0.072184
O22	O	1.246655	0.475682	0.322184
O23	O	1.496655	0.725682	0.572184
O24	O	1.746655	0.975682	0.822184
O25	O	1.273325	0.233989	0.072205
O26	O	1.523325	0.483989	0.322205
O27	O	1.773325	0.733989	0.572205
O28	O	2.023325	0.983989	0.822205
Cu29	Cu	1.134289	0.230533	0.085366
Cu30	Cu	1.384289	0.480533	0.335366
Cu31	Cu	1.634289	0.730533	0.585366
Cu32	Cu	1.884289	0.980533	0.835366
Cu33	Cu	1.143367	0.221499	-0.085238
Cu34	Cu	1.393367	0.471499	0.164762
Cu35	Cu	1.643367	0.721499	0.414762
Cu36	Cu	1.893367	0.971499	0.664762
O37	O	1.139147	0.368171	0.072178
O38	O	1.389147	0.618171	0.322178
O39	O	1.639147	0.868171	0.572178
O40	O	1.889147	1.118171	0.822178
C41	C	0.964871	0.218227	0.000051
C42	C	1.214871	0.468227	0.250051
C43	C	1.464871	0.718227	0.500051
C44	C	1.714871	0.968227	0.750051
C45	C	0.858728	0.207382	0.000043
C46	C	1.108728	0.457382	0.250043
C47	C	1.358728	0.707382	0.500043
C48	C	1.608728	0.957382	0.750043
C49	C	1.131034	0.052059	0.000083
C50	C	1.381034	0.302059	0.250083
C51	C	1.631034	0.552059	0.500083
C52	C	1.881034	0.802059	0.750083
C53	C	1.120186	-0.054084	0.000090
C54	C	1.370186	0.195916	0.250090
C55	C	1.620186	0.445916	0.500090
C56	C	1.870186	0.695916	0.750090
C57	C	0.664389	0.187557	0.000063
C58	C	0.914389	0.437557	0.250063
C59	C	1.164389	0.687557	0.500063
C60	C	1.414389	0.937557	0.750063
C61	C	0.613261	0.264471	0.000057
C62	C	0.863261	0.514471	0.250057
C63	C	1.113261	0.764471	0.500057
C64	C	1.363261	1.014471	0.750057
C65	C	0.505124	0.253440	0.000068
C66	C	0.755124	0.503440	0.250068
C67	C	1.005124	0.753440	0.500068
C68	C	1.255124	1.003440	0.750068
C69	C	0.772536	0.198586	0.000052
C70	C	1.022536	0.448586	0.250052
C71	C	1.272536	0.698586	0.500052
C72	C	1.522536	0.948586	0.750052
C73	C	1.177288	-0.299544	0.000060
C74	C	1.427288	-0.049544	0.250060
C75	C	1.677288	0.200456	0.500060
C76	C	1.927288	0.450456	0.750060
C77	C	1.100372	-0.248418	0.000060
C78	C	1.350372	0.001582	0.250060
C79	C	1.600372	0.251582	0.500060
C80	C	1.850372	0.501582	0.750060
C81	C	1.111400	-0.140281	0.000077
C82	C	1.361400	0.109719	0.250077
C83	C	1.611400	0.359719	0.500077
C84	C	1.861400	0.609719	0.750077
C85	C	1.166263	-0.407692	0.000044
C86	C	1.416263	-0.157692	0.250044
C87	C	1.666263	0.092308	0.500044
C88	C	1.916263	0.342308	0.750044
C89	C	1.312785	0.233805	0.000075
C90	C	1.562785	0.483805	0.250075
C91	C	1.812785	0.733805	0.500075
C92	C	2.062785	0.983805	0.750075
C93	C	1.418928	0.244650	0.000077
C94	C	1.668928	0.494650	0.250077
C95	C	1.918928	0.744650	0.500077
C96	C	2.168928	0.994650	0.750077
C97	C	1.146622	0.399973	0.000043
C98	C	1.396622	0.649973	0.250043
C99	C	1.646622	0.899973	0.500043
C100	C	1.896622	1.149973	0.750043
C101	C	1.157470	0.506116	0.000031
C102	C	1.407470	0.756116	0.250031
C103	C	1.657470	1.006116	0.500031
C104	C	1.907470	1.256116	0.750031
N105	N	1.127912	0.236887	0.205361
N106	N	1.377912	0.486887	0.455361
N107	N	1.627912	0.736887	0.705361
N108	N	1.877912	0.986887	0.955361
N109	N	1.149751	0.215139	-0.205233
N110	N	1.399751	0.465139	0.044767
N111	N	1.649751	0.715139	0.294767
N112	N	1.899751	0.965139	0.544767
C113	C	1.184939	0.179906	0.250766
C114	C	1.434939	0.429906	0.500766
C115	C	1.684939	0.679906	0.750766
C116	C	1.934939	0.929906	1.000766
C117	C	1.180125	0.184721	0.341573
C118	C	1.430125	0.434721	0.591573
C119	C	1.680125	0.684721	0.841573
C120	C	1.930125	0.934721	1.091573
C121	C	1.118288	0.246521	0.386973
C122	C	1.368288	0.496521	0.636973
C123	C	1.618288	0.746521	0.886973
C124	C	1.868288	0.996521	1.136973
C125	C	1.061255	0.303504	0.341561
C126	C	1.311255	0.553504	0.591561
C127	C	1.561255	0.803504	0.841561
C128	C	1.811255	1.053504	1.091561
C129	C	1.066064	0.298684	0.250755
C130	C	1.316064	0.548684	0.500755
C131	C	1.566064	0.798684	0.750755
C132	C	1.816064	1.048684	1.000755
C133	C	1.097527	0.267301	0.658550
C134	C	1.347527	0.517301	0.908550
C135	C	1.597527	0.767301	1.158550
C136	C	1.847527	1.017301	1.408550
C137	C	1.092724	0.272119	0.749362
C138	C	1.342724	0.522119	0.999362
C139	C	1.592724	0.772119	1.249362
C140	C	1.842724	1.022119	1.499362
C141	C	1.211594	0.153334	0.749368
C142	C	1.461594	0.403334	0.999368
C143	C	1.711594	0.653334	1.249368
C144	C	1.961594	0.903334	1.499368
C145	C	1.216402	0.148523	0.658561
C146	C	1.466402	0.398523	0.908561
C147	C	1.716402	0.648523	1.158561
C148	C	1.966402	0.898523	1.408561
C149	C	1.159365	0.205502	0.613157
C150	C	1.409365	0.455502	0.863157
C151	C	1.659365	0.705502	1.113157
C152	C	1.909365	0.955502	1.363157
N153	N	1.113369	0.251446	0.479792
N154	N	1.363369	0.501446	0.729792
N155	N	1.613369	0.751446	0.979792
N156	N	1.863369	1.001446	1.229792
N157	N	1.164280	0.200572	0.520339
N158	N	1.414280	0.450572	0.770339
N159	N	1.664280	0.700572	1.020339
N160	N	1.914280	0.950572	1.270339
H161	H	0.650703	0.338604	0.000044
H162	H	0.900703	0.588604	0.250044
H163	H	1.150703	0.838604	0.500044
H164	H	1.400703	1.088604	0.750044
H165	H	1.251414	-0.262102	0.000075
H166	H	1.501414	-0.012102	0.250075
H167	H	1.751414	0.237898	0.500075
H168	H	2.001414	0.487898	0.750075
Br169	Br	0.601987	0.064003	0.000082
Br170	Br	0.851987	0.314003	0.250082
Br171	Br	1.101987	0.564003	0.500082
Br172	Br	1.351987	0.814003	0.750082
H173	H	1.026240	-0.285862	0.000050
H174	H	1.276240	-0.035862	0.250050
H175	H	1.526240	0.214138	0.500050
H176	H	1.776240	0.464138	0.750050
Br177	Br	1.268872	0.096037	0.189162
Br178	Br	1.518872	0.346037	0.439162
Br179	Br	1.768872	0.596037	0.689162
Br180	Br	2.018872	0.846037	0.939162
H181	H	1.226560	0.138322	0.378542
H182	H	1.476560	0.388322	0.628542
H183	H	1.726560	0.638322	0.878542
H184	H	1.976560	0.888322	1.128542
H185	H	1.010901	0.353820	0.378530
H186	H	1.260901	0.603820	0.628530
H187	H	1.510901	0.853820	0.878530
H188	H	1.760901	1.103820	1.128530
H189	H	1.051087	0.313698	0.621589
H190	H	1.301087	0.563698	0.871589
H191	H	1.551087	0.813698	1.121589
H192	H	1.801087	1.063698	1.371589
H193	H	1.266754	0.098201	0.621599
H194	H	1.516754	0.348201	0.871599
H195	H	1.766754	0.598201	1.121599
H196	H	2.016754	0.848201	1.371599
H197	H	1.258029	0.106943	0.786344
H198	H	1.508029	0.356943	1.036344
H199	H	1.758029	0.606943	1.286344
H200	H	2.008029	0.856943	1.536344
H201	H	1.042367	0.322448	0.786322
H202	H	1.292367	0.572448	1.036322
H203	H	1.542367	0.822448	1.286322
H204	H	1.792367	1.072448	1.536322
Br205	Br	0.988660	0.376011	0.189133
Br206	Br	1.238660	0.626011	0.439133
Br207	Br	1.488660	0.876011	0.689133
Br208	Br	1.738660	1.126011	0.939133
