data_functionalizedCrystal
_audit_creation_method	'MofGen! by Chris Wilmer'
_symmetry_space_group_name_H-M	'P1'
_symmetry_Int_Tables_number	1
_symmetry_cell_setting	triclinic
loop_
_symmetry_equiv_pos_as_xyz
  x,y,z
_cell_length_a	12.837942
_cell_length_b	12.811438
_cell_length_c	11.295483
_cell_angle_alpha	91.289945
_cell_angle_beta	94.530417
_cell_angle_gamma	89.413151
loop_
_atom_site_label
_atom_site_type_symbol
_atom_site_fract_x
_atom_site_fract_y
_atom_site_fract_z
O1	O	0.143392	1.403249	0.052536
O2	O	0.156287	1.101287	0.019920
O3	O	-0.001143	1.245572	0.035512
O4	O	0.300822	1.258964	0.036944
O5	O	0.012663	1.232897	0.232193
O6	O	0.170093	1.088612	0.216601
O7	O	0.157198	1.390574	0.249217
Cu8	Cu	0.164906	1.238436	0.250868
Cu9	Cu	0.148579	1.253425	0.018269
O10	O	0.314628	1.246289	0.233625
C11	C	0.162043	1.056031	0.114057
C12	C	0.158613	0.940066	0.101531
C13	C	0.146254	0.783523	-0.023321
C14	C	0.149475	0.892484	-0.011562
C15	C	0.164527	0.878680	0.202872
C16	C	0.161306	0.769719	0.191113
C17	C	0.152171	0.722145	0.078013
C18	C	0.148957	0.613182	0.066255
C19	C	0.164001	0.599380	0.280688
C20	C	0.167222	0.708341	0.292447
C21	C	-0.032914	1.234711	0.133363
C22	C	-0.148153	1.221219	0.131904
C23	C	-0.387176	1.383421	0.149399
C24	C	-0.495453	1.370748	0.148028
C25	C	-0.472987	1.183204	0.127783
C26	C	-0.364710	1.195876	0.129154
C27	C	-0.321809	1.295987	0.139964
C28	C	-0.213529	1.308658	0.141343
C29	C	-0.191065	1.121115	0.121090
C30	C	-0.299343	1.108443	0.119719
C31	C	0.346399	1.257151	0.135771
C32	C	0.461637	1.270643	0.137223
C33	C	0.151442	1.435830	0.155078
C34	C	0.154871	1.551796	0.167596
N35	N	0.176389	1.227900	0.414465
N36	N	0.137088	1.263968	-0.145328
C37	C	0.054369	1.339802	0.675848
C38	C	0.063054	1.331849	0.799652
C39	C	0.202439	1.204035	0.785880
C40	C	0.193754	1.211988	0.662075
C41	C	0.119717	1.279875	0.607064
C42	C	0.111038	1.287834	0.483258
C43	C	0.250417	1.160015	0.469488
C44	C	0.259102	1.152062	0.593292
H45	H	0.138827	0.744788	-0.115412
O46	O	-0.559047	1.455591	0.157345
C47	C	-0.615188	1.447328	0.259037
H48	H	-0.619275	1.361828	0.284006
H49	H	-0.697690	1.479579	0.239447
H50	H	-0.574000	1.493894	0.335889
O51	O	-0.340989	1.011193	0.109007
C52	C	-0.314817	0.963789	0.001338
H53	H	-0.296613	1.026721	-0.063561
H54	H	-0.383327	0.915124	-0.038348
H55	H	-0.243349	0.911192	0.018857
H56	H	-0.005907	1.395086	0.631058
O57	O	0.313943	1.101955	0.402560
C58	C	0.373664	1.168767	0.337684
H59	H	0.332036	1.247453	0.327485
H60	H	0.383447	1.132468	0.246112
H61	H	0.453798	1.180407	0.386994
H62	H	0.319378	1.096786	0.638096
O63	O	-0.345381	1.480619	0.159741
C64	C	-0.290588	1.500133	0.059263
H65	H	-0.267002	1.422804	0.016712
H66	H	-0.217591	1.547249	0.087424
H67	H	-0.342861	1.546125	-0.007593
O68	O	0.143881	0.952213	-0.109910
C69	C	0.234993	1.012739	-0.109854
H70	H	0.271910	1.022105	-0.015110
H71	H	0.213904	1.092932	-0.146891
H72	H	0.292840	0.972125	-0.167516
H73	H	0.141524	0.574449	-0.025838
H74	H	0.050757	1.343113	0.438470
O75	O	0.169617	0.539875	0.379223
C76	C	0.085280	0.565178	0.447621
H77	H	0.055573	0.647214	0.425771
H78	H	0.112447	0.561949	0.546036
H79	H	0.019625	0.506831	0.426368
O80	O	0.173207	0.924865	0.312752
C81	C	0.087323	0.896912	0.375427
H82	H	0.019355	0.873003	0.309681
H83	H	0.062737	0.966414	0.431884
H84	H	0.110426	0.828718	0.435396
O85	O	-0.000476	1.390169	0.866296
C86	C	-0.067701	1.451767	0.791185
H87	H	-0.031325	1.462841	0.703516
H88	H	-0.079994	1.531176	0.835760
H89	H	-0.146143	1.411095	0.773541
H90	H	0.174656	0.747091	0.384530
O91	O	-0.171739	1.405859	0.151676
C92	C	-0.116945	1.425365	0.051196
H93	H	-0.093352	1.348033	0.008658
H94	H	-0.043952	1.472489	0.079351
H95	H	-0.169221	1.471344	-0.015669
O96	O	-0.514840	1.086034	0.117340
C97	C	-0.624428	1.093608	0.118117
H98	H	-0.646254	1.170069	0.163864
H99	H	-0.654410	1.025231	0.168231
H100	H	-0.661236	1.091647	0.022888
H101	H	-0.137830	1.049920	0.113416
H102	H	0.262710	1.148755	0.830685
