data_functionalizedCrystal
_audit_creation_method	'MofGen! by Chris Wilmer'
_symmetry_space_group_name_H-M	'P1'
_symmetry_Int_Tables_number	1
_symmetry_cell_setting	triclinic
loop_
_symmetry_equiv_pos_as_xyz
  x,y,z
_cell_length_a	14.853567
_cell_length_b	10.540539
_cell_length_c	13.930277
_cell_angle_alpha	89.997612
_cell_angle_beta	89.995755
_cell_angle_gamma	84.080211
loop_
_atom_site_label
_atom_site_type_symbol
_atom_site_fract_x
_atom_site_fract_y
_atom_site_fract_z
O1	O	1.197288	0.165727	-0.079760
O2	O	0.934938	0.185470	-0.079776
O3	O	1.072098	-0.009174	-0.079766
O4	O	1.060128	0.360371	-0.079770
O5	O	1.072079	-0.009178	0.079895
O6	O	0.934919	0.185465	0.079886
O7	O	1.197269	0.165723	0.079902
Zn8	Zn	1.066091	0.175594	0.105244
Zn9	Zn	1.066116	0.175599	-0.105118
O10	O	1.060108	0.360367	0.079892
C11	C	0.901335	0.184573	0.000053
C12	C	0.801236	0.181892	0.000047
C13	C	0.387998	0.054938	0.000069
C14	C	0.368000	0.286179	0.000066
C15	C	0.462048	0.288700	0.000063
C16	C	0.519075	0.174338	0.000062
C17	C	0.482055	0.057455	0.000063
C18	C	0.499075	0.405580	0.000052
C19	C	0.593129	0.408105	0.000048
C20	C	0.650158	0.293742	0.000053
C21	C	0.613132	0.176855	0.000056
C22	C	0.670159	0.062493	0.000054
C23	C	0.633135	-0.054396	0.000064
C24	C	0.539084	-0.056908	0.000069
C25	C	0.744209	0.296254	0.000048
C26	C	0.764216	0.065010	0.000048
C27	C	1.071191	-0.056469	0.000063
C28	C	1.068505	-0.197388	0.000057
C29	C	0.965588	-0.379682	-0.000307
C30	C	0.968311	-0.233094	0.000052
C31	C	1.116712	-0.259578	0.091235
C32	C	1.113293	-0.406085	0.091312
C33	C	1.115353	-0.406621	-0.090254
C34	C	1.116276	-0.259649	-0.091459
C35	C	1.230872	0.166620	0.000071
C36	C	1.330971	0.169300	0.000071
C37	C	1.061016	0.407662	0.000061
C38	C	1.063702	0.548580	0.000060
N39	N	1.066080	0.175589	0.248810
N40	N	1.066134	0.175594	-0.248684
C41	C	1.005379	0.261753	0.701075
C42	C	1.126878	0.089435	0.701053
C43	C	1.126867	0.089431	0.600557
C44	C	1.066112	0.175591	0.550315
C45	C	1.005368	0.261755	0.600570
C46	C	1.187617	0.003277	0.550295
C47	C	1.187609	0.003271	0.449793
C48	C	1.126849	0.089426	0.399550
C49	C	1.066102	0.175592	0.449810
C50	C	1.005347	0.261752	0.399569
C51	C	0.944594	0.347913	0.449828
C52	C	0.944608	0.347909	0.550327
C53	C	1.126835	0.089429	0.299051
C54	C	1.005336	0.261753	0.299064
H55	H	0.930378	-0.190072	-0.065308
H56	H	0.955858	0.331910	0.258163
N57	N	0.882538	0.435940	0.398518
N58	N	0.884523	0.553275	0.409739
H59	H	0.840698	0.615446	0.373499
N60	N	1.188883	0.001385	0.247752
N61	N	1.245130	0.041710	0.191656
H62	H	1.288954	-0.020499	0.155444
H63	H	1.082933	-0.437815	-0.159360
H64	H	0.895146	0.418060	0.591253
N65	N	0.630941	0.527499	0.000069
N66	N	0.681181	0.554696	0.067377
H67	H	0.707887	0.639019	0.067398
H68	H	0.810642	-0.028119	0.000051
H69	H	1.083209	-0.216612	0.159082
H70	H	1.081003	-0.218401	-0.158910
H71	H	0.321563	0.379287	0.000060
H72	H	1.189326	-0.236231	-0.096960
N73	N	0.915955	-0.415008	-0.082341
N74	N	0.952308	-0.493473	-0.141492
H75	H	0.917256	-0.518427	-0.199434
N76	N	1.249698	-0.084703	0.398475
N77	N	1.303959	-0.161593	0.443346
H78	H	1.347820	-0.223713	0.407103
N79	N	1.206148	-0.466831	-0.091017
N80	N	1.258216	-0.449862	-0.022777
H81	H	1.322340	-0.492383	-0.023309
H82	H	0.955913	0.331901	0.741998
H83	H	1.185351	-0.454846	0.095452
N84	N	0.916133	-0.417044	0.081253
N85	N	0.952833	-0.496275	0.139648
H86	H	0.917909	-0.522666	0.197252
N87	N	0.440807	0.522372	0.000049
N88	N	0.386086	0.546762	0.067348
H89	H	0.344925	0.629248	0.067343
H90	H	0.774350	0.391423	0.000042
H91	H	1.176347	0.019292	0.741962
H92	H	1.237086	-0.066865	0.591205
H93	H	0.508930	-0.152072	0.000099
N94	N	0.691404	-0.171199	0.000050
N95	N	0.775375	-0.168922	0.000034
H96	H	0.816532	-0.251411	0.000023
H97	H	0.357849	-0.040229	0.000081
H98	H	0.930096	-0.190919	0.065517
H99	H	1.190292	-0.238034	0.094629
N100	N	1.068577	-0.440961	0.176811
N101	N	1.040106	-0.357138	0.236008
H102	H	1.008524	-0.381761	0.296394
