data_functionalizedCrystal
_audit_creation_method	'MofGen! by Chris Wilmer'
_symmetry_space_group_name_H-M	'P1'
_symmetry_Int_Tables_number	1
_symmetry_cell_setting	triclinic
loop_
_symmetry_equiv_pos_as_xyz
  x,y,z
_cell_length_a	14.395555
_cell_length_b	20.875641
_cell_length_c	14.395555
_cell_angle_alpha	57.592255
_cell_angle_beta	90.002623
_cell_angle_gamma	62.439513
loop_
_atom_site_label
_atom_site_type_symbol
_atom_site_fract_x
_atom_site_fract_y
_atom_site_fract_z
Zr1	Zr	0.932233	0.702075	-0.159155
O2	O	0.791017	0.835894	-0.314596
O3	O	0.970591	0.568257	-0.106574
O4	O	0.977705	0.702069	-0.307476
O5	O	0.783902	0.702086	0.039173
O6	O	1.130579	0.702065	-0.307467
O7	O	0.783903	0.702082	-0.113694
O8	O	1.117853	0.462699	0.051910
O9	O	0.796627	0.941452	-0.320204
O10	O	1.106997	0.623295	-0.090099
O11	O	0.992909	0.623302	0.023978
O12	O	1.001285	0.780849	-0.212558
O13	O	0.887196	0.780856	-0.098482
Zr14	Zr	1.176048	0.702075	0.084664
Zr15	Zr	1.176049	0.702068	-0.159141
Zr16	Zr	0.932232	0.702083	0.084650
Zr17	Zr	0.941182	0.870429	-0.168099
Zr18	Zr	1.167099	0.533722	0.093608
O19	O	1.137690	0.835894	0.032083
O20	O	1.137692	0.835883	-0.314577
O21	O	0.791015	0.835905	0.032064
O22	O	1.317264	0.568257	0.240105
O23	O	1.317266	0.568246	-0.106555
O24	O	0.970589	0.568268	0.240086
O25	O	1.324379	0.702065	-0.113664
O26	O	1.130576	0.702082	0.232985
O27	O	0.977702	0.702086	0.232976
O28	O	1.324378	0.702069	0.039203
O29	O	0.990429	0.941446	-0.320193
O30	O	1.117852	0.462705	0.245702
O31	O	1.311653	0.462699	0.245713
O32	O	1.311654	0.462693	0.051920
O33	O	0.796626	0.941458	-0.126411
O34	O	0.990428	0.941452	-0.126401
O35	O	1.106996	0.623302	0.138067
O36	O	1.221085	0.623295	0.023991
O37	O	1.115372	0.780849	-0.098469
O38	O	1.001283	0.780856	0.015608
C39	C	1.042947	0.491491	-0.026058
C40	C	1.039148	0.420021	-0.022261
C41	C	1.096913	0.386440	-0.080024
C42	C	1.093347	0.319282	-0.076445
C43	C	1.032008	0.285709	-0.015109
C44	C	0.974241	0.319293	0.042661
C45	C	0.977814	0.386446	0.039088
C46	C	1.014939	0.084866	0.001967
C47	C	1.011367	0.017711	0.005533
C48	C	1.130476	0.017703	-0.113572
C49	C	1.134038	0.084861	-0.117145
C50	C	1.076276	0.118435	-0.059370
N51	N	1.028358	0.217064	-0.011453
N52	N	1.079933	0.187075	-0.063020
C53	C	0.749164	0.702085	-0.037262
C54	C	0.645657	0.702088	-0.037268
C55	C	0.527429	0.787994	-0.104028
C56	C	0.494311	0.745047	-0.146821
C57	C	0.494352	0.745031	0.005517
C58	C	0.613903	0.659141	-0.080124
C59	C	0.613941	0.659138	0.072274
C60	C	0.580893	0.616128	0.029511
C61	C	1.359117	0.702066	-0.037229
C62	C	1.462624	0.702063	-0.037223
C63	C	1.054142	0.702066	-0.342209
C64	C	1.054143	0.702063	-0.445710
C65	C	1.065334	0.912660	-0.048433
C66	C	1.069133	0.984130	-0.052230
C67	C	1.111788	0.616157	-0.439529
C68	C	1.006794	0.659104	-0.534838
C69	C	1.159110	0.659120	-0.534830
C70	C	0.949086	0.745010	-0.539656
C71	C	1.101479	0.745013	-0.539633
C72	C	0.996425	0.788022	-0.634963
C73	C	1.054139	0.702085	0.267718
C74	C	1.054138	0.702088	0.371219
C75	C	1.347924	0.491482	-0.026041
C76	C	1.447631	0.420008	-0.022238
C77	C	1.042945	0.491501	0.278905
C78	C	1.039146	0.420034	0.386204
C79	C	1.347922	0.491491	0.278922
C80	C	1.447629	0.420021	0.386226
C81	C	0.760359	0.912660	-0.353413
C82	C	0.660652	0.984130	-0.460718
C83	C	0.760357	0.912669	-0.048450
C84	C	0.660650	0.984143	-0.052253
C85	C	1.065335	0.912650	-0.353396
C86	C	1.069135	0.984117	-0.460695
C87	C	1.434903	0.386443	-0.080016
C88	C	1.528579	0.319296	-0.076466
C89	C	1.634984	0.285709	-0.015131
C90	C	1.647711	0.319281	0.042648
C91	C	1.554035	0.386432	0.039091
C92	C	1.096914	0.386472	0.496156
C93	C	1.093340	0.319330	0.596984
C94	C	1.032004	0.285747	0.587857
C95	C	0.974229	0.319315	0.477893
C96	C	0.977797	0.386460	0.377067
C97	C	1.554016	0.386454	0.377071
C98	C	1.647711	0.319309	0.477885
C99	C	1.635016	0.285728	0.587854
C100	C	1.528618	0.319302	0.597007
C101	C	1.434926	0.386450	0.496194
C102	C	0.554266	1.017705	-0.451562
C103	C	0.460572	1.084871	-0.552378
C104	C	0.473266	1.118455	-0.662347
C105	C	0.579664	1.084877	-0.671499
C106	C	0.673356	1.017718	-0.570685
C107	C	0.673379	1.017715	0.005514
C108	C	0.579703	1.084881	0.001937
C109	C	0.473298	1.118470	-0.059402
C110	C	0.460571	1.084895	-0.117176
C111	C	0.554247	1.017735	-0.113605
C112	C	1.130482	1.017679	-0.451530
C113	C	1.134073	1.084821	-0.552339
C114	C	1.076311	1.118405	-0.662312
C115	C	1.014963	1.084836	-0.671474
C116	C	1.011378	1.017691	-0.570666
H117	H	1.140385	0.291940	-0.123479
C118	C	1.155602	0.794014	-0.540900
H119	H	1.103246	0.844779	-0.544049
H120	H	1.218061	0.753450	-0.472129
H121	H	1.178882	0.814053	-0.607317
H122	H	0.589987	1.112231	-0.761048
C123	C	0.951420	1.121792	-0.792447
H124	H	0.962337	1.166595	-0.851164
H125	H	0.978250	1.073595	-0.798440
H126	H	0.874456	1.148007	-0.802379
H127	H	0.665333	0.622858	-0.116396
C128	C	0.906767	0.282366	0.110126
H129	H	0.912901	0.237570	0.103972
H130	H	0.934781	0.256171	0.189866
H131	H	0.830976	0.330585	0.078141
H132	H	1.734336	0.291981	0.470412
C133	C	0.540236	0.980800	-0.177137
H134	H	0.611259	0.935993	-0.166237
H135	H	0.498426	0.954615	-0.146331
H136	H	0.502389	1.029012	-0.258052
H137	H	0.373947	1.112198	-0.544902
H138	H	0.760010	0.990372	0.055471
H139	H	0.602686	0.543428	0.085977
C140	C	0.593716	1.121804	0.065490
H141	H	0.522694	1.166623	0.054570
H142	H	0.631559	1.073595	0.146399
H143	H	0.635531	1.147990	0.034685
H144	H	1.177519	0.990346	-0.361995
H145	H	0.397031	1.173156	-0.062301
H146	H	0.924290	0.291962	0.470478
H147	H	0.373925	1.112253	-0.167117
C148	C	1.279037	0.610059	-0.533431
H149	H	1.319888	0.549027	-0.464801
H150	H	1.278169	0.610893	-0.600062
H151	H	1.313049	0.639980	-0.534539
C152	C	1.568044	0.423348	0.102650
H153	H	1.497022	0.468158	0.091746
H154	H	1.605901	0.375134	0.183555
H155	H	1.609847	0.449546	0.071837
H156	H	1.184029	1.112146	-0.544857
C157	C	1.317870	0.423381	-0.147496
H158	H	1.323722	0.393774	-0.181404
H159	H	1.276863	0.412377	-0.095521
H160	H	1.280832	0.486785	-0.207222
H161	H	0.665526	0.622864	0.164872
H162	H	0.396967	1.173141	-0.744426
C163	C	1.201512	0.121786	-0.184613
H164	H	1.235411	0.092163	-0.218497
H165	H	1.153478	0.185185	-0.244337
H166	H	1.257290	0.110775	-0.132621
C167	C	0.914256	0.423365	0.256127
H168	H	0.877228	0.393738	0.265143
H169	H	0.861266	0.486766	0.212326
H170	H	0.965082	0.412341	0.216307
H171	H	0.442724	0.781352	-0.239441
H172	H	0.961418	0.990372	-0.578145
H173	H	1.079239	1.173079	-0.744387
C174	C	0.540280	0.980784	-0.330611
H175	H	0.463496	1.010416	-0.339614
H176	H	0.572362	0.917385	-0.286817
H177	H	0.576335	0.991797	-0.290791
H178	H	1.146857	0.413775	-0.129976
C179	C	1.514560	0.282370	-0.140012
H180	H	1.437771	0.311981	-0.177029
H181	H	1.550590	0.293377	-0.196963
H182	H	1.546654	0.218966	-0.085233
H183	H	1.177504	-0.009640	-0.160608
H184	H	1.029108	0.231074	0.669964
C185	C	0.943895	-0.019223	0.073005
H186	H	0.950031	-0.064017	0.066844
H187	H	0.971914	-0.045424	0.152746
H188	H	0.868104	0.028993	0.041027
H189	H	0.947603	0.860723	-0.718456
H190	H	1.564373	0.413786	0.287538
C191	C	1.738016	0.211837	-0.011215
H192	H	1.715186	0.196655	-0.054403
H193	H	1.783193	0.233834	-0.044264
H194	H	1.779222	0.159435	0.067446
C195	C	0.790374	0.980781	-0.580770
H196	H	0.784505	1.010399	-0.660704
H197	H	0.831397	0.991775	-0.545894
H198	H	0.827406	0.917380	-0.541952
C199	C	0.424687	0.794093	0.054386
H200	H	0.415800	0.753240	0.122018
H201	H	0.461447	0.815118	0.074148
H202	H	0.353819	0.844190	-0.002867
C203	C	0.951392	0.121798	0.065505
H204	H	0.914339	0.092192	0.102531
H205	H	1.002206	0.110793	0.122447
H206	H	0.898402	0.185202	0.010722
C207	C	0.829101	0.794021	-0.541166
H208	H	0.779024	0.814510	-0.608037
H209	H	0.820802	0.753317	-0.472806
H210	H	0.813449	0.844486	-0.543607
C211	C	0.914269	0.423391	0.102619
H212	H	0.925189	0.468188	0.091716
H213	H	0.837311	0.449592	0.071817
H214	H	0.941122	0.375181	0.183535
C215	C	1.738084	0.211860	0.698738
H216	H	1.803259	0.196676	0.677526
H217	H	1.739275	0.233862	0.741574
H218	H	1.735313	0.159458	0.745513
H219	H	0.505847	0.860634	-0.160566
H220	H	1.518299	0.291950	0.686557
H221	H	1.348304	0.413771	0.503665
H222	H	1.734358	0.291925	0.092585
H223	H	1.160448	0.543519	-0.355907
H224	H	0.966750	0.622799	-0.533843
C225	C	1.164382	0.423408	0.506213
H226	H	1.158249	0.468200	0.430424
H227	H	1.136357	0.449611	0.545221
H228	H	1.240173	0.375193	0.549192
C229	C	1.156907	0.282409	0.717929
H230	H	1.193961	0.312019	0.708916
H231	H	1.106101	0.293423	0.757763
H232	H	1.209897	0.219005	0.761714
