data_functionalizedCrystal
_audit_creation_method	'MofGen! by Chris Wilmer'
_symmetry_space_group_name_H-M	'P1'
_symmetry_Int_Tables_number	1
_symmetry_cell_setting	triclinic
loop_
_symmetry_equiv_pos_as_xyz
  x,y,z
_cell_length_a	25.639239
_cell_length_b	12.759401
_cell_length_c	25.639234
_cell_angle_alpha	89.990571
_cell_angle_beta	90.021106
_cell_angle_gamma	89.965344
loop_
_atom_site_label
_atom_site_type_symbol
_atom_site_fract_x
_atom_site_fract_y
_atom_site_fract_z
Zn1	Zn	-0.208258	-1.605969	0.295598
Zn2	Zn	-0.295681	-1.605823	0.208162
Zn3	Zn	-0.208255	-1.430304	0.208178
Zn4	Zn	-0.295659	-1.430186	0.295568
O5	O	-0.251963	-1.518071	0.251877
O6	O	-0.219866	-1.752971	0.284006
O7	O	-0.284092	-1.582528	0.134999
O8	O	-0.135090	-1.453717	0.219793
O9	O	-0.284095	-1.752863	0.219767
O10	O	-0.135093	-1.582777	0.284021
O11	O	-0.219860	-1.453575	0.135011
O12	O	-0.219839	-1.283267	0.219764
O13	O	-0.284057	-1.453516	0.368737
O14	O	-0.284054	-1.283181	0.283970
O15	O	-0.219844	-1.582663	0.368759
O16	O	-0.368843	-1.582414	0.219738
O17	O	-0.368827	-1.453374	0.283955
C18	C	-0.251944	-1.245103	0.251866
C19	C	-0.251948	-1.128327	0.251873
C20	C	-0.218566	-1.073514	0.285374
C21	C	-0.218573	-0.963790	0.285375
C22	C	-0.285349	-0.963701	0.218375
C23	C	-0.285339	-1.073423	0.218371
C24	C	-0.180014	-1.073564	0.324057
C25	C	-0.180022	-0.963840	0.324059
C26	C	-0.387806	-1.517894	0.251853
C27	C	-0.445920	-1.517915	0.251860
C28	C	-0.806279	-1.585437	0.218496
C29	C	-0.860883	-1.585477	0.218503
O30	O	-0.889116	-1.642704	0.190110
N31	N	-0.888202	-1.518255	0.251911
C32	C	-0.860914	-1.450996	0.285318
O33	O	-0.889165	-1.393822	0.313736
C34	C	-0.806311	-1.450961	0.285314
C35	C	-0.778995	-1.518180	0.251900
C36	C	-0.778963	-1.652651	0.185085
C37	C	-0.724362	-1.652609	0.185077
C38	C	-0.697078	-1.585352	0.218481
C39	C	-0.724394	-1.518138	0.251892
C40	C	-0.779024	-1.383707	0.318723
C41	C	-0.724417	-1.383679	0.318716
C42	C	-0.697101	-1.450898	0.285302
C43	C	-0.642509	-1.450838	0.285288
N44	N	-0.615190	-1.518061	0.251880
C45	C	-0.642474	-1.585317	0.218476
C46	C	-0.975585	-1.451075	0.285327
C47	C	-1.030187	-1.451103	0.285329
C48	C	-1.030152	-1.585587	0.218514
C49	C	-0.975549	-1.585552	0.218509
C50	C	-0.948266	-1.518297	0.251918
C51	C	-0.527809	-1.585223	0.218463
C52	C	-0.473204	-1.585171	0.218456
C53	C	-0.473244	-1.450692	0.285273
C54	C	-0.527844	-1.450739	0.285277
C55	C	-0.555126	-1.518013	0.251870
O56	O	-0.614241	-1.393644	0.313668
O57	O	-0.614217	-1.642491	0.190069
C58	C	-0.115590	-1.518277	0.251912
C59	C	-0.057476	-1.518364	0.251927
C60	C	-0.251948	-1.518093	0.388250
C61	C	-0.251942	-1.518103	0.446364
C62	C	-0.251977	-0.792104	0.251885
C63	C	-0.251965	-0.908881	0.251879
C64	C	-0.251940	-1.518109	0.116034
C65	C	-0.251799	-1.518303	0.057920
C66	C	-0.285312	-1.450926	0.697540
C67	C	-0.285324	-1.450908	0.642936
O68	O	-0.313748	-1.393691	0.614684
N69	N	-0.251900	-1.518143	0.615638
C70	C	-0.218459	-1.585393	0.642947
O71	O	-0.190030	-1.642579	0.614714
C72	C	-0.218445	-1.585405	0.697550
C73	C	-0.251874	-1.518173	0.724845
C74	C	-0.318738	-1.383699	0.724835
C75	C	-0.318727	-1.383719	0.779436
C76	C	-0.285289	-1.450966	0.806741
C77	C	-0.251863	-1.518193	0.779446
C78	C	-0.185001	-1.652650	0.724858
C79	C	-0.184989	-1.652656	0.779465
C80	C	-0.218419	-1.585424	0.806761
C81	C	-0.218414	-1.585461	0.861352
N82	N	-0.251838	-1.518226	0.888650
C83	C	-0.285275	-1.450978	0.861345
C84	C	-0.218490	-1.585361	0.528276
C85	C	-0.218506	-1.585355	0.473674
C86	C	-0.285371	-1.450867	0.473667
C87	C	-0.285357	-1.450880	0.528270
C88	C	-0.251914	-1.518126	0.555574
C89	C	-0.285250	-1.451026	0.976010
C90	C	-0.285237	-1.451055	1.030615
C91	C	-0.218371	-1.585538	1.030618
C92	C	-0.218385	-1.585514	0.976017
C93	C	-0.251826	-1.518249	0.948714
O94	O	-0.190003	-1.642645	0.889638
O95	O	-0.313694	-1.393792	0.889584
H96	H	-0.450965	-1.639909	0.191245
H97	H	-0.801256	-1.328965	0.345930
Br98	Br	-0.938483	-1.676780	0.173160
H99	H	-0.157753	-1.707412	0.801694
Br100	Br	-0.173024	-1.676773	0.938972
Br101	Br	-0.330612	-1.359812	1.067655
H102	H	-0.191148	-1.640293	1.052859
Br103	Br	-0.115878	-0.907153	0.300007
H104	H	-0.190928	-0.934070	0.364534
H105	H	-0.194574	-1.107602	0.362494
H106	H	-0.550016	-1.640006	0.191261
Br107	Br	-0.364099	-1.292471	0.816471
Br108	Br	-0.564918	-1.359487	0.330613
H109	H	-0.312517	-1.118048	0.191087
Br110	Br	-0.687298	-1.743855	0.139735
Br111	Br	-0.330634	-1.359738	0.938965
Br112	Br	-0.815981	-1.743943	0.139747
Br113	Br	-0.330726	-1.359632	0.565308
Br114	Br	-0.139629	-1.743899	0.687829
Br115	Br	-1.067191	-1.676861	0.173178
Br116	Br	-1.067253	-1.359858	0.330671
Br117	Br	-0.938563	-1.359784	0.330668
Br118	Br	-0.687393	-1.292403	0.364061
H119	H	-0.451020	-1.395929	0.312468
H120	H	-0.191257	-1.640129	0.550504
Br121	Br	-0.364123	-1.292419	0.687789
H122	H	-0.312535	-0.918986	0.191099
Br123	Br	-0.173145	-1.676620	0.436637
Br124	Br	-0.112493	-1.123251	0.306107
Br125	Br	-0.330752	-1.359605	0.436599
