data_functionalizedCrystal
_audit_creation_method	'MofGen! by Chris Wilmer'
_symmetry_space_group_name_H-M	'P1'
_symmetry_Int_Tables_number	1
_symmetry_cell_setting	triclinic
loop_
_symmetry_equiv_pos_as_xyz
  x,y,z
_cell_length_a	8.497374
_cell_length_b	8.497374
_cell_length_c	17.077404
_cell_angle_alpha	89.995637
_cell_angle_beta	90.003463
_cell_angle_gamma	90.000262
loop_
_atom_site_label
_atom_site_type_symbol
_atom_site_fract_x
_atom_site_fract_y
_atom_site_fract_z
Zn1	Zn	0.892119	-0.628320	1.200080
Zn2	Zn	0.628359	-0.892066	1.200087
Zn3	Zn	0.628338	-0.628295	1.068849
Zn4	Zn	0.892083	-0.892053	1.068843
O5	O	0.760225	-0.760183	1.134465
O6	O	0.857155	-0.663322	1.309928
O7	O	0.407594	-0.857071	1.182683
O8	O	0.663336	-0.407536	1.086257
O9	O	0.663372	-0.857095	1.309933
O10	O	0.857134	-0.407554	1.182672
O11	O	0.407579	-0.663279	1.086263
O12	O	0.663301	-0.663267	0.959001
O13	O	1.112850	-0.857074	1.086247
O14	O	0.857073	-0.857049	0.958997
O15	O	1.112877	-0.663310	1.182666
O16	O	0.663337	-1.112826	1.182678
O17	O	0.857093	-1.112817	1.086253
C18	C	0.760181	-0.760155	0.930517
C19	C	0.760200	-0.760180	0.843267
C20	C	1.171705	-0.760186	1.134459
C21	C	1.350349	-0.760202	1.134461
C22	C	0.860936	-0.861235	0.802295
C23	C	0.860961	-0.861238	0.720315
C24	C	0.760242	-0.760194	0.679308
C25	C	0.659502	-0.659128	0.720285
C26	C	0.659486	-0.659118	0.802264
C27	C	0.659540	-0.659159	0.549415
C28	C	0.659553	-0.659171	0.467431
C29	C	0.861015	-0.861280	0.467466
C30	C	0.860999	-0.861270	0.549445
C31	C	0.760256	-0.760205	0.590417
C32	C	0.760233	-0.348703	1.134458
C33	C	0.760237	-0.170059	1.134458
C34	C	0.760270	-0.760213	1.339209
C35	C	0.760289	-0.760226	1.426459
H36	H	0.942948	-0.943522	0.835677
H37	H	0.943047	-0.943565	0.434103
H38	H	0.943004	-0.943557	0.582831
F39	F	0.552351	-0.551635	0.423789
F40	F	0.552318	-0.551579	0.676640
F41	F	0.552320	-0.551593	0.593019
F42	F	0.552273	-0.551559	0.845869
H43	H	0.942988	-0.943529	0.686959
