data_functionalizedCrystal
_audit_creation_method	'MofGen! by Chris Wilmer'
_symmetry_space_group_name_H-M	'P1'
_symmetry_Int_Tables_number	1
_symmetry_cell_setting	triclinic
loop_
_symmetry_equiv_pos_as_xyz
  x,y,z
_cell_length_a	17.077404
_cell_length_b	16.959454
_cell_length_c	17.077395
_cell_angle_alpha	89.976524
_cell_angle_beta	89.984359
_cell_angle_gamma	90.020300
loop_
_atom_site_label
_atom_site_type_symbol
_atom_site_fract_x
_atom_site_fract_y
_atom_site_fract_z
Zn1	Zn	1.200040	-0.314687	-0.443863
Zn2	Zn	1.199962	-0.446872	-0.312606
Zn3	Zn	1.068781	-0.314711	-0.312611
Zn4	Zn	1.068746	-0.446828	-0.443829
O5	O	1.134382	-0.380774	-0.378227
O6	O	1.309877	-0.332229	-0.426463
O7	O	1.182543	-0.429369	-0.202759
O8	O	1.086239	-0.204097	-0.330038
O9	O	1.309820	-0.429345	-0.330029
O10	O	1.182675	-0.204079	-0.426469
O11	O	1.086164	-0.332272	-0.202763
O12	O	0.958929	-0.332229	-0.330006
O13	O	1.086181	-0.429270	-0.553681
O14	O	0.958904	-0.429294	-0.426411
O15	O	1.182642	-0.332187	-0.553706
O16	O	1.182509	-0.557477	-0.329996
O17	O	1.086106	-0.557444	-0.426406
C18	C	0.930435	-0.380760	-0.378206
C19	C	0.843185	-0.380773	-0.378215
C20	C	1.134317	-0.586141	-0.378214
C21	C	1.134360	-0.673997	-0.378234
C22	C	0.802202	-0.431391	-0.428333
C23	C	0.720221	-0.431393	-0.428345
C24	C	0.679225	-0.380780	-0.378236
C25	C	0.720214	-0.330156	-0.328116
C26	C	0.802193	-0.330151	-0.328108
C27	C	0.549344	-0.330172	-0.328134
C28	C	0.467359	-0.330178	-0.328141
C29	C	0.467373	-0.431413	-0.428372
C30	C	0.549351	-0.431408	-0.428364
C31	C	0.590334	-0.380785	-0.378243
C32	C	1.084258	-1.045486	-0.428422
C33	C	1.184726	-1.045460	-0.328112
C34	C	1.184698	-0.962914	-0.328105
C35	C	1.134449	-0.921650	-0.378256
C36	C	1.084227	-0.962932	-0.428415
C37	C	1.234914	-0.921625	-0.277942
C38	C	1.234888	-0.839074	-0.277932
C39	C	1.184642	-0.797809	-0.328088
C40	C	1.134418	-0.839097	-0.378249
C41	C	1.084169	-0.797833	-0.428400
C42	C	1.033949	-0.839119	-0.478566
C43	C	1.033981	-0.921667	-0.478571
C44	C	1.184610	-0.715261	-0.328083
C45	C	1.084138	-0.715279	-0.428393
C46	C	1.339127	-0.380789	-0.378250
C47	C	1.426376	-0.380796	-0.378259
C48	C	1.134416	-0.380721	-0.582972
C49	C	1.134430	-0.380698	-0.670222
C50	C	1.134470	-0.174606	-0.378258
C51	C	1.134507	-0.086749	-0.378271
C52	C	1.184745	-0.330039	-1.046050
C53	C	1.184729	-0.330067	-0.964070
C54	C	1.134495	-0.380623	-0.923071
C55	C	1.084280	-0.431160	-0.964056
C56	C	1.084300	-0.431136	-1.046035
C57	C	1.084239	-0.431206	-0.793186
C58	C	1.084217	-0.431230	-0.711201
C59	C	1.184667	-0.330137	-0.711221
C60	C	1.184688	-0.330113	-0.793200
C61	C	1.134472	-0.380649	-0.834180
C62	C	1.134394	-0.380771	-0.174279
C63	C	1.134532	-0.380571	-0.087030
H64	H	0.835575	-0.472609	-0.469136
Br65	Br	0.604963	-0.261467	-0.260114
H66	H	1.225494	-0.681650	-0.287235
Br67	Br	1.016108	-0.499777	-0.908415
H68	H	1.225589	-0.288942	-0.826579
H69	H	0.686857	-0.472612	-0.469156
H70	H	0.582728	-0.472626	-0.469164
H71	H	0.434000	-0.472630	-0.469185
Br72	Br	1.252917	-1.101460	-0.260052
Br73	Br	1.303108	-0.977628	-0.209887
Br74	Br	0.664577	-0.261458	-0.260116
H75	H	0.433982	-0.288955	-0.287347
Br76	Br	1.252842	-0.261574	-0.655607
H77	H	0.835560	-0.288928	-0.287301
Br78	Br	1.016046	-0.499845	-0.655559
H79	H	1.043222	-0.681688	-0.469236
H80	H	0.993032	-0.805512	-0.519396
Br81	Br	0.965832	-0.977702	-0.546647
H82	H	1.043413	-0.472285	-1.079400
H83	H	1.043372	-1.079104	-0.469268
Br84	Br	1.303047	-0.783051	-0.209858
H85	H	1.225646	-0.288865	-1.079426
Br86	Br	1.252880	-0.261487	-0.908457
Br87	Br	1.016089	-0.499793	-0.848801
