data_functionalizedCrystal
_audit_creation_method	'MofGen! by Chris Wilmer'
_symmetry_space_group_name_H-M	'P1'
_symmetry_Int_Tables_number	1
_symmetry_cell_setting	triclinic
loop_
_symmetry_equiv_pos_as_xyz
  x,y,z
_cell_length_a	12.811457
_cell_length_b	12.837942
_cell_length_c	18.366186
_cell_angle_alpha	89.994829
_cell_angle_beta	95.422910
_cell_angle_gamma	89.411937
loop_
_atom_site_label
_atom_site_type_symbol
_atom_site_fract_x
_atom_site_fract_y
_atom_site_fract_z
O1	O	1.406624	0.139673	0.032334
O2	O	1.906624	0.639673	0.532334
O3	O	1.102565	0.154864	0.012255
O4	O	1.602565	0.654864	0.512255
O5	O	1.247852	-0.003663	0.021854
O6	O	1.747852	0.496337	0.521854
O7	O	1.261337	0.298200	0.022735
O8	O	1.761337	0.798200	0.522735
O9	O	1.247824	-0.003671	0.142951
O10	O	1.747824	0.496329	0.642951
O11	O	1.102537	0.154856	0.133352
O12	O	1.602537	0.654856	0.633352
O13	O	1.406596	0.139665	0.153432
O14	O	1.906596	0.639665	0.653432
Zn15	Zn	1.254562	0.147259	0.162619
Zn16	Zn	1.754562	0.647259	0.662619
Zn17	Zn	1.254599	0.147270	0.003068
Zn18	Zn	1.754599	0.647270	0.503068
O19	O	1.261309	0.298192	0.143833
O20	O	1.761309	0.798192	0.643833
C21	C	1.063363	0.154010	0.070216
C22	C	1.563363	0.654010	0.570216
C23	C	0.946592	0.151462	0.062505
C24	C	1.446592	0.651462	0.562505
C25	C	0.727136	0.146647	0.180050
C26	C	1.227136	0.646647	0.680050
C27	C	0.617420	0.144253	0.172808
C28	C	1.117420	0.644253	0.672808
C29	C	0.617442	0.144272	0.040780
C30	C	1.117442	0.644272	0.540780
C31	C	0.727158	0.146667	0.048022
C32	C	1.227158	0.646667	0.548022
C33	C	0.782001	0.147855	0.117659
C34	C	1.282001	0.647855	0.617659
C35	C	0.891719	0.150257	0.124900
C36	C	1.391719	0.650257	0.624900
C37	C	0.891739	0.150269	-0.007127
C38	C	1.391739	0.650269	0.492873
C39	C	0.782023	0.147875	-0.014369
C40	C	1.282023	0.647875	0.485631
C41	C	1.243283	-0.042307	0.082101
C42	C	1.743283	0.457693	0.582101
C43	C	1.229697	-0.157443	0.081203
C44	C	1.729697	0.342557	0.581203
C45	C	1.393024	-0.397699	0.091974
C46	C	1.893024	0.102301	0.591974
C47	C	1.380264	-0.505879	0.091130
C48	C	1.880264	-0.005879	0.591130
C49	C	1.191418	-0.481987	0.078666
C50	C	1.691418	0.018013	0.578666
C51	C	1.204178	-0.373807	0.079510
C52	C	1.704178	0.126193	0.579510
C53	C	1.304984	-0.331666	0.086165
C54	C	1.804984	0.168334	0.586165
C55	C	1.317743	-0.223484	0.087014
C56	C	1.817743	0.276516	0.587014
C57	C	1.128898	-0.199594	0.074546
C58	C	1.628898	0.300406	0.574546
C59	C	1.116138	-0.307775	0.073702
C60	C	1.616138	0.192225	0.573702
C61	C	1.445798	0.140519	0.095469
C62	C	1.945798	0.640519	0.595469
C63	C	1.562569	0.143067	0.103176
C64	C	2.062569	0.643067	0.603176
C65	C	1.265878	0.336837	0.083584
C66	C	1.765878	0.836837	0.583584
C67	C	1.279464	0.451972	0.084477
C68	C	1.779464	0.951972	0.584477
N69	N	1.254544	0.147251	0.271509
N70	N	1.754544	0.647251	0.771509
N71	N	1.254624	0.147269	-0.105822
N72	N	1.754624	0.647269	0.394178
C73	C	1.318904	0.077090	0.313862
C74	C	1.818904	0.577090	0.813862
C75	C	1.318910	0.077086	0.390090
C76	C	1.818910	0.577086	0.890090
C77	C	1.254568	0.147260	0.423963
C78	C	1.754568	0.647260	0.923963
C79	C	1.190195	0.217427	0.381601
C80	C	1.690195	0.717427	0.881601
C81	C	1.190183	0.217422	0.305374
C82	C	1.690183	0.717422	0.805374
C83	C	1.250258	0.241651	0.544436
C84	C	1.750258	0.741651	1.044436
C85	C	1.250277	0.241657	0.620662
C86	C	1.750277	0.741657	1.120662
C87	C	1.254599	0.147273	0.659073
C88	C	1.754599	0.647273	1.159073
C89	C	1.258924	0.052880	0.621249
C90	C	1.758924	0.552880	1.121249
C91	C	1.258912	0.052876	0.545022
C92	C	1.758912	0.552876	1.045022
C93	C	1.254574	0.147272	0.506618
C94	C	1.754574	0.647272	1.006618
C95	C	1.318970	0.077101	0.784081
C96	C	1.818970	0.577101	1.284081
C97	C	1.318968	0.077095	0.860310
C98	C	1.818968	0.577095	1.360310
C99	C	1.190259	0.217445	0.851820
C100	C	1.690259	0.717445	1.351820
C101	C	1.190255	0.217442	0.775592
C102	C	1.690255	0.717442	1.275592
C103	C	1.254615	0.147272	0.741727
C104	C	1.754615	0.647272	1.241727
H105	H	0.572753	0.143274	0.223613
H106	H	1.072753	0.643274	0.723613
H107	H	1.246762	0.318517	0.651453
H108	H	1.746762	0.818517	1.151453
N109	N	1.388315	0.001402	0.277339
N110	N	1.888315	0.501402	0.777339
H111	H	1.343599	-0.044717	0.242772
H112	H	1.843599	0.455283	0.742772
H113	H	1.438751	0.041336	0.249073
H114	H	1.938751	0.541336	0.749073
H115	H	1.057210	-0.145818	0.069822
H116	H	1.557210	0.354182	0.569822
H117	H	1.137851	0.274579	0.741106
H118	H	1.637851	0.774579	1.241106
H119	H	1.475104	-0.363388	0.097399
H120	H	1.975104	0.136612	0.597399
H121	H	0.771790	0.147628	0.236751
H122	H	1.271790	0.647628	0.736751
N123	N	0.722857	0.146598	-0.089470
N124	N	1.222857	0.646598	0.410530
H125	H	0.739867	0.211232	-0.117204
H126	H	1.239867	0.711232	0.382796
H127	H	0.744064	0.082769	-0.116877
H128	H	1.244064	0.582769	0.383123
N129	N	0.950873	0.151529	0.200005
N130	N	1.450873	0.651529	0.700005
H131	H	1.028704	0.153232	0.195128
H132	H	1.528704	0.653232	0.695128
H133	H	0.929602	0.215317	0.227431
H134	H	1.429602	0.715317	0.727431
H135	H	1.371322	0.019950	0.424580
H136	H	1.871322	0.519950	0.924580
N137	N	0.558281	0.142968	-0.034322
N138	N	1.058281	0.642968	0.465678
H139	H	0.480452	0.141260	-0.029439
H140	H	0.980452	0.641260	0.470561
H141	H	0.575365	0.207600	-0.062028
H142	H	1.075365	0.707600	0.437972
N143	N	1.245597	0.343456	0.503011
N144	N	1.745597	0.843456	1.003011
H145	H	1.242871	0.403252	0.538537
H146	H	1.742871	0.903252	1.038537
H147	H	1.309991	0.349816	0.475626
H148	H	1.809991	0.849816	0.975626
H149	H	1.451955	-0.559640	0.095857
H150	H	1.951955	-0.059640	0.595857
H151	H	1.262431	-0.023982	0.514229
H152	H	1.762431	0.476018	1.014229
H153	H	1.137805	0.274562	0.409184
H154	H	1.637805	0.774562	0.909184
H155	H	1.262443	-0.023976	0.652521
H156	H	1.762443	0.476024	1.152521
H157	H	0.936422	0.151259	-0.057930
H158	H	1.436422	0.651259	0.442070
N159	N	1.082699	-0.527448	0.071481
N160	N	1.582699	-0.027448	0.571481
H161	H	1.087980	-0.606000	0.071825
H162	H	1.587980	-0.106000	0.571825
H163	H	1.043686	-0.503337	0.113800
H164	H	1.543686	-0.003337	0.613800
H165	H	1.399825	-0.189175	0.092436
H166	H	1.899825	0.310825	0.592436
H167	H	1.034064	-0.342100	0.068281
H168	H	1.534064	0.157900	0.568281
N169	N	1.120760	0.293095	0.259687
N170	N	1.620760	0.793095	0.759687
H171	H	1.079994	0.337549	0.292709
H172	H	1.579994	0.837549	0.792709
H173	H	1.165535	0.339141	0.231005
H174	H	1.665535	0.839141	0.731005
N175	N	1.388379	0.001420	0.747548
N176	N	1.888379	0.501420	1.247548
H177	H	1.429148	-0.043036	0.785948
H178	H	1.929148	0.456964	1.285948
H179	H	1.343594	-0.044624	0.712973
H180	H	1.843594	0.455376	1.212973
H181	H	1.137866	0.274579	0.879399
H182	H	1.637866	0.774579	1.379399
N183	N	1.388408	0.001435	0.905996
N184	N	1.888408	0.501435	1.405996
H185	H	1.429185	-0.043006	0.872974
H186	H	1.929185	0.456994	1.372974
H187	H	1.438788	0.041396	0.940930
H188	H	1.938788	0.541396	1.440930
