data_functionalizedCrystal
_audit_creation_method	'MofGen! by Chris Wilmer'
_symmetry_space_group_name_H-M	'P1'
_symmetry_Int_Tables_number	1
_symmetry_cell_setting	triclinic
loop_
_symmetry_equiv_pos_as_xyz
  x,y,z
_cell_length_a	19.805407
_cell_length_b	17.637651
_cell_length_c	19.805399
_cell_angle_alpha	101.242610
_cell_angle_beta	90.019573
_cell_angle_gamma	101.218564
loop_
_atom_site_label
_atom_site_type_symbol
_atom_site_fract_x
_atom_site_fract_y
_atom_site_fract_z
Zn1	Zn	0.980303	-0.314779	0.328177
Zn2	Zn	0.957355	-0.446994	0.192080
Zn3	Zn	0.867114	-0.314800	0.214998
Zn4	Zn	0.844226	-0.446952	0.305234
O5	O	0.912250	-0.380881	0.260122
O6	O	1.071974	-0.332326	0.310134
O7	O	0.945360	-0.429485	0.100399
O8	O	0.901312	-0.204159	0.249205
O9	O	1.055114	-0.429464	0.210144
O10	O	0.984471	-0.204143	0.332357
O11	O	0.879060	-0.332363	0.117237
O12	O	0.769363	-0.332322	0.226958
O13	O	0.862302	-0.429392	0.402999
O14	O	0.752547	-0.429413	0.293254
O15	O	0.962277	-0.332285	0.419855
O16	O	0.923166	-0.557627	0.187897
O17	O	0.840050	-0.557596	0.271031
C18	C	0.736396	-0.380866	0.260103
C19	C	0.661162	-0.380879	0.260108
C20	C	0.876652	-0.586299	0.224502
C21	C	0.861485	-0.674177	0.209286
C22	C	0.617066	-0.431510	0.294545
C23	C	0.546378	-0.431512	0.294554
C24	C	0.519785	-0.380885	0.260122
C25	C	0.563887	-0.330248	0.225684
C26	C	0.634575	-0.330243	0.225679
C27	C	0.278811	-0.330265	0.225703
C28	C	0.208117	-0.330276	0.225709
C29	C	0.190613	-0.431534	0.294578
C30	C	0.261301	-0.431529	0.294573
C31	C	0.305397	-0.380889	0.260139
C32	C	0.382046	-0.380887	0.260130
C33	C	0.443137	-0.380890	0.260126
C34	C	1.027910	-0.962863	0.375930
C35	C	1.013637	-1.045438	0.361620
C36	C	0.927101	-1.045562	0.274950
C37	C	0.941369	-0.962985	0.289250
C38	C	0.991774	-0.921642	0.339741
C39	C	0.905232	-0.921764	0.253061
C40	C	0.919497	-0.839195	0.267363
C41	C	0.969898	-0.797846	0.317853
C42	C	1.006039	-0.839072	0.354043
C43	C	0.854824	-0.963109	0.202574
C44	C	0.818688	-0.921888	0.166385
C45	C	0.832956	-0.839317	0.180683
C46	C	0.883357	-0.797968	0.231173
C47	C	0.796816	-0.798090	0.144494
C48	C	0.811080	-0.715521	0.158795
C49	C	0.897622	-0.715398	0.245475
C50	C	1.088790	-0.380897	0.260142
C51	C	1.164020	-0.380904	0.260150
C52	C	0.912296	-0.380831	0.436674
C53	C	0.912316	-0.380810	0.511910
C54	C	0.948005	-0.174661	0.295897
C55	C	0.963241	-0.086783	0.311142
C56	C	0.912252	-0.380874	0.084268
C57	C	0.912402	-0.380672	0.009071
C58	C	0.964375	-0.330244	0.556032
C59	C	0.964386	-0.330221	0.626725
C60	C	0.912340	-0.380769	0.653292
C61	C	0.860276	-0.431337	0.609164
C62	C	0.860263	-0.431356	0.538474
C63	C	0.860327	-0.431264	0.894250
C64	C	0.860345	-0.431243	0.964946
C65	C	0.964450	-0.330129	0.982501
C66	C	0.964437	-0.330147	0.911811
C67	C	0.912371	-0.380712	0.867690
C68	C	0.912359	-0.380736	0.791037
C69	C	0.912354	-0.380750	0.729943
H70	H	0.638711	-0.472739	0.322581
H71	H	0.886059	-1.079235	0.233842
H72	H	0.981512	-0.730612	0.329496
O73	O	0.747900	-0.838168	0.095373
C74	C	0.766220	-0.818047	0.031410
H75	H	0.802603	-0.758079	0.040413
H76	H	0.717867	-0.815279	0.001494
H77	H	0.793002	-0.864512	0.000600
O78	O	0.809865	-0.480432	0.990769
C79	C	0.839555	-0.531480	1.022817
H80	H	0.892010	-0.536377	1.000672
H81	H	0.804523	-0.592321	1.013060
H82	H	0.846140	-0.507022	1.080634
H83	H	0.154702	-0.472764	0.322620
O84	O	0.677468	-0.281172	0.192172
C85	C	0.710539	-0.326117	0.140586
H86	H	0.710749	-0.386070	0.153977
H87	H	0.765826	-0.293897	0.137146
H88	H	0.681786	-0.334728	0.088923
O89	O	0.538006	-0.281179	0.192148
C90	C	0.489299	-0.326125	0.140588
H91	H	0.499812	-0.388386	0.125517
H92	H	0.493441	-0.297445	0.093514
H93	H	0.435257	-0.328887	0.161039
H94	H	1.068960	-0.929200	0.417040
H95	H	1.006842	-0.288953	1.018435
H96	H	0.510477	-0.472742	0.322595
O97	O	0.321686	-0.280999	0.192362
C98	C	0.371438	-0.230001	0.239807
H99	H	0.350990	-0.225198	0.293957
H100	H	0.382779	-0.169119	0.225967
H101	H	0.420777	-0.254445	0.237863
O102	O	1.014951	-0.281108	0.885889
C103	C	1.003762	-0.291947	0.814038
H104	H	0.971027	-0.352970	0.793789
H105	H	1.055383	-0.286574	0.788108
H106	H	0.975828	-0.245063	0.802114
H107	H	0.186469	-0.289044	0.197671
O108	O	1.048765	-1.085559	0.396674
C109	C	1.084277	-1.133300	0.349922
H110	H	1.058295	-1.145735	0.296451
H111	H	1.083307	-1.191332	0.367459
H112	H	1.139943	-1.101441	0.348053
H113	H	0.817898	-0.472491	0.630802
H114	H	0.781654	-0.681958	0.129327
O115	O	0.946508	-0.675140	0.294568
C116	C	0.916191	-0.627395	0.346526
H117	H	0.867034	-0.615091	0.324738
H118	H	0.953785	-0.569300	0.365680
H119	H	0.903237	-0.659186	0.391175
H120	H	0.817940	-0.472449	0.858333
H121	H	0.817866	-0.472524	0.502550
O122	O	1.014968	-0.281066	0.530345
C123	C	1.060927	-0.236444	0.584450
H124	H	1.033686	-0.233692	0.635309
H125	H	1.078943	-0.174156	0.574835
H126	H	1.107313	-0.265399	0.586955
O127	O	0.287023	-0.480733	0.328081
C128	C	0.232942	-0.525436	0.358465
H129	H	0.188163	-0.493061	0.366472
H130	H	0.251914	-0.533948	0.410304
H131	H	0.215017	-0.585447	0.323191
H132	H	1.047088	-0.805409	0.395153
H133	H	0.843205	-1.030342	0.190938
O134	O	1.014883	-0.281119	0.669687
C135	C	1.003741	-0.291945	0.737776
H136	H	0.947020	-0.317840	0.742926
H137	H	1.018595	-0.232712	0.774912
H138	H	1.036597	-0.334036	0.750551
H139	H	0.777647	-0.955561	0.125277
