data_functionalizedCrystal
_audit_creation_method	'MofGen! by Chris Wilmer'
_symmetry_space_group_name_H-M	'P1'
_symmetry_Int_Tables_number	1
_symmetry_cell_setting	triclinic
loop_
_symmetry_equiv_pos_as_xyz
  x,y,z
_cell_length_a	12.759401
_cell_length_b	13.897448
_cell_length_c	13.897441
_cell_angle_alpha	89.969401
_cell_angle_beta	89.981301
_cell_angle_gamma	90.017853
loop_
_atom_site_label
_atom_site_type_symbol
_atom_site_fract_x
_atom_site_fract_y
_atom_site_fract_z
Zn1	Zn	1.606236	-0.383980	-0.545329
Zn2	Zn	1.606120	-0.545302	-0.384030
Zn3	Zn	1.430537	-0.384023	-0.384053
Zn4	Zn	1.430517	-0.545235	-0.545289
O5	O	1.518352	-0.464635	-0.464675
O6	O	1.753241	-0.405390	-0.523940
O7	O	1.582789	-0.523953	-0.249052
O8	O	1.453900	-0.249035	-0.405473
O9	O	1.753156	-0.523912	-0.405434
O10	O	1.582985	-0.249004	-0.523962
O11	O	1.453788	-0.405463	-0.249068
O12	O	1.283513	-0.405398	-0.405434
O13	O	1.453866	-0.523799	-0.680276
O14	O	1.283499	-0.523840	-0.523893
O15	O	1.582966	-0.405325	-0.680305
O16	O	1.582769	-0.680275	-0.405395
O17	O	1.453755	-0.680226	-0.523871
C18	C	1.245385	-0.464617	-0.464662
C19	C	1.128608	-0.464633	-0.464679
C20	C	1.073766	-0.526404	-0.526259
C21	C	0.964042	-0.526417	-0.526269
C22	C	0.964012	-0.402883	-0.403112
C23	C	1.073734	-0.402867	-0.403107
C24	C	1.073783	-0.597728	-0.597360
C25	C	0.964059	-0.597741	-0.597370
C26	C	1.518276	-0.715249	-0.464647
C27	C	1.518339	-0.822463	-0.464668
C28	C	1.518449	-1.018758	-0.464728
C29	C	1.518385	-0.909526	-0.464697
C30	C	1.792386	-0.464653	-0.464689
C31	C	1.909162	-0.464661	-0.464695
C32	C	1.518427	-0.464550	-0.716268
C33	C	1.518459	-0.464513	-0.823482
C34	C	1.518458	-0.213042	-0.464724
C35	C	1.518503	-0.105828	-0.464745
C36	C	1.518487	-0.464448	-1.019778
C37	C	1.518468	-0.464487	-0.910545
C38	C	1.518339	-0.464650	-0.214061
C39	C	1.518510	-0.464415	-0.106847
H40	H	0.930063	-0.571078	-0.668389
H41	H	0.934259	-0.672428	-0.577232
Cl42	Cl	1.126300	-0.707263	-0.555939
Cl43	Cl	1.142676	-0.325190	-0.325707
H44	H	0.919320	-0.352594	-0.352984
H45	H	1.103592	-0.577810	-0.672101
