data_functionalizedCrystal
_audit_creation_method	'MofGen! by Chris Wilmer'
_symmetry_space_group_name_H-M	'P1'
_symmetry_Int_Tables_number	1
_symmetry_cell_setting	triclinic
loop_
_symmetry_equiv_pos_as_xyz
  x,y,z
_cell_length_a	15.995292
_cell_length_b	15.944493
_cell_length_c	15.072220
_cell_angle_alpha	90.004743
_cell_angle_beta	89.986330
_cell_angle_gamma	83.471830
loop_
_atom_site_label
_atom_site_type_symbol
_atom_site_fract_x
_atom_site_fract_y
_atom_site_fract_z
O1	O	1.111010	0.108035	-0.073795
O2	O	0.867226	0.121456	-0.073790
O3	O	0.995800	-0.007535	-0.073800
O4	O	0.982435	0.237025	-0.073785
O5	O	0.995769	-0.007528	0.073765
O6	O	0.867194	0.121463	0.073775
O7	O	1.110978	0.108042	0.073770
Zn8	Zn	0.989081	0.114754	0.097202
Zn9	Zn	0.989123	0.114744	-0.097221
O10	O	0.982404	0.237032	0.073780
C11	C	0.836014	0.120913	-0.000007
C12	C	0.743062	0.119276	-0.000006
C13	C	0.995238	-0.038826	-0.000021
C14	C	0.993600	-0.132074	-0.000032
C15	C	0.405324	0.113255	-0.000016
C16	C	0.428623	0.206357	-0.000340
C17	C	0.525298	0.208127	-0.000003
C18	C	0.572880	0.116242	-0.000011
C19	C	0.543767	0.069700	0.084250
C20	C	0.446976	0.068579	0.084316
C21	C	0.447157	0.066670	-0.083493
C22	C	0.543650	0.070120	-0.084602
C23	C	0.667576	0.117926	-0.000006
C24	C	0.310629	0.111569	-0.000016
C25	C	1.069282	-0.367854	-0.000017
C26	C	1.028486	-0.418415	-0.072773
C27	C	0.990566	-0.302794	-0.000021
C28	C	1.028436	-0.418384	0.072715
C29	C	0.987641	-0.467703	-0.000007
C30	C	0.949791	-0.352127	-0.072837
C31	C	0.949752	-0.352092	0.072716
C32	C	0.908898	-0.402620	-0.000058
C33	C	0.992253	-0.207795	-0.000030
C34	C	0.985947	-0.562700	-0.000004
C35	C	1.142189	0.108584	-0.000015
C36	C	1.235142	0.110222	-0.000022
C37	C	0.982966	0.268323	-0.000000
C38	C	0.984603	0.361572	0.000005
N39	N	0.989059	0.114759	0.229891
N40	N	0.989152	0.114731	-0.229910
C41	C	0.989121	0.114741	0.589092
C42	C	0.920093	0.183530	0.551491
C43	C	0.920251	0.183781	0.448665
C44	C	0.989089	0.114750	0.410888
C45	C	1.076454	0.133875	0.448179
C46	C	1.076067	0.134364	0.551037
C47	C	0.971565	0.026623	0.551188
C48	C	0.969560	0.027211	0.448324
C49	C	0.989077	0.114754	0.310175
C50	C	0.989139	0.114739	0.689806
H51	H	0.400634	0.242240	-0.060767
N52	N	0.549661	0.256709	0.080143
H53	H	0.497569	0.277052	0.115396
H54	H	0.589573	0.218753	0.118476
H55	H	0.399585	0.242047	0.059753
N56	N	1.072536	-0.456785	-0.154246
H57	H	1.031665	-0.486270	-0.190688
H58	H	1.094145	-0.410784	-0.190885
N59	N	1.159093	-0.347170	-0.000119
H60	H	1.159585	-0.283886	0.000441
H61	H	1.189075	-0.372386	0.054269
N62	N	0.411421	0.111281	0.167754
H63	H	0.458646	0.130656	0.204145
H64	H	0.370177	0.161611	0.151357
H65	H	1.092297	0.197405	0.422414
N66	N	0.905753	-0.313693	0.154196
H67	H	0.856310	-0.272324	0.135662
H68	H	0.885172	-0.359808	0.191492
H69	H	1.091540	0.198626	0.575022
N70	N	0.428642	-0.024105	-0.084256
H71	H	0.365784	-0.026033	-0.086561
H72	H	0.455727	-0.053663	-0.138029
N73	N	0.888995	0.002275	0.585583
H74	H	0.850151	-0.005140	0.534055
H75	H	0.899450	-0.052448	0.619660
N76	N	0.427706	-0.021837	0.089378
H77	H	0.482066	-0.060790	0.091561
H78	H	0.393723	-0.029794	0.144609
H79	H	0.418840	0.095767	-0.147358
H80	H	0.575645	0.002086	0.087377
N81	N	0.905795	-0.313954	-0.154402
H82	H	0.907211	-0.250788	-0.153916
H83	H	0.935322	-0.338749	-0.209248
H84	H	1.129047	0.085104	0.423706
N85	N	0.884404	0.008009	0.416105
H86	H	0.858581	0.055805	0.377412
H87	H	0.891085	-0.046104	0.380671
H88	H	0.563807	0.102027	0.146962
N89	N	0.568271	0.114990	-0.167179
H90	H	0.598235	0.164986	-0.149876
H91	H	0.606923	0.074792	-0.204554
H92	H	0.576631	0.003054	-0.089698
N93	N	0.819030	-0.423127	-0.000124
H94	H	0.789424	-0.398796	-0.055111
H95	H	0.818502	-0.486405	0.000425
H96	H	1.061682	-0.447321	0.134220
H97	H	1.016572	-0.026375	0.422612
N98	N	1.038240	-0.041189	0.583390
H99	H	1.079624	-0.015006	0.622341
H100	H	1.010838	-0.084554	0.618558
N101	N	0.834233	0.168695	0.415261
H102	H	0.795870	0.161823	0.467355
H103	H	0.810165	0.218398	0.378143
N104	N	0.833790	0.168699	0.584289
H105	H	0.838597	0.117248	0.623843
H106	H	0.808531	0.219587	0.618963
H107	H	0.931460	0.249172	0.424055
N108	N	0.550519	0.256401	-0.080012
H109	H	0.498791	0.276722	-0.115817
H110	H	0.578962	0.306486	-0.059817
N111	N	0.934756	0.269670	0.585675
H112	H	0.985916	0.264327	0.625417
H113	H	0.944191	0.307742	0.533946
H114	H	1.129037	0.086235	0.575908
