data_functionalizedCrystal
_audit_creation_method	'MofGen! by Chris Wilmer'
_symmetry_space_group_name_H-M	'P1'
_symmetry_Int_Tables_number	1
_symmetry_cell_setting	triclinic
loop_
_symmetry_equiv_pos_as_xyz
  x,y,z
_cell_length_a	19.077399
_cell_length_b	13.031981
_cell_length_c	19.076919
_cell_angle_alpha	84.787276
_cell_angle_beta	94.479523
_cell_angle_gamma	99.757739
loop_
_atom_site_label
_atom_site_type_symbol
_atom_site_fract_x
_atom_site_fract_y
_atom_site_fract_z
Zn1	Zn	1.030976	-0.373998	-0.324614
Zn2	Zn	1.021884	-0.541473	-0.192950
Zn3	Zn	0.917829	-0.374026	-0.211466
Zn4	Zn	0.898116	-0.556041	-0.314320
O5	O	0.967201	-0.461384	-0.260838
O6	O	1.128920	-0.390105	-0.303708
O7	O	1.012525	-0.513175	-0.097260
O8	O	0.944893	-0.227759	-0.238532
O9	O	1.122240	-0.513148	-0.206975
O10	O	1.028022	-0.227738	-0.321661
O11	O	0.936076	-0.390153	-0.110863
O12	O	0.816064	-0.404279	-0.228551
O13	O	0.911296	-0.537978	-0.413832
O14	O	0.801581	-0.538005	-0.304117
O15	O	1.008908	-0.404231	-0.421395
O16	O	0.993411	-0.689668	-0.196994
O17	O	0.902479	-0.700371	-0.286163
C18	C	0.783114	-0.472727	-0.267226
C19	C	0.704358	-0.477606	-0.269974
C20	C	0.944838	-0.732944	-0.238467
C21	C	0.935334	-0.849115	-0.228918
C22	C	0.674883	-0.410178	-0.232003
C23	C	0.600883	-0.414771	-0.234584
C24	C	0.556359	-0.486787	-0.275140
C25	C	0.585839	-0.554223	-0.313112
C26	C	0.659838	-0.549634	-0.310526
C27	C	0.334239	-0.507992	-0.287078
C28	C	0.260235	-0.512574	-0.289662
C29	C	0.275284	-0.373123	-0.211133
C30	C	0.349284	-0.368536	-0.208555
C31	C	0.378757	-0.435975	-0.246524
N32	N	0.480719	-0.491482	-0.277780
N33	N	0.454396	-0.431285	-0.243879
C34	C	0.972198	-0.900819	-0.265834
C35	C	0.962377	-1.020889	-0.255965
C36	C	1.152007	-0.449998	-0.254424
C37	C	1.230760	-0.445146	-0.251691
C38	C	0.958917	-0.472726	-0.443773
C39	C	0.955387	-0.477559	-0.521729
C40	C	0.989671	-0.188764	-0.283310
C41	C	0.999246	-0.072590	-0.292887
C42	C	1.004547	-0.410199	-0.562292
C43	C	1.001222	-0.414737	-0.635541
C44	C	0.948739	-0.486641	-0.668225
C45	C	0.899574	-0.554005	-0.627657
C46	C	0.902897	-0.549461	-0.554410
C47	C	0.933349	-0.507692	-0.886868
C48	C	0.930032	-0.512233	-0.960120
C49	C	1.031679	-0.372963	-0.967998
C50	C	1.035000	-0.368430	-0.894749
C51	C	0.985832	-0.435790	-0.854188
N52	N	0.945340	-0.491284	-0.743097
N53	N	0.989229	-0.431142	-0.779318
C54	C	0.975500	-0.450009	-0.078619
C55	C	0.979192	-0.444872	-0.000682
H56	H	0.711130	-0.351526	-0.198984
Cl57	Cl	0.902415	-1.089775	-0.195888
Cl58	Cl	0.696892	-0.634408	-0.358260
Cl59	Cl	0.875375	-0.918005	-0.168843
H60	H	1.038077	-1.027970	-0.331804
H61	H	0.893323	-0.562556	-0.853850
H62	H	1.047286	-0.351649	-0.535686
H63	H	0.549581	-0.612865	-0.346129
Cl64	Cl	1.063054	-0.330094	-0.686526
H65	H	0.887291	-0.570789	-0.986729
Cl66	Cl	0.405252	-0.277988	-0.157576
Cl67	Cl	0.563832	-0.329994	-0.186851
Cl68	Cl	1.100981	-0.278032	-0.853666
Cl69	Cl	1.093483	-0.288284	-1.018993
Cl70	Cl	0.833593	-0.644396	-0.668747
H71	H	1.011027	-0.856196	-0.304749
Cl72	Cl	0.841091	-0.634144	-0.503417
H73	H	0.251279	-0.318219	-0.180220
H74	H	0.358226	-0.562906	-0.317995
Cl75	Cl	0.204263	-0.603114	-0.340652
