data_functionalizedCrystal
_audit_creation_method	'MofGen! by Chris Wilmer'
_symmetry_space_group_name_H-M	'P1'
_symmetry_Int_Tables_number	1
_symmetry_cell_setting	triclinic
loop_
_symmetry_equiv_pos_as_xyz
  x,y,z
_cell_length_a	18.215407
_cell_length_b	16.959454
_cell_length_c	16.959447
_cell_angle_alpha	90.025781
_cell_angle_beta	89.987342
_cell_angle_gamma	89.979606
loop_
_atom_site_label
_atom_site_type_symbol
_atom_site_fract_x
_atom_site_fract_y
_atom_site_fract_z
Zn1	Zn	1.125051	0.314720	-0.446899
Zn2	Zn	1.625051	0.814720	0.053101
Zn3	Zn	1.124973	0.446912	-0.314730
Zn4	Zn	1.624973	0.946912	0.185270
Zn5	Zn	1.001993	0.314746	-0.314740
Zn6	Zn	1.501993	0.814746	0.185260
Zn7	Zn	1.001954	0.446854	-0.446873
Zn8	Zn	1.501954	0.946854	0.053127
O9	O	1.063493	0.380808	-0.380810
O10	O	1.563493	0.880808	0.119190
O11	O	1.228025	0.332269	-0.429373
O12	O	1.728025	0.832269	0.070627
O13	O	1.108643	0.429415	-0.204121
O14	O	1.608643	0.929415	0.295879
O15	O	1.018366	0.204131	-0.332286
O16	O	1.518366	0.704131	0.167714
O17	O	1.227967	0.429390	-0.332270
O18	O	1.727967	0.929390	0.167730
O19	O	1.108776	0.204112	-0.429382
O20	O	1.608776	0.704112	0.070618
O21	O	1.018290	0.332313	-0.204128
O22	O	1.518290	0.832313	0.295872
O23	O	0.899003	0.332257	-0.332261
O24	O	1.399003	0.832257	0.167739
O25	O	1.018299	0.429291	-0.557487
O26	O	1.518299	0.929291	-0.057487
O27	O	0.898975	0.429316	-0.429338
O28	O	1.398975	0.929316	0.070662
O29	O	1.108738	0.332212	-0.557506
O30	O	1.608738	0.832212	-0.057506
O31	O	1.108605	0.557515	-0.332245
O32	O	1.608605	1.057515	0.167755
O33	O	1.018223	0.557473	-0.429329
O34	O	1.518223	1.057473	0.070671
C35	C	0.872286	0.380784	-0.380798
C36	C	1.372286	0.880784	0.119202
C37	C	0.790487	0.380792	-0.380812
C38	C	1.290487	0.880792	0.119188
C39	C	0.525434	0.431430	-0.431289
C40	C	1.025434	0.931430	0.068711
C41	C	0.602293	0.431423	-0.431286
C42	C	1.102293	0.931423	0.068714
C43	C	0.602292	0.330204	-0.330345
C44	C	1.102292	0.830204	0.169655
C45	C	0.525435	0.330215	-0.330346
C46	C	1.025435	0.830215	0.169654
C47	C	0.487008	0.380827	-0.380822
C48	C	0.987008	0.880827	0.119178
C49	C	0.640724	0.380809	-0.380818
C50	C	1.140724	0.880809	0.119182
C51	C	0.724058	0.380801	-0.380814
C52	C	1.224058	0.880801	0.119186
C53	C	0.403669	0.380836	-0.380826
C54	C	0.903669	0.880836	0.119174
C55	C	1.063421	0.586174	-0.380800
C56	C	1.563421	1.086174	0.119200
C57	C	1.063458	0.674031	-0.380823
C58	C	1.563458	1.174031	0.119177
C59	C	1.016468	1.045514	-0.431368
C60	C	1.516468	1.545514	0.068632
C61	C	1.110660	1.045498	-0.330356
C62	C	1.610660	1.545498	0.169644
C63	C	1.110638	0.962953	-0.330347
C64	C	1.610638	1.462953	0.169653
C65	C	1.063530	0.921684	-0.380849
C66	C	1.563530	1.421684	0.119151
C67	C	1.016443	0.962960	-0.431359
C68	C	1.516443	1.462960	0.068641
C69	C	1.157719	0.921669	-0.279832
C70	C	1.657719	1.421669	0.220168
C71	C	1.157698	0.839118	-0.279820
C72	C	1.657698	1.339118	0.220180
C73	C	1.110593	0.797848	-0.330327
C74	C	1.610593	1.297848	0.169673
C75	C	1.063505	0.839130	-0.380840
C76	C	1.563505	1.339130	0.119160
C77	C	1.016397	0.797861	-0.431342
C78	C	1.516397	1.297861	0.068658
C79	C	0.969312	0.839142	-0.481860
C80	C	1.469312	1.339142	0.018140
C81	C	0.969338	0.921690	-0.481866
C82	C	1.469338	1.421690	0.018134
C83	C	1.110567	0.715300	-0.330321
C84	C	1.610567	1.215300	0.169679
C85	C	1.016372	0.715308	-0.431333
C86	C	1.516372	1.215308	0.068667
C87	C	1.255445	0.380833	-0.380823
C88	C	1.755445	0.880833	0.119177
C89	C	1.337244	0.380843	-0.380829
C90	C	1.837244	0.880843	0.119171
C91	C	1.063523	0.380742	-0.586979
C92	C	1.563523	0.880742	-0.086979
C93	C	1.063536	0.380714	-0.674835
C94	C	1.563536	0.880714	-0.174835
C95	C	1.063572	1.174640	-0.380842
C96	C	1.563572	1.674640	0.119158
C97	C	1.063577	1.086783	-0.380866
C98	C	1.563577	1.586783	0.119134
C99	C	1.016537	0.431175	-1.046304
C100	C	1.516537	0.931175	-0.546304
C101	C	1.110712	0.330087	-1.046319
C102	C	1.610712	0.830087	-0.546319
C103	C	1.110692	0.330103	-0.963773
C104	C	1.610692	0.830103	-0.463773
C105	C	1.063595	0.380658	-0.922488
C106	C	1.563595	0.880658	-0.422488
C107	C	1.016517	0.431195	-0.963750
C108	C	1.516517	0.931195	-0.463750
C109	C	1.157774	0.279572	-0.922505
C110	C	1.657774	0.779572	-0.422505
C111	C	1.157757	0.279588	-0.839954
C112	C	1.657757	0.779588	-0.339954
C113	C	1.110656	0.330139	-0.798668
C114	C	1.610656	0.830139	-0.298668
C115	C	1.063575	0.380678	-0.839935
C116	C	1.563575	0.880678	-0.339935
C117	C	1.016478	0.431232	-0.798651
C118	C	1.516478	0.931232	-0.298651
C119	C	0.969394	0.481768	-0.839916
C120	C	1.469394	0.981768	-0.339916
C121	C	0.969416	0.481746	-0.922465
C122	C	1.469416	0.981746	-0.422465
C123	C	1.110634	0.330160	-0.716120
C124	C	1.610634	0.830160	-0.216120
C125	C	1.016459	0.431252	-0.716097
C126	C	1.516459	0.931252	-0.216097
C127	C	1.063504	0.380816	-0.175444
C128	C	1.563504	0.880816	0.324556
C129	C	1.063634	0.380621	-0.087588
C130	C	1.563634	0.880621	0.412412
H131	H	0.978013	0.681711	-0.472461
H132	H	1.478013	1.181711	0.027539
H133	H	0.494149	0.472641	-0.472390
H134	H	0.994149	0.972641	0.027610
H135	H	1.196123	0.238419	-0.956124
H136	H	1.696123	0.738419	-0.456124
H137	H	0.978099	0.472413	-0.682489
H138	H	1.478099	0.972413	-0.182489
H139	H	0.633576	0.472630	-0.472380
H140	H	1.133576	0.972630	0.027620
H141	H	1.148971	0.289017	-0.682525
H142	H	1.648971	0.789017	-0.182525
F143	F	0.919174	0.795211	-0.535602
F144	F	1.419174	1.295211	-0.035602
F145	F	0.484536	0.276356	-0.276627
F146	F	0.984536	0.776356	0.223373
H147	H	0.633589	0.288996	-0.289250
H148	H	1.133589	0.788996	0.210750
F149	F	0.919231	0.965629	-0.535624
F150	F	1.419231	1.465629	-0.035624
F151	F	0.966363	1.089447	-0.485133
F152	F	1.466363	1.589447	0.014867
F153	F	1.207854	0.965594	-0.226091
F154	F	1.707854	1.465594	0.273909
H155	H	1.196037	0.805513	-0.238687
H156	H	1.696037	1.305513	0.261313
H157	H	0.931084	0.522892	-0.956070
H158	H	1.431084	1.022892	-0.456070
H159	H	1.196096	0.238438	-0.806362
H160	H	1.696096	0.738438	-0.306362
F161	F	1.160667	0.671370	-0.276553
F162	F	1.660667	1.171370	0.223447
F163	F	1.160793	1.089422	-0.276611
F164	F	1.660793	1.589422	0.223389
H165	H	0.931050	0.522933	-0.806292
H166	H	1.431050	1.022933	-0.306292
F167	F	0.966426	0.484954	-1.090221
F168	F	1.466426	0.984954	-0.590221
H169	H	1.149060	0.288932	-1.079937
H170	H	1.649060	0.788932	-0.579937
