data_functionalizedCrystal
_audit_creation_method	'MofGen! by Chris Wilmer'
_symmetry_space_group_name_H-M	'P1'
_symmetry_Int_Tables_number	1
_symmetry_cell_setting	triclinic
loop_
_symmetry_equiv_pos_as_xyz
  x,y,z
_cell_length_a	23.532407
_cell_length_b	14.044220
_cell_length_c	13.101039
_cell_angle_alpha	86.332523
_cell_angle_beta	93.331090
_cell_angle_gamma	88.018778
loop_
_atom_site_label
_atom_site_type_symbol
_atom_site_fract_x
_atom_site_fract_y
_atom_site_fract_z
O1	O	-0.764355	-0.109759	-0.085088
O2	O	-0.599394	-0.126398	-0.085118
O3	O	-0.679398	0.019883	-0.085094
O4	O	-0.684351	-0.256039	-0.085113
O5	O	-0.673659	0.009370	0.085335
O6	O	-0.593655	-0.136910	0.085310
O7	O	-0.758615	-0.120271	0.085340
Zn8	Zn	-0.675224	-0.130260	0.112384
Zn9	Zn	-0.682786	-0.116409	-0.112162
O10	O	-0.678612	-0.266552	0.085315
C11	C	-0.674361	0.049920	0.000121
C12	C	-0.667895	0.155085	0.000121
C13	C	-0.575286	-0.131230	0.000092
C14	C	-0.512000	-0.129955	0.000081
C15	C	-0.782724	-0.115439	0.000128
C16	C	-0.846010	-0.116713	0.000132
C17	C	-0.117154	-0.208533	0.000121
C18	C	-0.057690	-0.207350	0.000128
O19	O	-0.024892	-0.280192	0.000160
N20	N	-0.030350	-0.120386	0.000132
C21	C	-0.062478	-0.034600	0.000141
O22	O	-0.033763	0.039479	0.000146
C23	C	-0.121941	-0.035784	0.000142
C24	C	-0.149278	-0.122754	0.000127
C25	C	-0.144492	-0.295495	0.000108
C26	C	-0.203952	-0.296678	0.000100
C27	C	-0.236076	-0.210898	0.000105
C28	C	-0.208738	-0.123936	0.000119
C29	C	-0.154067	0.050000	0.000157
C30	C	-0.213534	0.048808	0.000159
C31	C	-0.240871	-0.038161	0.000144
C32	C	-0.300322	-0.039339	0.000116
N33	N	-0.327662	-0.126303	0.000111
C34	C	-0.295539	-0.212083	0.000106
C35	C	0.062399	-0.032119	0.000140
C36	C	0.121861	-0.030933	0.000132
C37	C	0.126645	-0.203683	0.000121
C38	C	0.067182	-0.204868	0.000122
C39	C	0.035060	-0.119083	0.000136
C40	C	-0.420411	-0.214560	0.000088
C41	C	-0.479877	-0.215735	0.000075
C42	C	-0.484655	-0.042985	0.000092
C43	C	-0.425194	-0.041809	0.000099
C44	C	-0.393073	-0.127605	0.000100
O45	O	-0.333156	0.033464	0.000088
O46	O	-0.324261	-0.286150	0.000114
C47	C	-0.683649	-0.296589	0.000099
C48	C	-0.690115	-0.401754	0.000092
N49	N	-0.670067	-0.139712	0.265631
C50	C	-0.656074	0.347636	0.000104
C51	C	-0.701933	0.405701	0.000109
C52	C	-0.695356	0.512843	0.000100
C53	C	-0.662651	0.240484	0.000113
N54	N	-0.687946	-0.106949	-0.265409
C55	C	-0.663052	-0.152581	0.474671
C56	C	-0.694960	-0.094083	0.525557
C57	C	-0.691057	-0.101244	0.641874
C58	C	-0.666955	-0.145422	0.358344
H59	H	-0.394264	-0.284423	0.000092
O60	O	-0.754622	0.368857	0.000174
C61	C	-0.749548	0.268532	0.000156
H62	H	-0.705197	0.243039	0.032407
H63	H	-0.756435	0.246069	-0.081603
C64	C	-0.849085	0.255035	0.027402
C65	C	-0.794614	0.223723	0.067022
H66	H	-0.876885	0.227393	0.068644
H67	H	-0.852505	0.322626	0.027411
H68	H	-0.854816	0.236314	-0.040729
H69	H	-0.788880	0.242454	0.135147
H70	H	-0.791194	0.156133	0.067027
H71	H	-0.725209	-0.038625	0.481764
H72	H	-0.632806	-0.208037	0.518459
O73	O	-0.603380	0.384440	-0.000038
C74	C	-0.599816	0.446331	-0.088320
H75	H	-0.644443	0.473054	-0.117749
H76	H	-0.578885	0.406304	-0.150125
C77	C	-0.509102	0.499088	-0.025365
C78	C	-0.563914	0.531916	-0.061505
H79	H	-0.486954	0.551879	-0.008827
H80	H	-0.511502	0.457389	0.034110
H81	H	-0.491667	0.465732	-0.076875
H82	H	-0.581350	0.565260	-0.009991
H83	H	-0.561516	0.573623	-0.120972
H84	H	-0.226205	-0.367497	0.000087
O85	O	-0.113380	-0.378913	0.000054
C86	C	-0.150270	-0.455911	0.000069
H87	H	-0.194442	-0.429425	-0.032187
H88	H	-0.153110	-0.487643	0.081828
C89	C	-0.072810	-0.565463	-0.027167
C90	C	-0.127061	-0.532934	-0.066792
H91	H	-0.058493	-0.612977	-0.068406
H92	H	-0.047955	-0.513589	-0.027173
H93	H	-0.075183	-0.591900	0.040965
H94	H	-0.124686	-0.506487	-0.134917
H95	H	-0.151915	-0.584805	-0.066799
H96	H	0.044928	-0.275686	0.000116
O97	O	0.157943	-0.286929	0.000166
C98	C	0.216286	-0.267223	0.000145
H99	H	0.223429	-0.194818	0.032415
H100	H	0.230527	-0.265935	-0.081618
C101	C	0.242360	-0.434172	0.027343
C102	C	0.251133	-0.345247	0.066986
H103	H	0.263856	-0.482303	0.068569
H104	H	0.203053	-0.447450	0.027353
H105	H	0.254227	-0.433086	-0.040792
H106	H	0.239260	-0.346331	0.135114
H107	H	0.290439	-0.331972	0.066988
O108	O	0.031216	0.051257	-0.000044
C109	C	0.041340	0.109536	-0.088297
H110	H	0.057010	0.063120	-0.149989
H111	H	0.075039	0.162842	-0.068340
C112	C	-0.033536	0.220900	-0.052553
C113	C	-0.014295	0.163890	-0.128327
H114	H	-0.067853	0.254432	-0.077244
H115	H	-0.040355	0.181638	0.006907
H116	H	-0.005448	0.265313	-0.035928
H117	H	-0.042379	0.119471	-0.144941
H118	H	-0.007481	0.203146	-0.187791
O119	O	-0.244653	0.132233	0.000122
C120	C	-0.207767	0.209237	0.000160
H121	H	-0.165762	0.186744	-0.032101
H122	H	-0.199433	0.230875	0.081927
C123	C	-0.287067	0.322132	-0.027048
C124	C	-0.235477	0.294508	-0.066680
H125	H	-0.304161	0.374733	-0.068274
H126	H	-0.311918	0.270253	-0.027070
H127	H	-0.280115	0.340157	0.041090
H128	H	-0.242431	0.276472	-0.134812
H129	H	-0.210628	0.346386	-0.066671
H130	H	0.144113	0.039887	0.000128
O131	O	-0.398725	0.042752	0.000145
C132	C	-0.439833	0.118210	0.000112
H133	H	-0.480437	0.090054	0.032367
H134	H	-0.449637	0.149682	-0.081652
C135	C	-0.366777	0.230739	0.027340
C136	C	-0.416645	0.196159	0.066964
H137	H	-0.352474	0.278824	0.068572
H138	H	-0.339081	0.179903	0.027358
H139	H	-0.374954	0.256959	-0.040796
H140	H	-0.408467	0.169929	0.135093
H141	H	-0.444340	0.246993	0.066959
H142	H	-0.131820	0.120819	0.000170
H143	H	-0.502131	-0.286558	0.000063
H144	H	-0.510821	0.026855	0.000092
