data_functionalizedCrystal
_audit_creation_method	'MofGen! by Chris Wilmer'
_symmetry_space_group_name_H-M	'P1'
_symmetry_Int_Tables_number	1
_symmetry_cell_setting	triclinic
loop_
_symmetry_equiv_pos_as_xyz
  x,y,z
_cell_length_a	19.188930
_cell_length_b	19.188930
_cell_length_c	18.266242
_cell_angle_alpha	89.979776
_cell_angle_beta	90.006796
_cell_angle_gamma	96.855221
loop_
_atom_site_label
_atom_site_type_symbol
_atom_site_fract_x
_atom_site_fract_y
_atom_site_fract_z
O1	O	0.087164	-0.926147	0.061124
O2	O	0.337164	-0.676147	0.311124
O3	O	0.587164	-0.426147	0.561124
O4	O	0.837164	-0.176147	0.811124
O5	O	0.098898	-0.722836	0.061075
O6	O	0.348898	-0.472836	0.311075
O7	O	0.598898	-0.222836	0.561075
O8	O	0.848898	0.027164	0.811075
O9	O	-0.008624	-0.830359	0.061087
O10	O	0.241376	-0.580359	0.311087
O11	O	0.491376	-0.330359	0.561087
O12	O	0.741376	-0.080359	0.811087
O13	O	0.194687	-0.818624	0.061113
O14	O	0.444687	-0.568624	0.311113
O15	O	0.694687	-0.318624	0.561113
O16	O	0.944687	-0.068624	0.811113
O17	O	-0.008621	-0.830345	-0.060675
O18	O	0.241379	-0.580345	0.189325
O19	O	0.491379	-0.330345	0.439325
O20	O	0.741379	-0.080345	0.689325
O21	O	0.098902	-0.722822	-0.060687
O22	O	0.348902	-0.472822	0.189313
O23	O	0.598902	-0.222822	0.439313
O24	O	0.848902	0.027178	0.689313
O25	O	0.087168	-0.926133	-0.060638
O26	O	0.337168	-0.676133	0.189362
O27	O	0.587168	-0.426133	0.439362
O28	O	0.837168	-0.176133	0.689362
Zn29	Zn	0.093035	-0.824475	-0.079994
Zn30	Zn	0.343035	-0.574475	0.170006
Zn31	Zn	0.593035	-0.324475	0.420006
Zn32	Zn	0.843035	-0.074475	0.670006
Zn33	Zn	0.093031	-0.824494	0.080432
Zn34	Zn	0.343031	-0.574494	0.330432
Zn35	Zn	0.593031	-0.324494	0.580432
Zn36	Zn	0.843031	-0.074494	0.830432
O37	O	0.194690	-0.818611	-0.060649
O38	O	0.444690	-0.568611	0.189351
O39	O	0.694690	-0.318611	0.439351
O40	O	0.944690	-0.068611	0.689351
C41	C	-0.034634	-0.829972	0.000204
C42	C	0.215366	-0.579972	0.250204
C43	C	0.465366	-0.329972	0.500204
C44	C	0.715366	-0.079972	0.750204
C45	C	-0.112138	-0.828831	0.000197
C46	C	0.137862	-0.578831	0.250197
C47	C	0.387862	-0.328831	0.500197
C48	C	0.637862	-0.078831	0.750197
C49	C	0.098520	-0.696818	0.000188
C50	C	0.348520	-0.446818	0.250188
C51	C	0.598520	-0.196818	0.500188
C52	C	0.848520	0.053182	0.750188
C53	C	0.097380	-0.619313	0.000169
C54	C	0.347380	-0.369313	0.250169
C55	C	0.597380	-0.119313	0.500169
C56	C	0.847380	0.130687	0.750169
C57	C	0.087546	-0.952151	0.000252
C58	C	0.337546	-0.702151	0.250252
C59	C	0.587546	-0.452151	0.500252
C60	C	0.837546	-0.202151	0.750252
C61	C	0.088687	-1.029656	0.000276
C62	C	0.338687	-0.779656	0.250276
C63	C	0.588687	-0.529656	0.500276
C64	C	0.838687	-0.279656	0.750276
C65	C	-0.157062	-0.891922	0.000209
C66	C	0.092938	-0.641922	0.250209
C67	C	0.342938	-0.391922	0.500209
C68	C	0.592938	-0.141922	0.750209
C69	C	-0.229886	-0.890850	0.000220
C70	C	0.020114	-0.640850	0.250220
C71	C	0.270114	-0.390850	0.500220
C72	C	0.520114	-0.140850	0.750220
C73	C	-0.257782	-0.826684	0.000206
C74	C	-0.007782	-0.576684	0.250206
C75	C	0.242218	-0.326684	0.500206
C76	C	0.492218	-0.076684	0.750206
C77	C	-0.212849	-0.763585	0.000198
C78	C	0.037151	-0.513585	0.250198
C79	C	0.287151	-0.263585	0.500198
C80	C	0.537151	-0.013585	0.750198
C81	C	-0.140026	-0.764658	0.000194
C82	C	0.109974	-0.514658	0.250194
C83	C	0.359974	-0.264658	0.500194
C84	C	0.609974	-0.014658	0.750194
N85	N	-0.365786	-0.777632	-0.041244
N86	N	-0.115786	-0.527632	0.208756
N87	N	0.134214	-0.277632	0.458756
N88	N	0.384214	-0.027632	0.708756
N89	N	-0.434965	-0.776617	-0.041242
N90	N	-0.184965	-0.526617	0.208758
N91	N	0.065035	-0.276617	0.458758
N92	N	0.315035	-0.026617	0.708758
C93	C	-0.477191	-0.823446	0.000220
C94	C	-0.227191	-0.573446	0.250220
C95	C	0.022809	-0.323446	0.500220
C96	C	0.272809	-0.073446	0.750220
N97	N	-0.447627	-0.871340	0.041669
N98	N	-0.197627	-0.621340	0.291669
N99	N	0.052373	-0.371340	0.541669
N100	N	0.302373	-0.121340	0.791669
N101	N	-0.378442	-0.872357	0.041664
N102	N	-0.128442	-0.622357	0.291664
N103	N	0.121558	-0.372357	0.541664
N104	N	0.371558	-0.122357	0.791664
C105	C	-0.336745	-0.825513	0.000210
C106	C	-0.086745	-0.575513	0.250210
C107	C	0.163255	-0.325513	0.500210
C108	C	0.413255	-0.075513	0.750210
C109	C	-0.601079	-0.885379	0.000245
C110	C	-0.351079	-0.635379	0.250245
C111	C	-0.101079	-0.385379	0.500245
C112	C	0.148921	-0.135379	0.750245
C113	C	-0.673904	-0.884305	0.000261
C114	C	-0.423904	-0.634305	0.250261
C115	C	-0.173904	-0.384305	0.500261
C116	C	0.076096	-0.134305	0.750261
C117	C	-0.656865	-0.757038	0.000231
C118	C	-0.406865	-0.507038	0.250231
C119	C	-0.156865	-0.257038	0.500231
C120	C	0.093135	-0.007038	0.750231
C121	C	-0.584042	-0.758114	0.000222
C122	C	-0.334042	-0.508114	0.250222
C123	C	-0.084042	-0.258114	0.500222
C124	C	0.165958	-0.008114	0.750222
C125	C	-0.556154	-0.822286	0.000226
C126	C	-0.306154	-0.572286	0.250226
C127	C	-0.056154	-0.322286	0.500226
C128	C	0.193846	-0.072286	0.750226
C129	C	0.220700	-0.818997	0.000236
C130	C	0.470700	-0.568997	0.250236
C131	C	0.720700	-0.318997	0.500236
C132	C	0.970700	-0.068997	0.750236
C133	C	0.298204	-0.820138	0.000247
C134	C	0.548204	-0.570138	0.250247
C135	C	0.798204	-0.320138	0.500247
C136	C	1.048204	-0.070138	0.750247
N137	N	0.093038	-0.824468	-0.189481
N138	N	0.343038	-0.574468	0.060519
N139	N	0.593038	-0.324468	0.310519
N140	N	0.843038	-0.074468	0.560519
C141	C	0.160470	-0.574389	0.000188
C142	C	0.410470	-0.324389	0.250188
C143	C	0.660470	-0.074389	0.500188
C144	C	0.910470	0.175611	0.750188
C145	C	0.159399	-0.501566	0.000196
C146	C	0.409399	-0.251566	0.250196
C147	C	0.659399	-0.001566	0.500196
C148	C	0.909399	0.248434	0.750196
C149	C	0.095233	-0.473669	0.000199
C150	C	0.345233	-0.223669	0.250199
C151	C	0.595233	0.026331	0.500199
C152	C	0.845233	0.276331	0.750199
C153	C	0.032133	-0.518603	0.000175
C154	C	0.282133	-0.268603	0.250175
C155	C	0.532133	-0.018603	0.500175
C156	C	0.782133	0.231397	0.750175
C157	C	0.033207	-0.591425	0.000160
C158	C	0.283207	-0.341425	0.250160
C159	C	0.533207	-0.091425	0.500160
C160	C	0.783207	0.158575	0.750160
N161	N	0.046184	-0.365694	0.041663
N162	N	0.296184	-0.115694	0.291663
N163	N	0.546184	0.134306	0.541663
N164	N	0.796184	0.384306	0.791663
N165	N	0.045169	-0.296515	0.041679
N166	N	0.295169	-0.046515	0.291679
N167	N	0.545169	0.203485	0.541679
N168	N	0.795169	0.453485	0.791679
C169	C	0.091994	-0.254260	0.000243
C170	C	0.341994	-0.004260	0.250243
C171	C	0.591994	0.245740	0.500243
C172	C	0.841994	0.495740	0.750243
N173	N	0.139884	-0.283796	-0.041200
N174	N	0.389884	-0.033796	0.208800
N175	N	0.639884	0.216204	0.458800
N176	N	0.889884	0.466204	0.708800
N177	N	0.140902	-0.352981	-0.041213
N178	N	0.390902	-0.102981	0.208787
N179	N	0.640902	0.147019	0.458787
N180	N	0.890902	0.397019	0.708787
C181	C	0.094062	-0.394707	0.000215
C182	C	0.344062	-0.144707	0.250215
C183	C	0.594062	0.105293	0.500215
C184	C	0.844062	0.355293	0.750215
C185	C	0.153928	-0.130372	0.000270
C186	C	0.403928	0.119628	0.250270
C187	C	0.653928	0.369628	0.500270
C188	C	0.903928	0.619628	0.750270
C189	C	0.152853	-0.057547	0.000274
C190	C	0.402853	0.192453	0.250274
C191	C	0.652853	0.442453	0.500274
C192	C	0.902853	0.692453	0.750274
C193	C	0.025586	-0.074586	0.000261
C194	C	0.275586	0.175414	0.250261
C195	C	0.525586	0.425414	0.500261
C196	C	0.775586	0.675414	0.750261
C197	C	0.026662	-0.147409	0.000250
C198	C	0.276662	0.102591	0.250250
C199	C	0.526662	0.352591	0.500250
C200	C	0.776662	0.602591	0.750250
C201	C	0.090835	-0.175298	0.000258
C202	C	0.340835	0.074702	0.250258
C203	C	0.590835	0.324702	0.500258
C204	C	0.840835	0.574702	0.750258
C205	C	0.135258	-0.866721	-0.771741
C206	C	0.385258	-0.616721	-0.521741
C207	C	0.635258	-0.366721	-0.271741
C208	C	0.885258	-0.116721	-0.021741
C209	C	0.135265	-0.866713	-0.695096
C210	C	0.385265	-0.616713	-0.445096
C211	C	0.635265	-0.366713	-0.195096
C212	C	0.885265	-0.116713	0.054904
C213	C	0.093024	-0.824500	-0.656794
C214	C	0.343024	-0.574500	-0.406794
C215	C	0.593024	-0.324500	-0.156794
C216	C	0.843024	-0.074500	0.093206
C217	C	0.050785	-0.782277	-0.695143
C218	C	0.300785	-0.532277	-0.445143
C219	C	0.550785	-0.282277	-0.195143
C220	C	0.800785	-0.032277	0.054857
C221	C	0.050785	-0.782281	-0.771786
C222	C	0.300785	-0.532281	-0.521786
C223	C	0.550785	-0.282281	-0.271786
C224	C	0.800785	-0.032281	-0.021786
N225	N	0.031863	-0.822809	-0.536465
N226	N	0.281863	-0.572809	-0.286465
N227	N	0.531863	-0.322809	-0.036465
N228	N	0.781863	-0.072809	0.213535
N229	N	0.031866	-0.822810	-0.463657
N230	N	0.281866	-0.572810	-0.213657
N231	N	0.531866	-0.322810	0.036343
N232	N	0.781866	-0.072810	0.286343
C233	C	0.093024	-0.824487	-0.425872
C234	C	0.343024	-0.574487	-0.175872
C235	C	0.593024	-0.324487	0.074128
C236	C	0.843024	-0.074487	0.324128
N237	N	0.154180	-0.826176	-0.463645
N238	N	0.404180	-0.576176	-0.213645
N239	N	0.654180	-0.326176	0.036355
N240	N	0.904180	-0.076176	0.286355
N241	N	0.154177	-0.826179	-0.536460
N242	N	0.404177	-0.576179	-0.286460
N243	N	0.654177	-0.326179	-0.036460
N244	N	0.904177	-0.076179	0.213540
C245	C	0.093020	-0.824492	-0.573687
C246	C	0.343020	-0.574492	-0.323687
C247	C	0.593020	-0.324492	-0.073687
C248	C	0.843020	-0.074492	0.176313
C249	C	0.135271	-0.866695	-0.304425
C250	C	0.385271	-0.616695	-0.054425
C251	C	0.635271	-0.366695	0.195575
C252	C	0.885271	-0.116695	0.445575
C253	C	0.135279	-0.866683	-0.227779
C254	C	0.385279	-0.616683	0.022221
C255	C	0.635279	-0.366683	0.272221
C256	C	0.885279	-0.116683	0.522221
C257	C	0.050793	-0.782251	-0.227826
C258	C	0.300793	-0.532251	0.022174
C259	C	0.550793	-0.282251	0.272174
C260	C	0.800793	-0.032251	0.522174
C261	C	0.050791	-0.782259	-0.304471
C262	C	0.300791	-0.532259	-0.054471
C263	C	0.550791	-0.282259	0.195529
C264	C	0.800791	-0.032259	0.445529
C265	C	0.093029	-0.824485	-0.342766
C266	C	0.343029	-0.574485	-0.092766
C267	C	0.593029	-0.324485	0.157234
C268	C	0.843029	-0.074485	0.407234
N269	N	0.093023	-0.824506	0.189919
N270	N	0.343023	-0.574506	0.439919
N271	N	0.593023	-0.324506	0.689919
N272	N	0.843023	-0.074506	0.939919
H273	H	-0.134360	-0.944176	0.000214
H274	H	0.115640	-0.694176	0.250214
H275	H	0.365640	-0.444176	0.500214
H276	H	0.615640	-0.194176	0.750214
H277	H	0.016395	-0.747887	-0.335687
H278	H	0.266395	-0.497887	-0.085687
H279	H	0.516395	-0.247887	0.164313
H280	H	0.766395	0.002113	0.414313
Cl281	Cl	-0.691928	-0.676371	0.000216
Cl282	Cl	-0.441928	-0.426371	0.250216
Cl283	Cl	-0.191928	-0.176371	0.500216
Cl284	Cl	0.058072	0.073629	0.750216
H285	H	-0.547464	-0.706738	0.000208
H286	H	-0.297464	-0.456738	0.250208
H287	H	-0.047464	-0.206738	0.500208
H288	H	0.202536	0.043262	0.750208
H289	H	-0.266470	-0.942228	0.000233
H290	H	-0.016470	-0.692228	0.250233
H291	H	0.233530	-0.442228	0.500233
H292	H	0.483530	-0.192228	0.750233
H293	H	0.212725	-0.597091	0.000196
H294	H	0.462725	-0.347091	0.250196
H295	H	0.712725	-0.097091	0.500196
H296	H	0.962725	0.152909	0.750196
H297	H	0.169653	-0.901103	-0.802916
H298	H	0.419653	-0.651103	-0.552916
H299	H	0.669653	-0.401103	-0.302916
H300	H	0.919653	-0.151103	-0.052916
Cl301	Cl	-0.730382	-0.963627	0.000280
Cl302	Cl	-0.480382	-0.713627	0.250280
Cl303	Cl	-0.230382	-0.463627	0.500280
Cl304	Cl	0.019618	-0.213627	0.750280
Cl305	Cl	-0.247918	-0.682919	0.000185
Cl306	Cl	0.002082	-0.432919	0.250185
Cl307	Cl	0.252082	-0.182919	0.500185
Cl308	Cl	0.502082	0.067081	0.750185
H309	H	0.169662	-0.901088	-0.663874
H310	H	0.419662	-0.651088	-0.413874
H311	H	0.669662	-0.401088	-0.163874
H312	H	0.919662	-0.151088	0.086126
H313	H	-0.103449	-0.713281	0.000184
H314	H	0.146551	-0.463281	0.250184
H315	H	0.396551	-0.213281	0.500184
H316	H	0.646551	0.036719	0.750184
H317	H	0.016394	-0.747906	-0.663952
H318	H	0.266394	-0.497906	-0.413952
H319	H	0.516394	-0.247906	-0.163952
H320	H	0.766394	0.002094	0.086048
H321	H	0.210776	-0.464982	0.000210
H322	H	0.460776	-0.214982	0.250210
H323	H	0.710776	0.035018	0.500210
H324	H	0.960776	0.285018	0.750210
Cl325	Cl	-0.002316	-0.729207	-0.819987
Cl326	Cl	0.247684	-0.479207	-0.569987
Cl327	Cl	0.497684	-0.229207	-0.319987
Cl328	Cl	0.747684	0.020793	-0.069987
Cl329	Cl	0.188371	-0.919775	-0.352570
Cl330	Cl	0.438371	-0.669775	-0.102570
Cl331	Cl	0.688371	-0.419775	0.147430
Cl332	Cl	0.938371	-0.169775	0.397430
H333	H	-0.020111	-0.495885	0.000188
H334	H	0.229889	-0.245885	0.250188
H335	H	0.479889	0.004115	0.500188
H336	H	0.729889	0.254115	0.750188
Cl337	Cl	-0.046114	-0.647904	0.000136
Cl338	Cl	0.203886	-0.397904	0.250136
Cl339	Cl	0.453886	-0.147904	0.500136
Cl340	Cl	0.703886	0.102096	0.750136
H341	H	0.169677	-0.901057	-0.196564
H342	H	0.419677	-0.651057	0.053436
H343	H	0.669677	-0.401057	0.303436
H344	H	0.919677	-0.151057	0.553436
Cl345	Cl	-0.002306	-0.729176	-0.179682
Cl346	Cl	0.247694	-0.479176	0.070318
Cl347	Cl	0.497694	-0.229176	0.320318
Cl348	Cl	0.747694	0.020824	0.570318
Cl349	Cl	-0.052657	-0.203888	0.000230
Cl350	Cl	0.197343	0.046112	0.250230
Cl351	Cl	0.447343	0.296112	0.500230
Cl352	Cl	0.697343	0.546112	0.750230
H353	H	0.206181	-0.153080	0.000267
H354	H	0.456181	0.096920	0.250267
H355	H	0.706181	0.346920	0.500267
H356	H	0.956181	0.596920	0.750267
H357	H	-0.026659	-0.051874	0.000309
H358	H	0.223341	0.198126	0.250309
H359	H	0.473341	0.448126	0.500309
H360	H	0.723341	0.698126	0.750309
Cl361	Cl	-0.566016	-0.966051	0.000245
Cl362	Cl	-0.316016	-0.716051	0.250245
Cl363	Cl	-0.066016	-0.466051	0.500245
Cl364	Cl	0.183984	-0.216051	0.750245
H365	H	0.204232	-0.020970	0.000285
H366	H	0.454232	0.229030	0.250285
H367	H	0.704232	0.479030	0.500285
H368	H	0.954232	0.729030	0.750285
