data_functionalizedCrystal
_audit_creation_method	'MofGen! by Chris Wilmer'
_symmetry_space_group_name_H-M	'P1'
_symmetry_Int_Tables_number	1
_symmetry_cell_setting	triclinic
loop_
_symmetry_equiv_pos_as_xyz
  x,y,z
_cell_length_a	10.723022
_cell_length_b	10.723024
_cell_length_c	7.088929
_cell_angle_alpha	83.718137
_cell_angle_beta	96.263369
_cell_angle_gamma	84.467548
loop_
_atom_site_label
_atom_site_type_symbol
_atom_site_fract_x
_atom_site_fract_y
_atom_site_fract_z
O1	O	1.644490	0.187735	-0.158970
O2	O	1.281337	0.204491	-0.158977
O3	O	1.471291	0.014536	-0.158966
O4	O	1.454537	0.377690	-0.158981
O5	O	1.496676	-0.010907	0.159010
O6	O	1.306722	0.179048	0.159000
O7	O	1.669875	0.162292	0.159006
Cu8	Cu	1.490617	0.168346	0.188037
Cu9	Cu	1.460596	0.198436	-0.188007
O10	O	1.479921	0.352246	0.158996
C11	C	1.247530	0.190550	0.000011
C12	C	1.108975	0.186904	0.000009
C13	C	1.060415	0.077364	0.000012
C14	C	0.917212	0.073592	0.000010
C15	C	1.482764	-0.044685	0.000020
C16	C	1.479116	-0.183239	0.000013
C17	C	1.585404	-0.258222	0.000012
C18	C	1.581635	-0.401425	0.000005
C19	C	1.703682	0.176233	0.000014
C20	C	1.842236	0.179880	0.000004
C21	C	1.468448	0.411468	0.000006
C22	C	1.472095	0.550023	-0.000000
N23	N	1.511740	0.147182	0.452526
N24	N	1.439482	0.219591	-0.452496
H25	H	0.884040	0.273672	0.000012
H26	H	1.586642	0.072150	0.534186
H27	H	1.044532	0.277893	-0.000004
H28	H	1.124857	-0.013625	0.000007
H29	H	1.364594	0.294627	0.465853
H30	H	0.875396	-0.020192	-0.000036
H31	H	1.679191	-0.216401	0.000025
H32	H	1.385329	-0.225059	-0.000001
H33	H	1.381101	-0.385553	0.000014
F34	F	1.700572	-0.485640	0.000018
