data_functionalizedCrystal
_audit_creation_method	'MofGen! by Chris Wilmer'
_symmetry_space_group_name_H-M	'P1'
_symmetry_Int_Tables_number	1
_symmetry_cell_setting	triclinic
loop_
_symmetry_equiv_pos_as_xyz
  x,y,z
_cell_length_a	10.654541
_cell_length_b	15.995350
_cell_length_c	9.130307
_cell_angle_alpha	89.998938
_cell_angle_beta	89.999822
_cell_angle_gamma	83.988152
loop_
_atom_site_label
_atom_site_type_symbol
_atom_site_fract_x
_atom_site_fract_y
_atom_site_fract_z
O1	O	1.666303	0.117592	-0.121747
O2	O	1.300677	0.128798	-0.121759
O3	O	1.493484	0.001365	-0.121751
O4	O	1.473495	0.245024	-0.121754
O5	O	1.493478	0.001364	0.121848
O6	O	1.300671	0.128797	0.121840
O7	O	1.666296	0.117590	0.121852
Cu8	Cu	1.483483	0.123193	0.144089
Cu9	Cu	1.483490	0.123195	-0.143995
O10	O	1.473489	0.245023	0.121845
C11	C	1.253887	0.127975	0.000039
C12	C	1.114475	0.125514	0.000034
C13	C	1.084514	0.277895	0.000014
C14	C	1.004039	0.352926	-0.000002
C15	C	0.873052	0.350609	-0.000003
C16	C	0.822537	0.273253	0.000016
C17	C	0.903011	0.198222	0.000032
C18	C	1.034000	0.200547	0.000029
C19	C	0.932972	0.045843	0.000063
C20	C	1.063961	0.048158	0.000054
C21	C	0.882458	-0.031513	0.000082
C22	C	0.962933	-0.106546	0.000087
C23	C	1.093928	-0.104226	0.000087
C24	C	1.144435	-0.026873	0.000070
C25	C	1.492655	-0.029835	0.000046
C26	C	1.490177	-0.122800	0.000037
C27	C	1.481280	-0.460599	0.000042
C28	C	1.343966	-0.413961	-0.000509
C29	C	1.346444	-0.317257	0.000040
C30	C	1.485693	-0.293013	0.000039
C31	C	1.553418	-0.333698	0.139146
C32	C	1.549968	-0.430354	0.139262
C33	C	1.552812	-0.430694	-0.137756
C34	C	1.552779	-0.333749	-0.139594
C35	C	1.488195	-0.198301	0.000042
C36	C	1.478783	-0.555311	0.000049
C37	C	1.713087	0.118413	0.000051
C38	C	1.852498	0.120874	0.000047
C39	C	1.474318	0.276223	0.000045
C40	C	1.476796	0.369188	0.000044
N41	N	1.483487	0.123192	0.346712
N42	N	1.483496	0.123190	-0.346618
C43	C	1.654287	0.010383	0.346709
C44	C	1.739695	-0.046019	0.423374
C45	C	1.739708	-0.046019	0.576707
C46	C	1.654300	0.010387	0.653379
C47	C	1.568892	0.066788	0.576714
C48	C	1.568891	0.066785	0.423377
C49	C	1.398088	0.179592	0.576717
C50	C	1.398079	0.179598	0.423384
C51	C	1.312680	0.235998	0.653389
C52	C	1.227276	0.292405	0.576724
C53	C	1.227268	0.292404	0.423381
C54	C	1.312671	0.236000	0.346718
H55	H	1.251090	-0.024976	0.000052
H56	H	1.506375	-0.305590	0.242665
H57	H	1.289324	-0.433873	0.098688
N58	N	1.058526	0.436356	-0.000040
H59	H	0.987668	0.483534	-0.000050
H60	H	1.112221	0.440645	0.090263
H61	H	0.807528	0.411706	-0.000006
H62	H	1.292845	-0.289704	0.099924
H63	H	1.312676	0.235997	0.221866
H64	H	1.507920	-0.451494	-0.243190
H65	H	1.654296	0.010385	0.221856
N66	N	1.487276	-0.297981	-0.275918
H67	H	1.414450	-0.255563	-0.247364
H68	H	1.549107	-0.269622	-0.337651
N69	N	1.831779	-0.106862	0.340654
H70	H	1.887369	-0.074525	0.277016
H71	H	1.885801	-0.142589	0.412563
H72	H	1.312689	0.235991	0.778241
N73	N	1.687293	-0.312628	-0.150732
H74	H	1.706739	-0.276192	-0.065036
H75	H	1.746529	-0.366222	-0.149538
H76	H	1.655720	-0.318979	0.144318
H77	H	1.159444	-0.165325	0.000106
N78	N	1.484548	-0.454986	0.276996
H79	H	1.458216	-0.403077	0.337064
H80	H	1.407470	-0.483385	0.249923
H81	H	1.809250	-0.091950	0.639128
H82	H	1.650782	-0.462017	0.145572
H83	H	0.715878	0.271373	0.000032
N84	N	0.741180	-0.034018	0.000110
H85	H	0.697863	0.025251	0.000098
H86	H	0.715609	-0.064535	-0.090183
H87	H	1.654053	-0.461868	-0.138691
N88	N	1.135158	0.353230	0.659414
H89	H	1.148119	0.344666	0.768183
H90	H	1.149648	0.412723	0.632621
N91	N	1.135136	0.353236	0.340707
H92	H	1.149580	0.412755	0.367391
H93	H	1.148126	0.344609	0.231961
N94	N	1.225792	0.280393	-0.000011
H95	H	1.245582	0.340780	-0.000031
H96	H	1.263141	0.251005	0.090299
N97	N	0.908452	-0.189972	0.000131
H98	H	0.813261	-0.180054	0.000142
H99	H	0.937877	-0.222847	-0.090168
H100	H	1.293208	-0.289143	-0.099677
N101	N	1.271252	-0.438929	-0.132635
H102	H	1.315985	-0.423661	-0.224852
H103	H	1.265656	-0.501559	-0.130577
H104	H	1.654306	0.010376	0.778231
