data_functionalizedCrystal
_audit_creation_method	'MofGen! by Chris Wilmer'
_symmetry_space_group_name_H-M	'P1'
_symmetry_Int_Tables_number	1
_symmetry_cell_setting	triclinic
loop_
_symmetry_equiv_pos_as_xyz
  x,y,z
_cell_length_a	18.101395
_cell_length_b	19.077105
_cell_length_c	19.076919
_cell_angle_alpha	89.923776
_cell_angle_beta	92.272317
_cell_angle_gamma	92.272502
loop_
_atom_site_label
_atom_site_type_symbol
_atom_site_fract_x
_atom_site_fract_y
_atom_site_fract_z
Zn1	Zn	-0.358271	-1.058231	-0.440421
Zn2	Zn	-0.477344	-1.062857	-0.322915
Zn3	Zn	-0.348351	-0.945450	-0.318214
Zn4	Zn	-0.476897	-0.940679	-0.435668
O5	O	-0.415216	-1.001804	-0.379305
O6	O	-0.378405	-1.157176	-0.428790
O7	O	-0.456268	-1.051216	-0.223960
O8	O	-0.246037	-0.960470	-0.334447
O9	O	-0.465887	-1.160575	-0.342459
O10	O	-0.253326	-1.043330	-0.424232
O11	O	-0.361497	-0.964957	-0.220507
O12	O	-0.361064	-0.846486	-0.329838
O13	O	-0.465126	-0.952340	-0.534630
O14	O	-0.455506	-0.842981	-0.416131
O15	O	-0.377972	-1.038704	-0.538122
O16	O	-0.580914	-1.046590	-0.337850
O17	O	-0.580586	-0.956826	-0.420689
C18	C	-0.407161	-0.819237	-0.371959
C19	C	-0.403733	-0.741133	-0.368833
C20	C	-0.607621	-1.001711	-0.379280
C21	C	-0.689937	-1.001735	-0.379296
C22	C	-0.422606	-0.994474	-0.562585
C23	C	-0.425755	-0.991350	-0.640688
C24	C	-0.989036	-1.001887	-0.379340
C25	C	-0.957547	-0.945531	-0.431600
C26	C	-0.871910	-0.945280	-0.431419
C27	C	-0.840650	-1.001811	-0.379319
C28	C	-0.867911	-0.984741	-0.304458
C29	C	-0.953554	-0.984379	-0.304770
C30	C	-0.961424	-1.075459	-0.401293
C31	C	-0.875820	-1.074956	-0.402900
C32	C	-0.756788	-1.001770	-0.379302
C33	C	-1.072898	-1.001927	-0.379351
C34	C	-0.222060	-1.001916	-0.379345
C35	C	-0.139749	-1.001964	-0.379363
C36	C	-0.423303	-1.185084	-0.386679
C37	C	-0.426749	-1.263188	-0.389822
C38	C	-0.451363	-0.702636	-0.412222
C39	C	-0.448133	-0.629249	-0.409288
C40	C	-0.397276	-0.594361	-0.362962
C41	C	-0.349642	-0.632863	-0.319571
C42	C	-0.352869	-0.706248	-0.322509
C43	C	-0.382341	-0.375075	-0.349369
C44	C	-0.379119	-0.301684	-0.346433
C45	C	-0.477610	-0.298076	-0.436152
C46	C	-0.480836	-0.371463	-0.439082
C47	C	-0.433198	-0.409959	-0.395694
N48	N	-0.393975	-0.519348	-0.359960
N49	N	-0.436497	-0.484970	-0.398700
C50	C	-0.381860	-1.034846	-0.679200
C51	C	-0.384816	-1.031902	-0.752586
C52	C	-0.431671	-0.985466	-0.787458
C53	C	-0.475568	-0.941966	-0.748941
C54	C	-0.472608	-0.944906	-0.675556
C55	C	-0.445387	-0.971847	-1.006740
C56	C	-0.448346	-0.968911	-1.080130
C57	C	-0.357593	-1.058847	-1.083770
C58	C	-0.354640	-1.061786	-1.010384
C59	C	-0.398533	-1.018283	-0.971872
N60	N	-0.434696	-0.982458	-0.862471
N61	N	-0.395505	-1.021289	-0.896861
C62	C	-0.407803	-1.009146	-0.196739
C63	C	-0.404451	-1.012406	-0.118642
H64	H	-0.853628	-0.955615	-0.486834
H65	H	-0.321856	-1.094263	-1.115133
H66	H	-0.486918	-0.597908	-0.444619
C67	C	-0.493672	-0.924002	-0.964383
H68	H	-0.485196	-0.932395	-0.915683
H69	H	-0.544367	-0.933775	-0.976814
H70	H	-0.481231	-0.876312	-0.974512
C71	C	-0.840380	-1.038617	-0.250240
H72	H	-0.857494	-1.027312	-0.205353
H73	H	-0.787829	-1.037578	-0.248448
H74	H	-0.858846	-1.084202	-0.263466
H75	H	-0.513715	-0.904154	-0.777340
C76	C	-0.330316	-1.085923	-0.640847
H77	H	-0.304591	-1.111399	-0.674296
H78	H	-0.358835	-1.117672	-0.613445
H79	H	-0.295706	-1.060201	-0.611146
C80	C	-0.507309	-0.741011	-0.463176
H81	H	-0.502417	-0.790231	-0.458707
H82	H	-0.497929	-0.727112	-0.509927
H83	H	-0.556103	-0.729371	-0.452318
H84	H	-0.308230	-0.604451	-0.281854
C85	C	-0.520891	-0.897063	-0.633190
H86	H	-0.512412	-0.905459	-0.584490
H87	H	-0.571587	-0.906832	-0.645617
H88	H	-0.508447	-0.849373	-0.643317
C89	C	-0.976521	-0.911846	-0.280122
H90	H	-0.933525	-0.882878	-0.270017
H91	H	-1.004259	-0.917100	-0.239073
H92	H	-1.005936	-0.890806	-0.316083
H93	H	-0.858335	-1.087883	-0.458008
H94	H	-0.522250	-0.399864	-0.476804
C95	C	-0.300475	-0.748595	-0.274783
H96	H	-0.269728	-0.717307	-0.246768
H97	H	-0.270599	-0.776164	-0.302866
H98	H	-0.328776	-0.778431	-0.245260
H99	H	-0.981841	-1.117410	-0.363267
C100	C	-0.529999	-0.255730	-0.483880
H101	H	-0.520791	-0.207027	-0.475502
H102	H	-0.579851	-0.268146	-0.473998
H103	H	-0.521664	-0.265884	-0.531594
H104	H	-0.980878	-0.955734	-0.487188
H105	H	-0.316487	-1.099601	-0.981996
C106	C	-0.323170	-0.263308	-0.295476
H107	H	-0.295256	-0.296744	-0.270061
H108	H	-0.348951	-0.235888	-0.263664
H109	H	-0.290778	-0.233623	-0.321274
H110	H	-0.349074	-1.067323	-0.783940
C111	C	-0.982759	-0.872222	-0.411868
H112	H	-1.012391	-0.875811	-0.371919
H113	H	-1.010822	-0.853394	-0.450062
H114	H	-0.940613	-0.842237	-0.401435
C115	C	-0.329947	-0.417414	-0.301643
H116	H	-0.339143	-0.466117	-0.310030
H117	H	-0.338273	-0.407262	-0.253930
H118	H	-0.280095	-0.404993	-0.311535
C119	C	-0.840347	-0.871534	-0.411447
H120	H	-0.879873	-0.841614	-0.403406
H121	H	-0.811991	-0.853133	-0.448579
H122	H	-0.809714	-0.874359	-0.370019
C123	C	-0.981489	-1.037629	-0.250150
H124	H	-0.940494	-1.059383	-0.227865
H125	H	-1.013029	-1.072309	-0.272848
H126	H	-1.008167	-1.014035	-0.216026
H127	H	-0.843494	-0.931637	-0.285943
C128	C	-0.499881	-0.917825	-1.118491
H129	H	-0.495361	-0.922311	-1.167712
H130	H	-0.486471	-0.871101	-1.104567
H131	H	-0.549611	-0.928559	-1.106869
C132	C	-0.994526	-1.097267	-0.473993
H133	H	-1.025499	-1.061702	-0.491639
H134	H	-1.022802	-1.140007	-0.470012
H135	H	-0.955694	-1.103528	-0.505187
H136	H	-0.854786	-1.118927	-0.367848
