data_functionalizedCrystal
_audit_creation_method	'MofGen! by Chris Wilmer'
_symmetry_space_group_name_H-M	'P1'
_symmetry_Int_Tables_number	1
_symmetry_cell_setting	triclinic
loop_
_symmetry_equiv_pos_as_xyz
  x,y,z
_cell_length_a	19.188905
_cell_length_b	19.188930
_cell_length_c	13.596369
_cell_angle_alpha	90.005514
_cell_angle_beta	90.013034
_cell_angle_gamma	83.139668
loop_
_atom_site_label
_atom_site_type_symbol
_atom_site_fract_x
_atom_site_fract_y
_atom_site_fract_z
O1	O	0.926158	0.087080	0.081964
O2	O	1.426158	0.587080	0.581964
O3	O	0.722844	0.098832	0.081932
O4	O	1.222844	0.598832	0.581932
O5	O	0.830368	-0.008700	0.081930
O6	O	1.330368	0.491300	0.581930
O7	O	0.818634	0.194612	0.081967
O8	O	1.318634	0.694612	0.581967
O9	O	0.830355	-0.008694	-0.081653
O10	O	1.330355	0.491306	0.418347
O11	O	0.722831	0.098838	-0.081651
O12	O	1.222831	0.598838	0.418349
O13	O	0.926145	0.087086	-0.081618
O14	O	1.426145	0.587086	0.418382
Zn15	Zn	0.824486	0.092963	-0.107607
Zn16	Zn	1.324486	0.592963	0.392393
Zn17	Zn	0.824503	0.092955	0.107921
Zn18	Zn	1.324503	0.592955	0.607921
O19	O	0.818621	0.194618	-0.081616
O20	O	1.318621	0.694618	0.418384
C21	C	0.696826	0.098458	0.000136
C22	C	1.196826	0.598458	0.500136
C23	C	0.619321	0.097324	0.000123
C24	C	1.119321	0.597324	0.500123
C25	C	0.829982	-0.034708	0.000136
C26	C	1.329982	0.465292	0.500136
C27	C	0.828841	-0.112213	0.000127
C28	C	1.328841	0.387787	0.500127
C29	C	0.582936	0.096776	0.089295
C30	C	1.082936	0.596776	0.589295
C31	C	0.510113	0.095703	0.089307
C32	C	1.010113	0.595703	0.589307
C33	C	0.473678	0.095164	0.000142
C34	C	0.973678	0.595164	0.500142
C35	C	0.510071	0.095716	-0.089041
C36	C	1.010071	0.595716	0.410959
C37	C	0.582892	0.096796	-0.089050
C38	C	1.082892	0.596796	0.410950
N39	N	0.364653	0.053738	-0.066222
N40	N	0.864653	0.553738	0.433778
N41	N	0.295476	0.052710	-0.066207
N42	N	0.795476	0.552710	0.433793
C43	C	0.254272	0.091911	0.000166
C44	C	0.754272	0.591911	0.500166
N45	N	0.284859	0.132170	0.066537
N46	N	0.784859	0.632170	0.566537
N47	N	0.354043	0.133194	0.066525
N48	N	0.854043	0.633194	0.566525
C49	C	0.394716	0.093993	0.000143
C50	C	0.894716	0.593993	0.500143
C51	C	0.138923	0.090201	0.089356
C52	C	0.638923	0.590201	0.589356
C53	C	0.066098	0.089132	0.089365
C54	C	0.566098	0.589132	0.589365
C55	C	0.066058	0.089138	-0.088986
C56	C	0.566058	0.589138	0.411014
C57	C	0.138882	0.090213	-0.088992
C58	C	0.638882	0.590213	0.411008
C59	C	0.175310	0.090742	0.000182
C60	C	0.675310	0.590742	0.500182
C61	C	0.891933	-0.157142	0.000132
C62	C	1.391933	0.342858	0.500132
C63	C	0.890861	-0.229966	0.000148
C64	C	1.390861	0.270034	0.500148
C65	C	0.826694	-0.257857	0.000139
C66	C	1.326694	0.242143	0.500139
C67	C	0.763594	-0.212917	0.000139
C68	C	1.263594	0.287083	0.500139
C69	C	0.764668	-0.140095	0.000133
C70	C	1.264668	0.359905	0.500133
N71	N	0.777642	-0.365855	-0.055540
N72	N	1.277642	0.134145	0.444460
N73	N	0.776626	-0.435034	-0.055536
N74	N	1.276626	0.064966	0.444464
C75	C	0.823456	-0.477265	0.000158
C76	C	1.323456	0.022735	0.500158
N77	N	0.871350	-0.447706	0.055836
N78	N	1.371350	0.052294	0.555836
N79	N	0.872368	-0.378521	0.055829
N80	N	1.372368	0.121479	0.555829
C81	C	0.825523	-0.336819	0.000145
C82	C	1.325523	0.163181	0.500145
C83	C	0.885390	-0.601159	0.000181
C84	C	1.385390	-0.101159	0.500181
C85	C	0.884315	-0.673984	0.000203
C86	C	1.384315	-0.173984	0.500203
C87	C	0.757047	-0.656933	0.000184
C88	C	1.257047	-0.156933	0.500184
C89	C	0.758123	-0.584110	0.000172
C90	C	1.258123	-0.084110	0.500172
C91	C	0.822296	-0.556228	0.000166
C92	C	1.322296	-0.056228	0.500166
C93	C	0.952163	0.087460	0.000180
C94	C	1.452163	0.587460	0.500180
C95	C	1.029668	0.088594	0.000199
C96	C	1.529668	0.588594	0.500199
C97	C	0.819007	0.220626	0.000180
C98	C	1.319007	0.720626	0.500180
C99	C	0.820148	0.298131	0.000195
C100	C	1.320148	0.798131	0.500195
N101	N	0.824479	0.092968	-0.254699
N102	N	1.324479	0.592968	0.245301
C103	C	0.824482	0.092969	-0.343697
C104	C	1.324482	0.592969	0.156303
C105	C	0.824489	0.092965	-0.455348
C106	C	1.324489	0.592965	0.044652
C107	C	0.824498	0.092957	-0.544338
C108	C	1.324498	0.592957	-0.044338
C109	C	0.824506	0.092952	-0.655997
C110	C	1.324506	0.592952	-0.155997
N111	N	0.824515	0.092945	0.255013
N112	N	1.324515	0.592945	0.755013
H113	H	0.612592	0.097206	0.161907
H114	H	1.112592	0.597206	0.661907
Br115	Br	0.016618	0.088416	-0.209998
Br116	Br	0.516618	0.588416	0.290002
H117	H	0.036474	0.088690	0.161982
H118	H	0.536474	0.588690	0.661982
Br119	Br	0.669961	-0.694777	0.000181
Br120	Br	1.169961	-0.194777	0.500181
Br121	Br	0.679036	-0.079115	0.000129
Br122	Br	1.179036	0.420885	0.500129
H123	H	0.480401	0.095278	-0.161639
H124	H	0.980401	0.595278	0.338361
Br125	Br	0.188265	0.090955	-0.210017
Br126	Br	0.688265	0.590955	0.289983
H127	H	0.706747	-0.547527	0.000162
H128	H	1.206747	-0.047527	0.500162
H129	H	0.944187	-0.134445	0.000131
H130	H	1.444187	0.365555	0.500131
H131	H	0.612516	0.097242	-0.161667
H132	H	1.112516	0.597242	0.338333
H133	H	0.168584	0.090638	0.161967
H134	H	0.668584	0.590638	0.661967
H135	H	0.942239	-0.266555	0.000156
H136	H	1.442239	0.233445	0.500156
H137	H	0.711349	-0.235631	0.000133
H138	H	1.211349	0.264369	0.500133
Br139	Br	0.460722	0.094961	0.210334
Br140	Br	0.960722	0.594961	0.710334
Br141	Br	0.972480	-0.563314	0.000163
Br142	Br	1.472480	-0.063314	0.500163
Br143	Br	0.969948	-0.734962	0.000221
Br144	Br	1.469948	-0.234962	0.500221
