data_functionalizedCrystal
_audit_creation_method	'MofGen! by Chris Wilmer'
_symmetry_space_group_name_H-M	'P1'
_symmetry_Int_Tables_number	1
_symmetry_cell_setting	triclinic
loop_
_symmetry_equiv_pos_as_xyz
  x,y,z
_cell_length_a	17.699083
_cell_length_b	17.699083
_cell_length_c	16.176319
_cell_angle_alpha	89.992304
_cell_angle_beta	89.998611
_cell_angle_gamma	83.283015
loop_
_atom_site_label
_atom_site_type_symbol
_atom_site_fract_x
_atom_site_fract_y
_atom_site_fract_z
O1	O	1.004079	0.095713	-0.068632
O2	O	0.783700	0.108166	-0.068660
O3	O	0.900116	-0.008250	-0.068638
O4	O	0.887663	0.212129	-0.068654
O5	O	0.900100	-0.008257	0.068855
O6	O	0.783684	0.108158	0.068834
O7	O	1.004063	0.095706	0.068861
Cu8	Cu	0.893872	0.101931	0.081401
Cu9	Cu	0.893891	0.101940	-0.081200
O10	O	0.887647	0.212121	0.068839
C11	C	0.755495	0.107716	0.000084
C12	C	0.671477	0.106377	0.000073
C13	C	0.622856	0.174710	0.000069
C14	C	0.543913	0.173448	0.000079
C15	C	0.513592	0.103852	0.000089
C16	C	0.562219	0.035513	0.000096
C17	C	0.641161	0.036776	0.000091
C18	C	0.243856	0.030418	0.000117
C19	C	0.164908	0.029160	0.000120
C20	C	0.146608	0.167090	0.000105
C21	C	0.225550	0.168353	0.000100
C22	C	0.274170	0.100015	0.000112
C23	C	0.359769	0.101384	0.000102
C24	C	0.427995	0.102481	0.000093
C25	C	0.899662	-0.036451	0.000109
C26	C	0.898323	-0.120469	0.000109
C27	C	0.966656	-0.169090	0.000119
C28	C	0.965394	-0.248033	0.000111
C29	C	0.895798	-0.278354	0.000100
C30	C	0.827459	-0.229727	0.000088
C31	C	0.828722	-0.150785	0.000089
C32	C	0.822364	-0.548090	0.000080
C33	C	0.821106	-0.627038	0.000081
C34	C	0.959036	-0.645338	0.000102
C35	C	0.960299	-0.566396	0.000104
C36	C	0.891961	-0.517776	0.000087
C37	C	0.893330	-0.432177	0.000094
C38	C	0.894427	-0.363951	0.000099
C39	C	1.032268	0.096156	0.000116
C40	C	1.116286	0.097494	0.000121
C41	C	0.888102	0.240322	0.000091
C42	C	0.889440	0.324340	0.000085
N43	N	0.893864	0.101925	0.195767
N44	N	0.893905	0.101941	-0.195565
C45	C	0.945429	0.050397	0.239040
C46	C	0.945432	0.050396	0.325588
C47	C	0.893875	0.101927	0.368859
C48	C	0.842305	0.153457	0.325579
C49	C	0.842299	0.153454	0.239034
C50	C	0.842331	0.153472	0.674608
C51	C	0.842344	0.153473	0.761159
C52	C	0.945465	0.050414	0.761161
C53	C	0.945458	0.050410	0.674616
C54	C	0.893886	0.101937	0.631344
C55	C	0.893882	0.101937	0.537499
C56	C	0.893883	0.101932	0.462702
H57	H	0.647537	0.231384	0.000060
N58	N	1.032747	-0.697778	0.000120
H59	H	1.021391	-0.752389	0.000115
H60	H	1.063095	-0.687969	-0.050843
H61	H	0.987416	0.008438	0.203814
H62	H	0.764429	-0.651721	0.000074
H63	H	0.987444	0.008451	0.639387
N64	N	0.132197	-0.045905	0.000137
H65	H	0.149935	-0.075842	-0.050825
H66	H	0.149941	-0.075774	0.051146
N67	N	1.041723	-0.136392	0.000139
H68	H	1.071662	-0.154123	-0.050826
H69	H	1.032093	-0.079010	0.000173
N70	N	1.001074	-0.005154	0.372262
H71	H	1.033746	-0.037787	0.331718
H72	H	1.034464	0.023814	0.408145
H73	H	0.537526	-0.021154	0.000116
N74	N	0.752394	-0.262428	0.000084
H75	H	0.709297	-0.219646	0.000077
H76	H	0.748870	-0.294779	-0.050886
H77	H	0.504328	0.229092	0.000075
H78	H	0.987456	0.008455	0.796403
N79	N	0.786729	0.209050	0.807834
H80	H	0.754054	0.241690	0.767290
H81	H	0.753337	0.180108	0.843752
N82	N	0.748660	-0.495655	0.000066
H83	H	0.704382	-0.526845	0.000063
H84	H	0.746172	-0.462508	0.051036
N85	N	0.094165	0.240799	0.000128
H86	H	0.125353	0.285078	0.000124
H87	H	0.061000	0.243295	-0.050832
N88	N	0.296291	-0.043286	0.000135
H89	H	0.265101	-0.087564	0.000140
H90	H	0.329446	-0.045771	-0.050833
H91	H	0.800309	0.195412	0.203801
H92	H	0.773078	-0.111198	0.000081
H93	H	0.800341	0.195428	0.639382
H94	H	0.800323	0.195413	0.360816
N95	N	1.039096	-0.300475	0.000126
H96	H	1.083376	-0.269288	0.000141
H97	H	1.041564	-0.333632	0.051097
H98	H	0.680748	-0.018868	0.000095
N99	N	0.258245	0.243421	0.000082
H100	H	0.240508	0.273351	0.051049
H101	H	0.315627	0.233793	0.000046
N102	N	1.035363	-0.533693	0.000122
H103	H	1.078462	-0.576473	0.000126
H104	H	1.038896	-0.501331	-0.050847
