data_functionalizedCrystal
_audit_creation_method	'MofGen! by Chris Wilmer'
_symmetry_space_group_name_H-M	'P1'
_symmetry_Int_Tables_number	1
_symmetry_cell_setting	triclinic
loop_
_symmetry_equiv_pos_as_xyz
  x,y,z
_cell_length_a	16.120530
_cell_length_b	12.645330
_cell_length_c	16.120256
_cell_angle_alpha	92.876632
_cell_angle_beta	90.128265
_cell_angle_gamma	87.108294
loop_
_atom_site_label
_atom_site_type_symbol
_atom_site_fract_x
_atom_site_fract_y
_atom_site_fract_z
Zn1	Zn	1.247519	-0.537103	-0.534584
Zn2	Zn	1.747519	-0.037103	-0.034584
Zn3	Zn	1.254495	-0.705860	-0.395531
Zn4	Zn	1.754495	-0.205860	0.104469
Zn5	Zn	1.115507	-0.519184	-0.388501
Zn6	Zn	1.615507	-0.019184	0.111499
Zn7	Zn	1.108451	-0.704889	-0.527501
Zn8	Zn	1.608451	-0.204889	-0.027501
O9	O	1.181493	-0.616759	-0.461529
O10	O	1.681493	-0.116759	0.038471
O11	O	1.364812	-0.567395	-0.522044
O12	O	1.864812	-0.067395	-0.022044
O13	O	1.241930	-0.674004	-0.278232
O14	O	1.741930	-0.174004	0.221768
O15	O	1.133052	-0.373217	-0.407901
O16	O	1.633052	0.126783	0.092099
O17	O	1.369937	-0.691380	-0.419883
O18	O	1.869937	-0.191380	0.080117
O19	O	1.230041	-0.386383	-0.515228
O20	O	1.730041	0.113617	-0.015228
O21	O	1.139816	-0.536854	-0.273067
O22	O	1.639816	-0.036854	0.226933
O23	O	0.998204	-0.535912	-0.401033
O24	O	1.498204	-0.035912	0.098967
O25	O	1.121026	-0.689725	-0.644806
O26	O	1.621026	-0.189725	-0.144806
O27	O	0.993020	-0.672349	-0.503155
O28	O	1.493020	-0.172349	-0.003155
O29	O	1.223199	-0.566453	-0.650010
O30	O	1.723199	-0.066453	-0.150010
O31	O	1.235088	-0.854075	-0.413015
O32	O	1.735088	-0.354075	0.086985
O33	O	1.127790	-0.853361	-0.509972
O34	O	1.627790	-0.353361	-0.009972
C35	C	0.965439	-0.602081	-0.450563
C36	C	1.465439	-0.102081	0.049437
C37	C	0.873009	-0.595829	-0.445892
C38	C	1.373009	-0.095829	0.054108
C39	C	0.703778	-0.584389	-0.437370
C40	C	1.203778	-0.084389	0.062630
C41	C	0.660046	-0.649211	-0.485749
C42	C	1.160046	-0.149211	0.014251
C43	C	0.565880	-0.642845	-0.481007
C44	C	1.065880	-0.142845	0.018993
C45	C	0.797952	-0.590753	-0.442110
C46	C	1.297952	-0.090753	0.057890
C47	C	1.181452	-0.892185	-0.461507
C48	C	1.681452	-0.392185	0.038493
C49	C	1.181510	-1.010020	-0.461529
C50	C	1.681510	-0.510020	0.038471
C51	C	1.248914	-1.177974	-0.400398
C52	C	1.748914	-0.677974	0.099602
C53	C	1.249115	-1.055437	-0.400566
C54	C	1.749115	-0.555437	0.099434
C55	C	1.200830	-1.061389	-0.550386
C56	C	1.700830	-0.561389	-0.050386
C57	C	1.201356	-1.184000	-0.550071
C58	C	1.701356	-0.684000	-0.050071
C59	C	1.094716	-1.170009	-0.434667
C60	C	1.594716	-0.670009	0.065333
C61	C	1.095237	-1.047312	-0.432722
C62	C	1.595237	-0.547312	0.067278
C63	C	1.398391	-0.631495	-0.472538
C64	C	1.898391	-0.131495	0.027462
C65	C	1.490820	-0.637774	-0.477229
C66	C	1.990820	-0.137774	0.022771
C67	C	1.170548	-0.629980	-0.678424
C68	C	1.670548	-0.129980	-0.178424
C69	C	1.165883	-0.635614	-0.770852
C70	C	1.665883	-0.135614	-0.270852
C71	C	1.181556	-0.340260	-0.461570
C72	C	1.681556	0.159740	0.038430
C73	C	1.181582	-0.222433	-0.461588
C74	C	1.681582	0.277567	0.038412
C75	C	1.205815	-0.587352	-0.983835
C76	C	1.705815	-0.087352	-0.483835
C77	C	1.157340	-0.645854	-0.940073
C78	C	1.657340	-0.145854	-0.440073
C79	C	1.162095	-0.640154	-0.845910
C80	C	1.662095	-0.140154	-0.345910
C81	C	1.201061	-0.593050	-1.078006
C82	C	1.701061	-0.093050	-0.578006
C83	C	1.192444	-0.603517	-0.245480
C84	C	1.692444	-0.103517	0.254520
C85	C	1.197269	-0.597595	-0.153060
C86	C	1.697269	-0.097595	0.346940
H87	H	0.670498	-0.524119	-0.392393
H88	H	1.170498	-0.024119	0.107607
N89	N	0.704131	-0.729061	-0.545320
N90	N	1.204131	-0.229061	-0.045320
H91	H	0.689709	-0.802983	-0.531550
H92	H	1.189709	-0.302983	-0.031550
H93	H	0.686076	-0.715260	-0.603994
H94	H	1.186076	-0.215260	-0.103994
N95	N	1.233796	-1.009070	-0.313479
N96	N	1.733796	-0.509070	0.186521
H97	H	1.226851	-1.068230	-0.274634
H98	H	1.726851	-0.568230	0.225366
H99	H	1.282589	-0.966745	-0.294916
H100	H	1.782589	-0.466745	0.205084
N101	N	1.233844	-1.210487	-0.313063
N102	N	1.733844	-0.710487	0.186937
H103	H	1.183229	-1.254359	-0.312312
H104	H	1.683229	-0.754359	0.187688
H105	H	1.283816	-1.253734	-0.293424
H106	H	1.783816	-0.753734	0.206576
N107	N	1.333809	-1.225695	-0.424198
N108	N	1.833809	-0.725695	0.075802
H109	H	1.328842	-1.275987	-0.474445
H110	H	1.828842	-0.775987	0.025555
H111	H	1.371358	-1.167325	-0.437656
H112	H	1.871358	-0.667325	0.062344
N113	N	1.334454	-1.023531	-0.424623
N114	N	1.834454	-0.523531	0.075377
H115	H	1.376665	-1.050425	-0.383287
H116	H	1.876665	-0.550425	0.116713
H117	H	1.348861	-1.055093	-0.481888
H118	H	1.848861	-0.555093	0.018112
H119	H	1.250884	-0.532992	-0.950584
H120	H	1.750884	-0.032992	-0.450584
N121	N	1.285290	-1.229104	-0.579571
N122	N	1.785290	-0.729104	-0.079571
H123	H	1.321600	-1.169308	-0.592658
H124	H	1.821600	-0.669308	-0.092658
H125	H	1.312226	-1.271800	-0.534591
H126	H	1.812226	-0.771800	-0.034591
H127	H	1.154220	-1.213686	-0.597474
H128	H	1.654220	-0.713686	-0.097474
H129	H	1.153089	-1.032196	-0.597390
H130	H	1.653089	-0.532196	-0.097390
H131	H	1.263450	-1.036101	-0.572953
H132	H	1.763450	-0.536101	-0.072953
H133	H	1.112263	-0.700213	-0.973325
H134	H	1.612263	-0.200213	-0.473325
H135	H	1.076289	-1.195701	-0.370769
H136	H	1.576289	-0.695701	0.129231
N137	N	1.075825	-1.002058	-0.346076
N138	N	1.575825	-0.502058	0.153924
H139	H	1.122713	-0.957583	-0.325562
H140	H	1.622713	-0.457583	0.174438
H141	H	1.022571	-0.956496	-0.346948
H142	H	1.522571	-0.456496	0.153052
N143	N	1.025668	-1.005752	-0.486934
N144	N	1.525668	-0.505752	0.013066
H145	H	1.049195	-0.961971	-0.531138
H146	H	1.549195	-0.461971	-0.031138
H147	H	0.996553	-1.067299	-0.514140
H148	H	1.496553	-0.567299	-0.014140
H149	H	1.044603	-1.198656	-0.479179
H150	H	1.544603	-0.698656	0.020821
