data_functionalizedCrystal
_audit_creation_method	'MofGen! by Chris Wilmer'
_symmetry_space_group_name_H-M	'P1'
_symmetry_Int_Tables_number	1
_symmetry_cell_setting	triclinic
loop_
_symmetry_equiv_pos_as_xyz
  x,y,z
_cell_length_a	19.805407
_cell_length_b	16.959454
_cell_length_c	19.805398
_cell_angle_alpha	89.976589
_cell_angle_beta	89.986879
_cell_angle_gamma	90.020075
loop_
_atom_site_label
_atom_site_type_symbol
_atom_site_fract_x
_atom_site_fract_y
_atom_site_fract_z
Zn1	Zn	1.034722	-0.314692	-0.382744
Zn2	Zn	1.034662	-0.446877	-0.269566
Zn3	Zn	0.921550	-0.314716	-0.269569
Zn4	Zn	0.921513	-0.446832	-0.382713
O5	O	0.978112	-0.380779	-0.326148
O6	O	1.129431	-0.332235	-0.367743
O7	O	1.019648	-0.429374	-0.174850
O8	O	0.936603	-0.204102	-0.284596
O9	O	1.129387	-0.429350	-0.284591
O10	O	1.019750	-0.204084	-0.367745
O11	O	0.936545	-0.332276	-0.174852
O12	O	0.826828	-0.332233	-0.284565
O13	O	0.936540	-0.429275	-0.477434
O14	O	0.826801	-0.429298	-0.367692
O15	O	1.019715	-0.332192	-0.477457
O16	O	1.019613	-0.557482	-0.284561
O17	O	0.936482	-0.557449	-0.367690
C18	C	0.802256	-0.380764	-0.326126
C19	C	0.727024	-0.380777	-0.326133
C20	C	0.691683	-0.431395	-0.369347
C21	C	0.620995	-0.431396	-0.369356
C22	C	0.585648	-0.380783	-0.326148
C23	C	0.620994	-0.330159	-0.282932
C24	C	0.691681	-0.330154	-0.282926
C25	C	0.335920	-0.330177	-0.282954
C26	C	0.265228	-0.330187	-0.282962
C27	C	0.265235	-0.431418	-0.369384
C28	C	0.335922	-0.431413	-0.369379
C29	C	0.371261	-0.380787	-0.326166
C30	C	0.447909	-0.380785	-0.326157
C31	C	0.509001	-0.380788	-0.326153
C32	C	0.978055	-0.586145	-0.326136
C33	C	0.978093	-0.674002	-0.326154
C34	C	0.934889	-1.045491	-0.369428
C35	C	1.021524	-1.045465	-0.282937
C36	C	1.021500	-0.962919	-0.282930
C37	C	0.978169	-0.921655	-0.326173
C38	C	0.934862	-0.962937	-0.369422
C39	C	1.064801	-0.921630	-0.239677
C40	C	1.064779	-0.839080	-0.239669
C41	C	1.021451	-0.797814	-0.282915
C42	C	0.978143	-0.839101	-0.326167
C43	C	0.934812	-0.797838	-0.369409
C44	C	0.891507	-0.839123	-0.412665
C45	C	0.891535	-0.921672	-0.412669
C46	C	1.021424	-0.715266	-0.282911
C47	C	0.934786	-0.715284	-0.369403
C48	C	1.154655	-0.380795	-0.326170
C49	C	1.229887	-0.380802	-0.326180
C50	C	0.978130	-0.380726	-0.502691
C51	C	0.978138	-0.380703	-0.577923
C52	C	0.978187	-0.174611	-0.326174
C53	C	0.978219	-0.086754	-0.326186
C54	C	1.021516	-0.431136	-1.039711
C55	C	1.021498	-0.431158	-0.969022
C56	C	0.978222	-0.380614	-0.933685
C57	C	0.934957	-0.330051	-0.969039
C58	C	0.934973	-0.330034	-1.039727
C59	C	0.934892	-0.330119	-0.683966
C60	C	0.934881	-0.330138	-0.613274
C61	C	1.021417	-0.431242	-0.613261
C62	C	1.021432	-0.431225	-0.683949
C63	C	0.978165	-0.380666	-0.719297
C64	C	0.978185	-0.380644	-0.795946
C65	C	0.978205	-0.380631	-0.857037
C66	C	0.978133	-0.380775	-0.150292
C67	C	0.978256	-0.380576	-0.075060
H68	H	0.592224	-0.472615	-0.404545
H69	H	1.056716	-0.472339	-0.940243
Cl70	Cl	0.837033	-0.787239	-0.467021
H71	H	0.236451	-0.288967	-0.247776
Cl72	Cl	0.880468	-0.266593	-0.728395
Cl73	Cl	0.837097	-0.973578	-0.467040
Cl74	Cl	1.075853	-0.663367	-0.228531
Cl75	Cl	0.880562	-0.266499	-0.924615
H76	H	0.364697	-0.472631	-0.404561
Cl77	Cl	0.380338	-0.266530	-0.228631
H78	H	1.100041	-0.805470	-0.204449
H79	H	0.899638	-0.288977	-0.584504
H80	H	0.899503	-0.681692	-0.404619
Cl81	Cl	0.880454	-1.097390	-0.423806
H82	H	0.236453	-0.472638	-0.404573
Cl83	Cl	1.075928	-0.494676	-1.084128
Cl84	Cl	0.576558	-0.266526	-0.228617
H85	H	1.056645	-0.472413	-0.584472
H86	H	1.056674	-0.472380	-0.712717
H87	H	0.720458	-0.472612	-0.404530
Cl88	Cl	0.880590	-0.266465	-1.084166
H89	H	0.720454	-0.288932	-0.247741
Cl90	Cl	1.075994	-1.097340	-0.228578
Cl91	Cl	1.119274	-0.973508	-0.185323
