data_functionalizedCrystal
_audit_creation_method	'MofGen! by Chris Wilmer'
_symmetry_space_group_name_H-M	'P1'
_symmetry_Int_Tables_number	1
_symmetry_cell_setting	triclinic
loop_
_symmetry_equiv_pos_as_xyz
  x,y,z
_cell_length_a	19.077241
_cell_length_b	15.298259
_cell_length_c	19.077068
_cell_angle_alpha	82.166277
_cell_angle_beta	85.292229
_cell_angle_gamma	82.229381
loop_
_atom_site_label
_atom_site_type_symbol
_atom_site_fract_x
_atom_site_fract_y
_atom_site_fract_z
Zn1	Zn	-0.992535	-0.569739	-0.163467
Zn2	Zn	-0.492535	-0.069739	0.336533
Zn3	Zn	-1.006277	-0.426602	-0.299954
Zn4	Zn	-0.506277	0.073398	0.200046
Zn5	Zn	-0.894705	-0.415119	-0.188297
Zn6	Zn	-0.394705	0.084881	0.311703
Zn7	Zn	-0.869881	-0.569661	-0.286055
Zn8	Zn	-0.369881	-0.069661	0.213945
O9	O	-0.940850	-0.495280	-0.234443
O10	O	-0.440850	0.004720	0.265557
O11	O	-1.092382	-0.555590	-0.176998
O12	O	-0.592382	-0.055590	0.323002
O13	O	-1.007617	-0.300499	-0.301352
O14	O	-0.507617	0.199501	0.198648
O15	O	-0.912320	-0.430857	-0.086971
O16	O	-0.412320	0.069143	0.413029
O17	O	-1.102479	-0.450427	-0.277275
O18	O	-0.602479	0.049573	0.222725
O19	O	-0.984195	-0.544455	-0.068729
O20	O	-0.484195	-0.044455	0.431271
O21	O	-0.925646	-0.292062	-0.219318
O22	O	-0.425646	0.207938	0.280682
O23	O	-0.793388	-0.430781	-0.205839
O24	O	-0.293388	0.069219	0.294161
O25	O	-0.870011	-0.694251	-0.253585
O26	O	-0.370011	-0.194251	0.246415
O27	O	-0.775150	-0.544323	-0.277661
O28	O	-0.275150	-0.044323	0.222339
O29	O	-0.960124	-0.694309	-0.163520
O30	O	-0.460124	-0.194309	0.336480
O31	O	-0.983547	-0.450352	-0.396143
O32	O	-0.483547	0.049648	0.103857
O33	O	-0.883337	-0.555457	-0.385931
O34	O	-0.383337	-0.055457	0.114069
C35	C	-0.758852	-0.486298	-0.242937
C36	C	-0.258852	0.013702	0.257063
C37	C	-0.680989	-0.482477	-0.246585
C38	C	-0.180989	0.017523	0.253415
C39	C	-0.639138	-0.535525	-0.196149
C40	C	-0.139138	-0.035525	0.303851
C41	C	-0.565979	-0.531927	-0.199574
C42	C	-0.065979	-0.031927	0.300426
C43	C	-0.534671	-0.475286	-0.253438
C44	C	-0.034671	0.024714	0.246562
C45	C	-0.576528	-0.422232	-0.303876
C46	C	-0.076528	0.077768	0.196124
C47	C	-0.649687	-0.425826	-0.300447
C48	C	-0.149687	0.074174	0.199553
C49	C	-0.316437	-0.458652	-0.269281
C50	C	0.183563	0.041348	0.230719
C51	C	-0.243272	-0.455065	-0.272707
C52	C	0.256728	0.044935	0.227293
C53	C	-0.232729	-0.564759	-0.168405
C54	C	0.267271	-0.064759	0.331595
C55	C	-0.305888	-0.568352	-0.164983
C56	C	0.194112	-0.068352	0.335017
C57	C	-0.347739	-0.515295	-0.215419
C58	C	0.152261	-0.015295	0.284581
N59	N	-0.459891	-0.471609	-0.256942
N60	N	0.040109	0.028391	0.243058
N61	N	-0.422519	-0.518967	-0.211912
N62	N	0.077481	-0.018967	0.288088
C63	C	-0.932256	-0.504163	-0.416452
C64	C	-0.432256	-0.004163	0.083548
C65	C	-0.928640	-0.507995	-0.494309
C66	C	-0.428640	-0.007995	0.005691
C67	C	-0.910766	-0.727485	-0.204232
C68	C	-0.410766	-0.227485	0.295768
C69	C	-0.897946	-0.826437	-0.191358
C70	C	-0.397946	-0.326437	0.308642
C71	C	-0.123559	-0.504291	-0.225914
C72	C	0.376441	-0.004291	0.274086
C73	C	-0.201421	-0.508112	-0.222272
C74	C	0.298579	-0.008112	0.277728
C75	C	-1.032524	-1.122929	-0.325917
C76	C	-0.532524	-0.622929	0.174083
C77	C	-1.044565	-1.029959	-0.338018
C78	C	-0.544565	-0.529959	0.161982
C79	C	-1.007912	-0.979074	-0.301354
C80	C	-0.507912	-0.479074	0.198646
C81	C	-0.959214	-1.021168	-0.252587
C82	C	-0.459214	-0.521168	0.247413
C83	C	-0.947168	-1.114148	-0.240489
C84	C	-0.447168	-0.614148	0.259511
C85	C	-0.922556	-0.970293	-0.215926
C86	C	-0.422556	-0.470293	0.284074
C87	C	-0.873858	-1.012387	-0.167160
C88	C	-0.373858	-0.512387	0.332840
C89	C	-0.861814	-1.105357	-0.155064
C90	C	-0.361814	-0.605357	0.344936
C91	C	-0.898468	-1.156242	-0.191728
C92	C	-0.398468	-0.656242	0.308272
C93	C	-0.934602	-0.877313	-0.228024
C94	C	-0.434602	-0.377313	0.271976
C95	C	-0.849246	-0.868532	-0.142596
C96	C	-0.349246	-0.368532	0.357404
C97	C	-0.837205	-0.961502	-0.130496
C98	C	-0.337205	-0.461502	0.369504
C99	C	-0.970859	-0.263978	-0.264485
C100	C	-0.470859	0.236022	0.235515
C101	C	-0.983824	-0.165024	-0.277155
C102	C	-0.483824	0.334976	0.222845
C103	C	-0.979143	-0.455122	-0.536172
C104	C	-0.479143	0.044878	-0.036172
C105	C	-0.975745	-0.458733	-0.609326
C106	C	-0.475745	0.041267	-0.109326
C107	C	-0.921840	-0.515212	-0.640616
C108	C	-0.421840	-0.015212	-0.140616
C109	C	-0.871334	-0.568091	-0.598747
C110	C	-0.371334	-0.068091	-0.098747
C111	C	-0.874736	-0.564485	-0.525594
C112	C	-0.374736	-0.064485	-0.025594
C113	C	-0.906073	-0.531865	-0.858833
C114	C	-0.406073	-0.031865	-0.358833
C115	C	-0.902674	-0.535465	-0.931992
C116	C	-0.402674	-0.035465	-0.431992
C117	C	-1.007086	-0.426108	-0.942566
C118	C	-0.507086	0.073892	-0.442566
C119	C	-1.010480	-0.422503	-0.869411
C120	C	-0.510480	0.077497	-0.369411
C121	C	-0.959976	-0.475385	-0.827548
C122	C	-0.459976	0.024615	-0.327548
N123	N	-0.918365	-0.518902	-0.715391
N124	N	-0.418365	-0.018902	-0.215391
N125	N	-0.963455	-0.471699	-0.752774
N126	N	-0.463455	0.028301	-0.252774
C127	C	-0.949494	-0.486384	-0.051721
C128	C	-0.449494	0.013616	0.448279
C129	C	-0.953177	-0.482592	0.026145
C130	C	-0.453177	0.017408	0.526145
H131	H	-0.331373	-0.614479	-0.121124
H132	H	0.168627	-0.114479	0.378876
C133	C	-0.362463	-0.400295	-0.324760
C134	C	0.137537	0.099705	0.175240
H135	H	-0.333336	-0.366055	-0.357333
H136	H	0.166664	0.133945	0.142667
H137	H	-0.397278	-0.361651	-0.301618
H138	H	0.102722	0.138349	0.198382
H139	H	-0.385164	-0.437182	-0.349568
H140	H	0.114836	0.062818	0.150432
H141	H	-0.819399	-0.827101	-0.112742
H142	H	-0.319399	-0.327101	0.387258
H143	H	-0.797555	-0.995789	-0.090789
H144	H	-0.297555	-0.495789	0.409211
C145	C	-0.812041	-0.630222	-0.633160
C146	C	-0.312041	-0.130222	-0.133160
H147	H	-0.782454	-0.661201	-0.597748
H148	H	-0.282454	-0.161201	-0.097748
H149	H	-0.784627	-0.596042	-0.667595
H150	H	-0.284627	-0.096042	-0.167595
H151	H	-0.832464	-0.671767	-0.655358
H152	H	-0.332464	-0.171767	-0.155358
C153	C	-1.031283	-0.400550	-0.655380
C154	C	-0.531283	0.099450	-0.155380
H155	H	-1.021539	-0.410787	-0.703428
H156	H	-0.521539	0.089213	-0.203428
H157	H	-1.029358	-0.339637	-0.651674
H158	H	-0.529358	0.160363	-0.151674
H159	H	-1.077215	-0.415341	-0.639455
H160	H	-0.577215	0.084659	-0.139455
H161	H	-0.858784	-0.581474	-0.957463
H162	H	-0.358784	-0.081474	-0.457463
C163	C	-1.038440	-0.392996	-0.501760
C164	C	-0.538440	0.107004	-0.001760
H165	H	-1.068035	-0.362031	-0.537171
H166	H	-0.568035	0.137969	-0.037171
H167	H	-1.018026	-0.351451	-0.479558
H168	H	-0.518026	0.148549	0.020442
H169	H	-1.065853	-0.427187	-0.467326
H170	H	-0.565853	0.072813	0.032674
H171	H	-1.054374	-0.376513	-0.843937
H172	H	-0.554374	0.123487	-0.343937
H173	H	-1.084208	-0.995692	-0.377730
H174	H	-0.584208	-0.495692	0.122270
H175	H	-0.683761	-0.382628	-0.341517
H176	H	-0.183761	0.117372	0.158483
H177	H	-0.833611	-0.607541	-0.491509
H178	H	-0.333611	-0.107541	0.008491
H179	H	-0.974256	-0.843049	-0.267726
H180	H	-0.474256	-0.343049	0.232274
H181	H	-0.198646	-0.607954	-0.127342
H182	H	0.301354	-0.107954	0.372658
H183	H	-0.888668	-1.231947	-0.181876
H184	H	-0.388668	-0.731947	0.318124
H185	H	-1.017718	-0.903374	-0.311210
H186	H	-0.517718	-0.403374	0.188790
H187	H	-1.048204	-0.383056	-0.976658
H188	H	-0.548204	0.116944	-0.476658
C189	C	-1.072835	-1.178902	-0.366242
C190	C	-0.572835	-0.678902	0.133758
H191	H	-1.058688	-1.240301	-0.352049
H192	H	-0.558688	-0.740301	0.147951
H193	H	-1.062331	-1.165451	-0.415772
H194	H	-0.562331	-0.665451	0.084228
H195	H	-1.122363	-1.165493	-0.355772
H196	H	-0.622363	-0.665493	0.144228
H197	H	-0.217784	-0.408940	-0.316573
H198	H	0.282216	0.091060	0.183427
H199	H	-0.864949	-0.574922	-0.824754
H200	H	-0.364949	-0.074922	-0.324754
H201	H	-0.822155	-1.139628	-0.115362
H202	H	-0.322155	-0.639628	0.384638
C203	C	-0.673571	-0.597831	-0.136899
C204	C	-0.173571	-0.097831	0.363101
H205	H	-0.638166	-0.628903	-0.107349
H206	H	-0.138166	-0.128903	0.392651
H207	H	-0.695833	-0.639278	-0.157364
H208	H	-0.195833	-0.139278	0.342636
H209	H	-0.707948	-0.563743	-0.109418
H210	H	-0.207948	-0.063743	0.390582
H211	H	-0.551032	-0.376109	-0.347730
H212	H	-0.051032	0.123891	0.152270
C213	C	-0.519946	-0.590282	-0.144097
C214	C	-0.019946	-0.090282	0.355903
H215	H	-0.549068	-0.624538	-0.111532
H216	H	-0.049068	-0.124538	0.388468
H217	H	-0.497246	-0.553399	-0.119290
H218	H	0.002754	-0.053399	0.380710
H219	H	-0.485129	-0.628926	-0.167244
H220	H	0.014871	-0.128926	0.332756
