data_functionalizedCrystal
_audit_creation_method	'MofGen! by Chris Wilmer'
_symmetry_space_group_name_H-M	'P1'
_symmetry_Int_Tables_number	1
_symmetry_cell_setting	triclinic
loop_
_symmetry_equiv_pos_as_xyz
  x,y,z
_cell_length_a	15.538191
_cell_length_b	13.339070
_cell_length_c	11.804499
_cell_angle_alpha	80.547929
_cell_angle_beta	73.602114
_cell_angle_gamma	81.450694
loop_
_atom_site_label
_atom_site_type_symbol
_atom_site_fract_x
_atom_site_fract_y
_atom_site_fract_z
O1	O	-1.191393	0.288833	0.099048
O2	O	-0.944990	0.182255	0.099045
O3	O	-1.039912	0.372424	0.099043
O4	O	-1.096472	0.098664	0.099051
O5	O	-1.000234	0.394333	-0.099012
O6	O	-0.905312	0.204163	-0.099009
O7	O	-1.151715	0.310742	-0.099006
Cu8	Cu	-1.024890	0.259453	-0.117092
Cu9	Cu	-1.071815	0.233543	0.117131
O10	O	-1.056793	0.120573	-0.099004
C11	C	-0.892970	0.182058	0.000017
C12	C	-0.797077	0.148843	0.000016
C13	C	-1.010519	0.417559	0.000017
C14	C	-0.982043	0.519404	0.000021
C15	C	-1.203736	0.310938	0.000024
C16	C	-1.299630	0.344152	0.000033
C17	C	-0.423041	0.478825	0.000025
C18	C	-0.332939	0.447591	0.000027
C19	C	-0.356416	0.271907	0.000032
C20	C	-0.446520	0.303127	0.000024
C21	C	-0.479826	0.406587	0.000022
C22	C	-0.503305	0.230889	0.000021
C23	C	-0.593403	0.262107	0.000020
C24	C	-0.626716	0.365562	0.000021
C25	C	-0.569924	0.437805	0.000021
C26	C	-0.469999	0.127429	0.000031
C27	C	-0.526784	0.055191	0.000029
C28	C	-0.616882	0.086409	0.000019
C29	C	-0.650195	0.189864	0.000020
C30	C	-0.673674	0.014166	0.000019
C31	C	-0.763772	0.045383	0.000018
C32	C	-0.740293	0.221081	0.000019
C33	C	-1.086186	0.075437	0.000025
C34	C	-1.114665	-0.026409	0.000028
N35	N	-0.991893	0.277680	-0.281831
C36	C	-1.203469	0.965502	0.000024
C37	C	-1.230226	0.869816	0.000013
C38	C	-1.168182	0.782209	0.000016
C39	C	-1.079378	0.790296	0.000028
C40	C	-1.052616	0.885993	0.000030
C41	C	-1.017330	0.702699	0.000021
C42	C	-0.928525	0.710786	0.000034
C43	C	-0.901769	0.806474	0.000036
C44	C	-0.963812	0.894082	0.000034
C45	C	-1.044091	0.607003	0.000020
C46	C	-0.893238	0.527493	0.000025
C47	C	-0.866482	0.623179	0.000036
C48	C	-1.184067	0.171547	-0.655787
C49	C	-1.209029	0.157744	-0.531127
C50	C	-1.154747	0.187727	-0.468797
C51	C	-1.075499	0.231515	-0.531139
C52	C	-1.050531	0.245312	-0.655812
C53	C	-1.021211	0.261492	-0.468822
C54	C	-0.941963	0.305279	-0.531165
C55	C	-0.916999	0.319075	-0.655825
C56	C	-0.971281	0.289092	-0.718155
C57	C	-1.046179	0.247695	-0.344149
C58	C	-0.912643	0.321460	-0.344174
C59	C	-0.887681	0.335263	-0.468835
N60	N	-1.104817	0.215327	0.281870
H61	H	-0.700083	0.390975	0.000036
O62	O	-1.181698	0.172783	-0.334341
H63	H	-1.190927	0.247984	-0.301391
H64	H	-0.597041	0.522053	0.000012
O65	O	-0.770696	0.631906	0.000029
H66	H	-0.762515	0.713166	0.000018
O67	O	-1.294495	0.110516	-0.463884
H68	H	-1.328050	0.091991	-0.528166
H69	H	-1.189973	0.704300	0.000006
O70	O	-0.805983	0.815199	0.000029
H71	H	-0.806354	0.847972	0.080746
O72	O	-0.854108	0.353808	-0.276937
H73	H	-0.785855	0.311191	-0.300847
O74	O	-1.242616	0.139223	-0.723009
H75	H	-1.211944	0.156183	-0.820169
H76	H	-0.329286	0.187669	0.000038
O77	O	-0.825025	-0.032523	0.000002
H78	H	-0.786727	-0.109707	-0.000011
H79	H	-0.842716	0.456161	0.000022
O80	O	-1.326002	0.861099	-0.000000
H81	H	-1.334184	0.779844	-0.000015
H82	H	-1.116396	0.600429	0.000009
H83	H	-0.450159	0.563074	0.000017
O84	O	-1.131647	0.200467	-0.276916
H85	H	-1.177662	0.255357	-0.220102
O86	O	-0.944351	0.303978	-0.852616
H87	H	-0.995412	0.275770	-0.885477
H88	H	-0.286707	0.506424	0.000031
O89	O	-1.270380	1.059987	0.000008
H90	H	-1.236850	1.127883	0.000012
O91	O	-0.372821	0.093757	0.000031
H92	H	-0.337966	0.056522	-0.080686
O93	O	-0.831546	0.366342	-0.723074
H94	H	-0.798006	0.384899	-0.658793
O95	O	-0.637739	-0.097417	0.000023
H96	H	-0.676830	-0.142481	0.080750
O97	O	-0.490857	-0.056394	0.000013
H98	H	-0.418664	-0.065966	0.000003
H99	H	-0.942032	0.972000	0.000047
H100	H	-0.823155	0.370914	-0.519612
H101	H	-0.767410	0.305329	0.000010
