data_functionalizedCrystal
_audit_creation_method	'MofGen! by Chris Wilmer'
_symmetry_space_group_name_H-M	'P1'
_symmetry_Int_Tables_number	1
_symmetry_cell_setting	triclinic
loop_
_symmetry_equiv_pos_as_xyz
  x,y,z
_cell_length_a	12.759395
_cell_length_b	18.215405
_cell_length_c	18.215399
_cell_angle_alpha	90.030551
_cell_angle_beta	89.982699
_cell_angle_gamma	89.973578
loop_
_atom_site_label
_atom_site_type_symbol
_atom_site_fract_x
_atom_site_fract_y
_atom_site_fract_z
Zn1	Zn	1.606161	0.292962	-0.416053
Zn2	Zn	2.106161	0.792962	0.083947
Zn3	Zn	1.606030	0.416033	-0.292981
Zn4	Zn	2.106030	0.916033	0.207019
Zn5	Zn	1.430469	0.292988	-0.293006
Zn6	Zn	1.930469	0.792988	0.206994
Zn7	Zn	1.430420	0.415994	-0.416011
Zn8	Zn	1.930420	0.915994	0.083989
O9	O	1.518270	0.354494	-0.354513
O10	O	2.018270	0.854494	0.145487
O11	O	1.753165	0.309292	-0.399734
O12	O	2.253165	0.809292	0.100266
O13	O	1.582707	0.399738	-0.190000
O14	O	2.082707	0.899738	0.310000
O15	O	1.453850	0.190000	-0.309356
O16	O	1.953850	0.690000	0.190644
O17	O	1.753069	0.399712	-0.309314
O18	O	2.253069	0.899712	0.190686
O19	O	1.582930	0.189981	-0.399758
O20	O	2.082930	0.689981	0.100242
O21	O	1.453723	0.309337	-0.190018
O22	O	1.953723	0.809337	0.309982
O23	O	1.283442	0.309300	-0.309316
O24	O	1.783442	0.809300	0.190684
O25	O	1.453767	0.399647	-0.519001
O26	O	1.953767	0.899647	-0.019001
O27	O	1.283406	0.399672	-0.399687
O28	O	1.783406	0.899672	0.100313
O29	O	1.582883	0.309255	-0.519032
O30	O	2.082883	0.809255	-0.019032
O31	O	1.582660	0.519012	-0.309274
O32	O	2.082660	1.019012	0.190726
O33	O	1.453640	0.518984	-0.399663
O34	O	1.953640	1.018984	0.100337
C35	C	1.518159	0.545701	-0.354477
C36	C	2.018159	1.045701	0.145523
C37	C	1.518208	0.627499	-0.354487
C38	C	2.018208	1.127499	0.145513
C39	C	1.245303	0.354485	-0.354500
C40	C	1.745303	0.854485	0.145500
C41	C	1.128526	0.354499	-0.354512
C42	C	1.628526	0.854499	0.145488
C43	C	1.518334	0.354444	-0.546466
C44	C	2.018334	0.854444	-0.046466
C45	C	1.518361	0.354422	-0.628265
C46	C	2.018361	0.854422	-0.128265
C47	C	1.128527	0.448756	-0.448464
C48	C	1.628527	0.948756	0.051536
C49	C	1.073667	0.495890	-0.495442
C50	C	1.573667	0.995890	0.004558
C51	C	0.963946	0.495899	-0.495451
C52	C	1.463946	0.995899	0.004549
C53	C	0.909082	0.448767	-0.448478
C54	C	1.409082	0.948767	0.051522
C55	C	0.963942	0.401633	-0.401500
C56	C	1.463942	0.901633	0.098500
C57	C	1.073666	0.401631	-0.401495
C58	C	1.573666	0.901631	0.098505
C59	C	0.963940	0.307374	-0.307553
C60	C	1.463940	0.807374	0.192447
C61	C	1.073662	0.307367	-0.307540
C62	C	1.573662	0.807367	0.192460
C63	C	0.909076	0.260242	-0.260581
C64	C	1.409076	0.760242	0.239419
C65	C	0.963937	0.213110	-0.213598
C66	C	1.463937	0.713110	0.286402
C67	C	1.073665	0.213104	-0.213590
C68	C	1.573665	0.713104	0.286410
C69	C	1.128522	0.260233	-0.260562
C70	C	1.628522	0.760233	0.239438
C71	C	1.792304	0.354504	-0.354526
C72	C	2.292304	0.854504	0.145474
C73	C	1.909080	0.354508	-0.354531
C74	C	2.409080	0.854508	0.145469
C75	C	1.518410	0.162541	-0.354564
C76	C	2.018410	0.662541	0.145436
C77	C	1.518470	0.080742	-0.354586
C78	C	2.018470	0.580742	0.145414
C79	C	1.585546	0.815684	-0.307507
C80	C	2.085546	1.315684	0.192493
C81	C	1.585593	0.892542	-0.307525
C82	C	2.085593	1.392542	0.192475
C83	C	1.451129	0.892553	-0.401571
C84	C	1.951129	1.392553	0.098429
C85	C	1.451088	0.815695	-0.401556
C86	C	1.951088	1.315695	0.098444
C87	C	1.518295	0.777263	-0.354520
C88	C	2.018295	1.277263	0.145480
C89	C	1.518383	0.930979	-0.354553
C90	C	2.018383	1.430979	0.145447
C91	C	1.518433	1.014313	-0.354572
C92	C	2.018433	1.514313	0.145428
C93	C	1.518246	0.693924	-0.354501
C94	C	2.018246	1.193924	0.145499
C95	C	1.585616	0.307311	-0.816476
C96	C	2.085616	0.807311	-0.316476
C97	C	1.585629	0.307290	-0.893335
C98	C	2.085629	0.807290	-0.393335
C99	C	1.451181	0.401419	-0.893291
C100	C	1.951181	0.901419	-0.393291
C101	C	1.451164	0.401436	-0.816434
C102	C	1.951164	0.901436	-0.316434
C103	C	1.518388	0.354383	-0.778028
C104	C	2.018388	0.854383	-0.278028
C105	C	1.518417	0.354345	-0.931744
C106	C	2.018417	0.854345	-0.431744
C107	C	1.518430	0.354322	-1.015078
C108	C	2.018430	0.854322	-0.515078
C109	C	1.518373	0.354405	-0.694689
C110	C	2.018373	0.854405	-0.194689
C111	C	1.518267	0.354492	-0.163306
C112	C	2.018267	0.854492	0.336694
C113	C	1.518443	0.354306	-0.081508
C114	C	2.018443	0.854306	0.418492
H115	H	1.217868	0.448759	-0.448456
H116	H	1.717868	0.948759	0.051544
C117	C	1.134002	0.161251	-0.161910
C118	C	1.634002	0.661251	0.338090
N119	N	1.179445	0.122196	-0.122982
N120	N	1.679445	0.622196	0.377018
C121	C	1.134025	0.547736	-0.547106
C122	C	1.634025	1.047736	-0.047106
N123	N	1.179485	0.586786	-0.586019
N124	N	1.679485	1.086786	-0.086019
H125	H	1.217863	0.260235	-0.260558
H126	H	1.717863	0.760235	0.239442
C127	C	1.377124	0.773430	-0.453292
C128	C	1.877124	1.273430	0.046708
N129	N	1.321425	0.741596	-0.492264
N130	N	1.821425	1.241596	0.007736
C131	C	1.659482	0.773411	-0.255771
C132	C	2.159482	1.273411	0.244229
N133	N	1.715175	0.741572	-0.216803
N134	N	2.215175	1.241572	0.283197
C135	C	1.659571	0.934802	-0.255804
C136	C	2.159571	1.434802	0.244196
N137	N	1.715293	0.966631	-0.216845
N138	N	2.215293	1.466631	0.283155
H139	H	1.640372	0.268957	-0.924635
H140	H	2.140372	0.768957	-0.424635
C141	C	1.377193	0.934836	-0.453299
C142	C	1.877193	1.434836	0.046701
N143	N	1.321498	0.966683	-0.492259
N144	N	1.821498	1.466683	0.007741
C145	C	0.903598	0.547749	-0.547128
C146	C	1.403598	1.047749	-0.047128
N147	N	0.858144	0.586804	-0.586050
N148	N	1.358144	1.086804	-0.086050
C149	C	1.377237	0.453173	-0.935545
C150	C	1.877237	0.953173	-0.435545
N151	N	1.321540	0.492155	-0.967370
N152	N	1.821540	0.992155	-0.467370
H153	H	0.819740	0.448772	-0.448496
H154	H	1.319740	0.948772	0.051504
C155	C	0.788380	0.260246	-0.260599
C156	C	1.288380	0.760246	0.239401
N157	N	0.697469	0.260248	-0.260613
N158	N	1.197469	0.760248	0.239387
C159	C	1.377200	0.453220	-0.774139
C160	C	1.877200	0.953220	-0.274139
N161	N	1.321490	0.492220	-0.742283
N162	N	1.821490	0.992220	-0.242283
C163	C	0.903580	0.161269	-0.161936
C164	C	1.403580	0.661269	0.338064
N165	N	0.858115	0.122223	-0.123022
N166	N	1.358115	0.622223	0.376978
C167	C	1.659555	0.255545	-0.774232
C168	C	2.159555	0.755545	-0.274232
N169	N	1.715244	0.216551	-0.742416
N170	N	2.215244	0.716551	-0.242416
