data_functionalizedCrystal
_audit_creation_method	'MofGen! by Chris Wilmer'
_symmetry_space_group_name_H-M	'P1'
_symmetry_Int_Tables_number	1
_symmetry_cell_setting	triclinic
loop_
_symmetry_equiv_pos_as_xyz
  x,y,z
_cell_length_a	13.033293
_cell_length_b	18.101397
_cell_length_c	13.032268
_cell_angle_alpha	97.143420
_cell_angle_beta	89.079182
_cell_angle_gamma	97.189579
loop_
_atom_site_label
_atom_site_type_symbol
_atom_site_fract_x
_atom_site_fract_y
_atom_site_fract_z
Zn1	Zn	1.498450	-0.230400	-0.781454
Zn2	Zn	1.520187	-0.336824	-0.609468
Zn3	Zn	1.348310	-0.226490	-0.587630
Zn4	Zn	1.326436	-0.367696	-0.759504
O5	O	1.423346	-0.290352	-0.684514
O6	O	1.645252	-0.233234	-0.776965
O7	O	1.515638	-0.307631	-0.462665
O8	O	1.368284	-0.123374	-0.613388
O9	O	1.661223	-0.311423	-0.650608
O10	O	1.478591	-0.126248	-0.755790
O11	O	1.389361	-0.226569	-0.446621
O12	O	1.201489	-0.256504	-0.592105
O13	O	1.331002	-0.364040	-0.906323
O14	O	1.185418	-0.360248	-0.718380
O15	O	1.457380	-0.263169	-0.922449
O16	O	1.494428	-0.444553	-0.629324
O17	O	1.352080	-0.467234	-0.739555
C18	C	1.156137	-0.311302	-0.650491
C19	C	1.041821	-0.320285	-0.635960
C20	C	0.982941	-0.285683	-0.692098
C21	C	0.864789	-0.294966	-0.677081
C22	C	1.423264	-0.482765	-0.684453
C23	C	1.423319	-0.565076	-0.684473
C24	C	1.423438	-0.864166	-0.684584
C25	C	1.512805	-0.818535	-0.614989
C26	C	1.513053	-0.732916	-0.615230
C27	C	1.423379	-0.715784	-0.684528
C28	C	1.438988	-0.755473	-0.796660
C29	C	1.439656	-0.841025	-0.796304
C30	C	1.318132	-0.838399	-0.642959
C31	C	1.318977	-0.752462	-0.640608
C32	C	1.423343	-0.631925	-0.684503
C33	C	1.423476	-0.948025	-0.684617
C34	C	1.691598	-0.269321	-0.718671
C35	C	1.805911	-0.260359	-0.733226
C36	C	1.389326	-0.317484	-0.952743
C37	C	1.374829	-0.329047	-1.067046
C38	C	1.423453	-0.097189	-0.684602
C39	C	1.423498	-0.014874	-0.684639
C40	C	1.430896	-0.284293	-1.125985
C41	C	1.415914	-0.296242	-1.244123
C42	C	1.457291	-0.263268	-0.417337
C43	C	1.471988	-0.251481	-0.303060
H44	H	1.504884	-0.705250	-0.532519
H45	H	1.531078	-0.204313	-1.266064
H46	H	1.020003	-0.249183	-0.751273
Cl47	Cl	0.807583	-0.351314	-0.585700
H48	H	0.842967	-0.223856	-0.792405
H49	H	1.504888	-0.832432	-0.532065
Cl50	Cl	1.300411	-0.711381	-0.513102
H51	H	1.004759	-0.356780	-0.576779
H52	H	1.376664	-0.872307	-0.850694
H53	H	1.590675	-0.835554	-0.643357
H54	H	1.301271	-0.854284	-0.561889
H55	H	1.591337	-0.707910	-0.643866
H56	H	1.249925	-0.741410	-0.686476
Cl57	Cl	1.283587	-0.401859	-1.124163
H58	H	1.375290	-0.745683	-0.850503
Cl59	Cl	1.557866	-0.865827	-0.848255
H60	H	1.514611	-0.730218	-0.830595
H61	H	1.251716	-0.869180	-0.693480
Cl62	Cl	1.522106	-0.211460	-1.068863
H63	H	1.356811	-0.343402	-1.281119
