data_functionalizedCrystal
_audit_creation_method	'MofGen! by Chris Wilmer'
_symmetry_space_group_name_H-M	'P1'
_symmetry_Int_Tables_number	1
_symmetry_cell_setting	triclinic
loop_
_symmetry_equiv_pos_as_xyz
  x,y,z
_cell_length_a	11.792241
_cell_length_b	10.540539
_cell_length_c	10.868271
_cell_angle_alpha	89.997005
_cell_angle_beta	89.999893
_cell_angle_gamma	84.359454
loop_
_atom_site_label
_atom_site_type_symbol
_atom_site_fract_x
_atom_site_fract_y
_atom_site_fract_z
O1	O	1.507361	0.173992	-0.102197
O2	O	2.007361	0.673992	0.397803
O3	O	1.177067	0.191924	-0.102225
O4	O	1.677067	0.691924	0.397775
O5	O	1.349750	-0.001773	-0.102208
O6	O	1.849750	0.498227	0.397792
O7	O	1.334679	0.367689	-0.102213
O8	O	1.834679	0.867689	0.397787
O9	O	1.349735	-0.001781	0.102436
O10	O	1.849735	0.498219	0.602436
O11	O	1.177053	0.191916	0.102420
O12	O	1.677053	0.691916	0.602420
O13	O	1.507347	0.173984	0.102448
O14	O	2.007347	0.673984	0.602448
Zn15	Zn	1.342198	0.182949	0.134926
Zn16	Zn	1.842198	0.682949	0.634926
Zn17	Zn	1.342216	0.182959	-0.134702
Zn18	Zn	1.842216	0.682959	0.365298
O19	O	1.334664	0.367681	0.102432
O20	O	1.834664	0.867681	0.602432
C21	C	1.134766	0.190793	0.000094
C22	C	1.634766	0.690793	0.500094
C23	C	1.008743	0.187422	0.000083
C24	C	1.508743	0.687422	0.500083
C25	C	0.778015	0.181223	0.000119
C26	C	1.278015	0.681223	0.500119
C27	C	0.906409	0.184667	0.000099
C28	C	1.406409	0.684667	0.500099
C29	C	1.348612	-0.049076	0.000112
C30	C	1.848612	0.450924	0.500112
C31	C	1.345231	-0.190014	0.000105
C32	C	1.845231	0.309986	0.500105
C33	C	1.215660	-0.373018	-0.000366
C34	C	1.715660	0.126982	0.499634
C35	C	1.219087	-0.226411	0.000095
C36	C	1.719087	0.273589	0.500095
C37	C	1.405929	-0.251873	0.116972
C38	C	1.905929	0.248127	0.616972
C39	C	1.401623	-0.398404	0.117070
C40	C	1.901623	0.101596	0.617070
C41	C	1.404205	-0.398922	-0.115649
C42	C	1.904205	0.101078	0.384351
C43	C	1.405367	-0.251943	-0.117194
C44	C	1.905367	0.248057	0.382806
C45	C	1.549648	0.175114	0.000127
C46	C	2.049648	0.675114	0.500127
C47	C	1.675671	0.178486	0.000130
C48	C	2.175671	0.678486	0.500130
C49	C	1.335802	0.414984	0.000109
C50	C	1.835802	0.914984	0.500109
C51	C	1.339183	0.555921	0.000108
C52	C	1.839183	1.055921	0.500108
N53	N	1.342193	0.182941	0.318940
N54	N	1.842193	0.682941	0.818940
N55	N	1.342230	0.182957	-0.318716
N56	N	1.842230	0.682957	0.181284
C57	C	1.342211	0.182956	0.569946
C58	C	1.842211	0.682956	1.069946
C59	C	1.342197	0.182952	0.430268
C60	C	1.842197	0.682952	0.930268
H61	H	1.171327	-0.183649	-0.083680
H62	H	1.671327	0.316351	0.416320
H63	H	1.166027	-0.403067	0.082965
H64	H	1.666027	0.096933	0.582965
H65	H	1.170980	-0.184502	0.084002
H66	H	1.670980	0.315498	0.584002
H67	H	1.495318	-0.446444	-0.116427
H68	H	1.995318	0.053556	0.383573
H69	H	1.363753	-0.209140	0.203933
H70	H	1.863753	0.290860	0.703933
H71	H	1.165836	-0.401453	-0.084174
H72	H	1.665836	0.098547	0.415826
H73	H	1.356753	-0.426460	0.204423
H74	H	1.856753	0.073540	0.704423
N75	N	1.515432	-0.458940	0.123747
N76	N	2.015432	0.041060	0.623747
N77	N	1.597782	-0.392930	0.128329
N78	N	2.097782	0.107070	0.628329
H79	H	1.678159	-0.435678	0.133054
H80	H	2.178159	0.064322	0.633054
N81	N	1.522131	-0.224182	0.122431
N82	N	2.022131	0.275818	0.622431
N83	N	1.545285	-0.111098	0.127585
N84	N	2.045285	0.388902	0.627585
H85	H	1.627353	-0.091535	0.131436
H86	H	2.127353	0.408465	0.631436
N87	N	1.352997	-0.438352	-0.226761
N88	N	1.852997	0.061648	0.273239
N89	N	1.267947	-0.500223	-0.221979
N90	N	1.767947	-0.000223	0.278021
H91	H	1.231772	-0.528074	-0.300446
H92	H	1.731772	-0.028074	0.199554
N93	N	1.520749	-0.221958	-0.126022
N94	N	2.020749	0.278042	0.373978
N95	N	1.600451	-0.309393	-0.126316
N96	N	2.100451	0.190607	0.373684
H97	H	1.681945	-0.288218	-0.132539
H98	H	2.181945	0.211782	0.367461
N99	N	1.349777	-0.200414	-0.225685
N100	N	1.849777	0.299586	0.274315
N101	N	1.306031	-0.272361	-0.299538
N102	N	1.806031	0.227639	0.200462
H103	H	1.266782	-0.235958	-0.376165
H104	H	1.766782	0.264042	0.123835
