data_functionalizedCrystal
_audit_creation_method	'MofGen! by Chris Wilmer'
_symmetry_space_group_name_H-M	'P1'
_symmetry_Int_Tables_number	1
_symmetry_cell_setting	triclinic
loop_
_symmetry_equiv_pos_as_xyz
  x,y,z
_cell_length_a	15.995300
_cell_length_b	16.109301
_cell_length_c	15.186229
_cell_angle_alpha	90.005167
_cell_angle_beta	89.995056
_cell_angle_gamma	96.533356
loop_
_atom_site_label
_atom_site_type_symbol
_atom_site_fract_x
_atom_site_fract_y
_atom_site_fract_z
O1	O	1.110981	-0.106966	-0.073264
O2	O	1.610981	0.393034	0.426736
O3	O	0.867197	-0.120243	-0.073259
O4	O	1.367197	0.379757	0.426741
O5	O	0.995786	0.007426	-0.073252
O6	O	1.495786	0.507426	0.426748
O7	O	0.982392	-0.234635	-0.073270
O8	O	1.482392	0.265365	0.426730
O9	O	0.995777	0.007427	0.073205
O10	O	1.495777	0.507427	0.573205
O11	O	0.867188	-0.120242	0.073199
O12	O	1.367188	0.379758	0.573199
O13	O	1.110973	-0.106964	0.073194
O14	O	1.610973	0.393036	0.573194
Zn15	Zn	0.989079	-0.113603	0.096449
Zn16	Zn	1.489079	0.386397	0.596449
Zn17	Zn	0.989090	-0.113605	-0.096514
Zn18	Zn	1.489090	0.386395	0.403486
O19	O	0.982383	-0.234633	0.073187
O20	O	1.482383	0.265367	0.573187
C21	C	0.835997	-0.119701	-0.000029
C22	C	1.335997	0.380299	0.499971
C23	C	0.743045	-0.118078	-0.000027
C24	C	1.243045	0.381922	0.499973
C25	C	0.572863	-0.115079	-0.000034
C26	C	1.072863	0.384921	0.499966
C27	C	0.525372	-0.205982	-0.000038
C28	C	1.025372	0.294018	0.499962
C29	C	0.428685	-0.204324	-0.000373
C30	C	0.928685	0.295676	0.499627
C31	C	0.405307	-0.112128	-0.000039
C32	C	0.905307	0.387872	0.499961
C33	C	0.446457	-0.067029	-0.083505
C34	C	0.946457	0.432971	0.416495
C35	C	0.543089	-0.069330	-0.083573
C36	C	1.043089	0.430670	0.416427
C37	C	0.543359	-0.067982	0.082982
C38	C	1.043359	0.432018	0.582982
C39	C	0.446415	-0.067990	0.084077
C40	C	0.946415	0.432010	0.584077
C41	C	0.310612	-0.110456	-0.000045
C42	C	0.810612	0.389544	0.499955
C43	C	0.667558	-0.116749	-0.000034
C44	C	1.167558	0.383251	0.499966
C45	C	0.995239	0.038401	-0.000023
C46	C	1.495239	0.538401	0.499977
C47	C	0.993613	0.130697	-0.000022
C48	C	1.493613	0.630697	0.499978
C49	C	1.142172	-0.107507	-0.000038
C50	C	1.642172	0.392493	0.499962
C51	C	1.235125	-0.109130	-0.000046
C52	C	1.735125	0.390870	0.499954
C53	C	0.982930	-0.265609	-0.000044
C54	C	1.482930	0.234391	0.499956
C55	C	0.984557	-0.357905	-0.000051
C56	C	1.484557	0.142095	0.499949
N57	N	0.989077	-0.113601	0.228142
N58	N	1.489077	0.386399	0.728142
C59	C	1.066133	0.352963	-0.000037
C60	C	1.566133	0.852963	0.499963
C61	C	1.064598	0.439683	-0.000045
C62	C	1.564598	0.939683	0.499955
C63	C	0.912031	0.419823	-0.000038
C64	C	1.412031	0.919823	0.499962
C65	C	0.913567	0.333104	-0.000037
C66	C	1.413567	0.833104	0.499963
C67	C	0.990620	0.299676	-0.000032
C68	C	1.490620	0.799676	0.499968
C69	C	0.987549	0.473116	-0.000040
C70	C	1.487549	0.973116	0.499960
C71	C	0.985885	0.567142	-0.000048
C72	C	1.485885	1.067142	0.499952
C73	C	0.992285	0.205644	-0.000026
C74	C	1.492285	0.705644	0.499974
N75	N	0.989099	-0.113601	-0.228207
N76	N	1.489099	0.386399	0.271793
C77	C	1.046036	-0.057088	0.453868
C78	C	1.546036	0.442912	0.953868
C79	C	1.046039	-0.057086	0.546057
C80	C	1.546039	0.442914	1.046057
C81	C	0.932134	-0.170116	0.546061
C82	C	1.432134	0.329884	1.046061
C83	C	0.932128	-0.170113	0.453873
C84	C	1.432128	0.329887	0.953873
C85	C	0.989084	-0.113600	0.407779
C86	C	1.489084	0.386400	0.907779
C87	C	0.989092	-0.113601	0.592156
C88	C	1.489092	0.386399	1.092156
C89	C	0.989095	-0.113599	0.692112
C90	C	1.489095	0.386401	1.192112
C91	C	0.989080	-0.113601	0.307816
C92	C	1.489080	0.386399	0.807816
H93	H	0.543850	-0.242513	0.059806
H94	H	1.043850	0.257487	0.559806
H95	H	1.126088	0.483066	-0.000051
H96	H	1.626088	0.983066	0.499949
H97	H	0.885763	-0.216129	0.583600
H98	H	1.385763	0.283871	1.083600
C99	C	0.408149	-0.108826	-0.167745
C100	C	0.908149	0.391174	0.332255
H101	H	0.433457	-0.081088	-0.217902
H102	H	0.933457	0.418912	0.282098
H103	H	0.418086	-0.165844	-0.168700
H104	H	0.918086	0.334156	0.331300
H105	H	0.349268	-0.105319	-0.168607
H106	H	0.849268	0.394681	0.331393
C107	C	0.571029	-0.108407	0.168476
C108	C	1.071029	0.391593	0.668476
H109	H	0.552600	-0.079049	0.217769
H110	H	1.052600	0.420951	0.717769
H111	H	0.546929	-0.165047	0.170837
H112	H	1.046929	0.334953	0.670837
H113	H	0.630635	-0.106056	0.169566
H114	H	1.130635	0.393944	0.669566
C115	C	0.586320	0.022555	0.084086
C116	C	1.086320	0.522555	0.584086
H117	H	0.568239	0.050698	0.134393
H118	H	1.068239	0.550698	0.634393
H119	H	0.645633	0.022223	0.086240
H120	H	1.145633	0.522223	0.586240
H121	H	0.571577	0.050602	0.032303
H122	H	1.071577	0.550602	0.532303
H123	H	0.431095	-0.000773	0.089369
H124	H	0.931095	0.499227	0.589369
H125	H	0.419062	-0.100924	0.145826
H126	H	0.919062	0.399076	0.645826
H127	H	0.885746	-0.216133	0.416345
H128	H	1.385746	0.283867	0.916345
H129	H	0.849297	0.447050	-0.000040
H130	H	1.349297	0.947050	0.499960
H131	H	0.400208	-0.239761	0.059445
H132	H	0.900208	0.260239	0.559445
H133	H	0.852071	0.289715	-0.000036
H134	H	1.352071	0.789715	0.499964
H135	H	0.561403	-0.101834	-0.146206
H136	H	1.061403	0.398166	0.353794
C137	C	1.108685	0.005076	0.596756
C138	C	1.608685	0.505076	1.096756
H139	H	1.100527	-0.003010	0.658262
H140	H	1.600527	0.496990	1.158262
H141	H	1.164562	-0.003972	0.581640
H142	H	1.664562	0.496028	1.081640
H143	H	1.099601	0.060570	0.581652
H144	H	1.599601	0.560570	1.081652
H145	H	0.544974	-0.241970	-0.059808
H146	H	1.044974	0.258030	0.440192
C147	C	0.391047	-0.252015	-0.081660
C148	C	0.891047	0.247985	0.418340
H149	H	0.434859	-0.272470	-0.114614
H150	H	0.934859	0.227530	0.385386
H151	H	0.352047	-0.297564	-0.063155
H152	H	0.852047	0.202436	0.436845
H153	H	0.363024	-0.215433	-0.117370
H154	H	0.863024	0.284567	0.382630
C155	C	1.150885	0.316190	-0.000039
C156	C	1.650885	0.816190	0.499961
H157	H	1.140987	0.256912	-0.000029
H158	H	1.640987	0.756912	0.499971
H159	H	1.181978	0.334477	-0.051114
H160	H	1.681978	0.834477	0.448886
H161	H	1.181973	0.334489	0.051039
H162	H	1.681973	0.834489	0.551039
C163	C	1.108683	0.005072	0.403163
C164	C	1.608683	0.505072	0.903163
H165	H	1.100531	-0.003025	0.341657
H166	H	1.600531	0.496975	0.841657
H167	H	1.099612	0.060565	0.418277
H168	H	1.599612	0.560565	0.918277
H169	H	1.164561	-0.003988	0.418265
H170	H	1.664561	0.496012	0.918265
C171	C	0.586717	0.020840	-0.088396
C172	C	1.086717	0.520840	0.411604
H173	H	0.545358	0.058713	-0.090311
H174	H	1.045358	0.558713	0.409689
H175	H	0.621219	0.032152	-0.037926
H176	H	1.121219	0.532152	0.462074
H177	H	0.620477	0.027284	-0.139950
H178	H	1.120477	0.527284	0.360050
H179	H	0.432376	0.000714	-0.086370
H180	H	0.932376	0.500714	0.413630
