data_functionalizedCrystal
_audit_creation_method	'MofGen! by Chris Wilmer'
_symmetry_space_group_name_H-M	'P1'
_symmetry_Int_Tables_number	1
_symmetry_cell_setting	triclinic
loop_
_symmetry_equiv_pos_as_xyz
  x,y,z
_cell_length_a	16.992694
_cell_length_b	15.944551
_cell_length_c	15.455313
_cell_angle_alpha	92.664316
_cell_angle_beta	87.142206
_cell_angle_gamma	87.083481
loop_
_atom_site_label
_atom_site_type_symbol
_atom_site_fract_x
_atom_site_fract_y
_atom_site_fract_z
O1	O	1.043832	0.174669	-0.072025
O2	O	0.815548	0.172714	-0.072051
O3	O	0.935924	0.051836	-0.072029
O4	O	0.923457	0.295548	-0.072046
O5	O	0.929040	0.058718	0.072232
O6	O	0.808664	0.179596	0.072210
O7	O	1.036949	0.181551	0.072236
Cu8	Cu	0.922178	0.181202	0.085395
Cu9	Cu	0.930319	0.173063	-0.085210
O10	O	0.916573	0.302430	0.072215
C11	C	0.782894	0.173641	0.000077
C12	C	0.695850	0.166141	0.000067
C13	C	0.645613	0.238506	0.000063
C14	C	0.563826	0.231454	0.000075
C15	C	0.532276	0.152037	0.000086
C16	C	0.582519	0.079667	0.000093
C17	C	0.664305	0.086719	0.000087
C18	C	0.288676	0.122807	0.000111
C19	C	0.206884	0.115760	0.000115
C20	C	0.188196	0.267548	0.000099
C21	C	0.269984	0.274593	0.000087
C22	C	0.320220	0.202223	0.000099
N23	N	0.448677	0.144827	0.000096
N24	N	0.403817	0.209434	0.000095
C25	C	0.931964	0.023948	0.000101
C26	C	0.930413	-0.069402	0.000102
C27	C	0.852089	-0.289513	0.000081
C28	C	0.885066	-0.344697	0.071214
C29	C	0.927606	-0.240317	0.000095
C30	C	0.891871	-0.351465	-0.071016
C31	C	0.924889	-0.405412	0.000084
C32	C	0.960600	-0.294269	0.071287
C33	C	0.967397	-0.301034	-0.071007
C34	C	1.000428	-0.356196	0.000144
C35	C	0.929168	-0.145209	0.000101
C36	C	0.923332	-0.500518	0.000084
C37	C	1.069603	0.180624	0.000107
C38	C	1.156647	0.188124	0.000110
C39	C	0.920532	0.330318	0.000082
C40	C	0.922084	0.423668	0.000076
N41	N	0.916458	0.186926	0.205390
N42	N	0.936045	0.167333	-0.205204
C43	C	0.967616	0.135594	0.250793
C44	C	0.963297	0.139932	0.341600
C45	C	0.907824	0.195606	0.387002
C46	C	0.856661	0.246940	0.341593
C47	C	0.860976	0.242598	0.250787
C48	C	0.889197	0.214325	0.658581
C49	C	0.884887	0.218665	0.749392
C50	C	0.991523	0.111655	0.749393
C51	C	0.995836	0.107321	0.658586
C52	C	0.944671	0.158653	0.613185
N53	N	0.903410	0.200042	0.479822
N54	N	0.949081	0.154211	0.520367
H55	H	0.147286	0.326467	0.000091
H56	H	0.181200	0.051085	0.000123
N57	N	0.805798	0.297968	0.201820
H58	H	0.837548	0.335388	0.164131
H59	H	0.772883	0.261657	0.164209
N60	N	0.718490	0.008668	0.000084
H61	H	0.775088	0.025185	0.000081
H62	H	0.705730	-0.023152	0.053568
H63	H	0.522926	0.290381	0.000071
H64	H	0.671294	0.303176	0.000054
N65	N	0.796823	0.306984	0.390557
H66	H	0.801852	0.301948	0.454972
H67	H	0.806633	0.366427	0.374671
H68	H	0.329568	0.063878	0.000121
H69	H	0.789404	-0.260406	0.000145
N70	N	0.838958	-0.370384	0.150858
H71	H	0.874387	-0.406253	0.186489
H72	H	0.818634	-0.318473	0.186673
H73	H	0.989641	-0.269266	0.131491
H74	H	0.839712	0.264005	0.786355
H75	H	1.063164	-0.385145	0.000191
H76	H	1.002180	-0.281632	-0.131141
N77	N	0.548495	-0.005991	0.000118
H78	H	0.489061	0.000520	0.000121
H79	H	0.569416	-0.040457	-0.053356
N80	N	1.046703	0.056294	0.798365
H81	H	1.014952	0.018873	0.836052
H82	H	1.082488	0.020421	0.755770
N83	N	1.027434	0.075536	0.201817
H84	H	1.063943	0.108178	0.164126
H85	H	1.059130	0.043681	0.244410
H86	H	0.295665	0.339262	0.000069
H87	H	0.862790	-0.376554	-0.131158
H88	H	1.004953	0.098132	0.378567
N89	N	1.055669	0.047274	0.609618
H90	H	1.087422	0.015412	0.652161
H91	H	1.027442	0.006305	0.571953
N92	N	0.834010	0.269682	0.609618
H93	H	0.798216	0.305609	0.652162
H94	H	0.865810	0.307051	0.571926
