data_functionalizedCrystal
_audit_creation_method	'MofGen! by Chris Wilmer'
_symmetry_space_group_name_H-M	'P1'
_symmetry_Int_Tables_number	1
_symmetry_cell_setting	triclinic
loop_
_symmetry_equiv_pos_as_xyz
  x,y,z
_cell_length_a	6.817900
_cell_length_b	19.551136
_cell_length_c	25.420338
_cell_angle_alpha	81.500178
_cell_angle_beta	88.619311
_cell_angle_gamma	101.650842
loop_
_atom_site_label
_atom_site_type_symbol
_atom_site_fract_x
_atom_site_fract_y
_atom_site_fract_z
V1	V	-3.885217	-0.096965	0.164360
O2	O	-3.884930	0.004363	0.160965
O3	O	-3.828560	-0.191981	0.163492
O4	O	-3.779255	-0.095604	0.235926
O5	O	-3.934577	-0.092681	0.088029
V6	V	-4.377374	-0.084830	0.155199
O7	O	-4.127537	-0.123585	0.184455
O8	O	-4.585251	-0.058210	0.135104
O9	O	-4.210824	0.010185	0.156067
O10	O	-4.495057	-0.186158	0.158595
O11	O	-4.445411	-0.089114	0.231530
O12	O	-4.260129	-0.086191	0.083633
C13	C	-3.673414	-0.215139	0.160966
C14	C	-3.707993	-0.292817	0.160733
C15	C	-3.610520	-0.092201	0.253361
C16	C	-3.605114	-0.091716	0.311869
C17	C	-3.723815	-0.319222	0.112392
C18	C	-3.756390	-0.392206	0.112158
C19	C	-3.773103	-0.438781	0.160267
C20	C	-3.757289	-0.412369	0.208614
C21	C	-3.724734	-0.339386	0.208848
C22	C	-3.709557	-0.559854	0.195149
C23	C	-3.742099	-0.632834	0.194914
C24	C	-3.873521	-0.663884	0.159549
C25	C	-3.972372	-0.621943	0.124411
C26	C	-3.939817	-0.548960	0.124644
C27	C	-3.808404	-0.517920	0.160019
C28	C	-3.924667	-0.769427	0.110951
C29	C	-3.957255	-0.842413	0.110718
C30	C	-3.958133	-0.862574	0.207176
C31	C	-3.925566	-0.789590	0.207407
C32	C	-3.908825	-0.743020	0.159293
C33	C	-4.092193	-0.089596	0.066195
C34	C	-4.076553	-0.090089	0.006588
V35	V	-3.791377	-0.094858	-0.082414
O36	O	-3.723337	-0.090573	-0.158744
O37	O	-3.908626	-0.093499	-0.010848
O38	O	-3.957920	-0.189875	-0.083282
O39	O	-3.673701	0.006470	-0.085809
V40	V	-3.283517	-0.082718	-0.091573
O41	O	-3.583498	-0.121477	-0.062318
O42	O	-3.041197	-0.056096	-0.111668
O43	O	-3.389477	-0.084080	-0.163140
O44	O	-3.234161	-0.087003	-0.015243
O45	O	-3.283796	-0.184046	-0.088178
O46	O	-3.340182	0.012296	-0.090706
C47	C	-4.029312	0.033340	0.158592
C48	C	-3.973969	0.111017	0.158828
C49	C	-4.139431	-0.213031	-0.085807
C50	C	-4.194770	-0.290708	-0.086043
C51	C	-3.558210	-0.087485	-0.180576
C52	C	-3.563614	-0.087969	-0.239083
C53	C	-3.594203	-0.152200	0.741126
C54	C	-3.599270	-0.152660	0.686152
C55	C	-3.573786	-0.088887	0.650972
C56	C	-3.543181	-0.024647	0.670769
C57	C	-3.538095	-0.024188	0.725742
C58	C	-3.675808	-0.042822	0.559716
C59	C	-3.680908	-0.043284	0.504746
C60	C	-3.589464	-0.090299	0.481419
C61	C	-3.492951	-0.136865	0.513072
C62	C	-3.487865	-0.136406	0.568044
C63	C	-3.579297	-0.089377	0.591363
C64	C	-3.625548	-0.155033	0.402020
C65	C	-3.630602	-0.155490	0.347045
C66	C	-3.574531	-0.027476	0.331663
C67	C	-3.569458	-0.027020	0.386637
C68	C	-3.594977	-0.090801	0.421812
C69	C	-3.495328	0.035453	-0.088179
C70	C	-3.460748	0.113129	-0.087944
C71	C	-4.045688	-0.330750	-0.083520
C72	C	-4.097654	-0.403734	-0.083749
C73	C	-4.298704	-0.436675	-0.086498
C74	C	-4.447795	-0.396627	-0.089022
C75	C	-4.395826	-0.323644	-0.088797
C76	C	-3.624177	0.146049	-0.085203
C77	C	-3.591713	0.219036	-0.084991
C78	C	-3.395819	0.259101	-0.087516
C79	C	-3.232378	0.226176	-0.090259
C80	C	-3.264843	0.153192	-0.090475
H81	H	-3.769270	-0.413709	0.072792
H82	H	-3.553759	0.024450	0.303020
O83	O	-3.360829	0.337818	-0.087271
H84	H	-3.429519	0.363046	-0.122131
H85	H	-3.624175	-0.204966	0.670035
H86	H	-3.724817	0.245832	-0.082757
O87	O	-3.705772	-0.268991	0.060501
H88	H	-3.556584	-0.232614	0.056332
O89	O	-4.114133	-0.655416	0.086263
H90	H	-4.237605	-0.695272	0.109158
H91	H	-4.340991	-0.496103	-0.086684
H92	H	-3.544557	0.025283	0.402750
H93	H	-3.970149	-0.863909	0.071352
O94	O	-3.976177	-0.912803	0.259065
H95	H	-3.959715	-0.882177	0.292720
O96	O	-3.908554	-0.761125	0.259556
H97	H	-4.028113	-0.731023	0.263936
O98	O	-3.828830	-0.295234	-0.080554
H99	H	-3.817709	-0.237757	-0.080815
H100	H	-4.517239	-0.291047	-0.090849
H101	H	-3.646309	-0.206967	0.430661
H102	H	-3.976233	-0.436333	-0.081688
O103	O	-3.088551	0.117691	-0.093420
H104	H	-3.094369	0.092133	-0.129704
H105	H	-3.072882	0.258808	-0.092315
O106	O	-3.906622	-0.719196	0.059058
H107	H	-3.881292	-0.664009	0.067340
H108	H	-3.655501	-0.207797	0.330933
H109	H	-3.711858	-0.317889	0.248214
H110	H	-3.759504	-0.005370	0.478978
H111	H	-3.750291	-0.004537	0.578704
H112	H	-3.513191	0.028118	0.741854
O113	O	-4.046337	-0.503715	0.086729
H114	H	-4.143169	-0.537559	0.062090
H115	H	-3.614981	-0.204135	0.769763
O116	O	-3.635502	-0.678071	0.232813
H117	H	-3.538684	-0.644223	0.257453
H118	H	-3.783698	0.113438	-0.083147
O119	O	-4.664633	-0.432164	-0.091991
H120	H	-4.711549	-0.472773	-0.056159
O121	O	-3.567791	-0.526365	0.233292
H122	H	-3.504497	-0.567786	0.257679
O123	O	-3.383645	-0.186587	0.602180
H124	H	-3.320855	-0.219344	0.576727
H125	H	-3.418488	-0.175149	0.494081
O126	O	-3.775318	-0.462598	0.260505
H127	H	-3.800597	-0.517784	0.252222
H128	H	-3.522425	0.027278	0.642122
