data_functionalizedCrystal
_audit_creation_method	'MofGen! by Chris Wilmer'
_symmetry_space_group_name_H-M	'P1'
_symmetry_Int_Tables_number	1
_symmetry_cell_setting	triclinic
loop_
_symmetry_equiv_pos_as_xyz
  x,y,z
_cell_length_a	19.805407
_cell_length_b	19.805405
_cell_length_c	19.805399
_cell_angle_alpha	90.029301
_cell_angle_beta	90.017803
_cell_angle_gamma	90.023727
loop_
_atom_site_label
_atom_site_type_symbol
_atom_site_fract_x
_atom_site_fract_y
_atom_site_fract_z
Zn1	Zn	1.034736	-0.269527	0.382680
Zn2	Zn	1.534736	0.230473	0.882680
Zn3	Zn	1.034650	-0.382716	0.269488
Zn4	Zn	1.534650	0.117284	0.769488
Zn5	Zn	0.921550	-0.269541	0.269508
Zn6	Zn	1.421550	0.230459	0.769508
Zn7	Zn	0.921514	-0.382674	0.382638
Zn8	Zn	1.421514	0.117326	0.882638
O9	O	0.978113	-0.326115	0.326078
O10	O	1.478113	0.173885	0.826078
O11	O	1.129441	-0.284554	0.367674
O12	O	1.629441	0.215446	0.867674
O13	O	1.019627	-0.367726	0.174774
O14	O	1.519627	0.132274	0.674774
O15	O	0.936615	-0.174822	0.284546
O16	O	1.436615	0.325178	0.784546
O17	O	1.129378	-0.367713	0.284512
O18	O	1.629378	0.132287	0.784512
O19	O	1.019772	-0.174813	0.367693
O20	O	1.519772	0.325187	0.867693
O21	O	0.936533	-0.284576	0.174788
O22	O	1.436533	0.215424	0.674788
O23	O	0.826829	-0.284536	0.284506
O24	O	1.326829	0.215464	0.784506
O25	O	0.936553	-0.367642	0.477360
O26	O	1.436553	0.132358	0.977360
O27	O	0.826802	-0.367655	0.367622
O28	O	1.326802	0.132345	0.867622
O29	O	1.019737	-0.284514	0.477391
O30	O	1.519737	0.215486	0.977391
O31	O	1.019592	-0.477427	0.284472
O32	O	1.519592	0.022573	0.784472
O33	O	0.936471	-0.477397	0.367603
O34	O	1.436471	0.022603	0.867603
C35	C	0.802257	-0.326093	0.326062
C36	C	1.302257	0.173907	0.826062
C37	C	0.727025	-0.326101	0.326071
C38	C	1.227025	0.173899	0.826071
C39	C	0.691714	-0.282876	0.369439
C40	C	1.191714	0.217124	0.869439
C41	C	0.621025	-0.282880	0.369442
C42	C	1.121025	0.217120	0.869442
C43	C	0.585649	-0.326112	0.326079
C44	C	1.085649	0.173888	0.826079
C45	C	0.620965	-0.369338	0.282706
C46	C	1.120965	0.130662	0.782706
C47	C	0.691652	-0.369330	0.282701
C48	C	1.191652	0.130670	0.782701
C49	C	0.335892	-0.369368	0.282727
C50	C	0.835892	0.130632	0.782727
C51	C	0.265199	-0.369374	0.282737
C52	C	0.765199	0.130626	0.782737
C53	C	0.265265	-0.282918	0.369468
C54	C	0.765265	0.217082	0.869468
C55	C	0.335952	-0.282910	0.369462
C56	C	0.835952	0.217090	0.869462
C57	C	0.371262	-0.326134	0.326087
C58	C	0.871262	0.173866	0.826087
C59	C	0.447910	-0.326128	0.326084
C60	C	0.947910	0.173872	0.826084
C61	C	0.509002	-0.326121	0.326085
C62	C	1.009002	0.173879	0.826085
C63	C	0.978036	-0.501971	0.326046
C64	C	1.478036	-0.001971	0.826046
C65	C	0.978066	-0.577203	0.326054
C66	C	1.478066	-0.077203	0.826054
C67	C	1.021389	-0.612540	0.282813
C68	C	1.521389	-0.112540	0.782813
C69	C	1.021418	-0.683228	0.282828
C70	C	1.521418	-0.183228	0.782828
C71	C	0.978119	-0.718578	0.326081
C72	C	1.478119	-0.218578	0.826081
C73	C	0.934794	-0.683236	0.369327
C74	C	1.434794	-0.183236	0.869327
C75	C	0.934769	-0.612549	0.369315
C76	C	1.434769	-0.112549	0.869315
C77	C	0.934894	-0.968309	0.369377
C78	C	1.434894	-0.468309	0.869377
C79	C	0.934921	-1.039001	0.369384
C80	C	1.434921	-0.539001	0.869384
C81	C	1.021542	-1.038989	0.282890
C82	C	1.521542	-0.538989	0.782890
C83	C	1.021517	-0.968302	0.282878
C84	C	1.521517	-0.468302	0.782878
C85	C	0.978195	-0.932965	0.326126
C86	C	1.478195	-0.432965	0.826126
C87	C	0.978165	-0.856317	0.326110
C88	C	1.478165	-0.356317	0.826110
C89	C	0.978145	-0.795225	0.326094
C90	C	1.478145	-0.295225	0.826094
C91	C	1.154655	-0.326136	0.326095
C92	C	1.654655	0.173864	0.826095
C93	C	1.229887	-0.326146	0.326102
C94	C	1.729887	0.173854	0.826102
C95	C	0.978151	-0.326072	0.502621
C96	C	1.478151	0.173928	1.002621
C97	C	0.978167	-0.326054	0.577853
C98	C	1.478167	0.173946	1.077853
C99	C	0.978207	-0.149572	0.326126
C100	C	1.478207	0.350428	0.826126
C101	C	0.978248	-0.074340	0.326146
C102	C	1.478248	0.425660	0.826146
C103	C	0.978114	-0.326108	0.150222
C104	C	1.478114	0.173892	0.650222
C105	C	0.978229	-0.325936	0.074991
C106	C	1.478229	0.174064	0.574991
C107	C	1.021481	-0.282767	0.613214
C108	C	1.521481	0.217233	1.113214
C109	C	1.021488	-0.282747	0.683903
C110	C	1.521488	0.217253	1.183903
C111	C	0.978184	-0.326018	0.719229
C112	C	1.478184	0.173982	1.219229
C113	C	0.934864	-0.369308	0.683863
C114	C	1.434864	0.130692	1.183863
C115	C	0.934854	-0.369323	0.613176
C116	C	1.434854	0.130677	1.113176
C117	C	0.934902	-0.369244	0.968936
C118	C	1.434902	0.130756	1.468936
C119	C	0.934917	-0.369227	1.039628
C120	C	1.434917	0.130773	1.539628
C121	C	1.021536	-0.282668	1.039663
C122	C	1.521536	0.217332	1.539663
C123	C	1.021527	-0.282684	0.968976
C124	C	1.521527	0.217316	1.468976
C125	C	0.978205	-0.325970	0.933616
C126	C	1.478205	0.174030	1.433616
C127	C	0.978197	-0.325990	0.856968
C128	C	1.478197	0.174010	1.356968
C129	C	0.978194	-0.326002	0.795876
C130	C	1.478194	0.173998	1.295876
H131	H	0.364632	-0.404564	0.247409
H132	H	0.864632	0.095436	0.747409
H133	H	0.720401	-0.404528	0.247386
H134	H	1.220401	0.095472	0.747386
H135	H	0.592156	-0.404535	0.247397
H136	H	1.092156	0.095465	0.747397
C137	C	0.227014	-0.235873	0.416519
C138	C	0.727014	0.264127	0.916519
C139	C	0.244240	-0.168884	0.401918
C140	C	0.744240	0.331116	0.901918
C141	C	0.209027	-0.125532	0.445254
C142	C	0.709027	0.374468	0.945254
H143	H	0.179838	-0.241972	0.410357
H144	H	0.679838	0.258028	0.910357
H145	H	0.238629	-0.245801	0.461988
H146	H	0.738629	0.254199	0.961988
H147	H	0.232621	-0.158960	0.356460
H148	H	0.732621	0.341040	0.856460
H149	H	0.291410	-0.162763	0.408084
H150	H	0.791410	0.337237	0.908084
H151	H	0.220641	-0.135460	0.490723
H152	H	0.720641	0.364540	0.990723
H153	H	0.161853	-0.131638	0.439089
H154	H	0.661853	0.368362	0.939089
H155	H	0.220714	-0.080076	0.435357
H156	H	0.720714	0.419924	0.935357
H157	H	1.056809	-0.247420	1.068462
H158	H	1.556809	0.252580	1.568462
C159	C	1.068525	-0.235710	0.574985
C160	C	1.568525	0.264290	1.074985
C161	C	1.106446	-0.197784	0.621087
C162	C	1.606446	0.302216	1.121087
C163	C	1.149782	-0.154420	0.585898
C164	C	1.649782	0.345580	1.085898
H165	H	1.098060	-0.261535	0.547405
H166	H	1.598060	0.238465	1.047405
H167	H	1.042660	-0.206186	0.547429
H168	H	1.542660	0.293814	1.047429
H169	H	1.132309	-0.227305	0.648631
H170	H	1.632309	0.272695	1.148631
H171	H	1.076929	-0.171946	0.648668
H172	H	1.576929	0.328054	1.148668
H173	H	1.123917	-0.124895	0.558341
H174	H	1.623917	0.375105	1.058341
H175	H	1.179312	-0.180250	0.558319
H176	H	1.679312	0.319750	1.058319
H177	H	1.175512	-0.128677	0.617172
H178	H	1.675512	0.371323	1.117172
C179	C	0.887932	-0.416318	1.077896
C180	C	1.387932	0.083682	1.577896
C181	C	0.902613	-0.483292	1.060670
C182	C	1.402613	0.016708	1.560670
C183	C	0.859342	-0.526688	1.095901
C184	C	1.359342	-0.026688	1.595901
H185	H	0.894102	-0.410202	1.125069
H186	H	1.394102	0.089798	1.625069
H187	H	0.842448	-0.406445	1.066295
H188	H	1.342448	0.093555	1.566295
H189	H	0.948087	-0.493162	1.072276
H190	H	1.448087	0.006838	1.572276
H191	H	0.896439	-0.489429	1.013503
H192	H	1.396439	0.010571	1.513503
H193	H	0.813858	-0.516816	1.084300
H194	H	1.313858	-0.016816	1.584300
H195	H	0.865515	-0.520567	1.143073
H196	H	1.365515	-0.020567	1.643073
H197	H	0.869293	-0.572135	1.084214
H198	H	1.369293	-0.072135	1.584214
H199	H	1.056644	-0.583763	0.247589
H200	H	1.556644	-0.083763	0.747589
C201	C	1.068478	-0.721473	0.235803
C202	C	1.568478	-0.221473	0.735803
C203	C	1.106375	-0.675386	0.197906
C204	C	1.606375	-0.175386	0.697906
C205	C	1.149730	-0.710591	0.154572
C206	C	1.649730	-0.210591	0.654572
H207	H	1.098027	-0.749009	0.261649
H208	H	1.598027	-0.249009	0.761649
H209	H	1.042627	-0.749074	0.206259
H210	H	1.542627	-0.249074	0.706259
H211	H	1.132224	-0.647796	0.227447
H212	H	1.632224	-0.147796	0.727447
H213	H	1.076844	-0.647848	0.172047
H214	H	1.576844	-0.147848	0.672047
H215	H	1.123879	-0.738193	0.125028
H216	H	1.623879	-0.238193	0.625028
H217	H	1.179274	-0.738126	0.180423
H218	H	1.679274	-0.238126	0.680423
H219	H	1.175443	-0.679327	0.128849
H220	H	1.675443	-0.179327	0.628849
H221	H	1.056773	-0.939522	0.247655
H222	H	1.556773	-0.439522	0.747655
H223	H	0.899637	-0.404501	0.940155
H224	H	1.399637	0.095499	1.440155
H225	H	1.056792	-0.247450	0.940217
H226	H	1.556792	0.252550	1.440217
H227	H	0.899618	-0.939544	0.404590
H228	H	1.399618	-0.439544	0.904590
C229	C	0.887809	-0.721735	0.416214
C230	C	1.387809	-0.221735	0.916214
C231	C	0.897088	-0.791204	0.406957
C232	C	1.397088	-0.291204	0.906957
C233	C	0.853807	-0.826689	0.450130
C234	C	1.353807	-0.326689	0.950130
H235	H	0.897640	-0.710195	0.461727
H236	H	1.397640	-0.210195	0.961727
H237	H	0.842319	-0.710229	0.406258
H238	H	1.342319	-0.210229	0.906258
H239	H	0.942567	-0.802705	0.416918
H240	H	1.442567	-0.302705	0.916918
H241	H	0.887252	-0.802764	0.361454
H242	H	1.387252	-0.302764	0.861454
H243	H	0.808318	-0.815183	0.440174
H244	H	1.308318	-0.315183	0.940174
H245	H	0.863642	-0.815143	0.495640
H246	H	1.363642	-0.315143	0.995640
H247	H	0.860093	-0.873827	0.443851
H248	H	1.360093	-0.373827	0.943851
H249	H	0.899602	-0.404538	0.712631
H250	H	1.399602	0.095462	1.212631
C251	C	0.887661	-0.574301	0.416291
C252	C	1.387661	-0.074301	0.916291
C253	C	0.849735	-0.620387	0.454162
C254	C	1.349735	-0.120387	0.954162
C255	C	0.806329	-0.585179	0.497442
C256	C	1.306329	-0.085179	0.997442
H257	H	0.913455	-0.546687	0.445859
H258	H	1.413455	-0.046687	0.945859
H259	H	0.858137	-0.546778	0.390387
H260	H	1.358137	-0.046778	0.890387
H261	H	0.879255	-0.647898	0.480064
H262	H	1.379255	-0.147898	0.980064
H263	H	0.823928	-0.648003	0.424612
H264	H	1.323928	-0.148003	0.924612
H265	H	0.776805	-0.557656	0.471539
H266	H	1.276805	-0.057656	0.971539
H267	H	0.832128	-0.557566	0.527006
H268	H	1.332128	-0.057566	1.027006
H269	H	0.780587	-0.616443	0.523139
H270	H	1.280587	-0.116443	1.023139
C271	C	1.068573	-1.077477	0.236026
C272	C	1.568573	-0.577477	0.736026
C273	C	1.059352	-1.146948	0.245311
C274	C	1.559352	-0.646948	0.745311
C275	C	1.102674	-1.182422	0.202164
C276	C	1.602674	-0.682422	0.702164
H277	H	1.058744	-1.066020	0.190506
H278	H	1.558744	-0.566020	0.690506
H279	H	1.114050	-1.065880	0.245989
H280	H	1.614050	-0.565880	0.745989
H281	H	1.013885	-1.158541	0.235343
H282	H	1.513885	-0.658541	0.735343
H283	H	1.069186	-1.158426	0.290822
H284	H	1.569186	-0.658426	0.790822
H285	H	1.148151	-1.170825	0.212127
H286	H	1.648151	-0.670825	0.712127
H287	H	1.092841	-1.170960	0.156647
H288	H	1.592841	-0.670960	0.656647
H289	H	1.096427	-1.229562	0.208462
H290	H	1.596427	-0.729562	0.708462
C291	C	0.887853	-0.416249	0.574659
C292	C	1.387853	0.083751	1.074659
C293	C	0.897099	-0.406988	0.505193
C294	C	1.397099	0.093012	1.005193
C295	C	0.853804	-0.450197	0.469692
C296	C	1.353804	0.049803	0.969692
H297	H	0.897692	-0.461753	0.586149
H298	H	1.397692	0.038247	1.086149
H299	H	0.842369	-0.406327	0.586200
H300	H	1.342369	0.093673	1.086200
H301	H	0.942573	-0.416915	0.493657
H302	H	1.442573	0.083085	0.993657
H303	H	0.887256	-0.361493	0.493683
H304	H	1.387256	0.138507	0.993683
H305	H	0.808319	-0.440275	0.481234
H306	H	1.308319	0.059725	0.981234
H307	H	0.863646	-0.495698	0.481187
H308	H	1.363646	0.004302	0.981187
H309	H	0.860066	-0.443915	0.422556
H310	H	1.360066	0.056085	0.922556
C311	C	0.729997	-0.235865	0.416547
C312	C	1.229997	0.264135	0.916547
C313	C	0.683939	-0.198000	0.454515
C314	C	1.183939	0.302000	0.954515
C315	C	0.719179	-0.154678	0.497912
C316	C	1.219179	0.345322	0.997912
H317	H	0.757577	-0.261718	0.446050
H318	H	1.257577	0.238282	0.946050
H319	H	0.757557	-0.206300	0.390724
H320	H	1.257557	0.293700	0.890724
H321	H	0.656391	-0.227561	0.480337
H322	H	1.156391	0.272439	0.980337
H323	H	0.656358	-0.172134	0.425030
H324	H	1.156358	0.327866	0.925030
H325	H	0.746739	-0.125113	0.472088
H326	H	1.246739	0.374887	0.972088
H327	H	0.746758	-0.180536	0.527410
H328	H	1.246758	0.319464	1.027410
H329	H	0.687934	-0.128977	0.523673
H330	H	1.187934	0.371023	1.023673
H331	H	0.899663	-1.067781	0.404611
H332	H	1.399663	-0.567781	0.904611
H333	H	0.592278	-0.247684	0.404757
H334	H	1.092278	0.252316	0.904757
C335	C	1.068435	-0.235767	0.722417
C336	C	1.568435	0.264233	1.222417
C337	C	1.059158	-0.244993	0.791882
C338	C	1.559158	0.255007	1.291882
C339	C	1.102384	-0.201713	0.827382
C340	C	1.602384	0.298287	1.327382
H341	H	1.113936	-0.245631	0.710925
H342	H	1.613936	0.254369	1.210925
H343	H	1.058539	-0.190279	0.710875
H344	H	1.558539	0.309721	1.210875
H345	H	1.069059	-0.290469	0.803420
H346	H	1.569059	0.209531	1.303420
H347	H	1.013666	-0.235123	0.803394
H348	H	1.513666	0.264877	1.303394
H349	H	1.092488	-0.156225	0.815840
H350	H	1.592488	0.343775	1.315840
H351	H	1.147882	-0.211581	0.815885
H352	H	1.647882	0.288419	1.315885
H353	H	1.096091	-0.207962	0.874518
H354	H	1.596091	0.292038	1.374518
C355	C	0.374395	-0.236085	0.416625
C356	C	0.874395	0.263915	0.916625
C357	C	0.414969	-0.274461	0.459947
C358	C	0.914969	0.225539	0.959947
C359	C	0.450383	-0.231347	0.503408
C360	C	0.950383	0.268653	1.003408
H361	H	0.402024	-0.206544	0.390863
H362	H	0.902024	0.293456	0.890863
H363	H	0.343261	-0.210353	0.442494
H364	H	0.843261	0.289647	0.942494
H365	H	0.446099	-0.300182	0.434081
H366	H	0.946099	0.199818	0.934081
H367	H	0.387356	-0.304000	0.485724
H368	H	0.887356	0.196000	0.985724
H369	H	0.419250	-0.205615	0.529276
H370	H	0.919250	0.294385	1.029276
H371	H	0.478009	-0.201808	0.477640
H372	H	0.978009	0.298192	0.977640
H373	H	0.477912	-0.257379	0.532810
H374	H	0.977912	0.242621	1.032810
C375	C	0.226911	-0.416336	0.235578
C376	C	0.726911	0.083664	0.735578
C377	C	0.272962	-0.454175	0.197576
C378	C	0.772962	0.045825	0.697576
C379	C	0.237716	-0.497435	0.154123
C380	C	0.737716	0.002565	0.654123
H381	H	0.199336	-0.445926	0.261341
H382	H	0.699336	0.054074	0.761341
H383	H	0.199346	-0.390419	0.206104
H384	H	0.699346	0.109581	0.706104
H385	H	0.300517	-0.480090	0.227046
H386	H	0.800517	0.019910	0.727046
H387	H	0.300539	-0.424603	0.171799
H388	H	0.800539	0.075397	0.671799
H389	H	0.210150	-0.471518	0.124650
H390	H	0.710150	0.028482	0.624650
H391	H	0.210142	-0.527020	0.179892
H392	H	0.710142	-0.027020	0.679892
H393	H	0.268956	-0.523109	0.128330
H394	H	0.768956	-0.023109	0.628330
