data_functionalizedCrystal
_audit_creation_method	'MofGen! by Chris Wilmer'
_symmetry_space_group_name_H-M	'P1'
_symmetry_Int_Tables_number	1
_symmetry_cell_setting	triclinic
loop_
_symmetry_equiv_pos_as_xyz
  x,y,z
_cell_length_a	6.817900
_cell_length_b	7.076078
_cell_length_c	7.190334
_cell_angle_alpha	96.845175
_cell_angle_beta	119.388224
_cell_angle_gamma	62.298625
loop_
_atom_site_label
_atom_site_type_symbol
_atom_site_fract_x
_atom_site_fract_y
_atom_site_fract_z
V1	V	4.298430	-0.291703	0.663525
V2	V	4.798430	0.208297	1.163525
O3	O	4.202197	0.017518	0.652430
O4	O	4.702197	0.517518	1.152430
O5	O	4.323658	-0.581765	0.657510
O6	O	4.823658	-0.081765	1.157510
O7	O	4.334036	-0.285680	0.953586
O8	O	4.834036	0.214320	1.453586
O9	O	4.191748	-0.280616	0.354305
O10	O	4.691748	0.219384	0.854305
V11	V	4.761632	-0.254898	0.626720
V12	V	5.261632	0.245102	1.126720
O13	O	4.604264	-0.372438	0.744262
O14	O	5.104264	0.127562	1.244262
O15	O	4.905995	-0.174164	0.545983
O16	O	5.405995	0.325836	1.045983
O17	O	4.513196	0.035164	0.632735
O18	O	5.013196	0.535164	1.132735
O19	O	4.975261	-0.564119	0.637815
O20	O	5.475261	-0.064119	1.137815
O21	O	4.985710	-0.265985	0.935940
O22	O	5.485710	0.234015	1.435940
O23	O	4.502819	-0.260921	0.336659
O24	O	5.002819	0.239079	0.836659
C25	C	4.190829	0.347476	0.646660
C26	C	4.690829	0.847476	1.146660
C27	C	4.316355	0.105903	0.643595
C28	C	4.816355	0.605903	1.143595
C29	C	4.197098	-0.274828	1.024332
C30	C	4.697098	0.225172	1.524332
C31	C	4.310063	-0.271763	1.265905
C32	C	4.810063	0.228237	1.765905
