data_functionalizedCrystal
_audit_creation_method	'MofGen! by Chris Wilmer'
_symmetry_space_group_name_H-M	'P1'
_symmetry_Int_Tables_number	1
_symmetry_cell_setting	triclinic
loop_
_symmetry_equiv_pos_as_xyz
  x,y,z
_cell_length_a	29.839135
_cell_length_b	12.759399
_cell_length_c	12.759393
_cell_angle_alpha	89.971563
_cell_angle_beta	90.024921
_cell_angle_gamma	89.981864
loop_
_atom_site_label
_atom_site_type_symbol
_atom_site_fract_x
_atom_site_fract_y
_atom_site_fract_z
Zn1	Zn	0.686842	0.418133	0.594184
Zn2	Zn	0.686796	0.593852	0.418514
Zn3	Zn	0.611712	0.418196	0.418504
Zn4	Zn	0.611706	0.593779	0.594136
O5	O	0.649264	0.505990	0.506335
O6	O	0.749703	0.441448	0.570906
O7	O	0.676819	0.570608	0.271492
O8	O	0.621701	0.271166	0.441825
O9	O	0.749669	0.570547	0.441842
O10	O	0.676898	0.271121	0.570896
O11	O	0.621656	0.441554	0.271484
O12	O	0.548845	0.441482	0.441777
O13	O	0.621690	0.570422	0.741163
O14	O	0.548840	0.570482	0.570813
O15	O	0.676892	0.441376	0.741199
O16	O	0.676813	0.740863	0.441795
O17	O	0.621645	0.740809	0.570823
C18	C	0.532542	0.505982	0.506290
C19	C	0.482607	0.506004	0.506295
C20	C	0.649236	0.778957	0.506328
C21	C	0.649265	0.895734	0.506360
C22	C	0.649296	0.505884	0.780368
C23	C	0.649309	0.505839	0.897145
C24	C	0.172979	0.438869	0.573637
C25	C	-0.014694	0.438877	0.573667
O26	O	-0.038947	0.381773	0.630874
N27	N	-0.038178	0.505991	0.506373
C28	C	-0.014740	0.573103	0.439062
O29	O	-0.039021	0.630181	0.381817
C30	C	0.172932	0.573090	0.439027
C31	C	0.196413	0.505979	0.506333
C32	C	0.196460	0.371763	0.640937
C33	C	0.243375	0.371766	0.640933
C34	C	0.266810	0.438875	0.573629
C35	C	0.243328	0.505982	0.506329
C36	C	0.196369	0.640197	0.371712
C37	C	0.243290	0.640185	0.371707
C38	C	0.266771	0.573074	0.439013
C39	C	0.313678	0.573094	0.439021
N40	N	0.337162	0.505980	0.506316
C41	C	0.313727	0.438870	0.573619
C42	C	-0.113271	0.573107	0.439086
C43	C	-0.160189	0.573112	0.439096
C44	C	-0.160140	0.438883	0.573700
C45	C	-0.113221	0.438885	0.573695
C46	C	-0.089787	0.505993	0.506380
C47	C	0.412253	0.438882	0.573606
C48	C	0.459173	0.438894	0.573599
C49	C	0.459120	0.573118	0.438992
C50	C	0.412204	0.573111	0.439002
C51	C	0.388772	0.505984	0.506313
O52	O	0.337960	0.630160	0.381836
O53	O	0.338016	0.381785	0.630839
C54	C	0.126063	0.438866	0.573641
C55	C	0.102582	0.505973	0.506342
C56	C	0.126017	0.573083	0.439038
C57	C	0.055664	0.505978	0.506351
C58	C	0.032230	0.438868	0.573655
C59	C	0.055713	0.371754	0.640949
C60	C	0.102629	0.371757	0.640945
C61	C	0.102533	0.640197	0.371744
C62	C	0.055618	0.640189	0.371754
C63	C	0.032183	0.573080	0.439058
C64	C	0.766443	0.505999	0.506380
C65	C	0.816377	0.506003	0.506400
C66	C	0.678022	0.950589	0.439252
C67	C	0.678049	1.060313	0.439290
C68	C	0.620557	1.060317	0.573547
C69	C	0.620533	0.950595	0.573513
C70	C	0.711213	0.950588	0.361736
C71	C	0.711240	1.060312	0.361775
C72	C	0.649303	1.231957	0.506378
C73	C	0.649316	1.115180	0.506432
C74	C	0.649259	0.506020	0.233367
C75	C	0.649332	0.505769	0.116591
C76	C	0.678057	0.438638	0.952027
C77	C	0.678067	0.438600	1.061751
C78	C	0.620582	0.572972	1.061701
C79	C	0.620569	0.573004	0.951979
C80	C	0.711247	0.361063	0.952057
C81	C	0.711258	0.361025	1.061781
H82	H	0.478289	0.384243	0.628411
Br83	Br	0.164665	0.280672	0.732290
Br84	Br	-0.192050	0.664208	0.347761
Br85	Br	0.581544	0.664187	0.877498
Br86	Br	-0.081475	0.664180	0.347709
H87	H	0.597120	0.905933	0.628167
H88	H	0.744295	1.094253	0.390997
Br89	Br	0.695750	1.110096	0.226139
Br90	Br	0.164514	0.731261	0.280341
Br91	Br	0.769185	0.900806	0.398166
Br92	Br	0.769250	0.397320	1.111441
Br93	Br	0.581578	0.664119	1.136125
Br94	Br	0.690436	0.232244	1.118529
Br95	Br	-0.081359	0.347802	0.665041
H96	H	0.597165	1.104998	0.628222
H97	H	0.698759	0.916642	0.284405
Br98	Br	0.695734	0.225457	0.902440
H99	H	0.262367	0.694833	0.316889
Br100	Br	0.766317	0.409670	0.895334
H101	H	0.393180	0.384218	0.628414
H102	H	0.262489	0.317115	0.695739
H103	H	0.393085	0.627770	0.384208
Br104	Br	0.490933	0.664194	0.347657
Br105	Br	-0.191952	0.347805	0.665039
H106	H	0.036503	0.694850	0.316947
Br107	Br	0.023900	0.280683	0.732295
H108	H	0.121609	0.694845	0.316934
H109	H	0.121743	0.317107	0.695752
