data_functionalizedCrystal
_audit_creation_method	'MofGen! by Chris Wilmer'
_symmetry_space_group_name_H-M	'P1'
_symmetry_Int_Tables_number	1
_symmetry_cell_setting	triclinic
loop_
_symmetry_equiv_pos_as_xyz
  x,y,z
_cell_length_a	14.519709
_cell_length_b	14.044220
_cell_length_c	13.596369
_cell_angle_alpha	89.993157
_cell_angle_beta	90.000291
_cell_angle_gamma	88.434511
loop_
_atom_site_label
_atom_site_type_symbol
_atom_site_fract_x
_atom_site_fract_y
_atom_site_fract_z
O1	O	1.233892	0.124273	-0.081665
O2	O	1.733892	0.624273	0.418335
O3	O	0.966596	0.138907	-0.081695
O4	O	1.466596	0.638907	0.418305
O5	O	1.096232	-0.006402	-0.081671
O6	O	1.596232	0.493598	0.418329
O7	O	1.104256	0.269581	-0.081690
O8	O	1.604256	0.769581	0.418310
O9	O	1.096217	-0.006409	0.081912
O10	O	1.596217	0.493591	0.581912
O11	O	0.966581	0.138899	0.081887
O12	O	1.466581	0.638899	0.581887
O13	O	1.233878	0.124265	0.081918
O14	O	1.733878	0.624265	0.581918
Zn15	Zn	1.100227	0.131581	0.107875
Zn16	Zn	1.600227	0.631581	0.607875
Zn17	Zn	1.100246	0.131591	-0.107653
Zn18	Zn	1.600246	0.631591	0.392347
O19	O	1.104241	0.269574	0.081893
O20	O	1.604241	0.769574	0.581893
C21	C	0.932174	0.138221	0.000092
C22	C	1.432174	0.638221	0.500092
C23	C	0.829628	0.136177	0.000081
C24	C	1.329628	0.636177	0.500081
C25	C	0.454125	0.128653	0.000126
C26	C	0.954125	0.628653	0.500126
C27	C	0.558601	0.130743	0.000113
C28	C	1.058601	0.630743	0.500113
C29	C	0.641873	0.132415	0.000103
C30	C	1.141873	0.632415	0.500103
C31	C	0.746356	0.134505	0.000092
C32	C	1.246356	0.634505	0.500092
C33	C	1.092712	-0.041726	0.000120
C34	C	1.592712	0.458274	0.500120
C35	C	1.082235	-0.146969	0.000120
C36	C	1.582235	0.353031	0.500120
C37	C	1.063081	-0.339663	0.000104
C38	C	1.563081	0.160337	0.500104
C39	C	1.137389	-0.397170	0.000110
C40	C	1.637389	0.102830	0.500110
C41	C	1.126731	-0.504392	0.000101
C42	C	1.626731	-0.004392	0.500101
C43	C	1.073737	-0.232432	0.000113
C44	C	1.573737	0.267568	0.500113
C45	C	1.268300	0.124951	0.000128
C46	C	1.768300	0.624951	0.500128
C47	C	1.370846	0.126995	0.000133
C48	C	1.870846	0.626995	0.500133
C49	C	1.107761	0.304898	0.000100
C50	C	1.607761	0.804898	0.500100
C51	C	1.118238	0.410141	0.000093
C52	C	1.618238	0.910141	0.500093
N53	N	1.100220	0.131573	0.254967
N54	N	1.600220	0.631573	0.754967
N55	N	1.100260	0.131591	-0.254744
N56	N	1.600260	0.631591	0.245256
C57	C	1.100245	0.131592	0.656258
C58	C	1.600245	0.631592	1.156258
C59	C	1.100236	0.131590	0.544606
C60	C	1.600236	0.631590	1.044606
C61	C	1.100233	0.131583	0.455616
C62	C	1.600233	0.631583	0.955616
C63	C	1.100223	0.131580	0.343957
C64	C	1.600223	0.631580	0.843957
H65	H	1.209010	-0.365878	0.000052
H66	H	1.709010	0.134122	0.500052
O67	O	0.977708	-0.377143	0.000142
O68	O	1.477708	0.122857	0.500142
C69	C	0.985941	-0.477407	0.000114
C70	C	1.485941	0.022593	0.500114
H71	H	1.056045	-0.500388	0.031082
H72	H	1.556045	-0.000388	0.531082
H73	H	0.979251	-0.504941	-0.078367
H74	H	1.479251	-0.004941	0.421633
C75	C	0.823167	-0.490469	0.026228
C76	C	1.323167	0.009531	0.526228
C77	C	0.909267	-0.518694	0.064272
C78	C	1.409267	-0.018694	0.564272
H79	H	0.775870	-0.515938	0.065800
H80	H	1.275870	-0.015938	0.565800
H81	H	0.817619	-0.422919	0.026244
H82	H	1.317619	0.077081	0.526244
H83	H	0.817606	-0.513415	-0.039171
H84	H	1.317606	-0.013415	0.460829
H85	H	0.914832	-0.495737	0.129665
H86	H	1.414832	0.004263	0.629665
H87	H	0.914814	-0.586241	0.064269
H88	H	1.414814	-0.086241	0.564269
