data_functionalizedCrystal
_audit_creation_method	'MofGen! by Chris Wilmer'
_symmetry_space_group_name_H-M	'P1'
_symmetry_Int_Tables_number	1
_symmetry_cell_setting	triclinic
loop_
_symmetry_equiv_pos_as_xyz
  x,y,z
_cell_length_a	14.853567
_cell_length_b	19.288865
_cell_length_c	17.766277
_cell_angle_alpha	90.011603
_cell_angle_beta	89.993613
_cell_angle_gamma	96.614411
loop_
_atom_site_label
_atom_site_type_symbol
_atom_site_fract_x
_atom_site_fract_y
_atom_site_fract_z
O1	O	1.195855	-0.090685	-0.062551
O2	O	0.933334	-0.101488	-0.062565
O3	O	1.072180	0.005018	-0.062543
O4	O	1.057009	-0.197191	-0.062574
O5	O	1.072156	0.005024	0.062646
O6	O	0.933310	-0.101482	0.062623
O7	O	1.195831	-0.090680	0.062637
Cu8	Cu	1.064568	-0.096080	0.074061
Cu9	Cu	1.064597	-0.096087	-0.073989
O10	O	1.056985	-0.197186	0.062615
C11	C	0.899736	-0.100996	0.000027
C12	C	0.799661	-0.099529	0.000023
C13	C	0.387522	-0.030061	0.000050
C14	C	0.365522	-0.156593	0.000030
C15	C	0.459547	-0.157972	0.000028
C16	C	0.517565	-0.095395	0.000035
C17	C	0.481557	-0.031439	0.000045
C18	C	0.495563	-0.221927	0.000010
C19	C	0.589594	-0.223309	0.000006
C20	C	0.647614	-0.160731	0.000019
C21	C	0.611600	-0.096772	0.000030
C22	C	0.669618	-0.034195	0.000038
C23	C	0.633606	0.029764	0.000054
C24	C	0.539577	0.031139	0.000058
C25	C	0.741643	-0.162106	0.000015
C26	C	0.763653	-0.035572	0.000033
C27	C	1.071680	0.030899	0.000053
C28	C	1.070215	0.108008	0.000060
C29	C	1.229429	-0.091172	0.000043
C30	C	1.329504	-0.092639	0.000043
C31	C	1.057485	-0.223067	0.000017
C32	C	1.058951	-0.300175	0.000005
N33	N	1.064555	-0.096076	0.178191
C34	C	1.151683	0.152429	0.000068
C35	C	1.150307	0.224881	0.000056
C36	C	1.067457	0.252908	0.000051
C37	C	0.985977	0.208477	0.000039
C38	C	0.987356	0.136027	0.000043
C39	C	1.002318	0.361417	0.043899
C40	C	1.000943	0.433866	0.043899
C41	C	1.063200	0.476368	0.000034
C42	C	1.126848	0.446413	-0.043821
C43	C	1.128227	0.373963	-0.043817
C44	C	1.065952	0.331467	0.000046
C45	C	1.143181	0.599350	0.000028
C46	C	1.141801	0.671803	0.000011
C47	C	0.977470	0.655397	0.000002
C48	C	0.978852	0.582946	0.000011
C49	C	1.061710	0.554927	0.000028
N50	N	1.064618	-0.096086	-0.178119
C51	C	1.126055	-0.048938	0.217588
C52	C	1.126061	-0.048935	0.296390
C53	C	1.064574	-0.096081	0.335792
C54	C	1.003061	-0.143222	0.296386
C55	C	1.003052	-0.143220	0.217585
C56	C	1.052504	-0.159328	0.460620
C57	C	1.052520	-0.159332	0.539419
C58	C	1.064598	-0.096090	0.578838
C59	C	1.076679	-0.032841	0.539449
C60	C	1.076669	-0.032838	0.460649
C61	C	1.064577	-0.096089	0.421238
C62	C	1.126108	-0.048944	0.703681
C63	C	1.126107	-0.048940	0.782484
C64	C	1.003111	-0.143234	0.782478
C65	C	1.003108	-0.143232	0.703677
C66	C	1.064611	-0.096088	0.664283
H67	H	0.318279	-0.207540	0.000018
H68	H	0.953044	-0.181619	0.814559
N69	N	1.039485	-0.227545	0.418109
H70	H	1.041310	-0.217947	0.362213
H71	H	0.978940	-0.253787	0.431886
H72	H	1.216650	0.261055	0.000060
N73	N	0.780490	-0.231080	-0.000000
H74	H	0.819017	-0.234470	-0.046409
H75	H	0.729420	-0.270473	0.000021
H76	H	1.177543	0.481017	-0.079540
H77	H	0.949113	0.458249	0.079604
H78	H	0.810886	0.015386	0.000042
H79	H	1.180050	0.349577	-0.079526
H80	H	1.219153	0.129621	0.000079
N81	N	1.232544	0.569122	0.000043
H82	H	1.283947	0.608260	0.000040
H83	H	1.236704	0.539406	-0.046362
N84	N	1.229675	0.719719	0.000017
H85	H	1.282371	0.690972	0.000031
H86	H	1.232665	0.750147	0.046423
H87	H	0.618906	-0.275389	-0.000007
N88	N	0.890984	0.535027	0.000018
H89	H	0.887901	0.504590	-0.046387
H90	H	0.838337	0.563820	0.000043
H91	H	0.358197	0.022013	0.000066
H92	H	0.680856	0.080715	0.000055
N93	N	1.089723	0.035372	0.581961
H94	H	1.150282	0.061631	0.568244
H95	H	1.087853	0.025710	0.637841
H96	H	0.951619	0.326817	0.079622
H97	H	1.176184	-0.010555	0.671605
H98	H	1.086503	0.018661	0.428581
N99	N	1.192458	0.001892	0.824981
H100	H	1.231423	0.031749	0.788064
H101	H	1.232190	-0.024777	0.857654
H102	H	1.176132	-0.010549	0.185516
N103	N	0.936774	-0.194073	0.661178
H104	H	0.897821	-0.223940	0.698094
H105	H	0.971152	-0.224830	0.628467
H106	H	0.910012	0.678216	-0.000006
H107	H	0.952969	-0.181605	0.185508
N108	N	0.896617	0.238701	0.000030
H109	H	0.908104	0.291339	0.000030
H110	H	0.860967	0.222464	0.046436
N111	N	0.500736	0.100119	0.000081
H112	H	0.432366	0.091494	0.000082
H113	H	0.521978	0.127508	-0.046322
N114	N	0.899484	0.088109	0.000034
H115	H	0.846787	0.116855	0.000027
H116	H	0.896467	0.057704	0.046446
H117	H	1.042689	-0.210832	0.571483
N118	N	1.192394	0.001910	0.338895
H119	H	1.231352	0.031776	0.301982
H120	H	1.232136	-0.024745	0.371575
H121	H	0.448319	-0.272874	-0.000004
H122	H	0.952996	-0.181609	0.328471
