data_functionalizedCrystal
_audit_creation_method	'MofGen! by Chris Wilmer'
_symmetry_space_group_name_H-M	'P1'
_symmetry_Int_Tables_number	1
_symmetry_cell_setting	triclinic
loop_
_symmetry_equiv_pos_as_xyz
  x,y,z
_cell_length_a	18.050591
_cell_length_b	18.050590
_cell_length_c	12.759401
_cell_angle_alpha	90.014675
_cell_angle_beta	90.011379
_cell_angle_gamma	90.014558
loop_
_atom_site_label
_atom_site_type_symbol
_atom_site_fract_x
_atom_site_fract_y
_atom_site_fract_z
Zn1	Zn	1.135272	-0.295849	0.594208
Zn2	Zn	1.635272	0.204151	1.094208
Zn3	Zn	1.135225	-0.420014	0.418516
Zn4	Zn	1.635225	0.079986	0.918516
Zn5	Zn	1.011112	-0.295833	0.418519
Zn6	Zn	1.511112	0.204167	0.918519
Zn7	Zn	1.011061	-0.419993	0.594129
Zn8	Zn	1.511061	0.080007	1.094129
O9	O	1.073168	-0.357922	0.506343
O10	O	1.573168	0.142078	1.006343
O11	O	1.239191	-0.312335	0.570934
O12	O	1.739191	0.187665	1.070934
O13	O	1.118763	-0.403543	0.271495
O14	O	1.618763	0.096457	0.771495
O15	O	1.027624	-0.191911	0.441860
O16	O	1.527624	0.308089	0.941860
O17	O	1.239156	-0.403558	0.441853
O18	O	1.739156	0.096442	0.941853
O19	O	1.118844	-0.191923	0.570938
O20	O	1.618844	0.308077	1.070938
O21	O	1.027578	-0.312308	0.271498
O22	O	1.527578	0.187692	0.771498
O23	O	0.907181	-0.312288	0.441783
O24	O	1.407181	0.187712	0.941783
O25	O	1.027536	-0.403523	0.741160
O26	O	1.527536	0.096477	1.241160
O27	O	0.907143	-0.403508	0.570802
O28	O	1.407143	0.096492	1.070802
O29	O	1.118794	-0.312315	0.741219
O30	O	1.618794	0.187685	1.241219
O31	O	1.118713	-0.523936	0.441776
O32	O	1.618713	-0.023936	0.941776
O33	O	1.027490	-0.523921	0.570798
O34	O	1.527490	-0.023921	1.070798
C35	C	0.880215	-0.357895	0.506285
C36	C	1.380215	0.142105	1.006285
C37	C	0.797670	-0.357901	0.506285
C38	C	1.297670	0.142099	1.006285
C39	C	1.073110	-0.550875	0.506301
C40	C	1.573110	-0.050875	1.006301
C41	C	1.073154	-0.633420	0.506318
C42	C	1.573154	-0.133420	1.006318
C43	C	0.598218	-0.308238	0.436286
C44	C	1.098218	0.191762	0.936286
C45	C	0.548813	-0.375971	0.410430
C46	C	1.048813	0.124029	0.910430
C47	C	0.646539	-0.357923	0.506332
C48	C	1.146539	0.142077	1.006332
C49	C	0.548863	-0.290214	0.532186
C50	C	1.048863	0.209786	1.032186
C51	C	0.500554	-0.357939	0.506376
C52	C	1.000554	0.142061	1.006376
C53	C	0.598221	-0.425692	0.480426
C54	C	1.098221	0.074308	0.980426
C55	C	0.598276	-0.339889	0.602227
C56	C	1.098276	0.160111	1.102227
C57	C	0.548893	-0.407669	0.576407
C58	C	1.048893	0.092331	1.076407
C59	C	0.730638	-0.357913	0.506304
C60	C	1.230638	0.142087	1.006304
C61	C	0.416458	-0.357957	0.506404
C62	C	0.916458	0.142043	1.006404
C63	C	1.122864	-0.832852	0.436254
C64	C	1.622864	-0.332852	0.936254
C65	C	1.140988	-0.882202	0.532144
C66	C	1.640988	-0.382202	1.032144
C67	C	1.073196	-0.784551	0.506360
C68	C	1.573196	-0.284551	1.006360
C69	C	1.055148	-0.882282	0.410513
C70	C	1.555148	-0.382282	0.910513
C71	C	1.073238	-0.930536	0.506392
C72	C	1.573238	-0.430536	1.006392
C73	C	1.091355	-0.832814	0.602301
C74	C	1.591355	-0.332814	1.102301
C75	C	1.005483	-0.832889	0.480605
C76	C	1.505483	-0.332889	0.980605
C77	C	1.023581	-0.882217	0.576561
C78	C	1.523581	-0.382217	1.076561
C79	C	1.073174	-0.700452	0.506340
C80	C	1.573174	-0.200452	1.006340
C81	C	1.073260	-1.014632	0.506423
C82	C	1.573260	-0.514632	1.006423
C83	C	1.266873	-0.357951	0.506402
C84	C	1.766873	0.142049	1.006402
C85	C	1.349419	-0.357963	0.506427
C86	C	1.849419	0.142037	1.006427
C87	C	1.073164	-0.357919	0.780376
C88	C	1.573164	0.142081	1.280376
C89	C	1.073163	-0.357917	0.897153
C90	C	1.573163	0.142083	1.397153
C91	C	1.073245	-0.164217	0.506408
C92	C	1.573245	0.335783	1.006408
C93	C	1.073278	-0.081671	0.506436
C94	C	1.573278	0.418329	1.006436
C95	C	1.120676	-0.310435	0.952047
C96	C	1.620676	0.189565	1.452047
C97	C	1.120672	-0.310437	1.061771
C98	C	1.620672	0.189563	1.561771
C99	C	1.025639	-0.405409	1.061697
C100	C	1.525639	0.094591	1.561697
C101	C	1.025640	-0.405403	0.951975
C102	C	1.525640	0.094597	1.451975
C103	C	1.175546	-0.255605	0.952090
C104	C	1.675546	0.244395	1.452090
C105	C	1.175541	-0.255607	1.061815
C106	C	1.675541	0.244393	1.561815
C107	C	1.073163	-0.357938	1.233376
C108	C	1.573163	0.142062	1.733376
C109	C	1.073157	-0.357925	1.116599
C110	C	1.573157	0.142075	1.616599
H111	H	0.619876	-0.266266	0.376986
H112	H	1.119876	0.233734	0.876986
H113	H	1.233053	-0.271023	1.091604
H114	H	1.733053	0.228977	1.591604
F115	F	0.520519	-0.215362	0.560742
F116	F	1.020519	0.284638	1.060742
H117	H	1.154958	-0.200967	1.095863
H118	H	1.654958	0.299033	1.595863
F119	F	1.215862	-0.910504	0.560660
F120	F	1.715862	-0.410504	1.060660
H121	H	1.160168	-0.198083	0.922337
H122	H	1.660168	0.301917	1.422337
H123	H	0.986947	-0.444065	0.907284
H124	H	1.486947	0.055935	1.407284
H125	H	0.620019	-0.324603	0.683280
H126	H	1.120019	0.175397	1.183280
F127	F	0.520414	-0.395925	0.304457
F128	F	1.020414	0.104075	0.804457
H129	H	0.619812	-0.482977	0.458488
H130	H	1.119812	0.017023	0.958488
H131	H	0.527371	-0.449741	0.635662
H132	H	1.027371	0.050259	1.135662
H133	H	1.164881	-0.811177	0.377029
H134	H	1.664881	-0.311177	0.877029
F135	F	0.975064	-0.455944	1.120052
F136	F	1.475064	0.044056	1.620052
F137	F	1.111426	-0.804535	0.708294
F138	F	1.611426	-0.304535	1.208294
F139	F	0.968704	-0.910372	0.654158
F140	F	1.468704	-0.410372	1.154158
H141	H	1.039865	-0.904011	0.329443
H142	H	1.539865	-0.404011	0.829443
H143	H	1.230172	-0.276219	0.918065
H144	H	1.730172	0.223781	1.418065
H145	H	0.948217	-0.811210	0.458771
H146	H	1.448217	-0.311210	0.958771
