data_functionalizedCrystal
_audit_creation_method	'MofGen! by Chris Wilmer'
_symmetry_space_group_name_H-M	'P1'
_symmetry_Int_Tables_number	1
_symmetry_cell_setting	triclinic
loop_
_symmetry_equiv_pos_as_xyz
  x,y,z
_cell_length_a	16.992701
_cell_length_b	11.792254
_cell_length_c	15.455313
_cell_angle_alpha	92.683372
_cell_angle_beta	87.136501
_cell_angle_gamma	87.432884
loop_
_atom_site_label
_atom_site_type_symbol
_atom_site_fract_x
_atom_site_fract_y
_atom_site_fract_z
O1	O	1.044840	0.236084	-0.072138
O2	O	0.816543	0.233446	-0.072138
O3	O	0.936226	0.070048	-0.072132
O4	O	0.925157	0.399481	-0.072144
O5	O	0.929382	0.079351	0.072130
O6	O	0.809699	0.242748	0.072124
O7	O	1.037995	0.245387	0.072124
Cu8	Cu	0.923222	0.244917	0.085296
Cu9	Cu	0.931316	0.233915	-0.085310
O10	O	0.918312	0.408784	0.072118
C11	C	0.783894	0.234700	-0.000007
C12	C	0.696806	0.224563	-0.000007
C13	C	0.207555	0.156453	-0.000008
C14	C	0.289382	0.165986	-0.000003
C15	C	0.321385	0.273337	-0.000011
C16	C	0.271556	0.371161	-0.000015
C17	C	0.189731	0.361627	-0.000014
C18	C	0.565152	0.312853	-0.000010
C19	C	0.646984	0.322379	-0.000014
C20	C	0.664804	0.117204	-0.000000
C21	C	0.582976	0.107678	-0.000004
C22	C	0.533154	0.205503	-0.000004
N23	N	0.405026	0.283084	-0.000009
N24	N	0.449515	0.195755	0.000000
C25	C	0.932107	0.032352	-0.000001
C26	C	0.930019	-0.093832	-0.000002
C27	C	0.928324	-0.196307	-0.000005
C28	C	0.926203	-0.324868	-0.000013
C29	C	1.070645	0.244133	-0.000009
C30	C	1.157733	0.254269	-0.000015
C31	C	0.922432	0.446480	-0.000015
C32	C	0.924519	0.572664	-0.000020
N33	N	0.917535	0.252655	0.205291
N34	N	0.937010	0.226169	-0.205306
C35	C	0.968398	0.183267	0.250688
C36	C	0.964105	0.189129	0.341496
C37	C	0.908951	0.264387	0.386905
C38	C	0.858082	0.333778	0.341502
C39	C	0.862372	0.327908	0.250696
C40	C	0.890431	0.289691	0.658485
C41	C	0.886146	0.295557	0.749298
C42	C	0.992168	0.150907	0.749285
C43	C	0.996457	0.145049	0.658478
C44	C	0.945586	0.214436	0.613082
N45	N	0.904562	0.270384	0.479725
N46	N	0.949971	0.208432	0.520264
H47	H	0.673037	0.409803	-0.000008
H48	H	0.181505	0.069036	-0.000007
H49	H	0.329944	0.086333	0.000006
O50	O	1.041544	0.083334	0.793290
C51	C	1.029342	-0.031661	0.771132
H52	H	1.002226	-0.038541	0.705206
H53	H	0.987729	-0.067037	0.822250
C54	C	1.142160	-0.091740	0.847900
C55	C	1.108862	-0.100192	0.766926
H56	H	1.191210	-0.134016	0.845309
H57	H	1.150379	-0.014267	0.862832
H58	H	1.107475	-0.121219	0.890490
H59	H	1.143542	-0.070700	0.724340
H60	H	1.100650	-0.177662	0.751987
H61	H	1.013314	0.121989	0.213722
O62	O	0.552018	0.003313	0.000050
C63	C	0.613541	-0.080983	0.000037
H64	H	0.667963	-0.042350	0.027342
H65	H	0.628265	-0.115985	-0.069170
C66	C	0.520500	-0.225417	0.023086
C67	C	0.587340	-0.177969	0.056631
H68	H	0.504338	-0.285245	0.057993
H69	H	0.479050	-0.168627	0.023092
H70	H	0.532779	-0.254576	-0.034585
H71	H	0.575057	-0.148798	0.114296
H72	H	0.628787	-0.234757	0.056636
O73	O	0.516876	0.407988	-0.000053
C74	C	0.562672	0.504779	-0.000042
H75	H	0.624907	0.479731	-0.027356
H76	H	0.565356	0.541803	0.069165
C77	C	0.448566	0.625096	-0.023075
C78	C	0.525002	0.594333	-0.056628
H79	H	0.425328	0.680340	-0.057976
H80	H	0.417711	0.559887	-0.023079
H81	H	0.450813	0.655943	0.034597
H82	H	0.522753	0.563475	-0.114295
H83	H	0.555856	0.659540	-0.056635
O84	O	0.302510	0.475532	0.000015
C85	C	0.240987	0.559822	-0.000012
H86	H	0.183977	0.524716	0.027306
H87	H	0.232825	0.585880	-0.069224
C88	C	0.331840	0.707237	0.022997
C89	C	0.261821	0.664121	0.056557
H90	H	0.344692	0.771576	0.057889
H91	H	0.373291	0.650450	0.023012
H92	H	0.325030	0.728943	-0.034679
H93	H	0.268636	0.642403	0.114228
H94	H	0.220372	0.720907	0.056553
O95	O	0.713311	0.022302	0.000045
C96	C	0.792397	0.053728	0.000020
H97	H	0.794620	0.144958	0.027322
H98	H	0.819323	0.047098	-0.069189
C99	C	0.836679	-0.138275	0.023071
C100	C	0.839409	-0.026228	0.056610
H101	H	0.865680	-0.187597	0.057975
H102	H	0.783397	-0.159449	0.023084
H103	H	0.859116	-0.143783	-0.034603
H104	H	0.816963	-0.020718	0.114279
H105	H	0.892688	-0.005054	0.056608
O106	O	1.013604	0.121695	0.385459
C107	C	1.063198	0.054004	0.325908
H108	H	1.067329	0.096451	0.261171
H109	H	1.037842	-0.033307	0.316272
C110	C	1.140971	-0.011467	0.440836
C111	C	1.146050	0.040672	0.361326
H112	H	1.192077	-0.019696	0.462684
H113	H	1.107557	0.034134	0.480957
H114	H	1.119837	-0.084221	0.432795
H115	H	1.167174	0.113430	0.369370
H116	H	1.179469	-0.004917	0.321207
O117	O	0.832489	0.368681	0.793275
C118	C	0.788517	0.428681	0.733738
H119	H	0.790496	0.377871	0.669012
H120	H	0.814786	0.514744	0.724067
C121	C	0.699895	0.509005	0.848698
C122	C	0.702320	0.446595	0.769202
H123	H	0.646725	0.520061	0.870575
H124	H	0.729521	0.468586	0.888811
H125	H	0.721790	0.580718	0.840628
H126	H	0.680434	0.374879	0.777275
H127	H	0.672688	0.487002	0.729092
H128	H	1.041368	0.083768	0.621507
H129	H	0.149165	0.441280	-0.000016
H130	H	0.849011	0.346190	0.621532
H131	H	0.813170	0.395050	0.378479
O132	O	0.812930	0.395431	0.206729
C133	C	0.763317	0.463095	0.266277
H134	H	0.792423	0.471508	0.330999
H135	H	0.704437	0.421518	0.275956
C136	C	0.713594	0.571477	0.151332
C137	C	0.749346	0.581817	0.230822
H138	H	0.704973	0.644709	0.129461
H139	H	0.747017	0.525888	0.111212
H140	H	0.664531	0.536825	0.159408
H141	H	0.798412	0.616455	0.222743
H142	H	0.715931	0.627415	0.270940
