data_functionalizedCrystal
_audit_creation_method	'MofGen! by Chris Wilmer'
_symmetry_space_group_name_H-M	'P1'
_symmetry_Int_Tables_number	1
_symmetry_cell_setting	triclinic
loop_
_symmetry_equiv_pos_as_xyz
  x,y,z
_cell_length_a	8.497374
_cell_length_b	8.497365
_cell_length_c	12.759401
_cell_angle_alpha	89.968550
_cell_angle_beta	89.999822
_cell_angle_gamma	90.037770
loop_
_atom_site_label
_atom_site_type_symbol
_atom_site_fract_x
_atom_site_fract_y
_atom_site_fract_z
Zn1	Zn	0.627698	-0.892061	1.606486
Zn2	Zn	0.891642	-0.628326	1.606384
Zn3	Zn	0.627866	-0.628293	1.430750
Zn4	Zn	0.891426	-0.892063	1.430819
O5	O	0.759658	-0.760186	1.518610
O6	O	0.662732	-0.857089	1.753494
O7	O	0.856812	-0.407559	1.583013
O8	O	0.407081	-0.663267	1.454075
O9	O	0.856650	-0.663324	1.753418
O10	O	0.406958	-0.857057	1.583189
O11	O	0.663017	-0.407535	1.453976
O12	O	0.662807	-0.663270	1.283738
O13	O	0.856282	-1.112825	1.454194
O14	O	0.856444	-0.857060	1.283789
O15	O	0.662522	-1.112824	1.583256
O16	O	1.112376	-0.663326	1.583081
O17	O	1.112217	-0.857093	1.454094
C18	C	0.759621	-0.760163	1.245642
C19	C	0.759644	-0.760190	1.128866
C20	C	1.169538	-0.760209	1.518596
C21	C	1.348182	-0.760183	1.518624
C22	C	0.658889	-0.861250	0.964307
C23	C	0.658858	-0.861240	1.074031
C24	C	0.860478	-0.659156	1.073971
C25	C	0.860516	-0.659175	0.964249
C26	C	0.759830	-0.350306	1.518534
C27	C	0.759506	-0.171662	1.518683
C28	C	0.759696	-0.760210	1.792643
C29	C	0.759712	-0.760220	1.909420
H30	H	0.576808	-0.943527	0.919668
C31	C	0.547937	-0.972373	1.134401
N32	N	0.464384	-1.056082	1.179872
C33	C	0.971336	-0.547993	1.134293
N34	N	1.054830	-0.464256	1.179727
C35	C	0.971428	-0.548022	0.903870
N36	N	1.054964	-0.464305	0.858392
