data_functionalizedCrystal
_audit_creation_method	'MofGen! by Chris Wilmer'
_symmetry_space_group_name_H-M	'P1'
_symmetry_Int_Tables_number	1
_symmetry_cell_setting	triclinic
loop_
_symmetry_equiv_pos_as_xyz
  x,y,z
_cell_length_a	10.654556
_cell_length_b	10.654551
_cell_length_c	9.730223
_cell_angle_alpha	90.002136
_cell_angle_beta	89.998368
_cell_angle_gamma	95.513601
loop_
_atom_site_label
_atom_site_type_symbol
_atom_site_fract_x
_atom_site_fract_y
_atom_site_fract_z
O1	O	1.667835	-0.176437	-0.114230
O2	O	1.302357	-0.193234	-0.114244
O3	O	1.493499	-0.002097	-0.114236
O4	O	1.476694	-0.367575	-0.114239
O5	O	1.493486	-0.002091	0.114344
O6	O	1.302345	-0.193229	0.114336
O7	O	1.667823	-0.176431	0.114350
Zn8	Zn	1.485082	-0.184829	0.150635
Zn9	Zn	1.485098	-0.184836	-0.150529
O10	O	1.476681	-0.367569	0.114341
C11	C	1.255553	-0.191997	0.000044
C12	C	1.116111	-0.188302	0.000039
C13	C	0.919572	-0.183102	-0.124549
C14	C	1.050594	-0.186566	-0.124558
C15	C	1.050599	-0.186560	0.124653
C16	C	0.919581	-0.183087	0.124660
C17	C	1.492258	0.044704	0.000052
C18	C	1.488566	0.184147	0.000044
C19	C	1.714627	-0.177669	0.000058
C20	C	1.854069	-0.181364	0.000055
C21	C	1.486840	0.249648	-0.124557
C22	C	1.483360	0.380669	-0.124560
C23	C	1.483338	0.380676	0.124651
C24	C	1.486809	0.249657	0.124652
N25	N	1.485080	-0.184824	0.356171
C26	C	1.477922	0.585630	0.000048
C27	C	1.481615	0.446187	0.000040
N28	N	1.485110	-0.184832	-0.356066
C29	C	1.569746	-0.100224	0.428101
C30	C	1.569759	-0.100225	0.571984
C31	C	1.400434	-0.269436	0.571995
C32	C	1.400417	-0.269428	0.428114
H33	H	1.103921	-0.187979	-0.226023
O34	O	1.661092	-0.008994	0.649571
H35	H	1.719966	0.049823	0.575367
O36	O	1.121256	-0.188445	0.259043
H37	H	1.191410	-0.104589	0.265008
O38	O	1.661021	-0.008946	0.350493
H39	H	1.722521	-0.062359	0.284917
H40	H	1.481952	0.433994	-0.226022
O41	O	1.309140	-0.360705	0.649589
H42	H	1.247657	-0.307281	0.715174
H43	H	0.866247	-0.181671	0.226133
O44	O	1.488708	0.178987	-0.258952
H45	H	1.573484	0.214585	-0.318710
O46	O	1.481478	0.451349	0.259038
H47	H	1.394461	0.500615	0.264998
O48	O	0.848912	-0.181203	-0.258937
H49	H	0.916480	-0.182972	-0.345582
O50	O	1.488685	0.178996	0.259048
H51	H	1.486904	0.246561	0.345696
O52	O	1.309098	-0.360683	0.350517
H53	H	1.250244	-0.419529	0.424713
