data_functionalizedCrystal
_audit_creation_method	'MofGen! by Chris Wilmer'
_symmetry_space_group_name_H-M	'P1'
_symmetry_Int_Tables_number	1
_symmetry_cell_setting	triclinic
loop_
_symmetry_equiv_pos_as_xyz
  x,y,z
_cell_length_a	17.666332
_cell_length_b	19.188930
_cell_length_c	19.188930
_cell_angle_alpha	83.144779
_cell_angle_beta	89.988397
_cell_angle_gamma	89.976766
loop_
_atom_site_label
_atom_site_type_symbol
_atom_site_fract_x
_atom_site_fract_y
_atom_site_fract_z
O1	O	0.063200	-0.926150	-0.087169
O2	O	0.563200	-0.426150	0.412831
O3	O	0.063149	-0.722838	-0.098903
O4	O	0.563149	-0.222838	0.401097
O5	O	0.063161	-0.830361	0.008620
O6	O	0.563161	-0.330361	0.508620
O7	O	0.063188	-0.818627	-0.194692
O8	O	0.563188	-0.318627	0.305308
O9	O	-0.062735	-0.830342	0.008625
O10	O	0.437265	-0.330342	0.508625
O11	O	-0.062747	-0.722820	-0.098897
O12	O	0.437253	-0.222820	0.401103
O13	O	-0.062697	-0.926131	-0.087163
O14	O	0.437303	-0.426131	0.412837
Cu15	Cu	-0.074217	-0.824473	-0.093030
Cu16	Cu	0.425783	-0.324473	0.406970
Cu17	Cu	0.074670	-0.824496	-0.093036
Cu18	Cu	0.574670	-0.324496	0.406964
O19	O	-0.062709	-0.818608	-0.194686
O20	O	0.437291	-0.318608	0.305314
C21	C	0.000194	-0.696818	-0.098520
C22	C	0.500194	-0.196818	0.401480
C23	C	0.000174	-0.619313	-0.097380
C24	C	0.500174	-0.119313	0.402620
N25	N	-0.178937	-0.824463	-0.093025
N26	N	0.321063	-0.324463	0.406975
C27	C	0.000260	-0.952151	-0.087546
C28	C	0.500260	-0.452151	0.412454
C29	C	0.000285	-1.029656	-0.088687
C30	C	0.500285	-0.529656	0.411313
C31	C	-0.218541	-0.872089	-0.045437
C32	C	0.281459	-0.372089	0.454563
C33	C	-0.297789	-0.872093	-0.045433
C34	C	0.202211	-0.372093	0.454567
C35	C	-0.337429	-0.824478	-0.093030
C36	C	0.162571	-0.324478	0.406970
C37	C	-0.297815	-0.776842	-0.140621
C38	C	0.202185	-0.276842	0.359379
C39	C	-0.218569	-0.776835	-0.140619
C40	C	0.281431	-0.276835	0.359381
N41	N	-0.461841	-0.815401	-0.154837
N42	N	0.038159	-0.315401	0.345163
N43	N	-0.537121	-0.815413	-0.154837
N44	N	-0.037121	-0.315413	0.345163
C45	C	-0.576193	-0.824496	-0.093040
C46	C	-0.076193	-0.324496	0.406960
N47	N	-0.537140	-0.833582	-0.031239
N48	N	-0.037140	-0.333582	0.468761
N49	N	-0.461853	-0.833574	-0.031240
N50	N	0.038147	-0.333574	0.468760
C51	C	-0.423358	-0.824480	-0.093038
C52	C	0.076642	-0.324480	0.406962
C53	C	-0.701727	-0.872130	-0.045444
C54	C	-0.201727	-0.372130	0.454556
C55	C	-0.780976	-0.872129	-0.045440
C56	C	-0.280976	-0.372129	0.454560
C57	C	-0.781000	-0.776881	-0.140634
C58	C	-0.281000	-0.276881	0.359366
C59	C	-0.701753	-0.776878	-0.140632
C60	C	-0.201753	-0.276878	0.359368
C61	C	-0.662121	-0.824506	-0.093038
C62	C	-0.162121	-0.324506	0.406962
N63	N	0.179390	-0.824512	-0.093036
N64	N	0.679390	-0.324512	0.406964
C65	C	0.000211	-0.829972	0.034634
C66	C	0.500211	-0.329972	0.534634
C67	C	0.000204	-0.828831	0.112138
C68	C	0.500204	-0.328831	0.612138
C69	C	0.000194	-0.574389	-0.160470
C70	C	0.500194	-0.074389	0.339530
C71	C	0.000203	-0.501566	-0.159399
C72	C	0.500203	-0.001566	0.340601
C73	C	0.000206	-0.473669	-0.095233
C74	C	0.500206	0.026331	0.404767
C75	C	0.000181	-0.518603	-0.032133
C76	C	0.500181	-0.018603	0.467867
C77	C	0.000166	-0.591425	-0.033207
C78	C	0.500166	-0.091425	0.466793
N79	N	0.043078	-0.365695	-0.046188
N80	N	0.543078	0.134305	0.453812
N81	N	0.043095	-0.296517	-0.045172
N82	N	0.543095	0.203483	0.454828
C83	C	0.000252	-0.254260	-0.091994
C84	C	0.500252	0.245740	0.408006
N85	N	-0.042599	-0.283795	-0.139881
N86	N	0.457401	0.216205	0.360119
N87	N	-0.042612	-0.352979	-0.140899
N88	N	0.457388	0.147021	0.359101
C89	C	0.000222	-0.394707	-0.094062
C90	C	0.500222	0.105293	0.405938
C91	C	0.000280	-0.130372	-0.153928
C92	C	0.500280	0.369628	0.346072
C93	C	0.000283	-0.057547	-0.152853
C94	C	0.500283	0.442453	0.347147
C95	C	0.000270	-0.074586	-0.025586
C96	C	0.500270	0.425414	0.474414
C97	C	0.000258	-0.147409	-0.026662
C98	C	0.500258	0.352591	0.473338
C99	C	0.000267	-0.175298	-0.090835
C100	C	0.500267	0.324702	0.409165
C101	C	0.000244	-0.818997	-0.220700
C102	C	0.500244	-0.318997	0.279300
C103	C	0.000255	-0.820138	-0.298204
C104	C	0.500255	-0.320138	0.201796
C105	C	0.000216	-0.891922	0.157062
C106	C	0.500216	-0.391922	0.657062
C107	C	0.000228	-0.890850	0.229886
C108	C	0.500228	-0.390850	0.729886
C109	C	0.000212	-0.826684	0.257782
C110	C	0.500212	-0.326684	0.757782
C111	C	0.000205	-0.763585	0.212849
C112	C	0.500205	-0.263585	0.712849
C113	C	0.000200	-0.764658	0.140026
C114	C	0.500200	-0.264658	0.640026
N115	N	-0.042645	-0.777630	0.365789
N116	N	0.457355	-0.277630	0.865789
N117	N	-0.042642	-0.776615	0.434968
N118	N	0.457358	-0.276615	0.934968
C119	C	0.000227	-0.823446	0.477191
C120	C	0.500227	-0.323446	0.977191
N121	N	0.043084	-0.871341	0.447624
N122	N	0.543084	-0.371341	0.947624
N123	N	0.043079	-0.872359	0.378439
N124	N	0.543079	-0.372359	0.878439
C125	C	0.000218	-0.825513	0.336745
C126	C	0.500218	-0.325513	0.836745
C127	C	0.000253	-0.885379	0.601079
C128	C	0.500253	-0.385379	1.101079
C129	C	0.000270	-0.884305	0.673904
C130	C	0.500270	-0.384305	1.173904
C131	C	0.000239	-0.757038	0.656865
C132	C	0.500239	-0.257038	1.156865
C133	C	0.000230	-0.758114	0.584042
C134	C	0.500230	-0.258114	1.084042
C135	C	0.000233	-0.822287	0.556154
C136	C	0.500233	-0.322287	1.056154
H137	H	-0.186275	-0.910869	-0.006681
H138	H	0.313725	-0.410869	0.493319
Br139	Br	0.000225	-0.440585	-0.245028
Br140	Br	0.500225	0.059415	0.254972
H141	H	0.000276	-0.153080	-0.206181
H142	H	0.500276	0.346920	0.293819
H143	H	0.000194	-0.711340	0.235567
H144	H	0.500194	-0.211340	0.735567
H145	H	0.000190	-0.713281	0.103448
H146	H	0.500190	-0.213281	0.603448
Br147	Br	-0.351547	-0.936734	0.019157
Br148	Br	0.148453	-0.436734	0.519157
Br149	Br	-0.647938	-0.936764	0.019149
Br150	Br	-0.147938	-0.436764	0.519149
Br151	Br	0.000205	-0.612235	-0.247561
Br152	Br	0.500205	-0.112235	0.252439
Br153	Br	0.000250	-0.972468	0.563226
Br154	Br	0.500250	-0.472468	1.063226
Br155	Br	0.000261	-0.036735	0.061498
Br156	Br	0.500261	0.463265	0.561498
Br157	Br	0.000242	-0.979013	0.119216
Br158	Br	0.500242	-0.479013	0.619216
H159	H	0.000194	-0.495885	0.020111
H160	H	0.500194	0.004115	0.520111
Br161	Br	0.000137	-0.652398	0.052423
Br162	Br	0.500137	-0.152398	0.552423
H163	H	0.000295	-0.020970	-0.204232
H164	H	0.500295	0.479030	0.295768
Br165	Br	0.000294	-0.969936	0.734875
Br166	Br	0.500294	-0.469936	1.234875
H167	H	0.000230	-0.704792	0.679578
H168	H	0.500230	-0.204792	1.179578
H169	H	0.000216	-0.706738	0.547464
H170	H	0.500216	-0.206738	1.047464
H171	H	-0.330094	-0.738072	-0.179374
H172	H	0.169906	-0.238072	0.320626
H173	H	-0.186322	-0.738051	-0.179371
H174	H	0.313678	-0.238051	0.320629
Br175	Br	-0.834791	-0.712252	-0.205222
Br176	Br	-0.334791	-0.212252	0.294778
Br177	Br	0.000248	-0.976479	0.290866
Br178	Br	0.500248	-0.476479	0.790866
H179	H	-0.813222	-0.910910	-0.006684
H180	H	-0.313222	-0.410910	0.493316
Br181	Br	0.000233	-0.208382	0.058966
Br182	Br	0.500233	0.291618	0.558966
Br183	Br	-0.647998	-0.712242	-0.205221
Br184	Br	-0.147998	-0.212242	0.294779
