data_functionalizedCrystal
_audit_creation_method	'MofGen! by Chris Wilmer'
_symmetry_space_group_name_H-M	'P1'
_symmetry_Int_Tables_number	1
_symmetry_cell_setting	triclinic
loop_
_symmetry_equiv_pos_as_xyz
  x,y,z
_cell_length_a	25.639242
_cell_length_b	17.640280
_cell_length_c	17.640968
_cell_angle_alpha	114.317439
_cell_angle_beta	101.235498
_cell_angle_gamma	78.793107
loop_
_atom_site_label
_atom_site_type_symbol
_atom_site_fract_x
_atom_site_fract_y
_atom_site_fract_z
Zn1	Zn	-0.884123	0.233929	-0.399946
Zn2	Zn	-0.884081	0.399597	-0.234307
Zn3	Zn	-0.781986	0.261807	-0.262118
Zn4	Zn	-0.811379	0.371688	-0.372066
O5	O	-0.840392	0.316755	-0.317109
O6	O	-0.957288	0.255918	-0.378002
O7	O	-0.858218	0.404666	-0.122662
O8	O	-0.783251	0.142790	-0.303708
O9	O	-0.957257	0.377634	-0.256308
O10	O	-0.858291	0.122308	-0.404969
O11	O	-0.783210	0.303432	-0.143095
O12	O	-0.712714	0.276370	-0.276674
O13	O	-0.833348	0.330067	-0.491098
O14	O	-0.734309	0.357099	-0.357452
O15	O	-0.886793	0.228855	-0.511581
O16	O	-0.886720	0.511214	-0.229274
O17	O	-0.833306	0.490709	-0.330485
C18	C	-0.704539	0.316732	-0.317056
C19	C	-0.646425	0.316738	-0.317049
C20	C	-0.863214	0.530858	-0.273854
C21	C	-0.873028	0.622447	-0.255377
C22	C	-0.383987	0.274614	-0.275137
C23	C	-0.438589	0.274609	-0.275130
O24	O	-0.457256	0.238754	-0.239469
N25	N	-0.477156	0.316740	-0.317081
C26	C	-0.461118	0.358872	-0.359048
O27	O	-0.498935	0.394707	-0.394731
C28	C	-0.406516	0.358872	-0.359059
C29	C	-0.367951	0.316746	-0.317098
C30	C	-0.345423	0.232490	-0.233180
C31	C	-0.290824	0.232498	-0.233186
C32	C	-0.274789	0.274629	-0.275147
C33	C	-0.313352	0.316753	-0.317104
C34	C	-0.390478	0.400999	-0.401031
C35	C	-0.335872	0.400995	-0.401039
C36	C	-0.297307	0.358868	-0.359078
C37	C	-0.242718	0.358891	-0.359071
N38	N	-0.204152	0.316760	-0.317120
C39	C	-0.220187	0.274629	-0.275158
C40	C	-0.575784	0.358867	-0.359023
C41	C	-0.630385	0.358873	-0.359008
C42	C	-0.607853	0.274608	-0.275091
C43	C	-0.553251	0.274608	-0.275102
C44	C	-0.537218	0.316736	-0.317072
C45	C	-0.105526	0.274648	-0.275172
C46	C	-0.050924	0.274661	-0.275178
C47	C	-0.073460	0.358922	-0.359098
C48	C	-0.128058	0.358912	-0.359089
C49	C	-0.144089	0.316769	-0.317124
O50	O	-0.224012	0.394724	-0.394717
O51	O	-0.182364	0.238791	-0.239491
C52	C	-0.863354	0.273238	-0.532081
C53	C	-0.873139	0.254694	-0.623689
C54	C	0.023226	0.316780	-0.317151
C55	C	-0.034888	0.316793	-0.317140
C56	C	-0.817497	0.101812	-0.360551
C57	C	-0.807741	0.010217	-0.379063
C58	C	-0.766082	0.870491	-0.457777
C59	C	-0.775302	0.956558	-0.440389
C60	C	-0.830975	0.977823	-0.335105
C61	C	-0.821762	0.891755	-0.352487
C62	C	-0.789314	0.838096	-0.413823
C63	C	-0.844994	0.859360	-0.308533
C64	C	-0.835779	0.773301	-0.325911
C65	C	-0.803332	0.719637	-0.387243
C66	C	-0.780100	0.752037	-0.431202
C67	C	-0.877438	0.913022	-0.247193
C68	C	-0.900670	0.880627	-0.203239
C69	C	-0.891458	0.794565	-0.220621
C70	C	-0.859011	0.740901	-0.281953
C71	C	-0.914690	0.762165	-0.176663
C72	C	-0.905475	0.676106	-0.194041
C73	C	-0.849796	0.654842	-0.299331
C74	C	-0.766211	0.457187	-0.871652
C75	C	-0.775415	0.439751	-0.957734
C76	C	-0.831062	0.334369	-0.979050
C77	C	-0.821861	0.351793	-0.892969
C78	C	-0.789435	0.413203	-0.839276
C79	C	-0.845085	0.307810	-0.860594
C80	C	-0.835886	0.325236	-0.774520
C81	C	-0.803463	0.386645	-0.720821
C82	C	-0.780236	0.430630	-0.753202
C83	C	-0.877514	0.246403	-0.914288
C84	C	-0.900738	0.202420	-0.881912
C85	C	-0.891536	0.219842	-0.795837
C86	C	-0.859113	0.281251	-0.742138
C87	C	-0.914763	0.175857	-0.763456
C88	C	-0.905564	0.193283	-0.677382
C89	C	-0.849914	0.298677	-0.656064
C90	C	-0.817544	0.360044	-0.102986
C91	C	-0.807835	0.378356	-0.011425
H92	H	-0.019525	0.240356	-0.241007
C93	C	-0.750229	0.487659	-0.992757
C94	C	-0.768052	0.573437	-0.955332
C95	C	-0.744860	0.617594	-0.987568
H96	H	-0.760332	0.468594	-1.051699
H97	H	-0.712300	0.478501	-0.981052
H98	H	-0.805974	0.582589	-0.967043
H99	H	-0.757950	0.592526	-0.896392
H100	H	-0.706931	0.608437	-0.975863
H101	H	-0.754964	0.598523	-1.046510
H102	H	-0.756946	0.675800	-0.962175
H103	H	-0.885004	0.232219	-0.984374
H104	H	-0.739792	0.507174	-0.827935
C105	C	-0.248891	0.186712	-0.187755
C106	C	-0.216899	0.124519	-0.245141
C107	C	-0.178259	0.082344	-0.203308
H108	H	-0.266186	0.161549	-0.162748
H109	H	-0.227077	0.225458	-0.145462
H110	H	-0.238710	0.085779	-0.287418
H111	H	-0.199592	0.149660	-0.270150
H112	H	-0.156445	0.121090	-0.161015
H113	H	-0.195559	0.057185	-0.178303
H114	H	-0.156545	0.040146	-0.242236
H115	H	-0.941104	0.805868	-0.126717
H116	H	-0.739665	0.826798	-0.507730
H117	H	-0.924475	0.157466	-0.651022
C118	C	-0.793430	0.405718	-0.627337
C119	C	-0.760074	0.468925	-0.587244
C120	C	-0.750826	0.486525	-0.501126
H121	H	-0.776617	0.356550	-0.618496
H122	H	-0.826601	0.423965	-0.604952
H123	H	-0.726909	0.450676	-0.609621
H124	H	-0.776877	0.518106	-0.596060
H125	H	-0.783996	0.504771	-0.478742
H126	H	-0.734014	0.437353	-0.492294
H127	H	-0.728197	0.529417	-0.473911
C128	C	-0.935973	0.938781	-0.136716
C129	C	-0.987372	0.914134	-0.158979
C130	C	-1.019907	0.967679	-0.097714
H131	H	-0.938197	0.994696	-0.132609
H132	H	-0.920955	0.935894	-0.084160
H133	H	-1.002387	0.917029	-0.211522
H134	H	-0.985165	0.858227	-0.163080
H135	H	-1.004889	0.964793	-0.045157
H136	H	-1.022126	1.023591	-0.093612
H137	H	-1.054783	0.950959	-0.112807
C138	C	-0.866228	0.267697	-1.037491
C139	C	-0.869305	0.261836	-1.119805
C140	C	-0.901688	0.200417	-1.173663
H141	H	-0.901163	0.282544	-1.021066
H142	H	-0.851166	0.215156	-1.034625
H143	H	-0.884369	0.314366	-1.122668
H144	H	-0.834379	0.246978	-1.136256
H145	H	-0.886625	0.147875	-1.170797
H146	H	-0.936620	0.215270	-1.157230
H147	H	-0.903776	0.196426	-1.229519
C148	C	-0.672276	0.404746	-0.404401
C149	C	-0.704239	0.466970	-0.346990
C150	C	-0.742827	0.509249	-0.388780
H151	H	-0.694123	0.366091	-0.446717
H152	H	-0.654921	0.429888	-0.429367
H153	H	-0.721593	0.441828	-0.322038
H154	H	-0.682407	0.505643	-0.304672
H155	H	-0.725473	0.534390	-0.413746
H156	H	-0.764670	0.470587	-0.431095
H157	H	-0.764516	0.551477	-0.349832
H158	H	-0.927141	0.152422	-0.925640
H159	H	-0.159460	0.393223	-0.393249
H160	H	-0.823379	0.611149	-0.349284
H161	H	-0.118571	0.240326	-0.241005
H162	H	-0.358471	0.198178	-0.199011
C163	C	-0.930733	0.640798	-0.146476
C164	C	-0.963903	0.581871	-0.203189
C165	C	-0.987172	0.549321	-0.159400
H166	H	-0.951415	0.684991	-0.107460
H167	H	-0.903330	0.614482	-0.117326
H168	H	-0.991302	0.608187	-0.232325
H169	H	-0.943234	0.537663	-0.242206
H170	H	-0.959769	0.523005	-0.130250
H171	H	-1.007852	0.593520	-0.120386
H172	H	-1.009677	0.509330	-0.197874
C173	C	-0.745049	0.497382	-0.695025
C174	C	-0.726691	0.532195	-0.741794
C175	C	-0.694290	0.593704	-0.688227
H176	H	-0.715282	0.472764	-0.667775
H177	H	-0.765296	0.540121	-0.654218
H178	H	-0.706445	0.489464	-0.782585
H179	H	-0.756446	0.556830	-0.769042
H180	H	-0.714537	0.636443	-0.647420
H181	H	-0.664526	0.569079	-0.660979
H182	H	-0.681835	0.617338	-0.719950
H183	H	-0.756389	0.982927	-0.476196
H184	H	-0.941169	0.125863	-0.807184
C185	C	-0.866279	1.035976	-0.268582
C186	C	-0.917678	1.011329	-0.290845
C187	C	-0.950212	1.064875	-0.229580
H188	H	-0.868503	1.091891	-0.264475
H189	H	-0.851261	1.033090	-0.216025
H190	H	-0.932692	1.014224	-0.343387
H191	H	-0.915470	0.955423	-0.294946
H192	H	-0.935194	1.061988	-0.177023
H193	H	-0.952432	1.120787	-0.225477
H194	H	-0.985088	1.048155	-0.244673
H195	H	-0.884941	0.983096	-0.233048
H196	H	-0.521855	0.240301	-0.240937
C197	C	-0.318540	0.446659	-0.446753
C198	C	-0.338666	0.412333	-0.531921
C199	C	-0.322716	0.454383	-0.574055
H200	H	-0.280507	0.440659	-0.440852
H201	H	-0.332110	0.504472	-0.423468
H202	H	-0.325092	0.354535	-0.555198
H203	H	-0.376696	0.418333	-0.537846
H204	H	-0.336287	0.512196	-0.550771
H205	H	-0.284684	0.448381	-0.568148
H206	H	-0.336373	0.431105	-0.631844
H207	H	-0.823495	0.348664	-0.612348
H208	H	-0.620918	0.240300	-0.240925
C209	C	-0.055937	0.404576	-0.404645
C210	C	0.000136	0.395538	-0.395686
C211	C	0.016299	0.437569	-0.437647
H212	H	-0.069432	0.462410	-0.381362
H213	H	-0.069507	0.381371	-0.462479
H214	H	0.013700	0.418747	-0.337863
H215	H	0.013645	0.337715	-0.418973
H216	H	0.002729	0.414363	-0.495481
H217	H	0.002800	0.495399	-0.414360
H218	H	0.054345	0.431436	-0.431581
H219	H	-0.795825	0.649564	-0.401385
C220	C	-0.744911	0.693627	-0.497799
C221	C	-0.741825	0.611325	-0.503619
C222	C	-0.709422	0.557494	-0.564963
H223	H	-0.709980	0.710111	-0.482897
H224	H	-0.759962	0.696445	-0.550373
H225	H	-0.726773	0.608510	-0.451057
H226	H	-0.776747	0.594815	-0.518532
H227	H	-0.724473	0.560312	-0.617537
H228	H	-0.674494	0.573986	-0.550055
H229	H	-0.707328	0.501646	-0.568925
C230	C	-0.432395	0.446586	-0.446675
C231	C	-0.464441	0.389296	-0.508972
C232	C	-0.503064	0.431262	-0.551036
H233	H	-0.415086	0.471670	-0.471743
H234	H	-0.454175	0.488825	-0.407880
H235	H	-0.442665	0.347072	-0.547761
H236	H	-0.481764	0.364209	-0.483927
H237	H	-0.524844	0.473501	-0.512241
H238	H	-0.485750	0.456344	-0.576098
H239	H	-0.524815	0.392399	-0.593303
H240	H	-0.562735	0.393180	-0.393198
