data_functionalizedCrystal
_audit_creation_method	'MofGen! by Chris Wilmer'
_symmetry_space_group_name_H-M	'P1'
_symmetry_Int_Tables_number	1
_symmetry_cell_setting	triclinic
loop_
_symmetry_equiv_pos_as_xyz
  x,y,z
_cell_length_a	12.759401
_cell_length_b	16.625545
_cell_length_c	12.759393
_cell_angle_alpha	89.966096
_cell_angle_beta	89.981504
_cell_angle_gamma	90.025719
loop_
_atom_site_label
_atom_site_type_symbol
_atom_site_fract_x
_atom_site_fract_y
_atom_site_fract_z
Zn1	Zn	1.606176	-0.320951	-0.593964
Zn2	Zn	2.106176	0.179049	-0.093964
Zn3	Zn	1.606037	-0.455807	-0.418277
Zn4	Zn	2.106037	0.044193	0.081723
Zn5	Zn	1.430478	-0.320993	-0.418304
Zn6	Zn	1.930478	0.179007	0.081696
Zn7	Zn	1.430433	-0.455745	-0.593919
Zn8	Zn	1.930433	0.044255	-0.093919
O9	O	1.518281	-0.388374	-0.506116
O10	O	2.018281	0.111626	-0.006116
O11	O	1.753179	-0.338848	-0.570667
O12	O	2.253179	0.161152	-0.070667
O13	O	1.582709	-0.437968	-0.271260
O14	O	2.082709	0.062032	0.228740
O15	O	1.453862	-0.208155	-0.441636
O16	O	1.953862	0.291845	0.058364
O17	O	1.753077	-0.437927	-0.441590
O18	O	2.253077	0.062073	0.058410
O19	O	1.582946	-0.208124	-0.570693
O20	O	2.082946	0.291876	-0.070693
O21	O	1.453727	-0.338920	-0.271279
O22	O	1.953727	0.161080	0.228721
O23	O	1.283451	-0.338860	-0.441591
O24	O	1.783451	0.161140	0.058409
O25	O	1.453786	-0.437821	-0.740946
O26	O	1.953786	0.062179	-0.240946
O27	O	1.283418	-0.437862	-0.570615
O28	O	1.783418	0.062138	-0.070615
O29	O	1.582903	-0.338788	-0.740979
O30	O	2.082903	0.161212	-0.240979
O31	O	1.582666	-0.568632	-0.441546
O32	O	2.082666	-0.068632	0.058454
O33	O	1.453651	-0.568586	-0.570589
O34	O	1.953651	-0.068586	-0.070589
C35	C	1.245314	-0.388359	-0.506102
C36	C	1.745314	0.111641	-0.006102
C37	C	1.128537	-0.388372	-0.506120
C38	C	1.628537	0.111628	-0.006120
C39	C	1.518167	-0.597865	-0.506083
C40	C	2.018167	-0.097865	-0.006083
C41	C	1.518214	-0.687486	-0.506104
C42	C	2.018214	-0.187486	-0.006104
C43	C	1.073686	-0.440005	-0.573192
C44	C	1.573686	0.059995	-0.073192
C45	C	0.963962	-0.440015	-0.573203
C46	C	1.463962	0.059985	-0.073203
C47	C	0.963950	-0.336758	-0.439063
C48	C	1.463950	0.163242	0.060937
C49	C	1.073672	-0.336744	-0.439058
C50	C	1.573672	0.163256	0.060942
C51	C	1.073691	-0.499623	-0.650634
C52	C	1.573691	0.000377	-0.150634
C53	C	0.963967	-0.499633	-0.650645
C54	C	1.463967	0.000367	-0.150645
C55	C	1.518255	-0.760268	-0.506125
C56	C	2.018255	-0.260268	-0.006125
C57	C	1.518316	-0.851577	-0.506148
C58	C	2.018316	-0.351577	-0.006148
C59	C	1.518371	-0.924353	-0.506161
C60	C	2.018371	-0.424353	-0.006161
C61	C	1.518431	-1.015668	-0.506183
C62	C	2.018431	-0.515668	-0.006183
C63	C	1.792314	-0.388390	-0.506131
C64	C	2.292314	0.111610	-0.006131
C65	C	1.909091	-0.388396	-0.506137
C66	C	2.409091	0.111604	-0.006137
C67	C	1.518355	-0.388293	-0.780149
C68	C	2.018355	0.111707	-0.280149
C69	C	1.518386	-0.388258	-0.896926
C70	C	2.018386	0.111742	-0.396926
C71	C	1.518424	-0.178065	-0.506172
C72	C	2.018424	0.321935	-0.006172
C73	C	1.518485	-0.088444	-0.506196
C74	C	2.018485	0.411556	-0.006196
C75	C	1.585627	-0.336687	-0.951807
C76	C	2.085627	0.163313	-0.451807
C77	C	1.585652	-0.336657	-1.061531
C78	C	2.085652	0.163343	-0.561531
C79	C	1.451192	-0.439778	-1.061484
C80	C	1.951192	0.060222	-0.561484
C81	C	1.451163	-0.439803	-0.951761
C82	C	1.951163	0.060197	-0.451761
C83	C	1.663259	-0.277153	-0.951836
C84	C	2.163259	0.222847	-0.451836
C85	C	1.663284	-0.277124	-1.061560
C86	C	2.163284	0.222876	-0.561560
C87	C	1.518268	-0.388397	-0.233149
C88	C	2.018268	0.111603	0.266851
C89	C	1.518441	-0.388204	-0.116372
C90	C	2.018441	0.111796	0.383628
H91	H	0.919266	-0.294723	-0.384463
H92	H	1.419266	0.205277	0.115537
O93	O	1.126793	-0.286554	-0.373816
O94	O	1.626793	0.213446	0.126184
C95	C	1.054837	-0.240976	-0.314650
C96	C	1.554837	0.259024	0.185350
H97	H	0.976611	-0.274010	-0.310929
H98	H	1.476611	0.225990	0.189071
H99	H	1.086513	-0.232282	-0.231894
H100	H	1.586513	0.267718	0.268106
H101	H	1.043200	-0.179781	-0.353281
H102	H	1.543200	0.320219	0.146719
O103	O	1.637177	-0.202724	-0.916206
O104	O	2.137177	0.297276	-0.416206
C105	C	1.545493	-0.207918	-0.854857
C106	C	2.045493	0.292082	-0.354857
H107	H	1.536580	-0.271807	-0.823600
H108	H	2.036580	0.228193	-0.323600
H109	H	1.551241	-0.164142	-0.786362
H110	H	2.051241	0.335858	-0.286362
H111	H	1.474523	-0.192006	-0.904998
H112	H	1.974523	0.307994	-0.404998
H113	H	0.934156	-0.562065	-0.628710
H114	H	1.434156	-0.062065	-0.128710
H115	H	1.107691	-0.558911	-0.621346
H116	H	1.607691	-0.058911	-0.121346
H117	H	1.396460	-0.481742	-1.106144
H118	H	1.896460	0.018258	-0.606144
H119	H	0.929975	-0.477343	-0.727998
H120	H	1.429975	0.022657	-0.227998
O121	O	1.760268	-0.297168	-1.097227
O122	O	2.260268	0.202832	-0.597227
C123	C	1.753478	-0.367495	-1.158552
C124	C	2.253478	0.132505	-0.658552
H125	H	1.670241	-0.374284	-1.189769
H126	H	2.170241	0.125716	-0.689769
H127	H	1.810552	-0.363071	-1.227075
H128	H	2.310552	0.136929	-0.727075
H129	H	1.774151	-0.421998	-1.108406
H130	H	2.274151	0.078002	-0.608406
H131	H	1.103503	-0.482970	-0.732041
H132	H	1.603503	0.017030	-0.232041
H133	H	1.396405	-0.481794	-0.907081
H134	H	1.896405	0.018206	-0.407081
H135	H	1.740525	-0.299539	-0.917799
H136	H	2.240525	0.200461	-0.417799
O137	O	1.628432	-0.206342	-1.102063
O138	O	2.128432	0.293658	-0.602063
C139	C	1.524990	-0.192198	-1.067851
C140	C	2.024990	0.307802	-0.567851
H141	H	1.509954	-0.227168	-0.992449
H142	H	2.009954	0.272832	-0.492449
H143	H	1.513810	-0.125186	-1.052647
H144	H	2.013810	0.374814	-0.552647
H145	H	1.467560	-0.212800	-1.130791
H146	H	1.967560	0.287200	-0.630791
