data_functionalizedCrystal
_audit_creation_method	'MofGen! by Chris Wilmer'
_symmetry_space_group_name_H-M	'P1'
_symmetry_Int_Tables_number	1
_symmetry_cell_setting	triclinic
loop_
_symmetry_equiv_pos_as_xyz
  x,y,z
_cell_length_a	12.837943
_cell_length_b	11.792241
_cell_length_c	11.295483
_cell_angle_alpha	94.123059
_cell_angle_beta	85.461227
_cell_angle_gamma	89.511178
loop_
_atom_site_label
_atom_site_type_symbol
_atom_site_fract_x
_atom_site_fract_y
_atom_site_fract_z
O1	O	1.384055	0.288341	-0.099005
O2	O	1.082168	0.273757	-0.099012
O3	O	1.240437	0.116622	-0.099000
O4	O	1.225787	0.445476	-0.099017
O5	O	1.226536	0.130400	0.099050
O6	O	1.068267	0.287535	0.099038
O7	O	1.370154	0.302119	0.099045
Cu8	Cu	1.217941	0.296085	0.117125
Cu9	Cu	1.234381	0.279791	-0.117092
O10	O	1.211885	0.459254	0.099033
C11	C	1.036570	0.275719	0.000012
C12	C	0.921410	0.261025	0.000010
C13	C	0.681444	0.437671	0.000018
C14	C	0.573241	0.423870	0.000016
C15	C	0.596797	0.219624	0.000014
C16	C	0.705001	0.233425	0.000016
C17	C	0.747320	0.342452	0.000016
C18	C	0.855526	0.356251	0.000008
C19	C	0.879080	0.152006	0.000015
C20	C	0.770877	0.138205	0.000013
C21	C	1.232566	0.081127	0.000025
C22	C	1.229812	-0.045167	0.000023
C23	C	1.224748	-0.276394	0.000003
C24	C	1.227561	-0.147723	0.000014
C25	C	1.415753	0.300157	0.000018
C26	C	1.530913	0.314850	0.000013
C27	C	1.219756	0.494749	0.000006
C28	C	1.222512	0.621042	-0.000001
N29	N	1.206386	0.307545	0.281860
N30	N	1.245945	0.268322	-0.281827
C31	C	1.329126	0.185760	0.531159
C32	C	1.320401	0.194430	0.655822
C33	C	1.180207	0.333547	0.655852
C34	C	1.188932	0.324878	0.531189
C35	C	1.263395	0.250983	0.468847
C36	C	1.272124	0.242320	0.344181
C37	C	1.131925	0.381431	0.344213
C38	C	1.123200	0.390100	0.468876
H39	H	0.562315	0.130866	0.000112
C40	C	1.391725	0.123420	0.723326
C41	C	1.376415	0.007885	0.692986
C42	C	1.442111	-0.057568	0.755136
H43	H	1.375937	0.139014	0.806518
H44	H	1.462472	0.141787	0.702855
H45	H	1.305684	-0.010475	0.713466
H46	H	1.392210	-0.007744	0.609805
H47	H	1.512858	-0.039201	0.734664
H48	H	1.426317	-0.041964	0.838325
H49	H	1.431738	-0.135964	0.734550
H50	H	1.078406	0.434543	0.293464
C51	C	0.727271	0.556089	-0.000175
C52	C	0.700977	0.607265	-0.102057
C53	C	0.743162	0.716358	-0.102268
H54	H	0.801150	0.550827	-0.000235
H55	H	0.699826	0.600650	0.068850
H56	H	0.728426	0.562715	-0.171064
H57	H	0.627106	0.612557	-0.102018
H58	H	0.715717	0.760919	-0.033242
H59	H	0.817038	0.711084	-0.102325
H60	H	0.725319	0.751098	-0.171387
H61	H	0.736404	0.049439	0.000027
C62	C	0.950739	0.048701	-0.000176
C63	C	1.020708	0.043592	-0.102057
C64	C	1.086743	-0.051546	-0.102272
H65	H	0.910166	-0.018286	-0.000239
H66	H	0.988660	0.054630	0.068850
H67	H	0.982790	0.037654	-0.171065
H68	H	1.061304	0.110557	-0.102016
H69	H	1.124664	-0.045617	-0.033247
H70	H	1.046162	-0.118526	-0.102332
H71	H	1.134231	-0.055019	-0.171392
C72	C	0.501608	0.527139	-0.000174
C73	C	0.445933	0.518085	-0.102053
C74	C	0.379925	0.613192	-0.102260
H75	H	0.542187	0.594119	-0.000235
H76	H	0.454001	0.530803	0.068853
H77	H	0.493534	0.514434	-0.171062
H78	H	0.405334	0.451125	-0.102013
H79	H	0.332319	0.616856	-0.033232
H80	H	0.420513	0.680165	-0.102317
H81	H	0.342135	0.607057	-0.171377
H82	H	1.119573	0.393702	0.706627
H83	H	1.389764	0.125601	0.480399
C84	C	0.901345	0.474673	-0.000175
C85	C	0.875043	0.525858	-0.102048
C86	C	0.917217	0.634957	-0.102245
H87	H	0.975224	0.469418	-0.000238
H88	H	0.873898	0.519224	0.068857
H89	H	0.902495	0.481318	-0.171061
H90	H	0.801171	0.531143	-0.102006
H91	H	0.889769	0.679508	-0.033214
H92	H	0.991094	0.629691	-0.102305
H93	H	0.899368	0.669703	-0.171359
C94	C	1.352995	0.161985	0.276707
C95	C	1.408670	0.106698	0.357967
C96	C	1.483166	0.032669	0.295858
H97	H	1.399907	0.204024	0.228060
H98	H	1.318842	0.107215	0.228113
H99	H	1.442821	0.161460	0.406542
H100	H	1.361787	0.064637	0.406617
H101	H	1.449014	-0.022101	0.247263
H102	H	1.530071	0.074717	0.247213
H103	H	1.520944	-0.004860	0.350983
C104	C	1.042462	0.470305	0.536782
C105	C	1.048903	0.463960	0.659295
C106	C	0.974554	0.537843	0.721884
H107	H	0.974541	0.449112	0.516512
H108	H	1.055593	0.545933	0.516417
H109	H	1.035765	0.388348	0.679652
H110	H	1.116807	0.485163	0.679601
H111	H	0.987685	0.613471	0.701518
H112	H	0.906639	0.516643	0.701603
H113	H	0.978921	0.533556	0.805014
