data_functionalizedCrystal
_audit_creation_method	'MofGen! by Chris Wilmer'
_symmetry_space_group_name_H-M	'P1'
_symmetry_Int_Tables_number	1
_symmetry_cell_setting	triclinic
loop_
_symmetry_equiv_pos_as_xyz
  x,y,z
_cell_length_a	18.050591
_cell_length_b	21.295417
_cell_length_c	21.295411
_cell_angle_alpha	89.971282
_cell_angle_beta	89.977563
_cell_angle_gamma	90.026512
loop_
_atom_site_label
_atom_site_type_symbol
_atom_site_fract_x
_atom_site_fract_y
_atom_site_fract_z
Zn1	Zn	1.135292	-0.250704	-0.356012
Zn2	Zn	1.135194	-0.355969	-0.250737
Zn3	Zn	1.011108	-0.250710	-0.250746
Zn4	Zn	1.011054	-0.355932	-0.355958
O5	O	1.073162	-0.303329	-0.303363
O6	O	1.239203	-0.264681	-0.342066
O7	O	1.118716	-0.342024	-0.162649
O8	O	1.027644	-0.162620	-0.264736
O9	O	1.239132	-0.342018	-0.264721
O10	O	1.118882	-0.162615	-0.342074
O11	O	1.027550	-0.264691	-0.162655
O12	O	0.907176	-0.264655	-0.264684
O13	O	1.027553	-0.341955	-0.444055
O14	O	0.907137	-0.341961	-0.341983
O15	O	1.118830	-0.264645	-0.444094
O16	O	1.118664	-0.444053	-0.264669
O17	O	1.027458	-0.444026	-0.341974
C18	C	0.880210	-0.303305	-0.303329
C19	C	0.797664	-0.303310	-0.303329
C20	C	1.073065	-0.466880	-0.303329
C21	C	1.073091	-0.536849	-0.303335
C22	C	0.598213	-0.261223	-0.261390
C23	C	0.548790	-0.318638	-0.245895
C24	C	0.646534	-0.303330	-0.303357
C25	C	0.548875	-0.245934	-0.318851
C26	C	0.500549	-0.303343	-0.303383
C27	C	0.598198	-0.360775	-0.287832
C28	C	0.598287	-0.288032	-0.360814
C29	C	0.548886	-0.345487	-0.345341
C30	C	0.730632	-0.303321	-0.303340
C31	C	0.416452	-0.303358	-0.303400
C32	C	1.120624	-0.569708	-0.263123
C33	C	1.120659	-0.635451	-0.263137
C34	C	1.073147	-0.668331	-0.303356
C35	C	1.025611	-0.635463	-0.343576
C36	C	1.025583	-0.569722	-0.343565
N37	N	1.008180	-0.771593	-0.308144
N38	N	1.008209	-0.834045	-0.308150
C39	C	1.073230	-0.866406	-0.303392
N40	N	1.138223	-0.833956	-0.298616
N41	N	1.138193	-0.771499	-0.298606
C42	C	1.073173	-0.739616	-0.303373
C43	C	1.120805	-0.970551	-0.263194
C44	C	1.120841	-1.036295	-0.263213
C45	C	1.025787	-1.036306	-0.343648
C46	C	1.025758	-0.970563	-0.343633
C47	C	1.073266	-0.937690	-0.303402
C48	C	1.266868	-0.303353	-0.303399
C49	C	1.349413	-0.303363	-0.303414
C50	C	1.073196	-0.303295	-0.467554
C51	C	1.073211	-0.303281	-0.537522
C52	C	1.073280	-0.139138	-0.303412
C53	C	1.073330	-0.069170	-0.303433
C54	C	1.120764	-0.343418	-1.036977
C55	C	1.120750	-0.343438	-0.971235
C56	C	1.073281	-0.303183	-0.938362
C57	C	1.025808	-0.262916	-0.971236
C58	C	1.025818	-0.262901	-1.036978
N59	N	1.067608	-0.248103	-0.835156
N60	N	1.067604	-0.248119	-0.772704
C61	C	1.073248	-0.303225	-0.740287
N62	N	1.078912	-0.358317	-0.772680
N63	N	1.078921	-0.358300	-0.835137
C64	C	1.073265	-0.303194	-0.867076
C65	C	1.120700	-0.343514	-0.636134
C66	C	1.120681	-0.343536	-0.570391
C67	C	1.025743	-0.263008	-0.570393
C68	C	1.025758	-0.262993	-0.636136
C69	C	1.073240	-0.303245	-0.669002
C70	C	1.073171	-0.303317	-0.139812
C71	C	1.073300	-0.303154	-0.069844
H72	H	0.527051	-0.331587	-0.197315
H73	H	0.987166	-0.230112	-1.063737
H74	H	0.987110	-0.230203	-0.662896
N75	N	0.625404	-0.216599	-0.216832
N76	N	0.665047	-0.171898	-0.234740
H77	H	0.684252	-0.140384	-0.203271
H78	H	0.619774	-0.409334	-0.274684
N79	N	1.169176	-0.384651	-0.536806
N80	N	1.169166	-0.384656	-0.478109
H81	H	1.203420	-0.413691	-0.454388
H82	H	0.527170	-0.197396	-0.331923
H83	H	1.159553	-1.063048	-0.230469
H84	H	0.527364	-0.381143	-0.380842
H85	H	0.987049	-0.943807	-0.376374
H86	H	0.986929	-0.662238	-0.376324
H87	H	0.620045	-0.275066	-0.409379
H88	H	0.986875	-0.542967	-0.376311
N89	N	1.169155	-0.536140	-0.222027
N90	N	1.211594	-0.565492	-0.186126
H91	H	1.245871	-0.541784	-0.157102
H92	H	0.987157	-0.230141	-0.944467
H93	H	1.159368	-0.662211	-0.230392
H94	H	1.159361	-0.376292	-0.662896
N95	N	1.169344	-0.936957	-0.222122
N96	N	1.169315	-0.878260	-0.222119
H97	H	1.203599	-0.854535	-0.193114
H98	H	0.987106	-1.063076	-0.376398
N99	N	1.169262	-0.384543	-1.070539
N100	N	1.211632	-0.420496	-1.041180
H101	H	1.245882	-0.449544	-1.064883
H102	H	1.159412	-0.376218	-0.944469
N103	N	0.977252	-0.221897	-0.536813
N104	N	0.977246	-0.221917	-0.478116
H105	H	0.942995	-0.192884	-0.454396
