data_functionalizedCrystal
_audit_creation_method	'MofGen! by Chris Wilmer'
_symmetry_space_group_name_H-M	'P1'
_symmetry_Int_Tables_number	1
_symmetry_cell_setting	triclinic
loop_
_symmetry_equiv_pos_as_xyz
  x,y,z
_cell_length_a	6.817900
_cell_length_b	9.582889
_cell_length_c	17.982968
_cell_angle_alpha	93.503180
_cell_angle_beta	102.451960
_cell_angle_gamma	111.207298
loop_
_atom_site_label
_atom_site_type_symbol
_atom_site_fract_x
_atom_site_fract_y
_atom_site_fract_z
V1	V	-4.055307	-0.208457	-0.237408
O2	O	-4.001167	0.008575	-0.233032
O3	O	-4.046166	-0.411947	-0.235646
O4	O	-4.001317	-0.205883	-0.341013
O5	O	-4.046326	-0.198916	-0.126936
V6	V	-4.534572	-0.182422	-0.224211
O7	O	-4.325905	-0.265565	-0.266356
O8	O	-4.714171	-0.125314	-0.195264
O9	O	-4.320506	0.021068	-0.225973
O10	O	-4.706108	-0.399454	-0.228587
O11	O	-4.660949	-0.191963	-0.334683
O12	O	-4.365354	-0.184996	-0.120607
C13	C	-3.900898	-0.461534	-0.231865
C14	C	-3.974674	-0.627894	-0.231116
C15	C	-3.843688	-0.198677	-0.366270
C16	C	-3.881089	-0.197919	-0.450967
C17	C	-4.082028	-0.205062	-0.494633
C18	C	-4.117158	-0.204350	-0.574215
C19	C	-3.951352	-0.196504	-0.610128
C20	C	-3.750395	-0.189356	-0.566455
C21	C	-3.715263	-0.190058	-0.486875
C22	C	-3.892076	-0.186522	-0.887394
C23	C	-3.927227	-0.185825	-0.966981
C24	C	-4.293971	-0.200813	-0.974734
C25	C	-4.258838	-0.201516	-0.895153
C26	C	-4.057882	-0.194359	-0.851487
C27	C	-4.019791	-0.195130	-0.765196
C28	C	-3.989446	-0.195745	-0.696419
C29	C	-4.129117	0.070647	-0.229752
C30	C	-4.034580	0.237006	-0.230507
C31	C	-4.186327	-0.192207	-0.095345
C32	C	-4.128163	-0.192957	-0.010648
H33	H	-4.217056	-0.211461	-0.465400
C34	C	-3.568169	-0.181065	-0.605981
H35	H	-3.443508	-0.177002	-0.568581
H36	H	-3.616862	-0.268312	-0.643714
H37	H	-3.531734	-0.092845	-0.630029
H38	H	-4.393861	-0.207911	-0.865917
H39	H	-3.551623	-0.184204	-0.451319
C40	C	-4.515013	-0.208664	-1.022768
H41	H	-4.512192	-0.207105	-1.075305
H42	H	-4.626900	-0.299574	-1.018220
H43	H	-4.542292	-0.124132	-1.004415
H44	H	-3.792195	-0.179432	-0.996218
C45	C	-3.671071	-0.178712	-0.839372
H46	H	-3.673879	-0.180251	-0.786832
H47	H	-3.643835	-0.263250	-0.857731
H48	H	-3.559148	-0.087805	-0.843915
H49	H	-4.280774	-0.210158	-0.609764
