data_functionalizedCrystal
_audit_creation_method	'MofGen! by Chris Wilmer'
_symmetry_space_group_name_H-M	'P1'
_symmetry_Int_Tables_number	1
_symmetry_cell_setting	triclinic
loop_
_symmetry_equiv_pos_as_xyz
  x,y,z
_cell_length_a	6.394989
_cell_length_b	10.967926
_cell_length_c	9.482900
_cell_angle_alpha	92.549900
_cell_angle_beta	80.390180
_cell_angle_gamma	94.416384
loop_
_atom_site_label
_atom_site_type_symbol
_atom_site_fract_x
_atom_site_fract_y
_atom_site_fract_z
O1	O	-0.369172	1.615786	0.283925
O2	O	-0.373758	1.266642	0.196450
O3	O	-0.067807	1.446170	0.241428
O4	O	-0.675123	1.436258	0.238947
O5	O	-0.130215	1.409708	0.474085
O6	O	-0.436165	1.230180	0.429107
O7	O	-0.431579	1.579324	0.516582
Cu8	Cu	-0.439571	1.401423	0.494088
Cu9	Cu	-0.365767	1.444544	0.218944
O10	O	-0.737530	1.399796	0.471604
C11	C	-0.399912	1.203648	0.301564
C12	C	-0.384842	1.070266	0.268146
C13	C	-0.410452	0.991912	0.373771
C14	C	-0.394877	0.854055	0.339234
C15	C	-0.021027	1.425980	0.357261
C16	C	0.215700	1.419991	0.355759
C17	C	-0.405424	1.642319	0.411466
C18	C	-0.420492	1.775702	0.444874
N19	N	-0.491480	1.371103	0.687612
N20	N	-0.313842	1.474873	0.025422
C21	C	-0.381066	1.435592	0.775968
C22	C	-0.424272	1.410374	0.937068
H23	H	-0.361414	0.819084	0.223229
O24	O	-0.460479	0.817608	0.583191
C25	C	-0.512234	0.993233	0.743727
C26	C	-0.466994	0.945936	0.587026
H27	H	-0.517471	1.096993	0.746880
H28	H	-0.671657	0.950162	0.797997
H29	H	-0.380900	0.967554	0.802324
H30	H	-0.598194	0.971601	0.528309
H31	H	-0.307504	0.989002	0.532865
H32	H	-0.254541	1.509469	0.732349
H33	H	-0.351381	1.035289	0.152149
O34	O	-0.642425	1.282878	0.739392
C35	C	-0.907868	1.127952	0.684890
C36	C	-0.736950	1.227814	0.626062
H37	H	-0.984371	1.083422	0.593297
H38	H	-0.831283	1.055681	0.738017
H39	H	-1.034594	1.170891	0.766943
H40	H	-0.610172	1.184984	0.543957
H41	H	-0.813688	1.300072	0.573023
O42	O	-0.450078	1.033792	0.512106
C43	C	-0.325499	1.163224	0.697337
C44	C	-0.280380	1.115920	0.540633
H45	H	-0.188307	1.229613	0.720459
H46	H	-0.479084	1.212232	0.716132
H47	H	-0.342454	1.082765	0.771465
H48	H	-0.263320	1.196308	0.466406
H49	H	-0.126839	1.066874	0.521956
H50	H	-0.187310	1.548755	0.981808
H51	H	-0.550788	1.336484	0.980680
