data_functionalizedCrystal
_audit_creation_method	'MofGen! by Chris Wilmer'
_symmetry_space_group_name_H-M	'P1'
_symmetry_Int_Tables_number	1
_symmetry_cell_setting	triclinic
loop_
_symmetry_equiv_pos_as_xyz
  x,y,z
_cell_length_a	12.759401
_cell_length_b	16.120484
_cell_length_c	16.120297
_cell_angle_alpha	95.614431
_cell_angle_beta	92.878698
_cell_angle_gamma	92.927264
loop_
_atom_site_label
_atom_site_type_symbol
_atom_site_fract_x
_atom_site_fract_y
_atom_site_fract_z
Zn1	Zn	1.552086	-0.356710	-0.489443
Zn2	Zn	1.551953	-0.489400	-0.356753
Zn3	Zn	1.385775	-0.349650	-0.349690
Zn4	Zn	1.366964	-0.496446	-0.496477
O5	O	1.464195	-0.423051	-0.423091
O6	O	1.699088	-0.374318	-0.471853
O7	O	1.537726	-0.464959	-0.238854
O8	O	1.415764	-0.233621	-0.362328
O9	O	1.698991	-0.471804	-0.374367
O10	O	1.537952	-0.238808	-0.465004
O11	O	1.415636	-0.362285	-0.233665
O12	O	1.236260	-0.369117	-0.369149
O13	O	1.383704	-0.483813	-0.612506
O14	O	1.222440	-0.476967	-0.476993
O15	O	1.519712	-0.381150	-0.607338
O16	O	1.519486	-0.607300	-0.381188
O17	O	1.383576	-0.612476	-0.483842
C18	C	1.191229	-0.423041	-0.423069
C19	C	1.074451	-0.423058	-0.423080
C20	C	0.902694	-0.479293	-0.479183
C21	C	1.012419	-0.479290	-0.479160
C22	C	1.026752	-0.366829	-0.367014
C23	C	0.917028	-0.366837	-0.367034
C24	C	0.894420	-0.544219	-0.543932
C25	C	1.004146	-0.544216	-0.543909
C26	C	1.449503	-0.640217	-0.434063
C27	C	1.443312	-0.733123	-0.438785
C28	C	1.432013	-0.903223	-0.447423
C29	C	1.496563	-0.942040	-0.398772
C30	C	1.490277	-1.036690	-0.403578
C31	C	1.438298	-0.808565	-0.442618
C32	C	1.738226	-0.423063	-0.423113
C33	C	1.855001	-0.423067	-0.423123
C34	C	1.449624	-0.434055	-0.641097
C35	C	1.443415	-0.438743	-0.733998
C36	C	1.478971	-0.205039	-0.412094
C37	C	1.485268	-0.112135	-0.407408
C38	C	1.432042	-0.447286	-0.904088
C39	C	1.496571	-0.398567	-0.942932
C40	C	1.490243	-0.403320	-1.037576
C41	C	1.438369	-0.442534	-0.809435
C42	C	1.478773	-0.412031	-0.205930
C43	C	1.485201	-0.407107	-0.113017
H44	H	0.878202	-0.321062	-0.321375
H45	H	1.372051	-0.492561	-0.941910
O46	O	1.568107	-0.344611	-0.897690
C47	C	1.639625	-0.290548	-0.760732
C48	C	1.558590	-0.351706	-0.811872
H49	H	1.631943	-0.296251	-0.691339
H50	H	1.722259	-0.306057	-0.778523
H51	H	1.624615	-0.224007	-0.774482
H52	H	1.573502	-0.418268	-0.798150
H53	H	1.475984	-0.336125	-0.794074
H54	H	1.077266	-0.321049	-0.321348
H55	H	0.861425	-0.608050	-0.529767
O56	O	1.567978	-0.896849	-0.344677
C57	C	1.596171	-0.792475	-0.226956
C58	C	1.515190	-0.843616	-0.288151
H59	H	1.553525	-0.749411	-0.181251
H60	H	1.643767	-0.836594	-0.191016
H61	H	1.651188	-0.753518	-0.263343
H62	H	1.460105	-0.882578	-0.251829
H63	H	1.467670	-0.799453	-0.324092
H64	H	1.035565	-0.604499	-0.523722
O65	O	0.850964	-0.520396	-0.616013
C66	C	0.881719	-0.475500	-0.751392
C67	C	0.931068	-0.502488	-0.669814
H68	H	0.946461	-0.460998	-0.794906
H69	H	0.826082	-0.528079	-0.782999
H70	H	0.836071	-0.417381	-0.736637
H71	H	0.976768	-0.560589	-0.684497
H72	H	0.986647	-0.449860	-0.638230
H73	H	1.372033	-0.941072	-0.492680
O74	O	1.035985	-0.527686	-0.620147
C75	C	1.126897	-0.576263	-0.741499
C76	C	1.090878	-0.595101	-0.655188
H77	H	1.171304	-0.630748	-0.769847
H78	H	1.055356	-0.566984	-0.784166
H79	H	1.180761	-0.517072	-0.734353
H80	H	1.037036	-0.654299	-0.662255
H81	H	1.162467	-0.604327	-0.612553
