data_functionalizedCrystal
_audit_creation_method	'MofGen! by Chris Wilmer'
_symmetry_space_group_name_H-M	'P1'
_symmetry_Int_Tables_number	1
_symmetry_cell_setting	triclinic
loop_
_symmetry_equiv_pos_as_xyz
  x,y,z
_cell_length_a	12.837943
_cell_length_b	12.837942
_cell_length_c	16.053802
_cell_angle_alpha	92.838962
_cell_angle_beta	87.147768
_cell_angle_gamma	94.828940
loop_
_atom_site_label
_atom_site_type_symbol
_atom_site_fract_x
_atom_site_fract_y
_atom_site_fract_z
O1	O	1.406316	0.268170	-0.069414
O2	O	1.103183	0.254726	-0.069418
O3	O	1.248027	0.109882	-0.069411
O4	O	1.261471	0.413015	-0.069421
O5	O	1.240051	0.117818	0.069448
O6	O	1.095206	0.262663	0.069440
O7	O	1.398340	0.276106	0.069445
Zn8	Zn	1.245507	0.270644	0.091489
Zn9	Zn	1.256016	0.260188	-0.091463
O10	O	1.253495	0.420951	0.069437
C11	C	1.060125	0.254153	0.000010
C12	C	0.943710	0.240609	0.000008
C13	C	0.718836	0.403438	0.000015
C14	C	0.609454	0.390717	0.000014
C15	C	0.615561	0.202446	0.000011
C16	C	0.724943	0.215167	0.000012
C17	C	0.776577	0.315666	0.000013
C18	C	0.885962	0.328387	0.000008
C19	C	0.892067	0.140117	0.000011
C20	C	0.782684	0.127395	0.000010
C21	C	1.239498	0.074781	0.000018
C22	C	1.225953	-0.041634	0.000016
C23	C	1.388784	-0.266509	0.000001
C24	C	1.376062	-0.375892	-0.000000
C25	C	1.187791	-0.369784	0.000005
C26	C	1.200512	-0.260402	0.000007
C27	C	1.301012	-0.208768	0.000006
C28	C	1.313732	-0.099383	0.000014
C29	C	1.125461	-0.093278	0.000013
C30	C	1.112740	-0.202661	0.000012
C31	C	1.441397	0.276679	0.000014
C32	C	1.557812	0.290224	0.000011
C33	C	1.262024	0.456052	0.000007
C34	C	1.275569	0.572467	0.000003
N35	N	1.238342	0.277781	0.216349
N36	N	1.263188	0.253044	-0.216323
C37	C	1.300001	0.216176	0.260046
C38	C	1.295000	0.221179	0.347453
C39	C	1.228345	0.287792	0.391161
C40	C	1.166679	0.349400	0.347457
C41	C	1.171675	0.344391	0.260052
C42	C	1.206518	0.309643	0.652569
C43	C	1.201529	0.314649	0.739980
C44	C	1.329849	0.186426	0.739970
C45	C	1.334844	0.181428	0.652563
C46	C	1.273174	0.243031	0.608867
N47	N	1.223234	0.292910	0.480504
N48	N	1.278280	0.237907	0.519525
H49	H	0.573498	0.120627	0.000080
H50	H	1.030916	-0.244716	0.000009
C51	C	0.725885	0.016849	0.000009
C52	C	0.747585	-0.063175	-0.072099
C53	C	0.690790	-0.173723	-0.072102
C54	C	0.612293	-0.204248	0.000003
C55	C	0.590589	-0.124222	0.072116
C56	C	0.647384	-0.013674	0.072119
H57	H	0.805696	-0.040580	-0.125480
H58	H	0.706857	-0.232963	-0.125486
H59	H	0.570250	-0.286083	0.000001
H60	H	0.532478	-0.146817	0.125498
H61	H	0.631317	0.045567	0.125503
C62	C	1.408159	0.108149	0.604481
C63	C	1.475987	0.040376	0.652539
C64	C	1.549305	-0.032899	0.604455
C65	C	1.554795	-0.038401	0.508313
C66	C	1.486965	0.029374	0.460250
C67	C	1.413647	0.102649	0.508334
H68	H	1.471925	0.044447	0.723714
H69	H	1.599517	-0.083071	0.640034
H70	H	1.609070	-0.092644	0.472718
H71	H	1.491027	0.025303	0.389075
H72	H	1.363435	0.152821	0.472754
H73	H	1.345207	0.171014	0.383031
H74	H	0.939092	0.068646	0.000004
H75	H	1.395563	-0.057345	0.000016
H76	H	1.380056	0.136271	0.775555
C77	C	1.499326	-0.209702	0.000008
C78	C	1.571091	-0.223144	0.072117
C79	C	1.681634	-0.166337	0.072126
C80	C	1.720413	-0.096089	0.000025
C81	C	1.648647	-0.082645	-0.072089
C82	C	1.538103	-0.139452	-0.072098
H83	H	1.542386	-0.275148	0.125495
H84	H	1.734760	-0.176290	0.125510
H85	H	1.802244	-0.054038	0.000032
H86	H	1.677352	-0.030641	-0.125467
H87	H	1.484977	-0.129499	-0.125482
H88	H	1.105969	-0.411844	-0.000003
C89	C	1.128198	0.387927	0.788057
C90	C	1.060364	0.455684	0.739991
C91	C	0.987039	0.528960	0.788066
C92	C	0.981548	0.534479	0.884208
C93	C	1.049384	0.466720	0.932280
C94	C	1.122709	0.393443	0.884204
H95	H	1.064427	0.451601	0.668816
H96	H	0.936822	0.579121	0.752479
H97	H	0.927268	0.588723	0.919796
H98	H	1.045321	0.470803	1.003455
H99	H	1.172926	0.343283	0.919791
C100	C	1.093356	0.422677	0.395531
C101	C	1.087910	0.428250	0.491673
C102	C	1.014588	0.501533	0.539744
C103	C	0.946712	0.569243	0.491673
C104	C	0.952155	0.563673	0.395526
C105	C	1.025477	0.490390	0.347455
H106	H	1.138158	0.378125	0.527263
H107	H	1.010559	0.505656	0.610919
H108	H	0.892434	0.623491	0.527258
H109	H	0.901907	0.613798	0.359936
H110	H	1.029507	0.486266	0.276280
H111	H	0.928000	0.410218	0.000010
H112	H	0.760877	0.485269	0.000014
H113	H	0.562444	0.462190	0.000018
H114	H	1.447536	-0.422901	-0.000007
H115	H	1.156306	0.359804	0.616999
H116	H	1.053991	-0.046253	0.000024
H117	H	1.354283	0.161937	0.224465
H118	H	1.121464	0.394554	0.224475
