data_functionalizedCrystal
_audit_creation_method	'MofGen! by Chris Wilmer'
_symmetry_space_group_name_H-M	'P1'
_symmetry_Int_Tables_number	1
_symmetry_cell_setting	triclinic
loop_
_symmetry_equiv_pos_as_xyz
  x,y,z
_cell_length_a	10.489741
_cell_length_b	8.559649
_cell_length_c	9.565339
_cell_angle_alpha	90.001910
_cell_angle_beta	90.000900
_cell_angle_gamma	102.841081
loop_
_atom_site_label
_atom_site_type_symbol
_atom_site_fract_x
_atom_site_fract_y
_atom_site_fract_z
O1	O	1.670344	-0.225168	0.116167
O2	O	1.296922	-0.246304	0.116189
O3	O	1.516532	-0.003513	0.116175
O4	O	1.450734	-0.467959	0.116181
O5	O	1.516515	-0.003528	-0.116345
O6	O	1.296905	-0.246319	-0.116332
O7	O	1.670327	-0.225183	-0.116353
Zn8	Zn	1.483613	-0.235754	-0.153260
Zn9	Zn	1.483636	-0.235734	0.153096
O10	O	1.450717	-0.467975	-0.116339
C11	C	1.249550	-0.244715	-0.000069
C12	C	1.108424	-0.239939	-0.000061
N13	N	1.483607	-0.235766	-0.362339
C14	C	1.521509	0.055952	-0.000083
C15	C	1.536352	0.233162	-0.000076
C16	C	1.056550	-0.085458	-0.000076
C17	C	0.956747	-0.158426	0.114567
C18	C	0.956761	-0.158478	-0.114680
C19	C	1.010480	-0.312971	0.114677
C20	C	1.010505	-0.313001	-0.114673
C21	C	0.910718	-0.386081	-0.000002
C22	C	1.717699	-0.226772	-0.000092
C23	C	1.858825	-0.231548	-0.000091
C24	C	1.445739	-0.527439	-0.000078
C25	C	1.430897	-0.704649	-0.000076
C26	C	1.382022	-0.348012	-0.453536
C27	C	1.494118	-0.380306	-0.546721
C28	C	1.371560	-0.203484	-0.546709
C29	C	1.595755	-0.268133	-0.453473
C30	C	1.473126	-0.091248	-0.453453
C31	C	1.585312	-0.123482	-0.546596
N32	N	1.483653	-0.235708	0.362175
H33	H	1.119611	0.041535	0.000066
H34	H	0.847908	-0.513209	0.000062
F35	F	1.669213	0.340774	-0.000100
F36	F	1.461447	0.068415	-0.399860
H37	H	1.329258	0.213024	-0.000075
F38	F	1.247683	-0.167825	-0.600244
F39	F	1.697732	0.000625	-0.599676
F40	F	1.269815	-0.472193	-0.400121
H41	H	0.932623	-0.093055	0.211489
H42	H	1.034667	-0.378318	-0.211599
F43	F	1.041789	-0.398332	0.241505
H44	H	1.503015	-0.502497	-0.587688
H45	H	0.932661	-0.093092	-0.211602
H46	H	1.690537	-0.295559	-0.412690
