data_functionalizedCrystal
_audit_creation_method	'MofGen! by Chris Wilmer'
_symmetry_space_group_name_H-M	'P1'
_symmetry_Int_Tables_number	1
_symmetry_cell_setting	triclinic
loop_
_symmetry_equiv_pos_as_xyz
  x,y,z
_cell_length_a	17.077404
_cell_length_b	12.759400
_cell_length_c	17.077396
_cell_angle_alpha	90.025586
_cell_angle_beta	90.018362
_cell_angle_gamma	90.012655
loop_
_atom_site_label
_atom_site_type_symbol
_atom_site_fract_x
_atom_site_fract_y
_atom_site_fract_z
Zn1	Zn	1.200099	-0.418323	0.443835
Zn2	Zn	1.200025	-0.594024	0.312575
Zn3	Zn	1.068831	-0.418353	0.312585
Zn4	Zn	1.068818	-0.593954	0.443801
O5	O	1.134443	-0.506164	0.378199
O6	O	1.309936	-0.441647	0.426433
O7	O	1.182597	-0.570762	0.202730
O8	O	1.086281	-0.271328	0.330014
O9	O	1.309882	-0.570733	0.329997
O10	O	1.182723	-0.271306	0.426442
O11	O	1.086209	-0.441698	0.202737
O12	O	0.958982	-0.441631	0.329982
O13	O	1.086258	-0.570615	0.553653
O14	O	0.958973	-0.570644	0.426386
O15	O	1.182710	-0.441580	0.553677
O16	O	1.182584	-0.741036	0.329965
O17	O	1.086186	-0.740985	0.426376
C18	C	0.930496	-0.506134	0.378182
C19	C	0.843246	-0.506146	0.378193
C20	C	0.802285	-0.439051	0.428483
C21	C	0.720304	-0.439057	0.428487
C22	C	0.679286	-0.506166	0.378203
C23	C	0.720253	-0.573265	0.327907
C24	C	0.802232	-0.573252	0.327900
C25	C	0.549383	-0.573289	0.327926
C26	C	0.467398	-0.573303	0.327934
C27	C	0.467455	-0.439094	0.428513
C28	C	0.549434	-0.439081	0.428506
C29	C	0.590395	-0.506182	0.378211
C30	C	1.134397	-0.779131	0.378183
C31	C	1.134449	-0.895908	0.378202
C32	C	1.184699	-0.950761	0.328056
C33	C	1.184747	-1.060485	0.328080
C34	C	1.084289	-1.060492	0.428399
C35	C	1.084245	-0.950770	0.428378
C36	C	1.234902	-0.895899	0.277880
C37	C	1.285156	-0.950752	0.227730
C38	C	1.285204	-1.060476	0.227754
C39	C	1.234999	-1.115347	0.277929
C40	C	1.339188	-0.506194	0.378217
C41	C	1.426437	-0.506207	0.378225
C42	C	1.134491	-0.506086	0.582944
C43	C	1.134511	-0.506053	0.670193
C44	C	1.134512	-0.232130	0.378233
C45	C	1.134541	-0.115354	0.378247
C46	C	1.134441	-0.506165	0.174251
C47	C	1.134573	-0.505902	0.087002
C48	C	1.184735	-0.438859	0.711197
C49	C	1.184745	-0.438824	0.793178
C50	C	1.134533	-0.505989	0.834153
C51	C	1.084304	-0.573187	0.793143
C52	C	1.084291	-0.573216	0.711164
C53	C	1.084335	-0.573124	0.964013
C54	C	1.084349	-0.573096	1.045998
C55	C	1.184789	-0.438732	1.046027
C56	C	1.184777	-0.438761	0.964048
C57	C	1.134547	-0.505960	0.923044
H58	H	0.582829	-0.384442	0.469456
H59	H	0.686850	-0.627901	0.286961
H60	H	1.043413	-1.105176	0.469248
H61	H	0.686957	-0.384423	0.469440
C62	C	0.422280	-0.647124	0.272618
N63	N	0.388297	-0.702727	0.230953
C64	C	1.239972	-0.364969	0.666133
N65	N	1.281576	-0.309309	0.632192
C66	C	1.340484	-1.120812	0.172590
N67	N	1.382120	-1.166255	0.131034
C68	C	0.847289	-0.647065	0.272578
N69	N	0.881224	-0.702661	0.230906
H70	H	1.234867	-0.806556	0.277853
H71	H	1.235048	-1.204691	0.277951
C72	C	0.594438	-0.647106	0.272601
N73	N	0.628374	-0.702709	0.230934
H74	H	0.434101	-0.384456	0.469464
H75	H	1.043328	-0.906108	0.469212
C76	C	1.029109	-0.646975	1.091069
N77	N	0.987500	-0.702621	1.125016
H78	H	1.326036	-0.906071	0.186884
C79	C	1.239997	-0.364906	0.838279
N80	N	1.281615	-0.309228	0.872248
C81	C	1.240041	-0.364811	1.091133
N82	N	1.281658	-0.309140	1.125111
H83	H	1.043421	-0.627828	0.930630
H84	H	1.043418	-0.627870	0.826511
C85	C	1.029041	-0.647137	0.666060
N86	N	0.987424	-0.702814	0.632089
H87	H	0.835676	-0.384406	0.469432
H88	H	1.225668	-0.384075	0.930689
