data_functionalizedCrystal
_audit_creation_method	'MofGen! by Chris Wilmer'
_symmetry_space_group_name_H-M	'P1'
_symmetry_Int_Tables_number	1
_symmetry_cell_setting	triclinic
loop_
_symmetry_equiv_pos_as_xyz
  x,y,z
_cell_length_a	9.016244
_cell_length_b	10.540539
_cell_length_c	10.540539
_cell_angle_alpha	84.525492
_cell_angle_beta	90.000067
_cell_angle_gamma	90.005301
loop_
_atom_site_label
_atom_site_type_symbol
_atom_site_fract_x
_atom_site_fract_y
_atom_site_fract_z
O1	O	-0.123263	-1.685893	-0.178895
O2	O	-0.123280	-1.316480	-0.195751
O3	O	-0.123269	-1.509614	-0.002617
O4	O	-0.123274	-1.492759	-0.372030
O5	O	0.123411	-1.509586	-0.002621
O6	O	0.123400	-1.316452	-0.195755
O7	O	0.123418	-1.685865	-0.178900
Cu8	Cu	0.145933	-1.501156	-0.187328
Cu9	Cu	-0.145795	-1.501189	-0.187323
O10	O	0.123407	-1.492730	-0.372034
C11	C	0.000058	-1.269163	-0.194489
C12	C	0.000051	-1.128215	-0.190707
N13	N	0.351119	-1.501141	-0.187331
N14	N	-0.350982	-1.501213	-0.187310
C15	C	0.586146	-1.397510	-0.290298
C16	C	0.414255	-1.397739	-0.290684
C17	C	0.413464	-1.633864	-0.217464
C18	C	0.585409	-1.633298	-0.218193
C19	C	0.585663	-1.473367	-0.053892
C20	C	0.413709	-1.470322	-0.054757
C21	C	0.000068	-1.508336	0.044684
C22	C	0.000060	-1.504554	0.185632
C23	C	0.000077	-1.733182	-0.180161
C24	C	0.000074	-1.874130	-0.183943
C25	C	0.000628	-0.944788	-0.045790
C26	C	0.000057	-1.091406	-0.049624
C27	C	-0.140811	-1.066558	-0.258600
C28	C	-0.140914	-0.920014	-0.253785
C29	C	0.139608	-0.919493	-0.256660
C30	C	0.141455	-1.066475	-0.257960
C31	C	0.000066	-1.494008	-0.419335
C32	C	0.000064	-1.497790	-0.560283
C33	C	-0.000500	-1.359637	0.369059
C34	C	0.000055	-1.363471	0.222441
C35	C	0.140930	-1.572434	0.247287
C36	C	0.141049	-1.567619	0.393832
C37	C	-0.139473	-1.570520	0.394355
C38	C	-0.141336	-1.571820	0.247373
H39	H	0.372106	-1.299123	-0.272553
H40	H	0.149959	-1.090700	-0.360819
H41	H	-0.099828	-0.914592	0.009712
Cl42	Cl	0.647310	-1.670896	-0.368475
Cl43	Cl	0.652798	-1.424799	-0.442265
Cl44	Cl	0.150944	-1.724266	0.467897
H45	H	0.146173	-1.676041	0.224933
H46	H	-0.245547	-1.522153	0.206517
Cl47	Cl	0.302779	-1.499599	0.181522
H48	H	0.245664	-1.107425	-0.208362
H49	H	-0.149837	-1.674681	0.223152
H50	H	-0.101092	-1.133163	0.004177
Cl51	Cl	-0.150791	-0.845949	-0.410434
Cl52	Cl	0.350802	-1.319576	-0.019487
Cl53	Cl	0.303615	-1.490122	0.437372
Cl54	Cl	-0.156470	-1.273602	0.413214
Cl55	Cl	-0.304320	-1.500029	0.443053
H56	H	0.101034	-1.134008	0.003797
Cl57	Cl	-0.302668	-1.132323	-0.185781
H58	H	0.626995	-1.712941	-0.146204
Cl59	Cl	0.304459	-0.870779	-0.186165
H60	H	-0.140416	-1.672424	0.441581
H61	H	-0.146054	-1.088912	-0.362208
H62	H	0.099949	-1.304121	0.399265
H63	H	0.370737	-1.540849	0.025564
H64	H	0.627535	-1.298584	-0.272446
H65	H	0.101200	-1.309661	0.180683
Cl66	Cl	0.350716	-1.425324	-0.443522
H67	H	0.101649	-0.916191	0.009944
Cl68	Cl	0.350327	-1.755925	-0.104815
H69	H	-0.246209	-0.891816	-0.203602
H70	H	0.140559	-0.872266	-0.358564
H71	H	0.370386	-1.658762	-0.313702
H72	H	0.629106	-1.378630	-0.025213
Cl73	Cl	0.648434	-1.590102	0.064457
H74	H	-0.100926	-1.310059	0.179839
