data_functionalizedCrystal
_audit_creation_method	'MofGen! by Chris Wilmer'
_symmetry_space_group_name_H-M	'P1'
_symmetry_Int_Tables_number	1
_symmetry_cell_setting	triclinic
loop_
_symmetry_equiv_pos_as_xyz
  x,y,z
_cell_length_a	10.723023
_cell_length_b	11.792241
_cell_length_c	9.198806
_cell_angle_alpha	90.003595
_cell_angle_beta	90.003822
_cell_angle_gamma	84.330482
loop_
_atom_site_label
_atom_site_type_symbol
_atom_site_fract_x
_atom_site_fract_y
_atom_site_fract_z
O1	O	1.656767	0.159188	0.120889
O2	O	1.293574	0.174427	0.120893
O3	O	1.483984	0.001657	0.120881
O4	O	1.466357	0.331959	0.120901
O5	O	1.483969	0.001655	-0.120904
O6	O	1.293559	0.174426	-0.120892
O7	O	1.656752	0.159187	-0.120896
Cu8	Cu	1.475154	0.166806	-0.142971
Cu9	Cu	1.475172	0.166808	0.142968
O10	O	1.466342	0.331958	-0.120884
C11	C	1.247070	0.173318	0.000001
C12	C	1.108525	0.170000	0.000002
C13	C	0.903562	0.165092	-0.125245
C14	C	1.046756	0.168521	-0.125249
C15	C	1.482870	-0.040638	-0.000011
C16	C	1.479555	-0.166658	-0.000010
C17	C	1.473461	-0.397384	0.000015
C18	C	1.476847	-0.268991	0.000001
C19	C	1.703256	0.160296	-0.000001
C20	C	1.841802	0.163614	0.000008
C21	C	1.467457	0.374252	0.000012
C22	C	1.470771	0.500273	0.000020
N23	N	1.475151	0.166804	-0.344085
C24	C	1.547741	0.232620	-0.416279
C25	C	1.547761	0.232618	-0.583692
N26	N	1.475185	0.166801	0.344082
H27	H	0.894937	0.164893	0.107238
H28	H	1.609880	0.288963	-0.354147
N29	N	1.630080	0.307269	-0.665914
H30	H	1.618423	0.296689	-0.773852
H31	H	1.720658	0.285392	-0.639369
H32	H	1.055421	0.168726	0.107241
H33	H	1.413029	0.110456	-0.593842
H34	H	1.413021	0.110454	-0.406217
H35	H	0.850425	0.163825	-0.232475
H36	H	1.099868	0.169787	-0.232482
