data_functionalizedCrystal
_audit_creation_method	'MofGen! by Chris Wilmer'
_symmetry_space_group_name_H-M	'P1'
_symmetry_Int_Tables_number	1
_symmetry_cell_setting	triclinic
loop_
_symmetry_equiv_pos_as_xyz
  x,y,z
_cell_length_a	18.101395
_cell_length_b	16.625548
_cell_length_c	16.625539
_cell_angle_alpha	89.979432
_cell_angle_beta	90.027648
_cell_angle_gamma	89.967828
loop_
_atom_site_label
_atom_site_type_symbol
_atom_site_fract_x
_atom_site_fract_y
_atom_site_fract_z
Zn1	Zn	-0.294807	-1.232632	0.455913
Zn2	Zn	0.038526	-0.899299	0.789246
Zn3	Zn	0.371859	-0.565965	1.122580
Zn4	Zn	-0.418656	-1.232515	0.321082
Zn5	Zn	-0.085323	-0.899182	0.654415
Zn6	Zn	0.248010	-0.565848	0.987748
Zn7	Zn	-0.294835	-1.097794	0.321094
Zn8	Zn	0.038498	-0.764461	0.654427
Zn9	Zn	0.371831	-0.431127	0.987760
Zn10	Zn	-0.418614	-1.097744	0.455872
Zn11	Zn	-0.085280	-0.764411	0.789205
Zn12	Zn	0.248053	-0.431077	1.122538
O13	O	-0.356728	-1.165171	0.388490
O14	O	-0.023395	-0.831838	0.721823
O15	O	0.309939	-0.498505	1.055157
O16	O	-0.311242	-1.345449	0.438040
O17	O	0.022091	-1.012116	0.771373
O18	O	0.355425	-0.678782	1.104706
O19	O	-0.402261	-1.214616	0.208251
O20	O	-0.068927	-0.881282	0.541584
O21	O	0.264406	-0.547949	0.874918
O22	O	-0.191199	-1.115750	0.339000
O23	O	0.142135	-0.782417	0.672333
O24	O	0.475468	-0.449084	1.005667
O25	O	-0.402233	-1.345363	0.338980
O26	O	-0.068900	-1.012030	0.672313
O27	O	0.264433	-0.678696	1.005646
O28	O	-0.191178	-1.214815	0.438051
O29	O	0.142155	-0.881482	0.771384
O30	O	0.475489	-0.548149	1.104718
O31	O	-0.311290	-1.115637	0.208260
O32	O	0.022043	-0.782303	0.541593
O33	O	0.355377	-0.448970	0.874926
O34	O	-0.311249	-0.984955	0.338960
O35	O	0.022084	-0.651622	0.672293
O36	O	0.355418	-0.318288	1.005626
O37	O	-0.402161	-1.115665	0.568710
O38	O	-0.068828	-0.782332	0.902043
O39	O	0.264506	-0.448999	1.235376
O40	O	-0.402188	-0.984918	0.437981
O41	O	-0.068855	-0.651585	0.771314
O42	O	0.264478	-0.318252	1.104647
O43	O	-0.311201	-1.214767	0.568740
O44	O	0.022133	-0.881434	0.902073
O45	O	0.355466	-0.548100	1.235407
O46	O	-0.522284	-1.214567	0.338940
O47	O	-0.188950	-0.881234	0.672273
O48	O	0.144383	-0.547901	1.005606
O49	O	-0.522252	-1.115552	0.437969
O50	O	-0.188919	-0.782218	0.771303
O51	O	0.144414	-0.448885	1.104636
C52	C	-0.356718	-0.955680	0.388467
C53	C	-0.023384	-0.622347	0.721801
C54	C	0.309949	-0.289014	1.055134
C55	C	-0.356731	-0.866059	0.388477
C56	C	-0.023398	-0.532726	0.721810
C57	C	0.309936	-0.199393	1.055144
C58	C	-0.549139	-1.165063	0.388466
C59	C	-0.215805	-0.831730	0.721800
C60	C	0.117528	-0.498397	1.055133
C61	C	-0.631453	-1.165091	0.388483
C62	C	-0.298119	-0.831758	0.721816
C63	C	0.035214	-0.498424	1.055150
C64	C	-0.356673	-1.165224	0.598799
C65	C	-0.023340	-0.831890	0.932132
C66	C	0.309994	-0.498557	1.265466
C67	C	-0.356649	-1.165246	0.688420
C68	C	-0.023316	-0.831913	1.021753
C69	C	0.310017	-0.498579	1.355087
C70	C	-0.930544	-1.165268	0.388527
C71	C	-0.597210	-0.831935	0.721860
C72	C	-0.263877	-0.498601	1.055193
C73	C	-0.899230	-1.103114	0.450988
C74	C	-0.565896	-0.769781	0.784321
C75	C	-0.232563	-0.436448	1.117655
C76	C	-0.813612	-1.102819	0.450793
C77	C	-0.480278	-0.769486	0.784126
C78	C	-0.146945	-0.436152	1.117459
C79	C	-0.782161	-1.165180	0.388506
C80	C	-0.448828	-0.831847	0.721839
C81	C	-0.115495	-0.498513	1.055172
C82	C	-0.813313	-1.142173	0.303528
C83	C	-0.479980	-0.808840	0.636861
C84	C	-0.146647	-0.475506	0.970194
C85	C	-0.898959	-1.141772	0.303901
C86	C	-0.565625	-0.808439	0.637235
C87	C	-0.232292	-0.475106	0.970568
C88	C	-0.898886	-1.250565	0.410295
C89	C	-0.565552	-0.917231	0.743628
C90	C	-0.232219	-0.583898	1.076962
C91	C	-0.813235	-1.250063	0.412159
C92	C	-0.479901	-0.916730	0.745492
C93	C	-0.146568	-0.583396	1.078825
C94	C	-0.698302	-1.165132	0.388489
C95	C	-0.364968	-0.831799	0.721822
C96	C	-0.031635	-0.498465	1.055155
C97	C	-1.014403	-1.165314	0.388538
C98	C	-0.681070	-0.831981	0.721871
C99	C	-0.347736	-0.498647	1.055205
C100	C	-0.163566	-1.165302	0.388531
C101	C	0.169767	-0.831968	0.721865
C102	C	0.503100	-0.498635	1.055198
C103	C	-0.081252	-1.165357	0.388549
C104	C	0.252081	-0.832024	0.721882
C105	C	0.585415	-0.498690	1.055216
C106	C	-0.356739	-1.375480	0.388513
C107	C	-0.023406	-1.042147	0.721846
C108	C	0.309927	-0.708813	1.055180
C109	C	-0.356744	-1.465101	0.388523
C110	C	-0.023411	-1.131768	0.721856
C111	C	0.309923	-0.798435	1.055190
C112	C	-0.356736	-0.537884	0.388511
C113	C	-0.023402	-0.204550	0.721845
C114	C	0.309931	0.128783	1.055178
C115	C	-0.356732	-0.629192	0.388499
C116	C	-0.023399	-0.295859	0.721833
C117	C	0.309934	0.037475	1.055166
C118	C	-0.356734	-0.701969	0.388494
C119	C	-0.023400	-0.368635	0.721827
C120	C	0.309933	-0.035302	1.055160
C121	C	-0.356729	-0.793283	0.388483
C122	C	-0.023396	-0.459949	0.721816
C123	C	0.309937	-0.126616	1.055149
C124	C	-0.356730	-1.165165	0.178999
C125	C	-0.023396	-0.831832	0.512333
C126	C	0.309937	-0.498499	0.845666
C127	C	-0.356545	-1.165299	0.089378
C128	C	-0.023211	-0.831966	0.422712
C129	C	0.310122	-0.498633	0.756045
C130	C	-0.356567	-1.165283	1.016596
C131	C	-0.023233	-0.831950	1.349929
C132	C	0.310100	-0.498617	1.683263
C133	C	-0.356592	-1.165271	0.925287
C134	C	-0.023259	-0.831937	1.258621
C135	C	0.310075	-0.498604	1.591954
C136	C	-0.356609	-1.165265	0.852511
C137	C	-0.023275	-0.831932	1.185844
C138	C	0.310058	-0.498598	1.519178
C139	C	-0.356633	-1.165252	0.761197
C140	C	-0.023300	-0.831918	1.094530
C141	C	0.310034	-0.498585	1.427863
H142	H	-0.792547	-1.117214	0.513803
H143	H	-0.459214	-0.783880	0.847136
H144	H	-0.125880	-0.450547	1.180469
H145	H	-0.919135	-1.296871	0.364802
H146	H	-0.585802	-0.963538	0.698135
H147	H	-0.252468	-0.630205	1.031469
Cl148	Cl	-0.781796	-1.276854	0.508715
Cl149	Cl	-0.448462	-0.943520	0.842048
Cl150	Cl	-0.115129	-0.610187	1.175381
Cl151	Cl	-0.930955	-1.125112	0.548589
Cl152	Cl	-0.597622	-0.791778	0.881923
Cl153	Cl	-0.264289	-0.458445	1.215256
Cl154	Cl	-0.780170	-1.325346	0.347045
Cl155	Cl	-0.446837	-0.992013	0.680378
Cl156	Cl	-0.113504	-0.658679	1.013712
H157	H	-0.793190	-1.039595	0.436373
H158	H	-0.459856	-0.706262	0.769706
H159	H	-0.126523	-0.372928	1.103040
Cl160	Cl	-0.932575	-1.006097	0.429024
Cl161	Cl	-0.599241	-0.672764	0.762357
Cl162	Cl	-0.265908	-0.339430	1.095690
Cl163	Cl	-0.929909	-1.045507	0.275433
Cl164	Cl	-0.596575	-0.712173	0.608766
Cl165	Cl	-0.263242	-0.378840	0.942099
Cl166	Cl	-0.930948	-1.208623	0.229594
Cl167	Cl	-0.597614	-0.875289	0.562927
Cl168	Cl	-0.264281	-0.541956	0.896260
Cl169	Cl	-0.780305	-1.046924	0.274546
Cl170	Cl	-0.446972	-0.713591	0.607879
Cl171	Cl	-0.113639	-0.380257	0.941213
Cl172	Cl	-0.781865	-1.209864	0.229713
Cl173	Cl	-0.448532	-0.876531	0.563046
Cl174	Cl	-0.115198	-0.543198	0.896379
H175	H	-0.920433	-1.271540	0.471205
H176	H	-0.587100	-0.938207	0.804538
H177	H	-0.253766	-0.604873	1.137872
