data_functionalizedCrystal
_audit_creation_method	'MofGen! by Chris Wilmer'
_symmetry_space_group_name_H-M	'P1'
_symmetry_Int_Tables_number	1
_symmetry_cell_setting	triclinic
loop_
_symmetry_equiv_pos_as_xyz
  x,y,z
_cell_length_a	18.215407
_cell_length_b	12.759394
_cell_length_c	18.215399
_cell_angle_alpha	89.974724
_cell_angle_beta	89.980167
_cell_angle_gamma	90.015285
loop_
_atom_site_label
_atom_site_type_symbol
_atom_site_fract_x
_atom_site_fract_y
_atom_site_fract_z
Zn1	Zn	1.125123	-0.418265	-0.416130
Zn2	Zn	1.625123	0.081735	0.083870
Zn3	Zn	1.125053	-0.593962	-0.293069
Zn4	Zn	1.625053	-0.093962	0.206931
Zn5	Zn	1.002056	-0.418299	-0.293077
Zn6	Zn	1.502056	0.081701	0.206923
Zn7	Zn	1.002043	-0.593904	-0.416094
Zn8	Zn	1.502043	-0.093904	0.083906
O9	O	1.063569	-0.506107	-0.354592
O10	O	1.563569	-0.006107	0.145408
O11	O	1.228098	-0.441581	-0.399817
O12	O	1.728098	0.058419	0.100183
O13	O	1.108713	-0.570699	-0.190086
O14	O	1.608713	-0.070699	0.309914
O15	O	1.018416	-0.271273	-0.309418
O16	O	1.518416	0.228727	0.190582
O17	O	1.228047	-0.570666	-0.309405
O18	O	1.728047	-0.070666	0.190595
O19	O	1.108833	-0.271248	-0.399825
O20	O	1.608833	0.228752	0.100175
O21	O	1.018348	-0.441640	-0.190092
O22	O	1.518348	0.058360	0.309908
O23	O	0.899070	-0.441583	-0.309384
O24	O	1.399070	0.058417	0.190616
O25	O	1.018394	-0.570566	-0.519083
O26	O	1.518394	-0.070566	-0.019083
O27	O	0.899061	-0.570599	-0.399764
O28	O	1.399061	-0.070599	0.100236
O29	O	1.108821	-0.441525	-0.519109
O30	O	1.608821	0.058475	-0.019109
O31	O	1.108701	-0.740975	-0.309370
O32	O	1.608701	-0.240975	0.190630
O33	O	1.018326	-0.740933	-0.399756
O34	O	1.518326	-0.240933	0.100244
C35	C	0.872363	-0.506089	-0.354571
C36	C	1.372363	-0.006089	0.145429
C37	C	0.790564	-0.506107	-0.354580
C38	C	1.290564	-0.006107	0.145420
C39	C	0.602384	-0.573391	-0.401582
C40	C	1.102384	-0.073391	0.098418
C41	C	0.525526	-0.573395	-0.401591
C42	C	1.025526	-0.073395	0.098409
C43	C	0.525506	-0.438843	-0.307619
C44	C	1.025506	0.061157	0.192381
C45	C	0.602363	-0.438835	-0.307614
C46	C	1.102363	0.061165	0.192386
C47	C	0.640800	-0.506115	-0.354594
C48	C	1.140800	-0.006115	0.145406
C49	C	0.487084	-0.506126	-0.354608
C50	C	0.987084	-0.006126	0.145392
C51	C	0.403751	-0.506129	-0.354618
C52	C	0.903751	-0.006129	0.145382
C53	C	0.724139	-0.506111	-0.354586
C54	C	1.224139	-0.006111	0.145414
C55	C	1.063525	-0.779075	-0.354575
C56	C	1.563525	-0.279075	0.145425
C57	C	1.063573	-0.895852	-0.354592
C58	C	1.563573	-0.395852	0.145408
C59	C	1.157751	-0.895843	-0.260543
C60	C	1.657751	-0.395843	0.239457
C61	C	1.204859	-0.950699	-0.213528
C62	C	1.704859	-0.450699	0.286472
C63	C	1.204903	-1.060421	-0.213548
C64	C	1.704903	-0.560421	0.286452
C65	C	1.157834	-1.115289	-0.260590
C66	C	1.657834	-0.615289	0.239410
C67	C	1.110726	-1.060432	-0.307605
C68	C	1.610726	-0.560432	0.192395
C69	C	1.110686	-0.950708	-0.307579
C70	C	1.610686	-0.450708	0.192421
C71	C	1.016553	-1.060441	-0.401656
C72	C	1.516553	-0.560441	0.098344
C73	C	1.016505	-0.950719	-0.401634
C74	C	1.516505	-0.450719	0.098366
C75	C	0.969484	-1.115308	-0.448698
C76	C	1.469484	-0.615308	0.051302
C77	C	0.922371	-1.060452	-0.495711
C78	C	1.422371	-0.560452	0.004289
C79	C	0.922329	-0.950724	-0.495689
C80	C	1.422329	-0.450724	0.004311
C81	C	0.969397	-0.895863	-0.448649
C82	C	1.469397	-0.395863	0.051351
C83	C	1.255522	-0.506126	-0.354614
C84	C	1.755522	-0.006126	0.145386
C85	C	1.337321	-0.506134	-0.354623
C86	C	1.837321	-0.006134	0.145377
C87	C	1.063614	-0.506035	-0.546545
C88	C	1.563614	-0.006035	-0.046545
C89	C	1.063633	-0.506004	-0.628344
C90	C	1.563633	-0.006004	-0.128344
C91	C	1.063633	-0.232074	-0.354626
C92	C	1.563633	0.267926	0.145374
C93	C	1.063661	-0.115297	-0.354641
C94	C	1.563661	0.384703	0.145359
C95	C	1.110735	-0.438750	-0.816553
C96	C	1.610735	0.061250	-0.316553
C97	C	1.110744	-0.438719	-0.893412
C98	C	1.610744	0.061281	-0.393412
C99	C	1.016583	-0.573096	-0.893373
C100	C	1.516583	-0.073096	-0.393373
C101	C	1.016571	-0.573121	-0.816516
C102	C	1.516571	-0.073121	-0.316516
C103	C	1.063651	-0.505949	-0.778108
C104	C	1.563651	-0.005949	-0.278108
C105	C	1.063672	-0.505894	-0.931824
C106	C	1.563672	-0.005894	-0.431824
C107	C	1.063681	-0.505861	-1.015158
C108	C	1.563681	-0.005861	-0.515158
C109	C	1.063641	-0.505980	-0.694769
C110	C	1.563641	-0.005980	-0.194769
C111	C	1.063567	-0.506104	-0.163386
C112	C	1.563567	-0.006104	0.336614
C113	C	1.063690	-0.505839	-0.081588
C114	C	1.563690	-0.005839	0.418412
H115	H	0.494201	-0.384067	-0.269369
H116	H	0.994201	0.115933	0.230631
H117	H	0.633642	-0.384044	-0.269352
H118	H	1.133642	0.115956	0.230648
Br119	Br	1.157924	-0.746934	-0.260741
Br120	Br	1.657924	-0.246934	0.239259
H121	H	0.494251	-0.628176	-0.439853
H122	H	0.994251	-0.128176	0.060147
H123	H	1.243184	-0.906017	-0.175228
H124	H	1.743184	-0.406017	0.324772
Br125	Br	0.969580	-0.746954	-0.448851
Br126	Br	1.469580	-0.246954	0.051149
H127	H	0.978225	-0.627842	-0.785213
H128	H	1.478225	-0.127842	-0.285213
Br129	Br	0.654547	-0.664697	-0.465341
Br130	Br	1.154547	-0.164697	0.034659
Br131	Br	1.268841	-1.134874	-0.149747
Br132	Br	1.768841	-0.634874	0.350253
H133	H	0.884055	-1.105134	-0.534013
H134	H	1.384055	-0.605134	-0.034013
Br135	Br	0.969197	-1.264216	-0.448382
Br136	Br	1.469197	-0.764216	0.051618
Br137	Br	1.174651	-0.347523	-0.945585
Br138	Br	1.674651	0.152477	-0.445585
H139	H	1.157880	-1.204630	-0.260608
H140	H	1.657880	-0.704630	0.239392
H141	H	0.883971	-0.906065	-0.533977
H142	H	1.383971	-0.406065	-0.033977
Br143	Br	1.174627	-0.347586	-0.764430
Br144	Br	1.674627	0.152414	-0.264430
Br145	Br	0.952694	-0.664257	-0.945503
Br146	Br	1.452694	-0.164257	-0.445503
