data_functionalizedCrystal
_audit_creation_method	'MofGen! by Chris Wilmer'
_symmetry_space_group_name_H-M	'P1'
_symmetry_Int_Tables_number	1
_symmetry_cell_setting	triclinic
loop_
_symmetry_equiv_pos_as_xyz
  x,y,z
_cell_length_a	12.645331
_cell_length_b	18.101396
_cell_length_c	12.645323
_cell_angle_alpha	90.027635
_cell_angle_beta	89.977324
_cell_angle_gamma	89.963998
loop_
_atom_site_label
_atom_site_type_symbol
_atom_site_fract_x
_atom_site_fract_y
_atom_site_fract_z
Zn1	Zn	1.620589	0.294844	-0.599426
Zn2	Zn	1.620411	0.418694	-0.422157
Zn3	Zn	1.443303	0.294869	-0.422170
Zn4	Zn	1.443225	0.418646	-0.599373
O5	O	1.531882	0.356763	-0.510782
O6	O	1.768912	0.311283	-0.575928
O7	O	1.596875	0.402299	-0.273812
O8	O	1.466928	0.191233	-0.445711
O9	O	1.768782	0.402275	-0.445689
O10	O	1.597179	0.191214	-0.575940
O11	O	1.466755	0.311325	-0.273821
O12	O	1.294946	0.311278	-0.445660
O13	O	1.466795	0.402193	-0.747727
O14	O	1.294888	0.402217	-0.575850
O15	O	1.597103	0.311236	-0.747766
O16	O	1.596799	0.522321	-0.445638
O17	O	1.466622	0.522285	-0.575837
C18	C	1.256452	0.356746	-0.510751
C19	C	1.138622	0.356756	-0.510763
C20	C	1.531712	0.549174	-0.510753
C21	C	1.531736	0.631488	-0.510777
C22	C	0.971059	0.299284	-0.429312
C23	C	1.093619	0.299432	-0.428953
C24	C	1.094064	0.434770	-0.480243
C25	C	0.971466	0.434456	-0.479687
C26	C	0.971483	0.336957	-0.623048
C27	C	1.094089	0.335215	-0.622425
C28	C	1.531924	0.930579	-0.510839
C29	C	1.450215	0.899262	-0.592959
C30	C	1.449839	0.813644	-0.592701
C31	C	1.531831	0.782196	-0.510809
C32	C	1.501574	0.813349	-0.399084
C33	C	1.501034	0.898994	-0.399577
C34	C	1.644074	0.898924	-0.539459
C35	C	1.643428	0.813273	-0.541908
C36	C	1.531780	0.698337	-0.510785
C37	C	1.531973	1.014438	-0.510855
C38	C	1.808387	0.356782	-0.510813
C39	C	1.926217	0.356789	-0.510826
C40	C	1.531960	0.356706	-0.787287
C41	C	1.531993	0.356682	-0.905117
C42	C	1.532045	1.163601	-0.510837
C43	C	1.532019	1.081287	-0.510871
C44	C	1.449764	0.413633	-1.072657
C45	C	1.449979	0.413915	-0.950097
C46	C	1.643683	0.377863	-0.949636
C47	C	1.643232	0.378220	-1.072234
C48	C	1.503590	0.278231	-1.072320
C49	C	1.501098	0.278701	-0.949714
C50	C	1.531865	0.356767	-0.235352
C51	C	1.532038	0.356583	-0.117522
H52	H	1.123747	0.241582	-0.448084
O53	O	0.930607	0.262917	-0.659820
H54	H	0.877566	0.239425	-0.598512
H55	H	1.671652	0.920471	-0.619541
O56	O	1.724822	0.925741	-0.460339
H57	H	1.786888	0.957840	-0.502025
H58	H	0.941623	0.241259	-0.448237
H59	H	1.123213	0.478761	-0.537750
O60	O	1.132676	0.259170	-0.652917
H61	H	1.179156	0.262797	-0.727208
O62	O	1.728364	0.784927	-0.468462
H63	H	1.767115	0.832296	-0.428423
O64	O	1.675170	0.454091	-1.110131
H65	H	1.675169	0.455098	-1.197894
H66	H	1.124728	0.374044	-0.686407
O67	O	0.932156	0.493124	-0.554904
H68	H	1.000715	0.521600	-0.591504
H69	H	1.706625	0.337625	-0.920503
O70	O	0.930185	0.316462	-0.319808
H71	H	0.884615	0.268521	-0.289585
H72	H	1.468357	0.471356	-1.103472
H73	H	1.366696	0.400505	-1.102131
H74	H	1.559221	0.792980	-0.336228
H75	H	1.468755	0.472001	-0.920779
O76	O	1.132399	0.316798	-0.318799
H77	H	1.220171	0.316957	-0.318154
H78	H	1.706608	0.338471	-1.101915
O79	O	1.676185	0.452940	-0.908997
H80	H	1.612978	0.475289	-0.857106
H81	H	0.942812	0.451274	-0.397647
H82	H	1.423566	0.258923	-1.103226
H83	H	0.942483	0.378842	-0.683783
H84	H	1.468770	0.792579	-0.675544
O85	O	1.392234	0.257525	-0.911157
H86	H	1.360257	0.302346	-0.860438
H87	H	1.557966	0.919713	-0.336304
H88	H	1.420467	0.791963	-0.374404
O89	O	1.474641	0.926834	-0.702958
H90	H	1.545329	0.963107	-0.700293
O91	O	1.340763	0.927839	-0.568164
H92	H	1.344306	0.964248	-0.497605
H93	H	1.556647	0.233948	-0.919096
H94	H	1.666244	0.792909	-0.624131
H95	H	1.563514	0.235726	-1.101337
O96	O	1.134640	0.457435	-0.372733
H97	H	1.186528	0.413267	-0.340865
H98	H	1.366717	0.793220	-0.573742
H99	H	1.419053	0.919036	-0.375332
H100	H	1.367156	0.400660	-0.919996
