data_functionalizedCrystal
_audit_creation_method	'MofGen! by Chris Wilmer'
_symmetry_space_group_name_H-M	'P1'
_symmetry_Int_Tables_number	1
_symmetry_cell_setting	triclinic
loop_
_symmetry_equiv_pos_as_xyz
  x,y,z
_cell_length_a	14.519709
_cell_length_b	19.288865
_cell_length_c	17.766277
_cell_angle_alpha	89.988397
_cell_angle_beta	90.003743
_cell_angle_gamma	96.591803
loop_
_atom_site_label
_atom_site_type_symbol
_atom_site_fract_x
_atom_site_fract_y
_atom_site_fract_z
O1	O	1.223296	-0.091051	0.062505
O2	O	0.954751	-0.101773	0.062529
O3	O	1.096783	0.004690	0.062502
O4	O	1.081264	-0.197514	0.062533
O5	O	1.096759	0.004696	-0.062687
O6	O	0.954726	-0.101768	-0.062659
O7	O	1.223271	-0.091045	-0.062683
Cu8	Cu	1.088997	-0.096406	-0.074102
Cu9	Cu	1.089026	-0.096413	0.073948
O10	O	1.081239	-0.197509	-0.062656
C11	C	1.096272	0.030571	-0.000095
C12	C	1.094773	0.107680	-0.000101
C13	C	0.920382	-0.101271	-0.000062
C14	C	0.818010	-0.099773	-0.000054
N15	N	1.088983	-0.096401	-0.178232
C16	C	0.443150	-0.094261	-0.000089
C17	C	0.547448	-0.095792	-0.000079
C18	C	0.630577	-0.097017	-0.000070
C19	C	0.734882	-0.098548	-0.000062
C20	C	1.257640	-0.091548	-0.000090
C21	C	1.360012	-0.093045	-0.000094
C22	C	1.081751	-0.223390	-0.000058
C23	C	1.083250	-0.300499	-0.000046
C24	C	1.178111	0.152077	-0.000112
C25	C	1.176702	0.224529	-0.000100
C26	C	1.091951	0.252581	-0.000092
C27	C	1.008602	0.208175	-0.000077
C28	C	1.010013	0.135725	-0.000081
C29	C	1.025318	0.361110	-0.043937
C30	C	1.023911	0.433560	-0.043937
C31	C	1.087597	0.476043	-0.000075
C32	C	1.152705	0.446068	0.043778
C33	C	1.154116	0.373618	0.043773
C34	C	1.090412	0.331141	-0.000087
C35	C	1.169414	0.599000	-0.000072
C36	C	1.168002	0.671454	-0.000055
C37	C	0.999899	0.655098	-0.000040
C38	C	1.001314	0.582647	-0.000049
C39	C	1.086073	0.554602	-0.000069
C40	C	1.151895	-0.049282	-0.217631
C41	C	1.151900	-0.049279	-0.296433
C42	C	1.089002	-0.096407	-0.335833
C43	C	1.026078	-0.143529	-0.296424
C44	C	1.026069	-0.143526	-0.217624
C45	C	1.076656	-0.159650	-0.460660
C46	C	1.076672	-0.159654	-0.539459
C47	C	1.089027	-0.096415	-0.578879
C48	C	1.101385	-0.033170	-0.539491
C49	C	1.101375	-0.033167	-0.460690
C50	C	1.089005	-0.096415	-0.421279
C51	C	1.151948	-0.049289	-0.703724
C52	C	1.151947	-0.049285	-0.782528
C53	C	1.026129	-0.143541	-0.782517
C54	C	1.026126	-0.143539	-0.703715
C55	C	1.089040	-0.096414	-0.664324
N56	N	1.089047	-0.096412	0.178078
H57	H	1.247128	0.129248	-0.000126
O58	O	0.920120	0.087838	-0.000074
H59	H	0.935340	0.032746	-0.000077
O60	O	1.219805	0.001543	-0.825022
H61	H	1.209236	-0.006368	-0.886436
O62	O	1.219739	0.001554	-0.175148
H63	H	1.291592	-0.007413	-0.190264
H64	H	1.203132	-0.010908	-0.328518
O65	O	1.266590	0.272428	-0.000123
H66	H	1.325765	0.240754	-0.000143
O67	O	1.063348	-0.227863	-0.581941
H68	H	1.124936	-0.232427	-0.617824
O69	O	1.224320	0.341283	0.091079
H70	H	1.268365	0.382989	0.121588
O71	O	0.908489	0.685349	-0.000032
H72	H	0.850774	0.642301	-0.000024
O73	O	1.063311	-0.227858	-0.418140
H74	H	1.124873	-0.232417	-0.382218
O75	O	1.260831	0.568750	-0.000083
H76	H	1.247812	0.510911	-0.000094
H77	H	1.204564	0.480657	0.079495
H78	H	0.933451	0.546498	-0.000044
O79	O	1.257892	0.719345	-0.000074
H80	H	1.317063	0.687668	-0.000098
O81	O	1.219775	0.001547	-0.661218
H82	H	1.291636	-0.007407	-0.676324
H83	H	0.970892	0.457959	-0.079640
O84	O	1.114687	0.035040	-0.418203
H85	H	1.123272	0.079017	-0.458847
H86	H	0.974901	-0.181910	-0.671634
O87	O	1.114723	0.035037	-0.582008
H88	H	1.182822	0.063816	-0.566890
H89	H	0.974913	-0.181910	-0.814596
O90	O	0.956629	0.315291	-0.091252
H91	H	0.911131	0.348305	-0.121754
H92	H	0.974864	-0.181900	-0.328507
O93	O	0.958218	-0.194354	-0.175121
H94	H	0.914483	-0.227129	-0.215753
H95	H	0.939597	0.231020	-0.000069
