data_functionalizedCrystal
_audit_creation_method	'MofGen! by Chris Wilmer'
_symmetry_space_group_name_H-M	'P1'
_symmetry_Int_Tables_number	1
_symmetry_cell_setting	triclinic
loop_
_symmetry_equiv_pos_as_xyz
  x,y,z
_cell_length_a	15.298068
_cell_length_b	18.101395
_cell_length_c	15.296720
_cell_angle_alpha	80.356295
_cell_angle_beta	91.645182
_cell_angle_gamma	99.690751
loop_
_atom_site_label
_atom_site_type_symbol
_atom_site_fract_x
_atom_site_fract_y
_atom_site_fract_z
Zn1	Zn	1.253339	-0.220311	0.727357
Zn2	Zn	1.278583	-0.319774	0.580885
Zn3	Zn	1.132220	-0.213115	0.555524
Zn4	Zn	1.106804	-0.361292	0.701907
O5	O	1.192736	-0.278623	0.641418
O6	O	1.379266	-0.219142	0.729192
O7	O	1.280368	-0.285239	0.454960
O8	O	1.148358	-0.110432	0.578355
O9	O	1.397812	-0.292217	0.621579
O10	O	1.237344	-0.115719	0.704600
O11	O	1.172836	-0.206877	0.436327
O12	O	1.006270	-0.247135	0.553678
O13	O	1.105041	-0.362977	0.827844
O14	O	0.987597	-0.356000	0.661225
O15	O	1.212699	-0.259400	0.846542
O16	O	1.255724	-0.428919	0.596901
O17	O	1.129519	-0.459422	0.685816
C18	C	0.965150	-0.305292	0.601938
C19	C	0.867784	-0.316723	0.585069
C20	C	0.554642	-0.197114	0.761986
C21	C	0.646121	-0.186378	0.777841
C22	C	0.701541	-0.218963	0.729649
C23	C	0.665474	-0.262287	0.665600
C24	C	0.573985	-0.273029	0.649749
C25	C	0.720884	-0.294878	0.617412
C26	C	0.684816	-0.338202	0.553363
C27	C	0.593336	-0.348942	0.537515
C28	C	0.537916	-0.316357	0.585706
C29	C	0.812373	-0.284135	0.633263
C30	C	0.831716	-0.360050	0.521026
C31	C	0.740236	-0.370787	0.505172
C32	C	1.192624	-0.471043	0.641372
C33	C	1.192650	-0.553357	0.641396
C34	C	1.192834	-0.852433	0.641476
C35	C	1.113558	-0.840340	0.697614
C36	C	1.113274	-0.754724	0.697346
C37	C	1.192743	-0.704058	0.641437
C38	C	1.183738	-0.722762	0.544803
C39	C	1.183233	-0.808526	0.545133
C40	C	1.281404	-0.813850	0.681186
C41	C	1.280509	-0.728600	0.683115
C42	C	1.192694	-0.620202	0.641409
C43	C	1.192883	-0.936289	0.641497
C44	C	1.421211	-0.251851	0.681053
C45	C	1.518573	-0.240442	0.697943
C46	C	1.153219	-0.316622	0.869860
C47	C	1.136380	-0.332815	0.967209
C48	C	1.192870	-0.085452	0.641488
C49	C	1.192927	-0.003134	0.641517
C50	C	1.232150	-0.240713	0.413874
C51	C	1.249159	-0.224291	0.316555
C52	C	1.313126	-0.162756	1.280559
C53	C	1.328953	-0.147543	1.189097
C54	C	1.280811	-0.193859	1.133620
C55	C	1.216839	-0.255392	1.169615
C56	C	1.201015	-0.270611	1.261088
C57	C	1.168700	-0.301714	1.114149
C58	C	1.104728	-0.363247	1.150144
C59	C	1.088907	-0.378463	1.241607
C60	C	1.137049	-0.332146	1.297084
C61	C	1.184524	-0.286496	1.022676
C62	C	1.072413	-0.394350	1.003205
C63	C	1.056586	-0.409564	1.094667
H64	H	0.509511	-0.170593	0.801222
C65	C	1.043306	-0.709688	0.811965
C66	C	1.118370	-0.739194	0.793393
H67	H	1.046454	-0.700099	0.871261
H68	H	0.991520	-0.745326	0.804845
H69	H	1.041048	-0.663620	0.772391
H70	H	1.120625	-0.785265	0.832964
H71	H	1.170170	-0.703555	0.800522
H72	H	0.841730	-0.248859	0.685411
H73	H	1.381041	-0.097444	1.159796
C74	C	1.338643	-0.138208	1.429423
C75	C	1.366041	-0.111853	1.341539
H76	H	1.371312	-0.106777	1.467068
H77	H	1.348833	-0.188955	1.446605
H78	H	1.277202	-0.136754	1.434198
H79	H	1.427480	-0.113313	1.336762
H80	H	1.355858	-0.061093	1.324352
H81	H	1.236610	-0.236394	0.993378
H82	H	1.118964	-0.833174	0.513361
C83	C	1.325806	-0.239909	1.006474
C84	C	1.298244	-0.177138	1.033089
H85	H	1.336585	-0.229580	0.944411
H86	H	1.280809	-0.283171	1.019948
H87	H	1.378725	-0.249536	1.037006
H88	H	1.245321	-0.167514	1.002562
H89	H	1.343244	-0.133863	1.019607
H90	H	1.124166	-0.344530	1.371561
H91	H	1.033214	-0.432067	0.958036
H92	H	0.710857	-0.406062	0.453023
C93	C	0.417397	-0.373074	0.501893
C94	C	0.437356	-0.328162	0.568281
H95	H	0.355315	-0.380357	0.491135
H96	H	0.435467	-0.420954	0.520526
H97	H	0.447863	-0.348362	0.448989
H98	H	0.406895	-0.352877	0.621186
H99	H	0.419277	-0.280274	0.549651
H100	H	1.036824	-0.428572	1.270913
C101	C	1.026554	-0.527722	1.195382
C102	C	0.986276	-0.477206	1.134239
H103	H	0.983147	-0.569483	1.219807
H104	H	1.052954	-0.502312	1.241501
H105	H	1.070869	-0.545641	1.166299
H106	H	0.941965	-0.459283	1.163324
H107	H	0.959862	-0.502619	1.088113
C108	C	0.822055	-0.162244	0.813457
C109	C	0.802099	-0.207155	0.747067
H110	H	0.884138	-0.154947	0.824204
H111	H	0.791601	-0.186957	0.866357
H112	H	0.803970	-0.114363	0.794825
H113	H	0.820177	-0.255038	0.765702
H114	H	0.832563	-0.182442	0.694157
H115	H	0.675481	-0.151106	0.829992
H116	H	0.876838	-0.386588	0.481788
C117	C	0.621647	-0.422896	0.428158
C118	C	0.553688	-0.396566	0.467115
H119	H	0.597170	-0.452292	0.384693
H120	H	0.650731	-0.453424	0.472437
H121	H	0.663122	-0.380825	0.400912
H122	H	0.512216	-0.438637	0.494367
H123	H	0.524590	-0.366037	0.422829
H124	H	1.117146	-0.870512	0.768960
H125	H	1.047968	-0.867355	0.670314
C126	C	0.970916	-0.799538	0.637959
C127	C	1.024220	-0.734493	0.660114
H128	H	0.915940	-0.787045	0.614964
H129	H	0.960525	-0.837312	0.689393
H130	H	1.000131	-0.818361	0.594482
H131	H	0.995008	-0.715673	0.703597
H132	H	1.034609	-0.696706	0.608674
H133	H	1.340272	-0.819968	0.640494
C134	C	1.246377	-0.780877	0.399025
C135	C	1.258958	-0.817315	0.485581
H136	H	1.293121	-0.786311	0.362261
H137	H	1.246187	-0.728460	0.399224
H138	H	1.191295	-0.803158	0.376883
H139	H	1.314038	-0.795030	0.507725
H140	H	1.259157	-0.869742	0.485386
C141	C	1.316476	-0.629739	0.535751
C142	C	1.260178	-0.676041	0.485842
H143	H	1.363663	-0.600892	0.499349
H144	H	1.339948	-0.660572	0.584141
H145	H	1.283996	-0.596341	0.557598
H146	H	1.292657	-0.709442	0.464000
H147	H	1.236705	-0.645204	0.437436
C148	C	1.043685	-0.764167	0.478662
C149	C	1.098027	-0.699929	0.501589
H150	H	0.990771	-0.750071	0.451982
H151	H	1.029312	-0.800887	0.530453
H152	H	1.074114	-0.785101	0.437989
H153	H	1.067600	-0.678998	0.542268
H154	H	1.112398	-0.663196	0.449791
H155	H	1.292731	-0.843749	0.751295
C156	C	1.293007	-0.781832	0.836736
C157	C	1.290033	-0.713427	0.779237
H158	H	1.298866	-0.772468	0.896081
H159	H	1.342292	-0.803029	0.822049
H160	H	1.239871	-0.816386	0.831083
H161	H	1.343172	-0.678874	0.784886
H162	H	1.240743	-0.692219	0.793930
H163	H	1.341415	-0.693344	0.646486
