data_functionalizedCrystal
_audit_creation_method	'MofGen! by Chris Wilmer'
_symmetry_space_group_name_H-M	'P1'
_symmetry_Int_Tables_number	1
_symmetry_cell_setting	triclinic
loop_
_symmetry_equiv_pos_as_xyz
  x,y,z
_cell_length_a	21.295419
_cell_length_b	10.685383
_cell_length_c	10.686551
_cell_angle_alpha	98.416953
_cell_angle_beta	85.604063
_cell_angle_gamma	85.597504
loop_
_atom_site_label
_atom_site_type_symbol
_atom_site_fract_x
_atom_site_fract_y
_atom_site_fract_z
Zn1	Zn	0.971196	0.449721	-0.679002
Zn2	Zn	0.953630	0.678342	-0.450454
Zn3	Zn	0.857168	0.466136	-0.466751
Zn4	Zn	0.857167	0.662007	-0.662652
O5	O	0.909790	0.564051	-0.564715
O6	O	1.056958	0.480014	-0.648707
O7	O	0.933484	0.663898	-0.274982
O8	O	0.879647	0.286307	-0.508570
O9	O	1.044052	0.647981	-0.480793
O10	O	0.963422	0.274247	-0.664510
O11	O	0.862614	0.507992	-0.286956
O12	O	0.769077	0.492153	-0.492716
O13	O	0.879644	0.620141	-0.842455
O14	O	0.769075	0.636058	-0.636643
O15	O	0.963421	0.464175	-0.854467
O16	O	0.933482	0.853826	-0.464939
O17	O	0.862611	0.841825	-0.620840
C18	C	0.746235	0.564115	-0.564675
C19	C	0.676265	0.564170	-0.564685
C20	C	0.650141	0.476833	-0.652233
C21	C	0.584400	0.476799	-0.652241
C22	C	0.544785	0.564123	-0.564712
C23	C	0.570917	0.651467	-0.477147
C24	C	0.636657	0.651491	-0.477134
N25	N	0.436539	0.675961	-0.546281
N26	N	0.374089	0.675934	-0.546302
C27	C	0.346714	0.564055	-0.564745
N28	N	0.384150	0.452200	-0.583192
N29	N	0.446605	0.452228	-0.583178
C30	C	0.473501	0.564107	-0.564716
C31	C	0.249307	0.476673	-0.652306
C32	C	0.183564	0.476637	-0.652305
C33	C	0.170083	0.651317	-0.477217
C34	C	0.235824	0.651342	-0.477213
C35	C	0.275432	0.564022	-0.564764
C36	C	0.896158	0.893887	-0.539375
C37	C	0.890386	1.034988	-0.528576
C38	C	1.073985	0.563988	-0.564756
C39	C	1.143954	0.563961	-0.564773
C40	C	0.923491	0.538504	-0.895807
C41	C	0.929330	0.527618	-1.036899
C42	C	0.923470	1.232927	-0.590171
C43	C	0.929237	1.091823	-0.600990
C44	C	0.896183	0.589407	-0.234918
C45	C	0.890481	0.599936	-0.093854
H46	H	0.563125	0.405672	-0.723531
O47	O	0.131634	0.736022	-0.392020
C48	C	0.143626	0.717868	-0.267694
H49	H	0.165655	0.616930	-0.269239
H50	H	0.097340	0.733528	-0.204139
H51	H	0.177576	0.788465	-0.229169
H52	H	0.852701	1.094276	-0.458324
H53	H	0.657926	0.722614	-0.405840
O54	O	0.974314	0.443644	-1.107367
C55	C	0.964459	0.319583	-1.084814
H56	H	0.936428	0.324308	-0.988725
H57	H	1.012066	0.262975	-1.084795
H58	H	0.936917	0.271148	-1.162683
H59	H	0.538659	0.722567	-0.405880
H60	H	0.966920	1.032529	-0.671259
H61	H	0.162296	0.405509	-0.723595
O62	O	0.261174	0.736365	-0.392298
C63	C	0.240978	0.860804	-0.410093
H64	H	0.226839	0.859538	-0.510990
H65	H	0.281147	0.924374	-0.394231
H66	H	0.198619	0.899123	-0.339450
H67	H	0.852755	0.670183	-1.034676
O68	O	0.688524	0.391878	-0.737315
C69	C	0.651363	0.314802	-0.814608
H70	H	0.602530	0.314329	-0.762977
H71	H	0.675078	0.213746	-0.835986
H72	H	0.646432	0.354001	-0.907360
O73	O	0.287696	0.391728	-0.737394
C74	C	0.250537	0.314646	-0.814685
H75	H	0.201707	0.314154	-0.763047
H76	H	0.274259	0.213597	-0.836077
H77	H	0.245597	0.353853	-0.907431
