data_functionalizedCrystal
_audit_creation_method	'MofGen! by Chris Wilmer'
_symmetry_space_group_name_H-M	'P1'
_symmetry_Int_Tables_number	1
_symmetry_cell_setting	triclinic
loop_
_symmetry_equiv_pos_as_xyz
  x,y,z
_cell_length_a	18.050591
_cell_length_b	21.295417
_cell_length_c	18.050582
_cell_angle_alpha	89.973245
_cell_angle_beta	89.979078
_cell_angle_gamma	90.026512
loop_
_atom_site_label
_atom_site_type_symbol
_atom_site_fract_x
_atom_site_fract_y
_atom_site_fract_z
Zn1	Zn	1.135281	-0.250716	-0.420010
Zn2	Zn	1.468614	0.082617	-0.086676
Zn3	Zn	1.801947	0.415950	0.246657
Zn4	Zn	1.135186	-0.355977	-0.295811
Zn5	Zn	1.468520	-0.022644	0.037523
Zn6	Zn	1.801853	0.310689	0.370856
Zn7	Zn	1.011100	-0.250719	-0.295821
Zn8	Zn	1.344433	0.082615	0.037512
Zn9	Zn	1.677767	0.415948	0.370846
Zn10	Zn	1.011043	-0.355944	-0.419946
Zn11	Zn	1.344376	-0.022611	-0.086613
Zn12	Zn	1.677710	0.310722	0.246720
O13	O	1.073153	-0.303339	-0.357897
O14	O	1.406486	0.029994	-0.024564
O15	O	1.739819	0.363327	0.308770
O16	O	1.239193	-0.264692	-0.403557
O17	O	1.572526	0.068641	-0.070224
O18	O	1.905859	0.401974	0.263110
O19	O	1.118710	-0.342030	-0.191887
O20	O	1.452044	-0.008696	0.141446
O21	O	1.785377	0.324637	0.474779
O22	O	1.027636	-0.162629	-0.312326
O23	O	1.360969	0.170704	0.021008
O24	O	1.694303	0.504038	0.354341
O25	O	1.239124	-0.342027	-0.312308
O26	O	1.572457	-0.008694	0.021025
O27	O	1.905790	0.324639	0.354358
O28	O	1.118871	-0.162627	-0.403567
O29	O	1.452204	0.170706	-0.070233
O30	O	1.785538	0.504039	0.263100
O31	O	1.027545	-0.264697	-0.191895
O32	O	1.360878	0.068637	0.141438
O33	O	1.694211	0.401970	0.474772
O34	O	0.907168	-0.264664	-0.312264
O35	O	1.240501	0.068669	0.021069
O36	O	1.573834	0.402002	0.354403
O37	O	1.027539	-0.341971	-0.523879
O38	O	1.360872	-0.008637	-0.190546
O39	O	1.694206	0.324696	0.142787
O40	O	0.907126	-0.341973	-0.403458
O41	O	1.240459	-0.008640	-0.070125
O42	O	1.573793	0.324694	0.263208
O43	O	1.118816	-0.264660	-0.523926
O44	O	1.452149	0.068673	-0.190593
O45	O	1.785483	0.402007	0.142741
O46	O	1.118655	-0.444062	-0.312247
O47	O	1.451989	-0.110729	0.021087
O48	O	1.785322	0.222604	0.354420
O49	O	1.027448	-0.444038	-0.403449
O50	O	1.360781	-0.110705	-0.070115
O51	O	1.694114	0.222629	0.263218
C52	C	0.880200	-0.303316	-0.357856
C53	C	1.213534	0.030018	-0.024523
C54	C	1.546867	0.363351	0.308811
C55	C	0.797655	-0.303321	-0.357856
C56	C	1.130988	0.030012	-0.024523
C57	C	1.464321	0.363346	0.308811
C58	C	0.598205	-0.261232	-0.308379
C59	C	0.931539	0.072102	0.024955
C60	C	1.264872	0.405435	0.358288
C61	C	0.548783	-0.318646	-0.290098
C62	C	0.882116	0.014687	0.043236
C63	C	1.215449	0.348020	0.376569
C64	C	0.646524	-0.303340	-0.357889
C65	C	0.979858	0.029993	-0.024556
C66	C	1.313191	0.363327	0.308777
C67	C	0.548865	-0.245945	-0.376169
C68	C	0.882198	0.087388	-0.042835
C69	C	1.215532	0.420722	0.290498
C70	C	0.500539	-0.303353	-0.357920
C71	C	0.833872	0.029980	-0.024587
C72	C	1.167206	0.363313	0.308746
C73	C	0.598189	-0.360785	-0.339573
C74	C	0.931522	-0.027452	-0.006240
C75	C	1.264856	0.305882	0.327094
C76	C	0.598276	-0.288045	-0.425676
C77	C	0.931609	0.045289	-0.092342
C78	C	1.264942	0.378622	0.240991
C79	C	0.548875	-0.345499	-0.407420
C80	C	0.882209	-0.012166	-0.074087
C81	C	1.215542	0.321167	0.259246
C82	C	0.730623	-0.303331	-0.357870
C83	C	1.063956	0.030002	-0.024536
C84	C	1.397289	0.363335	0.308797
C85	C	0.416443	-0.303368	-0.357940
C86	C	0.749776	0.029965	-0.024607
C87	C	1.083109	0.363298	0.308726
C88	C	1.073055	-0.466891	-0.357856
C89	C	1.406388	-0.133557	-0.024522
C90	C	1.739722	0.199776	0.308811
C91	C	1.073081	-0.536859	-0.357863
C92	C	1.406415	-0.203526	-0.024530
C93	C	1.739748	0.129808	0.308804
C94	C	1.120615	-0.569717	-0.310423
C95	C	1.453949	-0.236384	0.022910
C96	C	1.787282	0.096949	0.356244
C97	C	1.120650	-0.635460	-0.310440
C98	C	1.453984	-0.302127	0.022894
C99	C	1.787317	0.031207	0.356227
C100	C	1.073138	-0.668341	-0.357889
C101	C	1.406471	-0.335008	-0.024555
C102	C	1.739804	-0.001675	0.308778
C103	C	1.025600	-0.635475	-0.405338
C104	C	1.358934	-0.302142	-0.072005
C105	C	1.692267	0.031192	0.261329
C106	C	1.025572	-0.569734	-0.405325
C107	C	1.358906	-0.236400	-0.071992
C108	C	1.692239	0.096933	0.261341
N109	N	1.008171	-0.771604	-0.363536
N110	N	1.341504	-0.438270	-0.030203
N111	N	1.674837	-0.104937	0.303130
N112	N	1.008200	-0.834055	-0.363544
N113	N	1.341533	-0.500722	-0.030211
N114	N	1.674866	-0.167389	0.303122
C115	C	1.073221	-0.866416	-0.357931
C116	C	1.406554	-0.533083	-0.024598
C117	C	1.739888	-0.199749	0.308735
N118	N	1.138214	-0.833966	-0.352296
N119	N	1.471547	-0.500633	-0.018962
N120	N	1.804880	-0.167300	0.314371
N121	N	1.138184	-0.771509	-0.352284
N122	N	1.471517	-0.438176	-0.018951
N123	N	1.804851	-0.104842	0.314383
C124	C	1.073163	-0.739627	-0.357908
C125	C	1.406497	-0.406293	-0.024575
C126	C	1.739830	-0.072960	0.308759
C127	C	1.120797	-0.970560	-0.310507
C128	C	1.454130	-0.637227	0.022827
C129	C	1.787463	-0.303893	0.356160
C130	C	1.120833	-1.036304	-0.310529
C131	C	1.454166	-0.702970	0.022805
C132	C	1.787499	-0.369637	0.356138
C133	C	1.025776	-1.036318	-0.405423
C134	C	1.359110	-0.702984	-0.072090
C135	C	1.692443	-0.369651	0.261244
C136	C	1.025747	-0.970575	-0.405405
C137	C	1.359080	-0.637242	-0.072072
C138	C	1.692414	-0.303909	0.261262
C139	C	1.073256	-0.937700	-0.357943
C140	C	1.406589	-0.604367	-0.024610
C141	C	1.739923	-0.271034	0.308724
C142	C	1.266858	-0.303363	-0.357939
C143	C	1.600191	0.029970	-0.024605
C144	C	1.933525	0.363304	0.308728
C145	C	1.349404	-0.303373	-0.357956
C146	C	1.682737	0.029960	-0.024623
C147	C	2.016071	0.363293	0.308710
C148	C	1.073182	-0.303311	-0.551603
C149	C	1.406515	0.030022	-0.218269
C150	C	1.739848	0.363355	0.115064
C151	C	1.073194	-0.303299	-0.634148
C152	C	1.406527	0.030034	-0.300815
C153	C	1.739861	0.363367	0.032518
C154	C	1.073270	-0.139149	-0.357954
C155	C	1.406604	0.194184	-0.024621
C156	C	1.739937	0.527518	0.308712
C157	C	1.073321	-0.069181	-0.357979
C158	C	1.406654	0.264153	-0.024646
C159	C	1.739987	0.597486	0.308688
C160	C	1.023596	-0.345283	-0.833574
C161	C	1.356929	-0.011950	-0.500240
C162	C	1.690262	0.321383	-0.166907
C163	C	1.091350	-0.360675	-0.882971
C164	C	1.424683	-0.027341	-0.549638
C165	C	1.758017	0.305992	-0.216304
C166	C	1.073231	-0.303251	-0.785279
C167	C	1.406564	0.030082	-0.451946
C168	C	1.739897	0.363415	-0.118612
C169	C	1.005513	-0.287842	-0.882964
C170	C	1.338847	0.045491	-0.549630
C171	C	1.672180	0.378824	-0.216297
C172	C	1.073260	-0.303206	-0.931264
C173	C	1.406593	0.030127	-0.597931
C174	C	1.739927	0.363461	-0.264597
C175	C	1.141021	-0.318673	-0.833589
C176	C	1.474354	0.014661	-0.500255
C177	C	1.807687	0.347994	-0.166922
C178	C	1.055138	-0.245814	-0.833577
C179	C	1.388472	0.087520	-0.500244
C180	C	1.721805	0.420853	-0.166910
C181	C	1.122940	-0.261183	-0.882952
C182	C	1.456273	0.072150	-0.549619
C183	C	1.789606	0.405483	-0.216285
C184	C	1.073213	-0.303279	-0.701181
C185	C	1.406546	0.030054	-0.367847
C186	C	1.739879	0.363388	-0.034514
C187	C	1.073286	-0.303178	-1.015361
C188	C	1.406619	0.030155	-0.682027
C189	C	1.739952	0.363488	-0.348694
C190	C	1.073166	-0.303322	-0.164945
C191	C	1.406500	0.030012	0.168389
C192	C	1.739833	0.363345	0.501722
C193	C	1.073298	-0.303156	-0.082399
C194	C	1.406631	0.030177	0.250934
C195	C	1.739964	0.363511	0.584267
H196	H	0.527159	-0.197408	-0.391591
H197	H	0.860493	0.135926	-0.058257
H198	H	1.193826	0.469259	0.275076
H199	H	0.986864	-0.542980	-0.443958
H200	H	1.320197	-0.209646	-0.110624
H201	H	1.653530	0.123687	0.222709
C202	C	0.989470	-0.950295	-0.531113
C203	C	1.322803	-0.616962	-0.197780
C204	C	1.656136	-0.283629	0.135553
C205	C	0.973486	-0.934455	-0.457546
C206	C	1.306819	-0.601121	-0.124213
C207	C	1.640152	-0.267788	0.209121
H208	H	0.957201	-0.927999	-0.563304
H209	H	1.290534	-0.594665	-0.229970
H210	H	1.623867	-0.261332	0.103363
H211	H	1.039348	-0.939475	-0.542028
H212	H	1.372682	-0.606142	-0.208695
H213	H	1.706015	-0.272809	0.124639
H214	H	0.982687	-0.994155	-0.537902
H215	H	1.316020	-0.660822	-0.204569
H216	H	1.649353	-0.327488	0.128765
H217	H	0.980274	-0.890595	-0.450756
H218	H	1.313607	-0.557262	-0.117423
H219	H	1.646940	-0.223929	0.215911
H220	H	0.923595	-0.945271	-0.446627
H221	H	1.256928	-0.611937	-0.113294
H222	H	1.590262	-0.278604	0.220039
C223	C	1.214759	-0.977147	-0.216711
C224	C	1.548093	-0.643814	0.116622
C225	C	1.881426	-0.310480	0.449956
C226	C	1.173022	-0.934419	-0.258343
C227	C	1.506355	-0.601086	0.074990
C228	C	1.839689	-0.267752	0.408324
H229	H	1.247003	-0.954835	-0.184511
H230	H	1.580336	-0.621502	0.148823
H231	H	1.913670	-0.288168	0.482156
H232	H	1.182434	-1.002828	-0.188279
H233	H	1.515767	-0.669495	0.145054
H234	H	1.849101	-0.336161	0.478387
H235	H	1.243157	-1.002749	-0.249112
H236	H	1.576491	-0.669416	0.084222
H237	H	1.909824	-0.336083	0.417555
H238	H	1.144620	-0.908820	-0.225942
H239	H	1.477953	-0.575486	0.107391
H240	H	1.811286	-0.242153	0.440724
H241	H	1.205351	-0.908727	-0.286777
H242	H	1.538685	-0.575394	0.046557
H243	H	1.872018	-0.242061	0.379890
C244	C	1.220844	-1.110088	-0.300416
C245	C	1.554178	-0.776755	0.032917
C246	C	1.887511	-0.443422	0.366251
C247	C	1.173162	-1.072390	-0.258420
C248	C	1.506495	-0.739056	0.074913
C249	C	1.839829	-0.405723	0.408247
H250	H	1.253174	-1.132353	-0.268256
H251	H	1.586507	-0.799020	0.065077
H252	H	1.919841	-0.465686	0.398410
H253	H	1.192559	-1.139103	-0.328637
H254	H	1.525892	-0.805770	0.004696
H255	H	1.859225	-0.472436	0.338029
H256	H	1.249146	-1.084372	-0.332827
H257	H	1.582480	-0.751039	0.000506
H258	H	1.915813	-0.417705	0.333840
H259	H	1.144855	-1.098107	-0.226012
H260	H	1.478189	-0.764773	0.107321
H261	H	1.811522	-0.431440	0.440654
H262	H	1.201450	-1.043372	-0.230186
H263	H	1.534784	-0.710038	0.103148
H264	H	1.868117	-0.376705	0.436481
C265	C	0.545289	-0.395809	-0.193111
C266	C	0.878623	-0.062475	0.140223
C267	C	1.211956	0.270858	0.473556
C268	C	0.519363	-0.336121	-0.212756
C269	C	0.852696	-0.002787	0.120577
C270	C	1.186029	0.330546	0.453911
H271	H	0.527111	-0.406589	-0.145368
H272	H	0.860444	-0.073256	0.187966
H273	H	1.193777	0.260078	0.521299
H274	H	0.528432	-0.425753	-0.228263
H275	H	0.861766	-0.092419	0.105070
H276	H	1.195099	0.240914	0.438404
H277	H	0.597910	-0.395560	-0.192367
H278	H	0.931243	-0.062227	0.140967
H279	H	1.264577	0.271107	0.474300
H280	H	0.466742	-0.336371	-0.213505
H281	H	0.800075	-0.003037	0.119828
H282	H	1.133408	0.330296	0.453161
H283	H	0.536215	-0.306169	-0.177594
H284	H	0.869549	0.027164	0.155739
H285	H	1.202882	0.360498	0.489072
H286	H	0.619765	-0.409343	-0.324062
H287	H	0.953099	-0.076010	0.009271
H288	H	1.286432	0.257324	0.342605
C289	C	1.130973	-0.495841	-0.210514
C290	C	1.464306	-0.162507	0.122819
C291	C	1.797640	0.170826	0.456153
C292	C	1.172843	-0.533585	-0.258257
C293	C	1.506176	-0.200252	0.075077
C294	C	1.839510	0.133082	0.408410
H295	H	1.163218	-0.473537	-0.178307
H296	H	1.496552	-0.140204	0.155026
H297	H	1.829885	0.193129	0.488360
H298	H	1.102667	-0.466860	-0.238764
H299	H	1.436001	-0.133526	0.094569
H300	H	1.769334	0.199807	0.427902
H301	H	1.098645	-0.521531	-0.182083
H302	H	1.431979	-0.188197	0.151250
H303	H	1.765312	0.145136	0.484583
H304	H	1.205167	-0.507894	-0.286691
H305	H	1.538500	-0.174561	0.046642
H306	H	1.871834	0.158772	0.379975
H307	H	1.201161	-0.562569	-0.230003
H308	H	1.534494	-0.229236	0.103330
H309	H	1.867828	0.104098	0.436663
H310	H	0.619865	-0.225660	-0.266464
H311	H	0.953198	0.107673	0.066870
H312	H	1.286531	0.441006	0.400203
H313	H	1.159361	-0.662218	-0.271808
H314	H	1.492694	-0.328885	0.061525
H315	H	1.826028	0.004448	0.394858
C316	C	0.544843	-0.453672	-0.444657
C317	C	0.878176	-0.120339	-0.111324
C318	C	1.211510	0.212995	0.222010
C319	C	0.519809	-0.393631	-0.463959
C320	C	0.853143	-0.060297	-0.130626
C321	C	1.186476	0.273036	0.202708
H322	H	0.526893	-0.483387	-0.479557
H323	H	0.860226	-0.150053	-0.146224
H324	H	1.193559	0.183280	0.187110
H325	H	0.597460	-0.454165	-0.444667
H326	H	0.930793	-0.120831	-0.111333
H327	H	1.264126	0.212502	0.222000
H328	H	0.527143	-0.464188	-0.396659
H329	H	0.860476	-0.130855	-0.063326
H330	H	1.193810	0.202479	0.270007
H331	H	0.537514	-0.383113	-0.511954
H332	H	0.870847	-0.049779	-0.178621
H333	H	1.204181	0.283554	0.154712
H334	H	0.467182	-0.393136	-0.463957
H335	H	0.800515	-0.059803	-0.130624
H336	H	1.133848	0.273530	0.202710
C337	C	0.986131	-0.453422	-0.829234
C338	C	1.319465	-0.120089	-0.495901
C339	C	1.652798	0.213244	-0.162568
C340	C	0.966985	-0.393327	-0.804298
C341	C	1.300319	-0.059993	-0.470964
C342	C	1.633652	0.273340	-0.137631
H343	H	0.951187	-0.483082	-0.811155
H344	H	1.284520	-0.149749	-0.477822
H345	H	1.617853	0.183585	-0.144489
H346	H	0.986064	-0.453998	-0.881849
H347	H	1.319397	-0.120664	-0.548516
H348	H	1.652730	0.212669	-0.215183
H349	H	1.034125	-0.463947	-0.811598
H350	H	1.367459	-0.130613	-0.478264
H351	H	1.700792	0.202720	-0.144931
H352	H	0.918993	-0.382801	-0.821939
H353	H	1.252327	-0.049467	-0.488605
H354	H	1.585660	0.283866	-0.155272
H355	H	0.967045	-0.392750	-0.751671
H356	H	1.300379	-0.059416	-0.418338
H357	H	1.633712	0.273917	-0.085005
C358	C	0.602802	-0.210384	-0.522037
C359	C	0.936135	0.122949	-0.188704
C360	C	1.269468	0.456283	0.144629
C361	C	0.627654	-0.270545	-0.503020
C362	C	0.960987	0.062789	-0.169687
C363	C	1.294321	0.396122	0.163647
H364	H	0.620945	-0.199575	-0.569785
H365	H	0.954278	0.133759	-0.236451
H366	H	1.287611	0.467092	0.096882
H367	H	0.550188	-0.209886	-0.522504
H368	H	0.883521	0.123448	-0.189171
H369	H	1.216854	0.456781	0.144163
H370	H	0.620430	-0.180889	-0.486725
H371	H	0.953764	0.152444	-0.153391
H372	H	1.287097	0.485778	0.179942
H373	H	0.610021	-0.300040	-0.538330
H374	H	0.943354	0.033293	-0.204996
H375	H	1.276688	0.366626	0.128337
H376	H	0.680279	-0.271048	-0.502559
H377	H	1.013612	0.062286	-0.169226
H378	H	1.346946	0.395619	0.164108
C379	C	1.112475	-0.425338	-0.989837
C380	C	1.445808	-0.092005	-0.656504
C381	C	1.779141	0.241328	-0.323171
C382	C	1.112029	-0.426218	-0.912272
C383	C	1.445362	-0.092885	-0.578939
C384	C	1.778696	0.240448	-0.245605
H385	H	1.125240	-0.465802	-1.007924
H386	H	1.458573	-0.132469	-0.674590
H387	H	1.791907	0.200864	-0.341257
H388	H	1.064703	-0.414119	-1.007460
H389	H	1.398037	-0.080786	-0.674127
H390	H	1.731370	0.252548	-0.340794
H391	H	1.147793	-0.395503	-1.006731
H392	H	1.481127	-0.062170	-0.673398
H393	H	1.814460	0.271163	-0.340064
H394	H	1.076706	-0.456050	-0.895378
H395	H	1.410040	-0.122717	-0.562045
H396	H	1.743373	0.210617	-0.228711
H397	H	1.159807	-0.437446	-0.894642
H398	H	1.493141	-0.104112	-0.561309
H399	H	1.826474	0.229221	-0.227975
C400	C	1.217642	-0.336217	-0.726870
C401	C	1.550975	-0.002884	-0.393537
C402	C	1.884309	0.330450	-0.060203
C403	C	1.218368	-0.336325	-0.804440
C404	C	1.551701	-0.002992	-0.471106
C405	C	1.885035	0.330341	-0.137773
H406	H	1.265390	-0.347121	-0.708876
H407	H	1.598724	-0.013787	-0.375542
H408	H	1.932057	0.319546	-0.042209
H409	H	1.204707	-0.295563	-0.709552
H410	H	1.538040	0.037771	-0.376218
H411	H	1.871373	0.371104	-0.042885
H412	H	1.182343	-0.365904	-0.709577
H413	H	1.515676	-0.032571	-0.376244
H414	H	1.849009	0.300763	-0.042910
H415	H	1.253664	-0.306635	-0.821733
H416	H	1.586997	0.026699	-0.488400
H417	H	1.920330	0.360032	-0.155066
H418	H	1.231312	-0.376986	-0.821765
H419	H	1.564646	-0.043652	-0.488432
H420	H	1.897979	0.289681	-0.155098
C421	C	0.983430	-0.736259	-0.447483
C422	C	1.316763	-0.402926	-0.114150
C423	C	1.650097	-0.069592	0.219184
C424	C	0.973371	-0.671616	-0.457493
C425	C	1.306705	-0.338283	-0.124160
C426	C	1.640038	-0.004949	0.209174
H427	H	0.951183	-0.758569	-0.479682
H428	H	1.284516	-0.425235	-0.146348
H429	H	1.617849	-0.091902	0.186985
H430	H	1.033319	-0.746990	-0.458406
H431	H	1.366653	-0.413657	-0.125073
H432	H	1.699986	-0.080323	0.208261
H433	H	0.972597	-0.747059	-0.397573
H434	H	1.305930	-0.413725	-0.064240
H435	H	1.639264	-0.080392	0.269094
H436	H	0.984210	-0.660815	-0.507402
H437	H	1.317543	-0.327482	-0.174069
H438	H	1.650877	0.005851	0.159265
H439	H	0.923471	-0.660881	-0.446575
H440	H	1.256804	-0.327547	-0.113242
H441	H	1.590137	0.005786	0.220092
H442	H	0.987094	-1.063089	-0.444060
H443	H	1.320427	-0.729756	-0.110727
H444	H	1.653761	-0.396422	0.222606
C445	C	1.250529	-0.229436	-0.886985
C446	C	1.583863	0.103897	-0.553652
C447	C	1.917196	0.437231	-0.220318
C448	C	1.179682	-0.213174	-0.912046
C449	C	1.513015	0.120159	-0.578712
C450	C	1.846349	0.453493	-0.245379
H451	H	1.285560	-0.199800	-0.904952
H452	H	1.618893	0.133533	-0.571619
H453	H	1.952227	0.466866	-0.238285
H454	H	1.251105	-0.229434	-0.834368
H455	H	1.584439	0.103900	-0.501035
H456	H	1.917772	0.437233	-0.167702
H457	H	1.262974	-0.270100	-0.904650
H458	H	1.596308	0.063234	-0.571317
H459	H	1.929641	0.396567	-0.237984
H460	H	1.167235	-0.172512	-0.894375
H461	H	1.500568	0.160821	-0.561042
H462	H	1.833901	0.494155	-0.227709
H463	H	1.179104	-0.213169	-0.964673
H464	H	1.512438	0.120164	-0.631340
H465	H	1.845771	0.453497	-0.298006
C466	C	0.963441	-0.164269	-0.829131
C467	C	1.296774	0.169065	-0.495798
C468	C	1.630108	0.502398	-0.162465
C469	C	1.034429	-0.180289	-0.804253
C470	C	1.367763	0.153045	-0.470920
C471	C	1.701096	0.486378	-0.137587
H472	H	0.950649	-0.123818	-0.811022
H473	H	1.283983	0.209515	-0.477688
H474	H	1.617316	0.542849	-0.144355
H475	H	0.962858	-0.163866	-0.881746
H476	H	1.296191	0.169468	-0.548413
H477	H	1.629524	0.502801	-0.215079
H478	H	0.928670	-0.194254	-0.811487
H479	H	1.262004	0.139079	-0.478153
H480	H	1.595337	0.472413	-0.144820
H481	H	1.069201	-0.150306	-0.821903
H482	H	1.402534	0.183027	-0.488570
H483	H	1.735867	0.516361	-0.155236
H484	H	1.035018	-0.180687	-0.751628
H485	H	1.368351	0.152646	-0.418294
H486	H	1.701685	0.485980	-0.084961
C487	C	0.876296	-0.314376	-0.887311
C488	C	1.209629	0.018958	-0.553978
C489	C	1.542962	0.352291	-0.220645
C490	C	0.928189	-0.270269	-0.912242
C491	C	1.261523	0.063065	-0.578908
C492	C	1.594856	0.396398	-0.245575
H493	H	0.828559	-0.303527	-0.905382
H494	H	1.161892	0.029807	-0.572049
H495	H	1.495225	0.363140	-0.238716
H496	H	0.889500	-0.354868	-0.904953
H497	H	1.222834	-0.021534	-0.571619
H498	H	1.556167	0.311799	-0.238286
H499	H	0.875627	-0.314636	-0.834689
H500	H	1.208960	0.018697	-0.501356
H501	H	1.542294	0.352030	-0.168023
H502	H	0.928862	-0.270011	-0.964864
H503	H	1.262196	0.063322	-0.631531
H504	H	1.595529	0.396656	-0.298198
H505	H	0.914981	-0.229766	-0.894604
H506	H	1.248315	0.103568	-0.561271
H507	H	1.581648	0.436901	-0.227938
