data_functionalizedCrystal
_audit_creation_method	'MofGen! by Chris Wilmer'
_symmetry_space_group_name_H-M	'P1'
_symmetry_Int_Tables_number	1
_symmetry_cell_setting	triclinic
loop_
_symmetry_equiv_pos_as_xyz
  x,y,z
_cell_length_a	16.109301
_cell_length_b	10.654550
_cell_length_c	15.186229
_cell_angle_alpha	89.996404
_cell_angle_beta	89.999362
_cell_angle_gamma	83.973206
loop_
_atom_site_label
_atom_site_type_symbol
_atom_site_fract_x
_atom_site_fract_y
_atom_site_fract_z
O1	O	1.104090	0.161419	-0.073173
O2	O	1.604090	0.661419	0.426827
O3	O	0.862148	0.181507	-0.073187
O4	O	1.362148	0.681507	0.426813
O5	O	0.988682	-0.011352	-0.073174
O6	O	1.488682	0.488648	0.426826
O7	O	0.977556	0.354278	-0.073185
O8	O	1.477556	0.854278	0.426815
O9	O	0.988673	-0.011354	0.073284
O10	O	1.488673	0.488646	0.573284
O11	O	0.862139	0.181504	0.073271
O12	O	1.362139	0.681504	0.573271
O13	O	1.104082	0.161416	0.073285
O14	O	1.604082	0.661416	0.573285
Zn15	Zn	0.983109	0.171460	0.096531
Zn16	Zn	1.483109	0.671460	0.596531
Zn17	Zn	0.983120	0.171463	-0.096433
Zn18	Zn	1.483120	0.671463	0.403567
O19	O	0.977548	0.354275	0.073272
O20	O	1.477548	0.854275	0.573272
C21	C	0.831164	0.180692	0.000040
C22	C	1.331164	0.680692	0.500040
C23	C	0.738854	0.178253	0.000035
C24	C	1.238854	0.678253	0.500035
C25	C	0.517228	0.287019	0.000042
C26	C	1.017228	0.787019	0.500042
C27	C	0.430494	0.284717	0.000048
C28	C	0.930494	0.784717	0.500048
C29	C	0.449008	0.055896	0.000051
C30	C	0.949008	0.555896	0.500051
C31	C	0.535741	0.058199	0.000052
C32	C	1.035741	0.558199	0.500052
C33	C	0.569848	0.173764	0.000043
C34	C	1.069848	0.673764	0.500043
C35	C	0.396382	0.169159	0.000048
C36	C	0.896382	0.669159	0.500048
C37	C	0.302341	0.166662	0.000054
C38	C	0.802341	0.666662	0.500054
C39	C	0.663895	0.176262	0.000038
C40	C	1.163895	0.676262	0.500038
C41	C	0.987861	-0.058140	0.000054
C42	C	1.487861	0.441860	0.500054
C43	C	0.985417	-0.197550	0.000053
C44	C	1.485417	0.302450	0.500053
C45	C	1.059918	-0.278046	0.000057
C46	C	1.559918	0.221954	0.500057
C47	C	1.057616	-0.409036	0.000046
C48	C	1.557616	0.090964	0.500046
C49	C	0.906306	-0.379020	0.000031
C50	C	1.406306	0.120980	0.500031
C51	C	0.908608	-0.248033	0.000035
C52	C	1.408608	0.251967	0.500035
C53	C	1.145364	-0.606070	-0.051264
C54	C	1.645364	-0.106070	0.448736
C55	C	1.219869	-0.686572	-0.051245
C56	C	1.719869	-0.186572	0.448755
C57	C	1.287407	-0.657317	0.000083
C58	C	1.787407	-0.157317	0.500083
C59	C	1.280443	-0.547563	0.051414
C60	C	1.780443	-0.047563	0.551414
C61	C	1.205937	-0.467068	0.051402
C62	C	1.705937	0.032932	0.551402
C63	C	1.138402	-0.496322	0.000054
C64	C	1.638402	0.003678	0.500054
C65	C	0.820866	-0.050997	0.051353
C66	C	1.320866	0.449003	0.551353
C67	C	0.746359	0.029500	0.051348
C68	C	1.246359	0.529500	0.551348
C69	C	0.678814	0.000249	0.000025
C70	C	1.178814	0.500249	0.500025
C71	C	0.685769	-0.109507	-0.051292
C72	C	1.185769	0.390493	0.448708
C73	C	0.760277	-0.190004	-0.051287
C74	C	1.260277	0.309996	0.448713
C75	C	0.827822	-0.160745	0.000034
C76	C	1.327822	0.339255	0.500034
C77	C	1.135066	0.162231	0.000056
C78	C	1.635066	0.662231	0.500056
C79	C	1.227376	0.164671	0.000055
C80	C	1.727376	0.664671	0.500055
C81	C	0.978369	0.401063	0.000042
C82	C	1.478369	0.901063	0.500042
C83	C	0.980813	0.540473	0.000037
C84	C	1.480813	1.040473	0.500037
N85	N	0.983108	0.171457	0.228224
N86	N	1.483108	0.671457	0.728224
N87	N	0.983129	0.171457	-0.228126
N88	N	1.483129	0.671457	0.271874
C89	C	1.039156	0.086088	0.453952
C90	C	1.539156	0.586088	0.953952
C91	C	1.039159	0.086085	0.546142
C92	C	1.539159	0.586085	1.046142
C93	C	0.927074	0.256830	0.546140
C94	C	1.427074	0.756830	1.046140
C95	C	0.927068	0.256826	0.453952
C96	C	1.427068	0.756826	0.953952
C97	C	0.983114	0.171456	0.407860
C98	C	1.483114	0.671456	0.907860
C99	C	0.983122	0.171457	0.592238
C100	C	1.483122	0.671457	1.092238
C101	C	0.983125	0.171455	0.692194
C102	C	1.483125	0.671455	1.192194
C103	C	0.983111	0.171457	0.307898
C104	C	1.483111	0.671457	0.807898
H105	H	1.122460	-0.236948	0.000069
H106	H	1.622460	0.263052	0.500069
Br107	Br	1.229320	-0.835519	-0.120904
Br108	Br	1.729320	-0.335519	0.379096
Br109	Br	0.563515	0.443855	0.000032
Br110	Br	1.063515	0.943855	0.500032
Br111	Br	0.359084	0.438426	0.000051
Br112	Br	0.859084	0.938426	0.500051
H113	H	1.084793	0.016568	0.583667
H114	H	1.584793	0.516568	1.083667
H115	H	0.881444	0.326338	0.583676
H116	H	1.381444	0.826338	1.083676
Br117	Br	0.850999	0.372682	0.391391
Br118	Br	1.350999	0.872682	0.891391
H119	H	0.765940	-0.279365	-0.093086
H120	H	1.265940	0.220635	0.406914
Br121	Br	0.402714	-0.100935	0.000060
Br122	Br	0.902714	0.399065	0.500060
H123	H	1.084791	0.016573	0.416427
H124	H	1.584791	0.516573	0.916427
H125	H	0.843771	-0.420140	0.000018
H126	H	1.343771	0.079860	0.500018
Br127	Br	0.607160	-0.095514	0.000064
Br128	Br	1.107160	0.404486	0.500064
H129	H	1.200266	-0.377712	0.093198
H130	H	1.700266	0.122288	0.593198
H131	H	1.348071	-0.722871	0.000097
H132	H	1.848071	-0.222871	0.500097
Br133	Br	1.372105	-0.507876	0.121087
Br134	Br	1.872105	-0.007876	0.621087
Br135	Br	1.053712	-0.645765	-0.120949
Br136	Br	1.553712	-0.145765	0.379051
H137	H	0.630761	-0.133341	-0.093065
H138	H	1.130761	0.366659	0.406935
H139	H	0.740696	0.118862	0.093145
H140	H	1.240696	0.618862	0.593145
Br141	Br	0.912540	-0.011285	0.121004
Br142	Br	1.412540	0.488715	0.621004
H143	H	0.618142	0.065794	0.000037
H144	H	1.118142	0.565794	0.500037
