data_functionalizedCrystal
_audit_creation_method	'MofGen! by Chris Wilmer'
_symmetry_space_group_name_H-M	'P1'
_symmetry_Int_Tables_number	1
_symmetry_cell_setting	triclinic
loop_
_symmetry_equiv_pos_as_xyz
  x,y,z
_cell_length_a	15.625110
_cell_length_b	15.711784
_cell_length_c	15.455313
_cell_angle_alpha	93.467169
_cell_angle_beta	105.373385
_cell_angle_gamma	101.032294
loop_
_atom_site_label
_atom_site_type_symbol
_atom_site_fract_x
_atom_site_fract_y
_atom_site_fract_z
O1	O	1.221733	0.129267	0.312215
O2	O	1.721733	0.629267	0.812215
O3	O	0.966703	0.138511	0.231985
O4	O	1.466703	0.638511	0.731985
O5	O	1.060281	0.007456	0.261425
O6	O	1.560281	0.507456	0.761425
O7	O	1.128155	0.260321	0.282775
O8	O	1.628155	0.760321	0.782775
O9	O	1.054920	0.014919	0.404000
O10	O	1.554920	0.514919	0.904000
O11	O	0.961341	0.145973	0.374560
O12	O	1.461341	0.645973	0.874560
O13	O	1.216372	0.136729	0.454791
O14	O	1.716372	0.636729	0.954791
Cu15	Cu	1.088367	0.142033	0.427694
Cu16	Cu	1.588367	0.642033	0.927694
Cu17	Cu	1.094708	0.133207	0.259082
Cu18	Cu	1.594708	0.633207	0.759082
O19	O	1.122794	0.267784	0.425350
O20	O	1.622794	0.767784	0.925350
C21	C	0.930627	0.141082	0.292766
C22	C	1.430627	0.641082	0.792766
C23	C	0.831119	0.137615	0.261462
C24	C	1.331119	0.637615	0.761462
C25	C	0.693787	0.128662	0.139627
C26	C	1.193787	0.628662	0.639627
C27	C	0.787290	0.131920	0.169051
C28	C	1.287290	0.631920	0.669051
C29	C	0.781454	0.140059	0.324484
C30	C	1.281454	0.640059	0.824484
C31	C	0.687950	0.136807	0.295073
C32	C	1.187950	0.636807	0.795073
C33	C	0.644123	0.131107	0.202643
C34	C	1.144123	0.631107	0.702643
C35	C	0.638286	0.139252	0.358089
C36	C	1.138286	0.639252	0.858089
C37	C	0.544789	0.135994	0.328679
C38	C	1.044789	0.635994	0.828679
C39	C	0.500955	0.130292	0.236253
C40	C	1.000955	0.630292	0.736253
C41	C	0.550626	0.127850	0.173233
C42	C	1.050626	0.627850	0.673233
C43	C	0.682113	0.144945	0.450518
C44	C	1.182113	0.644945	0.950518
C45	C	0.632449	0.147390	0.513534
C46	C	1.132449	0.647390	1.013534
C47	C	0.538951	0.144139	0.484125
C48	C	1.038951	0.644139	0.984125
C49	C	0.495118	0.138437	0.391699
C50	C	0.995118	0.638437	0.891699
C51	C	0.489280	0.146581	0.547146
C52	C	0.989280	0.646581	1.047146
C53	C	0.395783	0.143324	0.517736
C54	C	0.895783	0.643324	1.017736
C55	C	0.401620	0.135180	0.362290
C56	C	0.901620	0.635180	0.862290
C57	C	1.046513	-0.021213	0.329223
C58	C	1.546513	0.478787	0.829223
C59	C	1.013465	-0.117757	0.318822
C60	C	1.513465	0.382243	0.818822
C61	C	0.889049	-0.244907	0.279676
C62	C	1.389049	0.255093	0.779676
C63	C	0.920112	-0.154191	0.289452
C64	C	1.420112	0.345809	0.789452
C65	C	1.075791	-0.172032	0.338432
C66	C	1.575791	0.327968	0.838432
C67	C	1.044741	-0.262751	0.328664
C68	C	1.544741	0.237249	0.828664
C69	C	0.951369	-0.299181	0.299285
C70	C	1.451369	0.200819	0.799285
C71	C	1.107061	-0.317025	0.348273
C72	C	1.607061	0.182975	0.848273
C73	C	1.076014	-0.407737	0.338501
C74	C	1.576014	0.092263	0.838501
C75	C	0.982646	-0.444174	0.309121
C76	C	1.482646	0.055826	0.809121
C77	C	0.920322	-0.389893	0.289514
C78	C	1.420322	0.110107	0.789514
C79	C	1.200433	-0.280593	0.377645
C80	C	1.700433	0.219407	0.877645
C81	C	1.262753	-0.334867	0.397254
C82	C	1.762753	0.165133	0.897254
C83	C	1.231706	-0.425580	0.387489
C84	C	1.731706	0.074420	0.887489
C85	C	1.138338	-0.462018	0.358109
C86	C	1.638338	0.037982	0.858109
C87	C	1.294030	-0.479862	0.407096
C88	C	1.794030	0.020138	0.907096
C89	C	1.262982	-0.570573	0.397325
C90	C	1.762982	-0.070573	0.897325
C91	C	1.107290	-0.552730	0.348337
C92	C	1.607290	-0.052730	0.848337
C93	C	1.252447	0.134158	0.394007
C94	C	1.752447	0.634158	0.894007
C95	C	1.351956	0.137625	0.425306
C96	C	1.851956	0.637625	0.925306
C97	C	1.136562	0.296453	0.357550
C98	C	1.636562	0.796453	0.857550
C99	C	1.169610	0.392996	0.367946
C100	C	1.669610	0.892996	0.867946
N101	N	1.083914	0.148240	0.546288
N102	N	1.583914	0.648240	1.046288
N103	N	1.099166	0.126993	0.140489
N104	N	1.599166	0.626993	0.640489
C105	C	1.123696	0.092585	0.604198
C106	C	1.623696	0.592585	1.104198
C107	C	1.120339	0.097287	0.693950
C108	C	1.620339	0.597287	1.193950
C109	C	1.077205	0.157649	0.725792
C110	C	1.577205	0.657649	1.225792
C111	C	1.037417	0.213307	0.667874
C112	C	1.537417	0.713307	1.167874
C113	C	1.040769	0.208600	0.578122
C114	C	1.540769	0.708600	1.078122
C115	C	1.062730	0.177944	0.992819
C116	C	1.562730	0.677944	1.492819
C117	C	1.059383	0.182649	1.082579
C118	C	1.559383	0.682649	1.582579
C119	C	1.142304	0.066627	1.108648
C120	C	1.642304	0.566627	1.608648
C121	C	1.145657	0.061928	1.018895
C122	C	1.645657	0.561928	1.518895
C123	C	1.105865	0.117583	0.960984
C124	C	1.605865	0.617583	1.460984
N125	N	1.073775	0.162459	0.817533
N126	N	1.573775	0.662459	1.317533
N127	N	1.109290	0.112768	0.869243
N128	N	1.609290	0.612768	1.369243
H129	H	0.514942	0.123219	0.097968
H130	H	1.014942	0.623219	0.597968
H131	H	0.957368	-0.518038	0.301161
H132	H	1.457368	-0.018038	0.801161
Cl133	Cl	0.983185	0.289189	0.707899
Cl134	Cl	1.483185	0.789189	1.207899
H135	H	0.524977	0.151214	0.622402
H136	H	1.024977	0.651214	1.122402
H137	H	0.844288	-0.419556	0.265610
H138	H	1.344288	0.080444	0.765610
Cl139	Cl	1.192321	-0.003338	1.181453
Cl140	Cl	1.692321	0.496662	1.681453
Cl141	Cl	0.836560	0.147226	0.440678
Cl142	Cl	1.336560	0.647226	0.940678
H143	H	0.813016	-0.274570	0.255773
H144	H	1.313016	0.225430	0.755773
H145	H	0.355349	0.145331	0.569051
H146	H	0.855349	0.645331	1.069051
H147	H	1.180780	0.012777	0.992972
H148	H	1.680780	0.512777	1.492972
H149	H	0.658103	0.124031	0.064362
H150	H	1.158103	0.624031	0.564362
Cl151	Cl	1.380131	-0.289060	0.434183
Cl152	Cl	1.880131	0.210940	0.934183
H153	H	0.424823	0.127642	0.212310
H154	H	0.924823	0.627642	0.712310
Cl155	Cl	1.170351	0.027318	0.766752
Cl156	Cl	1.670351	0.527318	1.266752
H157	H	1.031257	-0.582392	0.324433
H158	H	1.531257	-0.082392	0.824433
H159	H	0.668145	0.152027	0.588791
H160	H	1.168145	0.652027	1.088791
H161	H	0.365936	0.130549	0.287025
H162	H	0.865936	0.630549	0.787025
H163	H	1.024257	0.231807	1.108498
H164	H	1.524257	0.731807	1.608498
H165	H	1.030332	0.223262	0.945675
H166	H	1.530332	0.723262	1.445675
Cl167	Cl	0.849722	0.128844	0.089820
Cl168	Cl	1.349722	0.628844	0.589820
Cl169	Cl	0.990750	0.278567	0.505319
Cl170	Cl	1.490750	0.778567	1.005319
H171	H	0.869356	-0.110003	0.273484
H172	H	1.369356	0.389997	0.773484
H173	H	1.370054	-0.450186	0.431011
H174	H	1.870054	0.049814	0.931011
H175	H	0.758245	0.147598	0.474461
H176	H	1.258245	0.647598	0.974461
H177	H	1.151815	-0.142357	0.362356
H178	H	1.651815	0.357643	0.862356
H179	H	1.225709	-0.206729	0.385603
H180	H	1.725709	0.293271	0.885603
H181	H	1.313730	-0.614765	0.413288
H182	H	1.813730	-0.114765	0.913288
H183	H	1.158826	0.043435	0.578281
H184	H	1.658826	0.543435	1.078281
