data_functionalizedCrystal
_audit_creation_method	'MofGen! by Chris Wilmer'
_symmetry_space_group_name_H-M	'P1'
_symmetry_Int_Tables_number	1
_symmetry_cell_setting	triclinic
loop_
_symmetry_equiv_pos_as_xyz
  x,y,z
_cell_length_a	19.188930
_cell_length_b	10.540539
_cell_length_c	9.016244
_cell_angle_alpha	90.000067
_cell_angle_beta	90.021209
_cell_angle_gamma	83.835136
loop_
_atom_site_label
_atom_site_type_symbol
_atom_site_fract_x
_atom_site_fract_y
_atom_site_fract_z
O1	O	-0.927204	-0.158464	-0.123811
O2	O	-0.724035	-0.179797	-0.123708
O3	O	-0.830255	0.015678	-0.123760
O4	O	-0.820985	-0.353939	-0.123759
O5	O	-0.830239	0.015673	0.122921
O6	O	-0.724020	-0.179802	0.122972
O7	O	-0.927189	-0.158469	0.122870
Cu8	Cu	-0.825603	-0.169136	0.145445
Cu9	Cu	-0.825621	-0.169130	-0.146283
O10	O	-0.820969	-0.353944	0.122922
C11	C	-0.698012	-0.179108	-0.000355
C12	C	-0.620493	-0.177035	-0.000316
C13	C	-0.829552	0.062963	-0.000422
C14	C	-0.827472	0.203866	-0.000429
C15	C	-0.953212	-0.159157	-0.000487
C16	C	-1.030731	-0.161231	-0.000535
C17	C	-0.576334	-0.291733	-0.000339
C18	C	-0.503497	-0.289785	-0.000355
C19	C	-0.474823	-0.173132	-0.000378
C20	C	-0.518992	-0.058418	-0.000347
C21	C	-0.591827	-0.060370	-0.000316
N22	N	-0.366254	-0.083963	-0.084395
N23	N	-0.297063	-0.082117	-0.084427
C24	C	-0.255375	-0.167245	-0.000469
N25	N	-0.285491	-0.254307	0.083505
N26	N	-0.354688	-0.256157	0.083531
C27	C	-0.395846	-0.171003	-0.000411
C28	C	-0.132237	-0.279839	-0.000508
C29	C	-0.059400	-0.277885	-0.000515
C30	C	-0.074896	-0.046516	-0.000521
C31	C	-0.147732	-0.048472	-0.000499
C32	C	-0.176398	-0.165137	-0.000500
C33	C	-0.821672	-0.401229	-0.000420
C34	C	-0.823752	-0.542131	-0.000422
N35	N	-0.825595	-0.169139	0.350631
C36	C	-0.747771	0.385536	-0.000942
C37	C	-0.749879	0.238965	-0.000388
C38	C	-0.864804	0.266343	0.140419
C39	C	-0.862156	0.412830	0.140539
C40	C	-0.863752	0.413388	-0.139984
C41	C	-0.864467	0.266422	-0.141847
N42	N	-0.825635	-0.169117	-0.351470
C43	C	-0.768600	-0.273362	0.585692
C44	C	-0.768726	-0.273745	0.413800
C45	C	-0.898590	-0.197664	0.412933
C46	C	-0.898278	-0.198400	0.584878
C47	C	-0.810320	-0.036037	0.585184
C48	C	-0.808645	-0.036938	0.413231
H49	H	-0.599669	-0.386731	-0.000342
H50	H	-0.917959	0.462028	0.146902
C51	C	-0.487449	0.069901	-0.000374
N52	N	-0.463691	0.166554	-0.000390
C53	C	-0.941780	0.237816	0.147480
N54	N	-0.999756	0.216317	0.152802
H55	H	-0.627783	0.033035	-0.000298
C56	C	-0.695451	-0.250888	0.356899
N57	N	-0.640255	-0.233680	0.314049
H58	H	-0.467536	-0.383189	-0.000370
H59	H	-0.183688	0.044928	-0.000489
H60	H	-0.714193	-0.256708	0.627113
C61	C	-0.163773	-0.408171	-0.000489
N62	N	-0.187523	-0.504832	-0.000473
C63	C	-0.010823	-0.404070	-0.000518
N64	N	0.025765	-0.499114	-0.000517
C65	C	-0.829749	0.208030	0.282058
N66	N	-0.803341	0.164110	0.388738
H67	H	-0.051551	0.048466	-0.000632
H68	H	-0.834553	0.440419	0.245854
H69	H	-0.778570	-0.372512	0.372648
H70	H	-0.720285	0.196555	0.100774
H71	H	-0.720504	0.195716	-0.101352
H72	H	-0.778316	-0.371572	0.628879
C73	C	-0.706530	0.425393	0.134816
N74	N	-0.675472	0.455403	0.237082
C75	C	-0.939464	0.478864	-0.141309
N76	N	-0.996488	0.528188	-0.142298
H77	H	-0.838646	0.444389	-0.246739
H78	H	-0.837151	0.224963	-0.246042
C79	C	-0.861057	0.072726	0.355179
N80	N	-0.900545	0.155322	0.311467
H81	H	-0.717126	0.413463	-0.101945
C82	C	-0.940896	0.235395	-0.153373
N83	N	-0.998466	0.212031	-0.162041
C84	C	-0.916360	-0.329508	0.639029
N85	N	-0.929974	-0.428266	0.679809
H86	H	-0.851905	0.041534	0.625816
C87	C	-0.957397	-0.099732	0.641029
N88	N	-1.001932	-0.025433	0.683316
C89	C	-0.957330	-0.097803	0.357642
N90	N	-1.001572	-0.022587	0.315994
H91	H	-0.912283	-0.293600	0.369847
H92	H	-0.758216	-0.008506	0.628658
C93	C	-0.736097	-0.007682	0.358238
N94	N	-0.681453	0.014350	0.316810
