data_functionalizedCrystal
_audit_creation_method	'MofGen! by Chris Wilmer'
_symmetry_space_group_name_H-M	'P1'
_symmetry_Int_Tables_number	1
_symmetry_cell_setting	triclinic
loop_
_symmetry_equiv_pos_as_xyz
  x,y,z
_cell_length_a	10.654545
_cell_length_b	10.967829
_cell_length_c	9.730223
_cell_angle_alpha	77.867717
_cell_angle_beta	89.997167
_cell_angle_gamma	84.599203
loop_
_atom_site_label
_atom_site_type_symbol
_atom_site_fract_x
_atom_site_fract_y
_atom_site_fract_z
O1	O	1.667818	0.175250	-0.155779
O2	O	1.302336	0.191955	-0.159740
O3	O	1.493506	0.002025	-0.114750
O4	O	1.476648	0.365180	-0.200769
O5	O	1.493493	0.002020	0.113832
O6	O	1.302324	0.191950	0.068841
O7	O	1.667805	0.175245	0.072803
Zn8	Zn	1.485063	0.183597	0.107114
Zn9	Zn	1.485079	0.183604	-0.194052
O10	O	1.476636	0.365175	0.027812
C11	C	1.255532	0.190727	-0.045160
C12	C	1.116089	0.187061	-0.044294
C13	C	1.050578	0.185333	0.080715
C14	C	0.919559	0.181867	0.081536
C15	C	0.919573	0.181864	-0.167674
C16	C	1.050591	0.185321	-0.168491
C17	C	1.492272	-0.044478	0.010553
C18	C	1.488599	-0.183035	0.043363
C19	C	1.486969	-0.244799	-0.060422
C20	C	1.483173	-0.388004	-0.026513
C21	C	1.714609	0.176473	-0.041780
C22	C	1.854052	0.180139	-0.042656
C23	C	1.477870	0.411678	-0.097493
C24	C	1.481542	0.550235	-0.130313
N25	N	1.485061	0.183591	0.312652
N26	N	1.485091	0.183599	-0.399587
C27	C	1.569740	0.099526	0.404491
C28	C	1.569752	0.099527	0.548374
C29	C	1.400403	0.267669	0.508563
C30	C	1.400385	0.267661	0.364684
H31	H	1.103903	0.186750	0.181844
Br32	Br	1.480802	-0.476556	0.163440
H33	H	0.866226	0.180460	0.183331
H34	H	1.482941	-0.396629	-0.244280
Br35	Br	0.830680	0.179465	-0.336209
H36	H	1.103932	0.186725	-0.270294
H37	H	1.487178	-0.236174	0.157321
H38	H	1.331464	0.336118	0.550942
Br39	Br	1.684672	-0.014572	0.673013
H40	H	1.331423	0.336118	0.289902
H41	H	1.488377	-0.191657	-0.174380
H42	H	1.638686	0.031070	0.362131
