data_functionalizedCrystal
_audit_creation_method	'MofGen! by Chris Wilmer'
_symmetry_space_group_name_H-M	'P1'
_symmetry_Int_Tables_number	1
_symmetry_cell_setting	triclinic
loop_
_symmetry_equiv_pos_as_xyz
  x,y,z
_cell_length_a	17.699083
_cell_length_b	22.010155
_cell_length_c	17.699083
_cell_angle_alpha	89.996646
_cell_angle_beta	83.283015
_cell_angle_gamma	90.002416
loop_
_atom_site_label
_atom_site_type_symbol
_atom_site_fract_x
_atom_site_fract_y
_atom_site_fract_z
O1	O	1.004081	0.050441	0.095701
O2	O	1.504081	0.550441	0.595701
O3	O	0.783703	0.050461	0.108153
O4	O	1.283703	0.550461	0.608153
O5	O	0.900118	0.050445	-0.008262
O6	O	1.400118	0.550445	0.491738
O7	O	0.887666	0.050457	0.212116
O8	O	1.387666	0.550457	0.712116
O9	O	0.900097	-0.050605	-0.008245
O10	O	1.400097	0.449395	0.491755
O11	O	0.783682	-0.050589	0.108171
O12	O	1.283682	0.449411	0.608171
O13	O	1.004060	-0.050609	0.095718
O14	O	1.504060	0.449391	0.595718
Cu15	Cu	0.893869	-0.059826	0.101946
Cu16	Cu	1.393869	0.440174	0.601946
Cu17	Cu	0.893894	0.059678	0.101925
Cu18	Cu	1.393894	0.559678	0.601925
O19	O	0.887645	-0.050593	0.212134
O20	O	1.387645	0.449407	0.712134
C21	C	0.755495	-0.000061	0.107716
C22	C	1.255495	0.499939	0.607716
C23	C	0.671477	-0.000054	0.106377
C24	C	1.171477	0.499946	0.606377
N25	N	0.893857	-0.143878	0.101960
N26	N	1.393857	0.356122	0.601960
C27	C	0.622856	-0.000050	0.174711
C28	C	1.122856	0.499950	0.674711
C29	C	0.543913	-0.000058	0.173448
C30	C	1.043913	0.499942	0.673448
C31	C	0.513592	-0.000065	0.103852
C32	C	1.013592	0.499935	0.603852
C33	C	0.562219	-0.000071	0.035513
C34	C	1.062219	0.499929	0.535513
C35	C	0.641161	-0.000067	0.036776
C36	C	1.141161	0.499933	0.536776
C37	C	0.243856	-0.000086	0.030418
C38	C	0.743856	0.499914	0.530418
C39	C	0.164908	-0.000088	0.029160
C40	C	0.664908	0.499912	0.529160
C41	C	0.146608	-0.000077	0.167090
C42	C	0.646608	0.499923	0.667090
C43	C	0.225550	-0.000074	0.168353
C44	C	0.725550	0.499926	0.668353
C45	C	0.274170	-0.000082	0.100015
C46	C	0.774170	0.499918	0.600015
C47	C	0.359769	-0.000075	0.101384
C48	C	0.859769	0.499925	0.601384
C49	C	0.427995	-0.000069	0.102481
C50	C	0.927995	0.499931	0.602481
C51	C	0.945446	-0.563665	0.050384
C52	C	1.445446	-0.063665	0.550384
C53	C	0.945449	-0.627272	0.050379
C54	C	1.445449	-0.127272	0.550379
O55	O	0.989282	-0.660170	0.006537
O56	O	1.489282	-0.160170	0.506537
N57	N	0.893894	-0.659085	0.101910
N58	N	1.393894	-0.159085	0.601910
C59	C	0.842326	-0.627288	0.153444
C60	C	1.342326	-0.127288	0.653444
O61	O	0.798474	-0.660188	0.197274
O62	O	1.298474	-0.160188	0.697274
C63	C	0.842319	-0.563681	0.153445
C64	C	1.342319	-0.063681	0.653445
C65	C	0.893884	-0.531871	0.101916
C66	C	1.393884	-0.031871	0.601916
C67	C	0.997005	-0.531855	-0.001142
C68	C	1.497005	-0.031855	0.498858
C69	C	0.997002	-0.468252	-0.001135
C70	C	1.497002	0.031748	0.498865
C71	C	0.945440	-0.436458	0.050397
C72	C	1.445440	0.063542	0.550397
C73	C	0.893881	-0.468268	0.101922
C74	C	1.393881	0.031732	0.601922
C75	C	0.790749	-0.531884	0.204975
C76	C	1.290749	-0.031884	0.704975
C77	C	0.790746	-0.468274	0.204971
C78	C	1.290746	0.031726	0.704971
C79	C	0.842310	-0.436464	0.153442
C80	C	1.342310	0.063536	0.653442
C81	C	0.842316	-0.372872	0.153460
C82	C	1.342316	0.127128	0.653460
N83	N	0.893872	-0.341059	0.101929
N84	N	1.393872	0.158941	0.601929
C85	C	0.945434	-0.372852	0.050398
C86	C	1.445434	0.127148	0.550398
C87	C	0.842343	-0.760865	0.153437
C88	C	1.342343	-0.260865	0.653437
C89	C	0.842352	-0.824471	0.153440
C90	C	1.342352	-0.324471	0.653440
C91	C	0.945475	-0.824451	0.050374
C92	C	1.445475	-0.324451	0.550374
C93	C	0.945468	-0.760845	0.050375
C94	C	1.445468	-0.260845	0.550375
C95	C	0.893898	-0.729052	0.101906
C96	C	1.393898	-0.229052	0.601906
C97	C	0.945424	-0.239281	0.050415
C98	C	1.445424	0.260719	0.550415
C99	C	0.945419	-0.175672	0.050428
C100	C	1.445419	0.324328	0.550428
C101	C	0.842294	-0.175697	0.153491
C102	C	1.342294	0.324303	0.653491
C103	C	0.842302	-0.239300	0.153481
C104	C	1.342302	0.260700	0.653481
C105	C	0.893870	-0.271090	0.101937
C106	C	1.393870	0.228910	0.601937
O107	O	0.798504	-0.339934	0.197278
O108	O	1.298504	0.160066	0.697278
O109	O	0.989272	-0.339944	0.006568
O110	O	1.489272	0.160056	0.506568
C111	C	1.032268	-0.000085	0.096156
C112	C	1.532268	0.499915	0.596156
C113	C	1.116286	-0.000089	0.097494
C114	C	1.616286	0.499911	0.597494
C115	C	0.899662	-0.000080	-0.036451
C116	C	1.399662	0.499920	0.463549
C117	C	0.898323	-0.000080	-0.120469
C118	C	1.398323	0.499920	0.379531
N119	N	0.893912	0.143730	0.101905
N120	N	1.393912	0.643730	0.601905
C121	C	0.966656	-0.000087	-0.169090
C122	C	1.466656	0.499913	0.330910
C123	C	0.965394	-0.000082	-0.248033
C124	C	1.465394	0.499918	0.251967
C125	C	0.895798	-0.000073	-0.278354
C126	C	1.395798	0.499927	0.221646
C127	C	0.827459	-0.000065	-0.229727
C128	C	1.327459	0.499935	0.270273
C129	C	0.828722	-0.000066	-0.150785
C130	C	1.328722	0.499934	0.349215
C131	C	0.822364	-0.000059	-0.548090
C132	C	1.322364	0.499941	-0.048090
C133	C	0.821106	-0.000060	-0.627038
C134	C	1.321106	0.499940	-0.127038
C135	C	0.959036	-0.000075	-0.645338
C136	C	1.459036	0.499925	-0.145338
C137	C	0.960299	-0.000076	-0.566396
C138	C	1.460299	0.499924	-0.066396
C139	C	0.891961	-0.000064	-0.517776
C140	C	1.391961	0.499936	-0.017776
C141	C	0.893330	-0.000069	-0.432177
C142	C	1.393330	0.499931	0.067823
C143	C	0.894427	-0.000073	-0.363951
C144	C	1.394427	0.499927	0.136049
C145	C	0.888102	-0.000067	0.240322
C146	C	1.388102	0.499933	0.740322
C147	C	0.889440	-0.000063	0.324340
C148	C	1.389440	0.499937	0.824340
H149	H	0.647537	-0.000044	0.231384
H150	H	1.147537	0.499956	0.731384
H151	H	0.504328	-0.000055	0.229092
H152	H	1.004328	0.499945	0.729092
H153	H	1.038988	-0.442356	-0.043097
H154	H	1.538988	0.057644	0.456903
H155	H	0.800321	-0.265200	0.195448
H156	H	1.300321	0.234800	0.695448
H157	H	0.770792	-0.000054	-0.254420
H158	H	1.270792	0.499946	0.245580
N159	N	0.786681	-0.141395	0.209064
N160	N	1.286681	0.358605	0.709064
H161	H	0.732986	-0.152466	0.200408
H162	H	1.232986	0.347534	0.700408
H163	H	0.795353	-0.152475	0.262750
H164	H	1.295353	0.347525	0.762750
H165	H	1.021038	-0.000089	-0.287617
H166	H	1.521038	0.499911	0.212383
N167	N	0.296282	-0.000096	-0.043292
N168	N	0.796282	0.499904	0.456708
H169	H	0.286544	0.037361	-0.073668
H170	H	0.786544	0.537361	0.426332
H171	H	0.350873	-0.000119	-0.031881
H172	H	0.850873	0.499881	0.468119
H173	H	0.250232	-0.000065	0.225025
H174	H	0.750232	0.499935	0.725025
N175	N	1.001039	-0.141363	-0.005149
N176	N	1.501039	0.358637	0.494851
H177	H	1.033701	-0.171159	-0.037795
H178	H	1.533701	0.328841	0.462205
H179	H	0.972129	-0.114970	-0.038573
H180	H	1.472129	0.385030	0.461427
H181	H	1.014680	-0.000082	-0.684934
H182	H	1.514680	0.499918	-0.184934
H183	H	0.680748	-0.000070	-0.018868
H184	H	1.180748	0.499930	0.481132
N185	N	0.748658	-0.000049	-0.495658
N186	N	1.248658	0.499951	0.004342
H187	H	0.760013	-0.000046	-0.441047
H188	H	1.260013	0.499954	0.058953
H189	H	0.718335	0.037417	-0.505471
H190	H	1.218335	0.537417	-0.005471
H191	H	1.038993	-0.557736	-0.043108
H192	H	1.538993	-0.057736	0.456892
H193	H	0.987456	-0.734949	0.008415
H194	H	1.487456	-0.234949	0.508415
N195	N	0.746038	-0.000054	-0.659743
N196	N	1.246038	0.499946	-0.159743
H197	H	0.702937	-0.000047	-0.616964
H198	H	1.202937	0.499953	-0.116964
H199	H	0.742522	0.037405	-0.692106
H200	H	1.242522	0.537405	-0.192106
H201	H	0.748749	-0.442391	0.246933
H202	H	1.248749	0.057609	0.746933
N203	N	0.755020	-0.000054	-0.098340
N204	N	1.255020	0.499946	0.401660
H205	H	0.710739	-0.000050	-0.129525
H206	H	1.210739	0.499950	0.370475
H207	H	0.752530	-0.037514	-0.065182
H208	H	1.252530	0.462486	0.434818
H209	H	0.537526	-0.000085	-0.021154
H210	H	1.037526	0.499915	0.478846
H211	H	0.987415	-0.265157	0.008442
H212	H	1.487415	0.234843	0.508442
H213	H	1.023330	-0.000098	-0.144409
H214	H	1.523330	0.499902	0.355591
N215	N	0.132211	-0.000104	-0.045912
N216	N	0.632211	0.499896	0.454088
H217	H	0.099863	-0.037565	-0.049495
H218	H	0.599863	0.462435	0.450505
H219	H	0.099906	0.037379	-0.049479
H220	H	0.599906	0.537379	0.450521
H221	H	0.107012	-0.000074	0.222734
H222	H	0.607012	0.499926	0.722734
N223	N	1.001091	-0.858749	-0.005209
N224	N	1.501091	-0.358749	0.494791
H225	H	0.993264	-0.903869	0.002612
H226	H	1.493264	-0.403869	0.502612
H227	H	0.992448	-0.847630	-0.058892
H228	H	1.492448	-0.347630	0.441108
N229	N	0.786741	-0.858776	0.209022
N230	N	1.286741	-0.358776	0.709022
H231	H	0.754078	-0.828978	0.241663
H232	H	1.254078	-0.328978	0.741663
H233	H	0.753338	-0.885163	0.180082
H234	H	1.253338	-0.385163	0.680082
H235	H	0.800350	-0.734983	0.195406
H236	H	1.300350	-0.234983	0.695406
H237	H	1.016971	-0.000086	-0.541714
H238	H	1.516971	0.499914	-0.041714
H239	H	0.748760	-0.557775	0.246934
H240	H	1.248760	-0.057775	0.746934
