data_functionalizedCrystal
_audit_creation_method	'MofGen! by Chris Wilmer'
_symmetry_space_group_name_H-M	'P1'
_symmetry_Int_Tables_number	1
_symmetry_cell_setting	triclinic
loop_
_symmetry_equiv_pos_as_xyz
  x,y,z
_cell_length_a	13.897448
_cell_length_b	13.032831
_cell_length_c	13.033109
_cell_angle_alpha	103.334486
_cell_angle_beta	97.153140
_cell_angle_gamma	97.177601
loop_
_atom_site_label
_atom_site_type_symbol
_atom_site_fract_x
_atom_site_fract_y
_atom_site_fract_z
Zn1	Zn	-0.678106	-1.700113	-0.806401
Zn2	Zn	-0.344772	-1.366780	-0.473068
Zn3	Zn	-0.011439	-1.033446	-0.139734
Zn4	Zn	-0.815943	-1.677445	-0.628782
Zn5	Zn	-0.482610	-1.344112	-0.295449
Zn6	Zn	-0.149277	-1.010778	0.037884
Zn7	Zn	-0.631189	-1.499937	-0.606295
Zn8	Zn	-0.297856	-1.166604	-0.272961
Zn9	Zn	0.035477	-0.833271	0.060372
Zn10	Zn	-0.815858	-1.522460	-0.783826
Zn11	Zn	-0.482525	-1.189126	-0.450493
Zn12	Zn	-0.149192	-0.855793	-0.117160
O13	O	-0.735274	-1.599989	-0.706326
O14	O	-0.401941	-1.266655	-0.372993
O15	O	-0.068608	-0.933322	-0.039659
O16	O	-0.716060	-1.845742	-0.801698
O17	O	-0.382727	-1.512409	-0.468365
O18	O	-0.049394	-1.179076	-0.135031
O19	O	-0.771836	-1.634986	-0.477168
O20	O	-0.438503	-1.301652	-0.143834
O21	O	-0.105170	-0.968319	0.189499
O22	O	-0.502443	-1.526552	-0.632875
O23	O	-0.169109	-1.193219	-0.299542
O24	O	0.164224	-0.859885	0.033791
O25	O	-0.817329	-1.829088	-0.671203
O26	O	-0.483996	-1.495755	-0.337869
O27	O	-0.150663	-1.162421	-0.004536
O28	O	-0.536912	-1.673620	-0.779893
O29	O	-0.203579	-1.340287	-0.446559
O30	O	0.129755	-1.006954	-0.113226
O31	O	-0.636098	-1.504572	-0.460646
O32	O	-0.302765	-1.171238	-0.127313
O33	O	0.030569	-0.837905	0.206021
O34	O	-0.636016	-1.354289	-0.610986
O35	O	-0.302682	-1.020955	-0.277653
O36	O	0.030651	-0.687622	0.055681
O37	O	-0.817184	-1.564938	-0.935453
O38	O	-0.483851	-1.231605	-0.602119
O39	O	-0.150518	-0.898272	-0.268786
O40	O	-0.771691	-1.370836	-0.741418
O41	O	-0.438358	-1.037503	-0.408084
O42	O	-0.105025	-0.704169	-0.074751
O43	O	-0.715978	-1.695459	-0.952038
O44	O	-0.382645	-1.362126	-0.618705
O45	O	-0.049311	-1.028793	-0.285371
O46	O	-0.950902	-1.656825	-0.649313
O47	O	-0.617569	-1.323491	-0.315980
O48	O	-0.284236	-0.990158	0.017354
O49	O	-0.950840	-1.542958	-0.763223
O50	O	-0.617507	-1.209625	-0.429890
O51	O	-0.284173	-0.876291	-0.096557
C52	C	-0.698754	-1.324023	-0.671313
C53	C	-0.365421	-0.990689	-0.337979
C54	C	-0.032087	-0.657356	-0.004646
C55	C	-0.683157	-1.205967	-0.656359
C56	C	-0.349824	-0.872633	-0.323026
C57	C	-0.016490	-0.539300	0.010308
C58	C	-0.985874	-1.599907	-0.706286
C59	C	-0.652541	-1.266574	-0.372952
C60	C	-0.319208	-0.933241	-0.039619
C61	C	-1.093100	-1.599974	-0.706316
C62	C	-0.759766	-1.266641	-0.372983
C63	C	-0.426433	-0.933308	-0.039649
C64	C	-0.771805	-1.635240	-0.983361
C65	C	-0.438472	-1.301906	-0.650028
C66	C	-0.105139	-0.968573	-0.316695
C67	C	-0.787373	-1.650262	-1.101417
C68	C	-0.454039	-1.316928	-0.768084
C69	C	-0.120706	-0.983595	-0.434751
C70	C	-1.289418	-1.600094	-0.706397
C71	C	-0.956085	-1.266761	-0.373063
C72	C	-0.622751	-0.933427	-0.039730
C73	C	-1.180173	-1.600025	-0.706355
C74	C	-0.846839	-1.266692	-0.373021
C75	C	-0.513506	-0.933358	-0.039688
C76	C	-0.483702	-1.600102	-0.706394
C77	C	-0.150369	-1.266769	-0.373060
C78	C	0.182964	-0.933436	-0.039727
C79	C	-0.376498	-1.600151	-0.706423
C80	C	-0.043164	-1.266817	-0.373089
C81	C	0.290169	-0.933484	-0.039756
C82	C	-0.771938	-1.877032	-0.741477
C83	C	-0.438604	-1.543699	-0.408144
C84	C	-0.105271	-1.210366	-0.074810
C85	C	-0.787562	-1.995092	-0.756456
C86	C	-0.454228	-1.661759	-0.423123
C87	C	-0.120895	-1.328425	-0.089789
C88	C	-0.743414	-1.161536	-0.714130
C89	C	-0.410081	-0.828203	-0.380797
C90	C	-0.076748	-0.494869	-0.047464
C91	C	-0.727296	-1.039519	-0.698676
C92	C	-0.393962	-0.706185	-0.365343
C93	C	-0.060629	-0.372852	-0.032010
C94	C	-0.727152	-1.592433	-1.145876
C95	C	-0.393819	-1.259099	-0.812542
C96	C	-0.060486	-0.925766	-0.479209
C97	C	-0.743241	-1.607957	-1.267892
C98	C	-0.409907	-1.274624	-0.934559
C99	C	-0.076574	-0.941290	-0.601226
C100	C	-0.698824	-1.564936	-0.430376
C101	C	-0.365490	-1.231603	-0.097043
C102	C	-0.032157	-0.898269	0.236290
C103	C	-0.683012	-1.550120	-0.312347
C104	C	-0.349679	-1.216787	0.020986
C105	C	-0.016345	-0.883453	0.354319
H106	H	-0.663766	-0.987229	-0.637775
H107	H	-0.330433	-0.653895	-0.304442
H108	H	0.002900	-0.320562	0.028891
O109	O	-0.871710	-1.064341	-0.837141
O110	O	-0.538376	-0.731008	-0.503808
O111	O	-0.205043	-0.397675	-0.170475
H112	H	-0.871170	-1.149311	-0.836618
H113	H	-0.537836	-0.815978	-0.503285
H114	H	-0.204503	-0.482644	-0.169951
H115	H	-0.619632	-1.153673	-0.595462
H116	H	-0.286299	-0.820340	-0.262129
H117	H	0.047034	-0.487006	0.071205
H118	H	-0.806933	-1.213830	-0.775036
H119	H	-0.473600	-0.880497	-0.441702
H120	H	-0.140266	-0.547164	-0.108369
H121	H	-0.663689	-1.531426	-1.093605
H122	H	-0.330355	-1.198092	-0.760272
H123	H	0.002978	-0.864759	-0.426938
O124	O	-0.827317	-1.688774	-1.337112
O125	O	-0.493984	-1.355440	-1.003779
O126	O	-0.160651	-1.022107	-0.670445
H127	H	-0.826756	-1.688292	-1.422087
H128	H	-0.493422	-1.354958	-1.088753
H129	H	-0.160089	-1.021625	-0.755420
O130	O	-0.598929	-1.469309	-1.243131
O131	O	-0.265596	-1.135976	-0.909797
O132	O	0.067737	-0.802643	-0.576464
H133	H	-0.599480	-1.469801	-1.158157
H134	H	-0.266146	-1.136468	-0.824823
H135	H	0.067187	-0.803135	-0.491490
H136	H	-0.850840	-1.711263	-1.153687
H137	H	-0.517507	-1.377930	-0.820354
H138	H	-0.184174	-1.044597	-0.487020
