data_functionalizedCrystal
_audit_creation_method	'MofGen! by Chris Wilmer'
_symmetry_space_group_name_H-M	'P1'
_symmetry_Int_Tables_number	1
_symmetry_cell_setting	triclinic
loop_
_symmetry_equiv_pos_as_xyz
  x,y,z
_cell_length_a	23.532407
_cell_length_b	23.532357
_cell_length_c	9.130307
_cell_angle_alpha	89.991197
_cell_angle_beta	90.003827
_cell_angle_gamma	82.838485
loop_
_atom_site_label
_atom_site_type_symbol
_atom_site_fract_x
_atom_site_fract_y
_atom_site_fract_z
O1	O	0.755245	0.069136	-0.121634
O2	O	0.589380	0.079139	-0.121680
O3	O	0.677329	-0.008796	-0.121625
O4	O	0.667296	0.157071	-0.121688
O5	O	0.677326	-0.008797	0.121974
O6	O	0.589377	0.079138	0.121919
O7	O	0.755242	0.069135	0.121965
Cu8	Cu	0.672309	0.074136	0.144185
Cu9	Cu	0.672312	0.074137	-0.143899
O10	O	0.667293	0.157070	0.121911
C11	C	0.568162	0.078884	0.000115
C12	C	0.504945	0.078118	0.000099
C13	C	0.677076	-0.030013	0.000179
C14	C	0.676322	-0.093232	0.000192
C15	C	0.105834	0.125353	0.000147
C16	C	0.046434	0.124641	0.000156
O17	O	0.009681	0.168428	0.000193
N18	N	0.023817	0.072364	0.000174
C19	C	0.060604	0.020794	0.000197
O20	O	0.035912	-0.023737	0.000214
C21	C	0.120003	0.021506	0.000198
C22	C	0.142616	0.073787	0.000166
C23	C	0.128448	0.177629	0.000116
C24	C	0.187844	0.178341	0.000104
C25	C	0.224626	0.126775	0.000123
C26	C	0.202012	0.074498	0.000154
C27	C	0.156788	-0.030063	0.000231
C28	C	0.216191	-0.029346	0.000234
C29	C	0.238804	0.022935	0.000202
C30	C	0.298190	0.023644	0.000160
N31	N	0.320807	0.075922	0.000143
C32	C	0.284025	0.127487	0.000124
C33	C	-0.064139	0.019303	0.000197
C34	C	-0.123536	0.018590	0.000185
C35	C	-0.137702	0.122437	0.000147
C36	C	-0.078303	0.123149	0.000148
C37	C	-0.041522	0.071580	0.000179
C38	C	0.408761	0.128977	0.000098
C39	C	0.468163	0.129684	0.000080
C40	C	0.482324	0.025836	0.000125
C41	C	0.422927	0.025130	0.000136
C42	C	0.386147	0.076704	0.000127
O43	O	0.334977	-0.020120	0.000130
O44	O	0.308725	0.172011	0.000127
C45	C	0.671587	-0.485243	-0.132674
C46	C	0.670869	-0.544642	-0.132683
O47	O	0.670480	-0.575358	-0.245612
N48	N	0.670512	-0.574354	0.000101
C49	C	0.670866	-0.544662	0.132902
O50	O	0.670496	-0.575389	0.245845
C51	C	0.671580	-0.485263	0.132909
C52	C	0.671943	-0.455556	0.000117
C53	C	0.671949	-0.455535	-0.265456
C54	C	0.672667	-0.396140	-0.265447
C55	C	0.673023	-0.366452	-0.132656
C56	C	0.672661	-0.396160	0.000126
C57	C	0.671930	-0.455572	0.265709
C58	C	0.672642	-0.396169	0.265705
C59	C	0.673005	-0.366461	0.132912
C60	C	0.673735	-0.307078	0.132926
N61	N	0.674092	-0.277366	0.000142
C62	C	0.673736	-0.307054	-0.132649
C63	C	0.669368	-0.669404	0.132878
C64	C	0.668659	-0.728802	0.132872
C65	C	0.668661	-0.728778	-0.132713
C66	C	0.669374	-0.669379	-0.132706
C67	C	0.669725	-0.639692	0.000094
C68	C	0.675245	-0.182319	-0.132620
C69	C	0.675966	-0.122919	-0.132599
C70	C	0.675961	-0.122948	0.132986
C71	C	0.675243	-0.182344	0.132966
C72	C	0.674883	-0.212027	0.000151
O73	O	0.674122	-0.276324	0.245798
O74	O	0.674099	-0.276319	-0.245572
C75	C	0.776459	0.069390	0.000168
C76	C	0.839676	0.070156	0.000174
C77	C	0.667545	0.178287	0.000103
C78	C	0.668300	0.241506	0.000080
N79	N	0.672311	0.074135	0.346807
N80	N	0.672315	0.074134	-0.346522
C81	C	0.750221	-0.003709	0.346846
C82	C	0.789180	-0.042630	0.423531
C83	C	0.789186	-0.042631	0.576865
C84	C	0.750227	-0.003707	0.653516
C85	C	0.711268	0.035214	0.576830
C86	C	0.711268	0.035211	0.423493
C87	C	0.633356	0.113055	0.576792
C88	C	0.633352	0.113059	0.423459
C89	C	0.594398	0.151978	0.653443
C90	C	0.555441	0.190902	0.576758
C91	C	0.555437	0.190902	0.423415
C92	C	0.594394	0.151980	0.346773
H93	H	0.486571	0.172259	0.000053
H94	H	0.206249	0.220913	0.000078
H95	H	0.669655	-0.645237	0.241026
H96	H	0.674949	-0.206481	-0.240770
O97	O	0.672892	-0.367322	-0.394522
C98	C	0.623382	-0.375155	-0.475231
H99	H	0.588726	-0.386764	-0.397454
H100	H	0.634113	-0.411179	-0.557951
C101	C	0.644181	-0.305107	-0.652240
C102	C	0.601614	-0.319361	-0.556712
H103	H	0.630754	-0.270692	-0.702508
H104	H	0.677538	-0.299831	-0.597869
H105	H	0.653120	-0.335131	-0.721160
H106	H	0.592681	-0.289339	-0.487783
H107	H	0.568255	-0.324630	-0.611074
O108	O	0.827113	-0.080414	0.349269
C109	C	0.883423	-0.071409	0.386759
H110	H	0.883200	-0.049442	0.498069
H111	H	0.900868	-0.043149	0.300452
C112	C	0.921941	-0.156398	0.257226
C113	C	0.921668	-0.129423	0.393944
H114	H	0.945533	-0.192183	0.261652
H115	H	0.884005	-0.162464	0.231962
H116	H	0.936477	-0.132842	0.185317
H117	H	0.907125	-0.152975	0.465846
H118	H	0.959602	-0.123361	0.419220
H119	H	0.523721	0.222589	0.639177
H120	H	-0.059896	0.165721	0.000130
H121	H	0.820907	-0.074325	0.639302
O122	O	0.092803	0.227777	0.000028
C123	C	0.125513	0.274063	0.000041
H124	H	0.169930	0.259337	-0.046061
H125	H	0.129655	0.290106	0.116898
C126	C	0.041094	0.340929	-0.038903
C127	C	0.095646	0.322844	-0.095537
H128	H	0.022671	0.371020	-0.097853
H129	H	0.019057	0.309746	-0.038906
H130	H	0.044554	0.354294	0.058478
H131	H	0.092186	0.309472	-0.192908
H132	H	0.117683	0.354026	-0.095553
H133	H	-0.167662	0.164425	0.000139
O134	O	-0.145404	-0.032246	0.000264
C135	C	-0.100195	-0.077602	0.000237
H136	H	-0.059931	-0.061868	0.046342
H137	H	-0.091704	-0.093490	-0.116625
C138	C	-0.166126	-0.146264	0.039162
C139	C	-0.116674	-0.126940	0.095801
H140	H	-0.176291	-0.176699	0.098104
H141	H	-0.196585	-0.115707	0.039174
H142	H	-0.159044	-0.159499	-0.058222
H143	H	-0.123759	-0.113699	0.193176
H144	H	-0.086216	-0.157496	0.095807
O145	O	-0.028353	-0.030758	0.000007
C146	C	0.006414	-0.033461	-0.126177
H147	H	0.009167	0.011727	-0.168247
H148	H	-0.012990	-0.059352	-0.214513
C149	C	0.063505	-0.117981	-0.036181
C150	C	0.066890	-0.062480	-0.087846
H151	H	0.100809	-0.135884	-0.012541
H152	H	0.040081	-0.116162	0.048829
H153	H	0.047333	-0.139550	-0.109804
H154	H	0.083056	-0.040911	-0.014218
H155	H	0.090319	-0.064297	-0.172843
H156	H	0.138388	-0.072635	0.000259
H157	H	0.668372	-0.752986	0.241005
O158	O	0.400891	-0.025620	0.000351
C159	C	0.366980	-0.029147	0.126548
H160	H	0.351931	0.015827	0.168592
H161	H	0.393378	-0.054493	0.214893
C162	C	0.333091	-0.114751	0.036624
C163	C	0.314603	-0.059513	0.088256
H164	H	0.300783	-0.133484	0.013007
H165	H	0.355939	-0.112377	-0.048396
H166	H	0.355089	-0.135866	0.110254
H167	H	0.292611	-0.038397	0.014620
H168	H	0.291750	-0.061885	0.173263
O169	O	0.518141	-0.024200	0.000213
C170	C	0.575415	-0.012354	0.000168
H171	H	0.577433	0.032369	0.046254
H172	H	0.592604	-0.014617	-0.116697
C173	C	0.609551	-0.111704	0.039128
C174	C	0.612031	-0.056775	0.095743
H175	H	0.632138	-0.139106	0.098077
H176	H	0.570964	-0.119685	0.039153
H177	H	0.623874	-0.113581	-0.058258
H178	H	0.597700	-0.054897	0.193121
H179	H	0.650616	-0.048795	0.095737
H180	H	0.671635	-0.479750	0.373843
O181	O	0.676290	-0.094146	-0.261731
C182	C	0.675834	-0.133093	-0.378932
H183	H	0.657289	-0.172973	-0.340006
H184	H	0.721455	-0.145647	-0.419750
C185	C	0.661539	-0.055821	-0.552210
C186	C	0.638757	-0.104802	-0.504404
H187	H	0.638671	-0.038370	-0.629611
H188	H	0.661848	-0.029582	-0.473251
H189	H	0.699556	-0.066291	-0.586215
H190	H	0.600745	-0.094331	-0.470384
H191	H	0.638441	-0.131039	-0.583361
O192	O	0.373119	0.179128	0.000014
C193	C	0.405827	0.225415	0.000018
H194	H	0.450242	0.210692	-0.046093
H195	H	0.409972	0.241459	0.116874
C196	C	0.321405	0.292278	-0.038910
C197	C	0.375955	0.274195	-0.095556
H198	H	0.302978	0.322369	-0.097858
H199	H	0.299368	0.261094	-0.038907
H200	H	0.324867	0.305644	0.058469
H201	H	0.372492	0.260823	-0.192925
H202	H	0.397990	0.305378	-0.095577
O203	O	0.669696	-0.640607	-0.261831
C204	C	0.669246	-0.679557	-0.379026
H205	H	0.650706	-0.719440	-0.340095
H206	H	0.714867	-0.692107	-0.419841
C207	C	0.654942	-0.602290	-0.552316
C208	C	0.632166	-0.651273	-0.504503
H209	H	0.632072	-0.584843	-0.629719
H210	H	0.655247	-0.576049	-0.473360
H211	H	0.692959	-0.612756	-0.586318
H212	H	0.594153	-0.640806	-0.470485
H213	H	0.631854	-0.677513	-0.583456
O214	O	0.594397	0.152084	0.802390
C215	C	0.605660	0.206088	0.853588
H216	H	0.593786	0.239699	0.765205
H217	H	0.653127	0.204353	0.880798
C218	C	0.584468	0.180734	1.100702
C219	C	0.569879	0.222017	0.992153
H220	H	0.562398	0.190560	1.186180
H221	H	0.576881	0.144350	1.066211
H222	H	0.624024	0.179293	1.123359
H223	H	0.530325	0.223453	0.969486
H224	H	0.577458	0.258402	1.026644
O225	O	0.517570	0.228766	0.349154
C226	C	0.483179	0.263106	0.449694
H227	H	0.506526	0.263631	0.558996
H228	H	0.440986	0.244820	0.466007
C229	C	0.442393	0.323961	0.255589
C230	C	0.471071	0.324611	0.389832
H231	H	0.434922	0.361900	0.218662
H232	H	0.465561	0.300825	0.187851
H233	H	0.407236	0.308721	0.269201
H234	H	0.506231	0.339844	0.376215
H235	H	0.447909	0.347751	0.457566
H236	H	0.594396	0.151977	0.221921
H237	H	0.246136	-0.071341	0.000260
H238	H	0.671657	-0.479700	-0.373596
H239	H	0.674953	-0.206534	0.241096
H240	H	0.668369	-0.752960	-0.240839
H241	H	0.672920	-0.372000	0.373849
H242	H	0.676253	-0.098766	0.241101
H243	H	0.750225	-0.003708	0.221993
H244	H	0.750230	-0.003715	0.778368
