data_functionalizedCrystal
_audit_creation_method	'MofGen! by Chris Wilmer'
_symmetry_space_group_name_H-M	'P1'
_symmetry_Int_Tables_number	1
_symmetry_cell_setting	triclinic
loop_
_symmetry_equiv_pos_as_xyz
  x,y,z
_cell_length_a	26.455835
_cell_length_b	26.455273
_cell_length_c	26.451828
_cell_angle_alpha	60.005170
_cell_angle_beta	60.010757
_cell_angle_gamma	59.993435
loop_
_atom_site_label
_atom_site_type_symbol
_atom_site_fract_x
_atom_site_fract_y
_atom_site_fract_z
O1	O	0.069940	-0.738516	0.617604
O2	O	0.569940	-0.238516	1.117604
O3	O	0.026299	-0.574986	0.497618
O4	O	0.526299	-0.074986	0.997618
O5	O	0.129847	-0.678463	0.497546
O6	O	0.629847	-0.178463	0.997546
O7	O	-0.033607	-0.635040	0.617676
O8	O	0.466393	-0.135040	1.117676
O9	O	0.164197	-0.644116	0.531822
O10	O	0.664197	-0.144116	1.031822
O11	O	0.060649	-0.540639	0.531894
O12	O	0.560649	-0.040639	1.031894
O13	O	0.104290	-0.704170	0.651880
O14	O	0.604290	-0.204170	1.151880
Cu15	Cu	0.085606	-0.619268	0.595016
Cu16	Cu	0.585606	-0.119268	1.095016
Cu17	Cu	0.044984	-0.659887	0.554481
Cu18	Cu	0.544984	-0.159887	1.054481
O19	O	0.000742	-0.600693	0.651952
O20	O	0.500742	-0.100693	1.151952
N21	N	0.114179	-0.590703	0.623530
N22	N	0.614179	-0.090703	1.123530
N23	N	0.016416	-0.688458	0.525968
N24	N	0.516416	-0.188458	1.025968
C25	C	0.157553	-0.547535	0.933368
C26	C	0.657553	-0.047535	1.433368
C27	C	0.424104	-0.547506	0.666656
C28	C	0.924104	-0.047506	1.166656
C29	C	0.157413	-0.547503	0.666729
C30	C	0.657413	-0.047503	1.166729
C31	C	0.157397	-0.280846	0.666749
C32	C	0.657397	0.219154	1.166749
C33	C	0.200330	-0.409550	0.709625
C34	C	0.700330	0.090450	1.209625
C35	C	0.200339	-0.504608	0.709615
C36	C	0.700339	-0.004608	1.209615
C37	C	0.224118	-0.480848	0.733375
C38	C	0.724118	0.019152	1.233375
C39	C	0.327800	-0.462984	0.678792
C40	C	0.827800	0.037016	1.178792
C41	C	0.392611	-0.484588	0.657175
C42	C	0.892611	0.015412	1.157175
C43	C	0.392630	-0.589450	0.697162
C44	C	0.892630	-0.089450	1.197162
C45	C	0.327821	-0.567844	0.718781
C46	C	0.827821	-0.067844	1.218781
C47	C	0.215955	-0.377135	0.645910
C48	C	0.715955	0.122865	1.145910
C49	C	0.194327	-0.312320	0.624323
C50	C	0.694327	0.187680	1.124323
C51	C	0.141457	-0.312339	0.730169
C52	C	0.641457	0.187661	1.230169
C53	C	0.163084	-0.377154	0.751756
C54	C	0.663084	0.122846	1.251756
C55	C	0.136618	-0.488954	0.725292
C56	C	0.636618	0.011046	1.225292
C57	C	0.115007	-0.510553	0.703686
C58	C	0.615007	-0.010553	1.203686
C59	C	0.220833	-0.563461	0.650740
C60	C	0.720833	-0.063461	1.150740
C61	C	0.242447	-0.541861	0.672339
C62	C	0.742447	-0.041861	1.172339
C63	C	0.136680	-0.488971	0.837094
C64	C	0.636680	0.011029	1.337094
C65	C	0.115112	-0.510589	0.901907
C66	C	0.615112	-0.010589	1.401907
C67	C	0.220969	-0.563508	0.901868
C68	C	0.720969	-0.063508	1.401868
C69	C	0.242535	-0.541892	0.837053
C70	C	0.742535	-0.041892	1.337053
C71	C	0.200389	-0.504622	0.804668
C72	C	0.700389	-0.004622	1.304668
C73	C	0.295409	-0.504610	0.709593
C74	C	0.795409	-0.004610	1.209593
C75	C	0.132990	-0.570876	1.004655
C76	C	0.632990	-0.070876	1.504655
C77	C	0.495389	-0.570440	0.642547
C78	C	0.995389	-0.070440	1.142547
C79	C	0.132802	-0.570856	0.643399
C80	C	0.632802	-0.070856	1.143399
C81	C	0.133212	-0.209553	0.643833
C82	C	0.633212	0.290447	1.143833
C83	C	-0.097217	-0.706972	0.506986
C84	C	0.402783	-0.206972	1.006986
C85	C	-0.002040	-0.707108	0.412067
C86	C	0.497960	-0.207108	0.912067
C87	C	-0.002230	-0.802124	0.507163
C88	C	0.497770	-0.302124	1.007163
C89	C	-0.002214	-0.707101	0.507221
C90	C	0.497786	-0.207101	1.007221
C91	C	-0.025925	-0.730827	0.483360
C92	C	0.474075	-0.230827	0.983360
N93	N	0.553723	-0.590712	0.623415
N94	N	1.053723	-0.090712	1.123415
O95	O	0.751638	-0.596429	0.475603
O96	O	1.251638	-0.096429	0.975603
O97	O	0.751819	-0.716773	0.638980
O98	O	1.251819	-0.216773	1.138980
O99	O	0.751753	-0.716500	0.535361
O100	O	1.251753	-0.216500	1.035361
O101	O	0.751705	-0.596703	0.579222
O102	O	1.251705	-0.096703	1.079222
O103	O	0.648791	-0.682239	0.569747
O104	O	1.148791	-0.182239	1.069747
O105	O	0.648858	-0.682512	0.673366
O106	O	1.148858	-0.182512	1.173366
O107	O	0.648676	-0.562169	0.509989
O108	O	1.148676	-0.062169	1.009989
Cu109	Cu	0.639366	-0.619212	0.594817
Cu110	Cu	1.139366	-0.119212	1.094817
Cu111	Cu	0.761130	-0.659729	0.554152
Cu112	Cu	1.261130	-0.159729	1.054152
O113	O	0.648743	-0.562442	0.613609
O114	O	1.148743	-0.062442	1.113609
N115	N	0.846773	-0.688230	0.525548
N116	N	1.346773	-0.188230	1.025548
N117	N	0.114157	-0.151217	0.623565
N118	N	0.614157	0.348783	1.123565
O119	O	-0.033591	0.046803	0.617717
O120	O	0.466409	0.546803	1.117717
O121	O	0.129795	0.046806	0.497390
O122	O	0.629795	0.546806	0.997390
O123	O	0.026157	0.046789	0.497680
O124	O	0.526157	0.546789	0.997680
O125	O	0.070046	0.046819	0.617427
O126	O	0.570046	0.546819	1.117427
O127	O	0.060509	-0.056181	0.532004
O128	O	0.560509	0.443819	1.032004
O129	O	0.164146	-0.056164	0.531714
O130	O	0.664146	0.443836	1.031714
O131	O	0.000760	-0.056167	0.652041
O132	O	0.500760	0.443833	1.152041
Cu133	Cu	0.085590	-0.065568	0.595012
Cu134	Cu	0.585590	0.434432	1.095012
Cu135	Cu	0.044965	0.056206	0.554419
Cu136	Cu	0.544965	0.556206	1.054419
O137	O	0.104397	-0.056151	0.651751
O138	O	0.604397	0.443849	1.151751
N139	N	0.016390	0.141855	0.525867
N140	N	0.516390	0.641855	1.025867
N141	N	0.114410	-0.590756	1.062992
N142	N	0.614410	-0.090756	1.562992
O143	O	0.108565	-0.738494	1.260998
O144	O	0.608565	-0.238494	1.760998
O145	O	-0.011747	-0.575059	1.261012
O146	O	0.488253	-0.075059	1.761012
O147	O	-0.011470	-0.678679	1.260970
O148	O	0.488530	-0.178679	1.760970
O149	O	0.108287	-0.634874	1.261040
O150	O	0.608287	-0.134874	1.761040
O151	O	0.022849	-0.644347	1.158004
O152	O	0.522849	-0.144347	1.658004
O153	O	0.022572	-0.540726	1.158046
O154	O	0.522572	-0.040726	1.658046
O155	O	0.142884	-0.704162	1.158033
O156	O	0.642884	-0.204162	1.658033
Cu157	Cu	0.085861	-0.619309	1.148638
Cu158	Cu	0.585861	-0.119309	1.648638
Cu159	Cu	0.045275	-0.659911	1.270406
Cu160	Cu	0.545275	-0.159911	1.770406
O161	O	0.142606	-0.600541	1.158074
O162	O	0.642606	-0.100541	1.658074
N163	N	0.016726	-0.688471	1.356052
N164	N	0.516726	-0.188471	1.856052
C165	C	0.039385	-0.537207	0.498225
C166	C	0.539385	-0.037207	0.998225
C167	C	0.167616	-0.665350	0.498136
C168	C	0.667616	-0.165350	0.998136
C169	C	0.091204	-0.741950	0.651272
C170	C	0.591204	-0.241950	1.151272
C171	C	-0.037027	-0.613806	0.651361
C172	C	0.462973	-0.113806	1.151361
C173	C	0.700360	-0.716215	0.676756
C174	C	1.200360	-0.216215	1.176756
C175	C	0.700279	-0.715877	0.548436
C176	C	1.200279	-0.215877	1.048436
C177	C	0.700133	-0.562725	0.472214
C178	C	1.200133	-0.062725	0.972214
C179	C	0.700218	-0.563065	0.600533
C180	C	1.200218	-0.063065	1.100533
C181	C	0.167511	-0.004552	0.497940
C182	C	0.667511	0.495448	0.997940
C183	C	0.039211	-0.004699	0.498341
C184	C	0.539211	0.495301	0.998341
C185	C	-0.036999	-0.004682	0.651449
C186	C	0.463001	0.495318	1.151449
C187	C	0.091344	-0.004663	0.651090
C188	C	0.591344	0.495337	1.151090
C189	C	-0.011156	-0.537302	1.209530
C190	C	0.488844	-0.037302	1.709530
C191	C	-0.010806	-0.665617	1.209458
C192	C	0.489194	-0.165617	1.709458
C193	C	0.142293	-0.741918	1.209514
C194	C	0.642293	-0.241918	1.709514
C195	C	0.141950	-0.613596	1.209563
C196	C	0.641950	-0.113596	1.709563
H197	H	0.063231	-0.497836	0.928300
H198	H	0.563231	0.002164	1.428300
H199	H	0.100526	-0.788925	0.688956
H200	H	0.600526	-0.288925	1.188956
H201	H	-0.083976	-0.604550	0.689083
H202	H	0.416024	-0.104550	1.189083
H203	H	0.180068	-0.788855	1.209502
H204	H	0.680068	-0.288855	1.709502
C205	C	0.231035	-0.677850	0.447172
C206	C	0.731035	-0.177850	0.947172
H207	H	0.257009	-0.718831	0.462194
H208	H	0.757009	-0.218831	0.962194
H209	H	0.225634	-0.673195	0.411991
H210	H	0.725634	-0.173195	0.911991
H211	H	0.249594	-0.649241	0.435899
H212	H	0.749594	-0.149241	0.935899
C213	C	0.230765	-0.004159	0.446775
C214	C	0.730765	0.495841	0.946775
H215	H	0.256759	-0.004067	0.461694
H216	H	0.756759	0.495933	0.961694
H217	H	0.249436	-0.039988	0.435361
H218	H	0.749436	0.460012	0.935361
H219	H	0.225124	0.031831	0.411707
H220	H	0.725124	0.531831	0.911707
H221	H	0.150353	-0.403547	0.803641
H222	H	0.650353	0.096453	1.303641
H223	H	0.179573	-0.604224	1.209577
H224	H	0.679573	-0.104224	1.709577
C225	C	0.267331	-0.604497	0.937484
C226	C	0.767331	-0.104497	1.437484
H227	H	0.308362	-0.610723	0.908887
H228	H	0.808362	-0.110723	1.408887
H229	H	0.261117	-0.584715	0.962772
H230	H	0.761117	-0.084715	1.462772
H231	H	0.261122	-0.643351	0.962760
H232	H	0.761122	-0.143351	1.462760
C233	C	0.700054	-0.511681	0.408832
C234	C	1.200054	-0.011681	0.908832
H235	H	0.700050	-0.526639	0.382816
H236	H	1.200050	-0.026639	0.882816
H237	H	0.664130	-0.476513	0.414280
H238	H	1.164130	0.023487	0.914280
H239	H	0.735945	-0.500408	0.390292
H240	H	1.235945	-0.000408	0.890292
H241	H	0.063121	-0.497793	0.716436
H242	H	0.563121	0.002207	1.216436
H243	H	0.700298	-0.753510	0.539047
H244	H	1.200298	-0.253510	1.039047
H245	H	-0.083922	-0.004684	0.689225
H246	H	0.416078	0.495316	1.189225
H247	H	-0.048928	-0.490363	1.209534
H248	H	0.451072	0.009637	1.709534
H249	H	0.100739	-0.004653	0.688708
H250	H	0.600739	0.495347	1.188708
C251	C	-0.061611	-0.678250	1.209370
C252	C	0.438389	-0.178250	1.709370
H253	H	-0.046475	-0.719242	1.209344
H254	H	0.453525	-0.219242	1.709344
H255	H	-0.096838	-0.673629	1.245260
H256	H	0.403162	-0.173629	1.745260
H257	H	-0.072854	-0.649674	1.173443
H258	H	0.427146	-0.149674	1.673443
H259	H	0.102355	-0.458618	0.810728
H260	H	0.602355	0.041382	1.310728
C261	C	0.312618	-0.559111	0.801386
C262	C	0.812618	-0.059111	1.301386
H263	H	0.319429	-0.540907	0.758148
H264	H	0.819429	-0.040907	1.258148
H265	H	0.330831	-0.544210	0.812001
H266	H	0.830831	-0.044210	1.312001
H267	H	0.330828	-0.602846	0.811999
H268	H	0.830828	-0.102846	1.311999
C269	C	0.267153	-0.604440	0.609741
C270	C	0.767153	-0.104440	1.109741
H271	H	0.308197	-0.610665	0.603500
H272	H	0.808197	-0.110665	1.103500
H273	H	0.260940	-0.643288	0.629524
H274	H	0.760940	-0.143288	1.129524
H275	H	0.260906	-0.584639	0.570897
H276	H	0.760906	-0.084639	1.070897
C277	C	0.312538	-0.559080	0.655104
C278	C	0.812538	-0.059080	1.155104
H279	H	0.319377	-0.540876	0.673306
H280	H	0.819377	-0.040876	1.173306
H281	H	0.330754	-0.602811	0.669998
H282	H	0.830754	-0.102811	1.169998
H283	H	0.330721	-0.544162	0.611370
H284	H	0.830721	-0.044162	1.111370
C285	C	0.292191	-0.613637	0.752661
C286	C	0.792191	-0.113637	1.252661
H287	H	0.320779	-0.654389	0.755028
H288	H	0.820779	-0.154389	1.255028
H289	H	0.266925	-0.611986	0.793267
H290	H	0.766925	-0.111986	1.293267
H291	H	0.266893	-0.602790	0.730581
H292	H	0.766893	-0.102790	1.230581
C293	C	0.700430	-0.767257	0.740141
C294	C	1.200430	-0.267257	1.240141
H295	H	0.700441	-0.752301	0.766155
H296	H	1.200441	-0.252301	1.266155
H297	H	0.664545	-0.778532	0.758678
H298	H	1.164545	-0.278532	1.258678
H299	H	0.736359	-0.802426	0.734693
H300	H	1.236359	-0.302426	1.234693
H301	H	0.102328	-0.458621	0.755642
H302	H	0.602328	0.041379	1.255642
C303	C	0.700193	-0.512221	0.613208
C304	C	1.200193	-0.012221	1.113208
H305	H	0.700151	-0.476181	0.577428
H306	H	1.200151	0.023819	1.077428
H307	H	0.664304	-0.502610	0.646995
H308	H	1.164304	-0.002610	1.146995
H309	H	0.736119	-0.526504	0.623009
H310	H	1.236119	-0.026504	1.123009
C311	C	0.428288	-0.659006	0.707258
C312	C	0.928288	-0.159006	1.207258
H313	H	0.399714	-0.680705	0.728702
H314	H	0.899714	-0.180705	1.228702
H315	H	0.453554	-0.665013	0.668313
H316	H	0.953554	-0.165013	1.168313
H317	H	0.453587	-0.674212	0.731000
H318	H	0.953587	-0.174212	1.231000
H319	H	0.418982	-0.450689	0.632093
H320	H	0.918982	0.049311	1.132093
C321	C	0.292151	-0.393429	0.668687
C322	C	0.792151	0.106571	1.168687
H323	H	0.320728	-0.371734	0.647250
H324	H	0.820728	0.128266	1.147250
H325	H	0.266851	-0.378223	0.644950
H326	H	0.766851	0.121777	1.144950
H327	H	0.266886	-0.387418	0.707634
H328	H	0.766886	0.112582	1.207634
H329	H	0.207047	-0.285927	0.572438
H330	H	0.707047	0.214073	1.072438
C331	C	0.256918	-0.412770	0.599570
C332	C	0.756918	0.087230	1.099570
H333	H	0.263117	-0.384180	0.558530
H334	H	0.763117	0.115820	1.058530
H335	H	0.295776	-0.438054	0.605779
H336	H	0.795776	0.061946	1.105779
H337	H	0.237125	-0.438053	0.605804
H338	H	0.737125	0.061947	1.105804
C339	C	0.100498	-0.276698	0.776507
C340	C	0.600498	0.223302	1.276507
H341	H	0.089858	-0.233454	0.754523
H342	H	0.589858	0.266546	1.254523
H343	H	0.063861	-0.287324	0.801809
H344	H	0.563861	0.212676	1.301809
H345	H	0.122516	-0.287321	0.801771
H346	H	0.622516	0.212679	1.301771
C347	C	0.026796	-0.473751	0.447314
C348	C	0.526796	0.026249	0.947314
H349	H	-0.014191	-0.447821	0.462379
H350	H	0.485809	0.052179	0.962379
H351	H	0.055382	-0.455162	0.436027
H352	H	0.555382	0.044838	0.936027
H353	H	0.031422	-0.479123	0.412127
H354	H	0.531422	0.020877	0.912127
C355	C	0.026525	-0.004715	0.447521
C356	C	0.526525	0.495285	0.947521
H357	H	-0.014468	-0.004724	0.462658
H358	H	0.485532	0.495276	0.962658
H359	H	0.031128	0.031189	0.412307
H360	H	0.531128	0.531189	0.912307
H361	H	0.055087	-0.040631	0.436255
H362	H	0.555087	0.459369	0.936255
