data_functionalizedCrystal
_audit_creation_method	'MofGen! by Chris Wilmer'
_symmetry_space_group_name_H-M	'P1'
_symmetry_Int_Tables_number	1
_symmetry_cell_setting	triclinic
loop_
_symmetry_equiv_pos_as_xyz
  x,y,z
_cell_length_a	17.699104
_cell_length_b	12.811487
_cell_length_c	16.176319
_cell_angle_alpha	95.425724
_cell_angle_beta	89.991696
_cell_angle_gamma	83.670473
loop_
_atom_site_label
_atom_site_type_symbol
_atom_site_fract_x
_atom_site_fract_y
_atom_site_fract_z
O1	O	1.004664	0.132833	-0.058803
O2	O	0.784365	0.150078	-0.057508
O3	O	0.900056	-0.011347	-0.069608
O4	O	0.888973	0.294259	-0.046704
O5	O	0.900040	-0.011357	0.067885
O6	O	0.784349	0.150068	0.079984
O7	O	1.004648	0.132823	0.078689
Cu8	Cu	0.894497	0.141445	0.091891
Cu9	Cu	0.894516	0.141457	-0.070710
O10	O	0.888957	0.294248	0.090788
C11	C	0.756158	0.149452	0.011192
C12	C	0.672132	0.147587	0.011053
C13	C	0.899427	-0.050454	-0.003794
C14	C	0.897566	-0.166965	-0.012531
C15	C	0.147638	0.231822	0.017357
C16	C	0.226590	0.233568	0.017485
C17	C	0.274783	0.138806	0.010384
C18	C	0.244021	0.042290	0.003144
C19	C	0.165070	0.040545	0.003010
C20	C	0.562418	0.049325	0.003685
C21	C	0.641373	0.051078	0.003822
C22	C	0.623938	0.242348	0.018160
C23	C	0.544987	0.240603	0.018026
C24	C	0.514232	0.144089	0.010782
C25	C	0.428624	0.142197	0.010642
C26	C	0.360390	0.140697	0.010530
C27	C	0.894066	-0.385929	0.120960
C28	C	0.892318	-0.495401	0.112755
C29	C	0.892327	-0.495386	-0.037147
C30	C	0.894075	-0.385913	-0.028941
C31	C	0.894943	-0.331188	0.050115
C32	C	0.896686	-0.221713	0.058320
C33	C	0.896701	-0.221701	-0.091581
C34	C	0.894953	-0.331173	-0.099786
C35	C	1.032855	0.133450	0.009987
C36	C	1.116881	0.135315	0.010121
C37	C	0.889586	0.333355	0.024972
C38	C	0.891447	0.449866	0.033704
N39	N	0.894489	0.141435	0.206255
N40	N	0.894530	0.141457	-0.185075
C41	C	0.945733	0.069985	0.244164
C42	C	0.945737	0.069984	0.330711
C43	C	0.894500	0.141439	0.379348
C44	C	0.843251	0.212892	0.341433
C45	C	0.843244	0.212888	0.254888
C46	C	0.843277	0.212912	0.690463
C47	C	0.843289	0.212913	0.777015
C48	C	0.945769	0.070009	0.766287
C49	C	0.945763	0.070004	0.679741
C50	C	0.894511	0.141453	0.641833
C51	C	0.894507	0.141452	0.547989
C52	C	0.894508	0.141446	0.473191
H53	H	0.108404	0.308990	0.023146
H54	H	0.894248	-0.375746	-0.164152
C55	C	0.891363	-0.554619	-0.123044
C56	C	0.892494	-0.483250	-0.183337
C57	C	0.891587	-0.537774	-0.262475
H58	H	0.846593	-0.589187	-0.128816
H59	H	0.934763	-0.605443	-0.130061
H60	H	0.849098	-0.432446	-0.176324
H61	H	0.937260	-0.448680	-0.177592
H62	H	0.934987	-0.588597	-0.269492
H63	H	0.846816	-0.572340	-0.268239
H64	H	0.892361	-0.489360	-0.303394
C65	C	0.259837	0.338457	0.025397
C66	C	0.200734	0.421072	0.031616
C67	C	0.231331	0.517714	0.038915
H68	H	0.290269	0.343275	-0.022175
H69	H	0.290245	0.343162	0.073716
H70	H	0.170339	0.416369	-0.016699
H71	H	0.170298	0.416289	0.079187
H72	H	0.261740	0.522419	0.087235
H73	H	0.261762	0.522521	-0.008658
H74	H	0.191235	0.573780	0.043143
C75	C	1.001275	-0.007790	0.191413
C76	C	0.988648	-0.110892	0.204763
C77	C	1.039791	-0.182581	0.156187
H78	H	1.051854	0.003376	0.206391
H79	H	0.993944	0.002342	0.134420
H80	H	0.995985	-0.121019	0.261744
H81	H	0.938079	-0.122091	0.189780
H82	H	1.032460	-0.172449	0.099193
H83	H	1.090366	-0.171405	0.171169
H84	H	1.031226	-0.252543	0.165232
C85	C	0.693789	-0.051734	-0.004020
C86	C	0.739650	-0.056285	-0.075084
C87	C	0.787951	-0.150966	-0.082328
H88	H	0.664261	-0.109552	-0.008405
H89	H	0.724986	-0.055045	0.043656
H90	H	0.708456	-0.052985	-0.122749
H91	H	0.769194	0.001511	-0.070716
H92	H	0.819147	-0.154277	-0.034652
H93	H	0.758416	-0.208777	-0.086710
H94	H	0.819077	-0.154063	-0.130541
H95	H	0.897406	-0.177118	-0.149268
H96	H	0.897382	-0.177155	0.122692
C97	C	0.787706	0.290427	0.394383
C98	C	0.798693	0.275162	0.478292
C99	C	0.747547	0.346581	0.527092
H100	H	0.737126	0.279180	0.379472
H101	H	0.796149	0.360484	0.385486
H102	H	0.790244	0.205121	0.487184
H103	H	0.849263	0.286418	0.493228
H104	H	0.755990	0.416638	0.518195
H105	H	0.696970	0.335327	0.512174
H106	H	0.755000	0.336239	0.584030
H107	H	0.894753	-0.341367	0.185331
H108	H	0.505752	0.317769	0.023813
H109	H	0.801515	0.271068	0.224023
H110	H	0.987487	0.011822	0.640143
H111	H	0.648988	0.320935	0.024055
C112	C	0.529179	-0.055566	-0.004133
C113	C	0.588285	-0.138177	-0.010295
C114	C	0.557692	-0.234822	-0.017485
H115	H	0.498762	-0.060378	-0.052428
H116	H	0.498757	-0.060281	0.043479
H117	H	0.618695	-0.133464	-0.057903
H118	H	0.618707	-0.133400	0.037994
H119	H	0.527270	-0.239537	0.030127
H120	H	0.527275	-0.239622	-0.065780
H121	H	0.597790	-0.290885	-0.021659
H122	H	0.283266	-0.034867	-0.002643
H123	H	0.140030	-0.038041	-0.002884
C124	C	0.891326	-0.554638	0.189775
C125	C	0.892443	-0.483273	0.260761
C126	C	0.891521	-0.537802	0.331729
H127	H	0.934714	-0.605458	0.189196
H128	H	0.846544	-0.589206	0.190348
H129	H	0.937220	-0.448723	0.260188
H130	H	0.849058	-0.432452	0.261366
H131	H	0.846738	-0.572369	0.332302
H132	H	0.934909	-0.588619	0.331142
H133	H	0.892271	-0.489388	0.379901
C134	C	1.001257	-0.007710	0.371899
C135	C	0.960756	-0.071924	0.416771
C136	C	1.011879	-0.143521	0.454711
H137	H	1.032900	0.029874	0.408533
H138	H	1.031761	-0.050318	0.330555
H139	H	0.930266	-0.029321	0.458109
H140	H	0.929116	-0.109531	0.380155
H141	H	1.042383	-0.186130	0.413367
H142	H	1.043520	-0.105929	0.491342
H143	H	0.984407	-0.187105	0.485155
H144	H	0.987499	0.011827	0.797159
C145	C	0.787567	0.290537	0.829677
C146	C	0.742666	0.353088	0.777955
C147	C	0.691323	0.424592	0.826437
H148	H	0.814839	0.334290	0.866709
H149	H	0.755913	0.252850	0.860609
H150	H	0.774315	0.390772	0.747037
H151	H	0.715377	0.309364	0.740924
H152	H	0.659669	0.386905	0.857369
H153	H	0.718601	0.468338	0.863467
H154	H	0.660847	0.467035	0.791351
H155	H	0.801548	0.271090	0.659606
