data_functionalizedCrystal
_audit_creation_method	'MofGen! by Chris Wilmer'
_symmetry_space_group_name_H-M	'P1'
_symmetry_Int_Tables_number	1
_symmetry_cell_setting	triclinic
loop_
_symmetry_equiv_pos_as_xyz
  x,y,z
_cell_length_a	18.101398
_cell_length_b	18.101397
_cell_length_c	16.959447
_cell_angle_alpha	90.033674
_cell_angle_beta	90.010791
_cell_angle_gamma	90.018618
loop_
_atom_site_label
_atom_site_type_symbol
_atom_site_fract_x
_atom_site_fract_y
_atom_site_fract_z
Zn1	Zn	1.132150	-0.294852	0.446816
Zn2	Zn	1.132076	-0.418704	0.314630
Zn3	Zn	1.008316	-0.294877	0.314661
Zn4	Zn	1.008282	-0.418652	0.446776
O5	O	1.070206	-0.356771	0.380721
O6	O	1.235773	-0.311292	0.429284
O7	O	1.115643	-0.402311	0.204023
O8	O	1.024788	-0.191241	0.332222
O9	O	1.235719	-0.402286	0.332168
O10	O	1.115768	-0.191222	0.429315
O11	O	1.024717	-0.311336	0.204046
O12	O	0.904679	-0.311285	0.332184
O13	O	1.024730	-0.402196	0.557392
O14	O	0.904654	-0.402222	0.429248
O15	O	1.115735	-0.311241	0.557422
O16	O	1.115610	-0.522330	0.332129
O17	O	1.024659	-0.522292	0.429217
C18	C	0.877796	-0.356751	0.380715
C19	C	0.795482	-0.356760	0.380732
C20	C	0.644773	-0.356774	0.380730
C21	C	0.613429	-0.414077	0.441706
C22	C	0.527810	-0.414309	0.441525
C23	C	0.496391	-0.356787	0.380731
C24	C	0.527452	-0.377618	0.297326
C25	C	0.613097	-0.378026	0.297679
C26	C	0.613236	-0.278498	0.402431
C27	C	0.527586	-0.278927	0.404268
C28	C	0.412531	-0.356794	0.380725
C29	C	0.728633	-0.356769	0.380730
C30	C	1.070143	-0.549182	0.380682
C31	C	1.070183	-0.631496	0.380692
C32	C	1.070278	-0.930587	0.380765
C33	C	1.127342	-0.899255	0.319516
C34	C	1.127540	-0.813637	0.319675
C35	C	1.070231	-0.782204	0.380728
C36	C	1.091382	-0.813208	0.464043
C37	C	1.091824	-0.898853	0.463710
C38	C	0.991910	-0.899094	0.359419
C39	C	0.992298	-0.813445	0.357559
C40	C	1.070203	-0.698345	0.380713
C41	C	1.070308	-1.014446	0.380786
C42	C	1.263368	-0.356792	0.380727
C43	C	1.345682	-0.356801	0.380729
C44	C	1.070237	-0.356710	0.586889
C45	C	1.070250	-0.356684	0.674746
C46	C	1.070290	-0.163609	0.380777
C47	C	1.070326	-0.081295	0.380800
C48	C	1.070218	-0.356779	0.175355
C49	C	1.070348	-0.356596	0.087498
C50	C	1.022957	-0.403962	1.046209
C51	C	1.117721	-0.309249	1.046234
C52	C	1.117701	-0.309265	0.963688
C53	C	1.070309	-0.356631	0.922399
C54	C	1.022937	-0.403981	0.963655
C55	C	1.165078	-0.261921	0.922426
C56	C	1.165060	-0.261936	0.839875
C57	C	1.117664	-0.309298	0.798584
C58	C	1.070289	-0.356649	0.839845
C59	C	1.022898	-0.404015	0.798556
C60	C	0.975519	-0.451363	0.839816
C61	C	0.975541	-0.451343	0.922364
C62	C	1.117642	-0.309318	0.716035
C63	C	1.022878	-0.404034	0.716002
H64	H	0.507300	-0.472315	0.427128
F65	F	0.640201	-0.325825	0.236241
F66	F	1.215517	-0.211520	0.966372
H67	H	1.185075	-0.920724	0.333476
H68	H	0.634043	-0.401233	0.503731
H69	H	1.149107	-0.918773	0.481791
H70	H	0.633508	-0.235808	0.358024
H71	H	0.976349	-0.793189	0.296246
H72	H	0.505984	-0.434202	0.278673
H73	H	0.634855	-0.259468	0.462225
H74	H	1.156309	-0.270691	1.079857
H75	H	0.947494	-0.792056	0.398903
H76	H	0.949393	-0.919356	0.404029
F77	F	1.110261	-0.926244	0.238525
H78	H	0.507287	-0.263214	0.465649
F79	F	1.215483	-0.211543	0.795970
H80	H	0.506199	-0.233979	0.363130
F81	F	1.203415	-0.786783	0.338137
F82	F	1.038714	-0.786601	0.525296
H83	H	1.156219	-0.270770	0.682445
H84	H	0.984279	-0.442599	0.682390
H85	H	1.114308	-0.792678	0.257898
H86	H	0.506809	-0.401314	0.503358
H87	H	1.052081	-0.919576	0.510917
F88	F	1.165417	-0.785100	0.488079
F89	F	0.925124	-0.501732	0.966281
F90	F	0.641531	-0.489460	0.423119
H91	H	0.972668	-0.920757	0.299720
H92	H	0.936936	-0.489932	0.806187
F93	F	0.639180	-0.452804	0.273720
H94	H	0.984380	-0.442510	1.079806
H95	H	0.507101	-0.337161	0.250647
