data_functionalizedCrystal
_audit_creation_method	'MofGen! by Chris Wilmer'
_symmetry_space_group_name_H-M	'P1'
_symmetry_Int_Tables_number	1
_symmetry_cell_setting	triclinic
loop_
_symmetry_equiv_pos_as_xyz
  x,y,z
_cell_length_a	13.339070
_cell_length_b	14.044220
_cell_length_c	12.376457
_cell_angle_alpha	102.319698
_cell_angle_beta	75.589755
_cell_angle_gamma	104.409086
loop_
_atom_site_label
_atom_site_type_symbol
_atom_site_fract_x
_atom_site_fract_y
_atom_site_fract_z
O1	O	1.404410	0.473359	-0.094060
O2	O	1.104116	0.409471	-0.094052
O3	O	1.249753	0.302247	-0.094045
O4	O	1.258772	0.580583	-0.094067
O5	O	1.213353	0.329006	0.093966
O6	O	1.067716	0.436230	0.093959
O7	O	1.368010	0.500118	0.093950
Zn8	Zn	1.212084	0.472423	0.123805
Zn9	Zn	1.260042	0.437166	-0.123907
O10	O	1.222373	0.607343	0.093943
C11	C	1.047253	0.412059	-0.000045
C12	C	0.932047	0.379891	-0.000042
C13	C	0.589833	0.630012	-0.000080
C14	C	0.698075	0.660238	-0.000087
C15	C	0.756573	0.590154	-0.000075
C16	C	0.706819	0.489838	-0.000057
C17	C	0.598569	0.459608	-0.000059
C18	C	0.765309	0.419750	-0.000054
C19	C	0.715555	0.319434	-0.000037
C20	C	0.607315	0.289209	-0.000038
C21	C	0.548816	0.359293	-0.000049
C22	C	0.873559	0.449980	-0.000053
C23	C	0.882295	0.279576	-0.000032
C24	C	0.774053	0.249350	-0.000025
C25	C	1.227607	0.279274	-0.000039
C26	C	1.215836	0.170953	-0.000037
C27	C	1.194321	-0.027370	-0.000053
C28	C	1.277803	-0.063049	-0.000059
C29	C	1.265831	-0.173403	-0.000068
C30	C	1.206291	0.082993	-0.000044
C31	C	1.424874	0.497530	-0.000059
C32	C	1.540081	0.529697	-0.000070
C33	C	1.244519	0.630315	-0.000065
C34	C	1.256291	0.738635	-0.000074
N35	N	1.179361	0.496486	0.292862
N36	N	1.292772	0.413098	-0.292964
C37	C	1.368731	0.357221	0.647856
C38	C	1.391627	0.340378	0.529517
C39	C	1.338563	0.379403	0.470347
C40	C	1.262597	0.435275	0.529528
C41	C	1.239704	0.452127	0.647878
C42	C	1.209536	0.474309	0.470370
C43	C	1.133571	0.530180	0.529551
C44	C	1.110681	0.547029	0.647889
C45	C	1.163746	0.508003	0.707059
C46	C	1.232429	0.457457	0.352020
C47	C	1.103403	0.552362	0.352042
C48	C	1.080506	0.569206	0.470381
H49	H	0.844709	0.614769	-0.000084
H50	H	1.113864	-0.079699	-0.000053
H51	H	1.358280	-0.010727	-0.000137
H52	H	1.294281	0.411966	0.303845
C53	C	0.552582	0.178863	-0.000027
C54	C	0.498274	0.120755	-0.097656
C55	C	0.443542	0.010409	-0.097645
C56	C	0.443116	-0.041829	-0.000006
C57	C	0.497426	0.016279	0.097630
C58	C	0.552158	0.126625	0.097619
H59	H	0.498587	0.159424	-0.169940
H60	H	0.403338	-0.032606	-0.169922
H61	H	0.402600	-0.123514	0.000002
H62	H	0.497113	-0.022390	0.169915
H63	H	0.592362	0.169640	0.169896
H64	H	1.048834	0.592532	0.696075
H65	H	1.357209	0.365687	0.373991
H66	H	1.411935	0.325458	0.696039
C67	C	1.475178	0.278919	0.464417
C68	C	1.460324	0.170214	0.480693
C69	C	1.543878	0.108750	0.415589
C70	C	1.642286	0.155990	0.334208
C71	C	1.657144	0.264700	0.317928
C72	C	1.573590	0.326165	0.383033
H73	H	1.387473	0.135239	0.540939
H74	H	1.532879	0.028275	0.427641
H75	H	1.704137	0.110490	0.286014
H76	H	1.729995	0.299676	0.257682
H77	H	1.584589	0.406640	0.370981
C78	C	1.045023	0.595293	0.286968
C79	C	1.070200	0.576755	0.156794
C80	C	1.011829	0.619684	0.091711
C81	C	0.928281	0.681151	0.156801
C82	C	0.903100	0.699693	0.286982
C83	C	0.961471	0.656763	0.352065
H84	H	1.132051	0.531250	0.108604
H85	H	1.030471	0.605958	-0.004658
H86	H	0.885072	0.712930	0.108623
H87	H	0.841249	0.745197	0.335172
H88	H	0.942830	0.670489	0.448434
C89	C	0.719317	0.139005	-0.000012
C90	C	0.718893	0.086767	0.097627
C91	C	0.664155	-0.023578	0.097641
C92	C	0.609843	-0.081684	0.000015
C93	C	0.610266	-0.029447	-0.097631
C94	C	0.665003	0.080897	-0.097645
H95	H	0.759099	0.129781	0.169902
H96	H	0.663843	-0.062247	0.169926
H97	H	0.569324	-0.163368	0.000025
H98	H	0.570059	-0.072461	-0.169906
H99	H	0.665316	0.119567	-0.169930
H100	H	0.914057	0.531658	-0.000063
H101	H	0.738578	0.741913	-0.000110
H102	H	1.145101	0.521713	0.803420
H103	H	0.542196	0.687062	-0.000099
H104	H	1.018654	0.614698	0.518581
H105	H	0.460676	0.334688	-0.000043
H106	H	0.929925	0.222507	-0.000027
