data_functionalizedCrystal
_audit_creation_method	'MofGen! by Chris Wilmer'
_symmetry_space_group_name_H-M	'P1'
_symmetry_Int_Tables_number	1
_symmetry_cell_setting	triclinic
loop_
_symmetry_equiv_pos_as_xyz
  x,y,z
_cell_length_a	19.188925
_cell_length_b	18.266242
_cell_length_c	16.974813
_cell_angle_alpha	93.659691
_cell_angle_beta	83.269101
_cell_angle_gamma	90.009890
loop_
_atom_site_label
_atom_site_type_symbol
_atom_site_fract_x
_atom_site_fract_y
_atom_site_fract_z
O1	O	0.926324	0.066743	0.098695
O2	O	0.723035	0.067528	0.111988
O3	O	0.830346	0.060312	-0.009782
O4	O	0.819013	0.073960	0.220465
O5	O	0.830328	-0.061451	-0.009785
O6	O	0.723017	-0.054234	0.111985
O7	O	0.926305	-0.055019	0.098692
Zn8	Zn	0.824658	-0.073959	0.105338
Zn9	Zn	0.824682	0.086468	0.105342
O10	O	0.818994	-0.047803	0.220461
C11	C	0.697014	0.006621	0.111557
C12	C	0.619507	0.006544	0.110267
N13	N	0.824647	-0.183446	0.105334
C14	C	0.057846	0.010269	0.173079
C15	C	0.130672	0.010345	0.174298
C16	C	0.175482	0.006109	0.102847
C17	C	0.147461	0.001814	0.030172
C18	C	0.074637	0.001746	0.028955
N19	N	0.296062	-0.038406	0.051119
N20	N	0.365242	-0.038342	0.052280
C21	C	0.394897	0.006317	0.106510
N22	N	0.352758	0.050902	0.159547
N23	N	0.283572	0.050834	0.158388
C24	C	0.254448	0.006183	0.104159
C25	C	0.501875	0.010699	0.180502
C26	C	0.574702	0.010780	0.181718
C27	C	0.591490	0.002241	0.037590
C28	C	0.518664	0.002168	0.036376
C29	C	0.473861	0.006394	0.107834
C30	C	0.866939	-0.218912	0.153175
C31	C	0.866951	-0.295558	0.153173
C32	C	0.824657	-0.336733	0.105339
C33	C	0.782362	-0.301258	0.057488
C34	C	0.782357	-0.224614	0.057485
N35	N	0.763506	-0.457201	0.103392
N36	N	0.763512	-0.530009	0.103399
C37	C	0.824671	-0.567655	0.105342
N38	N	0.885823	-0.529742	0.107293
N39	N	0.885816	-0.456927	0.107290
C40	C	0.824658	-0.419840	0.105336
C41	C	0.866980	-0.686228	0.153183
C42	C	0.866993	-0.762875	0.153175
C43	C	0.782397	-0.768574	0.057495
C44	C	0.782390	-0.691929	0.057498
C45	C	0.824681	-0.650760	0.105346
C46	C	0.952326	0.005889	0.099123
C47	C	1.029833	0.005971	0.100413
C48	C	0.829905	-0.002314	-0.039240
C49	C	0.828612	-0.007512	-0.127013
N50	N	0.824699	0.195955	0.105339
C51	C	0.828016	0.056418	-0.168242
C52	C	0.826796	0.051531	-0.250713
C53	C	0.826177	-0.017286	-0.291953
C54	C	0.826771	-0.081221	-0.250718
C55	C	0.827986	-0.076333	-0.168248
C56	C	0.822538	-0.039020	-0.538602
C57	C	0.821325	-0.043902	-0.621078
C58	C	0.821348	0.088850	-0.621067
C59	C	0.822567	0.093731	-0.538596
C60	C	0.823158	0.029797	-0.497367
N61	N	0.824932	-0.022282	-0.376252
N62	N	0.824397	0.034794	-0.413069
C63	C	0.819435	0.014825	0.249920
C64	C	0.820729	0.020028	0.337692
H65	H	0.021371	0.013713	0.231266
H66	H	0.183950	-0.001633	-0.028004
H67	H	0.153484	0.013838	0.233473
H68	H	0.627974	-0.001203	-0.020586
H69	H	0.051830	-0.001754	-0.030220
O70	O	0.826078	-0.148027	-0.290851
C71	C	0.764929	-0.154293	-0.329380
H72	H	0.744604	-0.097216	-0.338676
H73	H	0.777669	-0.185942	-0.389436
H74	H	0.723070	-0.184788	-0.291185
O75	O	0.458448	0.014851	0.249985
C76	C	0.498793	0.018652	0.314386
H77	H	0.553170	0.040502	0.294128
H78	H	0.471887	0.056971	0.364433
H79	H	0.503947	-0.038442	0.336673
H80	H	0.747916	-0.195738	0.018526
H81	H	0.597508	0.014286	0.240893
O82	O	0.741331	-0.808671	0.011100
C83	C	0.750376	-0.883923	0.021392
H84	H	0.770191	-0.890818	0.081245
H85	H	0.698042	-0.913151	0.019538
H86	H	0.790209	-0.908651	-0.028284
O87	O	0.908053	-0.329902	0.199724
C88	C	0.945393	-0.277132	0.241937
H89	H	0.916486	-0.222225	0.246629
H90	H	0.949656	-0.295588	0.304104
H91	H	1.000229	-0.270912	0.209214
O92	O	0.491565	-0.002053	-0.034281
C93	C	0.546728	-0.005758	-0.097086
H94	H	0.596175	-0.027508	-0.075095
H95	H	0.531552	-0.044115	-0.147839
H96	H	0.557065	0.051352	-0.119111
H97	H	0.747948	-0.663052	0.018543
O98	O	0.907917	-0.178888	0.199745
C99	C	0.865289	-0.131345	0.253804
H100	H	0.809725	-0.153940	0.262443
H101	H	0.887534	-0.126945	0.313308
H102	H	0.864137	-0.074706	0.229377
H103	H	0.747926	-0.334788	0.018540
O104	O	0.823216	-0.101069	-0.498482
C105	C	0.884367	-0.102756	-0.459959
H106	H	0.904703	-0.044573	-0.450661
H107	H	0.871627	-0.127286	-0.399904
H108	H	0.926218	-0.137772	-0.498160
H109	H	0.820817	-0.099944	-0.654654
H110	H	0.901415	-0.652707	0.192144
O111	O	0.826319	0.113573	-0.290877
C112	C	0.886067	0.114161	-0.347730
H113	H	0.906016	0.055613	-0.363126
H114	H	0.871631	0.138928	-0.403670
H115	H	0.928868	0.148417	-0.322370
O116	O	0.908097	-0.797212	0.199724
C117	C	0.945432	-0.744437	0.241938
H118	H	0.916519	-0.689533	0.246632
H119	H	0.949696	-0.762893	0.304105
H120	H	1.000267	-0.738211	0.209216
H121	H	0.828523	0.112456	-0.134670
H122	H	0.823072	0.149770	-0.505024
O123	O	0.820639	0.150928	-0.661140
C124	C	0.759503	0.152593	-0.699691
H125	H	0.717625	0.116777	-0.668427
H126	H	0.739204	0.211421	-0.697555
H127	H	0.772243	0.130927	-0.764265
H128	H	0.828462	-0.128392	-0.134679
