data_functionalizedCrystal
_audit_creation_method	'MofGen! by Chris Wilmer'
_symmetry_space_group_name_H-M	'P1'
_symmetry_Int_Tables_number	1
_symmetry_cell_setting	triclinic
loop_
_symmetry_equiv_pos_as_xyz
  x,y,z
_cell_length_a	13.032721
_cell_length_b	13.032831
_cell_length_c	19.076919
_cell_angle_alpha	85.386187
_cell_angle_beta	99.138159
_cell_angle_gamma	90.902885
loop_
_atom_site_label
_atom_site_type_symbol
_atom_site_fract_x
_atom_site_fract_y
_atom_site_fract_z
Zn1	Zn	-0.639106	1.481895	-0.579128
Zn2	Zn	-0.139106	1.981895	-0.079128
Zn3	Zn	-0.805708	1.466872	-0.474399
Zn4	Zn	-0.305708	1.966872	0.025601
Zn5	Zn	-0.610392	1.318790	-0.445065
Zn6	Zn	-0.110392	1.818790	0.054935
Zn7	Zn	-0.788961	1.288292	-0.575375
Zn8	Zn	-0.288961	1.788292	-0.075375
O9	O	-0.711042	1.388962	-0.518492
O10	O	-0.211042	1.888962	-0.018492
O11	O	-0.680232	1.622899	-0.579082
O12	O	-0.180232	2.122899	-0.079082
O13	O	-0.774791	1.453705	-0.372143
O14	O	-0.274791	1.953705	0.127857
O15	O	-0.469746	1.359478	-0.452143
O16	O	0.030254	1.859478	0.047857
O17	O	-0.802634	1.611861	-0.502138
O18	O	-0.302634	2.111861	-0.002138
O19	O	-0.490842	1.479310	-0.550638
O20	O	0.009158	1.979310	-0.050638
O21	O	-0.631293	1.344910	-0.350592
O22	O	-0.131293	1.844910	0.149408
O23	O	-0.615053	1.171748	-0.448504
O24	O	-0.115053	1.671748	0.051496
O25	O	-0.774090	1.307497	-0.674237
O26	O	-0.274090	1.807497	-0.174237
O27	O	-0.746247	1.149341	-0.544242
O28	O	-0.246247	1.649341	-0.044242
O29	O	-0.663993	1.449737	-0.676994
O30	O	-0.163993	1.949737	-0.176994
O31	O	-0.947942	1.424132	-0.498499
O32	O	-0.447942	1.924132	0.001501
O33	O	-0.935637	1.292930	-0.572686
O34	O	-0.435637	1.792930	-0.072686
C35	C	-0.675718	1.123467	-0.492784
C36	C	-0.175718	1.623467	0.007216
C37	C	-0.660632	1.009883	-0.481804
C38	C	-0.160632	1.509883	0.018196
C39	C	-0.718915	0.948176	-0.524222
C40	C	-0.218915	1.448176	-0.024222
C41	C	-0.703325	0.830780	-0.512875
C42	C	-0.203325	1.330780	-0.012875
C43	C	-0.979250	1.353618	-0.538386
C44	C	-0.479250	1.853618	-0.038386
C45	C	-1.094004	1.338589	-0.546929
C46	C	-0.594004	1.838589	-0.046929
C47	C	-1.151227	1.396858	-0.514069
C48	C	-0.651227	1.896858	-0.014069
C49	C	-1.269831	1.381327	-0.522899
C50	C	-0.769831	1.881327	-0.022899
C51	C	-0.441791	1.424472	-0.498537
C52	C	0.058209	1.924472	0.001463
C53	C	-0.327053	1.439604	-0.490034
C54	C	0.172947	1.939604	0.009966
C55	C	-0.720377	1.376891	-0.701833
C56	C	-0.220377	1.876891	-0.201833
C57	C	-0.724355	1.371747	-0.779963
C58	C	-0.224355	1.871747	-0.279963
C59	C	-0.746504	1.655494	-0.544300
C60	C	-0.246504	2.155494	-0.044300
C61	C	-0.761616	1.769074	-0.555299
C62	C	-0.261616	2.269074	-0.055299
C63	C	-0.668904	1.443383	-0.818105
C64	C	-0.168904	1.943383	-0.318105
C65	C	-0.672636	1.438538	-0.891514
C66	C	-0.172636	1.938538	-0.391514
C67	C	-0.731825	1.362060	-0.926781
C68	C	-0.231825	1.862060	-0.426781
C69	C	-0.787277	1.290416	-0.888634
C70	C	-0.287277	1.790416	-0.388634
C71	C	-0.783539	1.295258	-0.815225
C72	C	-0.283539	1.795258	-0.315225
C73	C	-0.749148	1.339634	-1.146175
C74	C	-0.249148	1.839634	-0.646175
C75	C	-0.752885	1.334800	-1.219590
C76	C	-0.252885	1.834800	-0.719590
C77	C	-0.638241	1.482920	-1.222465
C78	C	-0.138241	1.982920	-0.722465
C79	C	-0.634513	1.487759	-1.149055
C80	C	-0.134513	1.987759	-0.649055
C81	C	-0.689961	1.416112	-1.110914
C82	C	-0.189961	1.916112	-0.610914
N83	N	-0.735644	1.357107	-1.001818
N84	N	-0.235644	1.857107	-0.501818
N85	N	-0.686135	1.421061	-1.035877
N86	N	-0.186135	1.921061	-0.535877
C87	C	-0.701677	1.401055	-0.335863
C88	C	-0.201677	1.901055	0.164137
C89	C	-0.697434	1.406436	-0.257732
C90	C	-0.197434	1.906436	0.242268
H91	H	-0.641875	0.796704	-0.468159
H92	H	-0.141875	1.296704	0.031841
Br93	Br	-0.821328	1.004968	-0.598752
Br94	Br	-0.321328	1.504968	-0.098752
Br95	Br	-0.864012	0.825860	-0.629847
Br96	Br	-0.364012	1.325860	-0.129847
H97	H	-0.835466	1.228143	-0.917353
H98	H	-0.335466	1.728143	-0.417353
Br99	Br	-0.558213	0.953091	-0.407277
Br100	Br	-0.058213	1.453091	0.092723
Br101	Br	-1.158688	1.236282	-0.604723
Br102	Br	-0.658688	1.736282	-0.104723
Br103	Br	-1.086545	1.499183	-0.456290
Br104	Br	-0.586545	1.999183	0.043710
H105	H	-1.308643	1.319942	-0.557574
H106	H	-0.808643	1.819942	-0.057574
H107	H	-1.288243	1.500996	-0.455366
H108	H	-0.788243	2.000996	0.044634
Br109	Br	-0.588581	1.547186	-0.770251
Br110	Br	-0.088581	2.047186	-0.270251
Br111	Br	-0.597433	1.535804	-0.943284
Br112	Br	-0.097433	2.035804	-0.443284
Br113	Br	-0.554186	1.591557	-1.101198
Br114	Br	-0.054186	2.091557	-0.601198
H115	H	-0.593098	1.541250	-1.253528
H116	H	-0.093098	2.041250	-0.753528
H117	H	-0.801085	1.272519	-1.248302
H118	H	-0.301085	1.772519	-0.748302
H119	H	-0.794314	1.281307	-1.115131
H120	H	-0.294314	1.781307	-0.615131
Br121	Br	-0.858789	1.198028	-0.763458
Br122	Br	-0.358789	1.698028	-0.263458
