data_functionalizedCrystal
_audit_creation_method	'MofGen! by Chris Wilmer'
_symmetry_space_group_name_H-M	'P1'
_symmetry_Int_Tables_number	1
_symmetry_cell_setting	triclinic
loop_
_symmetry_equiv_pos_as_xyz
  x,y,z
_cell_length_a	15.538191
_cell_length_b	17.699083
_cell_length_c	16.776229
_cell_angle_alpha	89.998901
_cell_angle_beta	89.998825
_cell_angle_gamma	114.722446
loop_
_atom_site_label
_atom_site_type_symbol
_atom_site_fract_x
_atom_site_fract_y
_atom_site_fract_z
O1	O	0.119193	-0.971511	0.066172
O2	O	0.619193	-0.471511	0.566172
O3	O	0.134701	-0.746895	0.066198
O4	O	0.634701	-0.246895	0.566198
O5	O	-0.010283	-0.902926	0.066184
O6	O	0.489717	-0.402926	0.566184
O7	O	0.264176	-0.815479	0.066186
O8	O	0.764176	-0.315479	0.566186
O9	O	-0.010275	-0.902907	-0.066393
O10	O	0.489725	-0.402907	0.433607
O11	O	0.134709	-0.746876	-0.066379
O12	O	0.634709	-0.246876	0.433621
O13	O	0.119200	-0.971492	-0.066404
O14	O	0.619200	-0.471492	0.433596
Zn15	Zn	0.126956	-0.859181	-0.087441
Zn16	Zn	0.626956	-0.359181	0.412559
Zn17	Zn	0.126945	-0.859206	0.087235
Zn18	Zn	0.626945	-0.359206	0.587235
O19	O	0.264184	-0.815460	-0.066390
O20	O	0.764184	-0.315460	0.433610
C21	C	0.134149	-0.718840	-0.000087
C22	C	0.634149	-0.218840	0.499913
C23	C	0.132482	-0.635277	-0.000077
C24	C	0.632482	-0.135277	0.499923
C25	C	-0.045395	-0.912066	-0.000103
C26	C	0.454605	-0.412066	0.499897
C27	C	-0.150031	-0.939318	-0.000098
C28	C	0.349969	-0.439318	0.499902
N29	N	0.126962	-0.859169	-0.206652
N30	N	0.626962	-0.359169	0.293348
C31	C	-0.437202	-0.668571	-0.000084
C32	C	0.062798	-0.168571	0.499916
C33	C	-0.535527	-0.694198	-0.000089
C34	C	-0.035527	-0.194198	0.499911
C35	C	-0.558300	-0.838344	-0.000105
C36	C	-0.058300	-0.338344	0.499895
C37	C	-0.459975	-0.812729	-0.000096
C38	C	0.040025	-0.312729	0.499904
C39	C	-0.399434	-0.727842	-0.000087
C40	C	0.100566	-0.227842	0.499913
C41	C	-0.422207	-0.872000	-0.000099
C42	C	0.077793	-0.372000	0.499901
C43	C	-0.323891	-0.846387	-0.000095
C44	C	0.176109	-0.346387	0.499905
C45	C	-0.263343	-0.761503	-0.000087
C46	C	0.236657	-0.261503	0.499913
C47	C	-0.301118	-0.702229	-0.000082
C48	C	0.198882	-0.202229	0.499918
C49	C	-0.482750	-0.956887	-0.000114
C50	C	0.017250	-0.456887	0.499886
C51	C	-0.444981	-1.016158	-0.000117
C52	C	0.055019	-0.516158	0.499883
C53	C	-0.346663	-0.990545	-0.000107
C54	C	0.153337	-0.490545	0.499893
C55	C	-0.286116	-0.905661	-0.000100
C56	C	0.213884	-0.405661	0.499900
C57	C	-0.308889	-1.049819	-0.000112
C58	C	0.191111	-0.549819	0.499888
C59	C	-0.210573	-1.024206	-0.000107
C60	C	0.289427	-0.524206	0.499893
C61	C	-0.187800	-0.880048	-0.000095
C62	C	0.312200	-0.380048	0.499905
C63	C	0.299297	-0.806321	-0.000102
C64	C	0.799297	-0.306321	0.499898
C65	C	0.403933	-0.779068	-0.000101
C66	C	0.903933	-0.279068	0.499899
C67	C	0.119752	-0.999546	-0.000117
C68	C	0.619752	-0.499546	0.499883
C69	C	0.121419	-1.083109	-0.000122
C70	C	0.621419	-0.583109	0.499878
C71	C	0.217584	-0.563403	-0.000077
C72	C	0.717584	-0.063403	0.499923
C73	C	0.216012	-0.484889	-0.000087
C74	C	0.716012	0.015111	0.499913
C75	C	0.129337	-0.478252	-0.000092
C76	C	0.629337	0.021748	0.499908
C77	C	0.044228	-0.550134	-0.000095
C78	C	0.544228	-0.050134	0.499905
C79	C	0.045801	-0.628646	-0.000090
C80	C	0.545801	-0.128646	0.499910
C81	C	0.037882	-0.233505	-0.000115
C82	C	0.537882	0.266495	0.499885
C83	C	0.036316	-0.154985	-0.000117
C84	C	0.536316	0.345015	0.499883
C85	C	0.208094	-0.089748	-0.000111
C86	C	0.708094	0.410252	0.499889
C87	C	0.209667	-0.168260	-0.000107
C88	C	0.709667	0.331740	0.499893
C89	C	0.124558	-0.240135	-0.000114
C90	C	0.624558	0.259865	0.499886
C91	C	0.126264	-0.325269	-0.000104
C92	C	0.626264	0.174731	0.499896
C93	C	0.127630	-0.393120	-0.000096
C94	C	0.627630	0.106880	0.499904
C95	C	0.062756	-0.928316	-0.751823
C96	C	0.562756	-0.428316	-0.251823
C97	C	0.062763	-0.928310	-0.668371
C98	C	0.562763	-0.428310	-0.168371
C99	C	0.126941	-0.859211	-0.626651
C100	C	0.626941	-0.359211	-0.126651
C101	C	0.191124	-0.790116	-0.668389
C102	C	0.691124	-0.290116	-0.168389
C103	C	0.191121	-0.790125	-0.751839
C104	C	0.691121	-0.290125	-0.251839
C105	C	0.191138	-0.790080	-0.331841
C106	C	0.691138	-0.290080	0.168159
C107	C	0.191134	-0.790075	-0.248385
C108	C	0.691134	-0.290075	0.251615
C109	C	0.062780	-0.928265	-0.248373
C110	C	0.562780	-0.428265	0.251627
C111	C	0.062777	-0.928274	-0.331824
C112	C	0.562777	-0.428274	0.168176
C113	C	0.126962	-0.859181	-0.373553
C114	C	0.626962	-0.359181	0.126447
C115	C	0.126955	-0.859189	-0.464042
C116	C	0.626955	-0.359189	0.035958
C117	C	0.126944	-0.859200	-0.536165
C118	C	0.626944	-0.359200	-0.036165
N119	N	0.126932	-0.859225	0.206446
N120	N	0.626932	-0.359225	0.706446
H121	H	-0.183289	-0.740650	-0.000088
H122	H	0.316711	-0.240650	0.499912
N123	N	0.260361	-0.715540	-0.203391
N124	N	0.760361	-0.215540	0.296609
H125	H	0.327247	-0.705883	-0.217910
H126	H	0.827247	-0.205883	0.282090
H127	H	0.250537	-0.726067	-0.144207
H128	H	0.750537	-0.226067	0.355793
H129	H	-0.494287	-1.085273	-0.000128
H130	H	0.005713	-0.585273	0.499872
N131	N	-0.049258	-0.542977	-0.000093
N132	N	0.450742	-0.042977	0.499907
H133	H	-0.102931	-0.600426	-0.000094
H134	H	0.397069	-0.100426	0.499906
H135	H	-0.053651	-0.511822	-0.049241
H136	H	0.446349	-0.011822	0.450759
N137	N	-0.374190	-1.141372	-0.000137
N138	N	0.125810	-0.641372	0.499863
H139	H	-0.442204	-1.148604	-0.000146
H140	H	0.057796	-0.648604	0.499854
H141	H	-0.361993	-1.168385	0.049007
H142	H	0.138007	-0.668385	0.549007
H143	H	0.277393	-0.031216	-0.000110
H144	H	0.777393	0.468784	0.499890
H145	H	-0.251821	-0.633105	-0.000069
H146	H	0.248179	-0.133105	0.499931
N147	N	-0.371894	-0.577014	-0.000061
N148	N	0.128106	-0.077014	0.499939
H149	H	-0.410736	-0.543349	-0.000055
H150	H	0.089264	-0.043349	0.499945
H151	H	-0.330599	-0.563237	-0.049206
H152	H	0.169401	-0.063237	0.450794
H153	H	-0.562804	-0.977738	-0.000111
H154	H	-0.062804	-0.477738	0.499889
H155	H	0.243398	-0.733821	-0.365811
H156	H	0.743398	-0.233821	0.134189
N157	N	-0.006461	-1.002846	-0.796819
N158	N	0.493539	-0.502846	-0.296819
H159	H	-0.073349	-1.012513	-0.782294
H160	H	0.426651	-0.512513	-0.282294
H161	H	0.004402	-1.053547	-0.782269
H162	H	0.504402	-0.553547	-0.282269
N163	N	-0.169828	-1.088129	-0.000115
N164	N	0.330172	-0.588129	0.499885
H165	H	-0.223098	-1.145790	-0.000119
H166	H	0.276902	-0.645790	0.499881
H167	H	-0.129535	-1.080646	0.049034
H168	H	0.370465	-0.580646	0.549034
H169	H	-0.566272	-0.645927	-0.000098
H170	H	-0.066272	-0.145927	0.499902
H171	H	-0.031418	-0.292019	-0.000121
H172	H	0.468582	0.207981	0.499879
N173	N	0.311071	-0.570559	-0.000062
N174	N	0.811071	-0.070559	0.499938
H175	H	0.364743	-0.513110	-0.000064
H176	H	0.864743	-0.013110	0.499936
H177	H	0.315472	-0.601714	-0.049206
H178	H	0.815472	-0.101714	0.450794
H179	H	0.285311	-0.426369	-0.000086
H180	H	0.785311	0.073631	0.499914
N181	N	0.303151	-0.175419	-0.000090
N182	N	0.803151	0.324581	0.499910
H183	H	0.356826	-0.117972	-0.000091
H184	H	0.856826	0.382028	0.499909
H185	H	0.307551	-0.206575	-0.049234
H186	H	0.807551	0.293425	0.450766
H187	H	0.010507	-0.984569	-0.634393
H188	H	0.510507	-0.484569	-0.134393
H189	H	0.243384	-0.733855	-0.634416
H190	H	0.743384	-0.233855	-0.134416
N191	N	-0.057174	-0.147825	-0.000123
N192	N	0.442826	0.352175	0.499877
H193	H	-0.110852	-0.205271	-0.000130
H194	H	0.389148	0.294729	0.499870
H195	H	-0.061555	-0.116666	-0.049272
H196	H	0.438445	0.383334	0.450728
H197	H	0.243380	-0.733865	-0.785816
H198	H	0.743380	-0.233865	-0.285816
H199	H	-0.023498	-0.687169	-0.000090
H200	H	0.476502	-0.187169	0.499910
N201	N	-0.006431	-1.002808	-0.376821
N202	N	0.493569	-0.502808	0.123179
H203	H	-0.047079	-1.046581	-0.337721
H204	H	0.452921	-0.546581	0.162279
H205	H	0.029624	-1.026356	-0.411434
H206	H	0.529624	-0.526356	0.088566
N207	N	-0.006461	-1.002785	-0.203365
N208	N	0.493539	-0.502785	0.296635
H209	H	0.003273	-0.992298	-0.144168
H210	H	0.503273	-0.492298	0.355832
H211	H	0.004326	-1.053516	-0.217942
H212	H	0.504326	-0.553516	0.282058
N213	N	-0.623599	-0.929898	-0.000123
N214	N	-0.123599	-0.429898	0.499877
H215	H	-0.691614	-0.937132	-0.000128
H216	H	-0.191614	-0.437132	0.499872
H217	H	-0.611395	-0.956904	0.049023
H218	H	-0.111395	-0.456904	0.549023
H219	H	-0.138503	-0.810924	-0.000082
H220	H	0.361497	-0.310924	0.499918
