data_functionalizedCrystal
_audit_creation_method	'MofGen! by Chris Wilmer'
_symmetry_space_group_name_H-M	'P1'
_symmetry_Int_Tables_number	1
_symmetry_cell_setting	triclinic
loop_
_symmetry_equiv_pos_as_xyz
  x,y,z
_cell_length_a	13.635800
_cell_length_b	7.076076
_cell_length_c	7.190339
_cell_angle_alpha	83.152871
_cell_angle_beta	60.611724
_cell_angle_gamma	62.298680
loop_
_atom_site_label
_atom_site_type_symbol
_atom_site_fract_x
_atom_site_fract_y
_atom_site_fract_z
V1	V	-2.142693	0.663512	0.291705
O2	O	-2.089354	0.652433	-0.017514
O3	O	-2.160494	0.657482	0.581764
O4	O	-2.155306	0.953573	0.285684
O5	O	-2.094579	0.354292	0.280616
V6	V	-2.374294	0.626708	0.254900
O7	O	-2.295609	0.744244	0.372439
O8	O	-2.446477	0.545975	0.174166
O9	O	-2.244890	0.632738	-0.035159
O10	O	-2.486332	0.637787	0.564119
O11	O	-2.481107	0.935928	0.265989
O12	O	-2.250079	0.336647	0.260921
V13	V	-1.874287	0.626708	0.254900
O14	O	-1.922401	0.935928	0.265989
O15	O	-1.861675	0.336647	0.260921
O16	O	-1.856486	0.632738	-0.035159
O17	O	-1.927626	0.637787	0.564119
V18	V	-1.642686	0.663512	0.291705
O19	O	-1.721371	0.545975	0.174166
O20	O	-1.570503	0.744244	0.372439
O21	O	-1.766901	0.953573	0.285684
O22	O	-1.535873	0.354292	0.280616
O23	O	-1.530648	0.652433	-0.017514
O24	O	-1.772090	0.657482	0.581764
C25	C	-1.928088	1.265887	0.271768
C26	C	-1.865323	1.024313	0.274826
C27	C	-2.092031	0.646639	0.652525
C28	C	-2.148517	0.643591	0.894100
C29	C	-2.151645	0.265888	0.271768
C30	C	-2.088876	0.024313	0.274826
C31	C	-1.924955	0.643593	-0.105906
C32	C	-1.868476	0.646668	-0.347477
