data_functionalizedCrystal
_audit_creation_method	'MofGen! by Chris Wilmer'
_symmetry_space_group_name_H-M	'P1'
_symmetry_Int_Tables_number	1
_symmetry_cell_setting	triclinic
loop_
_symmetry_equiv_pos_as_xyz
  x,y,z
_cell_length_a	9.065218
_cell_length_b	19.288864
_cell_length_c	17.766277
_cell_angle_alpha	90.023209
_cell_angle_beta	89.995554
_cell_angle_gamma	95.923934
loop_
_atom_site_label
_atom_site_type_symbol
_atom_site_fract_x
_atom_site_fract_y
_atom_site_fract_z
O1	O	0.184032	-0.922782	-0.062833
O2	O	0.208857	-0.720714	-0.062781
O3	O	-0.018344	-0.825925	-0.062807
O4	O	0.411233	-0.817571	-0.062808
O5	O	-0.018356	-0.825906	0.062382
O6	O	0.208846	-0.720695	0.062407
O7	O	0.184020	-0.922763	0.062355
Cu8	Cu	0.196432	-0.821727	0.073812
Cu9	Cu	0.196445	-0.821750	-0.074238
O10	O	0.411222	-0.817552	0.062381
C11	C	-0.073309	-0.825112	-0.000213
C12	C	-0.237067	-0.822712	-0.000216
C13	C	0.208053	-0.694822	-0.000180
C14	C	0.205655	-0.617700	-0.000161
C15	C	0.184825	-0.948655	-0.000247
C16	C	0.187223	-1.025777	-0.000272
C17	C	0.466186	-0.818365	-0.000214
C18	C	0.629945	-0.820765	-0.000216
C19	C	0.338966	-0.574039	-0.000173
C20	C	0.336713	-0.501574	-0.000181
C21	C	0.201142	-0.472774	-0.000192
C22	C	0.067812	-0.516445	-0.000176
C23	C	0.070069	-0.588908	-0.000160
C24	C	0.094571	-0.363691	-0.044077
C25	C	0.092320	-0.291229	-0.044097
C26	C	0.194176	-0.249274	-0.000238
C27	C	0.298308	-0.279789	0.043632
C28	C	0.300565	-0.352252	0.043648
C29	C	0.198680	-0.394201	-0.000209
C30	C	0.325054	-0.127038	-0.000258
C31	C	0.322796	-0.054572	-0.000262
C32	C	0.053891	-0.069445	-0.000264
C33	C	0.056153	-0.141909	-0.000253
C34	C	0.191739	-0.170701	-0.000253
N35	N	0.196421	-0.821717	0.177942
N36	N	0.196444	-0.821766	-0.178368
C37	C	0.095866	-0.868320	0.217318
C38	C	0.095859	-0.868324	0.296120
C39	C	0.196433	-0.821732	0.335543
C40	C	0.296996	-0.775120	0.296158
C41	C	0.296991	-0.775113	0.217358
C42	C	0.330849	-0.813476	0.460382
C43	C	0.330856	-0.813489	0.539181
C44	C	0.196451	-0.821750	0.578589
C45	C	0.062032	-0.830014	0.539189
C46	C	0.062026	-0.830007	0.460389
C47	C	0.196450	-0.821734	0.420989
C48	C	0.095879	-0.868360	0.703411
C49	C	0.095871	-0.868359	0.782214
C50	C	0.297021	-0.775159	0.782251
C51	C	0.297017	-0.775156	0.703449
C52	C	0.196448	-0.821761	0.664034
H53	H	0.449370	-0.597476	-0.000175
C54	C	-0.085826	-0.839107	0.582524
H55	H	-0.165875	-0.844034	0.547773
H56	H	-0.093807	-0.799376	0.613286
H57	H	-0.089019	-0.879537	0.613241
H58	H	0.440305	-0.806737	0.428302
H59	H	0.013985	-0.906306	0.671318
C60	C	0.407654	-0.723907	0.660130
H61	H	0.393244	-0.730574	0.607554
H62	H	0.506066	-0.732073	0.673037
H63	H	0.391888	-0.677450	0.673066
H64	H	0.007536	-0.266390	-0.079822
H65	H	0.011625	-0.397845	-0.079796
C66	C	0.474185	-0.158716	-0.000249
H67	H	0.456437	-0.208126	-0.000249
H68	H	0.529053	-0.143764	0.043405
H69	H	0.529060	-0.143807	-0.043912
H70	H	0.013971	-0.906275	0.328185
H71	H	-0.047423	-0.836734	0.428313
H72	H	0.013978	-0.906307	0.814274
C73	C	0.407651	-0.723908	0.825606
H74	H	0.393259	-0.730588	0.878177
H75	H	0.391882	-0.677454	0.812718
H76	H	0.506072	-0.732072	0.812682
C77	C	0.483357	-0.453535	-0.000198
H78	H	0.462591	-0.406255	-0.000203
H79	H	0.538968	-0.462379	-0.043853
H80	H	0.538972	-0.462328	0.043465
H81	H	0.440308	-0.806764	0.571255
H82	H	0.385348	-0.377094	0.079371
H83	H	0.378883	-0.737183	0.328260
C84	C	0.407619	-0.723856	0.174039
H85	H	0.393209	-0.730525	0.121463
H86	H	0.506034	-0.732018	0.186946
H87	H	0.391844	-0.677400	0.186974
C88	C	0.410364	-0.233648	0.091875
H89	H	0.394102	-0.186122	0.085589
H90	H	0.508334	-0.240135	0.076453
H91	H	0.397765	-0.246213	0.143348
H92	H	-0.038493	-0.624457	-0.000151
C93	C	0.469446	-0.006544	-0.000275
H94	H	0.550512	-0.034073	-0.000280
H95	H	0.474162	0.022056	0.043375
H96	H	0.474148	0.022008	-0.043942
H97	H	-0.052404	-0.177459	-0.000247
C98	C	-0.095236	-0.037773	-0.000281
H99	H	-0.077489	0.011637	-0.000298
H100	H	-0.150121	-0.052680	0.043374
H101	H	-0.150093	-0.052728	-0.043943
H102	H	-0.042571	-0.492991	-0.000196
C103	C	-0.014771	-0.919575	0.173966
H104	H	-0.074669	-0.947326	0.208707
H105	H	0.038132	-0.948816	0.143203
H106	H	-0.076058	-0.894198	0.143248
