data_functionalizedCrystal
_audit_creation_method	'MofGen! by Chris Wilmer'
_symmetry_space_group_name_H-M	'P1'
_symmetry_Int_Tables_number	1
_symmetry_cell_setting	triclinic
loop_
_symmetry_equiv_pos_as_xyz
  x,y,z
_cell_length_a	16.109318
_cell_length_b	10.489716
_cell_length_c	14.586319
_cell_angle_alpha	90.000245
_cell_angle_beta	90.000075
_cell_angle_gamma	83.998849
loop_
_atom_site_label
_atom_site_type_symbol
_atom_site_fract_x
_atom_site_fract_y
_atom_site_fract_z
O1	O	1.104124	0.164054	-0.076156
O2	O	0.862188	0.184434	-0.076173
O3	O	0.988672	-0.011435	-0.076167
O4	O	0.977640	0.359924	-0.076162
O5	O	0.988663	-0.011438	0.076313
O6	O	0.862179	0.184431	0.076308
O7	O	1.104115	0.164051	0.076325
Cu8	Cu	0.983146	0.174241	0.090239
Cu9	Cu	0.983157	0.174244	-0.090087
O10	O	0.977631	0.359921	0.076319
C11	C	0.831204	0.183603	0.000065
C12	C	0.738894	0.181117	0.000058
C13	C	0.439776	0.173087	-0.083044
C14	C	0.526512	0.175415	-0.083049
C15	C	0.526521	0.175394	0.083194
C16	C	0.439788	0.173057	0.083198
C17	C	0.396417	0.171910	0.000077
C18	C	0.569886	0.176575	0.000067
C19	C	0.663928	0.179099	0.000061
C20	C	0.302369	0.169384	0.000082
C21	C	0.987838	-0.058957	0.000070
C22	C	0.985358	-0.200552	0.000062
C23	C	1.062922	-0.299344	0.000076
C24	C	1.021940	-0.376112	-0.075106
C25	C	1.021913	-0.376079	0.075228
C26	C	0.944409	-0.275456	-0.075182
C27	C	0.944394	-0.275417	0.075220
C28	C	0.903355	-0.352136	0.000020
C29	C	1.135099	0.164882	0.000085
C30	C	1.227409	0.167369	0.000086
C31	C	0.978464	0.407442	0.000080
C32	C	0.980944	0.549038	0.000082
N33	N	0.983145	0.174238	0.217071
N34	N	0.983164	0.174238	-0.216919
C35	C	1.039171	0.087536	0.452080
C36	C	1.039173	0.087533	0.548061
C37	C	0.927133	0.260944	0.548065
C38	C	0.927127	0.260940	0.452086
C39	C	0.983151	0.174237	0.404096
C40	C	0.983159	0.174238	0.596056
C41	C	0.983161	0.174235	0.700123
C42	C	0.983148	0.174238	0.300022
H43	H	0.404467	0.172151	-0.150726
H44	H	1.084787	0.016936	0.413008
Br45	Br	1.076516	-0.449394	-0.181039
Br46	Br	1.175370	-0.259831	-0.000037
Br47	Br	0.380938	0.171452	0.196013
H48	H	1.054669	-0.420025	0.138787
H49	H	0.911676	-0.231429	0.138779
Br50	Br	1.115199	-0.030144	0.613181
Br51	Br	0.851088	0.378604	0.386957
H52	H	0.561811	0.176372	-0.150734
H53	H	0.911688	-0.231679	-0.138813
Br54	Br	0.851105	0.378609	0.613198
Br55	Br	0.585385	0.176962	0.195996
H56	H	0.835837	-0.375593	-0.000026
