data_functionalizedCrystal
_audit_creation_method	'MofGen! by Chris Wilmer'
_symmetry_space_group_name_H-M	'P1'
_symmetry_Int_Tables_number	1
_symmetry_cell_setting	triclinic
loop_
_symmetry_equiv_pos_as_xyz
  x,y,z
_cell_length_a	12.645331
_cell_length_b	19.120904
_cell_length_c	12.645330
_cell_angle_alpha	92.417999
_cell_angle_beta	90.016671
_cell_angle_gamma	92.422629
loop_
_atom_site_label
_atom_site_type_symbol
_atom_site_fract_x
_atom_site_fract_y
_atom_site_fract_z
Zn1	Zn	1.595103	-0.397144	-0.447663
Zn2	Zn	1.602563	-0.279706	-0.617380
Zn3	Zn	1.425395	-0.279709	-0.440128
Zn4	Zn	1.417801	-0.397114	-0.624880
O5	O	1.510215	-0.338418	-0.532513
O6	O	1.744439	-0.381577	-0.470191
O7	O	1.585362	-0.181424	-0.587575
O8	O	1.447964	-0.295300	-0.292781
O9	O	1.749920	-0.295295	-0.594881
O10	O	1.572647	-0.381579	-0.298317
O11	O	1.455198	-0.181426	-0.457349
O12	O	1.276042	-0.295272	-0.464621
O13	O	1.435020	-0.495401	-0.607664
O14	O	1.270462	-0.381529	-0.600357
O15	O	1.565282	-0.495423	-0.477463
O16	O	1.577997	-0.295267	-0.766721
O17	O	1.442254	-0.381526	-0.772231
C18	C	1.234787	-0.338398	-0.532486
C19	C	1.116956	-0.338406	-0.532502
C20	C	1.498472	-0.521608	-0.544241
C21	C	1.493467	-0.599673	-0.549239
C22	C	0.952848	-0.284441	-0.446752
C23	C	1.075423	-0.284203	-0.446950
C24	C	1.073741	-0.318189	-0.642872
C25	C	0.951166	-0.317821	-0.642399
C26	C	0.945006	-0.412796	-0.508956
C27	C	1.067639	-0.412383	-0.506435
C28	C	1.558934	-0.636360	-0.483801
C29	C	1.554218	-0.709710	-0.488493
C30	C	1.484042	-0.746371	-0.558628
C31	C	1.418568	-0.709679	-0.624068
C32	C	1.423279	-0.636330	-0.619370
C33	C	1.466421	-0.967836	-0.576200
C34	C	1.461718	-1.041190	-0.580895
C35	C	1.597367	-1.041216	-0.445318
C36	C	1.602076	-0.967866	-0.440630
C37	C	1.536599	-0.931180	-0.506066
C38	C	1.479223	-0.821347	-0.563428
C39	C	1.541413	-0.856206	-0.501260
C40	C	1.786719	-0.338439	-0.532540
C41	C	1.904549	-0.338448	-0.532552
C42	C	1.510139	-0.338408	-0.807942
C43	C	1.510201	-0.338428	-0.925773
C44	C	1.521974	-0.155941	-0.520754
C45	C	1.527184	-0.077877	-0.515458
C46	C	1.425132	-0.392861	-1.096858
C47	C	1.424726	-0.392686	-0.974288
C48	C	1.484733	-0.264410	-0.965595
C49	C	1.484213	-0.264740	-1.088215
C50	C	1.621277	-0.357412	-1.094088
C51	C	1.620485	-0.359031	-0.971586
C52	C	1.510320	-0.338443	-0.256009
C53	C	1.510365	-0.338454	-0.138180
H54	H	1.104706	-0.296875	-0.364956
H55	H	1.422089	-0.851204	-0.620538
Cl56	Cl	1.340971	-0.590209	-0.701635
H57	H	0.922575	-0.296976	-0.364501
H58	H	1.639778	-0.413504	-0.945947
H59	H	1.403278	-0.248681	-1.115869
Cl60	Cl	1.111072	-0.435930	-0.381084
Cl61	Cl	1.679672	-1.087339	-0.363057
Cl62	Cl	1.373483	-1.087277	-0.669066
Cl63	Cl	0.896255	-0.474924	-0.605527
Cl64	Cl	1.384107	-0.921726	-0.658463
H65	H	1.361425	-0.739534	-0.681170
H66	H	1.598546	-0.826353	-0.444152
H67	H	1.659224	-0.938021	-0.383522
Cl68	Cl	1.448469	-0.477423	-0.933191
H69	H	1.545055	-0.222765	-0.933753
Cl70	Cl	1.647166	-0.590279	-0.395632
Cl71	Cl	1.110739	-0.477834	-0.596475
Cl72	Cl	1.448585	-0.477878	-1.147753
Cl73	Cl	0.895479	-0.441181	-0.387252
H74	H	1.343319	-0.380461	-1.126958
Cl75	Cl	1.297626	-0.373297	-0.927891
Cl76	Cl	1.636570	-0.755828	-0.406272
Cl77	Cl	1.126123	-0.199139	-0.470430
Cl78	Cl	1.576287	-0.200015	-1.129837
H79	H	1.404670	-0.248060	-0.933928
H80	H	1.645443	-0.410468	-1.128353
H81	H	1.107866	-0.264420	-0.663894
Cl82	Cl	0.912350	-0.233905	-0.674154
Cl83	Cl	0.910659	-0.199880	-0.469927
Cl84	Cl	1.723107	-0.302310	-0.920603
H85	H	0.919094	-0.355442	-0.708234
H86	H	1.100451	-0.356291	-0.708301
Cl87	Cl	1.719232	-0.296244	-1.134923
