data_functionalizedCrystal
_audit_creation_method	'MofGen! by Chris Wilmer'
_symmetry_space_group_name_H-M	'P1'
_symmetry_Int_Tables_number	1
_symmetry_cell_setting	triclinic
loop_
_symmetry_equiv_pos_as_xyz
  x,y,z
_cell_length_a	6.817900
_cell_length_b	17.982959
_cell_length_c	11.168136
_cell_angle_alpha	94.260762
_cell_angle_beta	108.508683
_cell_angle_gamma	102.451857
loop_
_atom_site_label
_atom_site_type_symbol
_atom_site_fract_x
_atom_site_fract_y
_atom_site_fract_z
V1	V	-4.079252	-0.105424	-0.394227
O2	O	-4.070935	0.005054	-0.386179
O3	O	-4.025439	-0.209027	-0.392052
O4	O	-4.056012	-0.103808	-0.565924
O5	O	-4.040150	-0.100893	-0.211104
V6	V	-4.560321	-0.092209	-0.372260
O7	O	-4.345893	-0.134412	-0.442412
O8	O	-4.743877	-0.063221	-0.324075
O9	O	-4.390928	0.011394	-0.374435
O10	O	-4.686035	-0.202687	-0.380307
O11	O	-4.716820	-0.096740	-0.555383
O12	O	-4.360354	-0.093825	-0.200562
C13	C	-3.868309	-0.234283	-0.385968
C14	C	-3.905765	-0.318979	-0.385334
C15	C	-3.907307	-0.100064	-0.607757
C16	C	-3.969553	-0.099428	-0.748124
C17	C	-4.106204	-0.362651	-0.391355
C18	C	-4.141390	-0.442233	-0.390767
C19	C	-3.976129	-0.478141	-0.384150
C20	C	-3.775675	-0.434464	-0.378133
C21	C	-3.740496	-0.354884	-0.378730
C22	C	-3.917543	-0.755400	-0.375728
C23	C	-3.952736	-0.834985	-0.375128
C24	C	-4.318436	-0.842748	-0.387765
C25	C	-4.283258	-0.763168	-0.388362
C26	C	-4.082811	-0.719499	-0.382352
C27	C	-4.044662	-0.633207	-0.382991
C28	C	-4.014271	-0.564430	-0.383501
C29	C	-4.171094	-0.102758	-0.816833
C30	C	-4.235433	-0.102101	-0.961910
C31	C	-4.211399	0.036646	-0.380516
C32	C	-4.153183	0.121342	-0.381157
C33	C	-4.172401	-0.097571	-0.158723
C34	C	-4.089393	-0.098203	-0.018354
H35	H	-4.240778	-0.333419	-0.396731
O36	O	-3.545933	-0.312448	-0.373104
C37	C	-3.347805	-0.228399	-0.476362
C38	C	-3.568270	-0.276440	-0.482901
H39	H	-3.365796	-0.199262	-0.565108
H40	H	-3.235672	-0.267704	-0.471606
H41	H	-3.278743	-0.182622	-0.387466
H42	H	-3.637521	-0.322222	-0.571788
H43	H	-3.680256	-0.237087	-0.487587
H44	H	-3.641123	-0.463707	-0.372753
O45	O	-3.820648	-0.095345	-0.806185
C46	C	-3.637149	-0.023923	-0.930245
C47	C	-3.805880	-0.028462	-0.864579
H48	H	-3.625122	0.030156	-0.977451
H49	H	-3.685842	-0.076984	-1.005872
H50	H	-3.475442	-0.021556	-0.855938
H51	H	-3.967646	-0.030804	-0.938792
H52	H	-3.757005	0.024598	-0.788928
O53	O	-4.441403	-0.105601	-1.032527
C54	C	-4.757065	-0.175674	-1.206499
C55	C	-4.523799	-0.171793	-1.126641
H56	H	-4.823767	-0.229194	-1.282591
H57	H	-4.763221	-0.122053	-1.254556
H58	H	-4.856950	-0.178672	-1.141398
H59	H	-4.423774	-0.168820	-1.191654
H60	H	-4.517808	-0.225414	-1.078570
H61	H	-4.296005	-0.106091	-0.768251
H62	H	-4.417831	-0.733935	-0.393743
H63	H	-4.481654	-0.878313	-0.392661
O64	O	-4.335915	-0.484709	-0.396408
C65	C	-4.534034	-0.568652	-0.293017
C66	C	-4.313592	-0.520600	-0.286495
H67	H	-4.516068	-0.597670	-0.204150
H68	H	-4.603209	-0.614512	-0.381806
H69	H	-4.646061	-0.529297	-0.297889
H70	H	-4.201404	-0.559894	-0.281574
H71	H	-4.244592	-0.474733	-0.197719
O72	O	-3.792151	-0.869882	-0.368484
C73	C	-3.565904	-0.944921	-0.250568
C74	C	-3.747731	-0.905419	-0.257922
H75	H	-3.529965	-0.973676	-0.161201
H76	H	-3.416492	-0.900065	-0.246294
H77	H	-3.616757	-0.990313	-0.338833
H78	H	-3.697082	-0.860031	-0.169679
H79	H	-3.897099	-0.950319	-0.262260
O80	O	-3.722832	-0.712891	-0.369702
C81	C	-3.416975	-0.608235	-0.253019
C82	C	-3.637498	-0.656306	-0.259713
H83	H	-3.347897	-0.562485	-0.164086
H84	H	-3.434710	-0.579079	-0.341736
H85	H	-3.304987	-0.647596	-0.248239
H86	H	-3.749602	-0.616997	-0.264452
H87	H	-3.619595	-0.685470	-0.170997
O88	O	-3.883537	-0.094925	-0.947820
C89	C	-3.643042	-0.157567	-0.808865
C90	C	-3.876271	-0.161358	-0.888670
H91	H	-3.637086	-0.211278	-0.761042
H92	H	-3.576196	-0.104135	-0.732587
H93	H	-3.543154	-0.154501	-0.873969
H94	H	-3.976330	-0.164453	-0.823668
H95	H	-3.942947	-0.214781	-0.964959
