data_functionalizedCrystal
_audit_creation_method	'MofGen! by Chris Wilmer'
_symmetry_space_group_name_H-M	'P1'
_symmetry_Int_Tables_number	1
_symmetry_cell_setting	triclinic
loop_
_symmetry_equiv_pos_as_xyz
  x,y,z
_cell_length_a	16.120530
_cell_length_b	18.050590
_cell_length_c	16.120297
_cell_angle_alpha	87.128980
_cell_angle_beta	89.871860
_cell_angle_gamma	87.114013
loop_
_atom_site_label
_atom_site_type_symbol
_atom_site_fract_x
_atom_site_fract_y
_atom_site_fract_z
Zn1	Zn	1.247477	-0.376250	0.534553
Zn2	Zn	1.747477	0.123750	1.034553
Zn3	Zn	1.254440	-0.494475	0.395492
Zn4	Zn	1.754440	0.005525	0.895492
Zn5	Zn	1.115466	-0.363700	0.388471
Zn6	Zn	1.615466	0.136300	0.888471
Zn7	Zn	1.108396	-0.493791	0.527461
Zn8	Zn	1.608396	0.006209	1.027461
O9	O	1.181445	-0.432054	0.461494
O10	O	1.681445	0.067946	0.961494
O11	O	1.364768	-0.397471	0.522012
O12	O	1.864768	0.102529	1.022012
O13	O	1.241877	-0.472162	0.278195
O14	O	1.741877	0.027838	0.778195
O15	O	1.133023	-0.261444	0.407879
O16	O	1.633023	0.238556	0.907879
O17	O	1.369883	-0.484330	0.419845
O18	O	1.869883	0.015670	0.919845
O19	O	1.230011	-0.270664	0.515205
O20	O	1.730011	0.229336	1.015205
O21	O	1.139774	-0.376082	0.273037
O22	O	1.639774	0.123918	0.773037
O23	O	0.998162	-0.375419	0.401003
O24	O	1.498162	0.124581	0.901003
O25	O	1.120973	-0.483165	0.644767
O26	O	1.620973	0.016835	1.144767
O27	O	0.992967	-0.470996	0.503118
O28	O	1.492967	0.029004	1.003118
O29	O	1.223155	-0.396808	0.649978
O30	O	1.723155	0.103192	1.149978
O31	O	1.235022	-0.598305	0.412968
O32	O	1.735022	-0.098305	0.912968
O33	O	1.127724	-0.597803	0.509925
O34	O	1.627724	-0.097803	1.009925
C35	C	0.965392	-0.421772	0.450529
C36	C	1.465392	0.078228	0.950529
C37	C	0.872962	-0.417392	0.445858
C38	C	1.372962	0.082608	0.945858
C39	C	0.703732	-0.409378	0.437337
C40	C	1.203732	0.090622	0.937337
C41	C	0.659995	-0.454787	0.485712
C42	C	1.159995	0.045213	0.985712
C43	C	0.565830	-0.450328	0.480971
C44	C	1.065830	0.049672	0.980971
C45	C	0.797906	-0.413836	0.442077
C46	C	1.297906	0.086164	0.942077
C47	C	1.181383	-0.625002	0.461458
C48	C	1.681383	-0.125002	0.961458
C49	C	1.181431	-0.707550	0.461474
C50	C	1.681431	-0.207550	0.961474
C51	C	1.239891	-0.907256	0.408832
C52	C	1.739891	-0.407256	0.908832
C53	C	1.256356	-0.960809	0.485754
C54	C	1.756356	-0.460809	0.985754
C55	C	1.181476	-0.858684	0.461510
C56	C	1.681476	-0.358684	0.961510
C57	C	1.165094	-0.952218	0.384626
C58	C	1.665094	-0.452218	0.884626
C59	C	1.181522	-1.004673	0.461537
C60	C	1.681522	-0.504673	0.961537
C61	C	1.197978	-0.911154	0.538473
C62	C	1.697978	-0.411154	1.038473
C63	C	1.106684	-0.902555	0.437293
C64	C	1.606684	-0.402555	0.937293
C65	C	1.123117	-0.956086	0.514265
C66	C	1.623117	-0.456086	1.014265
C67	C	1.181452	-0.774584	0.461493
C68	C	1.681452	-0.274584	0.961493
C69	C	1.181546	-1.088771	0.461563
C70	C	1.681546	-0.588771	0.961563
C71	C	1.398342	-0.442377	0.472503
C72	C	1.898342	0.057623	0.972503
C73	C	1.490770	-0.446776	0.477194
C74	C	1.990770	0.053224	0.977194
C75	C	1.170499	-0.441310	0.678388
C76	C	1.670499	0.058690	1.178388
C77	C	1.165834	-0.445254	0.770815
C78	C	1.665834	0.054746	1.270815
C79	C	1.181529	-0.238355	0.461550
C80	C	1.681529	0.261645	0.961550
C81	C	1.181565	-0.155812	0.461574
C82	C	1.681565	0.344188	0.961574
C83	C	1.192396	-0.422783	0.245447
C84	C	1.692396	0.077217	0.745447
C85	C	1.197222	-0.418637	0.153028
C86	C	1.697222	0.081363	0.653028
C87	C	1.157287	-0.452437	0.940040
C88	C	1.657287	0.047563	1.440040
C89	C	1.205767	-0.411456	0.983809
C90	C	1.705767	0.088544	1.483809
C91	C	1.201011	-0.415453	1.077971
C92	C	1.701011	0.084547	1.577971
C93	C	1.162042	-0.448441	0.845869
C94	C	1.662042	0.051559	1.345869
H95	H	0.693272	-0.497010	0.530690
H96	H	1.193272	0.002990	1.030690
C97	C	1.096393	-0.503886	0.984952
C98	C	1.596393	-0.003886	1.484952
N99	N	1.050530	-0.542638	1.018790
N100	N	1.550530	-0.042638	1.518790
H101	H	0.670458	-0.367158	0.392364
H102	H	1.170458	0.132842	0.892364
C103	C	1.341829	-0.995187	0.513445
C104	C	1.841829	-0.495187	1.013445
N105	N	1.406209	-1.021079	0.534297
N106	N	1.906209	-0.521079	1.034297
H107	H	1.250842	-0.373368	0.950563
H108	H	1.750842	0.126632	1.450563
H109	H	1.043433	-0.877095	0.416771
H110	H	1.543433	-0.377095	0.916771
H111	H	1.289303	-0.885812	0.364334
H112	H	1.789303	-0.385812	0.864334
H113	H	1.211787	-0.893067	0.603556
H114	H	1.711787	-0.393067	1.103556
H115	H	1.073735	-0.977400	0.558879
H116	H	1.573735	-0.477400	1.058879
H117	H	1.151219	-0.970396	0.319595
H118	H	1.651219	-0.470396	0.819595
