data_functionalizedCrystal
_audit_creation_method	'MofGen! by Chris Wilmer'
_symmetry_space_group_name_H-M	'P1'
_symmetry_Int_Tables_number	1
_symmetry_cell_setting	triclinic
loop_
_symmetry_equiv_pos_as_xyz
  x,y,z
_cell_length_a	12.811457
_cell_length_b	10.540539
_cell_length_c	11.295483
_cell_angle_alpha	94.138588
_cell_angle_beta	91.289320
_cell_angle_gamma	84.283253
loop_
_atom_site_label
_atom_site_type_symbol
_atom_site_fract_x
_atom_site_fract_y
_atom_site_fract_z
O1	O	1.390323	0.175360	0.051126
O2	O	1.087198	0.191141	0.018389
O3	O	1.245676	-0.001432	0.035505
O4	O	1.231845	0.367932	0.034009
O5	O	1.231756	0.015456	0.232053
O6	O	1.073278	0.208028	0.214936
O7	O	1.376403	0.192248	0.247673
Cu8	Cu	1.223569	0.201680	0.249251
Cu9	Cu	1.240031	0.181708	0.016811
O10	O	1.217925	0.384820	0.230556
C11	C	1.041423	0.198183	0.112470
C12	C	0.925767	0.193991	0.099979
C13	C	0.693260	0.204502	0.290808
C14	C	0.584591	0.200563	0.279077
C15	C	0.599757	0.182165	0.064789
C16	C	0.708426	0.186104	0.076520
C17	C	0.755174	0.197275	0.189533
C18	C	0.863845	0.201222	0.201262
C19	C	0.879009	0.182815	-0.013025
C20	C	0.770340	0.178876	-0.024755
C21	C	1.237679	-0.040295	0.133665
C22	C	1.234576	-0.181254	0.133323
C23	C	1.115694	-0.365141	0.120040
C24	C	1.118809	-0.218473	0.120822
C25	C	1.282339	-0.233071	0.251579
C26	C	1.278382	-0.379621	0.251246
C27	C	1.296566	-0.399335	0.027990
C28	C	1.297737	-0.252477	0.026621
C29	C	1.422178	0.185205	0.153589
C30	C	1.537835	0.189397	0.166072
C31	C	1.225922	0.423683	0.132394
C32	C	1.229025	0.564642	0.132728
N33	N	1.211999	0.215726	0.412737
N34	N	1.251610	0.167652	-0.146675
C35	C	1.334901	0.066468	0.675301
C36	C	1.326165	0.077092	0.799021
C37	C	1.185785	0.247591	0.783899
C38	C	1.194521	0.236967	0.660179
C39	C	1.269083	0.146404	0.605885
C40	C	1.277824	0.135787	0.482163
C41	C	1.137440	0.306279	0.467043
C42	C	1.128703	0.316903	0.590763
H43	H	1.080669	-0.182939	0.035631
H44	H	1.380237	-0.446329	0.036265
N45	N	1.411049	-0.026032	0.619814
N46	N	1.418837	-0.035507	0.509349
H47	H	1.472618	-0.100837	0.470160
N48	N	1.070222	0.387942	0.396118
N49	N	1.078038	0.378457	0.285657
H50	H	1.030572	0.436135	0.235564
H51	H	0.901904	0.210326	0.293282
H52	H	0.534183	0.206456	0.361546
H53	H	0.732263	0.169775	-0.116767
H54	H	0.731321	0.213614	0.382827
H55	H	0.929431	0.176938	-0.095491
H56	H	0.561678	0.173049	-0.027220
N57	N	1.056269	-0.157609	0.215946
N58	N	1.010189	-0.223450	0.281968
H59	H	0.966019	-0.180466	0.349156
H60	H	1.075664	-0.400819	0.034613
N61	N	1.051473	-0.394601	0.214301
N62	N	1.076827	-0.366635	0.319763
H63	H	1.031479	-0.387445	0.386342
N64	N	1.219274	-0.406126	0.350922
N65	N	1.181225	-0.316470	0.420246
H66	H	1.139478	-0.335181	0.490644
H67	H	1.379759	0.011999	0.855537
H68	H	1.125071	0.321317	0.828121
N69	N	1.226363	-0.170796	0.351108
N70	N	1.151285	-0.088245	0.335242
H71	H	1.111745	-0.044264	0.405531
N72	N	1.404229	-0.222470	0.029568
N73	N	1.477394	-0.309411	0.037180
H74	H	1.552608	-0.288219	0.039273
N75	N	1.382375	-0.438866	0.268930
N76	N	1.457641	-0.371942	0.281486
H77	H	1.531086	-0.413777	0.293984
H78	H	1.367060	-0.210056	0.264933
H79	H	1.338538	0.062049	0.437959
N80	N	1.257120	-0.448272	-0.083798
N81	N	1.178741	-0.510301	-0.087629
H82	H	1.150873	-0.544866	-0.166574
N83	N	1.254034	-0.210252	-0.083054
N84	N	1.176664	-0.128015	-0.082726
H85	H	1.145795	-0.098186	-0.160182
H86	H	1.067994	0.390635	0.634983
