data_functionalizedCrystal
_audit_creation_method	'MofGen! by Chris Wilmer'
_symmetry_space_group_name_H-M	'P1'
_symmetry_Int_Tables_number	1
_symmetry_cell_setting	triclinic
loop_
_symmetry_equiv_pos_as_xyz
  x,y,z
_cell_length_a	11.792241
_cell_length_b	10.654565
_cell_length_c	10.868271
_cell_angle_alpha	89.990012
_cell_angle_beta	90.005281
_cell_angle_gamma	95.657633
loop_
_atom_site_label
_atom_site_type_symbol
_atom_site_fract_x
_atom_site_fract_y
_atom_site_fract_z
O1	O	0.159505	-1.667378	0.102486
O2	O	0.174675	-1.301859	0.102452
O3	O	0.001941	-1.493489	0.102461
O4	O	0.332240	-1.475749	0.102477
O5	O	0.001934	-1.493473	-0.102184
O6	O	0.174668	-1.301843	-0.102192
O7	O	0.159498	-1.667362	-0.102159
Zn8	Zn	0.167082	-1.484600	-0.134667
Zn9	Zn	0.167091	-1.484621	0.134961
O10	O	0.332233	-1.475733	-0.102168
C11	C	0.173554	-1.255057	0.000126
C12	C	0.170210	-1.115624	0.000113
C13	C	0.168647	-1.050089	-0.111433
C14	C	0.165514	-0.919076	-0.111419
C15	C	0.165513	-0.919143	0.111696
C16	C	0.168638	-1.050155	0.111681
C17	C	0.170220	-1.115558	-0.223001
C18	C	0.168658	-1.050023	-0.334555
C19	C	0.165525	-0.919010	-0.334541
C20	C	0.163954	-0.853532	-0.222973
C21	C	-0.040356	-1.492367	0.000139
C22	C	-0.166378	-1.489031	0.000140
C23	C	-0.397105	-1.482898	0.000160
C24	C	-0.268711	-1.486306	0.000149
C25	C	0.374530	-1.476855	0.000157
C26	C	0.500551	-1.480190	0.000164
C27	C	0.160617	-0.714165	0.000158
C28	C	0.163953	-0.853599	0.000142
N29	N	0.167075	-1.484595	-0.318682
C30	C	0.167089	-1.484615	-0.569688
C31	C	0.167085	-1.484600	-0.430010
N32	N	0.167089	-1.484636	0.318975
H33	H	0.164237	-0.865820	0.202530
N34	N	0.173585	-1.256865	-0.223007
H35	H	0.244571	-1.278743	-0.179200
H36	H	0.174296	-1.288308	-0.310638
N37	N	0.163825	-0.848323	-0.454852
H38	H	0.165294	-0.909682	-0.525526
H39	H	0.232764	-0.784270	-0.459700
H40	H	0.169916	-1.103514	0.202511
N41	N	0.170356	-1.120631	-0.454887
H42	H	0.099575	-1.107514	-0.503661
H43	H	0.172624	-1.213542	-0.437874
N44	N	0.160560	-0.712226	-0.222953
H45	H	0.159802	-0.680643	-0.310547
H46	H	0.230046	-0.671083	-0.179091
