data_functionalizedCrystal
_audit_creation_method	'MofGen! by Chris Wilmer'
_symmetry_space_group_name_H-M	'P1'
_symmetry_Int_Tables_number	1
_symmetry_cell_setting	triclinic
loop_
_symmetry_equiv_pos_as_xyz
  x,y,z
_cell_length_a	14.519709
_cell_length_b	11.295483
_cell_length_c	12.837942
_cell_angle_alpha	94.530417
_cell_angle_beta	89.254543
_cell_angle_gamma	85.893203
loop_
_atom_site_label
_atom_site_type_symbol
_atom_site_fract_x
_atom_site_fract_y
_atom_site_fract_z
O1	O	-1.241201	0.098852	-0.128950
O2	O	-0.974110	0.098892	-0.144952
O3	O	-1.101733	0.098866	0.013962
O4	O	-1.113578	0.098879	-0.287864
O5	O	-1.090521	-0.099183	0.000026
O6	O	-0.962898	-0.099157	-0.158889
O7	O	-1.229990	-0.099196	-0.142886
Cu8	Cu	-1.095420	-0.117260	-0.152160
Cu9	Cu	-1.108679	0.116955	-0.135679
O10	O	-1.102367	-0.099170	-0.301801
C11	C	-0.934080	-0.000127	-0.151174
C12	C	-0.831506	-0.000112	-0.148938
N13	N	-1.086102	-0.281994	-0.163751
C14	C	-1.092126	-0.000157	0.045622
C15	C	-1.080192	-0.000154	0.160722
C16	C	-0.455897	-0.000163	-0.140713
C17	C	-0.560403	-0.000148	-0.142997
C18	C	-0.643698	-0.000136	-0.144825
C19	C	-0.748211	-0.000124	-0.147110
C20	C	-0.270020	-0.000171	-0.136664
C21	C	-0.372594	-0.000170	-0.138899
C22	C	-1.185081	-0.531304	-0.040580
C23	C	-1.178046	-0.655966	-0.049347
C24	C	-1.064992	-0.655983	-0.190047
C25	C	-1.072027	-0.531321	-0.181280
C26	C	-1.132075	-0.468986	-0.106545
C27	C	-1.139114	-0.344321	-0.097783
C28	C	-1.026056	-0.344340	-0.238478
C29	C	-1.019021	-0.469003	-0.247245
N30	N	-1.118004	0.281690	-0.124079
C31	C	-1.111974	-0.000144	-0.333460
C32	C	-1.123909	-0.000140	-0.448559
C33	C	-1.223662	-0.000150	0.401414
C34	C	-1.212454	-0.000146	0.509561
C35	C	-1.046567	-0.000134	0.485165
C36	C	-1.057775	-0.000138	0.377018
C37	C	-1.146326	-0.000147	0.335147
C38	C	-1.157533	-0.000160	0.226997
C39	C	-0.991648	-0.000139	0.202604
C40	C	-0.980439	-0.000135	0.310751
H41	H	-1.188010	-0.293569	-0.036933
N42	N	-1.295870	-0.000160	0.581028
H43	H	-1.290763	-0.073576	0.621278
H44	H	-1.299030	0.073305	0.631542
H45	H	-0.982897	-0.293587	-0.292194
H46	H	-0.974474	-0.000114	0.519277
N47	N	-0.908226	-0.000129	0.131132
H48	H	-0.865863	-0.073543	0.139462
H49	H	-0.928836	-0.000090	0.056300
N50	N	-1.249852	-0.464061	0.040010
H51	H	-1.282369	-0.522457	0.080466
H52	H	-1.213435	-0.412342	0.089573
N53	N	-1.235224	-0.723184	0.021792
H54	H	-1.274332	-0.664774	0.070460
H55	H	-1.276569	-0.774893	-0.021649
N56	N	-1.000219	-0.723226	-0.270635
H57	H	-1.003805	-0.811654	-0.266171
H58	H	-1.018562	-0.701446	-0.342686
N59	N	-0.884936	-0.000121	0.355915
H60	H	-0.889568	-0.000118	0.434481
H61	H	-0.846526	-0.073541	0.326524
H62	H	-0.970129	-0.519770	-0.308090
N63	N	-1.253036	-0.000169	0.181831
H64	H	-1.257232	-0.073591	0.132347
H65	H	-1.300269	-0.000123	0.240288
H66	H	-1.295763	-0.000169	0.367322
