data_functionalizedCrystal
_audit_creation_method	'MofGen! by Chris Wilmer'
_symmetry_space_group_name_H-M	'P1'
_symmetry_Int_Tables_number	1
_symmetry_cell_setting	triclinic
loop_
_symmetry_equiv_pos_as_xyz
  x,y,z
_cell_length_a	6.817900
_cell_length_b	9.514063
_cell_length_c	14.858572
_cell_angle_alpha	90.778508
_cell_angle_beta	104.524003
_cell_angle_gamma	118.843314
loop_
_atom_site_label
_atom_site_type_symbol
_atom_site_fract_x
_atom_site_fract_y
_atom_site_fract_z
V1	V	-4.123447	-0.223219	-0.290698
V2	V	-3.873447	0.026781	-0.040698
V3	V	-3.623447	0.276781	0.209302
V4	V	-3.373447	0.526781	0.459302
O5	O	-4.021918	0.009687	-0.284409
O6	O	-3.771918	0.259687	-0.034409
O7	O	-3.521918	0.509687	0.215591
O8	O	-3.271918	0.759687	0.465591
O9	O	-4.158170	-0.441606	-0.289436
O10	O	-3.908170	-0.191606	-0.039436
O11	O	-3.658170	0.058394	0.210564
O12	O	-3.408170	0.308394	0.460564
O13	O	-4.078952	-0.220242	-0.417150
O14	O	-3.828952	0.029758	-0.167150
O15	O	-3.578952	0.279758	0.082850
O16	O	-3.328952	0.529758	0.332850
O17	O	-4.101685	-0.213210	-0.155811
O18	O	-3.851685	0.036790	0.094189
O19	O	-3.601685	0.286790	0.344189
O20	O	-3.351685	0.536790	0.594189
V21	V	-4.595798	-0.195307	-0.274476
V22	V	-4.345798	0.054693	-0.024476
V23	V	-4.095798	0.304693	0.225524
V24	V	-3.845798	0.554693	0.475524
O25	O	-4.409212	-0.284447	-0.326282
O26	O	-4.159212	-0.034447	-0.076282
O27	O	-3.909212	0.215553	0.173718
O28	O	-3.659212	0.465553	0.423718
O29	O	-4.760231	-0.134079	-0.238892
O30	O	-4.510231	0.115921	0.011108
O31	O	-4.260231	0.365921	0.261108
O32	O	-4.010231	0.615921	0.511108
O33	O	-4.337869	0.023080	-0.275737
O34	O	-4.087869	0.273080	-0.025737
O35	O	-3.837869	0.523080	0.224263
O36	O	-3.587869	0.773080	0.474263
O37	O	-4.814724	-0.428213	-0.280765
O38	O	-4.564724	-0.178213	-0.030765
O39	O	-4.314724	0.071787	0.219235
O40	O	-4.064724	0.321787	0.469235
O41	O	-4.734957	-0.205316	-0.409363
O42	O	-4.484957	0.044684	-0.159363
O43	O	-4.234957	0.294684	0.090637
O44	O	-3.984957	0.544684	0.340637
O45	O	-4.417087	-0.198284	-0.148024
O46	O	-4.167087	0.051716	0.101976
O47	O	-3.917087	0.301716	0.351976
O48	O	-3.667087	0.551716	0.601976
C49	C	-4.023266	-0.494829	-0.285038
C50	C	-3.773266	-0.244829	-0.035038
C51	C	-3.523266	0.005171	0.214962
C52	C	-3.273266	0.255171	0.464962
C53	C	-4.132968	-0.673366	-0.284850
C54	C	-3.882968	-0.423366	-0.034850
C55	C	-3.632968	-0.173366	0.215150
C56	C	-3.382968	0.076634	0.465150
C57	C	-3.922213	-0.212456	-0.447948
C58	C	-3.672213	0.037544	-0.197948
C59	C	-3.422213	0.287544	0.052052
C60	C	-3.172213	0.537544	0.302052
C61	C	-3.967667	-0.211467	-0.551328
C62	C	-3.717667	0.038533	-0.301328
C63	C	-3.467667	0.288533	-0.051328
C64	C	-3.217667	0.538533	0.198672
C65	C	-4.134030	-0.207852	-0.929884
C66	C	-3.884030	0.042148	-0.679884
C67	C	-3.634030	0.292148	-0.429884
C68	C	-3.384030	0.542148	-0.179884
C69	C	-4.087734	-0.208858	-0.824558
C70	C	-3.837734	0.041142	-0.574558
C71	C	-3.587734	0.291142	-0.324558
C72	C	-3.337734	0.541142	-0.074558
C73	C	-4.050851	-0.209661	-0.740609
C74	C	-3.800851	0.040339	-0.490609
C75	C	-3.550851	0.290339	-0.240609
C76	C	-3.300851	0.540339	0.009391
C77	C	-4.004551	-0.210664	-0.635276
C78	C	-3.754551	0.039336	-0.385276
C79	C	-3.504551	0.289336	-0.135276
C80	C	-3.254551	0.539336	0.114724
C81	C	-4.136118	0.076295	-0.280133
C82	C	-3.886118	0.326295	-0.030133
C83	C	-3.636118	0.576295	0.219867
C84	C	-3.386118	0.826295	0.469867
C85	C	-4.005654	0.254830	-0.280328
C86	C	-3.755654	0.504830	-0.030328
C87	C	-3.505654	0.754830	0.219672
C88	C	-3.255654	1.004830	0.469672
C89	C	-4.237169	-0.206076	-0.117221
C90	C	-3.987169	0.043924	0.132779
C91	C	-3.737169	0.293924	0.382779
C92	C	-3.487169	0.543924	0.632779
C93	C	-4.170951	-0.207057	-0.013840
C94	C	-3.920951	0.042943	0.236160
C95	C	-3.670951	0.292943	0.486160
C96	C	-3.420951	0.542943	0.736160
H97	H	-4.325886	-0.748475	-0.288565
H98	H	-4.075886	-0.498475	-0.038565
H99	H	-3.825886	-0.248475	0.211435
H100	H	-3.575886	0.001525	0.461435
H101	H	-3.812714	-0.670049	-0.276599
H102	H	-3.562714	-0.420049	-0.026599
H103	H	-3.312714	-0.170049	0.223401
H104	H	-3.062714	0.079951	0.473401
