data_functionalizedCrystal
_audit_creation_method	'MofGen! by Chris Wilmer'
_symmetry_space_group_name_H-M	'P1'
_symmetry_Int_Tables_number	1
_symmetry_cell_setting	triclinic
loop_
_symmetry_equiv_pos_as_xyz
  x,y,z
_cell_length_a	10.654562
_cell_length_b	10.654550
_cell_length_c	14.048226
_cell_angle_alpha	89.994756
_cell_angle_beta	89.990744
_cell_angle_gamma	84.487503
loop_
_atom_site_label
_atom_site_type_symbol
_atom_site_fract_x
_atom_site_fract_y
_atom_site_fract_z
O1	O	1.667835	0.176477	-0.079221
O2	O	1.302359	0.193267	-0.079209
O3	O	1.493500	0.002133	-0.079211
O4	O	1.476694	0.367611	-0.079218
O5	O	1.493477	0.002122	0.079110
O6	O	1.302335	0.193255	0.079113
O7	O	1.667812	0.176466	0.079101
Zn8	Zn	1.485070	0.184859	0.104244
Zn9	Zn	1.485101	0.184874	-0.104352
O10	O	1.476671	0.367599	0.079103
C11	C	1.255549	0.192025	-0.000046
C12	C	1.116107	0.188327	-0.000042
C13	C	1.050564	0.186595	0.086252
C14	C	0.919541	0.183131	0.086236
C15	C	0.919617	0.183134	-0.086375
C16	C	1.050638	0.186590	-0.086358
C17	C	1.050518	0.186599	0.185907
C18	C	0.919496	0.183134	0.185891
C19	C	1.492254	-0.044671	-0.000052
C20	C	1.488563	-0.184114	-0.000055
C21	C	1.601103	-0.263595	-0.000056
C22	C	1.597627	-0.394615	-0.000062
C23	C	1.369059	-0.366662	-0.000063
C24	C	1.372537	-0.235644	-0.000064
C25	C	1.733066	-0.279734	-0.000051
C26	C	1.729589	-0.410755	-0.000058
C27	C	1.714621	0.177708	-0.000064
C28	C	1.854064	0.181406	-0.000074
C29	C	1.477916	0.414403	-0.000058
C30	C	1.481608	0.553847	-0.000061
N31	N	1.485058	0.184848	0.246604
N32	N	1.485122	0.184875	-0.246712
C33	C	1.569723	0.100249	0.296421
C34	C	1.569731	0.100249	0.396079
C35	C	1.485080	0.184853	0.445918
C36	C	1.400407	0.269456	0.396094
C37	C	1.400393	0.269450	0.296438
C38	C	1.400443	0.269465	0.603808
C39	C	1.400458	0.269474	0.703471
C40	C	1.569781	0.100264	0.703449
C41	C	1.569767	0.100258	0.603793
C42	C	1.485095	0.184862	0.553976
H43	H	1.080088	0.278192	0.216827
H44	H	1.638723	0.031377	0.744016
H45	H	1.280895	-0.170935	-0.000076
Cl46	Cl	1.293948	0.375803	0.233812
Cl47	Cl	1.223205	-0.431453	-0.000076
H48	H	1.769480	-0.456391	-0.068418
Cl49	Cl	1.294031	0.375837	0.766118
Cl50	Cl	0.837306	0.180936	-0.194880
Cl51	Cl	1.133035	0.188738	-0.194846
H52	H	1.779301	-0.452518	0.066196
H53	H	1.096772	0.099802	0.224178
Cl54	Cl	1.676154	-0.006112	0.233777
H55	H	1.784690	-0.250369	-0.066306
Cl56	Cl	1.676193	-0.006095	0.541136
Cl57	Cl	1.293992	0.375825	0.541185
Cl58	Cl	1.676167	-0.006107	0.458707
H59	H	1.775077	-0.244110	0.068307
H60	H	1.331476	0.338339	0.436679
H61	H	0.873204	0.269928	0.224148
Cl62	Cl	0.873780	0.041845	0.233840
