data_functionalizedCrystal
_audit_creation_method	'MofGen! by Chris Wilmer'
_symmetry_space_group_name_H-M	'P1'
_symmetry_Int_Tables_number	1
_symmetry_cell_setting	triclinic
loop_
_symmetry_equiv_pos_as_xyz
  x,y,z
_cell_length_a	11.792254
_cell_length_b	15.995292
_cell_length_c	10.868271
_cell_angle_alpha	89.998057
_cell_angle_beta	89.995741
_cell_angle_gamma	83.833607
loop_
_atom_site_label
_atom_site_type_symbol
_atom_site_fract_x
_atom_site_fract_y
_atom_site_fract_z
O1	O	1.505910	0.114817	-0.102312
O2	O	1.839243	0.448150	0.231022
O3	O	2.172576	0.781483	0.564355
O4	O	1.175469	0.126633	-0.102314
O5	O	1.508802	0.459967	0.231020
O6	O	1.842135	0.793300	0.564353
O7	O	1.349756	-0.001124	-0.102315
O8	O	1.683090	0.332209	0.231019
O9	O	2.016423	0.665542	0.564352
O10	O	1.331622	0.242575	-0.102311
O11	O	1.664955	0.575908	0.231022
O12	O	1.998289	0.909241	0.564356
O13	O	1.349742	-0.001129	0.102330
O14	O	1.683075	0.332204	0.435663
O15	O	2.016409	0.665537	0.768997
O16	O	1.175454	0.126628	0.102331
O17	O	1.508788	0.459962	0.435664
O18	O	1.842121	0.793295	0.768998
O19	O	1.505895	0.114812	0.102333
O20	O	1.839229	0.448145	0.435666
O21	O	2.172562	0.781478	0.769000
Zn22	Zn	1.340673	0.120719	0.134824
Zn23	Zn	1.674006	0.454053	0.468157
Zn24	Zn	2.007339	0.787386	0.801490
Zn25	Zn	1.340691	0.120726	-0.134804
Zn26	Zn	1.674025	0.454059	0.198529
Zn27	Zn	2.007358	0.787393	0.531862
O28	O	1.331608	0.242570	0.102334
O29	O	1.664941	0.575903	0.435667
O30	O	1.998274	0.909236	0.769000
C31	C	1.133177	0.125887	0.000008
C32	C	1.466510	0.459220	0.333342
C33	C	1.799844	0.792553	0.666675
C34	C	1.007183	0.123658	0.000007
C35	C	1.340517	0.456992	0.333341
C36	C	1.673850	0.790325	0.666674
C37	C	0.904862	0.121848	0.000002
C38	C	1.238196	0.455182	0.333335
C39	C	1.571529	0.788515	0.666669
C40	C	0.776495	0.119585	0.000001
C41	C	1.109829	0.452918	0.333335
C42	C	1.443162	0.786251	0.666668
C43	C	1.349011	-0.032326	0.000005
C44	C	1.682344	0.301007	0.333338
C45	C	2.015678	0.634341	0.666671
C46	C	1.346798	-0.125289	-0.000005
C47	C	1.680132	0.208044	0.333329
C48	C	2.013465	0.541378	0.666662
C49	C	1.338664	-0.463065	0.000007
C50	C	1.671997	-0.129731	0.333340
C51	C	2.005330	0.203602	0.666673
C52	C	1.464460	-0.439177	0.000465
C53	C	1.797793	-0.105844	0.333798
C54	C	2.131127	0.227490	0.667131
C55	C	1.466851	-0.342491	-0.000001
C56	C	1.800184	-0.009157	0.333332
C57	C	2.133518	0.324176	0.666666
C58	C	1.342700	-0.295490	0.000002
C59	C	1.676034	0.037843	0.333335
C60	C	2.009367	0.371176	0.666668
C61	C	1.279816	-0.324876	-0.116857
C62	C	1.613150	0.008457	0.216477
C63	C	1.946483	0.341791	0.549810
C64	C	1.278302	-0.421673	-0.116950
C65	C	1.611635	-0.088340	0.216383
C66	C	1.944969	0.244993	0.549716
C67	C	1.275717	-0.421548	0.115769
C68	C	1.609050	-0.088215	0.449102
C69	C	1.942383	0.245119	0.782436
C70	C	1.280378	-0.325034	0.117309
C71	C	1.613712	0.008299	0.450642
C72	C	1.947045	0.341632	0.783976
C73	C	1.344975	-0.200784	-0.000005
C74	C	1.678308	0.132550	0.333328
C75	C	2.011641	0.465883	0.666662
C76	C	1.336385	-0.557771	0.000005
C77	C	1.669719	-0.224438	0.333339
C78	C	2.003052	0.108896	0.666672
C79	C	1.548187	0.115559	0.000008
C80	C	1.881520	0.448892	0.333341
C81	C	2.214853	0.782225	0.666675
C82	C	1.674181	0.117787	0.000001
C83	C	2.007514	0.451120	0.333334
C84	C	2.340847	0.784453	0.666668
C85	C	1.332353	0.273771	0.000012
C86	C	1.665686	0.607104	0.333345
C87	C	1.999019	0.940438	0.666679
C88	C	1.334566	0.366734	0.000013
C89	C	1.667899	0.700067	0.333346
C90	C	2.001232	1.033401	0.666680
N91	N	1.340668	0.120714	0.318838
N92	N	1.674001	0.454048	0.652171
N93	N	2.007335	0.787381	0.985504
N94	N	1.340705	0.120724	-0.318819
N95	N	1.674038	0.454058	0.014515
N96	N	2.007372	0.787391	0.347848
C97	C	1.340685	0.120724	0.569844
C98	C	1.674019	0.454057	0.903177
C99	C	2.007352	0.787391	1.236510
C100	C	1.340672	0.120721	0.430166
C101	C	1.674005	0.454054	0.763500
C102	C	2.007339	0.787388	1.096833
H103	H	1.512942	-0.466955	0.084269
H104	H	1.846275	-0.133621	0.417602
H105	H	2.179609	0.199712	0.750936
H106	H	1.315326	-0.449458	0.204348
H107	H	1.648660	-0.116124	0.537681
H108	H	1.981993	0.217209	0.871014
H109	H	1.512684	-0.467972	-0.082869
H110	H	1.846018	-0.134639	0.250464
H111	H	2.179351	0.198694	0.583797
H112	H	1.516403	-0.323857	-0.083916
H113	H	1.849736	0.009476	0.249417
H114	H	2.183069	0.342809	0.582751
N115	N	1.336020	-0.456938	-0.232648
N116	N	1.669353	-0.123605	0.100685
N117	N	2.002687	0.209728	0.434018
H118	H	1.362205	-0.409582	-0.283109
H119	H	1.695539	-0.076248	0.050224
H120	H	2.028872	0.257085	0.383557
H121	H	1.404022	-0.497864	-0.209885
H122	H	1.737356	-0.164531	0.123448
H123	H	2.070689	0.168803	0.456782
N124	N	1.156135	-0.441515	-0.123990
N125	N	1.489469	-0.108182	0.209343
N126	N	1.822802	0.225151	0.542677
H127	H	1.103503	-0.387401	-0.127024
H128	H	1.436837	-0.054068	0.206309
H129	H	1.770170	0.279265	0.539643
H130	H	1.145395	-0.475533	-0.200589
H131	H	1.478728	-0.142199	0.132744
H132	H	1.812061	0.191134	0.466077
N133	N	1.158808	-0.283210	-0.122629
N134	N	1.492141	0.050124	0.210704
N135	N	1.825474	0.383457	0.544038
H136	H	1.120016	-0.303014	-0.198464
H137	H	1.453349	0.030320	0.134870
H138	H	1.786683	0.363653	0.468203
H139	H	1.115943	-0.298541	-0.046876
H140	H	1.449276	0.034793	0.286457
H141	H	1.782610	0.368126	0.619790
H142	H	1.323496	-0.304614	-0.203824
H143	H	1.656830	0.028720	0.129509
H144	H	1.990163	0.362053	0.462842
N145	N	1.532103	-0.316990	0.110943
N146	N	1.865436	0.016343	0.444277
N147	N	2.198770	0.349677	0.777610
H148	H	1.533790	-0.253992	0.110847
H149	H	1.867124	0.079341	0.444180
H150	H	2.200457	0.412674	0.777514
H151	H	1.493487	-0.334400	0.188360
H152	H	1.826820	-0.001066	0.521694
H153	H	2.160153	0.332267	0.855027
H154	H	1.189760	-0.292479	0.124369
H155	H	1.523094	0.040854	0.457702
H156	H	1.856427	0.374187	0.791035
N157	N	1.341017	-0.300166	0.231831
N158	N	1.674350	0.033168	0.565164
N159	N	2.007683	0.366501	0.898498
H160	H	1.408575	-0.269887	0.207840
H161	H	1.741909	0.063447	0.541173
H162	H	2.075242	0.396780	0.874506
H163	H	1.286716	-0.261780	0.283676
H164	H	1.620049	0.071554	0.617010
H165	H	1.953382	0.404887	0.950343
H166	H	1.183121	-0.435962	0.116558
H167	H	1.516454	-0.102629	0.449892
H168	H	1.849788	0.230705	0.783225
