data_functionalizedCrystal
_audit_creation_method	'MofGen! by Chris Wilmer'
_symmetry_space_group_name_H-M	'P1'
_symmetry_Int_Tables_number	1
_symmetry_cell_setting	triclinic
loop_
_symmetry_equiv_pos_as_xyz
  x,y,z
_cell_length_a	17.077404
_cell_length_b	21.295417
_cell_length_c	17.077396
_cell_angle_alpha	89.966808
_cell_angle_beta	89.980499
_cell_angle_gamma	90.030732
loop_
_atom_site_label
_atom_site_type_symbol
_atom_site_fract_x
_atom_site_fract_y
_atom_site_fract_z
Zn1	Zn	1.200013	-0.250605	-0.443817
Zn2	Zn	1.199903	-0.355878	-0.312540
Zn3	Zn	1.068745	-0.250628	-0.312565
Zn4	Zn	1.068695	-0.355841	-0.443764
O5	O	1.134339	-0.303238	-0.378171
O6	O	1.309845	-0.264577	-0.426415
O7	O	1.182479	-0.341942	-0.202697
O8	O	1.086225	-0.162535	-0.330008
O9	O	1.309764	-0.341920	-0.329966
O10	O	1.182667	-0.162519	-0.426439
O11	O	1.086118	-0.264614	-0.202715
O12	O	0.958891	-0.264578	-0.329957
O13	O	1.086140	-0.341857	-0.553618
O14	O	0.958855	-0.341878	-0.426348
O15	O	1.182619	-0.264540	-0.553657
O16	O	1.182431	-0.443963	-0.329915
O17	O	1.086033	-0.443935	-0.426324
C18	C	0.930391	-0.303227	-0.378150
C19	C	0.843141	-0.303237	-0.378159
C20	C	0.802153	-0.343548	-0.428270
C21	C	0.720172	-0.343549	-0.428282
C22	C	0.679182	-0.303242	-0.378180
C23	C	0.720176	-0.262927	-0.328067
C24	C	0.802155	-0.262923	-0.328059
C25	C	0.549306	-0.262940	-0.328086
C26	C	0.467322	-0.262944	-0.328093
C27	C	0.467323	-0.343566	-0.428309
C28	C	0.549302	-0.343562	-0.428301
C29	C	0.590291	-0.303247	-0.378187
C30	C	1.134236	-0.466790	-0.378128
C31	C	1.134264	-0.536758	-0.378136
C32	C	1.184503	-0.569618	-0.327987
C33	C	1.184539	-0.635360	-0.328004
C34	C	1.134323	-0.668240	-0.378163
C35	C	1.084081	-0.635372	-0.428321
C36	C	1.084051	-0.569631	-0.428308
N37	N	1.065655	-0.771506	-0.384140
N38	N	1.065685	-0.833958	-0.384148
C39	C	1.134411	-0.866315	-0.378208
N40	N	1.203107	-0.833862	-0.372244
N41	N	1.203076	-0.771405	-0.372231
C42	C	1.134351	-0.739526	-0.378183
C43	C	1.184694	-0.970461	-0.328075
C44	C	1.184732	-1.036204	-0.328098
C45	C	1.084267	-1.036215	-0.428411
C46	C	1.084236	-0.970473	-0.428392
C47	C	1.134449	-0.937599	-0.378220
C48	C	1.339083	-0.303250	-0.378194
C49	C	1.426333	-0.303255	-0.378203
C50	C	1.134386	-0.303192	-0.582916
C51	C	1.134407	-0.303172	-0.670166
C52	C	1.134464	-0.139048	-0.378232
C53	C	1.134517	-0.069080	-0.378258
C54	C	1.184645	-0.262910	-0.711177
C55	C	1.184654	-0.262889	-0.793158
C56	C	1.134429	-0.303134	-0.834125
C57	C	1.084185	-0.343397	-0.793108
C58	C	1.084172	-0.343415	-0.711129
C59	C	1.084217	-0.343360	-0.963978
C60	C	1.084231	-0.343343	-1.045963
C61	C	1.184699	-0.262834	-1.046007
C62	C	1.184686	-0.262851	-0.964028
C63	C	1.134443	-0.303116	-0.923016
C64	C	1.134337	-0.303239	-0.174224
C65	C	1.134469	-0.303081	-0.086974
H66	H	0.686795	-0.230106	-0.287276
O67	O	0.842002	-0.382769	-0.476828
C68	C	0.889394	-0.423371	-0.432043
H69	H	0.864661	-0.427199	-0.370212
H70	H	0.951535	-0.403902	-0.429379
C71	C	0.921006	-0.484146	-0.546188
C72	C	0.890625	-0.488852	-0.470247
H73	H	0.921769	-0.524537	-0.569755
H74	H	0.889080	-0.456791	-0.576361
H75	H	0.972788	-0.467920	-0.543957
H76	H	0.838841	-0.505070	-0.472480
H77	H	0.922543	-0.516212	-0.440075
O78	O	0.680478	-0.382774	-0.476975
C79	C	0.734236	-0.418344	-0.521200
H80	H	0.792659	-0.420479	-0.489038
H81	H	0.742991	-0.395363	-0.580877
C82	C	0.630455	-0.482735	-0.571844
C83	C	0.702210	-0.485362	-0.532339
H84	H	0.610699	-0.524074	-0.578719
H85	H	0.594236	-0.458770	-0.542051
H86	H	0.637761	-0.463582	-0.621571
H87	H	0.694901	-0.504507	-0.482610
H88	H	0.738426	-0.509332	-0.562124
H89	H	1.043288	-0.376163	-0.826470
H90	H	1.225565	-0.230105	-0.826546
H91	H	0.433949	-0.230115	-0.287304
H92	H	0.582677	-0.230106	-0.287285
O93	O	0.841853	-0.223749	-0.279303
C94	C	0.788097	-0.188164	-0.235094
H95	H	0.729642	-0.213947	-0.232324
H96	H	0.779420	-0.140384	-0.263948
C97	C	0.891855	-0.147340	-0.154969
C98	C	0.820061	-0.179010	-0.151561
H99	H	0.911572	-0.141691	-0.103443
H100	H	0.928072	-0.171312	-0.184755
H101	H	0.884614	-0.107527	-0.179017
H102	H	0.827304	-0.218826	-0.127522
H103	H	0.783846	-0.155045	-0.121769
O104	O	1.035597	-1.068215	-0.477177
C105	C	1.080280	-1.106165	-0.527940
H106	H	1.139787	-1.115988	-0.500310
H107	H	1.088861	-1.080784	-0.586112
C108	C	0.964024	-1.156570	-0.576069
C109	C	1.037109	-1.168639	-0.542130
H110	H	0.937394	-1.195106	-0.584825
H111	H	0.933920	-1.131001	-0.541871
H112	H	0.971185	-1.135418	-0.624542
H113	H	1.029947	-1.189783	-0.493654
H114	H	1.067212	-1.194213	-0.576320
O115	O	1.233612	-0.223785	-1.085811
C116	C	1.311834	-0.237542	-1.065780
H117	H	1.315757	-0.287835	-1.043226
H118	H	1.332377	-0.203804	-1.018214
C119	C	1.359415	-0.168432	-1.166324
C120	C	1.364234	-0.230206	-1.138629
H121	H	1.391738	-0.163905	-1.211259
H122	H	1.306715	-0.159162	-1.179817
H123	H	1.376532	-0.140325	-1.126679
H124	H	1.347107	-0.258312	-1.178270
H125	H	1.416932	-0.239481	-1.125144
O126	O	0.427390	-0.382666	-0.476969
C127	C	0.346244	-0.374037	-0.466225
H128	H	0.335064	-0.325430	-0.440633
H129	H	0.322936	-0.411332	-0.424338
C130	C	0.317922	-0.439590	-0.577074
C131	C	0.304190	-0.379889	-0.545648
H132	H	0.291980	-0.443203	-0.626064
H133	H	0.372591	-0.445406	-0.584311
H134	H	0.298498	-0.470663	-0.542161
H135	H	0.323622	-0.348818	-0.580556
H136	H	0.249523	-0.374068	-0.538418
H137	H	1.225588	-0.230084	-0.930675
O138	O	1.035546	-0.382493	-1.085800
C139	C	1.080202	-0.423136	-1.133232
H140	H	1.142016	-0.427051	-1.108532
H141	H	1.082944	-0.403650	-1.195366
C142	C	0.965858	-0.483754	-1.164816
C143	C	1.041777	-0.488568	-1.134474
H144	H	0.942155	-0.524115	-1.165585
H145	H	0.935771	-0.456371	-1.132862
H146	H	0.968153	-0.467514	-1.216591
H147	H	1.039480	-0.504800	-1.082697
H148	H	1.071863	-0.515955	-1.166420
O149	O	1.233365	-0.667192	-0.279210
C150	C	1.277692	-0.624080	-0.234941
H151	H	1.245525	-0.577240	-0.232187
H152	H	1.337294	-0.617032	-0.263732
C153	C	1.328561	-0.707311	-0.154793
C154	C	1.289049	-0.649782	-0.151405
H155	H	1.335570	-0.723166	-0.103266
H156	H	1.298700	-0.736357	-0.184620
H157	H	1.378225	-0.701429	-0.178789
H158	H	1.239383	-0.655666	-0.127419
H159	H	1.318903	-0.620738	-0.121573
H160	H	1.043196	-0.662147	-0.469162
O161	O	1.233171	-0.537660	-0.279172
C162	C	1.188497	-0.499681	-0.228435
H163	H	1.126682	-0.519537	-0.223535
H164	H	1.185762	-0.449844	-0.252691
C165	C	1.302814	-0.474311	-0.152885
C166	C	1.226894	-0.498700	-0.146862
H167	H	1.326501	-0.473702	-0.102568
H168	H	1.332914	-0.499895	-0.187069
H169	H	1.300525	-0.432782	-0.173101
H170	H	1.229186	-0.540231	-0.126655
H171	H	1.196796	-0.473122	-0.112672
O172	O	1.233545	-0.938620	-0.279319
C173	C	1.277887	-0.981725	-0.235048
H174	H	1.280613	-1.028564	-0.267217
H175	H	1.249177	-0.988778	-0.175408
C176	C	1.358075	-0.898480	-0.184290
C177	C	1.361429	-0.956008	-0.223803
H178	H	1.409607	-0.882617	-0.177350
H179	H	1.328199	-0.869439	-0.214114
H180	H	1.334147	-0.904366	-0.134594
H181	H	1.385348	-0.950120	-0.273502
H182	H	1.391311	-0.985047	-0.193988
H183	H	1.043291	-0.376138	-0.930589
H184	H	1.043140	-0.542876	-0.469146
H185	H	1.225547	-0.230140	-0.677828
H186	H	1.225648	-1.062958	-0.287263
O187	O	1.035464	-0.938619	-0.477209
C188	C	1.052591	-0.954611	-0.555466
H189	H	1.082789	-1.002320	-0.557133
H190	H	1.092913	-0.917565	-0.581936
C191	C	0.938947	-0.899080	-0.600894
C192	C	0.976031	-0.957679	-0.602942
H193	H	0.891723	-0.900970	-0.630181
H194	H	0.927410	-0.888303	-0.548171
H195	H	0.972557	-0.868214	-0.622951
H196	H	0.942425	-0.988542	-0.580877
H197	H	0.987561	-0.968461	-0.655662
H198	H	0.582674	-0.376386	-0.469094
H199	H	1.043255	-0.376194	-0.677738
