data_functionalizedCrystal
_audit_creation_method	'MofGen! by Chris Wilmer'
_symmetry_space_group_name_H-M	'P1'
_symmetry_Int_Tables_number	1
_symmetry_cell_setting	triclinic
loop_
_symmetry_equiv_pos_as_xyz
  x,y,z
_cell_length_a	14.971491
_cell_length_b	14.971494
_cell_length_c	14.048226
_cell_angle_alpha	89.995286
_cell_angle_beta	89.991693
_cell_angle_gamma	83.616896
loop_
_atom_site_label
_atom_site_type_symbol
_atom_site_fract_x
_atom_site_fract_y
_atom_site_fract_z
O1	O	1.186948	0.116586	-0.079198
O2	O	1.686948	0.616586	0.420802
O3	O	0.926549	0.130540	-0.079190
O4	O	1.426549	0.630540	0.420810
O5	O	1.063724	-0.006636	-0.079192
O6	O	1.563724	0.493364	0.420808
O7	O	1.049773	0.253763	-0.079196
O8	O	1.549773	0.753763	0.420804
O9	O	1.063707	-0.006644	0.079129
O10	O	1.563707	0.493356	0.579129
O11	O	0.926532	0.130532	0.079131
O12	O	1.426532	0.630532	0.579131
O13	O	1.186931	0.116578	0.079124
O14	O	1.686931	0.616578	0.579124
Zn15	Zn	1.056729	0.123554	0.104264
Zn16	Zn	1.556729	0.623554	0.604264
Zn17	Zn	1.056751	0.123564	-0.104331
Zn18	Zn	1.556751	0.623564	0.395669
O19	O	1.049756	0.253754	0.079125
O20	O	1.549756	0.753754	0.579125
C21	C	0.893216	0.129911	-0.000029
C22	C	1.393216	0.629911	0.499971
C23	C	0.793919	0.128039	-0.000026
C24	C	1.293919	0.628039	0.499974
C25	C	1.063090	-0.039965	-0.000033
C26	C	1.563090	0.460035	0.499967
C27	C	1.061216	-0.139262	-0.000037
C28	C	1.561216	0.360738	0.499963
C29	C	0.366222	0.119963	-0.086349
C30	C	0.866222	0.619963	0.413651
C31	C	0.459522	0.121720	-0.086345
C32	C	0.959522	0.621720	0.413655
C33	C	0.506159	0.122599	-0.000041
C34	C	1.006159	0.622599	0.499959
C35	C	0.459492	0.121713	0.086265
C36	C	0.959492	0.621713	0.586265
C37	C	0.366194	0.119950	0.086261
C38	C	0.866194	0.619950	0.586261
C39	C	0.653954	0.125390	0.086269
C40	C	1.153954	0.625390	0.586269
C41	C	0.747258	0.127155	0.086274
C42	C	1.247258	0.627155	0.586274
C43	C	0.747282	0.127160	-0.086337
C44	C	1.247282	0.627160	0.413663
C45	C	0.653984	0.125397	-0.086342
C46	C	1.153984	0.625397	0.413658
C47	C	0.607323	0.124512	-0.000035
C48	C	1.107323	0.624512	0.499965
C49	C	1.220264	0.117207	-0.000040
C50	C	1.720264	0.617207	0.499960
C51	C	1.319561	0.119079	-0.000049
C52	C	1.819561	0.619079	0.499951
C53	C	1.060347	-0.185902	-0.086339
C54	C	1.560347	0.314098	0.413661
C55	C	1.058581	-0.279201	-0.086340
C56	C	1.558581	0.220799	0.413660
C57	C	1.057690	-0.325859	-0.000038
C58	C	1.557690	0.174141	0.499962
C59	C	1.058557	-0.279212	0.086270
C60	C	1.558557	0.220788	0.586270
C61	C	1.060317	-0.185914	0.086270
C62	C	1.560317	0.314086	0.586270
C63	C	1.054891	-0.473675	0.086264
C64	C	1.554891	0.026325	0.586264
C65	C	1.053133	-0.566980	0.086264
C66	C	1.553133	-0.066980	0.586264
C67	C	1.053155	-0.566963	-0.086347
C68	C	1.553155	-0.066963	0.413653
C69	C	1.054915	-0.473664	-0.086347
C70	C	1.554915	0.026336	0.413653
C71	C	1.055783	-0.427024	-0.000038
C72	C	1.555783	0.072976	0.499962
C73	C	1.050390	0.287083	-0.000036
C74	C	1.550390	0.787083	0.499964
C75	C	1.052263	0.386380	-0.000038
C76	C	1.552263	0.886380	0.499962
N77	N	1.056721	0.123546	0.246625
N78	N	1.556721	0.623546	0.746625
N79	N	1.056766	0.123565	-0.246692
N80	N	1.556766	0.623565	0.253308
C81	C	1.117481	0.062829	0.296442
C82	C	1.617481	0.562829	0.796442
C83	C	1.117487	0.062829	0.396100
C84	C	1.617487	0.562829	0.896100
C85	C	1.056736	0.123550	0.445938
C86	C	1.556736	0.623550	0.945938
C87	C	0.995970	0.184269	0.396114
C88	C	1.495970	0.684269	0.896114
C89	C	0.995960	0.184265	0.296458
C90	C	1.495960	0.684265	0.796458
C91	C	0.995995	0.184276	0.603828
C92	C	1.495995	0.684276	1.103828
C93	C	0.996006	0.184282	0.703491
C94	C	1.496006	0.684282	1.203491
C95	C	1.117522	0.062840	0.703470
C96	C	1.617522	0.562840	1.203470
C97	C	1.117513	0.062835	0.603814
C98	C	1.617513	0.562835	1.103814
C99	C	1.056747	0.123556	0.553997
C100	C	1.556747	0.623556	1.053997
H101	H	0.328256	0.119253	-0.156628
H102	H	0.828256	0.619253	0.343372
H103	H	1.166984	0.013396	0.563236
H104	H	1.666984	0.513396	1.063236
Cl105	Cl	1.052056	-0.625595	-0.194849
Cl106	Cl	1.552056	-0.125595	0.305151
Cl107	Cl	1.061408	-0.127280	0.194769
Cl108	Cl	1.561408	0.372720	0.694769
H109	H	0.946536	0.233726	0.744065
H110	H	1.446536	0.733726	1.244065
Cl111	Cl	0.805939	0.128283	-0.194837
Cl112	Cl	1.305939	0.628283	0.305163
Cl113	Cl	1.193862	-0.013507	0.233799
Cl114	Cl	1.693862	0.486493	0.733799
Cl115	Cl	0.919569	0.260595	0.233832
Cl116	Cl	1.419569	0.760595	0.733832
Cl117	Cl	1.056043	-0.415011	-0.194842
Cl118	Cl	1.556043	0.084989	0.305158
Cl119	Cl	1.052014	-0.625635	0.194760
Cl120	Cl	1.552014	-0.125635	0.694760
H121	H	1.166962	0.013388	0.436661
H122	H	1.666962	0.513388	0.936661
Cl123	Cl	1.057490	-0.337831	-0.194839
Cl124	Cl	1.557490	0.162169	0.305161
Cl125	Cl	1.055986	-0.415043	0.194769
Cl126	Cl	1.555986	0.084957	0.694769
H127	H	0.946501	0.233707	0.436699
H128	H	1.446501	0.733707	0.936699
Cl129	Cl	1.057426	-0.337866	0.194765
Cl130	Cl	1.557426	0.162134	0.694765
Cl131	Cl	0.805887	0.128254	0.194772
Cl132	Cl	1.305887	0.628254	0.694772
Cl133	Cl	1.193913	-0.013492	0.766101
Cl134	Cl	1.693913	0.486508	1.266101
Cl135	Cl	0.919600	0.260611	0.541205
Cl136	Cl	1.419600	0.760611	1.041205
H137	H	0.497510	0.122433	-0.156619
H138	H	0.997510	0.622433	0.343381
Cl139	Cl	0.595355	0.124298	-0.194840
Cl140	Cl	1.095355	0.624298	0.305160
H141	H	1.061077	-0.147921	-0.156616
H142	H	1.561077	0.352079	0.343384
Cl143	Cl	0.595297	0.124268	0.194771
Cl144	Cl	1.095297	0.624268	0.694771
Cl145	Cl	0.518121	0.122818	0.194763
Cl146	Cl	1.018121	0.622818	0.694763
H147	H	0.328203	0.119240	0.156535
H148	H	0.828203	0.619240	0.656535
