data_functionalizedCrystal
_audit_creation_method	'MofGen! by Chris Wilmer'
_symmetry_space_group_name_H-M	'P1'
_symmetry_Int_Tables_number	1
_symmetry_cell_setting	triclinic
loop_
_symmetry_equiv_pos_as_xyz
  x,y,z
_cell_length_a	6.817900
_cell_length_b	15.301126
_cell_length_c	11.102291
_cell_angle_alpha	93.598251
_cell_angle_beta	108.605752
_cell_angle_gamma	104.177575
loop_
_atom_site_label
_atom_site_type_symbol
_atom_site_fract_x
_atom_site_fract_y
_atom_site_fract_z
V1	V	-4.088958	-0.124770	-0.396645
O2	O	-4.071654	0.005984	-0.388697
O3	O	-4.043544	-0.247387	-0.394315
O4	O	-4.066089	-0.122856	-0.569462
O5	O	-4.048953	-0.119409	-0.212338
V6	V	-4.568891	-0.109130	-0.374554
O7	O	-4.358092	-0.159078	-0.445104
O8	O	-4.749954	-0.074821	-0.326096
O9	O	-4.391098	0.013487	-0.376885
O10	O	-4.703592	-0.239884	-0.382502
O11	O	-4.726293	-0.114491	-0.558861
O12	O	-4.368553	-0.111044	-0.201738
C13	C	-3.888445	-0.277278	-0.388156
C14	C	-3.932771	-0.377519	-0.387403
C15	C	-3.917203	-0.118425	-0.611572
C16	C	-3.979808	-0.117672	-0.752852
C17	C	-4.136772	-0.429205	-0.393402
C18	C	-4.178412	-0.523393	-0.392702
C19	C	-4.016045	-0.565891	-0.385992
C20	C	-3.812030	-0.514199	-0.379996
C21	C	-3.770397	-0.420014	-0.380706
C22	C	-3.898818	-0.710509	-0.378514
C23	C	-3.940452	-0.804700	-0.377802
C24	C	-4.306834	-0.813888	-0.390510
C25	C	-4.265200	-0.719704	-0.391220
C26	C	-4.061186	-0.668017	-0.385221
C27	C	-4.192413	-0.121815	-0.825713
C28	C	-4.251216	-0.121089	-0.958457
C29	C	-3.884789	-0.112080	-0.945468
C30	C	-3.825986	-0.112800	-0.812725
C31	C	-4.346235	-0.126687	-0.765840
C32	C	-4.558855	-0.130831	-0.838702
C33	C	-4.617658	-0.130106	-0.971446
C34	C	-4.463840	-0.125235	-1.031328
C35	C	-4.209539	0.043373	-0.383040
C36	C	-4.144452	0.143613	-0.383802
C37	C	-4.180781	-0.115477	-0.159621
C38	C	-4.097414	-0.116227	-0.018339
H39	H	-4.268989	-0.394609	-0.398853
H40	H	-3.679835	-0.548809	-0.374541
Br41	Br	-4.583714	-0.884033	-0.398657
Br42	Br	-4.906200	-0.135719	-1.070325
H43	H	-4.298377	-0.127281	-0.657755
Br44	Br	-4.455281	-0.593536	-0.400846
Br45	Br	-3.537434	-0.107158	-0.713830
H46	H	-4.511732	-0.124637	-1.139416
H47	H	-4.397413	-0.685103	-0.396675
Br48	Br	-3.621944	-0.640365	-0.370384
H49	H	-3.808255	-0.839304	-0.372377
H50	H	-3.604284	-0.377932	-0.375826
H51	H	-4.684079	-0.134791	-0.789936
H52	H	-3.759565	-0.108116	-0.994235
