data_functionalizedCrystal
_audit_creation_method	'MofGen! by Chris Wilmer'
_symmetry_space_group_name_H-M	'P1'
_symmetry_Int_Tables_number	1
_symmetry_cell_setting	triclinic
loop_
_symmetry_equiv_pos_as_xyz
  x,y,z
_cell_length_a	10.685980
_cell_length_b	18.050590
_cell_length_c	10.686551
_cell_angle_alpha	85.590282
_cell_angle_beta	81.591741
_cell_angle_gamma	94.384981
loop_
_atom_site_label
_atom_site_type_symbol
_atom_site_fract_x
_atom_site_fract_y
_atom_site_fract_z
Zn1	Zn	1.995769	-0.166459	-0.866682
Zn2	Zn	1.979330	-0.300999	-0.654401
Zn3	Zn	1.767193	-0.187129	-0.638144
Zn4	Zn	1.783454	-0.300927	-0.850311
O5	O	1.881436	-0.238878	-0.752384
O6	O	2.171223	-0.175686	-0.852177
O7	O	1.937505	-0.294574	-0.474611
O8	O	1.797589	-0.080457	-0.668507
O9	O	2.159145	-0.274532	-0.696215
O10	O	1.965522	-0.065271	-0.836413
O11	O	1.781649	-0.210915	-0.462667
O12	O	1.591716	-0.210845	-0.652633
O13	O	1.825303	-0.274409	-1.030116
O14	O	1.603662	-0.294451	-0.808512
O15	O	1.981289	-0.175616	-1.042143
O16	O	1.953272	-0.404919	-0.680341
O17	O	1.809363	-0.404866	-0.824276
C18	C	1.551630	-0.254884	-0.727033
C19	C	1.410540	-0.261747	-0.716217
C20	C	1.881335	-0.431838	-0.752326
C21	C	1.881411	-0.514379	-0.752353
C22	C	1.959854	-0.713817	-0.674213
C23	C	1.999760	-0.756001	-0.792444
C24	C	1.881487	-0.665503	-0.752409
C25	C	1.841714	-0.770392	-0.634240
C26	C	1.881562	-0.811483	-0.752453
C27	C	1.921457	-0.706594	-0.870706
C28	C	1.763351	-0.720987	-0.712419
C29	C	1.803219	-0.763147	-0.830726
C30	C	1.881447	-0.581408	-0.752382
C31	C	1.881603	-0.895576	-0.752493
C32	C	2.212530	-0.222811	-0.777836
C33	C	2.353623	-0.215964	-0.788682
C34	C	1.906943	-0.222698	-1.083476
C35	C	1.917813	-0.215803	-1.224567
C36	C	1.881575	-0.045162	-0.752473
C37	C	1.881634	0.037388	-0.752511
C38	C	1.856102	-0.254938	-0.422587
C39	C	1.845478	-0.261612	-0.281515
H40	H	1.351324	-0.306198	-0.645892
H41	H	2.026157	-0.692147	-0.608161
H42	H	2.099698	-0.771618	-0.826295
H43	H	1.955036	-0.678902	-0.970735
H44	H	1.736985	-0.784669	-0.896956
Cl45	Cl	1.789729	-0.813291	-0.479923
Cl46	Cl	1.609088	-0.696854	-0.660111
Cl47	Cl	1.445033	-0.147332	-0.897244
H48	H	1.775237	-0.306107	-1.222331
H49	H	1.988067	-0.171310	-1.283758
