data_functionalizedCrystal
_audit_creation_method	'MofGen! by Chris Wilmer'
_symmetry_space_group_name_H-M	'P1'
_symmetry_Int_Tables_number	1
_symmetry_cell_setting	triclinic
loop_
_symmetry_equiv_pos_as_xyz
  x,y,z
_cell_length_a	16.974901
_cell_length_b	9.730217
_cell_length_c	16.974959
_cell_angle_alpha	93.650671
_cell_angle_beta	83.637344
_cell_angle_gamma	86.345511
loop_
_atom_site_label
_atom_site_type_symbol
_atom_site_fract_x
_atom_site_fract_y
_atom_site_fract_z
O1	O	-1.049027	0.219643	-0.100839
O2	O	-0.818811	0.192644	-0.113660
O3	O	-0.940329	0.219632	0.007857
O4	O	-0.927509	0.192655	-0.222357
O5	O	-0.940320	-0.008950	0.007850
O6	O	-0.818803	-0.035938	-0.113667
O7	O	-1.049018	-0.008938	-0.100847
Zn8	Zn	-0.933909	-0.058731	-0.107258
Zn9	Zn	-0.933920	0.242436	-0.107248
O10	O	-0.927501	-0.035927	-0.222364
C11	C	-0.789349	0.075134	-0.113173
C12	C	-0.701575	0.065546	-0.111703
N13	N	-0.933908	-0.264268	-0.107264
C14	C	-0.660336	0.185631	-0.111010
C15	C	-0.577862	0.176601	-0.109642
C16	C	-0.536629	0.047484	-0.108960
C17	C	-0.577873	-0.072610	-0.109655
C18	C	-0.660346	-0.063579	-0.111030
C19	C	-0.289973	0.007112	-0.104856
C20	C	-0.207495	-0.001911	-0.103479
C21	C	-0.207489	0.247301	-0.103467
C22	C	-0.289964	0.256322	-0.104836
C23	C	-0.331200	0.136227	-0.105536
N24	N	-0.452327	0.038250	-0.107559
N25	N	-0.415500	0.145461	-0.106943
C26	C	-0.838132	-0.552016	-0.011357
C27	C	-0.790225	-0.480074	0.036572
C28	C	-0.790210	-0.336198	0.036556
C29	C	-0.838108	-0.264260	-0.011391
C30	C	-0.886016	-0.336202	-0.059320
C31	C	-0.886024	-0.480082	-0.059302
C32	C	-0.981815	-0.336210	-0.155193
C33	C	-0.981827	-0.480088	-0.155184
C34	C	-1.029714	-0.264273	-0.203141
C35	C	-1.077618	-0.336216	-0.251075
C36	C	-1.077630	-0.480101	-0.251059
C37	C	-1.029734	-0.552030	-0.203113
C38	C	-0.078481	0.108575	-0.101329
C39	C	-0.166256	0.118175	-0.102786
C40	C	-0.939834	0.108559	0.037311
C41	C	-0.938364	0.118147	0.125084
N42	N	-0.933928	0.447975	-0.107236
C43	C	-0.927995	0.075149	-0.251818
C44	C	-0.929466	0.065570	-0.339591
C45	C	-0.930158	0.185650	0.619162
C46	C	-0.931532	0.176613	0.536689
C47	C	-0.932208	0.047493	0.495464
C48	C	-0.931518	-0.072596	0.536717
C49	C	-0.930150	-0.063556	0.619190
C50	C	-0.936305	0.007098	0.248810
C51	C	-0.937671	-0.001933	0.166331
C52	C	-0.937686	0.247277	0.166309
C53	C	-0.936313	0.256304	0.248782
C54	C	-0.935628	0.136216	0.290029
N55	N	-0.933610	0.038252	0.411163
N56	N	-0.934231	0.145459	0.374329
H57	H	-0.693903	0.290772	-0.111563
H58	H	-0.323539	-0.090678	-0.105420
O59	O	-0.738558	-0.258629	0.088287
H60	H	-0.776526	-0.184151	0.130792
O61	O	-0.838098	-0.109081	-0.011430
H62	H	-0.857659	-0.062145	0.049470
O63	O	-0.163013	0.376827	-0.102724
H64	H	-0.098737	0.348861	-0.101661
H65	H	-0.693921	-0.161366	-0.111597
H66	H	-0.938198	-0.107087	0.132765
H67	H	-1.116645	-0.538667	-0.290086
O68	O	-0.929414	-0.193075	0.663679
H69	H	-0.928362	-0.165098	0.727955
O70	O	-0.533385	0.306125	-0.108851
H71	H	-0.575916	0.397427	-0.109531
O72	O	-1.029745	-0.707210	-0.203083
H73	H	-1.010178	-0.754130	-0.263986
O74	O	-0.533205	-0.211727	-0.109046
H75	H	-0.555959	-0.263270	-0.055494
O76	O	-1.129277	-0.258629	-0.302783
H77	H	-1.112006	-0.295208	-0.365985
H78	H	-0.929600	0.290793	0.652720
H79	H	-0.838134	-0.669169	-0.011346
O80	O	-0.932263	0.306124	0.492195
H81	H	-0.931548	0.397425	0.534715
O82	O	-0.935557	-0.122420	0.293293
H83	H	-0.936247	-0.213721	0.250767
O84	O	-0.738570	-0.557656	0.088293
H85	H	-0.675356	-0.538993	0.071068
H86	H	-0.935768	0.361448	0.282342
H87	H	-0.938245	0.345046	0.132717
O88	O	-0.932250	-0.211866	0.492260
H89	H	-0.933310	-0.197983	0.427980
H90	H	-0.173923	-0.107061	-0.102946
O91	O	-0.334437	0.395582	-0.105575
H92	H	-0.291903	0.477570	-0.104870
H93	H	-1.029702	-0.147120	-0.203146
