data_functionalizedCrystal
_audit_creation_method	'MofGen! by Chris Wilmer'
_symmetry_space_group_name_H-M	'P1'
_symmetry_Int_Tables_number	1
_symmetry_cell_setting	triclinic
loop_
_symmetry_equiv_pos_as_xyz
  x,y,z
_cell_length_a	10.654547
_cell_length_b	10.654536
_cell_length_c	18.366186
_cell_angle_alpha	89.983102
_cell_angle_beta	90.009751
_cell_angle_gamma	95.515982
loop_
_atom_site_label
_atom_site_type_symbol
_atom_site_fract_x
_atom_site_fract_y
_atom_site_fract_z
O1	O	1.667844	-0.176418	0.060581
O2	O	1.302365	-0.193221	0.060582
O3	O	1.493512	-0.002079	0.060557
O4	O	1.476697	-0.367559	0.060606
O5	O	1.493479	-0.002070	-0.060542
O6	O	1.302332	-0.193211	-0.060517
O7	O	1.667811	-0.176408	-0.060518
Zn8	Zn	1.485066	-0.184808	-0.079745
Zn9	Zn	1.485110	-0.184821	0.079809
O10	O	1.476664	-0.367549	-0.060493
C11	C	1.255551	-0.191981	0.000032
C12	C	1.116108	-0.188288	0.000031
C13	C	1.492263	0.044724	0.000003
C14	C	1.488575	0.184167	-0.000012
C15	C	0.854124	-0.181337	0.132066
C16	C	0.919660	-0.183079	0.198077
C17	C	1.050677	-0.186559	0.198076
C18	C	1.116162	-0.188293	0.132056
C19	C	1.050626	-0.186550	0.066044
C20	C	0.919605	-0.183074	0.066053
C21	C	1.050572	-0.186546	-0.065981
C22	C	0.919553	-0.183075	-0.065981
C23	C	1.116057	-0.188279	-0.132001
C24	C	1.050519	-0.186546	-0.198014
C25	C	0.919494	-0.183067	-0.198010
C26	C	0.854017	-0.181332	-0.131992
C27	C	1.714625	-0.177648	0.000034
C28	C	1.854068	-0.181341	0.000039
C29	C	1.717139	0.212136	-0.000023
C30	C	1.829684	0.291629	-0.000038
C31	C	1.826210	0.422648	-0.000050
C32	C	1.710180	0.474174	-0.000045
C33	C	1.597636	0.394681	-0.000031
C34	C	1.601122	0.263661	-0.000021
C35	C	1.369074	0.366713	-0.000014
C36	C	1.372544	0.235694	-0.000007
C37	C	1.253044	0.418239	-0.000010
C38	C	1.140497	0.338745	-0.000001
C39	C	1.143975	0.207720	0.000011
C40	C	1.260000	0.156201	0.000007
C41	C	1.477917	0.585648	0.000035
C42	C	1.481618	0.446206	-0.000029
N43	N	1.485046	-0.184798	-0.188636
C44	C	1.569714	-0.100203	-0.226747
C45	C	1.569722	-0.100198	-0.302975
C46	C	1.485074	-0.184809	-0.341089
C47	C	1.400389	-0.269410	-0.302968
C48	C	1.400376	-0.269405	-0.226742
C49	C	1.469613	-0.299048	-0.461834
C50	C	1.469635	-0.299055	-0.538059
C51	C	1.485110	-0.184825	-0.576196
C52	C	1.500588	-0.070584	-0.538100
C53	C	1.500574	-0.070578	-0.461873
C54	C	1.485079	-0.184824	-0.423743
C55	C	1.569791	-0.100217	-0.696963
C56	C	1.569790	-0.100210	-0.773192
C57	C	1.400464	-0.269433	-0.773183
C58	C	1.400459	-0.269430	-0.696955
C59	C	1.485129	-0.184823	-0.658850
N60	N	1.485140	-0.184821	0.188700
H61	H	0.747441	-0.178520	0.132074
C62	C	0.709902	-0.177507	-0.131989
H63	H	0.680244	-0.176725	-0.180756
H64	H	0.689219	-0.103615	-0.107615
H65	H	0.671329	-0.249842	-0.107598
H66	H	1.638671	-0.031308	-0.334011
C67	C	0.847392	-0.181286	-0.270622
H68	H	0.759978	-0.179000	-0.261169
H69	H	0.859958	-0.255003	-0.297687
H70	H	0.877745	-0.108773	-0.297804
C71	C	1.452582	-0.424705	-0.419886
H72	H	1.454775	-0.408341	-0.369033
H73	H	1.518684	-0.474535	-0.432356
H74	H	1.373754	-0.468747	-0.432384
H75	H	1.331465	-0.338300	-0.334004
C76	C	0.847625	-0.181178	0.270694
H77	H	0.760207	-0.178868	0.261244
H78	H	0.878051	-0.108642	0.297809
H79	H	0.860163	-0.254870	0.297824
C80	C	1.517600	0.055076	-0.580040
H81	H	1.515375	0.038717	-0.630894
H82	H	1.596416	0.099132	-0.567548
H83	H	1.451483	0.104893	-0.567563
C84	C	1.020177	0.120281	0.000030
H85	H	1.038858	0.034870	0.000041
H86	H	0.972624	0.136018	-0.042196
H87	H	0.972679	0.136002	0.042270
C88	C	1.662909	-0.007143	-0.655043
H89	H	1.713324	0.043255	-0.688662
H90	H	1.715575	-0.052804	-0.625291
H91	H	1.617266	0.045562	-0.625325
H92	H	1.262843	0.049520	0.000012
C93	C	1.706361	0.618291	-0.000054
H94	H	1.790005	0.658254	-0.000064
H95	H	1.663382	0.642755	0.042176
H96	H	1.663354	0.642776	-0.042290
C97	C	1.950001	0.510098	-0.000063
H98	H	1.931307	0.595505	-0.000065
H99	H	1.997516	0.494385	-0.042293
H100	H	1.997542	0.494367	0.042172
C101	C	1.307349	-0.362507	-0.815095
H102	H	1.256918	-0.412888	-0.781477
H103	H	1.352980	-0.415210	-0.844815
H104	H	1.254681	-0.316834	-0.844846
C105	C	1.662933	-0.007153	-0.815115
H106	H	1.713362	0.043224	-0.781500
H107	H	1.617320	0.045555	-0.844868
H108	H	1.715602	-0.052837	-0.844833
C109	C	1.517579	0.055073	-0.419967
H110	H	1.526970	0.123104	-0.453591
H111	H	1.590573	0.056863	-0.390137
H112	H	1.445661	0.062780	-0.390327
C113	C	1.122769	-0.188481	0.270686
H114	H	1.065009	-0.186958	0.310006
H115	H	1.182831	-0.116733	0.273417
H116	H	1.164927	-0.262960	0.273435
H117	H	1.331519	-0.338320	-0.665923
H118	H	1.719979	0.105456	-0.000023
H119	H	1.046034	0.380710	0.000008
H120	H	1.457040	-0.392077	-0.569071
C121	C	1.662876	-0.007174	-0.184832
H122	H	1.650763	-0.019302	-0.133975
H123	H	1.648562	0.076790	-0.197332
H124	H	1.746799	-0.021648	-0.197320
C125	C	1.260278	-0.192111	0.132055
H126	H	1.289930	-0.192904	0.180824
H127	H	1.298852	-0.119791	0.107660
H128	H	1.280962	-0.266018	0.107688
C129	C	1.260172	-0.192102	-0.132008
H130	H	1.289785	-0.192874	-0.180779
H131	H	1.280880	-0.265998	-0.107618
H132	H	1.298766	-0.119770	-0.107640
H133	H	1.331427	-0.338294	-0.195711
C134	C	1.122552	-0.188455	-0.270626
H135	H	1.209966	-0.190778	-0.261172
H136	H	1.110011	-0.114780	-0.297764
H137	H	1.092131	-0.261008	-0.297734
C138	C	1.249215	0.562354	-0.000017
H139	H	1.163996	0.581653	-0.000006
H140	H	1.290614	0.597174	-0.042252
H141	H	1.290654	0.597143	0.042214
H142	H	1.924153	0.249662	-0.000048
