data_functionalizedCrystal
_audit_creation_method	'MofGen! by Chris Wilmer'
_symmetry_space_group_name_H-M	'P1'
_symmetry_Int_Tables_number	1
_symmetry_cell_setting	triclinic
loop_
_symmetry_equiv_pos_as_xyz
  x,y,z
_cell_length_a	13.339070
_cell_length_b	11.026607
_cell_length_c	10.065908
_cell_angle_alpha	79.267606
_cell_angle_beta	101.159504
_cell_angle_gamma	112.107656
loop_
_atom_site_label
_atom_site_type_symbol
_atom_site_fract_x
_atom_site_fract_y
_atom_site_fract_z
O1	O	-1.472620	-0.634407	-0.113532
O2	O	-1.162601	-0.549340	-0.113526
O3	O	-1.291916	-0.406570	-0.113524
O4	O	-1.343305	-0.777177	-0.113535
O5	O	-1.267283	-0.433948	0.113465
O6	O	-1.137968	-0.576718	0.113463
O7	O	-1.447987	-0.661785	0.113456
Zn8	Zn	-1.289067	-0.623598	0.149499
Zn9	Zn	-1.321521	-0.587527	-0.149568
O10	O	-1.318672	-0.804555	0.113454
C11	C	-1.109978	-0.548659	-0.000031
C12	C	-0.989876	-0.505827	-0.000028
C13	C	-1.270119	-0.371856	-0.000031
C14	C	-1.241859	-0.227626	-0.000035
C15	C	-1.500610	-0.662465	-0.000042
C16	C	-1.620713	-0.705296	-0.000054
C17	C	-0.685736	-0.838866	-0.000060
C18	C	-0.798579	-0.879112	-0.000066
C19	C	-0.846409	-0.785794	-0.000056
C20	C	-0.781385	-0.652223	-0.000041
C21	C	-0.668532	-0.611971	-0.000045
C22	C	-0.829205	-0.558900	-0.000041
C23	C	-0.764181	-0.425329	-0.000025
C24	C	-0.651339	-0.385084	-0.000028
C25	C	-0.603509	-0.478402	-0.000039
C26	C	-0.942057	-0.599152	-0.000037
C27	C	-0.924853	-0.372258	-0.000022
C28	C	-0.812011	-0.332011	-0.000015
C29	C	-1.340469	-0.839269	-0.000042
C30	C	-1.368730	-0.983498	-0.000047
N31	N	-1.266925	-0.648218	0.353604
C32	C	-1.319892	-0.180093	-0.000039
C33	C	-1.290686	-0.031025	-0.000043
C34	C	-1.313806	-0.596086	0.421383
C35	C	-1.296775	-0.615047	0.578550
N36	N	-1.343663	-0.562907	0.646326
H37	H	-0.994989	-0.707907	-0.000045
C38	C	-1.385058	-0.516825	0.342603
H39	H	-1.387162	-0.514485	0.247303
H40	H	-1.354936	-0.429398	0.365961
H41	H	-1.457047	-0.557713	0.365930
C42	C	-1.195673	-0.727478	0.432385
H43	H	-1.193581	-0.729832	0.527684
H44	H	-1.123690	-0.686606	0.409055
H45	H	-1.225808	-0.814914	0.409029
H46	H	-1.457177	-0.053145	-0.000151
H47	H	-0.646783	-0.914829	-0.000079
C48	C	-1.122396	-0.133530	-0.000042
H49	H	-1.077227	-0.182681	-0.000050
H50	H	-1.099532	-0.089471	0.079108
H51	H	-1.116725	-0.070398	-0.079213
H52	H	-0.851514	-0.987864	-0.000090
H53	H	-0.598401	-0.276320	-0.000031
C54	C	-0.970531	-0.830065	-0.000048
H55	H	-1.002405	-0.922980	-0.000045
H56	H	-1.001482	-0.787722	-0.079193
H57	H	-0.984282	-0.806828	0.079129
H58	H	-1.396406	-0.504228	0.588006
H59	H	-0.511624	-0.445640	-0.000032
C60	C	-0.740479	-0.185090	-0.000013
H61	H	-0.666426	-0.174489	-0.000027
H62	H	-0.746844	-0.154614	0.079143
H63	H	-0.764031	-0.135527	-0.079178
C64	C	-1.225520	-0.694311	0.657326
H65	H	-1.223427	-0.696665	0.752625
H66	H	-1.153536	-0.653439	0.633996
H67	H	-1.255654	-0.781747	0.633971
H68	H	-0.963796	-0.296270	-0.000020
H69	H	-1.408321	-0.249760	-0.000032
H70	H	-1.202251	0.038638	-0.000050
