data_functionalizedCrystal
_audit_creation_method	'MofGen! by Chris Wilmer'
_symmetry_space_group_name_H-M	'P1'
_symmetry_Int_Tables_number	1
_symmetry_cell_setting	triclinic
loop_
_symmetry_equiv_pos_as_xyz
  x,y,z
_cell_length_a	16.109293
_cell_length_b	16.109301
_cell_length_c	15.186229
_cell_angle_alpha	90.000894
_cell_angle_beta	90.006769
_cell_angle_gamma	96.540124
loop_
_atom_site_label
_atom_site_type_symbol
_atom_site_fract_x
_atom_site_fract_y
_atom_site_fract_z
O1	O	-1.103135	0.106835	-0.073289
O2	O	-0.853135	0.356835	0.176711
O3	O	-0.603135	0.606835	0.426711
O4	O	-0.353135	0.856835	0.676711
O5	O	-0.861072	0.120141	-0.073274
O6	O	-0.611072	0.370141	0.176726
O7	O	-0.361072	0.620141	0.426726
O8	O	-0.111072	0.870141	0.676726
O9	O	-0.988753	-0.007543	-0.073287
O10	O	-0.738753	0.242457	0.176713
O11	O	-0.488753	0.492457	0.426713
O12	O	-0.238753	0.742457	0.676713
O13	O	-0.975454	0.234519	-0.073277
O14	O	-0.725454	0.484519	0.176723
O15	O	-0.475454	0.734519	0.426723
O16	O	-0.225454	0.984519	0.676723
O17	O	-0.988744	-0.007545	0.073171
O18	O	-0.738744	0.242455	0.323171
O19	O	-0.488744	0.492455	0.573171
O20	O	-0.238744	0.742455	0.823171
O21	O	-0.861063	0.120139	0.073183
O22	O	-0.611063	0.370139	0.323183
O23	O	-0.361063	0.620139	0.573183
O24	O	-0.111063	0.870139	0.823183
O25	O	-1.103126	0.106833	0.073168
O26	O	-0.853126	0.356833	0.323168
O27	O	-0.603126	0.606833	0.573168
O28	O	-0.353126	0.856833	0.823168
Zn29	Zn	-0.982093	0.113486	0.096429
Zn30	Zn	-0.732093	0.363486	0.346429
Zn31	Zn	-0.482093	0.613486	0.596429
Zn32	Zn	-0.232093	0.863486	0.846429
Zn33	Zn	-0.982105	0.113488	-0.096535
Zn34	Zn	-0.732105	0.363488	0.153465
Zn35	Zn	-0.482105	0.613488	0.403465
Zn36	Zn	-0.232105	0.863488	0.653465
O37	O	-0.975445	0.234517	0.073181
O38	O	-0.725445	0.484517	0.323181
O39	O	-0.475445	0.734517	0.573181
O40	O	-0.225445	0.984517	0.823181
C41	C	-0.830093	0.119602	-0.000044
C42	C	-0.580093	0.369602	0.249956
C43	C	-0.330093	0.619602	0.499956
C44	C	-0.080093	0.869602	0.749956
C45	C	-0.737797	0.117990	-0.000039
C46	C	-0.487797	0.367990	0.249961
C47	C	-0.237797	0.617990	0.499961
C48	C	0.012203	0.867990	0.749961
C49	C	-0.525451	0.114260	0.079792
C50	C	-0.275451	0.364260	0.329792
C51	C	-0.025451	0.614260	0.579792
C52	C	0.224549	0.864260	0.829792
C53	C	-0.438730	0.112736	0.079791
C54	C	-0.188730	0.362736	0.329791
C55	C	0.061270	0.612736	0.579791
C56	C	0.311270	0.862736	0.829791
C57	C	-0.438750	0.112742	-0.079885
C58	C	-0.188750	0.362742	0.170115
C59	C	0.061250	0.612742	0.420115
C60	C	0.311250	0.862742	0.670115
C61	C	-0.525469	0.114260	-0.079883
C62	C	-0.275469	0.364260	0.170117
C63	C	-0.025469	0.614260	0.420117
C64	C	0.224531	0.864260	0.670117
C65	C	-0.568817	0.115024	-0.000042
C66	C	-0.318817	0.365024	0.249958
C67	C	-0.068817	0.615024	0.499958
C68	C	0.181183	0.865024	0.749958
C69	C	-0.395377	0.111981	-0.000044
C70	C	-0.145377	0.361981	0.249956
C71	C	0.104623	0.611981	0.499956
C72	C	0.354623	0.861981	0.749956
C73	C	-0.301351	0.110329	-0.000046
C74	C	-0.051351	0.360329	0.249954
C75	C	0.198649	0.610329	0.499954
C76	C	0.448649	0.860329	0.749954
C77	C	-0.662849	0.116675	-0.000040
C78	C	-0.412849	0.366675	0.249960
C79	C	-0.162849	0.616675	0.499960
C80	C	0.087151	0.866675	0.749960
C81	C	-0.988210	-0.038519	-0.000061
C82	C	-0.738210	0.211481	0.249939
C83	C	-0.488210	0.461481	0.499939
C84	C	-0.238210	0.711481	0.749939
C85	C	-0.986595	-0.130814	-0.000070
C86	C	-0.736595	0.119186	0.249930
C87	C	-0.486595	0.369186	0.499930
C88	C	-0.236595	0.619186	0.749930
C89	C	-0.134104	0.107380	-0.000057
C90	C	0.115896	0.357380	0.249943
C91	C	0.365896	0.607380	0.499943
C92	C	0.615896	0.857380	0.749943
C93	C	-0.226397	0.109015	-0.000048
C94	C	0.023603	0.359015	0.249952
C95	C	0.273603	0.609015	0.499952
C96	C	0.523603	0.859015	0.749952
C97	C	-0.975988	0.265493	-0.000047
C98	C	-0.725988	0.515493	0.249953
C99	C	-0.475988	0.765493	0.499953
C100	C	-0.225988	1.015493	0.749953
C101	C	-0.977603	0.357788	-0.000044
C102	C	-0.727603	0.607788	0.249956
C103	C	-0.477603	0.857788	0.499956
C104	C	-0.227603	1.107788	0.749956
N105	N	-0.982092	0.113484	0.228122
N106	N	-0.732092	0.363484	0.478122
N107	N	-0.482092	0.613484	0.728122
N108	N	-0.232092	0.863484	0.978122
C109	C	-0.905595	0.580063	-0.000052
C110	C	-0.655595	0.830063	0.249948
C111	C	-0.405595	1.080063	0.499948
C112	C	-0.155595	1.330063	0.749948
C113	C	-0.907119	0.666783	-0.000059
C114	C	-0.657119	0.916783	0.249941
C115	C	-0.407119	1.166783	0.499941
C116	C	-0.157119	1.416783	0.749941
C117	C	-1.058609	0.646905	-0.000064
C118	C	-0.808609	0.896905	0.249936
C119	C	-0.558609	1.146905	0.499936
C120	C	-0.308609	1.396905	0.749936
C121	C	-1.057084	0.560186	-0.000064
C122	C	-0.807084	0.810186	0.249936
C123	C	-0.557084	1.060186	0.499936
C124	C	-0.307084	1.310186	0.749936
C125	C	-0.980575	0.526768	-0.000053
C126	C	-0.730575	0.776768	0.249947
C127	C	-0.480575	1.026768	0.499947
C128	C	-0.230575	1.276768	0.749947
C129	C	-0.983624	0.700207	-0.000060
C130	C	-0.733624	0.950207	0.249940
C131	C	-0.483624	1.200207	0.499940
C132	C	-0.233624	1.450207	0.749940
C133	C	-0.985277	0.794233	-0.000068
C134	C	-0.735277	1.044233	0.249932
C135	C	-0.485277	1.294233	0.499932
C136	C	-0.235277	1.544233	0.749932
C137	C	-0.978921	0.432736	-0.000048
C138	C	-0.728921	0.682736	0.249952
C139	C	-0.478921	0.932736	0.499952
C140	C	-0.228921	1.182736	0.749952
N141	N	-0.982113	0.113484	-0.228228
N142	N	-0.732113	0.363484	0.021772
N143	N	-0.482113	0.613484	0.271772
N144	N	-0.232113	0.863484	0.521772
C145	C	-1.038648	0.056964	0.453839
C146	C	-0.788648	0.306964	0.703839
C147	C	-0.538648	0.556964	0.953839
C148	C	-0.288648	0.806964	1.203839
C149	C	-1.038651	0.056962	0.546029
C150	C	-0.788651	0.306962	0.796029
C151	C	-0.538651	0.556962	1.046029
C152	C	-0.288651	0.806962	1.296029
C153	C	-0.925550	0.170006	0.546049
C154	C	-0.675550	0.420006	0.796049
C155	C	-0.425550	0.670006	1.046049
C156	C	-0.175550	0.920006	1.296049
C157	C	-0.925544	0.170003	0.453861
C158	C	-0.675544	0.420003	0.703861
C159	C	-0.425544	0.670003	0.953861
C160	C	-0.175544	0.920003	1.203861
C161	C	-0.982098	0.113483	0.407758
C162	C	-0.732098	0.363483	0.657758
C163	C	-0.482098	0.613483	0.907758
C164	C	-0.232098	0.863483	1.157758
C165	C	-0.982107	0.113484	0.592136
C166	C	-0.732107	0.363484	0.842136
C167	C	-0.482107	0.613484	1.092136
C168	C	-0.232107	0.863484	1.342136
C169	C	-0.982109	0.113482	0.692092
C170	C	-0.732109	0.363482	0.942092
C171	C	-0.482109	0.613482	1.192092
C172	C	-0.232109	0.863482	1.442092
C173	C	-0.982095	0.113484	0.307796
C174	C	-0.732095	0.363484	0.557796
C175	C	-0.482095	0.613484	0.807796
C176	C	-0.232095	0.863484	1.057796
H177	H	-0.560742	0.114882	0.144804
H178	H	-0.310742	0.364882	0.394804
H179	H	-0.060742	0.614882	0.644804
H180	H	0.189258	0.864882	0.894804
N181	N	-0.572244	0.115077	-0.165998
N182	N	-0.322244	0.365077	0.084002
N183	N	-0.072244	0.615077	0.334002
N184	N	0.177756	0.865077	0.584002
H185	H	-0.550406	0.166321	-0.200901
H186	H	-0.300406	0.416321	0.049099
H187	H	-0.050406	0.666321	0.299099
H188	H	0.199594	0.916321	0.549099
H189	H	-0.633748	0.116117	-0.153811
H190	H	-0.383748	0.366117	0.096189
H191	H	-0.133748	0.616117	0.346189
H192	H	0.116252	0.866117	0.596189
H193	H	-0.846063	0.710173	-0.000059
H194	H	-0.596063	0.960173	0.249941
H195	H	-0.346063	1.210173	0.499941
H196	H	-0.096063	1.460173	0.749941
H197	H	-1.084698	0.010938	0.583545
H198	H	-0.834698	0.260938	0.833545
H199	H	-0.584698	0.510938	1.083545
H200	H	-0.334698	0.760938	1.333545
N201	N	-0.864541	0.230959	0.404151
N202	N	-0.614541	0.480959	0.654151
N203	N	-0.364541	0.730959	0.904151
N204	N	-0.114541	0.980959	1.154151
H205	H	-0.828719	0.266768	0.447344
H206	H	-0.578719	0.516768	0.697344
H207	H	-0.328719	0.766768	0.947344
H208	H	-0.078719	1.016768	1.197344
H209	H	-0.896353	0.267722	0.365890
H210	H	-0.646353	0.517722	0.615890
H211	H	-0.396353	0.767722	0.865890
H212	H	-0.146353	1.017722	1.115890
H213	H	-0.879507	0.216025	0.583594
H214	H	-0.629507	0.466025	0.833594
H215	H	-0.379507	0.716025	1.083594
H216	H	-0.129507	0.966025	1.333594
H217	H	-0.403446	0.112122	-0.144888
H218	H	-0.153446	0.362122	0.105112
H219	H	0.096554	0.612122	0.355112
H220	H	0.346554	0.862122	0.605112
N221	N	-0.391956	0.111909	0.165898
N222	N	-0.141956	0.361909	0.415898
N223	N	0.108044	0.611909	0.665898
N224	N	0.358044	0.861909	0.915898
H225	H	-0.432654	0.112037	0.216471
H226	H	-0.182654	0.362037	0.466471
H227	H	0.067346	0.612037	0.716471
H228	H	0.317346	0.862037	0.966471
H229	H	-0.349616	0.163084	0.169648
H230	H	-0.099616	0.413084	0.419648
H231	H	0.150384	0.663084	0.669648
H232	H	0.400384	0.913084	0.919648
N233	N	-1.141126	0.682949	-0.000057
N234	N	-0.891126	0.932949	0.249943
N235	N	-0.641126	1.182949	0.499943
N236	N	-0.391126	1.432949	0.749943
H237	H	-1.130716	0.745972	-0.000050
H238	H	-0.880716	0.995972	0.249950
H239	H	-0.630716	1.245972	0.499950
H240	H	-0.380716	1.495972	0.749950
H241	H	-1.173919	0.663446	0.054240
H242	H	-0.923919	0.913446	0.304240
H243	H	-0.673919	1.163446	0.554240
H244	H	-0.423919	1.413446	0.804240
N245	N	-0.823079	0.544016	-0.000040
N246	N	-0.573079	0.794016	0.249960
N247	N	-0.323079	1.044016	0.499960
N248	N	-0.073079	1.294016	0.749960
H249	H	-0.775812	0.590941	-0.000041
H250	H	-0.525812	0.840941	0.249959
H251	H	-0.275812	1.090941	0.499959
H252	H	-0.025812	1.340941	0.749959
H253	H	-0.819150	0.508466	-0.054331
H254	H	-0.569150	0.758466	0.195669
H255	H	-0.319150	1.008466	0.445669
H256	H	-0.069150	1.258466	0.695669
N257	N	-1.137958	0.502695	-0.000068
N258	N	-0.887958	0.752695	0.249932
N259	N	-0.637958	1.002695	0.499932
N260	N	-0.387958	1.252695	0.749932
H261	H	-1.186657	0.537023	-0.000068
H262	H	-0.936657	0.787023	0.249932
H263	H	-0.686657	1.037023	0.499932
H264	H	-0.436657	1.287023	0.749932
H265	H	-1.140617	0.466283	0.054225
H266	H	-0.890617	0.716283	0.304225
H267	H	-0.640617	0.966283	0.554225
H268	H	-0.390617	1.216283	0.804225
H269	H	-1.084696	0.010941	0.416305
H270	H	-0.834696	0.260941	0.666305
H271	H	-0.584696	0.510941	0.916305
H272	H	-0.334696	0.760941	1.166305
