data_functionalizedCrystal
_audit_creation_method	'MofGen! by Chris Wilmer'
_symmetry_space_group_name_H-M	'P1'
_symmetry_Int_Tables_number	1
_symmetry_cell_setting	triclinic
loop_
_symmetry_equiv_pos_as_xyz
  x,y,z
_cell_length_a	10.489741
_cell_length_b	15.944545
_cell_length_c	9.565339
_cell_angle_alpha	89.998129
_cell_angle_beta	89.999100
_cell_angle_gamma	84.017673
loop_
_atom_site_label
_atom_site_type_symbol
_atom_site_fract_x
_atom_site_fract_y
_atom_site_fract_z
O1	O	1.692406	0.118501	-0.116181
O2	O	1.321056	0.129625	-0.116203
O3	O	1.516876	0.001849	-0.116175
O4	O	1.496586	0.246277	-0.116209
O5	O	1.516860	0.001857	0.116345
O6	O	1.321040	0.129633	0.116317
O7	O	1.692391	0.118509	0.116339
Zn8	Zn	1.506713	0.124072	0.153246
Zn9	Zn	1.506733	0.124062	-0.153110
O10	O	1.496570	0.246285	0.116311
C11	C	1.273528	0.128788	0.000054
C12	C	1.131933	0.126275	0.000046
C13	C	1.516027	-0.029447	0.000086
C14	C	1.513506	-0.122708	0.000090
C15	C	1.064923	0.044975	0.000071
C16	C	0.972270	0.083376	-0.114576
C17	C	0.972289	0.083403	0.114670
C18	C	1.041145	0.164710	-0.114696
C19	C	1.041174	0.164726	0.114654
C20	C	0.948547	0.203186	-0.000021
C21	C	1.384595	-0.394116	0.000054
C22	C	1.446753	-0.343160	-0.114587
C23	C	1.504516	-0.458406	0.000050
C24	C	1.446770	-0.343180	0.114659
C25	C	1.508926	-0.293466	0.000072
C26	C	1.566642	-0.408679	-0.114686
C27	C	1.566641	-0.408702	0.114663
C28	C	1.628888	-0.357779	-0.000006
C29	C	1.501971	-0.553423	0.000036
C30	C	1.511480	-0.198451	0.000076
C31	C	1.739918	0.119345	0.000079
C32	C	1.881513	0.121859	0.000078
C33	C	1.497419	0.277580	0.000046
C34	C	1.499940	0.370842	0.000033
N35	N	1.506708	0.124079	0.362325
N36	N	1.506748	0.124048	-0.362189
C37	C	1.416121	0.183151	0.453515
C38	C	1.531382	0.200147	0.546698
C39	C	1.391497	0.107090	0.546697
C40	C	1.622027	0.141113	0.453456
C41	C	1.482067	0.048022	0.453447
C42	C	1.597411	0.064986	0.546588
H43	H	0.941741	0.048973	-0.211494
H44	H	1.461162	-0.016264	0.412455
H45	H	1.294049	0.092734	0.587657
C46	C	1.766614	-0.336120	-0.000013
C47	C	1.767515	-0.248375	0.001160
C48	C	1.894364	-0.228394	0.001163
H49	H	1.809137	-0.358685	-0.081485
H50	H	1.809523	-0.359514	0.080689
H51	H	1.724624	-0.224991	-0.079533
H52	H	1.725018	-0.225790	0.082627
H53	H	1.937273	-0.251787	0.081865
H54	H	1.936877	-0.250963	-0.080311
H55	H	1.894992	-0.168857	0.001972
H56	H	1.674119	0.015015	0.587198
C57	C	1.081506	0.210690	-0.243973
C58	C	1.021086	0.293243	-0.244106
C59	C	1.058251	0.335624	-0.363163
H60	H	1.057379	0.182102	-0.325382
H61	H	1.171836	0.212042	-0.243219
H62	H	0.930775	0.291888	-0.244872
H63	H	1.045204	0.321854	-0.162723
H64	H	1.148581	0.336976	-0.362409
H65	H	1.034123	0.307029	-0.444563
H66	H	1.017272	0.391643	-0.363262
H67	H	0.941783	0.048992	0.211596
H68	H	1.719497	0.155546	0.412672
H69	H	1.617236	-0.437344	0.211595
H70	H	1.115542	-0.021859	-0.000063
H71	H	1.071735	0.199101	0.211577
C72	C	1.379094	-0.304852	-0.243650
C73	C	1.276182	-0.247085	-0.202641
C74	C	1.213824	-0.211774	-0.321486
H75	H	1.348060	-0.348218	-0.298100
H76	H	1.437639	-0.276703	-0.297628
H77	H	1.217647	-0.275234	-0.148686
H78	H	1.307181	-0.203704	-0.148207
H79	H	1.272369	-0.183625	-0.375464
H80	H	1.182798	-0.255146	-0.375928
H81	H	1.143999	-0.172570	-0.293678
H82	H	1.617257	-0.437184	-0.211714
C83	C	0.881154	0.292328	-0.000040
C84	C	0.748301	0.289022	0.001141
C85	C	0.686175	0.371119	0.001135
H86	H	0.904559	0.321145	-0.081518
H87	H	0.905714	0.321440	0.080656
H88	H	0.723751	0.259921	-0.079547
H89	H	0.724859	0.260220	0.082613
H90	H	0.710734	0.400232	0.081831
H91	H	0.709590	0.399930	-0.080345
H92	H	0.596028	0.368888	0.001949
H93	H	1.281317	-0.410389	-0.000064
C94	C	1.379011	-0.305140	0.243857
C95	C	1.251246	-0.323257	0.243313
C96	C	1.188786	-0.288245	0.362315
H97	H	1.381624	-0.245769	0.243518
H98	H	1.420687	-0.328486	0.325297
H99	H	1.209581	-0.299907	0.161895
H100	H	1.248595	-0.382620	0.243673
H101	H	1.230462	-0.311592	0.443755
H102	H	1.191409	-0.228876	0.361965
H103	H	1.102095	-0.300539	0.361968
H104	H	1.339583	0.233153	0.412649
C105	C	1.558957	0.285957	0.601250
C106	C	1.463800	0.347577	0.554133
C107	C	1.489142	0.426634	0.604367
H108	H	1.640141	0.298538	0.567986
H109	H	1.559489	0.285208	0.700564
H110	H	1.463281	0.348328	0.454839
H111	H	1.382607	0.335024	0.587393
H112	H	1.489674	0.425885	0.703681
H113	H	1.570328	0.439206	0.571099
H114	H	1.424577	0.468452	0.572416
