data_functionalizedCrystal
_audit_creation_method	'MofGen! by Chris Wilmer'
_symmetry_space_group_name_H-M	'P1'
_symmetry_Int_Tables_number	1
_symmetry_cell_setting	triclinic
loop_
_symmetry_equiv_pos_as_xyz
  x,y,z
_cell_length_a	27.732048
_cell_length_b	10.268362
_cell_length_c	27.732048
_cell_angle_alpha	90.010224
_cell_angle_beta	97.357345
_cell_angle_gamma	90.000911
loop_
_atom_site_label
_atom_site_type_symbol
_atom_site_fract_x
_atom_site_fract_y
_atom_site_fract_z
O1	O	0.640927	-0.108146	-0.057517
O2	O	0.500134	-0.108188	-0.066263
O3	O	0.574903	-0.108141	0.008507
O4	O	0.566158	-0.108193	-0.132287
O5	O	0.574897	0.108460	0.008510
O6	O	0.500127	0.108413	-0.066260
O7	O	0.640921	0.108454	-0.057514
Cu8	Cu	0.570523	0.128211	-0.061887
Cu9	Cu	0.570531	-0.127944	-0.061890
O10	O	0.566151	0.108408	-0.132284
C11	C	0.482124	0.000108	-0.066078
C12	C	0.428469	0.000093	-0.065525
N13	N	0.570522	0.308377	-0.061884
N14	N	0.570537	-0.308110	-0.061889
C15	C	0.089654	0.000134	-0.106229
C16	C	-0.112006	0.000147	-0.104178
O17	O	-0.143262	0.000189	-0.141398
N18	N	-0.131130	0.000161	-0.059843
C19	C	-0.099835	0.000180	-0.016017
O20	O	-0.120728	0.000206	0.021740
C21	C	0.101824	0.000177	-0.018068
C22	C	0.120944	0.000150	-0.062407
C23	C	0.108775	0.000108	-0.150563
C24	C	0.159187	0.000098	-0.151075
C25	C	0.190477	0.000114	-0.107253
C26	C	0.171356	0.000140	-0.062919
C27	C	0.133117	0.000206	0.025757
C28	C	0.183535	0.000209	0.025240
C29	C	0.202655	0.000181	-0.019098
C30	C	0.253059	0.000145	-0.019609
N31	N	0.272183	0.000131	-0.063944
C32	C	0.240892	0.000116	-0.107766
C33	C	-0.205709	0.000179	-0.014943
C34	C	-0.256124	0.000178	-0.014430
C35	C	-0.268291	0.000147	-0.102591
C36	C	-0.217876	0.000139	-0.103104
C37	C	-0.186585	0.000165	-0.059278
C38	C	0.346761	0.000093	-0.108839
C39	C	0.397178	0.000077	-0.109347
C40	C	0.409341	0.000115	-0.021186
C41	C	0.358929	0.000124	-0.020678
C42	C	0.327639	0.000117	-0.064508
O43	O	0.284343	0.000117	0.017592
O44	O	0.261794	0.000119	-0.145518
C45	C	0.039242	0.000145	-0.105716
C46	C	0.020120	0.000170	-0.061382
C47	C	0.051411	0.000186	-0.017560
C48	C	-0.030294	0.000169	-0.060869
C49	C	-0.061585	0.000153	-0.104691
C50	C	-0.042461	0.000139	-0.149026
C51	C	0.007951	0.000129	-0.149539
C52	C	0.032287	0.000200	0.026775
C53	C	-0.018125	0.000209	0.027284
C54	C	-0.049416	0.000193	-0.016538
C55	C	0.658931	0.000156	-0.057699
C56	C	0.712586	0.000162	-0.058252
C57	C	0.574716	0.000163	0.026515
C58	C	0.574164	0.000174	0.080170
C59	C	0.570529	0.574047	-0.061889
C60	C	0.570523	0.426210	-0.061888
C61	C	0.566338	0.000101	-0.150292
C62	C	0.566891	0.000082	-0.203947
C63	C	0.614867	0.000119	0.418985
C64	C	0.612816	0.000100	0.620645
O65	O	0.650037	0.000054	0.651900
N66	N	0.568481	0.000088	0.639768
C67	C	0.524656	0.000072	0.608474
O68	O	0.486899	0.000048	0.629367
C69	C	0.526707	0.000082	0.406815
C70	C	0.571045	0.000107	0.387694
C71	C	0.659202	0.000142	0.399864
C72	C	0.659714	0.000154	0.349452
C73	C	0.615892	0.000142	0.318161
C74	C	0.571557	0.000119	0.337282
C75	C	0.482882	0.000057	0.375521
C76	C	0.483399	0.000056	0.325104
C77	C	0.527737	0.000081	0.305983
C78	C	0.528247	0.000119	0.255580
N79	N	0.572583	0.000130	0.236456
C80	C	0.616405	0.000142	0.267747
C81	C	0.523582	0.000070	0.714348
C82	C	0.523069	0.000070	0.764762
C83	C	0.611230	0.000095	0.776930
C84	C	0.611742	0.000104	0.726514
C85	C	0.567917	0.000082	0.695224
C86	C	0.617477	0.000168	0.161878
C87	C	0.617986	0.000185	0.111461
C88	C	0.529825	0.000153	0.099298
C89	C	0.529316	0.000143	0.149710
C90	C	0.573147	0.000146	0.180999
O91	O	0.491047	0.000150	0.224296
O92	O	0.654156	0.000137	0.246844
C93	C	0.614355	0.000107	0.469397
C94	C	0.570021	0.000083	0.488518
C95	C	0.526198	0.000071	0.457228
C96	C	0.569508	0.000083	0.538933
C97	C	0.613330	0.000095	0.570223
C98	C	0.657665	0.000107	0.551100
C99	C	0.658177	0.000119	0.500688
C100	C	0.481863	0.000060	0.476351
C101	C	0.481355	0.000049	0.526764
C102	C	0.525177	0.000061	0.558054
H103	H	0.412743	0.000054	-0.145454
C104	C	-0.038948	0.000438	0.075391
C105	C	-0.067540	0.111868	0.078257
C106	C	-0.086734	0.112125	0.122561
H107	H	-0.013139	0.000515	0.101456
H108	H	-0.058392	-0.075050	0.077431
H109	H	-0.048097	0.187335	0.076221
H110	H	-0.093357	0.111814	0.052202
H111	H	-0.106178	0.036637	0.124601
H112	H	-0.060921	0.112198	0.148622
H113	H	-0.106139	0.187722	0.124509
H114	H	0.486964	0.000072	0.780325
C115	C	0.112461	0.000316	0.073946
C116	C	0.150663	0.000377	0.112208
C117	C	0.131654	0.000501	0.156610
H118	H	0.093053	-0.075189	0.076057
H119	H	0.093065	0.075888	0.076005
H120	H	0.170051	-0.075187	0.110150
H121	H	0.170074	0.075876	0.110113
H122	H	0.112258	0.076072	0.158668
H123	H	0.112247	-0.075006	0.158715
H124	H	0.157571	0.000554	0.182575
H125	H	0.174750	0.000076	-0.187180
H126	H	0.693347	0.000122	0.576585
H127	H	0.447710	0.000036	0.299629
H128	H	0.209009	0.000231	0.060929
H129	H	0.445246	0.000040	0.542327
H130	H	0.343360	0.000127	0.015426
H131	H	0.493213	0.000159	0.165279
C132	C	0.434230	0.000123	0.442463
C133	C	0.395298	0.000144	0.470007
C134	C	0.351408	0.000230	0.438808
H135	H	0.432524	-0.075382	0.422523
H136	H	0.432568	0.075694	0.422559
H137	H	0.396959	-0.075419	0.489903
H138	H	0.396988	0.075644	0.489946
H139	H	0.349746	0.075801	0.418904
H140	H	0.349707	-0.075277	0.418869
H141	H	0.324988	0.000256	0.457492
C142	C	0.482212	-0.000072	0.065375
C143	C	0.455496	-0.111511	0.073965
C144	C	0.411631	-0.111766	0.042727
H145	H	0.488804	-0.000136	0.032596
H146	H	0.463982	0.075409	0.071144
H147	H	0.473723	-0.186973	0.068192
H148	H	0.448892	-0.111470	0.106738
H149	H	0.393401	-0.036285	0.048497
H150	H	0.418227	-0.111827	0.009951
H151	H	0.393496	-0.187369	0.048555
H152	H	0.446777	0.000029	0.391080
C153	C	0.312875	0.000008	-0.156477
C154	C	0.340420	-0.000055	-0.195408
C155	C	0.309221	-0.000162	-0.239299
H156	H	0.292944	0.075520	-0.158184
H157	H	0.292961	-0.075557	-0.158137
H158	H	0.360325	0.075502	-0.193748
H159	H	0.360350	-0.075561	-0.193717
H160	H	0.289308	-0.075726	-0.240959
H161	H	0.289292	0.075352	-0.241001
H162	H	0.327906	-0.000216	-0.265718
H163	H	0.487892	0.000052	0.688875
H164	H	0.083302	0.000100	-0.186251
H165	H	0.646911	0.000105	0.802415
H166	H	0.057760	0.000216	0.062462
H167	H	-0.202311	0.000124	-0.139207
H168	H	-0.293777	0.000134	-0.138273
C169	C	-0.276786	0.000258	0.033759
C170	C	-0.238586	0.000308	0.072023
C171	C	-0.257599	0.000407	0.116423
H172	H	-0.296192	-0.075254	0.035863
H173	H	-0.296184	0.075823	0.035820
H174	H	-0.219196	-0.075250	0.069963
H175	H	-0.219177	0.075814	0.069935
H176	H	-0.276998	0.075973	0.118485
H177	H	-0.277006	-0.075105	0.118522
H178	H	-0.231684	0.000453	0.142391
C179	C	0.706302	0.000401	0.479905
C180	C	0.709181	0.111856	0.451336
C181	C	0.753512	0.112165	0.432193
H182	H	0.708387	-0.075042	0.460453
H183	H	0.732338	0.000474	0.505753
H184	H	0.683152	0.111770	0.425492
H185	H	0.707105	0.187317	0.470777
H186	H	0.779548	0.112238	0.458041
H187	H	0.755593	0.036717	0.412744
H188	H	0.755473	0.187791	0.412811
C189	C	-0.171685	-0.000011	0.032607
C190	C	-0.142379	-0.111431	0.034883
C191	C	-0.111029	-0.111650	0.078676
H192	H	-0.190239	-0.000074	0.059121
H193	H	-0.151735	0.075483	0.034251
H194	H	-0.162327	-0.186905	0.033243
H195	H	-0.123815	-0.111392	0.008379
H196	H	-0.091079	-0.036156	0.080320
H197	H	-0.129587	-0.111710	0.105186
H198	H	-0.091139	-0.187241	0.080224
H199	H	0.023514	0.000108	-0.185643
C200	C	-0.076520	0.000189	-0.196554
C201	C	-0.124761	0.000234	-0.186608
C202	C	-0.156151	0.000305	-0.230376
H203	H	-0.070827	-0.075330	-0.214789
H204	H	-0.070787	0.075747	-0.214752
H205	H	-0.130492	-0.075316	-0.168418
H206	H	-0.130469	0.075748	-0.168380
H207	H	-0.150418	0.075863	-0.248574
H208	H	-0.150454	-0.075215	-0.248607
H209	H	-0.188886	0.000348	-0.223634
C210	C	0.665116	0.000244	0.195764
C211	C	0.704047	0.000303	0.168219
C212	C	0.747937	0.000399	0.199417
H213	H	0.666825	-0.075270	0.215689
H214	H	0.666774	0.075807	0.215682
H215	H	0.702389	-0.075252	0.148308
H216	H	0.702353	0.075812	0.148294
H217	H	0.749595	0.075962	0.219336
H218	H	0.749642	-0.075116	0.219341
H219	H	0.774357	0.000451	0.180733
H220	H	0.694889	0.000147	0.425336
C221	C	0.659845	-0.000085	0.705690
C222	C	0.662715	-0.111507	0.677088
C223	C	0.707020	-0.111721	0.657895
H224	H	0.685910	-0.000142	0.731500
H225	H	0.661882	0.075408	0.686253
H226	H	0.660683	-0.186980	0.696524
H227	H	0.636661	-0.111473	0.651271
H228	H	0.709057	-0.036228	0.638457
H229	H	0.733081	-0.111775	0.683707
H230	H	0.708971	-0.187313	0.638483
H231	H	0.434827	0.000123	0.014492
H232	H	0.654093	0.000209	0.095896
H233	H	0.695819	0.000169	0.333889
