data_functionalizedCrystal
_audit_creation_method	'MofGen! by Chris Wilmer'
_symmetry_space_group_name_H-M	'P1'
_symmetry_Int_Tables_number	1
_symmetry_cell_setting	triclinic
loop_
_symmetry_equiv_pos_as_xyz
  x,y,z
_cell_length_a	16.625548
_cell_length_b	29.839131
_cell_length_c	16.625539
_cell_angle_alpha	90.039748
_cell_angle_beta	90.020568
_cell_angle_gamma	90.036296
loop_
_atom_site_label
_atom_site_type_symbol
_atom_site_fract_x
_atom_site_fract_y
_atom_site_fract_z
Zn1	Zn	1.232609	-0.178840	0.455845
Zn2	Zn	1.732609	0.321160	0.955845
Zn3	Zn	1.232482	-0.253971	0.320985
Zn4	Zn	1.732482	0.246029	0.820985
Zn5	Zn	1.097771	-0.178857	0.321026
Zn6	Zn	1.597771	0.321143	0.821026
Zn7	Zn	1.097711	-0.253945	0.455775
Zn8	Zn	1.597711	0.246055	0.955775
O9	O	1.165143	-0.216403	0.388408
O10	O	1.665143	0.283597	0.888408
O11	O	1.345425	-0.188810	0.437968
O12	O	1.845425	0.311190	0.937968
O13	O	1.214584	-0.244025	0.208158
O14	O	1.714584	0.255975	0.708158
O15	O	1.115735	-0.115987	0.338956
O16	O	1.615735	0.384013	0.838956
O17	O	1.345331	-0.244008	0.338887
O18	O	1.845331	0.255992	0.838887
O19	O	1.214800	-0.115975	0.438007
O20	O	1.714800	0.384025	0.938007
O21	O	1.115612	-0.188839	0.208188
O22	O	1.615612	0.311161	0.708188
O23	O	0.984930	-0.188814	0.338888
O24	O	1.484930	0.311186	0.838888
O25	O	1.115634	-0.243964	0.568617
O26	O	1.615634	0.256036	1.068617
O27	O	0.984887	-0.243981	0.437888
O28	O	1.484887	0.256019	0.937888
O29	O	1.214743	-0.188785	0.568668
O30	O	1.714743	0.311215	1.068668
O31	O	1.214526	-0.316834	0.338820
O32	O	1.714526	0.183166	0.838820
O33	O	1.115511	-0.316815	0.437849
O34	O	1.615511	0.183185	0.937849
C35	C	0.955652	-0.216397	0.388385
C36	C	1.455652	0.283603	0.888385
C37	C	0.866031	-0.216405	0.388395
C38	C	1.366031	0.283595	0.888395
C39	C	0.537856	-0.216408	0.388429
C40	C	1.037856	0.283592	0.888429
C41	C	0.629164	-0.216406	0.388417
C42	C	1.129164	0.283594	0.888417
C43	C	0.701941	-0.216406	0.388411
C44	C	1.201941	0.283594	0.888411
C45	C	0.793255	-0.216404	0.388401
C46	C	1.293255	0.283596	0.888401
C47	C	1.165020	-0.333126	0.388340
C48	C	1.665020	0.166874	0.888340
C49	C	1.165041	-0.383060	0.388338
C50	C	1.665041	0.116940	0.888338
C51	C	1.216715	-0.692662	0.440057
C52	C	1.716715	-0.192662	0.940057
C53	C	1.216803	-0.880335	0.440106
C54	C	1.716803	-0.380335	0.940106
O55	O	1.260617	-0.904565	0.484029
O56	O	1.760617	-0.404565	0.984029
N57	N	1.165280	-0.903845	0.388497
N58	N	1.665280	-0.403845	0.888497
C59	C	1.113728	-0.880434	0.336877
C60	C	1.613728	-0.380434	0.836877
O61	O	1.069901	-0.904737	0.292988
O62	O	1.569901	-0.404737	0.792988
C63	C	1.113637	-0.692762	0.336833
C64	C	1.613637	-0.192762	0.836833
C65	C	1.165169	-0.669254	0.388439
C66	C	1.665169	-0.169254	0.888439
C67	C	1.268242	-0.669154	0.491660
C68	C	1.768242	-0.169154	0.991660
C69	C	1.268223	-0.622239	0.491644
C70	C	1.768223	-0.122239	0.991644
C71	C	1.216677	-0.598831	0.440026
C72	C	1.716677	-0.098831	0.940026
C73	C	1.165150	-0.622339	0.388423
C74	C	1.665150	-0.122339	0.888423
C75	C	1.062082	-0.669352	0.285217
C76	C	1.562082	-0.169352	0.785217
C77	C	1.062063	-0.622431	0.285212
C78	C	1.562063	-0.122431	0.785212
C79	C	1.113594	-0.598923	0.336818
C80	C	1.613594	-0.098923	0.836818
C81	C	1.113584	-0.552016	0.336790
C82	C	1.613584	-0.052016	0.836790
N83	N	1.165107	-0.528505	0.388398
N84	N	1.665107	-0.028505	0.888398
C85	C	1.216653	-0.551913	0.440016
C86	C	1.716653	-0.051913	0.940016
C87	C	1.113781	-0.978965	0.336902
C88	C	1.613781	-0.478965	0.836902
C89	C	1.113805	-1.025882	0.336912
C90	C	1.613805	-0.525882	0.836912
C91	C	1.216878	-1.025780	0.440142
C92	C	1.716878	-0.525780	0.940142
C93	C	1.216858	-0.978861	0.440128
C94	C	1.716858	-0.478861	0.940128
C95	C	1.165303	-0.955455	0.388511
C96	C	1.665303	-0.455455	0.888511
C97	C	1.216609	-0.453387	0.439979
C98	C	1.716609	0.046613	0.939979
C99	C	1.216588	-0.406468	0.439956
C100	C	1.716588	0.093532	0.939956
C101	C	1.113511	-0.406574	0.336729
C102	C	1.613511	0.093426	0.836729
C103	C	1.113536	-0.453490	0.336749
C104	C	1.613536	0.046510	0.836749
C105	C	1.165087	-0.476895	0.388380
C106	C	1.665087	0.023105	0.888380
O107	O	1.069787	-0.527757	0.292896
O108	O	1.569787	-0.027757	0.792896
O109	O	1.260461	-0.527602	0.483911
O110	O	1.760461	-0.027602	0.983911
C111	C	1.216734	-0.739577	0.440073
C112	C	1.716734	-0.239577	0.940073
C113	C	1.165208	-0.763085	0.388471
C114	C	1.665208	-0.263085	0.888471
C115	C	1.113662	-0.739677	0.336852
C116	C	1.613662	-0.239677	0.836852
C117	C	1.165231	-0.810003	0.388480
C118	C	1.665231	-0.310003	0.888480
C119	C	1.216777	-0.833411	0.440099
C120	C	1.716777	-0.333411	0.940099
C121	C	1.268300	-0.809901	0.491707
C122	C	1.768300	-0.309901	0.991707
C123	C	1.268281	-0.762985	0.491691
C124	C	1.768281	-0.262985	0.991691
C125	C	1.062139	-0.763187	0.285244
C126	C	1.562139	-0.263187	0.785244
C127	C	1.062163	-0.810103	0.285263
C128	C	1.562163	-0.310103	0.785263
C129	C	1.113709	-0.833511	0.336882
C130	C	1.613709	-0.333511	0.836882
C131	C	1.375452	-0.216410	0.388431
C132	C	1.875452	0.283590	0.888431
C133	C	1.465073	-0.216413	0.388441
C134	C	1.965073	0.283587	0.888441
C135	C	1.165196	-0.216370	0.598717
C136	C	1.665196	0.283630	1.098717
C137	C	1.165218	-0.216355	0.688338
C138	C	1.665218	0.283645	1.188338
C139	C	1.165289	-0.099225	0.388494
C140	C	1.665289	0.400775	0.888494
C141	C	1.165351	-0.049290	0.388530
C142	C	1.665351	0.450710	0.888530
C143	C	1.165137	-0.216404	0.178917
C144	C	1.665137	0.283596	0.678917
C145	C	1.165271	-0.216292	0.089297
C146	C	1.665271	0.283708	0.589297
C147	C	1.165255	-0.216305	1.016514
C148	C	1.665255	0.283695	1.516514
C149	C	1.165243	-0.216320	0.925205
C150	C	1.665243	0.283680	1.425205
C151	C	1.165237	-0.216330	0.852429
C152	C	1.665237	0.283670	1.352429
C153	C	1.165224	-0.216345	0.761115
C154	C	1.665224	0.283655	1.261115
H155	H	1.258554	-0.387329	0.481980
H156	H	1.758554	0.112671	0.981980
C157	C	1.376729	-0.721850	0.502978
C158	C	1.876729	-0.221850	1.002978
C159	C	1.324910	-0.694880	0.548402
C160	C	1.824910	-0.194880	1.048402
H161	H	1.411715	-0.737731	0.538009
H162	H	1.911715	-0.237731	1.038009
H163	H	1.407571	-0.703546	0.467874
H164	H	1.907571	-0.203546	0.967874
H165	H	1.346041	-0.742569	0.472254
H166	H	1.846041	-0.242569	0.972254
H167	H	1.355597	-0.674159	0.579121
H168	H	1.855597	-0.174159	1.079121
H169	H	1.294065	-0.713186	0.583520
H170	H	1.794065	-0.213186	1.083520
H171	H	1.020120	-0.688484	0.243194
H172	H	1.520120	-0.188484	0.743194
C173	C	0.976994	-0.392209	0.297342
C174	C	1.476994	0.107791	0.797342
C175	C	1.056847	-0.380838	0.279999
C176	C	1.556847	0.119162	0.779999
H177	H	0.942010	-0.376321	0.262319
H178	H	1.442010	0.123679	0.762319
H179	H	0.965177	-0.384503	0.351502
H180	H	1.465177	0.115497	0.851502
H181	H	0.969638	-0.423516	0.289954
H182	H	1.469638	0.076484	0.789954
H183	H	1.064205	-0.349531	0.287393
H184	H	1.564205	0.150469	0.787393
H185	H	1.068668	-0.388541	0.225826
H186	H	1.568668	0.111459	0.725826
C187	C	1.016402	-0.882066	0.239443
C188	C	1.516402	-0.382066	0.739443
C189	C	1.005511	-0.835940	0.228536
C190	C	1.505511	-0.335940	0.728536
H191	H	0.981427	-0.898014	0.204424
H192	H	1.481427	-0.398014	0.704424
H193	H	1.004580	-0.889731	0.293606
H194	H	1.504580	-0.389731	0.793606
H195	H	1.070585	-0.889735	0.227684
H196	H	1.570585	-0.389735	0.727684
H197	H	0.951329	-0.828270	0.240301
H198	H	1.451329	-0.328270	0.740301
H199	H	1.017328	-0.828272	0.174361
H200	H	1.517328	-0.328272	0.674361
C201	C	1.011916	-1.021259	0.234879
C202	C	1.511916	-0.521259	0.734879
C203	C	1.057164	-1.051719	0.280180
C204	C	1.557164	-0.551719	0.780180
H205	H	0.976942	-1.037209	0.199861
H206	H	1.476942	-0.537209	0.699861
H207	H	1.047057	-1.002958	0.204067
H208	H	1.547057	-0.502958	0.704067
H209	H	0.981052	-1.002957	0.269989
H210	H	1.481052	-0.502957	0.769989
H211	H	1.088033	-1.070018	0.245070
H212	H	1.588033	-0.570018	0.745070
H213	H	1.022019	-1.070028	0.310995
H214	H	1.522019	-0.570028	0.810995
H215	H	1.258582	-0.472439	0.482027
H216	H	1.758582	0.027561	0.982027
C217	C	1.102415	-0.506311	0.228286
C218	C	1.602415	-0.006311	0.728286
C219	C	1.056899	-0.479330	0.280013
C220	C	1.556899	0.020670	0.780013
H221	H	1.067445	-0.522258	0.193260
H222	H	1.567445	-0.022258	0.693260
H223	H	1.133102	-0.526968	0.259032
H224	H	1.633102	-0.026968	0.759032
H225	H	1.137557	-0.488002	0.197475
H226	H	1.637557	0.011998	0.697475
H227	H	1.021761	-0.497639	0.310828
H228	H	1.521761	0.002361	0.810828
H229	H	1.026198	-0.458671	0.249264
H230	H	1.526198	0.041329	0.749264
H231	H	1.310242	-0.743849	0.533714
H232	H	1.810242	-0.243849	1.033714
H233	H	1.310273	-0.828967	0.533734
H234	H	1.810273	-0.328967	1.033734
H235	H	1.310182	-0.603102	0.533669
H236	H	1.810182	-0.103102	1.033669
H237	H	1.020163	-0.744132	0.243211
H238	H	1.520163	-0.244132	0.743211
C239	C	1.318737	-0.983484	0.542170
C240	C	1.818737	-0.483484	1.042170
C241	C	1.273493	-0.953024	0.496864
C242	C	1.773493	-0.453024	0.996864
H243	H	1.353696	-0.967534	0.577202
H244	H	1.853696	-0.467534	1.077202
H245	H	1.349608	-1.001780	0.507070
H246	H	1.849608	-0.501780	1.007070
H247	H	1.283586	-1.001791	0.572974
H248	H	1.783586	-0.501791	1.072974
H249	H	1.308643	-0.934720	0.466055
H250	H	1.808643	-0.434720	0.966055
H251	H	1.242619	-0.934720	0.531969
H252	H	1.742619	-0.434720	1.031969
H253	H	1.258850	-1.044847	0.482171
H254	H	1.758850	-0.544847	0.982171
H255	H	1.071798	-0.959910	0.294868
H256	H	1.571798	-0.459910	0.794868
C257	C	0.960171	-0.627248	0.183182
C258	C	1.460171	-0.127248	0.683182
C259	C	1.005391	-0.596703	0.228471
C260	C	1.505391	-0.096703	0.728471
H261	H	0.925190	-0.611364	0.148150
H262	H	1.425190	-0.111364	0.648150
H263	H	0.929324	-0.645545	0.218294
H264	H	1.429324	-0.145545	0.718294
H265	H	0.995335	-0.645546	0.152378
H266	H	1.495335	-0.145546	0.652378
H267	H	0.970227	-0.578407	0.259280
H268	H	1.470227	-0.078407	0.759280
H269	H	1.036241	-0.578398	0.193355
H270	H	1.536241	-0.078398	0.693355
