data_functionalizedCrystal
_audit_creation_method	'MofGen! by Chris Wilmer'
_symmetry_space_group_name_H-M	'P1'
_symmetry_Int_Tables_number	1
_symmetry_cell_setting	triclinic
loop_
_symmetry_equiv_pos_as_xyz
  x,y,z
_cell_length_a	17.699104
_cell_length_b	27.731996
_cell_length_c	16.176319
_cell_angle_alpha	89.987220
_cell_angle_beta	89.991696
_cell_angle_gamma	82.956452
loop_
_atom_site_label
_atom_site_type_symbol
_atom_site_fract_x
_atom_site_fract_y
_atom_site_fract_z
O1	O	1.003512	0.061176	-0.068774
O2	O	1.503512	0.561176	0.431226
O3	O	0.783063	0.069119	-0.068774
O4	O	1.283063	0.569119	0.431226
O5	O	0.900154	-0.005226	-0.068756
O6	O	1.400154	0.494774	0.431244
O7	O	0.886420	0.135521	-0.068792
O8	O	1.386420	0.635521	0.431208
O9	O	0.900139	-0.005231	0.068737
O10	O	1.400139	0.494769	0.568737
O11	O	0.783047	0.069114	0.068720
O12	O	1.283047	0.569114	0.568720
O13	O	1.003496	0.061172	0.068719
O14	O	1.503496	0.561172	0.568719
Cu15	Cu	0.893270	0.065142	0.081274
Cu16	Cu	1.393270	0.565142	0.581274
Cu17	Cu	0.893289	0.065148	-0.081328
Cu18	Cu	1.393289	0.565148	0.418672
O19	O	0.886404	0.135516	0.068702
O20	O	1.386404	0.635516	0.568702
C21	C	0.754861	0.068830	-0.000027
C22	C	1.254861	0.568830	0.499973
C23	C	0.670852	0.067971	-0.000026
C24	C	1.170852	0.567971	0.499974
C25	C	0.145627	0.106766	-0.000044
C26	C	0.645627	0.606766	0.499956
C27	C	0.224564	0.107570	-0.000047
C28	C	0.724564	0.607570	0.499953
C29	C	0.273579	0.063927	-0.000035
C30	C	0.773579	0.563927	0.499965
C31	C	0.243654	0.019477	-0.000030
C32	C	0.743654	0.519477	0.499970
C33	C	0.164719	0.018673	-0.000033
C34	C	0.664719	0.518673	0.499967
C35	C	0.561990	0.022717	-0.000018
C36	C	1.061990	0.522717	0.499982
C37	C	0.640930	0.023524	-0.000012
C38	C	1.140930	0.523524	0.499988
C39	C	0.621835	0.111614	-0.000031
C40	C	1.121835	0.611614	0.499969
C41	C	0.542900	0.110810	-0.000034
C42	C	1.042900	0.610810	0.499966
C43	C	0.512982	0.066360	-0.000033
C44	C	1.012982	0.566360	0.499967
C45	C	0.427390	0.065489	-0.000032
C46	C	0.927390	0.565489	0.499968
C47	C	0.359169	0.064798	-0.000031
C48	C	0.859169	0.564798	0.499969
C49	C	0.899864	-0.023237	-0.000007
C50	C	1.399864	0.476763	0.499993
C51	C	0.899015	-0.076896	0.000002
C52	C	1.399015	0.423104	0.500002
C53	C	0.893677	-0.409629	-0.074986
C54	C	1.393677	0.090371	0.425014
C55	C	0.890450	-0.611299	-0.075001
C56	C	1.390450	-0.111299	0.424999
O57	O	0.890007	-0.637369	-0.138741
O58	O	1.390007	-0.137369	0.361259
N59	N	0.890040	-0.636520	-0.000054
N60	N	1.390040	-0.136520	0.499946
C61	C	0.890432	-0.611321	0.074902
C62	C	1.390432	-0.111321	0.574902
O63	O	0.890002	-0.637399	0.138649
O64	O	1.390002	-0.137399	0.638649
C65	C	0.893654	-0.409651	0.074916
C66	C	1.393654	0.090349	0.574916
C67	C	0.894071	-0.384433	-0.000036
C68	C	1.394071	0.115567	0.499964
C69	C	0.894093	-0.384411	-0.149932
C70	C	1.394093	0.115589	0.350068
C71	C	0.894904	-0.333997	-0.149927
C72	C	1.394904	0.166003	0.350073
C73	C	0.895298	-0.308801	-0.074977
C74	C	1.395298	0.191199	0.425023
C75	C	0.894882	-0.334019	-0.000032
C76	C	1.394882	0.165981	0.499968
C77	C	0.894041	-0.384452	0.149871
C78	C	1.394041	0.115548	0.649871
C79	C	0.894844	-0.334031	0.149867
C80	C	1.394844	0.165969	0.649867
C81	C	0.895262	-0.308813	0.074916
C82	C	1.395262	0.191187	0.574916
C83	C	0.896087	-0.258409	0.074923
C84	C	1.396087	0.241591	0.574923
N85	N	0.896497	-0.233188	-0.000024
N86	N	1.396497	0.266812	0.499976
C87	C	0.896102	-0.258384	-0.074974
C88	C	1.396102	0.241616	0.425026
C89	C	0.888743	-0.717200	0.074890
C90	C	1.388743	-0.217200	0.574890
C91	C	0.887939	-0.767617	0.074886
C92	C	1.387939	-0.267617	0.574886
C93	C	0.887954	-0.767592	-0.075017
C94	C	1.387954	-0.267592	0.424983
C95	C	0.888764	-0.717175	-0.075012
C96	C	1.388764	-0.217175	0.424988
C97	C	0.889152	-0.691979	-0.000057
C98	C	1.389152	-0.191979	0.499943
C99	C	0.897806	-0.152510	-0.074959
C100	C	1.397806	0.347490	0.425041
C101	C	0.898620	-0.102092	-0.074948
C102	C	1.398620	0.397908	0.425052
C103	C	0.898600	-0.102121	0.074954
C104	C	1.398600	0.397879	0.574954
C105	C	0.897790	-0.152535	0.074944
C106	C	1.397790	0.347465	0.574944
C107	C	0.897391	-0.177729	-0.000020
C108	C	1.397391	0.322271	0.499980
O109	O	0.896522	-0.232307	0.138630
O110	O	1.396522	0.267693	0.638630
O111	O	0.896516	-0.232295	-0.138711
O112	O	1.396516	0.267705	0.361289
C113	C	0.892866	-0.460043	-0.074990
C114	C	1.392866	0.039957	0.425010
C115	C	0.892450	-0.485261	-0.000045
C116	C	1.392450	0.014739	0.499955
C117	C	0.892844	-0.460065	0.074905
C118	C	1.392844	0.039935	0.574905
C119	C	0.891645	-0.535679	-0.000048
C120	C	1.391645	-0.035679	0.499952
C121	C	0.891251	-0.560875	-0.074998
C122	C	1.391251	-0.060875	0.425002
C123	C	0.891660	-0.535654	-0.149945
C124	C	1.391660	-0.035654	0.350055
C125	C	0.892471	-0.485239	-0.149940
C126	C	1.392471	0.014761	0.350060
C127	C	0.892435	-0.485286	0.149852
C128	C	1.392435	0.014714	0.649852
C129	C	0.891625	-0.535701	0.149842
C130	C	1.391625	-0.035701	0.649842
C131	C	0.891230	-0.560897	0.074892
C132	C	1.391230	-0.060897	0.574892
C133	C	1.031698	0.061460	-0.000030
C134	C	1.531698	0.561460	0.499970
C135	C	1.115707	0.062319	-0.000036
C136	C	1.615707	0.562319	0.499964
C137	C	0.886694	0.153527	-0.000050
C138	C	1.386694	0.653527	0.499950
C139	C	0.887544	0.207187	-0.000064
C140	C	1.387544	0.707187	0.499936
N141	N	0.893262	0.065138	0.195639
N142	N	1.393262	0.565138	0.695639
N143	N	0.893303	0.065148	-0.195693
N144	N	1.393303	0.565148	0.304307
C145	C	0.945126	0.032232	0.238911
C146	C	1.445126	0.532232	0.738911
C147	C	0.945129	0.032231	0.325458
C148	C	1.445129	0.532231	0.825458
C149	C	0.893273	0.065140	0.368731
C150	C	1.393273	0.565140	0.868731
C151	C	0.841404	0.098048	0.325453
C152	C	1.341404	0.598048	0.825453
C153	C	0.841397	0.098046	0.238908
C154	C	1.341397	0.598046	0.738908
C155	C	0.841430	0.098057	0.674482
C156	C	1.341430	0.598057	1.174482
C157	C	0.841442	0.098058	0.761033
C158	C	1.341442	0.598058	1.261033
C159	C	0.945162	0.032243	0.761032
C160	C	1.445162	0.532243	1.261032
C161	C	0.945155	0.032240	0.674486
C162	C	1.445155	0.532240	1.174486
C163	C	0.893284	0.065146	0.631216
C164	C	1.393284	0.565146	1.131216
C165	C	0.893280	0.065146	0.537371
C166	C	1.393280	0.565146	1.037371
C167	C	0.893280	0.065143	0.462574
C168	C	1.393280	0.565143	0.962574
H169	H	0.248920	0.143763	-0.000061
H170	H	0.748920	0.643763	0.499939
H171	H	0.537641	-0.013477	-0.000014
H172	H	1.037641	0.486523	0.499986
N173	N	1.001075	-0.003251	0.372140
N174	N	1.501075	0.496749	0.872140
H175	H	1.034350	0.015208	0.408029
H176	H	1.534350	0.515208	0.908029
H177	H	0.972366	-0.024624	0.408021
H178	H	1.472366	0.475376	0.908021
H179	H	0.799177	0.124841	0.360692
H180	H	1.299177	0.624841	0.860692
N181	N	0.892867	-0.458113	0.230693
N182	N	1.392867	0.041887	0.730693
H183	H	0.845790	-0.462919	0.263464
H184	H	1.345790	0.037081	0.763464
H185	H	0.939692	-0.470886	0.263385
H186	H	1.439692	0.029114	0.763385
N187	N	1.001062	-0.003260	0.192240
N188	N	1.501062	0.496740	0.692240
H189	H	1.033916	-0.024106	0.232789
H190	H	1.533916	0.475894	0.732789
H191	H	0.972344	-0.024610	0.156348
H192	H	1.472344	0.475390	0.656348
N193	N	0.891175	-0.562893	0.230692
N194	N	1.391175	-0.062893	0.730692
H195	H	0.843901	-0.579834	0.234031
H196	H	1.343901	-0.079834	0.734031
H197	H	0.937803	-0.587763	0.233994
H198	H	1.437803	-0.087763	0.733994
N199	N	1.001089	-0.003251	0.627812
N200	N	1.501089	0.496749	1.127812
H201	H	1.033945	-0.024099	0.668358
H202	H	1.533945	0.475901	1.168358
H203	H	0.972369	-0.024600	0.591922
H204	H	1.472369	0.475400	1.091922
H205	H	0.646203	0.147807	-0.000035
H206	H	1.146203	0.647807	0.499965
N207	N	0.785488	0.133554	0.627830
N208	N	1.285488	0.633554	1.127830
H209	H	0.814144	0.154936	0.591904
H210	H	1.314144	0.654936	1.091904
H211	H	0.752205	0.115076	0.591989
H212	H	1.252205	0.615076	1.091989
N213	N	0.296516	-0.027597	-0.000021
N214	N	0.796516	0.472403	0.499979
H215	H	0.351062	-0.020344	-0.000017
H216	H	0.851062	0.479656	0.499983
H217	H	0.286875	-0.046972	0.050953
H218	H	0.786875	0.453028	0.550953
N219	N	1.001106	-0.003254	0.807701
N220	N	1.501106	0.496746	1.307701
H221	H	1.054750	0.002278	0.792623
H222	H	1.554750	0.502278	1.292623
H223	H	0.993177	0.001756	0.869079
H224	H	1.493177	0.501756	1.369079
H225	H	0.799211	0.124857	0.796265
H226	H	1.299211	0.624857	1.296265
N227	N	0.092764	0.153839	-0.000030
N228	N	0.592764	0.653839	0.499970
H229	H	0.123699	0.182117	-0.000031
H230	H	0.623699	0.682117	0.499969
H231	H	0.059595	0.155435	-0.050995
H232	H	0.559595	0.655435	0.449005
H233	H	0.680838	-0.012018	-0.000005
H234	H	1.180838	0.487982	0.499995
N235	N	0.132444	-0.029266	-0.000029
N236	N	0.632444	0.470734	0.499971
H237	H	0.175471	-0.056792	-0.000020
H238	H	0.675471	0.443208	0.499980
H239	H	0.100099	-0.031521	0.050939
H240	H	0.600099	0.468479	0.550939
H241	H	0.898961	-0.081562	-0.135985
H242	H	1.398961	0.418438	0.364015
H243	H	0.897477	-0.173017	-0.136002
H244	H	1.397477	0.326983	0.363998
H245	H	0.895241	-0.313469	-0.210961
H246	H	1.395241	0.186531	0.289039
H247	H	0.799164	0.124841	0.203677
H248	H	1.299164	0.624841	0.703677
H249	H	0.893769	-0.404920	-0.210968
H250	H	1.393769	0.095080	0.289032
N251	N	0.490034	0.157882	0.000004
N252	N	0.990034	0.657882	0.500004
H253	H	0.520966	0.186162	0.000013
H254	H	1.020966	0.686162	0.500013
H255	H	0.456855	0.159487	-0.050953
H256	H	0.956855	0.659487	0.449047
H257	H	0.889102	-0.696646	-0.136045
H258	H	1.389102	-0.196646	0.363955
H259	H	0.887634	-0.788116	-0.136044
H260	H	1.387634	-0.288116	0.363956
N261	N	0.887505	-0.794815	0.155727
N262	N	1.387505	-0.294815	0.655727
H263	H	0.887876	-0.771199	0.203203
H264	H	1.387876	-0.271199	0.703203
H265	H	0.840234	-0.811761	0.158995
H266	H	1.340234	-0.311761	0.658995
N267	N	0.889167	-0.690028	0.155739
N268	N	1.389167	-0.190028	0.655739
H269	H	0.888789	-0.713661	0.203210
H270	H	1.388789	-0.213661	0.703210
H271	H	0.936439	-0.673086	0.159006
H272	H	1.436439	-0.173086	0.659006
N273	N	0.893592	-0.411643	0.230712
N274	N	1.393592	0.088357	0.730712
H275	H	0.893960	-0.388023	0.278186
H276	H	1.393960	0.111977	0.778186
H277	H	0.846319	-0.428586	0.233977
H278	H	1.346319	0.071414	0.733977
N279	N	0.895266	-0.306853	0.230711
N280	N	1.395266	0.193147	0.730711
H281	H	0.848185	-0.311657	0.263475
H282	H	1.348185	0.188343	0.763475
H283	H	0.942086	-0.319621	0.263413
H284	H	1.442086	0.180379	0.763413
N285	N	0.897353	-0.179740	0.155781
N286	N	1.397353	0.320260	0.655781
H287	H	0.897730	-0.156126	0.203262
H288	H	1.397730	0.343874	0.703262
H289	H	0.850077	-0.196680	0.159046
H290	H	1.350077	0.303320	0.659046
N291	N	0.899033	-0.074941	0.155790
N292	N	1.399033	0.425059	0.655790
H293	H	0.899607	-0.039176	0.144413
H294	H	1.399607	0.460824	0.644413
H295	H	0.851949	-0.079781	0.188519
H296	H	1.351949	0.420219	0.688519
N297	N	0.892922	-0.458044	-0.230781
N298	N	1.392922	0.041956	0.269219
H299	H	0.892548	-0.481662	-0.278256
H300	H	1.392548	0.018338	0.221744
H301	H	0.846320	-0.433151	-0.234052
H302	H	1.346320	0.066849	0.265948
N303	N	0.891240	-0.562835	-0.230785
N304	N	1.391240	-0.062835	0.269215
H305	H	0.890664	-0.598599	-0.219406
H306	H	1.390664	-0.098599	0.280594
H307	H	0.844448	-0.550045	-0.263516
H308	H	1.344448	-0.050045	0.236484
