data_functionalizedCrystal
_audit_creation_method	'MofGen! by Chris Wilmer'
_symmetry_space_group_name_H-M	'P1'
_symmetry_Int_Tables_number	1
_symmetry_cell_setting	triclinic
loop_
_symmetry_equiv_pos_as_xyz
  x,y,z
_cell_length_a	11.792241
_cell_length_b	14.044190
_cell_length_c	10.868271
_cell_angle_alpha	89.990065
_cell_angle_beta	89.999893
_cell_angle_gamma	88.692597
loop_
_atom_site_label
_atom_site_type_symbol
_atom_site_fract_x
_atom_site_fract_y
_atom_site_fract_z
O1	O	1.519115	0.129987	-0.102217
O2	O	1.769115	0.379987	0.147783
O3	O	2.019115	0.629987	0.397783
O4	O	2.269115	0.879987	0.647783
O5	O	1.190032	0.143384	-0.102247
O6	O	1.440032	0.393384	0.147753
O7	O	1.690032	0.643384	0.397753
O8	O	1.940032	0.893384	0.647753
O9	O	1.349630	-0.001325	-0.102208
O10	O	1.599630	0.248675	0.147792
O11	O	1.849630	0.498675	0.397792
O12	O	2.099630	0.748675	0.647792
O13	O	1.359517	0.274696	-0.102256
O14	O	1.609517	0.524696	0.147744
O15	O	1.859517	0.774696	0.397744
O16	O	2.109517	1.024696	0.647744
O17	O	1.349615	-0.001331	0.102436
O18	O	1.599615	0.248669	0.352436
O19	O	1.849615	0.498669	0.602436
O20	O	2.099615	0.748669	0.852436
O21	O	1.190017	0.143378	0.102398
O22	O	1.440017	0.393378	0.352398
O23	O	1.690017	0.643378	0.602398
O24	O	1.940017	0.893378	0.852398
O25	O	1.519100	0.129981	0.102428
O26	O	1.769100	0.379981	0.352428
O27	O	2.019100	0.629981	0.602428
O28	O	2.269100	0.879981	0.852428
Zn29	Zn	1.354556	0.136679	0.134904
Zn30	Zn	1.604556	0.386679	0.384904
Zn31	Zn	1.854556	0.636679	0.634904
Zn32	Zn	2.104556	0.886679	0.884904
Zn33	Zn	1.354576	0.136686	-0.134724
Zn34	Zn	1.604576	0.386686	0.115276
Zn35	Zn	1.854576	0.636686	0.365276
Zn36	Zn	2.104576	0.886686	0.615276
O37	O	1.359502	0.274690	0.102389
O38	O	1.609502	0.524690	0.352389
O39	O	1.859502	0.774690	0.602389
O40	O	2.109502	1.024690	0.852389
C41	C	1.147655	0.142539	0.000072
C42	C	1.397655	0.392539	0.250072
C43	C	1.647655	0.642539	0.500072
C44	C	1.897655	0.892539	0.750072
C45	C	1.021404	0.140021	0.000061
C46	C	1.271404	0.390021	0.250061
C47	C	1.521404	0.640021	0.500061
C48	C	1.771404	0.890021	0.750061
C49	C	1.345297	-0.036664	0.000117
C50	C	1.595297	0.213336	0.250117
C51	C	1.845297	0.463336	0.500117
C52	C	2.095297	0.713336	0.750117
C53	C	1.332395	-0.141957	0.000127
C54	C	1.582395	0.108043	0.250127
C55	C	1.832395	0.358043	0.500127
C56	C	2.082395	0.608043	0.750127
C57	C	0.790257	0.135389	0.000097
C58	C	1.040257	0.385389	0.250097
C59	C	1.290257	0.635389	0.500097
C60	C	1.540257	0.885389	0.750097
C61	C	0.918884	0.137962	0.000078
C62	C	1.168884	0.387962	0.250078
C63	C	1.418884	0.637962	0.500078
C64	C	1.668884	0.887962	0.750078
C65	C	1.400312	-0.391894	0.000085
C66	C	1.650312	-0.141894	0.250085
C67	C	1.900312	0.108106	0.500085
C68	C	2.150312	0.358106	0.750085
C69	C	1.308825	-0.334735	0.000085
C70	C	1.558825	-0.084735	0.250085
C71	C	1.808825	0.165265	0.500085
C72	C	2.058825	0.415265	0.750085
C73	C	1.321943	-0.227463	0.000108
C74	C	1.571943	0.022537	0.250108
C75	C	1.821943	0.272537	0.500108
C76	C	2.071943	0.522537	0.750108
C77	C	1.387197	-0.499176	0.000062
C78	C	1.637197	-0.249176	0.250062
C79	C	1.887197	0.000824	0.500062
C80	C	2.137197	0.250824	0.750062
C81	C	1.561478	0.130826	0.000106
C82	C	1.811478	0.380826	0.250106
C83	C	2.061478	0.630826	0.500106
C84	C	2.311478	0.880826	0.750106
C85	C	1.687728	0.133344	0.000109
C86	C	1.937728	0.383344	0.250109
C87	C	2.187728	0.633344	0.500109
C88	C	2.437728	0.883344	0.750109
C89	C	1.363835	0.310029	0.000061
C90	C	1.613835	0.560029	0.250061
C91	C	1.863835	0.810029	0.500061
C92	C	2.113835	1.060029	0.750061
C93	C	1.376737	0.415322	0.000043
C94	C	1.626737	0.665322	0.250043
C95	C	1.876737	0.915322	0.500043
C96	C	2.126737	1.165322	0.750043
N97	N	1.354551	0.136673	0.318919
N98	N	1.604551	0.386673	0.568919
N99	N	1.854551	0.636673	0.818919
N100	N	2.104551	0.886673	1.068919
N101	N	1.354589	0.136684	-0.318738
N102	N	1.604589	0.386684	-0.068738
N103	N	1.854589	0.636684	0.181262
N104	N	2.104589	0.886684	0.431262
C105	C	1.354570	0.136684	0.569925
C106	C	1.604570	0.386684	0.819925
C107	C	1.854570	0.636684	1.069925
C108	C	2.104570	0.886684	1.319925
C109	C	1.354556	0.136681	0.430247
C110	C	1.604556	0.386681	0.680247
C111	C	1.854556	0.636681	0.930247
C112	C	2.104556	0.886681	1.180247
H113	H	1.220649	-0.366364	0.000070
H114	H	1.470649	-0.116364	0.250070
H115	H	1.720649	0.133636	0.500070
H116	H	1.970649	0.383636	0.750070
H117	H	1.488481	-0.360267	0.000106
H118	H	1.738481	-0.110267	0.250106
H119	H	1.988481	0.139733	0.500106
H120	H	2.238481	0.389733	0.750106
