data_functionalizedCrystal
_audit_creation_method	'MofGen! by Chris Wilmer'
_symmetry_space_group_name_H-M	'P1'
_symmetry_Int_Tables_number	1
_symmetry_cell_setting	triclinic
loop_
_symmetry_equiv_pos_as_xyz
  x,y,z
_cell_length_a	29.019771
_cell_length_b	29.019011
_cell_length_c	29.015668
_cell_angle_alpha	60.004890
_cell_angle_beta	60.009825
_cell_angle_gamma	59.993818
loop_
_atom_site_label
_atom_site_type_symbol
_atom_site_fract_x
_atom_site_fract_y
_atom_site_fract_z
O1	O	0.063866	-0.673289	0.563007
O2	O	0.024059	-0.524205	0.453633
O3	O	0.118464	-0.618532	0.453552
O4	O	-0.030540	-0.578962	0.563088
O5	O	0.149785	-0.587215	0.484789
O6	O	0.055379	-0.492888	0.484869
O7	O	0.095186	-0.641972	0.594244
Cu8	Cu	0.078143	-0.564571	0.542409
Cu9	Cu	0.041102	-0.601606	0.505468
O10	O	0.000781	-0.547645	0.594325
N11	N	0.104196	-0.538525	0.568394
N12	N	0.015054	-0.627656	0.479483
C13	C	0.143783	-0.499167	0.850823
C14	C	0.386758	-0.499111	0.607645
C15	C	0.143618	-0.499136	0.607763
C16	C	0.143598	-0.256029	0.607770
C17	C	0.182748	-0.373362	0.646852
C18	C	0.182758	-0.460025	0.646847
C19	C	0.204440	-0.438361	0.668500
C20	C	0.298958	-0.422064	0.618723
C21	C	0.358043	-0.441753	0.599006
C22	C	0.358069	-0.537354	0.635461
C23	C	0.298985	-0.517664	0.655180
C24	C	0.196983	-0.343808	0.588767
C25	C	0.177262	-0.284720	0.569090
C26	C	0.129075	-0.284743	0.665586
C27	C	0.148797	-0.343831	0.685263
C28	C	0.124666	-0.445760	0.661149
C29	C	0.104961	-0.465454	0.641458
C30	C	0.201435	-0.513678	0.593176
C31	C	0.221143	-0.493984	0.612860
C32	C	0.124738	-0.445777	0.763064
C33	C	0.105085	-0.465488	0.822151
C34	C	0.201594	-0.513722	0.822097
C35	C	0.221247	-0.494012	0.763009
C36	C	0.182817	-0.460038	0.733494
C37	C	0.269432	-0.460018	0.646809
C38	C	0.121399	-0.520450	0.915812
C39	C	0.451745	-0.520012	0.585655
C40	C	0.121177	-0.520429	0.586502
C41	C	0.121544	-0.191035	0.586883
C42	C	-0.110592	-0.666601	0.440035
C43	C	-0.023978	-0.666709	0.440231
C44	C	-0.045598	-0.688342	0.418486
C45	C	-0.061967	-0.782825	0.468184
C46	C	-0.042323	-0.841914	0.487907
C47	C	0.053280	-0.842025	0.451623
C48	C	0.033634	-0.782937	0.431899
C49	C	-0.140218	-0.680832	0.498102
C50	C	-0.199302	-0.661065	0.517690
C51	C	-0.199129	-0.612843	0.421140
C52	C	-0.140045	-0.632610	0.401552
C53	C	-0.038209	-0.608622	0.425941
C54	C	-0.018555	-0.588961	0.445716
C55	C	0.029562	-0.685470	0.494059
C56	C	0.009908	-0.705133	0.474291
C57	C	-0.038037	-0.608631	0.323917
C58	C	-0.018247	-0.588973	0.264830
C59	C	0.029955	-0.685489	0.264893
C60	C	0.010165	-0.705145	0.323981
C61	C	-0.023833	-0.666715	0.353492
C62	C	-0.023990	-0.753339	0.440182
N63	N	0.504925	-0.538487	0.568205
O64	O	0.685342	-0.543679	0.433426
O65	O	0.685533	-0.653395	0.582361
O66	O	0.685457	-0.653145	0.487904
O67	O	0.685418	-0.543929	0.527882
O68	O	0.591592	-0.621921	0.519268
O69	O	0.591667	-0.622171	0.613725
O70	O	0.591477	-0.512455	0.464790
Cu71	Cu	0.583001	-0.564462	0.542121
Cu72	Cu	0.694008	-0.601388	0.505029
O73	O	0.591553	-0.512705	0.559246
N74	N	0.772084	-0.627363	0.478939
N75	N	0.104168	-0.137853	0.568408
O76	O	-0.030538	0.042663	0.563097
O77	O	0.118403	0.042683	0.453379
O78	O	0.023918	0.042657	0.453664
O79	O	0.063947	0.042689	0.562813
O80	O	0.055242	-0.051215	0.484950
O81	O	0.149727	-0.051189	0.484666
O82	O	0.000787	-0.051210	0.594384
Cu83	Cu	0.078117	-0.059771	0.542381
Cu84	Cu	0.041072	0.051244	0.505382
O85	O	0.095272	-0.051184	0.594099
N86	N	0.015015	0.129326	0.479356
N87	N	0.104469	-0.538576	0.968995
O88	O	0.099171	-0.673268	1.149499
O89	O	-0.010519	-0.524279	1.149527
O90	O	-0.010265	-0.618748	1.149494
O91	O	0.098916	-0.578799	1.149533
O92	O	0.021008	-0.587443	1.055625
O93	O	0.020753	-0.492974	1.055659
O94	O	0.130444	-0.641963	1.055630
Cu95	Cu	0.078454	-0.564610	1.047074
Cu96	Cu	0.041470	-0.601632	1.158084
O97	O	0.130189	-0.547494	1.055664
N98	N	0.015455	-0.627672	1.236163
C99	C	0.035988	-0.489761	0.454182
C100	C	0.152897	-0.606574	0.454082
C101	C	0.083257	-0.676417	0.593694
C102	C	-0.033653	-0.559604	0.593794
C103	C	0.638623	-0.652892	0.616806
C104	C	0.638531	-0.652583	0.499833
C105	C	0.638384	-0.512957	0.430345
C106	C	0.638480	-0.513267	0.547317
C107	C	0.152789	-0.004135	0.453875
C108	C	0.035820	-0.004282	0.454266
C109	C	-0.033639	-0.004275	0.593849
C110	C	0.083370	-0.004245	0.593498
C111	C	-0.009989	-0.489856	1.102597
C112	C	-0.009667	-0.606839	1.102536
C113	C	0.129914	-0.676386	1.102561
C114	C	0.129599	-0.559396	1.102601
H115	H	0.057789	-0.453866	0.846219
H116	H	0.188851	-0.260656	0.521790
H117	H	-0.044426	-0.447066	1.102605
O118	O	0.025745	-0.438649	0.413251
C119	C	-0.029717	-0.403636	0.433735
H120	H	-0.056461	-0.430873	0.469983
H121	H	-0.028865	-0.375146	0.449431
C122	C	-0.022477	-0.333631	0.341423
C123	C	-0.055325	-0.367084	0.385941
H124	H	-0.038273	-0.311082	0.311941
H125	H	0.014890	-0.357219	0.327623
H126	H	-0.021770	-0.309895	0.354510
H127	H	-0.056026	-0.390825	0.372855
H128	H	-0.092693	-0.343499	0.399738
H129	H	-0.076413	-0.004282	0.628294
H130	H	0.163899	-0.550848	1.102605
O131	O	0.229877	-0.372472	0.551437
C132	C	0.200016	-0.358023	0.517291
H133	H	0.152751	-0.341790	0.540127
H134	H	0.212566	-0.323717	0.475778
C135	C	0.272343	-0.430448	0.477172
C136	C	0.214291	-0.410514	0.505222
H137	H	0.281150	-0.462826	0.469724
H138	H	0.292463	-0.440181	0.500175
H139	H	0.282794	-0.401855	0.442581
H140	H	0.203842	-0.439104	0.539815
H141	H	0.194170	-0.400787	0.482224
O142	O	-0.084659	-0.549590	0.634902
C143	C	-0.077239	-0.555898	0.682445
H144	H	-0.032220	-0.584133	0.681862
H145	H	-0.085299	-0.512741	0.681380
C146	C	-0.174354	-0.548270	0.737319
C147	C	-0.119062	-0.582952	0.736606
H148	H	-0.200153	-0.564956	0.770728
H149	H	-0.179354	-0.544018	0.705288
H150	H	-0.181063	-0.512308	0.736430
H151	H	-0.112352	-0.618911	0.737488
H152	H	-0.114061	-0.587211	0.768639
O153	O	0.171052	-0.727389	1.102451
C154	C	0.218607	-0.719947	1.053847
H155	H	0.204998	-0.678614	1.019874
H156	H	0.250463	-0.718651	1.064849
C157	C	0.262619	-0.820167	1.073512
C158	C	0.245903	-0.769404	1.031784
H159	H	0.279458	-0.850675	1.059904
H160	H	0.230581	-0.825182	1.106259
H161	H	0.289162	-0.819080	1.082677
H162	H	0.219355	-0.770489	1.022625
H163	H	0.277937	-0.764391	0.999035
H164	H	0.027247	-0.004286	0.419974
H165	H	0.638671	-0.687334	0.659583
O166	O	0.087329	-0.412800	0.734481
C167	C	0.031851	-0.404425	0.773250
H168	H	0.031988	-0.440053	0.815361
H169	H	0.014923	-0.362335	0.779543
C170	C	-0.006236	-0.360245	0.698495
C171	C	-0.006068	-0.404007	0.750214
H172	H	-0.029628	-0.359985	0.684285
H173	H	0.031140	-0.365886	0.672375
H174	H	-0.020341	-0.325174	0.703746
H175	H	0.008044	-0.439077	0.744962
H176	H	-0.043443	-0.398373	0.776333
H177	H	0.638547	-0.686893	0.491276
H178	H	0.101438	-0.260698	0.696864
O179	O	0.638540	-0.472404	0.557561
C180	C	0.687188	-0.491816	0.570790
H181	H	0.703439	-0.539929	0.586977
H182	H	0.721189	-0.475703	0.531339
C183	C	0.652488	-0.410699	0.596788
C184	C	0.672445	-0.469793	0.616674
H185	H	0.643395	-0.397113	0.625089
H186	H	0.619713	-0.397620	0.587873
H187	H	0.680825	-0.397279	0.563912
H188	H	0.644105	-0.483211	0.649545
H189	H	0.705214	-0.482874	0.625595
H190	H	0.195693	-0.615009	0.419684
O191	O	0.203664	-0.003747	0.412607
C192	C	0.195932	0.044977	0.365208
H193	H	0.150872	0.060998	0.365983
H194	H	0.203855	0.079082	0.366303
C195	C	0.292997	0.010812	0.309952
C196	C	0.237654	0.030486	0.310902
H197	H	0.318735	0.001874	0.276453
H198	H	0.298207	-0.022014	0.341886
H199	H	0.299591	0.039236	0.310867
H200	H	0.231059	0.002060	0.309994
H201	H	0.232444	0.063307	0.278966
O202	O	0.093481	-0.727546	0.634607
C203	C	0.148953	-0.762550	0.614132
H204	H	0.163839	-0.747168	0.566057
H205	H	0.178154	-0.760994	0.628411
C206	C	0.131709	-0.842556	0.696467
C207	C	0.149991	-0.823667	0.637421
H208	H	0.132351	-0.880256	0.710834
H209	H	0.094337	-0.818973	0.710262
H210	H	0.156046	-0.841255	0.708358
H211	H	0.125650	-0.824962	0.625531
H212	H	0.187359	-0.847251	0.623624
H213	H	0.638322	-0.478510	0.387573
O214	O	0.093696	-0.004271	0.634358
C215	C	0.149171	-0.004249	0.613782
H216	H	0.175857	-0.022013	0.577546
H217	H	0.148331	0.040788	0.598042
C218	C	0.142079	-0.019248	0.706022
C219	C	0.174857	-0.041071	0.661520
H220	H	0.157923	-0.041959	0.735469
H221	H	0.104704	-0.019260	0.719884
H222	H	0.141382	0.018282	0.692898
H223	H	0.175548	-0.078598	0.674642
H224	H	0.212233	-0.041066	0.647660
O225	O	-0.071209	-0.571271	0.392945
C226	C	-0.120775	-0.537054	0.422713
H227	H	-0.129068	-0.559853	0.469997
H228	H	-0.115383	-0.495565	0.410160
C229	C	-0.160814	-0.496922	0.350238
C230	C	-0.171002	-0.524927	0.408313
H231	H	-0.191796	-0.489439	0.341354
H232	H	-0.127420	-0.519973	0.330181
H233	H	-0.156319	-0.462351	0.339784
H234	H	-0.175489	-0.559500	0.418764
H235	H	-0.204398	-0.501881	0.428371
H236	H	-0.043953	-0.615372	1.102487
H237	H	0.268542	-0.505632	0.738936
O238	O	0.238948	-0.546794	0.850738
C239	C	0.273125	-0.596337	0.836269
H240	H	0.250298	-0.604559	0.820044
H241	H	0.314616	-0.590953	0.801952
C242	C	0.313282	-0.636520	0.908663
C243	C	0.285243	-0.646622	0.888740
H244	H	0.320760	-0.667539	0.941029
H245	H	0.290258	-0.603142	0.918410
H246	H	0.347855	-0.632033	0.880061
H247	H	0.250668	-0.651102	0.917340
H248	H	0.308261	-0.680003	0.878999
O249	O	0.048544	-0.451702	0.655371
C250	C	0.034294	-0.501356	0.685121
H251	H	0.073237	-0.538475	0.674441
H252	H	0.018103	-0.509670	0.732412
C253	C	-0.059840	-0.448635	0.681281
C254	C	-0.012010	-0.494224	0.668159
H255	H	-0.088404	-0.444235	0.670820
H256	H	-0.050240	-0.415181	0.661239
H257	H	-0.073325	-0.455569	0.720690
H258	H	0.001479	-0.487286	0.628750
H259	H	-0.021608	-0.527676	0.688194
H260	H	0.093408	-0.418110	0.688821
H261	H	0.232695	-0.541333	0.565509
H262	H	0.268446	-0.505593	0.601208
H263	H	0.382132	-0.584293	0.642268
O264	O	0.270390	-0.554607	0.682428
C265	C	0.309146	-0.609710	0.685596
H266	H	0.351249	-0.607457	0.650685
H267	H	0.315461	-0.632268	0.728407
C268	C	0.234367	-0.645239	0.721260
C269	C	0.286077	-0.642472	0.678379
H270	H	0.220136	-0.665450	0.716811
H271	H	0.208255	-0.608116	0.719128
H272	H	0.239636	-0.664036	0.756932
H273	H	0.280805	-0.623669	0.642709
H274	H	0.312187	-0.679593	0.680505
H275	H	0.382082	-0.410845	0.576135
H276	H	0.274901	-0.375125	0.611905
H277	H	-0.029822	-0.541673	0.240758
O278	O	0.134938	-0.372456	0.741709
C279	C	0.100728	-0.333721	0.771391
H280	H	0.108246	-0.291594	0.743215
H281	H	0.054449	-0.327446	0.784148
C282	C	0.106488	-0.408531	0.859249
C283	C	0.115725	-0.356791	0.824644
H284	H	0.115736	-0.422762	0.892100
H285	H	0.129534	-0.434628	0.839252
H286	H	0.067922	-0.403295	0.869874
H287	H	0.154292	-0.362029	0.814014
H288	H	0.092686	-0.330695	0.844641
H289	H	-0.065723	-0.577332	0.347941
H290	H	0.057627	-0.716785	0.240872
H291	H	-0.030145	-0.541661	0.434082
O292	O	0.023996	-0.761590	0.352621
C293	C	0.058254	-0.791290	0.313902
H294	H	0.050793	-0.763111	0.271742
H295	H	0.104519	-0.804085	0.307712
C296	C	0.052420	-0.879126	0.388704
C297	C	0.043253	-0.844517	0.336923
H298	H	0.043169	-0.911960	0.402905
H299	H	0.029342	-0.859117	0.414790
H300	H	0.090974	-0.889782	0.383539
H301	H	0.004698	-0.833856	0.342090
H302	H	0.066324	-0.864526	0.310838
H303	H	0.021495	-0.752433	0.485928
O304	O	0.070591	-0.754355	0.404641
C305	C	0.110749	-0.768828	0.355955
H306	H	0.113517	-0.811718	0.361279
H307	H	0.097467	-0.735572	0.317636
C308	C	0.165417	-0.718946	0.340809
C309	C	0.168821	-0.771626	0.347349
H310	H	0.201239	-0.720670	0.335498
H311	H	0.138361	-0.709194	0.373608
H312	H	0.154347	-0.691238	0.308876
H313	H	0.179884	-0.799332	0.379285
H314	H	0.195880	-0.781384	0.314556
O315	O	-0.079302	-0.870470	0.515185
C316	C	-0.134379	-0.831675	0.518290
H317	H	-0.136636	-0.789550	0.514357
H318	H	-0.145409	-0.825427	0.482501
C319	C	-0.173822	-0.906380	0.580172
C320	C	-0.176596	-0.854643	0.575346
H321	H	-0.199864	-0.920548	0.615365
H322	H	-0.136716	-0.932518	0.578079
H323	H	-0.183013	-0.901167	0.550345
H324	H	-0.167399	-0.859858	0.605169
H325	H	-0.213702	-0.828506	0.577446
O326	O	0.109239	-0.870805	0.443682
C327	C	0.117178	-0.904990	0.496466
H328	H	0.079740	-0.887145	0.530496
H329	H	0.120645	-0.949758	0.506688
C330	C	0.217722	-0.927879	0.452553
C331	C	0.171741	-0.905959	0.494348
H332	H	0.251380	-0.928479	0.451246
H333	H	0.212374	-0.904850	0.416991
H334	H	0.220603	-0.965184	0.461076
H335	H	0.168856	-0.868652	0.485821
H336	H	0.177090	-0.928982	0.529909
H337	H	-0.108889	-0.758731	0.474933
O338	O	-0.111693	-0.713824	0.535558
C339	C	-0.150514	-0.722151	0.591012
H340	H	-0.192602	-0.686488	0.590830
H341	H	-0.156833	-0.764218	0.607922
C342	C	-0.075835	-0.766398	0.629215
C343	C	-0.127527	-0.722593	0.628991
H344	H	-0.061656	-0.766673	0.652643
H345	H	-0.049680	-0.760790	0.591854
H346	H	-0.081109	-0.801449	0.643305
H347	H	-0.122252	-0.687542	0.614895
H348	H	-0.153681	-0.728195	0.666350
H349	H	0.057158	-0.716762	0.521784
H350	H	-0.223425	-0.672650	0.564976
H351	H	-0.223112	-0.585171	0.389803
H352	H	-0.115923	-0.621016	0.354266
