data_functionalizedCrystal
_audit_creation_method	'MofGen! by Chris Wilmer'
_symmetry_space_group_name_H-M	'P1'
_symmetry_Int_Tables_number	1
_symmetry_cell_setting	triclinic
loop_
_symmetry_equiv_pos_as_xyz
  x,y,z
_cell_length_a	9.198806
_cell_length_b	8.559649
_cell_length_c	8.597304
_cell_angle_alpha	102.375305
_cell_angle_beta	97.703309
_cell_angle_gamma	89.996679
loop_
_atom_site_label
_atom_site_type_symbol
_atom_site_fract_x
_atom_site_fract_y
_atom_site_fract_z
O1	O	0.114213	-2.119296	-0.053145
O2	O	0.614213	-1.619296	0.446855
O3	O	0.124352	-1.655356	0.027755
O4	O	0.624352	-1.155356	0.527755
O5	O	0.090525	-1.896456	-0.242262
O6	O	0.590525	-1.396456	0.257738
O7	O	0.148039	-1.878197	0.216872
O8	O	0.648039	-1.378197	0.716872
O9	O	-0.151260	-1.896438	-0.242262
O10	O	0.348740	-1.396438	0.257738
O11	O	-0.117433	-1.655338	0.027755
O12	O	0.382567	-1.155338	0.527755
O13	O	-0.127572	-2.119278	-0.053145
O14	O	0.372428	-1.619278	0.446855
Cu15	Cu	-0.144580	-1.887306	-0.012695
Cu16	Cu	0.355420	-1.387306	0.487305
Cu17	Cu	0.141359	-1.887328	-0.012695
Cu18	Cu	0.641359	-1.387328	0.487305
O19	O	-0.093746	-1.878178	0.216872
O20	O	0.406254	-1.378178	0.716872
C21	C	0.004228	-1.595913	0.033886
C22	C	0.504228	-1.095913	0.533886
C23	C	0.006516	-1.418818	0.052135
C24	C	0.506516	-0.918818	0.552135
N25	N	-0.345694	-1.887303	-0.012697
N26	N	0.154306	-1.387303	0.487303
C27	C	-0.037659	-1.894485	-0.300497
C28	C	0.462341	-1.394485	0.199503
C29	C	-0.059386	-1.888622	-0.474017
C30	C	0.440614	-1.388622	0.025983
C31	C	-0.599529	-1.988784	-0.126319
C32	C	-0.099529	-1.488784	0.373681
C33	C	-0.432116	-1.988763	-0.126315
C34	C	0.067884	-1.488763	0.373685
N35	N	0.342472	-1.887344	-0.012707
N36	N	0.842472	-1.387344	0.487293
C37	C	-0.007445	-2.178721	-0.059276
C38	C	0.492555	-1.678721	0.440724
C39	C	-0.009724	-2.355816	-0.077525
C40	C	0.490276	-1.855816	0.422475
C41	C	0.034442	-1.880149	0.275107
C42	C	0.534442	-1.380149	0.775107
C43	C	0.056178	-1.886012	0.448627
C44	C	0.556178	-1.386012	0.948627
H45	H	-0.673810	-2.075653	-0.223587
H46	H	-0.173810	-1.575653	0.276413
H47	H	-0.382185	-2.075604	-0.223588
H48	H	0.117815	-1.575604	0.276412
O49	O	-0.030475	-1.463813	-0.243072
O50	O	0.469525	-0.963813	0.256928
H51	H	-0.029094	-1.590628	-0.231911
H52	H	0.470906	-1.090628	0.268089
O53	O	0.209268	-1.888992	-0.463264
O54	O	0.709268	-1.388992	0.036736
H55	H	0.290499	-1.886141	-0.547212
H56	H	0.790499	-1.386141	-0.047212
H57	H	-0.395616	-1.800445	0.084572
H58	H	0.104384	-1.300445	0.584572
O59	O	-0.559136	-1.772261	0.116125
O60	O	-0.059136	-1.272261	0.616125
H61	H	-0.481245	-1.840655	0.184100
H62	H	0.018755	-1.340655	0.684100
O63	O	0.027244	-1.310813	0.217691
O64	O	0.527244	-0.810813	0.717691
H65	H	0.025836	-1.183997	0.206534
H66	H	0.525836	-0.683997	0.706534
H67	H	-0.174963	-1.886352	-0.540540
H68	H	0.325037	-1.386352	-0.040540
