data_functionalizedCrystal
_audit_creation_method	'MofGen! by Chris Wilmer'
_symmetry_space_group_name_H-M	'P1'
_symmetry_Int_Tables_number	1
_symmetry_cell_setting	triclinic
loop_
_symmetry_equiv_pos_as_xyz
  x,y,z
_cell_length_a	19.805406
_cell_length_b	19.805407
_cell_length_c	19.805399
_cell_angle_alpha	90.019197
_cell_angle_beta	89.982961
_cell_angle_gamma	90.003217
loop_
_atom_site_label
_atom_site_type_symbol
_atom_site_fract_x
_atom_site_fract_y
_atom_site_fract_z
Zn1	Zn	-0.269548	-1.034857	-0.382762
Zn2	Zn	0.063785	-0.701524	-0.049429
Zn3	Zn	0.397118	-0.368190	0.283904
Zn4	Zn	-0.382737	-1.034823	-0.269595
Zn5	Zn	-0.049403	-0.701489	0.063738
Zn6	Zn	0.283930	-0.368156	0.397072
Zn7	Zn	-0.269559	-0.921672	-0.269588
Zn8	Zn	0.063774	-0.588338	0.063746
Zn9	Zn	0.397107	-0.255005	0.397079
Zn10	Zn	-0.382693	-0.921686	-0.382743
Zn11	Zn	-0.049360	-0.588353	-0.049409
Zn12	Zn	0.283974	-0.255019	0.283924
O13	O	-0.326134	-0.978259	-0.326172
O14	O	0.007199	-0.644926	0.007161
O15	O	0.340532	-0.311593	0.340495
O16	O	-0.284577	-1.129569	-0.367762
O17	O	0.048757	-0.796236	-0.034429
O18	O	0.382090	-0.462902	0.298905
O19	O	-0.367746	-1.019793	-0.174877
O20	O	-0.034413	-0.686459	0.158456
O21	O	0.298920	-0.353126	0.491789
O22	O	-0.174841	-0.936694	-0.284606
O23	O	0.158492	-0.603361	0.048727
O24	O	0.491825	-0.270027	0.382061
O25	O	-0.367736	-1.129544	-0.284618
O26	O	-0.034402	-0.796210	0.048715
O27	O	0.298931	-0.462877	0.382048
O28	O	-0.174833	-1.019851	-0.367755
O29	O	0.158500	-0.686518	-0.034422
O30	O	0.491833	-0.353184	0.298912
O31	O	-0.284595	-0.936661	-0.174872
O32	O	0.048738	-0.603328	0.158461
O33	O	0.382071	-0.269994	0.491795
O34	O	-0.284553	-0.826957	-0.284587
O35	O	0.048780	-0.493624	0.048747
O36	O	0.382113	-0.160290	0.382080
O37	O	-0.367661	-0.936719	-0.477462
O38	O	-0.034328	-0.603385	-0.144128
O39	O	0.299005	-0.270052	0.189205
O40	O	-0.367672	-0.826968	-0.367721
O41	O	-0.034339	-0.493634	-0.034388
O42	O	0.298995	-0.160301	0.298946
O43	O	-0.284534	-1.019865	-0.477476
O44	O	0.048799	-0.686532	-0.144143
O45	O	0.382132	-0.353198	0.189190
O46	O	-0.477447	-1.019807	-0.284599
O47	O	-0.144114	-0.686473	0.048734
O48	O	0.189219	-0.353140	0.382068
O49	O	-0.477415	-0.936686	-0.367728
O50	O	-0.144082	-0.603352	-0.034395
O51	O	0.189251	-0.270019	0.298939
C52	C	-0.326110	-0.802403	-0.326151
C53	C	0.007224	-0.469070	0.007182
C54	C	0.340557	-0.135737	0.340515
C55	C	-0.326115	-0.727171	-0.326158
C56	C	0.007218	-0.393838	0.007175
C57	C	0.340551	-0.060505	0.340508
C58	C	-0.282890	-0.691841	-0.369516
C59	C	0.050443	-0.358508	-0.036183
C60	C	0.383776	-0.025174	0.297150
C61	C	-0.282892	-0.621152	-0.369517
C62	C	0.050441	-0.287819	-0.036184
C63	C	0.383774	0.045514	0.297149
C64	C	-0.326123	-0.585796	-0.326163
C65	C	0.007210	-0.252462	0.007170
C66	C	0.340543	0.080871	0.340504
C67	C	-0.369350	-0.621131	-0.282800
C68	C	-0.036017	-0.287798	0.050533
C69	C	0.297316	0.045536	0.383866
C70	C	-0.369344	-0.691818	-0.282797
C71	C	-0.036011	-0.358485	0.050537
C72	C	0.297322	-0.025152	0.383870
C73	C	-0.369375	-0.336058	-0.282814
C74	C	-0.036042	-0.002724	0.050519
C75	C	0.297292	0.330609	0.383852
C76	C	-0.369379	-0.265366	-0.282823
C77	C	-0.036046	0.067968	0.050510
C78	C	0.297288	0.401301	0.383844
C79	C	-0.282923	-0.265392	-0.369535
C80	C	0.050410	0.067941	-0.036201
C81	C	0.383744	0.401275	0.297132
C82	C	-0.282917	-0.336079	-0.369531
C83	C	0.050416	-0.002746	-0.036198
C84	C	0.383750	0.330587	0.297136
C85	C	-0.326141	-0.371408	-0.326166
C86	C	0.007192	-0.038075	0.007167
C87	C	0.340526	0.295258	0.340500
C88	C	-0.326137	-0.448057	-0.326165
C89	C	0.007196	-0.114723	0.007169
C90	C	0.340529	0.218610	0.340502
C91	C	-0.326131	-0.509149	-0.326167
C92	C	0.007202	-0.175815	0.007166
C93	C	0.340536	0.157518	0.340499
C94	C	-0.501990	-0.978262	-0.326177
C95	C	-0.168657	-0.644929	0.007156
C96	C	0.164676	-0.311596	0.340490
C97	C	-0.577222	-0.978325	-0.326202
C98	C	-0.243889	-0.644992	0.007132
C99	C	0.089444	-0.311659	0.340465
C100	C	-0.149592	-0.978275	-0.326182
C101	C	0.183742	-0.644941	0.007151
C102	C	0.517075	-0.311608	0.340485
C103	C	-0.074360	-0.978281	-0.326186
C104	C	0.258974	-0.644948	0.007147
C105	C	0.592307	-0.311615	0.340481
C106	C	-0.039001	-0.935007	-0.369466
C107	C	0.294333	-0.601673	-0.036133
C108	C	0.627666	-0.268340	0.297201
C109	C	0.031688	-0.935015	-0.369471
C110	C	0.365021	-0.601682	-0.036138
C111	C	0.698354	-0.268348	0.297195
C112	C	0.067016	-0.978295	-0.326192
C113	C	0.400349	-0.644961	0.007141
C114	C	0.733683	-0.311628	0.340474
C115	C	0.031652	-1.021574	-0.282910
C116	C	0.364985	-0.688241	0.050423
C117	C	0.698319	-0.354907	0.383756
C118	C	-0.039035	-1.021569	-0.282909
C119	C	0.294298	-0.688235	0.050424
C120	C	0.627632	-0.354902	0.383758
C121	C	0.316725	-1.021597	-0.282915
C122	C	0.650059	-0.688263	0.050419
C123	C	0.983392	-0.354930	0.383752
C124	C	0.387417	-1.021597	-0.282918
C125	C	0.720751	-0.688264	0.050416
C126	C	1.054084	-0.354930	0.383749
C127	C	0.387448	-0.935043	-0.369477
C128	C	0.720781	-0.601709	-0.036143
C129	C	1.054115	-0.268376	0.297190
C130	C	0.316761	-0.935038	-0.369476
C131	C	0.650094	-0.601704	-0.036142
C132	C	0.983428	-0.268371	0.297191
C133	C	0.281403	-0.978319	-0.326196
C134	C	0.614737	-0.644986	0.007137
C135	C	0.948070	-0.311652	0.340470
C136	C	0.204755	-0.978311	-0.326192
C137	C	0.538088	-0.644977	0.007141
C138	C	0.871422	-0.311644	0.340474
C139	C	0.143663	-0.978300	-0.326192
C140	C	0.476996	-0.644967	0.007141
C141	C	0.810330	-0.311634	0.340474
C142	C	-0.326092	-0.978297	-0.502715
C143	C	0.007242	-0.644964	-0.169381
C144	C	0.340575	-0.311631	0.163952
C145	C	-0.326074	-0.978313	-0.577947
C146	C	0.007260	-0.644980	-0.244613
C147	C	0.340593	-0.311647	0.088720
C148	C	-0.326155	-0.154802	-0.326187
C149	C	0.007179	0.178531	0.007146
C150	C	0.340512	0.511865	0.340480
C151	C	-0.326150	-0.230034	-0.326178
C152	C	0.007183	0.103299	0.007155
C153	C	0.340516	0.436633	0.340489
C154	C	-0.282787	-1.021609	-0.613300
C155	C	0.050546	-0.688275	-0.279966
C156	C	0.383879	-0.354942	0.053367
C157	C	-0.282768	-1.021616	-0.683988
C158	C	0.050566	-0.688282	-0.350655
C159	C	0.383899	-0.354949	-0.017321
C160	C	-0.326038	-0.978330	-0.719322
C161	C	0.007295	-0.644997	-0.385989
C162	C	0.340628	-0.311664	-0.052656
C163	C	-0.369327	-0.935030	-0.683965
C164	C	-0.035993	-0.601697	-0.350631
C165	C	0.297340	-0.268364	-0.017298
C166	C	-0.369342	-0.935020	-0.613277
C167	C	-0.036009	-0.601687	-0.279944
C168	C	0.297324	-0.268354	0.053389
C169	C	-0.369263	-0.935068	-0.969038
C170	C	-0.035930	-0.601735	-0.635705
C171	C	0.297403	-0.268402	-0.302371
C172	C	-0.369246	-0.935083	-1.039730
C173	C	-0.035912	-0.601750	-0.706397
C174	C	0.297421	-0.268416	-0.373064
C175	C	-0.282689	-1.021664	-1.039749
C176	C	0.050645	-0.688330	-0.706415
C177	C	0.383978	-0.354997	-0.373082
C178	C	-0.282704	-1.021654	-0.969062
C179	C	0.050629	-0.688320	-0.635728
C180	C	0.383962	-0.354987	-0.302395
C181	C	-0.325990	-0.978352	-0.933710
C182	C	0.007343	-0.645018	-0.600377
C183	C	0.340677	-0.311685	-0.267043
C184	C	-0.326010	-0.978344	-0.857061
C185	C	0.007324	-0.645010	-0.523728
C186	C	0.340657	-0.311677	-0.190395
C187	C	-0.326022	-0.978341	-0.795970
C188	C	0.007311	-0.645008	-0.462636
C189	C	0.340644	-0.311674	-0.129303
C190	C	-0.326128	-0.978260	-0.150316
C191	C	0.007205	-0.644927	0.183017
C192	C	0.340539	-0.311594	0.516351
C193	C	-0.325955	-0.978375	-0.075084
C194	C	0.007378	-0.645042	0.258249
C195	C	0.340711	-0.311709	0.591582
H196	H	-0.404585	-0.236580	-0.247516
H197	H	-0.071251	0.096753	0.085817
H198	H	0.262082	0.430087	0.419150
H199	H	-0.404556	-0.899784	-0.712739
H200	H	-0.071222	-0.566451	-0.379406
H201	H	0.262111	-0.233117	-0.046073
F202	F	0.069253	-1.067640	-0.236853
F203	F	0.402586	-0.734306	0.096480
F204	F	0.735919	-0.400973	0.429814
H205	H	-0.404584	-0.899758	-0.584494
H206	H	-0.071250	-0.566425	-0.251161
H207	H	0.262083	-0.233091	0.082173
H208	H	-0.247688	-0.720623	-0.404822
H209	H	0.085645	-0.387290	-0.071489
H210	H	0.418978	-0.053957	0.261845
H211	H	-0.247696	-0.592390	-0.404825
H212	H	0.085638	-0.259056	-0.071492
H213	H	0.418971	0.074277	0.261842
F214	F	-0.236908	-0.373705	-0.415677
F215	F	0.096425	-0.040371	-0.082344
F216	F	0.429759	0.292962	0.250989
F217	F	0.279104	-1.067660	-0.236852
F218	F	0.612437	-0.734327	0.096481
F219	F	0.945771	-0.400993	0.429814
F220	F	-0.415366	-0.373649	-0.236650
F221	F	-0.082033	-0.040315	0.096683
F222	F	0.251300	0.293018	0.430017
F223	F	-0.236918	-0.227787	-0.415686
F224	F	0.096416	0.105547	-0.082353
F225	F	0.429749	0.438880	0.250980
H226	H	-0.404547	-0.592338	-0.247498
H227	H	-0.071213	-0.259005	0.085836
H228	H	0.262120	0.074329	0.419169
H229	H	-0.404542	-0.720583	-0.247490
H230	H	-0.071209	-0.387250	0.085844
H231	H	0.262124	-0.053917	0.419177
H232	H	-0.067760	-0.899764	-0.404710
H233	H	0.265573	-0.566431	-0.071376
H234	H	0.598907	-0.233097	0.261957
H235	H	0.288000	-0.899793	-0.404716
H236	H	0.621334	-0.566459	-0.071382
H237	H	0.954667	-0.233126	0.261951
F238	F	0.069316	-0.888958	-0.415538
F239	F	0.402650	-0.555625	-0.082205
F240	F	0.735983	-0.222291	0.251129
H241	H	0.416244	-0.899803	-0.404719
H242	H	0.749577	-0.566469	-0.071386
H243	H	1.082911	-0.233136	0.261947
H244	H	0.416181	-1.056843	-0.247673
H245	H	0.749514	-0.723510	0.085660
H246	H	1.082847	-0.390177	0.418993
H247	H	-0.247441	-1.056920	-1.068541
H248	H	0.085892	-0.723587	-0.735207
H249	H	0.419225	-0.390253	-0.401874
F250	F	-0.076666	-1.067629	-0.236846
F251	F	0.256667	-0.734296	0.096487
F252	F	0.590000	-0.400963	0.429820
H253	H	-0.247553	-1.056859	-0.584536
H254	H	0.085780	-0.723525	-0.251202
H255	H	0.419113	-0.390192	0.082131
H256	H	-0.247521	-1.056872	-0.712769
H257	H	0.085812	-0.723539	-0.379436
H258	H	0.419146	-0.390206	-0.046103
H259	H	-0.247471	-1.056903	-0.940296
H260	H	0.085862	-0.723570	-0.606963
H261	H	0.419195	-0.390237	-0.273629
F262	F	-0.415302	-0.889010	-1.077334
F263	F	-0.081969	-0.555677	-0.744001
F264	F	0.251364	-0.222343	-0.410668
H265	H	-0.404519	-0.899819	-0.940263
H266	H	-0.071186	-0.566486	-0.606930
H267	H	0.262148	-0.233152	-0.273597
