data_functionalizedCrystal
_audit_creation_method	'MofGen! by Chris Wilmer'
_symmetry_space_group_name_H-M	'P1'
_symmetry_Int_Tables_number	1
_symmetry_cell_setting	triclinic
loop_
_symmetry_equiv_pos_as_xyz
  x,y,z
_cell_length_a	12.759401
_cell_length_b	16.120484
_cell_length_c	12.759393
_cell_angle_alpha	92.862621
_cell_angle_beta	89.982620
_cell_angle_gamma	92.925560
loop_
_atom_site_label
_atom_site_type_symbol
_atom_site_fract_x
_atom_site_fract_y
_atom_site_fract_z
Zn1	Zn	1.584960	-0.331851	-0.615146
Zn2	Zn	2.084960	0.168149	-0.115146
Zn3	Zn	1.575915	-0.471289	-0.448359
Zn4	Zn	2.075915	0.028711	0.051641
Zn5	Zn	1.409262	-0.331895	-0.439488
Zn6	Zn	1.909262	0.168105	0.060512
Zn7	Zn	1.400312	-0.471225	-0.623996
Zn8	Zn	1.900312	0.028775	-0.123996
O9	O	1.492612	-0.401565	-0.531747
O10	O	1.992612	0.098435	-0.031747
O11	O	1.730780	-0.350357	-0.593029
O12	O	2.230780	0.149643	-0.093029
O13	O	1.553768	-0.452844	-0.300164
O14	O	2.053768	0.047156	0.199836
O15	O	1.440101	-0.215224	-0.455373
O16	O	1.940101	0.284776	0.044627
O17	O	1.724135	-0.452801	-0.470492
O18	O	2.224135	0.047199	0.029508
O19	O	1.569185	-0.215192	-0.584428
O20	O	2.069185	0.284808	-0.084428
O21	O	1.431330	-0.350432	-0.293646
O22	O	1.931330	0.149568	0.206354
O23	O	1.261055	-0.350369	-0.463955
O24	O	1.761055	0.149631	0.036045
O25	O	1.424845	-0.452691	-0.769840
O26	O	1.924845	0.047309	-0.269840
O27	O	1.254478	-0.452734	-0.599512
O28	O	1.754478	0.047266	-0.099512
O29	O	1.560505	-0.350294	-0.763338
O30	O	2.060505	0.149706	-0.263338
O31	O	1.545089	-0.587946	-0.479074
O32	O	2.045089	-0.087946	0.020926
O33	O	1.416074	-0.587899	-0.608114
O34	O	1.916074	-0.087899	-0.108114
C35	C	1.219646	-0.401550	-0.531732
C36	C	1.719646	0.098450	-0.031732
C37	C	1.102868	-0.401563	-0.531751
C38	C	1.602868	0.098437	-0.031751
C39	C	1.044604	-0.454950	-0.602230
C40	C	1.544604	0.045050	-0.102230
C41	C	0.934879	-0.454961	-0.602242
C42	C	1.434879	0.045039	-0.102242
C43	C	0.941693	-0.348196	-0.461287
C44	C	1.441693	0.151804	0.038713
C45	C	1.051416	-0.348181	-0.461281
C46	C	1.551416	0.151819	0.038719
C47	C	1.096056	-0.508332	-0.672701
C48	C	1.596056	-0.008332	-0.172701
C49	C	1.037792	-0.561724	-0.743185
C50	C	1.537792	-0.061724	-0.243185
C51	C	0.928067	-0.561734	-0.743197
C52	C	1.428067	-0.061734	-0.243197
C53	C	0.876607	-0.508353	-0.672725
C54	C	1.376607	-0.008353	-0.172725
C55	C	1.478657	-0.618172	-0.545539
C56	C	1.978657	-0.118172	-0.045539
C57	C	1.472783	-0.710838	-0.551475
C58	C	1.972783	-0.210838	-0.051475
C59	C	1.462065	-0.880498	-0.562333
C60	C	1.962065	-0.380498	-0.062333
C61	C	1.523347	-0.921791	-0.501178
C62	C	2.023347	-0.421791	-0.001178
C63	C	1.517384	-1.016197	-0.507219
C64	C	2.017384	-0.516197	-0.007219
C65	C	1.468028	-0.786085	-0.556293
C66	C	1.968028	-0.286085	-0.056293
C67	C	1.766644	-0.401581	-0.531763
C68	C	2.266644	0.098419	-0.031763
C69	C	1.883421	-0.401588	-0.531770
C70	C	2.383421	0.098412	-0.031770
C71	C	1.492686	-0.401480	-0.805775
C72	C	1.992686	0.098520	-0.305775
C73	C	1.492717	-0.401444	-0.922549
C74	C	1.992717	0.098556	-0.422549
C75	C	1.506650	-0.184112	-0.517924
C76	C	2.006650	0.315888	-0.017924
C77	C	1.512632	-0.091447	-0.512033
C78	C	2.012632	0.408553	-0.012033
C79	C	1.428993	-0.348108	-0.974023
C80	C	1.928993	0.151892	-0.474023
C81	C	1.429026	-0.348083	-1.083746
C82	C	1.929026	0.151917	-0.583746
C83	C	1.556517	-0.454733	-1.090511
C84	C	2.056517	0.045267	-0.590511
C85	C	1.556478	-0.454761	-0.980791
C86	C	2.056478	0.045239	-0.480791
C87	C	1.365232	-0.294791	-0.915782
C88	C	1.865232	0.205209	-0.415782
C89	C	1.301503	-0.241450	-0.967256
C90	C	1.801503	0.258550	-0.467256
C91	C	1.301536	-0.241426	-1.076978
C92	C	1.801536	0.258574	-0.576978
C93	C	1.365299	-0.294742	-1.135227
C94	C	1.865299	0.205258	-0.635227
C95	C	1.492603	-0.401590	-0.258781
C96	C	1.992603	0.098410	0.241219
C97	C	1.492790	-0.401391	-0.141992
C98	C	1.992790	0.098609	0.358008
H99	H	1.185399	-0.508331	-0.672697
H100	H	1.685399	-0.008331	-0.172697
F101	F	1.597775	-0.875330	-0.426809
F102	F	2.097775	-0.375330	0.073191
F103	F	1.365326	-0.294716	-1.252005
F104	F	1.865326	0.205284	-0.752005
H105	H	1.079698	-0.605179	-0.800566
H106	H	1.579698	-0.105179	-0.300566
H107	H	1.608383	-0.498181	-0.938879
H108	H	2.108383	0.001819	-0.438879
F109	F	1.387639	-0.926960	-0.636693
F110	F	1.887639	-0.426960	-0.136693
H111	H	0.899785	-0.304736	-0.403912
H112	H	1.399785	0.195264	0.096088
H113	H	1.365200	-0.294804	-0.826440
H114	H	1.865200	0.205196	-0.326440
H115	H	1.249584	-0.198047	-0.919823
H116	H	1.749584	0.301953	-0.419823
H117	H	1.608432	-0.498138	-1.137946
H118	H	2.108432	0.001862	-0.637946
F119	F	0.866061	-0.618551	-0.818218
F120	F	1.366061	-0.118551	-0.318218
F121	F	0.759827	-0.508361	-0.672749
F122	F	1.259827	-0.008361	-0.172749
F123	F	1.233693	-0.184671	-1.131758
F124	F	1.733693	0.315329	-0.631758
F125	F	1.113428	-0.291361	-0.386269
F126	F	1.613428	0.208639	0.113731
