data_functionalizedCrystal
_audit_creation_method	'MofGen! by Chris Wilmer'
_symmetry_space_group_name_H-M	'P1'
_symmetry_Int_Tables_number	1
_symmetry_cell_setting	triclinic
loop_
_symmetry_equiv_pos_as_xyz
  x,y,z
_cell_length_a	16.974897
_cell_length_b	10.654545
_cell_length_c	15.455313
_cell_angle_alpha	92.693355
_cell_angle_beta	83.675220
_cell_angle_gamma	83.942301
loop_
_atom_site_label
_atom_site_type_symbol
_atom_site_fract_x
_atom_site_fract_y
_atom_site_fract_z
O1	O	1.056978	0.149000	-0.146245
O2	O	0.826115	0.170601	-0.130057
O3	O	0.946854	-0.023049	-0.138523
O4	O	0.936239	0.342650	-0.137780
O5	O	0.939949	-0.012020	0.006223
O6	O	0.819211	0.181630	0.014689
O7	O	1.050073	0.160029	-0.001499
Cu8	Cu	0.934012	0.171836	0.019811
Cu9	Cu	0.942177	0.158794	-0.151368
O10	O	0.929335	0.353679	0.006967
C11	C	0.793102	0.175496	-0.055612
C12	C	0.705019	0.173633	-0.049436
C13	C	0.667394	0.166750	-0.125429
C14	C	0.584629	0.165021	-0.119613
C15	C	0.539491	0.170166	-0.037803
C16	C	0.577122	0.177054	0.038196
C17	C	0.659885	0.178791	0.032379
C18	C	0.291563	0.165622	-0.011946
C19	C	0.208795	0.163879	-0.006135
C20	C	0.216308	0.151849	-0.163945
C21	C	0.299072	0.153580	-0.169754
C22	C	0.336695	0.160474	-0.093755
N23	N	0.454892	0.168395	-0.031856
N24	N	0.421292	0.162254	-0.099703
C25	C	0.942622	-0.064316	-0.066097
C26	C	0.940290	-0.203712	-0.065938
C27	C	0.947827	-0.215744	-0.223746
C28	C	0.950503	-0.287247	-0.302572
C29	C	0.948312	-0.418220	-0.302420
C30	C	0.943442	-0.477692	-0.223432
C31	C	0.940766	-0.406189	-0.144605
C32	C	0.942960	-0.275214	-0.144766
C33	C	0.933223	-0.394156	0.013201
C34	C	0.935420	-0.263183	0.013050
C35	C	0.928353	-0.453628	0.092189
C36	C	0.925683	-0.382125	0.171017
C37	C	0.927876	-0.251145	0.170861
C38	C	0.932744	-0.191680	0.091877
C39	C	1.083087	0.155134	-0.075947
C40	C	1.171170	0.156996	-0.082128
C41	C	0.933566	0.394946	-0.065461
C42	C	0.935899	0.534341	-0.065626
N43	N	0.928274	0.181009	0.140209
N44	N	0.947921	0.149611	-0.271766
C45	C	0.979586	0.098769	0.182006
C46	C	0.975255	0.105718	0.273117
C47	C	0.919614	0.194912	0.322431
C48	C	0.868296	0.277155	0.280628
C49	C	0.872625	0.270200	0.189518
C50	C	0.900931	0.224899	0.595322
C51	C	0.896608	0.231851	0.686438
C52	C	1.003566	0.060411	0.678921
C53	C	1.007893	0.053469	0.587809
C54	C	0.956572	0.135707	0.546015
N55	N	0.915187	0.202019	0.415561
N56	N	0.960996	0.128593	0.452886
H57	H	0.704140	0.162556	-0.192047
O58	O	0.920444	-0.446266	0.256204
H59	H	0.919374	-0.549353	0.243067
H60	H	0.553998	0.159416	-0.181495
H61	H	0.185666	0.146240	-0.225818
O62	O	0.926020	-0.594899	0.092338
H63	H	0.873110	-0.620495	0.062081
H64	H	0.335819	0.149381	-0.236372
O65	O	0.950215	-0.074483	-0.223882
H66	H	1.003151	-0.048984	-0.193631
O67	O	0.160104	0.169442	0.082106
H68	H	0.200168	0.174541	0.133977
H69	H	0.322186	0.171227	0.049938
O70	O	0.528385	0.183378	0.126440
H71	H	0.464492	0.181283	0.117720
H72	H	1.045348	-0.006545	0.712958
O73	O	0.924998	-0.174030	0.255884
H74	H	0.868796	-0.184721	0.297533
O75	O	0.817283	0.358890	0.144423
H76	H	0.827095	0.458065	0.161137
O77	O	0.700469	0.186229	0.114344
H78	H	0.689388	0.103193	0.152838
O79	O	0.955755	-0.223107	-0.387766
H80	H	0.956836	-0.120022	-0.374634
H81	H	0.950483	-0.476437	-0.366607
O82	O	0.935206	-0.050441	0.091647
H83	H	0.883470	-0.006858	0.061302
H84	H	0.941648	-0.584336	-0.223314
O85	O	1.039596	0.002561	0.128819
H86	H	1.074542	-0.053466	0.173194
H87	H	1.017037	0.038751	0.307147
H88	H	0.859145	0.291864	0.561300
O89	O	1.067898	-0.042744	0.534621
H90	H	1.102847	-0.098774	0.578993
O91	O	0.836584	0.328042	0.739632
H92	H	0.801617	0.384049	0.695265
O93	O	0.808285	0.373366	0.333809
H94	H	0.813901	0.364399	0.404186
