data_functionalizedCrystal
_audit_creation_method	'MofGen! by Chris Wilmer'
_symmetry_space_group_name_H-M	'P1'
_symmetry_Int_Tables_number	1
_symmetry_cell_setting	triclinic
loop_
_symmetry_equiv_pos_as_xyz
  x,y,z
_cell_length_a	18.215407
_cell_length_b	21.295417
_cell_length_c	18.215399
_cell_angle_alpha	90.032152
_cell_angle_beta	90.019833
_cell_angle_gamma	90.030955
loop_
_atom_site_label
_atom_site_type_symbol
_atom_site_fract_x
_atom_site_fract_y
_atom_site_fract_z
Zn1	Zn	1.125043	-0.250608	0.416094
Zn2	Zn	1.625043	0.249392	0.916094
Zn3	Zn	1.124940	-0.355879	0.293019
Zn4	Zn	1.624940	0.144121	0.793019
Zn5	Zn	1.001976	-0.250629	0.293042
Zn6	Zn	1.501976	0.249371	0.793042
Zn7	Zn	1.001930	-0.355844	0.416044
Zn8	Zn	1.501930	0.144156	0.916044
O9	O	1.063472	-0.303240	0.354550
O10	O	1.563472	0.196760	0.854550
O11	O	1.228014	-0.264579	0.399780
O12	O	1.728014	0.235421	0.899780
O13	O	1.108604	-0.341941	0.190038
O14	O	1.608604	0.158059	0.690038
O15	O	1.018364	-0.162537	0.309396
O16	O	1.518364	0.337463	0.809396
O17	O	1.227938	-0.341921	0.309357
O18	O	1.727938	0.158079	0.809357
O19	O	1.108781	-0.162521	0.399802
O20	O	1.608781	0.337479	0.899802
O21	O	1.018263	-0.264614	0.190054
O22	O	1.518263	0.235386	0.690054
O23	O	0.898985	-0.264580	0.309347
O24	O	1.398985	0.235420	0.809347
O25	O	1.018285	-0.341861	0.519035
O26	O	1.518285	0.158139	1.019035
O27	O	0.898951	-0.341881	0.399716
O28	O	1.398951	0.158119	0.899716
O29	O	1.108736	-0.264545	0.519072
O30	O	1.608736	0.235455	1.019072
O31	O	1.108559	-0.443964	0.309308
O32	O	1.608559	0.056036	0.809308
O33	O	1.018184	-0.443938	0.399694
O34	O	1.518184	0.056062	0.899694
C35	C	0.872266	-0.303229	0.354529
C36	C	1.372266	0.196771	0.854529
C37	C	0.790467	-0.303240	0.354537
C38	C	1.290467	0.196760	0.854537
C39	C	0.602275	-0.343554	0.401533
C40	C	1.102275	0.156446	0.901533
C41	C	0.525416	-0.343556	0.401542
C42	C	1.025416	0.156444	0.901542
C43	C	0.525422	-0.262938	0.307582
C44	C	1.025422	0.237062	0.807582
C45	C	0.602279	-0.262933	0.307577
C46	C	1.102279	0.237067	0.807577
C47	C	0.640703	-0.303245	0.354552
C48	C	1.140703	0.196755	0.854552
C49	C	0.486987	-0.303251	0.354566
C50	C	0.986987	0.196749	0.854566
C51	C	0.403654	-0.303253	0.354575
C52	C	0.903654	0.196747	0.854575
C53	C	0.724042	-0.303242	0.354543
C54	C	1.224042	0.196758	0.854543
C55	C	1.063376	-0.466792	0.354509
C56	C	1.563376	0.033208	0.854509
C57	C	1.063402	-0.536760	0.354516
C58	C	1.563402	-0.036760	0.854516
C59	C	1.110502	-0.569619	0.307500
C60	C	1.610502	-0.069619	0.807500
C61	C	1.110536	-0.635361	0.307517
C62	C	1.610536	-0.135361	0.807517
C63	C	1.063457	-0.668242	0.354542
C64	C	1.563457	-0.168242	0.854542
C65	C	1.016354	-0.635375	0.401566
C66	C	1.516354	-0.135375	0.901566
C67	C	1.016326	-0.569634	0.401554
C68	C	1.516326	-0.069634	0.901554
N69	N	0.999079	-0.771508	0.360145
N70	N	1.499079	-0.271508	0.860145
N71	N	0.999107	-0.833960	0.360153
N72	N	1.499107	-0.333960	0.860153
C73	C	1.063540	-0.866317	0.354584
C74	C	1.563540	-0.366317	0.854584
N75	N	1.127944	-0.833863	0.348993
N76	N	1.627944	-0.333863	0.848993
N77	N	1.127915	-0.771406	0.348981
N78	N	1.627915	-0.271406	0.848981
C79	C	1.063483	-0.739528	0.354561
C80	C	1.563483	-0.239528	0.854561
C81	C	1.110681	-0.970462	0.307584
C82	C	1.610681	-0.470462	0.807584
C83	C	1.110717	-1.036205	0.307605
C84	C	1.610717	-0.536205	0.807605
C85	C	1.016528	-1.036218	0.401651
C86	C	1.516528	-0.536218	0.901651
C87	C	1.016499	-0.970475	0.401633
C88	C	1.516499	-0.470475	0.901633
C89	C	1.063575	-0.937601	0.354595
C90	C	1.563575	-0.437601	0.854595
C91	C	1.255425	-0.303251	0.354571
C92	C	1.755425	0.196749	0.854571
C93	C	1.337224	-0.303256	0.354581
C94	C	1.837224	0.196744	0.854581
C95	C	1.063517	-0.303197	0.546503
C96	C	1.563517	0.196803	1.046503
C97	C	1.063536	-0.303178	0.628302
C98	C	1.563536	0.196822	1.128302
C99	C	1.063589	-0.139050	0.354607
C100	C	1.563589	0.360950	0.854607
C101	C	1.063639	-0.069082	0.354631
C102	C	1.563639	0.430918	0.854631
C103	C	1.063470	-0.303238	0.163344
C104	C	1.563470	0.196762	0.663344
C105	C	1.063593	-0.303079	0.081545
C106	C	1.563593	0.196921	0.581545
C107	C	1.110651	-0.262882	0.816516
C108	C	1.610651	0.237118	1.316516
C109	C	1.110660	-0.262863	0.893375
C110	C	1.610660	0.237137	1.393375
C111	C	1.016473	-0.343377	0.893325
C112	C	1.516473	0.156623	1.393325
C113	C	1.016461	-0.343392	0.816468
C114	C	1.516461	0.156608	1.316468
C115	C	1.063554	-0.303145	0.778065
C116	C	1.563554	0.196855	1.278065
C117	C	1.063575	-0.303112	0.931781
C118	C	1.563575	0.196888	1.431781
C119	C	1.063584	-0.303093	1.015115
C120	C	1.563584	0.196907	1.515115
C121	C	1.063544	-0.303164	0.694726
C122	C	1.563544	0.196836	1.194726
H123	H	0.494130	-0.376379	0.439801
H124	H	0.994130	0.123621	0.939801
H125	H	0.494127	-0.230118	0.269336
H126	H	0.994127	0.269882	0.769336
H127	H	1.148893	-0.662121	0.269231
H128	H	1.648893	-0.162121	0.769231
C129	C	0.964569	-0.671538	0.453294
C130	C	1.464569	-0.171538	0.953294
H131	H	0.936516	-0.642550	0.481299
H132	H	1.436516	-0.142550	0.981299
H133	H	0.932529	-0.697227	0.425121
H134	H	1.432529	-0.197227	0.925121
H135	H	0.992719	-0.697141	0.485392
H136	H	1.492719	-0.197141	0.985392
C137	C	1.162441	-0.218605	0.774276
C138	C	1.662441	0.281395	1.274276
H139	H	1.190485	-0.194618	0.808186
H140	H	1.690485	0.305382	1.308186
H141	H	1.194488	-0.242686	0.744288
H142	H	1.694488	0.257314	1.244288
H143	H	1.134294	-0.191181	0.744302
H144	H	1.634294	0.308819	1.244302
C145	C	0.644557	-0.218591	0.255898
C146	C	1.144557	0.281409	0.755898
H147	H	0.695833	-0.224357	0.262630
H148	H	1.195833	0.275643	0.762630
H149	H	0.631940	-0.227747	0.206431
H150	H	1.131940	0.272253	0.706431
H151	H	0.631989	-0.176306	0.266766
H152	H	1.131989	0.323694	0.766766
C153	C	0.964682	-0.387650	0.935570
C154	C	1.464682	0.112350	1.435570
H155	H	0.971439	-0.381881	0.986851
H156	H	1.471439	0.118119	1.486851
H157	H	0.915239	-0.378441	0.922970
H158	H	1.415239	0.121559	1.422970
H159	H	0.975429	-0.429950	0.922958
H160	H	1.475429	0.070050	1.422958
C161	C	0.644539	-0.387889	0.453209
C162	C	1.144539	0.112111	0.953209
H163	H	0.610642	-0.411891	0.481196
H164	H	1.110642	0.088109	0.981196
H165	H	0.674496	-0.415286	0.425002
H166	H	1.174496	0.084714	0.925002
H167	H	0.674546	-0.363835	0.485326
H168	H	1.174546	0.136165	0.985326
C169	C	1.162291	-0.533461	0.255770
C170	C	1.662291	-0.033461	0.755770
H171	H	1.190352	-0.562450	0.227776
H172	H	1.690352	-0.062450	0.727776
H173	H	1.134151	-0.507854	0.223673
H174	H	1.634151	-0.007854	0.723673
H175	H	1.194333	-0.507776	0.283953
H176	H	1.694333	-0.007776	0.783953
C177	C	1.162473	-0.218582	0.935671
C178	C	1.662473	0.281418	1.435671
H179	H	1.155734	-0.224333	0.986945
H180	H	1.655734	0.275667	1.486945
H181	H	1.211909	-0.227804	0.923079
H182	H	1.711909	0.272196	1.423079
H183	H	1.151731	-0.176285	0.923091
H184	H	1.651731	0.323715	1.423091
H185	H	0.977971	-0.542879	0.439840
H186	H	1.477971	-0.042879	0.939840
H187	H	0.978143	-0.943720	0.439914
H188	H	1.478143	-0.443720	0.939914
C189	C	1.162469	-0.934297	0.255854
C190	C	1.662469	-0.434297	0.755854
H191	H	1.190534	-0.963286	0.227862
H192	H	1.690534	-0.463286	0.727862
H193	H	1.134327	-0.908694	0.223755
H194	H	1.634327	-0.408694	0.723755
H195	H	1.194507	-0.908609	0.284036
H196	H	1.694507	-0.408609	0.784036
C197	C	1.162529	-1.072351	0.255885
C198	C	1.662529	-0.572351	0.755885
H199	H	1.190554	-1.043354	0.227866
H200	H	1.690554	-0.543354	0.727866
H201	H	1.194593	-1.097953	0.284067
H202	H	1.694593	-0.597953	0.784067
H203	H	1.134399	-1.098038	0.223799
H204	H	1.634399	-0.598038	0.723799
H205	H	0.978104	-0.376179	0.785160
H206	H	1.478104	0.123821	1.285160
H207	H	0.978199	-1.062989	0.439942
H208	H	1.478199	-0.562989	0.939942
