data_functionalizedCrystal
_audit_creation_method	'MofGen! by Chris Wilmer'
_symmetry_space_group_name_H-M	'P1'
_symmetry_Int_Tables_number	1
_symmetry_cell_setting	triclinic
loop_
_symmetry_equiv_pos_as_xyz
  x,y,z
_cell_length_a	8.497374
_cell_length_b	19.805407
_cell_length_c	19.805405
_cell_angle_alpha	89.973590
_cell_angle_beta	89.985911
_cell_angle_gamma	90.004504
loop_
_atom_site_label
_atom_site_type_symbol
_atom_site_fract_x
_atom_site_fract_y
_atom_site_fract_z
Zn1	Zn	0.892011	1.034635	0.269581
Zn2	Zn	0.628188	1.034580	0.382739
Zn3	Zn	0.628226	0.921479	0.269569
Zn4	Zn	0.891907	0.921413	0.382733
O5	O	0.760083	0.978027	0.326155
O6	O	0.857043	1.129344	0.284598
O7	O	0.407431	1.019581	0.367724
O8	O	0.663277	0.936541	0.174854
O9	O	0.663213	1.129303	0.367735
O10	O	0.857079	1.019676	0.174862
O11	O	0.407458	0.936487	0.284579
O12	O	0.663176	0.826754	0.284573
O13	O	1.112683	0.936428	0.367725
O14	O	0.856901	0.826705	0.367714
O15	O	1.112760	1.019611	0.284593
O16	O	0.663111	1.019517	0.477455
O17	O	0.856864	0.936374	0.477450
C18	C	0.760032	0.802171	0.326142
C19	C	0.760048	0.726939	0.326153
C20	C	0.860757	0.691587	0.369510
C21	C	0.860779	0.620899	0.369511
C22	C	0.760083	0.585563	0.326158
C23	C	0.659369	0.620920	0.282797
C24	C	0.659356	0.691607	0.282793
C25	C	0.659421	0.335847	0.282812
C26	C	0.659439	0.265155	0.282821
C27	C	0.860844	0.265138	0.369530
C28	C	0.860831	0.335825	0.369526
C29	C	0.760124	0.371176	0.326162
C30	C	0.760103	0.447824	0.326161
C31	C	0.760095	0.508916	0.326163
C32	C	0.760007	0.977951	0.502011
C33	C	0.760027	0.977980	0.577243
C34	C	1.171563	0.978022	0.326156
C35	C	1.350207	0.978023	0.326164
C36	C	0.760135	1.154569	0.326169
C37	C	0.760157	1.229801	0.326175
C38	C	0.760194	0.978122	0.149613
C39	C	0.760241	0.978162	0.074381
C40	C	0.659245	1.021314	0.612567
C41	C	0.659280	1.021343	0.683256
C42	C	0.760090	0.978034	0.718619
C43	C	0.860882	0.934697	0.683290
C44	C	0.860854	0.934672	0.612603
C45	C	0.860999	0.934797	0.968363
C46	C	0.861016	0.934824	1.039055
C47	C	0.659425	1.021468	1.039016
C48	C	0.659397	1.021443	0.968329
C49	C	0.760195	0.978109	0.933006
C50	C	0.760158	0.978080	0.856358
C51	C	0.760120	0.978059	0.795266
H52	H	0.942823	0.364592	0.404830
H53	H	0.577212	1.056630	0.712013
H54	H	0.942851	0.236347	0.404836
C55	C	0.548554	1.069142	1.077873
C56	C	0.437658	1.116777	1.038974
C57	C	0.326785	1.164447	1.077828
C58	C	0.326808	1.164482	1.155581
C59	C	0.437709	1.116846	1.194484
C60	C	0.548581	1.069176	1.155630
H61	H	0.437637	1.116752	0.981412
H62	H	0.244689	1.199711	1.049029
H63	H	0.244734	1.199771	1.184343
H64	H	0.437730	1.116870	1.252046
H65	H	0.630677	1.033912	1.184429
C66	C	0.971548	0.582008	0.417208
C67	C	1.095546	0.533434	0.387971
C68	C	1.206317	0.494543	0.435670
C69	C	1.193090	0.504226	0.512605
C70	C	1.069086	0.552803	0.541846
C71	C	0.958315	0.591694	0.494147
H72	H	1.105342	0.526264	0.331015
H73	H	1.298112	0.458583	0.414023
H74	H	1.275089	0.475436	0.547915
H75	H	1.059290	0.559973	0.598802
H76	H	0.866520	0.627654	0.515794
C77	C	0.971526	0.730453	0.417199
C78	C	0.958334	0.720700	0.494136
C79	C	1.069111	0.759564	0.541825
C80	C	1.193080	0.808181	0.512577
C81	C	1.206277	0.817936	0.435636
C82	C	1.095500	0.779072	0.387947
H83	H	0.866561	0.684709	0.515791
H84	H	1.059341	0.752342	0.598782
H85	H	1.275083	0.836950	0.547879
H86	H	1.298051	0.853927	0.413981
H87	H	1.105270	0.786294	0.330990
H88	H	0.577303	1.056707	0.939538
C89	C	0.548600	0.374726	0.235133
C90	C	0.437805	0.335856	0.187463
C91	C	0.326960	0.374739	0.139789
C92	C	0.326909	0.452493	0.139786
C93	C	0.437709	0.491367	0.187458
C94	C	0.548554	0.452484	0.235132
H95	H	0.437839	0.278295	0.187463
H96	H	0.244939	0.345962	0.104499
H97	H	0.244855	0.481276	0.104495
H98	H	0.437675	0.548928	0.187457
H99	H	0.630575	0.481262	0.270422
H100	H	0.577387	0.592144	0.247496
H101	H	0.943119	0.899556	1.067846
C102	C	0.971774	0.887055	0.722187
C103	C	1.082635	0.839388	0.683330
C104	C	1.193526	0.791742	0.722225
C105	C	1.193555	0.791763	0.799978
C106	C	1.082690	0.839432	0.838840
C107	C	0.971800	0.887077	0.799945
H108	H	1.082617	0.839371	0.625768
H109	H	1.275595	0.756454	0.693456
H110	H	1.275643	0.756493	0.828771
H111	H	1.082708	0.839449	0.896402
H112	H	0.889730	0.922365	0.828713
C113	C	0.548577	0.730498	0.235100
C114	C	0.561788	0.720809	0.158165
C115	C	0.451014	0.759700	0.110467
C116	C	0.327029	0.808281	0.139704
C117	C	0.313813	0.817972	0.216644
C118	C	0.424587	0.779081	0.264341
H119	H	0.653573	0.684845	0.136518
H120	H	0.460798	0.752525	0.053511
H121	H	0.245028	0.837070	0.104396
H122	H	0.222027	0.853936	0.238291
H123	H	0.414802	0.786256	0.321297
C124	C	0.548352	1.068957	0.573671
C125	C	0.369002	1.063506	0.583428
C126	C	0.258110	1.111152	0.544533
C127	C	0.326567	1.164248	0.495881
C128	C	0.505926	1.169700	0.486122
C129	C	0.616819	1.122055	0.525016
H130	H	0.318317	1.024200	0.619445
H131	H	0.125336	1.107115	0.551758
H132	H	0.244478	1.199518	0.467089
H133	H	0.556611	1.209007	0.450104
H134	H	0.749592	1.126092	0.517791
H135	H	0.577440	0.236386	0.247514
H136	H	0.943069	0.899512	0.939609
H137	H	0.942923	0.899386	0.583843
