data_functionalizedCrystal
_audit_creation_method	'MofGen! by Chris Wilmer'
_symmetry_space_group_name_H-M	'P1'
_symmetry_Int_Tables_number	1
_symmetry_cell_setting	triclinic
loop_
_symmetry_equiv_pos_as_xyz
  x,y,z
_cell_length_a	14.853569
_cell_length_b	14.472310
_cell_length_c	14.853569
_cell_angle_alpha	90.002228
_cell_angle_beta	83.635565
_cell_angle_gamma	90.011059
loop_
_atom_site_label
_atom_site_type_symbol
_atom_site_fract_x
_atom_site_fract_y
_atom_site_fract_z
O1	O	1.196376	0.076801	0.117705
O2	O	0.933917	0.076813	0.131725
O3	O	1.072157	0.076798	-0.006515
O4	O	1.058137	0.076816	0.255944
O5	O	1.072121	-0.076884	-0.006507
O6	O	0.933882	-0.076869	0.131733
O7	O	1.196341	-0.076881	0.117713
Cu8	Cu	1.065108	-0.090908	0.124723
Cu9	Cu	1.065150	0.090839	0.124714
O10	O	1.058101	-0.076866	0.255952
C11	C	0.900311	-0.000027	0.131093
C12	C	0.800227	-0.000023	0.129189
C13	C	0.763850	-0.000026	0.046178
C14	C	0.742561	-0.000024	0.210410
C15	C	0.648527	-0.000026	0.208624
C16	C	0.612150	-0.000028	0.125613
C17	C	0.669807	-0.000029	0.044389
C18	C	0.590863	-0.000034	0.289847
C19	C	0.496823	-0.000036	0.288063
C20	C	0.460444	-0.000032	0.205052
C21	C	0.518108	-0.000032	0.123824
C22	C	0.481731	-0.000035	0.040813
C23	C	0.539392	-0.000028	-0.040415
C24	C	0.633429	-0.000025	-0.038623
C25	C	0.366408	-0.000035	0.203259
C26	C	0.387688	-0.000039	0.039024
N27	N	1.065085	-0.218738	0.124729
C28	C	1.065149	-0.592830	0.124710
C29	C	0.990931	-0.553656	0.198431
C30	C	0.991103	-0.446568	0.198700
C31	C	1.065116	-0.407239	0.124720
C32	C	1.159209	-0.446078	0.145384
C33	C	1.158792	-0.553200	0.145908
C34	C	1.046113	-0.553365	0.030108
C35	C	1.043956	-0.446237	0.030736
C36	C	1.065104	-0.302350	0.124723
C37	C	1.065167	-0.697718	0.124709
C38	C	1.229947	-0.000039	0.118344
C39	C	1.330031	-0.000037	0.120249
C40	C	1.071503	-0.000044	-0.040100
C41	C	1.069599	-0.000044	-0.140183
N42	N	1.065180	0.218670	0.124701
C43	C	0.986588	-0.000042	-0.176560
C44	C	1.150821	-0.000040	-0.197849
C45	C	1.149034	-0.000036	-0.291883
C46	C	1.066024	-0.000034	-0.328260
C47	C	0.984799	-0.000036	-0.270603
C48	C	1.230257	-0.000024	-0.349547
C49	C	1.228474	-0.000019	-0.443588
C50	C	1.145462	-0.000024	-0.479966
C51	C	1.064234	-0.000027	-0.422303
C52	C	0.981224	-0.000025	-0.458680
C53	C	0.899995	-0.000034	-0.401018
C54	C	0.901787	-0.000040	-0.306982
C55	C	1.143670	-0.000018	-0.574002
C56	C	0.979434	-0.000018	-0.552722
C57	C	1.058754	-0.000023	0.289537
C58	C	1.060659	-0.000016	0.389621
H59	H	0.358078	-0.000036	-0.028574
H60	H	1.294615	-0.000013	-0.490528
H61	H	1.176363	-0.419237	0.213594
Cl62	Cl	1.255171	-0.000032	-0.152116
Cl63	Cl	0.705922	-0.000028	-0.140729
Cl64	Cl	1.245777	0.000004	-0.646486
Cl65	Cl	1.121990	-0.404924	-0.057948
H66	H	0.772186	-0.000029	0.277994
Cl67	Cl	1.129671	-0.592476	-0.054595
Cl68	Cl	0.883108	-0.406023	0.179724
H69	H	0.620489	-0.000038	0.357430
H70	H	0.911836	-0.000025	-0.582332
Cl71	Cl	0.937091	-0.407047	0.006524
Cl72	Cl	0.493650	-0.000040	-0.144768
H73	H	1.002932	-0.580561	0.268236
Cl74	Cl	0.836335	-0.000016	-0.055933
H75	H	0.920454	-0.000054	-0.129608
Cl76	Cl	0.795643	-0.000021	-0.446761
H77	H	1.003271	-0.420929	0.268900
Cl78	Cl	0.424343	-0.000036	0.390177
H79	H	0.319464	-0.000048	0.269394
Cl80	Cl	0.942452	-0.595120	-0.000507
Cl81	Cl	0.799682	-0.000044	-0.234489
Cl82	Cl	0.882596	-0.593445	0.179695
H83	H	1.215751	-0.579111	0.094337
H84	H	1.297840	-0.000083	-0.319921
Cl85	Cl	1.184661	-0.591758	0.252433
H86	H	1.215762	-0.420601	0.093123
