data_functionalizedCrystal
_audit_creation_method	'MofGen! by Chris Wilmer'
_symmetry_space_group_name_H-M	'P1'
_symmetry_Int_Tables_number	1
_symmetry_cell_setting	triclinic
loop_
_symmetry_equiv_pos_as_xyz
  x,y,z
_cell_length_a	10.868271
_cell_length_b	8.559649
_cell_length_c	8.559649
_cell_angle_alpha	69.778664
_cell_angle_beta	90.003424
_cell_angle_gamma	90.000625
loop_
_atom_site_label
_atom_site_type_symbol
_atom_site_fract_x
_atom_site_fract_y
_atom_site_fract_z
O1	O	-0.102303	-2.126872	0.055031
O2	O	-0.102308	-1.651387	-0.028750
O3	O	-0.102304	-1.931020	0.250883
O4	O	-0.102307	-1.847239	-0.224602
O5	O	0.102341	-1.931019	0.250896
O6	O	0.102337	-1.651386	-0.028737
O7	O	0.102342	-2.126871	0.055044
Zn8	Zn	0.134831	-1.889128	0.013156
Zn9	Zn	-0.134797	-1.889130	0.013138
O10	O	0.102338	-1.847238	-0.224589
C11	C	0.000014	-1.591077	-0.035093
C12	C	0.000012	-1.411378	-0.053992
N13	N	-0.318811	-1.889133	0.013138
C14	C	0.000016	-1.937369	0.311198
C15	C	0.000010	-1.956268	0.490898
C16	C	-0.569817	-1.889130	0.013148
C17	C	-0.430140	-1.889126	0.013137
N18	N	0.318845	-1.889139	0.013170
C19	C	0.000017	-2.187180	0.061387
C20	C	0.000011	-2.366879	0.080286
C21	C	0.000015	-1.840889	-0.284904
C22	C	0.000013	-1.821990	-0.464604
H23	H	0.000004	-1.311990	-0.183420
H24	H	0.000006	-1.466258	0.209705
H25	H	0.000016	-1.692570	0.436018
H26	H	0.000021	-2.085696	0.590286
