data_functionalizedCrystal
_audit_creation_method	'MofGen! by Chris Wilmer'
_symmetry_space_group_name_H-M	'P1'
_symmetry_Int_Tables_number	1
_symmetry_cell_setting	triclinic
loop_
_symmetry_equiv_pos_as_xyz
  x,y,z
_cell_length_a	10.654550
_cell_length_b	16.109301
_cell_length_c	14.586319
_cell_angle_alpha	90.005214
_cell_angle_beta	90.007032
_cell_angle_gamma	83.973192
loop_
_atom_site_label
_atom_site_type_symbol
_atom_site_fract_x
_atom_site_fract_y
_atom_site_fract_z
O1	O	-1.666255	-0.116773	-0.076319
O2	O	-1.300626	-0.127898	-0.076305
O3	O	-1.493485	-0.001364	-0.076303
O4	O	-1.473397	-0.243307	-0.076321
O5	O	-1.493472	-0.001362	0.076178
O6	O	-1.300613	-0.127896	0.076176
O7	O	-1.666242	-0.116771	0.076162
Cu8	Cu	-1.483426	-0.122333	0.090092
Cu9	Cu	-1.483442	-0.122336	-0.090234
O10	O	-1.473383	-0.243305	0.076160
C11	C	-1.492665	0.029616	-0.000062
C12	C	-1.490225	0.121926	-0.000061
C13	C	-1.253832	-0.127080	-0.000062
C14	C	-1.114422	-0.124636	-0.000056
C15	C	-1.713036	-0.117589	-0.000083
C16	C	-1.852446	-0.120033	-0.000094
C17	C	-1.033926	-0.199138	-0.000075
C18	C	-0.902936	-0.196836	-0.000091
C19	C	-0.932952	-0.045526	-0.000073
C20	C	-1.063939	-0.047828	-0.000050
C21	C	-1.084409	-0.275946	-0.000081
C22	C	-1.003911	-0.350453	-0.000101
C23	C	-0.872921	-0.348152	-0.000117
C24	C	-0.822430	-0.271343	-0.000113
C25	C	-1.474204	-0.274286	-0.000083
C26	C	-1.476643	-0.366595	-0.000090
N27	N	-1.483424	-0.122331	0.216923
C28	C	-1.598991	0.343552	-0.000079
C29	C	-1.596689	0.430286	-0.000087
C30	C	-1.367868	0.411772	-0.000074
C31	C	-1.370172	0.325040	-0.000073
C32	C	-1.485737	0.290932	-0.000071
C33	C	-1.481131	0.464399	-0.000080
C34	C	-1.478634	0.558440	-0.000088
C35	C	-1.488234	0.196885	-0.000065
N36	N	-1.483454	-0.122331	-0.217066
C37	C	-1.568850	-0.066321	0.451931
C38	C	-1.568854	-0.066319	0.547912
C39	C	-1.398019	-0.178344	0.547920
C40	C	-1.398010	-0.178341	0.451940
C41	C	-1.483433	-0.122331	0.403948
C42	C	-1.483445	-0.122332	0.595909
C43	C	-1.483448	-0.122330	0.699976
C44	C	-1.483428	-0.122331	0.299874
H45	H	-1.191065	-0.277828	-0.000073
H46	H	-1.638405	-0.020713	0.412858
Br47	Br	-1.282094	-0.254357	0.613055
Br48	Br	-1.755828	0.297265	-0.000076
Br49	Br	-1.216458	0.253621	-0.000075
H50	H	-0.715768	-0.269475	-0.000111
H51	H	-0.807383	-0.408819	-0.000124
Br52	Br	-1.211038	0.458067	-0.000080
H53	H	-1.045031	-0.412988	-0.000097
H54	H	-1.328447	-0.223952	0.412870
H55	H	-1.688912	0.473126	-0.000095
H56	H	-1.129482	0.012837	-0.000038
Br57	Br	-0.864427	0.058708	-0.000069
Br58	Br	-1.684776	0.009701	0.613029
