data_functionalizedCrystal
_audit_creation_method	'MofGen! by Chris Wilmer'
_symmetry_space_group_name_H-M	'P1'
_symmetry_Int_Tables_number	1
_symmetry_cell_setting	triclinic
loop_
_symmetry_equiv_pos_as_xyz
  x,y,z
_cell_length_a	16.625546
_cell_length_b	12.759401
_cell_length_c	12.759393
_cell_angle_alpha	90.022497
_cell_angle_beta	89.964881
_cell_angle_gamma	89.976710
loop_
_atom_site_label
_atom_site_type_symbol
_atom_site_fract_x
_atom_site_fract_y
_atom_site_fract_z
Zn1	Zn	-0.320945	-1.606210	-0.594030
Zn2	Zn	0.012388	-1.272876	-0.260697
Zn3	Zn	0.345722	-0.939543	0.072637
Zn4	Zn	-0.455799	-1.606077	-0.418336
Zn5	Zn	-0.122466	-1.272744	-0.085003
Zn6	Zn	0.210868	-0.939410	0.248331
Zn7	Zn	-0.320986	-1.430508	-0.418360
Zn8	Zn	0.012347	-1.097175	-0.085027
Zn9	Zn	0.345681	-0.763842	0.248306
Zn10	Zn	-0.455741	-1.430476	-0.593968
Zn11	Zn	-0.122408	-1.097143	-0.260635
Zn12	Zn	0.210925	-0.763810	0.072698
O13	O	-0.388368	-1.518318	-0.506174
O14	O	-0.055035	-1.184985	-0.172840
O15	O	0.278299	-0.851651	0.160493
O16	O	-0.338841	-1.753213	-0.570739
O17	O	-0.005507	-1.419880	-0.237406
O18	O	0.327826	-1.086546	0.095927
O19	O	-0.437957	-1.582745	-0.271318
O20	O	-0.104624	-1.249412	0.062015
O21	O	0.228709	-0.916079	0.395349
O22	O	-0.208148	-1.453884	-0.441699
O23	O	0.125185	-1.120551	-0.108366
O24	O	0.458518	-0.787218	0.224967
O25	O	-0.437917	-1.753116	-0.441658
O26	O	-0.104584	-1.419782	-0.108324
O27	O	0.228749	-1.086449	0.225009
O28	O	-0.208118	-1.582971	-0.570763
O29	O	0.125215	-1.249638	-0.237430
O30	O	0.458549	-0.916305	0.095904
O31	O	-0.338911	-1.453756	-0.271336
O32	O	-0.005578	-1.120422	0.061997
O33	O	0.327756	-0.787089	0.395331
O34	O	-0.338855	-1.283483	-0.441640
O35	O	-0.005521	-0.950150	-0.108306
O36	O	0.327812	-0.616816	0.225027
O37	O	-0.437819	-1.453830	-0.740998
O38	O	-0.104485	-1.120497	-0.407664
O39	O	0.228848	-0.787163	-0.074331
O40	O	-0.437859	-1.283460	-0.570658
O41	O	-0.104525	-0.950126	-0.237325
O42	O	0.228808	-0.616793	0.096009
O43	O	-0.338784	-1.582940	-0.741043
O44	O	-0.005451	-1.249607	-0.407710
O45	O	0.327882	-0.916274	-0.074376
O46	O	-0.568624	-1.582714	-0.441598
O47	O	-0.235291	-1.249381	-0.108265
O48	O	0.098043	-0.916048	0.225069
O49	O	-0.568581	-1.453701	-0.570634
O50	O	-0.235248	-1.120368	-0.237301
O51	O	0.098085	-0.787035	0.096032
C52	C	-0.388355	-1.245350	-0.506145
C53	C	-0.055022	-0.912017	-0.172812
C54	C	0.278311	-0.578684	0.160521
C55	C	-0.388370	-1.128574	-0.506158
C56	C	-0.055036	-0.795241	-0.172825
C57	C	0.278297	-0.461907	0.160508
C58	C	-0.439999	-1.073727	-0.573231
C59	C	-0.106665	-0.740394	-0.239898
C60	C	0.226668	-0.407061	0.093436
C61	C	-0.440001	-0.964003	-0.573249
C62	C	-0.106668	-0.630670	-0.239915
C63	C	0.226666	-0.297336	0.093418
C64	C	-0.336742	-0.963982	-0.439112
C65	C	-0.003409	-0.630649	-0.105779
C66	C	0.329925	-0.297315	0.227554
C67	C	-0.336737	-1.073704	-0.439101
C68	C	-0.003403	-0.740371	-0.105767
C69	C	0.329930	-0.407037	0.227566
C70	C	-0.597859	-1.518218	-0.506130
C71	C	-0.264525	-1.184885	-0.172796
C72	C	0.068808	-0.851552	0.160537
C73	C	-0.687480	-1.518272	-0.506146
C74	C	-0.354146	-1.184939	-0.172813
C75	C	-0.020813	-0.851605	0.160521
C76	C	-1.015655	-1.518455	-0.506255
C77	C	-0.682322	-1.185122	-0.172922
C78	C	-0.348989	-0.851789	0.160411
C79	C	-0.924347	-1.518401	-0.506228
C80	C	-0.591014	-1.185068	-0.172895
C81	C	-0.257680	-0.851734	0.160439
C82	C	-0.851571	-1.518363	-0.506200
C83	C	-0.518237	-1.185029	-0.172867
C84	C	-0.184904	-0.851696	0.160466
C85	C	-0.760256	-1.518310	-0.506174
C86	C	-0.426923	-1.184977	-0.172840
C87	C	-0.093590	-0.851643	0.160493
C88	C	-0.178059	-1.518446	-0.506241
C89	C	0.155274	-1.185113	-0.172908
C90	C	0.488608	-0.851780	0.160426
C91	C	-0.088438	-1.518501	-0.506269
C92	C	0.244896	-1.185168	-0.172936
C93	C	0.578229	-0.851834	0.160397
C94	C	-0.388290	-1.518396	-0.780207
C95	C	-0.054957	-1.185063	-0.446874
C96	C	0.278376	-0.851730	-0.113541
C97	C	-0.388257	-1.518430	-0.896984
C98	C	-0.054924	-1.185097	-0.563651
C99	C	0.278409	-0.851763	-0.230317
C100	C	-0.388379	-0.792351	-0.506196
C101	C	-0.055045	-0.459018	-0.172863
C102	C	0.278288	-0.125684	0.160471
C103	C	-0.388377	-0.909128	-0.506188
C104	C	-0.055044	-0.575794	-0.172855
C105	C	0.278290	-0.242461	0.160479
C106	C	-0.336682	-1.585663	-0.951871
C107	C	-0.003349	-1.252329	-0.618538
C108	C	0.329985	-0.918996	-0.285204
C109	C	-0.336647	-1.585681	-1.061595
C110	C	-0.003314	-1.252347	-0.728262
C111	C	0.330019	-0.919014	-0.394929
C112	C	-0.439770	-1.451230	-1.061535
C113	C	-0.106437	-1.117897	-0.728202
C114	C	0.226896	-0.784563	-0.394869
C115	C	-0.439800	-1.451208	-0.951813
C116	C	-0.106467	-1.117874	-0.618480
C117	C	0.226866	-0.784541	-0.285147
C118	C	-0.388387	-1.518300	-0.233206
C119	C	-0.055053	-1.184967	0.100127
C120	C	0.278280	-0.851633	0.433460
C121	C	-0.388193	-1.518470	-0.116430
C122	C	-0.054859	-1.185137	0.216903
C123	C	0.278474	-0.851803	0.550236
H124	H	-0.294710	-1.640397	-0.907232
H125	H	0.038623	-1.307063	-0.573899
H126	H	0.371956	-0.973730	-0.240566
N127	N	-0.281018	-1.658204	-1.120782
N128	N	0.052316	-1.324871	-0.787449
N129	N	0.385649	-0.991538	-0.454115
H130	H	-0.313773	-1.706880	-1.166308
H131	H	0.019561	-1.373547	-0.832975
H132	H	0.352894	-1.040213	-0.499641
H133	H	-0.243641	-1.615471	-1.166245
H134	H	0.089692	-1.282138	-0.832911
H135	H	0.423026	-0.948804	-0.499578
H136	H	-0.481736	-1.396502	-1.106191
H137	H	-0.148403	-1.063169	-0.772857
H138	H	0.184930	-0.729835	-0.439524
H139	H	-0.294706	-0.919294	-0.384515
H140	H	0.038628	-0.585960	-0.051181
H141	H	0.371961	-0.252627	0.282152
N142	N	-0.495414	-1.378668	-0.892604
N143	N	-0.162081	-1.045334	-0.559270
N144	N	0.171252	-0.712001	-0.225937
H145	H	-0.528062	-1.336086	-0.943985
H146	H	-0.194728	-1.002752	-0.610652
H147	H	0.138605	-0.669419	-0.277319
H148	H	-0.532747	-1.421383	-0.847063
H149	H	-0.199414	-1.088050	-0.513730
H150	H	0.133920	-0.754716	-0.180396
H151	H	-0.482040	-1.118399	-0.627836
H152	H	-0.148706	-0.785066	-0.294503
H153	H	0.184627	-0.451732	0.038830
H154	H	-0.294689	-1.118362	-0.384482
H155	H	0.038645	-0.785028	-0.051148
H156	H	0.371978	-0.451695	0.282185
N157	N	-0.495690	-0.904846	-0.645586
N158	N	-0.162357	-0.571512	-0.312253
N159	N	0.170977	-0.238179	0.021080
H160	H	-0.528397	-0.956258	-0.688060
H161	H	-0.195064	-0.622925	-0.354727
H162	H	0.138269	-0.289592	-0.021393
H163	H	-0.532963	-0.859284	-0.602730
H164	H	-0.199630	-0.525951	-0.269397
H165	H	0.133704	-0.192617	0.063937
