data_functionalizedCrystal
_audit_creation_method	'MofGen! by Chris Wilmer'
_symmetry_space_group_name_H-M	'P1'
_symmetry_Int_Tables_number	1
_symmetry_cell_setting	triclinic
loop_
_symmetry_equiv_pos_as_xyz
  x,y,z
_cell_length_a	13.897448
_cell_length_b	13.032831
_cell_length_c	13.033109
_cell_angle_alpha	103.334486
_cell_angle_beta	97.153140
_cell_angle_gamma	97.177601
loop_
_atom_site_label
_atom_site_type_symbol
_atom_site_fract_x
_atom_site_fract_y
_atom_site_fract_z
Zn1	Zn	-0.678106	-1.700113	-0.806401
Zn2	Zn	-0.178106	-1.200113	-0.306401
Zn3	Zn	-0.815943	-1.677445	-0.628782
Zn4	Zn	-0.315943	-1.177445	-0.128782
Zn5	Zn	-0.631189	-1.499937	-0.606295
Zn6	Zn	-0.131189	-0.999937	-0.106295
Zn7	Zn	-0.815858	-1.522460	-0.783826
Zn8	Zn	-0.315858	-1.022460	-0.283826
O9	O	-0.735274	-1.599989	-0.706326
O10	O	-0.235274	-1.099989	-0.206326
O11	O	-0.716060	-1.845742	-0.801698
O12	O	-0.216060	-1.345742	-0.301698
O13	O	-0.771836	-1.634986	-0.477168
O14	O	-0.271836	-1.134986	0.022832
O15	O	-0.502443	-1.526552	-0.632875
O16	O	-0.002443	-1.026552	-0.132875
O17	O	-0.817329	-1.829088	-0.671203
O18	O	-0.317329	-1.329088	-0.171203
O19	O	-0.536912	-1.673620	-0.779893
O20	O	-0.036912	-1.173620	-0.279893
O21	O	-0.636098	-1.504572	-0.460646
O22	O	-0.136098	-1.004572	0.039354
O23	O	-0.636016	-1.354289	-0.610986
O24	O	-0.136016	-0.854289	-0.110986
O25	O	-0.817184	-1.564938	-0.935453
O26	O	-0.317184	-1.064938	-0.435453
O27	O	-0.771691	-1.370836	-0.741418
O28	O	-0.271691	-0.870836	-0.241418
O29	O	-0.715978	-1.695459	-0.952038
O30	O	-0.215978	-1.195459	-0.452038
O31	O	-0.950902	-1.656825	-0.649313
O32	O	-0.450902	-1.156825	-0.149313
O33	O	-0.950840	-1.542958	-0.763223
O34	O	-0.450840	-1.042958	-0.263223
C35	C	-0.698754	-1.324023	-0.671313
C36	C	-0.198754	-0.824023	-0.171313
C37	C	-0.683157	-1.205967	-0.656359
C38	C	-0.183157	-0.705967	-0.156359
C39	C	-0.985874	-1.599907	-0.706286
C40	C	-0.485874	-1.099907	-0.206286
C41	C	-1.093100	-1.599974	-0.706316
C42	C	-0.593100	-1.099974	-0.206316
C43	C	-0.771805	-1.635240	-0.983361
C44	C	-0.271805	-1.135240	-0.483361
C45	C	-0.787373	-1.650262	-1.101417
C46	C	-0.287373	-1.150262	-0.601417
C47	C	-1.289418	-1.600094	-0.706397
C48	C	-0.789418	-1.100094	-0.206397
C49	C	-1.180173	-1.600025	-0.706355
C50	C	-0.680173	-1.100025	-0.206355
C51	C	-0.483702	-1.600102	-0.706394
C52	C	0.016298	-1.100102	-0.206394
C53	C	-0.376498	-1.600151	-0.706423
C54	C	0.123502	-1.100151	-0.206423
C55	C	-0.771938	-1.877032	-0.741477
C56	C	-0.271938	-1.377032	-0.241477
C57	C	-0.787562	-1.995092	-0.756456
C58	C	-0.287562	-1.495092	-0.256456
C59	C	-0.743414	-1.161536	-0.714130
C60	C	-0.243414	-0.661536	-0.214130
C61	C	-0.727296	-1.039519	-0.698676
C62	C	-0.227296	-0.539519	-0.198676
C63	C	-0.727152	-1.592433	-1.145876
C64	C	-0.227152	-1.092433	-0.645876
C65	C	-0.743241	-1.607957	-1.267892
C66	C	-0.243241	-1.107957	-0.767892
C67	C	-0.698824	-1.564936	-0.430376
C68	C	-0.198824	-1.064936	0.069624
C69	C	-0.683012	-1.550120	-0.312347
C70	C	-0.183012	-1.050120	0.187653
H71	H	-0.806933	-1.213830	-0.775036
H72	H	-0.306933	-0.713830	-0.275036
H73	H	-0.663689	-1.531426	-1.093605
H74	H	-0.163689	-1.031426	-0.593605
H75	H	-0.663766	-0.987229	-0.637775
H76	H	-0.163766	-0.487229	-0.137775
C77	C	-0.873113	-1.732676	-1.172015
C78	C	-0.373113	-1.232676	-0.672015
H79	H	-0.908812	-1.766940	-1.128299
H80	H	-0.408812	-1.266940	-0.628299
H81	H	-0.848007	-1.784437	-1.221170
H82	H	-0.348007	-1.284437	-0.721170
H83	H	-0.915430	-1.697487	-1.210117
H84	H	-0.415430	-1.197487	-0.710117
C85	C	-0.828983	-1.690375	-1.338492
C86	C	-0.328983	-1.190375	-0.838492
H87	H	-0.828544	-1.690003	-1.411240
H88	H	-0.328544	-1.190003	-0.911240
H89	H	-0.889359	-1.672516	-1.318377
H90	H	-0.389359	-1.172516	-0.818377
H91	H	-0.821930	-1.759460	-1.329425
H92	H	-0.321930	-1.259460	-0.829425
H93	H	-0.851083	-1.047382	-0.817368
H94	H	-0.351083	-0.547382	-0.317368
C95	C	-0.597266	-1.467705	-1.241751
C96	C	-0.097266	-0.967705	-0.741751
H97	H	-0.597695	-1.468085	-1.169003
H98	H	-0.097695	-0.968085	-0.669003
H99	H	-0.604307	-1.398623	-1.250819
H100	H	-0.104307	-0.898623	-0.750819
H101	H	-0.536890	-1.485579	-1.261867
H102	H	-0.036890	-0.985579	-0.761867
C103	C	-0.597340	-1.135332	-0.574089
C104	C	-0.097340	-0.635332	-0.074089
H105	H	-0.597767	-1.062589	-0.574492
H106	H	-0.097767	-0.562589	-0.074492
H107	H	-0.537000	-1.155470	-0.592040
H108	H	-0.037000	-0.655470	-0.092040
H109	H	-0.604321	-1.144352	-0.504969
H110	H	-0.104321	-0.644352	-0.004969
