data_functionalizedCrystal
_audit_creation_method	'MofGen! by Chris Wilmer'
_symmetry_space_group_name_H-M	'P1'
_symmetry_Int_Tables_number	1
_symmetry_cell_setting	triclinic
loop_
_symmetry_equiv_pos_as_xyz
  x,y,z
_cell_length_a	14.971487
_cell_length_b	9.198806
_cell_length_c	14.971486
_cell_angle_alpha	90.003393
_cell_angle_beta	96.385734
_cell_angle_gamma	90.002228
loop_
_atom_site_label
_atom_site_type_symbol
_atom_site_fract_x
_atom_site_fract_y
_atom_site_fract_z
O1	O	-1.186944	0.120685	0.116564
O2	O	-0.853610	0.454018	0.449897
O3	O	-0.520277	0.787352	0.783230
O4	O	-0.926544	0.120734	0.130522
O5	O	-0.593210	0.454067	0.463855
O6	O	-0.259877	0.787400	0.797188
O7	O	-1.063723	0.120698	-0.006657
O8	O	-0.730390	0.454031	0.326676
O9	O	-0.397057	0.787364	0.660009
O10	O	-1.049764	0.120721	0.253743
O11	O	-0.716431	0.454054	0.587076
O12	O	-0.383098	0.787388	0.920409
O13	O	-1.063712	-0.121087	-0.006658
O14	O	-0.730379	0.212246	0.326676
O15	O	-0.397046	0.545579	0.660009
O16	O	-0.926533	-0.121051	0.130521
O17	O	-0.593200	0.212282	0.463855
O18	O	-0.259866	0.545615	0.797188
O19	O	-1.186933	-0.121100	0.116563
O20	O	-0.853600	0.212233	0.449897
O21	O	-0.520266	0.545567	0.783230
Cu22	Cu	-1.056732	-0.143153	0.123542
Cu23	Cu	-0.723399	0.190181	0.456876
Cu24	Cu	-0.390065	0.523514	0.790209
Cu25	Cu	-1.056745	0.142786	0.123543
Cu26	Cu	-0.723411	0.476120	0.456876
Cu27	Cu	-0.390078	0.809453	0.790209
O28	O	-1.049754	-0.121064	0.253742
O29	O	-0.716420	0.212269	0.587076
O30	O	-0.383087	0.545603	0.920409
C31	C	-0.893214	-0.000153	0.129897
C32	C	-0.559880	0.333181	0.463231
C33	C	-0.226547	0.666514	0.796564
C34	C	-0.793917	-0.000134	0.128026
C35	C	-0.460583	0.333199	0.461360
C36	C	-0.127250	0.666532	0.794693
N37	N	-1.056729	-0.344267	0.123541
N38	N	-0.723396	-0.010933	0.456875
N39	N	-0.390063	0.322400	0.790208
C40	C	-0.736691	-0.000127	0.208615
C41	C	-0.403358	0.333206	0.541949
C42	C	-0.070025	0.666539	0.875282
C43	C	-0.643392	-0.000146	0.206852
C44	C	-0.310059	0.333187	0.540185
C45	C	0.023275	0.666521	0.873519
C46	C	-0.607320	-0.000161	0.124499
C47	C	-0.273986	0.333172	0.457832
C48	C	0.059347	0.666505	0.791165
C49	C	-0.664552	-0.000173	0.043903
C50	C	-0.331219	0.333161	0.377237
C51	C	0.002114	0.666494	0.710570
C52	C	-0.757850	-0.000164	0.045668
C53	C	-0.424516	0.333169	0.379001
C54	C	-0.091183	0.666502	0.712334
C55	C	-0.470090	-0.000186	0.040232
C56	C	-0.136756	0.333147	0.373565
C57	C	0.196577	0.666480	0.706899
C58	C	-0.376786	-0.000192	0.038467
C59	C	-0.043452	0.333142	0.371801
C60	C	0.289881	0.666475	0.705134
C61	C	-0.355632	-0.000168	0.201416
C62	C	-0.022298	0.333165	0.534750
C63	C	0.311035	0.666499	0.868083
C64	C	-0.448929	-0.000160	0.203181
C65	C	-0.115596	0.333174	0.536514
C66	C	0.217737	0.666507	0.869847
C67	C	-0.506156	-0.000168	0.122585
C68	C	-0.172822	0.333165	0.455918
C69	C	0.160511	0.666498	0.789251
C70	C	-1.114329	-0.416479	0.065692
C71	C	-0.780996	-0.083145	0.399025
C72	C	-0.447662	0.250188	0.732359
C73	C	-1.114343	-0.583891	0.065689
C74	C	-0.781010	-0.250558	0.399022
C75	C	-0.447676	0.082776	0.732355
C76	C	-0.220263	-0.000202	0.117187
C77	C	0.113070	0.333132	0.450520
C78	C	0.446404	0.666465	0.783854
C79	C	-0.319560	-0.000185	0.119056
C80	C	0.013773	0.333149	0.452390
C81	C	0.347106	0.666482	0.785723
C82	C	-1.063094	-0.000194	-0.039982
C83	C	-0.729760	0.333139	0.293351
C84	C	-0.396427	0.666472	0.626684
C85	C	-1.061223	-0.000193	-0.139279
C86	C	-0.727889	0.333141	0.194054
C87	C	-0.394556	0.666474	0.527387
N88	N	-1.056754	0.343900	0.123536
N89	N	-0.723421	0.677234	0.456870
N90	N	-0.390088	1.010567	0.790203
C91	C	-1.141812	-0.000209	-0.196504
C92	C	-0.808479	0.333125	0.136829
C93	C	-0.475145	0.666458	0.470162
C94	C	-1.140049	-0.000194	-0.289804
C95	C	-0.806716	0.333140	0.043529
C96	C	-0.473382	0.666473	0.376863
C97	C	-1.057696	-0.000173	-0.325876
C98	C	-0.724362	0.333160	0.007457
C99	C	-0.391029	0.666494	0.340790
C100	C	-0.977100	-0.000153	-0.268644
C101	C	-0.643767	0.333181	0.064689
C102	C	-0.310434	0.666514	0.398023
C103	C	-0.978864	-0.000157	-0.175346
C104	C	-0.645531	0.333176	0.157987
C105	C	-0.312198	0.666509	0.491320
C106	C	-0.973429	-0.000147	-0.463107
C107	C	-0.640096	0.333187	-0.129773
C108	C	-0.306763	0.666520	0.203560
C109	C	-0.971665	-0.000145	-0.556411
C110	C	-0.638331	0.333188	-0.223077
C111	C	-0.304998	0.666522	0.110256
C112	C	-1.134614	-0.000183	-0.577564
C113	C	-0.801280	0.333150	-0.244231
C114	C	-0.467947	0.666483	0.089103
C115	C	-1.136378	-0.000188	-0.484266
C116	C	-0.803044	0.333145	-0.150933
C117	C	-0.469711	0.666479	0.182400
C118	C	-1.055782	-0.000170	-0.427040
C119	C	-0.722449	0.333163	-0.093707
C120	C	-0.389115	0.666497	0.239626
C121	C	-1.050383	-0.000169	0.287067
C122	C	-0.717050	0.333164	0.620401
C123	C	-0.383717	0.666498	0.953734
C124	C	-1.052254	-0.000161	0.386364
C125	C	-0.718921	0.333172	0.719698
C126	C	-0.385587	0.666506	1.053031
H127	H	-0.766053	-0.000114	0.275677
H128	H	-0.432720	0.333219	0.609010
H129	H	-0.099387	0.666553	0.942344
H130	H	-0.478296	-0.000133	0.270240
H131	H	-0.144963	0.333200	0.603573
H132	H	0.188371	0.666533	0.936906
H133	H	-1.007423	-0.406382	0.173063
H134	H	-0.674090	-0.073048	0.506397
H135	H	-0.340756	0.260285	0.839730
H136	H	-0.596802	-0.000139	0.272476
H137	H	-0.263469	0.333195	0.605809
H138	H	0.069865	0.666528	0.939143
Cl139	Cl	-0.980617	-0.560239	0.200014
Cl140	Cl	-0.647283	-0.226905	0.533347
Cl141	Cl	-0.313950	0.106428	0.866681
Cl142	Cl	-0.873570	-0.000109	-0.313992
Cl143	Cl	-0.540236	0.333225	0.019341
Cl144	Cl	-0.206903	0.666558	0.352674
Cl145	Cl	-1.235934	-0.000198	-0.649505
Cl146	Cl	-0.902601	0.333136	-0.316171
Cl147	Cl	-0.569268	0.666469	0.017162
H148	H	-0.904606	-0.000151	-0.585777
H149	H	-0.571272	0.333182	-0.252444
H150	H	-0.237939	0.666515	0.080889
Cl151	Cl	-0.619204	-0.000201	-0.059627
Cl152	Cl	-0.285871	0.333133	0.273706
Cl153	Cl	0.047463	0.666466	0.607039
Cl154	Cl	-1.245348	-0.000250	-0.151166
Cl155	Cl	-0.912015	0.333084	0.182167
Cl156	Cl	-0.578681	0.666417	0.515500
H157	H	-0.347419	-0.000206	-0.028592
H158	H	-0.014086	0.333127	0.304741
H159	H	0.319248	0.666461	0.638075
H160	H	-1.205673	-0.000210	-0.336394
H161	H	-0.872340	0.333123	-0.003060
H162	H	-0.539006	0.666457	0.330273
Cl163	Cl	-1.239909	-0.000207	-0.438919
Cl164	Cl	-0.906576	0.333127	-0.105586
Cl165	Cl	-0.573242	0.666460	0.227747
Cl166	Cl	-0.872107	-0.000124	-0.391166
Cl167	Cl	-0.538774	0.333210	-0.057833
Cl168	Cl	-0.205440	0.666543	0.275500
H169	H	-0.913240	-0.000144	-0.128754
H170	H	-0.579907	0.333190	0.204580
H171	H	-0.246573	0.666523	0.537913
Cl172	Cl	-0.829791	-0.000180	-0.055649
Cl173	Cl	-0.496458	0.333154	0.277685
Cl174	Cl	-0.163124	0.666487	0.611018
Cl175	Cl	-0.542030	-0.000200	-0.061090
Cl176	Cl	-0.208697	0.333134	0.272243
Cl177	Cl	0.124637	0.666467	0.605576
H178	H	-0.309033	-0.000167	0.267040
H179	H	0.024300	0.333166	0.600374
H180	H	0.357633	0.666499	0.933707
H181	H	-1.163629	-0.354365	0.016163
H182	H	-0.830296	-0.021032	0.349496
H183	H	-0.496963	0.312301	0.682830
H184	H	-1.163660	-0.645990	0.016164
H185	H	-0.830326	-0.312657	0.349498
H186	H	-0.496993	0.020676	0.682831
