data_functionalizedCrystal
_audit_creation_method	'MofGen! by Chris Wilmer'
_symmetry_space_group_name_H-M	'P1'
_symmetry_Int_Tables_number	1
_symmetry_cell_setting	triclinic
loop_
_symmetry_equiv_pos_as_xyz
  x,y,z
_cell_length_a	10.654550
_cell_length_b	11.026607
_cell_length_c	9.130313
_cell_angle_alpha	89.997484
_cell_angle_beta	89.999724
_cell_angle_gamma	96.535474
loop_
_atom_site_label
_atom_site_type_symbol
_atom_site_fract_x
_atom_site_fract_y
_atom_site_fract_z
O1	O	1.704908	0.170768	-0.121683
O2	O	1.342961	0.187037	-0.121709
O3	O	1.493937	0.001997	-0.121693
O4	O	1.553932	0.355808	-0.121699
O5	O	1.493922	0.001991	0.121906
O6	O	1.342947	0.187032	0.121889
O7	O	1.704894	0.170762	0.121916
Cu8	Cu	1.523919	0.178896	0.144145
Cu9	Cu	1.523936	0.178903	-0.143939
O10	O	1.553918	0.355802	0.121899
C11	C	1.295897	0.185840	0.000087
C12	C	1.155678	0.182266	0.000076
C13	C	1.099841	0.291214	0.000079
C14	C	0.968090	0.287849	0.000104
C15	C	0.948022	0.066576	0.000119
C16	C	1.079771	0.069943	0.000104
C17	C	1.482861	-0.043310	0.000104
C18	C	1.449867	-0.178302	0.000096
C19	C	1.540970	-0.251341	0.000101
C20	C	1.506871	-0.390862	0.000093
C21	C	1.751958	0.171959	0.000116
C22	C	1.892177	0.175533	0.000117
C23	C	1.564993	0.401109	0.000099
C24	C	1.597988	0.536101	0.000097
N25	N	1.523916	0.178891	0.346768
N26	N	1.523947	0.178898	-0.346561
C27	C	1.590804	0.096990	0.423427
C28	C	1.590816	0.096990	0.576764
C29	C	1.457050	0.260803	0.576769
C30	C	1.457031	0.260796	0.423435
H31	H	0.886203	-0.024873	0.000151
N32	N	0.907835	0.405340	0.000110
H33	H	0.853633	0.408855	0.090427
H34	H	0.975967	0.476954	0.000039
H35	H	1.644212	-0.210580	0.000117
H36	H	1.701236	-0.423146	-0.000005
N37	N	1.313107	-0.232276	0.000072
H38	H	1.308133	-0.324295	0.000067
H39	H	1.269851	-0.204266	0.090375
H40	H	1.402557	0.327490	0.361015
H41	H	1.403623	-0.431617	0.000076
N42	N	1.662919	0.008623	0.340756
H43	H	1.602652	-0.045644	0.277161
H44	H	1.729134	0.055649	0.277200
H45	H	1.645281	0.030298	0.639175
N46	N	1.384914	0.349141	0.659460
H47	H	1.395076	0.336721	0.768229
H48	H	1.418936	0.435524	0.632642
H49	H	1.161641	0.382675	0.000067
N50	N	1.140005	-0.047571	0.000119
H51	H	1.071929	-0.119238	0.000131
H52	H	1.194230	-0.050997	-0.090188
