data_functionalizedCrystal
_audit_creation_method	'MofGen! by Chris Wilmer'
_symmetry_space_group_name_H-M	'P1'
_symmetry_Int_Tables_number	1
_symmetry_cell_setting	triclinic
loop_
_symmetry_equiv_pos_as_xyz
  x,y,z
_cell_length_a	15.995300
_cell_length_b	17.038274
_cell_length_c	14.472310
_cell_angle_alpha	90.008499
_cell_angle_beta	89.985388
_cell_angle_gamma	92.708204
loop_
_atom_site_label
_atom_site_type_symbol
_atom_site_fract_x
_atom_site_fract_y
_atom_site_fract_z
O1	O	1.118188	-0.100585	-0.076892
O2	O	1.618188	0.399415	0.423108
O3	O	0.875296	-0.113071	-0.076889
O4	O	1.375296	0.386929	0.423111
O5	O	0.995298	0.006987	-0.076865
O6	O	1.495298	0.506987	0.423135
O7	O	0.998186	-0.220644	-0.076916
O8	O	1.498186	0.279356	0.423084
O9	O	0.995266	0.006980	0.076817
O10	O	1.495266	0.506980	0.576817
O11	O	0.875264	-0.113078	0.076793
O12	O	1.375264	0.386922	0.576793
O13	O	1.118155	-0.100592	0.076790
O14	O	1.618155	0.399408	0.576790
Cu15	Cu	0.996707	-0.106836	0.090824
Cu16	Cu	1.496707	0.393164	0.590824
Cu17	Cu	0.996745	-0.106828	-0.090923
Cu18	Cu	1.496745	0.393172	0.409077
O19	O	0.998154	-0.220651	0.076766
O20	O	1.498154	0.279349	0.576766
C21	C	0.844048	-0.112565	-0.000047
C22	C	1.344048	0.387435	0.499953
C23	C	0.750987	-0.111039	-0.000044
C24	C	1.250987	0.388961	0.499956
C25	C	0.580603	-0.108219	-0.000051
C26	C	1.080603	0.391781	0.499949
C27	C	0.539227	-0.193703	-0.000068
C28	C	1.039227	0.306297	0.499932
C29	C	0.442428	-0.192144	-0.000419
C30	C	0.942428	0.307856	0.499581
C31	C	0.412849	-0.105444	-0.000056
C32	C	0.912849	0.394556	0.499944
C33	C	0.450979	-0.063029	-0.087634
C34	C	0.950979	0.436971	0.412366
C35	C	0.547766	-0.065192	-0.087705
C36	C	1.047766	0.434808	0.412295
C37	C	0.547918	-0.063934	0.087066
C38	C	1.047918	0.436066	0.587066
C39	C	0.450974	-0.063942	0.088215
C40	C	0.950974	0.436058	0.588215
C41	C	0.318041	-0.103871	-0.000062
C42	C	0.818041	0.396129	0.499938
C43	C	0.675411	-0.109789	-0.000051
C44	C	1.175411	0.390211	0.499949
C45	C	0.992656	0.036112	-0.000019
C46	C	1.492656	0.536112	0.499981
C47	C	0.984822	0.122906	-0.000005
C48	C	1.484822	0.622906	0.499995
C49	C	1.056751	0.173014	0.000002
C50	C	1.556751	0.673014	0.500002
C51	C	1.049384	0.254565	0.000006
C52	C	1.549384	0.754565	0.500006
C53	C	0.970088	0.286006	0.000010
C54	C	1.470088	0.786006	0.500010
C55	C	0.898153	0.235891	-0.000000
C56	C	1.398153	0.735891	0.500000
C57	C	0.905520	0.154342	-0.000011
C58	C	1.405520	0.654342	0.499989
C59	C	0.944061	0.531766	0.000037
C60	C	1.444061	1.031766	0.500037
C61	C	0.936699	0.613322	0.000051
C62	C	1.436699	1.113322	0.500051
C63	C	1.087931	0.631991	0.000056
C64	C	1.587931	1.131991	0.500056
C65	C	1.095291	0.550439	0.000050
C66	C	1.595291	1.050439	0.500050
C67	C	1.023357	0.500331	0.000035
C68	C	1.523357	1.000331	0.500035
C69	C	0.962556	0.369364	0.000018
C70	C	1.462556	0.869364	0.500018
C71	C	1.030889	0.416974	0.000021
C72	C	1.530889	0.916974	0.500021
C73	C	1.149404	-0.101098	-0.000054
C74	C	1.649404	0.398902	0.499946
C75	C	1.242465	-0.102625	-0.000063
C76	C	1.742465	0.397375	0.499937
C77	C	1.000795	0.750224	-0.000041
C78	C	1.500795	1.250224	0.499959
C79	C	1.008628	0.663431	0.000059
C80	C	1.508628	1.163431	0.500059
N81	N	0.996686	-0.106841	0.218655
N82	N	1.496686	0.393159	0.718655
N83	N	0.996772	-0.106816	-0.218754
N84	N	1.496772	0.393184	0.281246
C85	C	0.996744	-0.106824	0.592746
C86	C	1.496744	0.393176	1.092746
C87	C	0.932287	-0.170850	0.553567
C88	C	1.432287	0.329150	1.053567
C89	C	0.932463	-0.171083	0.446479
C90	C	1.432463	0.328917	0.946479
C91	C	0.996714	-0.106833	0.407155
C92	C	1.496714	0.393167	0.907155
C93	C	1.085349	-0.124636	0.445986
C94	C	1.585349	0.375364	0.945986
C95	C	1.084994	-0.125091	0.553107
C96	C	1.584994	0.374909	1.053107
C97	C	0.973332	-0.024806	0.553294
C98	C	1.473332	0.475194	1.053294
C99	C	0.971367	-0.025353	0.446167
C100	C	1.471367	0.474647	0.946167
C101	C	0.996703	-0.106836	0.302267
C102	C	1.496703	0.393164	0.802267
C103	C	0.996761	-0.106823	0.697634
C104	C	1.496761	0.393177	1.197634
H105	H	0.432342	0.000676	-0.090630
H106	H	0.932342	0.500676	0.409370
H107	H	1.146496	0.672797	0.000066
H108	H	1.646496	1.172797	0.500066
H109	H	0.909788	-0.007683	0.580367
H110	H	1.409788	0.492317	1.080367
Br111	Br	1.117901	-0.224786	0.594717
Br112	Br	1.617901	0.275214	1.094717
Br113	Br	0.398916	-0.247700	0.104187
Br114	Br	0.898916	0.252300	0.604187
H115	H	0.431132	-0.000732	0.093777
H116	H	0.931132	0.499268	0.593777
H117	H	0.416957	-0.225323	-0.063578
H118	H	0.916957	0.274677	0.436422
Br119	Br	0.575945	-0.250109	-0.104608
Br120	Br	1.075945	0.249891	0.395392
Br121	Br	0.594111	0.039429	-0.093912
Br122	Br	1.094111	0.539429	0.406088
Br123	Br	1.147008	0.322568	0.000016
Br124	Br	1.647008	0.822568	0.500016
Br125	Br	1.164373	0.130353	0.000010
Br126	Br	1.664373	0.630353	0.500010
Br127	Br	0.407239	-0.111554	-0.196699
Br128	Br	0.907239	0.388446	0.303301
Br129	Br	0.829075	0.655991	0.000066
Br130	Br	1.329075	1.155991	0.500066
H131	H	0.575209	-0.000908	0.087923
H132	H	1.075209	0.499092	0.587923
H133	H	1.014818	0.024523	0.419403
H134	H	1.514818	0.524523	0.919403
H135	H	1.134765	-0.080296	0.579022
H136	H	1.634765	0.419704	1.079022
H137	H	0.570409	-0.092081	0.153467
H138	H	1.070409	0.407919	0.653467
Br139	Br	0.409062	-0.115565	0.196209
Br140	Br	0.909062	0.384435	0.696209
H141	H	0.906137	-0.011842	0.420789
H142	H	1.406137	0.488158	0.920789
H143	H	1.020269	0.022840	0.578630
H144	H	1.520269	0.522840	1.078630
Br145	Br	1.167610	-0.048977	0.403537
Br146	Br	1.667610	0.451023	0.903537
Br147	Br	0.581957	-0.116129	-0.197256
Br148	Br	1.081957	0.383871	0.302744
H149	H	1.159863	0.524846	0.000048
H150	H	1.659863	1.024846	0.500048
Br151	Br	0.957922	-0.271730	0.598373
Br152	Br	1.457922	0.228270	1.098373
H153	H	0.885486	0.490978	0.000025
H154	H	1.385486	0.990978	0.500025
Br155	Br	0.574701	-0.251206	0.104138
Br156	Br	1.074701	0.248794	0.604138
H157	H	1.105414	-0.183769	0.419135
H158	H	1.605414	0.316231	0.919135
H159	H	0.866766	-0.160478	0.420227
H160	H	1.366766	0.339522	0.920227
H161	H	0.833588	0.261497	-0.000003
H162	H	1.333588	0.761497	0.499997
Br163	Br	0.807898	0.086335	-0.000029
Br164	Br	1.307898	0.586335	0.499971
Br165	Br	0.958351	-0.272540	0.403722
Br166	Br	1.458351	0.227460	0.903722
Br167	Br	0.854942	0.412041	0.000014
Br168	Br	1.354942	0.912041	0.500014
H169	H	1.095452	0.391372	-0.000002
H170	H	1.595452	0.891372	0.499998
H171	H	0.866393	-0.160420	0.579359
H172	H	1.366393	0.339580	1.079359
