data_functionalizedCrystal
_audit_creation_method	'MofGen! by Chris Wilmer'
_symmetry_space_group_name_H-M	'P1'
_symmetry_Int_Tables_number	1
_symmetry_cell_setting	triclinic
loop_
_symmetry_equiv_pos_as_xyz
  x,y,z
_cell_length_a	14.519731
_cell_length_b	14.519709
_cell_length_c	12.996460
_cell_angle_alpha	89.998766
_cell_angle_beta	89.993690
_cell_angle_gamma	83.684499
loop_
_atom_site_label
_atom_site_type_symbol
_atom_site_fract_x
_atom_site_fract_y
_atom_site_fract_z
O1	O	1.223858	0.120978	-0.085571
O2	O	1.557192	0.454312	0.247762
O3	O	1.890525	0.787645	0.581095
O4	O	0.955384	0.135195	-0.085573
O5	O	1.288717	0.468528	0.247760
O6	O	1.622051	0.801861	0.581094
O7	O	1.096739	-0.006151	-0.085563
O8	O	1.430073	0.327182	0.247770
O9	O	1.763406	0.660515	0.581104
O10	O	1.082503	0.262324	-0.085582
O11	O	1.415836	0.595658	0.247752
O12	O	1.749170	0.928991	0.581085
O13	O	1.096721	-0.006143	0.085571
O14	O	1.430055	0.327190	0.418904
O15	O	1.763388	0.660523	0.752238
O16	O	0.955366	0.135203	0.085561
O17	O	1.288699	0.468536	0.418894
O18	O	1.622033	0.801869	0.752227
O19	O	1.223840	0.120987	0.085563
O20	O	1.557174	0.454320	0.418896
O21	O	1.890507	0.787653	0.752229
Cu22	Cu	1.089601	0.128095	0.101187
Cu23	Cu	1.422935	0.461429	0.434521
Cu24	Cu	1.756268	0.794762	0.767854
Cu25	Cu	1.089623	0.128086	-0.101198
Cu26	Cu	1.422956	0.461419	0.232135
Cu27	Cu	1.756290	0.794752	0.565469
O28	O	1.082485	0.262333	0.085552
O29	O	1.415818	0.595666	0.418886
O30	O	1.749152	0.928999	0.752219
C31	C	0.921016	0.134532	-0.000006
C32	C	1.254349	0.467866	0.333327
C33	C	1.587682	0.801199	0.666660
C34	C	0.818635	0.132536	-0.000007
C35	C	1.151969	0.465870	0.333327
C36	C	1.485302	0.799203	0.666660
C37	C	0.735491	0.130915	-0.000011
C38	C	1.068825	0.464248	0.333322
C39	C	1.402158	0.797581	0.666656
C40	C	0.631182	0.128888	-0.000011
C41	C	0.964516	0.462221	0.333322
C42	C	1.297849	0.795555	0.666656
C43	C	0.548043	0.127280	-0.000011
C44	C	0.881377	0.460613	0.333322
C45	C	1.214710	0.793946	0.666656
C46	C	0.443728	0.125253	-0.000013
C47	C	0.777061	0.458586	0.333320
C48	C	1.110395	0.791920	0.666654
C49	C	1.096067	-0.040507	0.000004
C50	C	1.429400	0.292826	0.333337
C51	C	1.762734	0.626160	0.666671
C52	C	1.094079	-0.142889	0.000005
C53	C	1.427412	0.190445	0.333338
C54	C	1.760745	0.523778	0.666671
C55	C	1.086759	-0.517785	-0.000022
C56	C	1.420093	-0.184452	0.333311
C57	C	1.753426	0.148882	0.666645
C58	C	1.088792	-0.413477	-0.000014
C59	C	1.422125	-0.080143	0.333319
C60	C	1.755459	0.253190	0.666652
C61	C	1.090419	-0.330340	-0.000008
C62	C	1.423752	0.002993	0.333326
C63	C	1.757085	0.336327	0.666659
C64	C	1.092452	-0.226025	-0.000002
C65	C	1.425785	0.107308	0.333331
C66	C	1.759118	0.440641	0.666665
C67	C	1.258209	0.121649	-0.000007
C68	C	1.591542	0.454982	0.333327
C69	C	1.924875	0.788315	0.666660
C70	C	1.360589	0.123645	-0.000013
C71	C	1.693922	0.456978	0.333320
C72	C	2.027256	0.790311	0.666654
C73	C	1.083157	0.296688	-0.000017
C74	C	1.416491	0.630022	0.333316
C75	C	1.749824	0.963355	0.666650
C76	C	1.085146	0.399070	-0.000024
C77	C	1.418479	0.732403	0.333309
C78	C	1.751812	1.065736	0.666642
N79	N	1.089593	0.128102	0.243535
N80	N	1.422926	0.461435	0.576868
N81	N	1.756260	0.794768	0.910201
N82	N	1.089639	0.128072	-0.243545
N83	N	1.422972	0.461406	0.089788
N84	N	1.756305	0.794739	0.423121
C85	C	1.089597	0.128104	0.336640
C86	C	1.422931	0.461437	0.669974
C87	C	1.756264	0.794771	1.003307
C88	C	1.089606	0.128098	0.453446
C89	C	1.422939	0.461431	0.786779
C90	C	1.756272	0.794765	1.120112
C91	C	1.089617	0.128088	0.546544
C92	C	1.422951	0.461421	0.879877
C93	C	1.756284	0.794754	1.213211
C94	C	1.089627	0.128082	0.663356
C95	C	1.422960	0.461416	0.996690
C96	C	1.756294	0.794749	1.330023
