data_functionalizedCrystal
_audit_creation_method	'MofGen! by Chris Wilmer'
_symmetry_space_group_name_H-M	'P1'
_symmetry_Int_Tables_number	1
_symmetry_cell_setting	triclinic
loop_
_symmetry_equiv_pos_as_xyz
  x,y,z
_cell_length_a	12.837943
_cell_length_b	10.540539
_cell_length_c	11.892095
_cell_angle_alpha	93.930600
_cell_angle_beta	85.689438
_cell_angle_gamma	89.677216
loop_
_atom_site_label
_atom_site_type_symbol
_atom_site_fract_x
_atom_site_fract_y
_atom_site_fract_z
O1	O	1.384471	0.322967	-0.093973
O2	O	1.082545	0.306651	-0.093980
O3	O	1.240396	0.130859	-0.093975
O4	O	1.226620	0.498759	-0.093978
O5	O	1.227234	0.145491	0.094032
O6	O	1.069383	0.321283	0.094027
O7	O	1.371309	0.337599	0.094034
Zn8	Zn	1.218257	0.331764	0.123881
Zn9	Zn	1.235597	0.312486	-0.123827
O10	O	1.213458	0.513391	0.094029
C11	C	1.037303	0.308455	0.000023
C12	C	0.922104	0.292017	0.000020
C13	C	0.682608	0.489636	0.000034
C14	C	0.574368	0.474197	0.000032
C15	C	0.597382	0.245700	0.000022
C16	C	0.705621	0.261139	0.000024
C17	C	0.748231	0.383111	0.000028
C18	C	0.856473	0.398549	0.000022
C19	C	0.879484	0.170054	0.000020
C20	C	0.771244	0.154614	0.000018
C21	C	1.232782	0.090759	0.000027
C22	C	1.229692	-0.050529	0.000020
C23	C	1.111279	-0.247002	-0.000404
C24	C	1.114382	-0.100007	0.000019
C25	C	1.277668	-0.097735	0.107383
C26	C	1.273726	-0.244704	0.107473
C27	C	1.291038	-0.261604	-0.106326
C28	C	1.292200	-0.114616	-0.107745
C29	C	1.416551	0.335795	0.000029
C30	C	1.531751	0.352232	0.000025
C31	C	1.221072	0.553491	0.000025
C32	C	1.224163	0.694779	0.000024
N33	N	1.206429	0.344921	0.292934
N34	N	1.247433	0.299320	-0.292880
C35	C	1.329731	0.207693	0.529586
C36	C	1.321471	0.216900	0.647928
C37	C	1.181647	0.372535	0.647961
C38	C	1.189906	0.363328	0.529620
C39	C	1.263952	0.280906	0.470436
C40	C	1.272215	0.271706	0.352093
C41	C	1.132387	0.427334	0.352128
C42	C	1.124127	0.436540	0.470470
H43	H	0.891163	0.497865	0.000027
C44	C	1.391685	-0.054560	0.112789
H45	H	1.419173	-0.084126	0.178331
H46	H	1.394113	0.035663	0.116005
H47	H	1.432119	-0.088609	0.047364
H48	H	1.390028	0.140591	0.481398
H49	H	1.356314	-0.283183	0.112346
H50	H	0.717301	0.588951	0.000036
H51	H	1.374376	-0.299736	-0.107046
H52	H	0.520940	0.560941	0.000040
C53	C	1.042654	0.527161	0.535572
H54	H	1.004649	0.569428	0.483392
H55	H	1.077114	0.588187	0.581751
H56	H	0.995911	0.479752	0.581724
C57	C	1.060039	0.507886	0.287061
H58	H	1.075561	0.490602	0.208104
H59	H	1.070592	0.595554	0.306466
H60	H	0.989330	0.487184	0.306461
C61	C	1.393830	0.136370	0.712989
H62	H	1.439114	0.085973	0.660789
H63	H	1.352896	0.082537	0.759164
H64	H	1.434141	0.190925	0.759142
H65	H	1.332509	0.204598	0.303907
C66	C	0.550497	0.111547	0.000029
H67	H	0.476635	0.117614	0.000028
H68	H	0.568378	0.072236	0.065590
H69	H	0.577544	0.062030	-0.065543
C70	C	0.724368	0.020456	0.000008
H71	H	0.650506	0.026515	0.000000
H72	H	0.742248	-0.018865	0.065563
H73	H	0.751424	-0.029045	-0.065569
H74	H	1.060554	-0.276235	0.076154
H75	H	1.121354	0.439632	0.696164
H76	H	0.932927	0.083313	0.000008
H77	H	1.076106	-0.068190	-0.076943
H78	H	1.071118	-0.286599	-0.077396
H79	H	1.065016	-0.057082	0.077107
H80	H	1.227097	-0.271164	0.187727
H81	H	1.233527	-0.053152	0.187277
C82	C	1.248325	-0.318316	-0.216259
H83	H	1.289782	-0.290825	-0.279402
H84	H	1.178150	-0.290610	-0.219560
H85	H	1.250704	-0.408511	-0.217638
C86	C	1.244956	-0.073671	-0.215050
H87	H	1.283106	-0.112749	-0.279952
H88	H	1.248550	0.016148	-0.217021
H89	H	1.174065	-0.099167	-0.214381
C90	C	1.406385	-0.070111	-0.116503
H91	H	1.417483	-0.011609	-0.054269
H92	H	1.420302	-0.029854	-0.185025
H93	H	1.451822	-0.141423	-0.115589
