data_functionalizedCrystal
_audit_creation_method	'MofGen! by Chris Wilmer'
_symmetry_space_group_name_H-M	'P1'
_symmetry_Int_Tables_number	1
_symmetry_cell_setting	triclinic
loop_
_symmetry_equiv_pos_as_xyz
  x,y,z
_cell_length_a	16.120490
_cell_length_b	13.897447
_cell_length_c	13.897441
_cell_angle_alpha	89.970673
_cell_angle_beta	87.082329
_cell_angle_gamma	87.112011
loop_
_atom_site_label
_atom_site_type_symbol
_atom_site_fract_x
_atom_site_fract_y
_atom_site_fract_z
Zn1	Zn	1.274600	-0.458940	-0.620074
Zn2	Zn	1.524600	-0.208940	-0.370074
Zn3	Zn	1.774600	0.041060	-0.120074
Zn4	Zn	2.024600	0.291060	0.129926
Zn5	Zn	1.274503	-0.620256	-0.458773
Zn6	Zn	1.524503	-0.370256	-0.208773
Zn7	Zn	1.774503	-0.120256	0.041227
Zn8	Zn	2.024503	0.129744	0.291227
Zn9	Zn	1.135176	-0.450783	-0.450623
Zn10	Zn	1.385176	-0.200783	-0.200623
Zn11	Zn	1.635176	0.049217	0.049377
Zn12	Zn	1.885176	0.299217	0.299377
Zn13	Zn	1.135156	-0.611994	-0.611861
Zn14	Zn	1.385156	-0.361994	-0.361861
Zn15	Zn	1.635156	-0.111994	-0.111861
Zn16	Zn	1.885156	0.138006	0.138139
O17	O	1.204859	-0.535493	-0.535333
O18	O	1.454859	-0.285493	-0.285333
O19	O	1.704859	-0.035493	-0.035333
O20	O	1.954859	0.214507	0.214667
O21	O	1.391254	-0.487210	-0.605525
O22	O	1.641254	-0.237210	-0.355525
O23	O	1.891254	0.012790	-0.105525
O24	O	2.141254	0.262790	0.144475
O25	O	1.255990	-0.597819	-0.322709
O26	O	1.505990	-0.347819	-0.072709
O27	O	1.755990	-0.097819	0.177291
O28	O	2.005990	0.152181	0.427291
O29	O	1.153719	-0.316886	-0.473127
O30	O	1.403719	-0.066886	-0.223127
O31	O	1.653719	0.183114	0.026873
O32	O	1.903719	0.433114	0.276873
O33	O	1.391183	-0.605728	-0.487018
O34	O	1.641183	-0.355728	-0.237018
O35	O	1.891183	-0.105728	0.012982
O36	O	2.141183	0.144272	0.262982
O37	O	1.256153	-0.322879	-0.597622
O38	O	1.506153	-0.072879	-0.347622
O39	O	1.756153	0.177121	-0.097622
O40	O	2.006153	0.427121	0.152378
O41	O	1.153626	-0.473308	-0.316721
O42	O	1.403626	-0.223308	-0.066721
O43	O	1.653626	0.026692	0.183279
O44	O	1.903626	0.276692	0.433279
O45	O	1.018506	-0.465297	-0.465163
O46	O	1.268506	-0.215297	-0.215163
O47	O	1.518506	0.034703	0.034837
O48	O	1.768506	0.284703	0.284837
O49	O	1.153685	-0.591647	-0.747934
O50	O	1.403685	-0.341647	-0.497934
O51	O	1.653685	-0.091647	-0.247934
O52	O	1.903685	0.158353	0.002066
O53	O	1.018491	-0.583738	-0.583624
O54	O	1.268491	-0.333738	-0.333624
O55	O	1.518491	-0.083738	-0.083624
O56	O	1.768491	0.166262	0.166376
O57	O	1.256134	-0.479199	-0.753968
O58	O	1.506134	-0.229199	-0.503968
O59	O	1.756134	0.020801	-0.253968
O60	O	2.006134	0.270801	-0.003968
O61	O	1.255970	-0.754139	-0.479055
O62	O	1.505970	-0.504139	-0.229055
O63	O	1.755970	-0.254139	0.020945
O64	O	2.005970	-0.004139	0.270945
O65	O	1.153592	-0.748069	-0.591527
O66	O	1.403592	-0.498069	-0.341527
O67	O	1.653592	-0.248069	-0.091527
O68	O	1.903592	0.001931	0.158473
C69	C	0.988248	-0.522737	-0.522619
C70	C	1.238248	-0.272737	-0.272619
C71	C	1.488248	-0.022737	-0.022619
C72	C	1.738248	0.227263	0.227381
C73	C	0.895582	-0.517302	-0.517202
C74	C	1.145582	-0.267302	-0.267202
C75	C	1.395582	-0.017302	-0.017202
C76	C	1.645582	0.232698	0.232798
C77	C	1.204791	-0.786104	-0.535307
C78	C	1.454791	-0.536104	-0.285307
C79	C	1.704791	-0.286104	-0.035307
C80	C	1.954791	-0.036104	0.214693
C81	C	1.204838	-0.893320	-0.535332
C82	C	1.454838	-0.643320	-0.285332
C83	C	1.704838	-0.393320	-0.035332
C84	C	1.954838	-0.143320	0.214668
C85	C	1.204878	-0.980393	-0.535356
C86	C	1.454878	-0.730393	-0.285356
C87	C	1.704878	-0.480393	-0.035356
C88	C	1.954878	-0.230393	0.214644
C89	C	1.204937	-1.089628	-0.535385
C90	C	1.454937	-0.839628	-0.285385
C91	C	1.704937	-0.589628	-0.035385
C92	C	1.954937	-0.339628	0.214615
C93	C	0.684645	-0.563674	-0.563430
C94	C	0.934645	-0.313674	-0.313430
C95	C	1.184645	-0.063674	-0.063430
C96	C	1.434645	0.186326	0.186570
C97	C	0.725924	-0.507390	-0.507312
C98	C	0.975924	-0.257390	-0.257312
C99	C	1.225924	-0.007390	-0.007312
C100	C	1.475924	0.242610	0.242688
C101	C	0.820330	-0.512907	-0.512817
C102	C	1.070330	-0.262907	-0.262817
C103	C	1.320330	-0.012907	-0.012817
C104	C	1.570330	0.237093	0.237183
C105	C	0.590230	-0.558158	-0.557926
C106	C	0.840230	-0.308158	-0.307926
C107	C	1.090230	-0.058158	-0.057926
C108	C	1.340230	0.191842	0.192074
C109	C	1.422315	-0.548301	-0.548097
C110	C	1.672315	-0.298301	-0.298097
C111	C	1.922315	-0.048301	-0.048097
C112	C	2.172315	0.201699	0.201903
C113	C	1.514981	-0.553758	-0.553537
C114	C	1.764981	-0.303758	-0.303537
C115	C	2.014981	-0.053758	-0.053537
C116	C	2.264981	0.196242	0.196463
C117	C	1.204918	-0.535412	-0.786929
C118	C	1.454918	-0.285412	-0.536929
C119	C	1.704918	-0.035412	-0.286929
C120	C	1.954918	0.214588	-0.036929
C121	C	1.204943	-0.535377	-0.894145
C122	C	1.454943	-0.285377	-0.644145
C123	C	1.704943	-0.035377	-0.394145
C124	C	1.954943	0.214623	-0.144145
C125	C	1.204949	-0.283906	-0.535382
C126	C	1.454949	-0.033906	-0.285382
C127	C	1.704949	0.216094	-0.035382
C128	C	1.954949	0.466094	0.214618
C129	C	1.204988	-0.176694	-0.535403
C130	C	1.454988	0.073306	-0.285403
C131	C	1.704988	0.323306	-0.035403
C132	C	1.954988	0.573306	0.214597
C133	C	1.204966	-0.535313	-1.090441
C134	C	1.454966	-0.285313	-0.840441
C135	C	1.704966	-0.035313	-0.590441
C136	C	1.954966	0.214687	-0.340441
C137	C	1.204950	-0.535351	-0.981208
C138	C	1.454950	-0.285351	-0.731208
C139	C	1.704950	-0.035351	-0.481208
C140	C	1.954950	0.214649	-0.231208
C141	C	1.204848	-0.535508	-0.284718
C142	C	1.454848	-0.285508	-0.034718
C143	C	1.704848	-0.035508	0.215282
C144	C	1.954848	0.214492	0.465282
C145	C	1.204984	-0.535281	-0.177512
C146	C	1.454984	-0.285281	0.072488
C147	C	1.704984	-0.035281	0.322488
C148	C	1.954984	0.214719	0.572488
H149	H	0.690362	-0.455061	-0.455135
H150	H	0.940362	-0.205061	-0.205135
H151	H	1.190362	0.044939	0.044865
H152	H	1.440362	0.294939	0.294865
H153	H	0.720204	-0.616000	-0.615602
H154	H	0.970204	-0.366000	-0.365602
H155	H	1.220204	-0.116000	-0.115602
H156	H	1.470204	0.134000	0.134398
