data_functionalizedCrystal
_audit_creation_method	'MofGen! by Chris Wilmer'
_symmetry_space_group_name_H-M	'P1'
_symmetry_Int_Tables_number	1
_symmetry_cell_setting	triclinic
loop_
_symmetry_equiv_pos_as_xyz
  x,y,z
_cell_length_a	9.065218
_cell_length_b	12.811415
_cell_length_c	8.140239
_cell_angle_alpha	84.565620
_cell_angle_beta	89.997198
_cell_angle_gamma	84.527407
loop_
_atom_site_label
_atom_site_type_symbol
_atom_site_fract_x
_atom_site_fract_y
_atom_site_fract_z
O1	O	1.958452	0.153908	-0.159543
O2	O	1.529007	0.166532	-0.161426
O3	O	1.754534	0.007530	-0.137730
O4	O	1.732926	0.312910	-0.183240
O5	O	1.754521	0.007528	0.135498
O6	O	1.528995	0.166530	0.111801
O7	O	1.958439	0.153906	0.113684
Zn8	Zn	1.743715	0.160218	0.156123
Zn9	Zn	1.743732	0.160220	-0.203865
O10	O	1.732913	0.312908	0.089988
C11	C	1.474030	0.165318	-0.024632
C12	C	1.310233	0.161690	-0.024092
C13	C	1.753316	-0.031587	0.004710
C14	C	1.749690	-0.148139	0.022069
C15	C	1.742864	-0.367140	-0.243219
C16	C	1.739457	-0.476652	-0.226916
C17	C	1.739459	-0.476675	0.070974
C18	C	1.742866	-0.367163	0.054672
C19	C	1.744570	-0.312400	-0.102430
C20	C	1.747988	-0.202887	-0.118731
C21	C	1.747979	-0.202911	0.179158
C22	C	1.744572	-0.312423	0.195461
C23	C	2.013417	0.155120	-0.023114
C24	C	2.177214	0.158748	-0.023664
C25	C	1.734131	0.352024	-0.052455
C26	C	1.737756	0.468577	-0.069825
N27	N	1.743715	0.160215	0.401806
N28	N	1.743744	0.160214	-0.449547
H29	H	1.749380	-0.158301	-0.246651
H30	H	1.744265	-0.322552	-0.371137
Cl31	Cl	1.737307	-0.545465	-0.403916
H32	H	1.738059	-0.521281	0.198879
Cl33	Cl	1.750140	-0.134090	0.356161
Cl34	Cl	1.742417	-0.381277	0.392948
