data_functionalizedCrystal
_audit_creation_method	'MofGen! by Chris Wilmer'
_symmetry_space_group_name_H-M	'P1'
_symmetry_Int_Tables_number	1
_symmetry_cell_setting	triclinic
loop_
_symmetry_equiv_pos_as_xyz
  x,y,z
_cell_length_a	19.077068
_cell_length_b	19.077241
_cell_length_c	19.076919
_cell_angle_alpha	90.113904
_cell_angle_beta	94.470751
_cell_angle_gamma	85.292229
loop_
_atom_site_label
_atom_site_type_symbol
_atom_site_fract_x
_atom_site_fract_y
_atom_site_fract_z
Zn1	Zn	-0.256332	-1.047582	-0.450414
Zn2	Zn	-0.369488	-1.047495	-0.337255
Zn3	Zn	-0.255959	-0.934813	-0.328177
Zn4	Zn	-0.378906	-0.924921	-0.450353
O5	O	-0.315171	-0.988703	-0.391550
O6	O	-0.267556	-1.146062	-0.439228
O7	O	-0.350331	-1.036651	-0.237563
O8	O	-0.157199	-0.953949	-0.340619
O9	O	-0.350692	-1.145999	-0.356091
O10	O	-0.157472	-1.036800	-0.430426
O11	O	-0.266922	-0.953864	-0.230893
O12	O	-0.276054	-0.835009	-0.340559
O13	O	-0.366744	-0.937089	-0.548849
O14	O	-0.366383	-0.827742	-0.430321
O15	O	-0.276689	-1.027207	-0.548894
O16	O	-0.469548	-1.027059	-0.356031
O17	O	-0.476467	-0.937004	-0.439123
C18	C	-0.322201	-0.805838	-0.384449
C19	C	-0.325226	-0.727606	-0.381428
C20	C	-0.283437	-0.690880	-0.423366
C21	C	-0.286276	-0.617373	-0.420521
C22	C	-0.330907	-0.580593	-0.375743
C23	C	-0.372697	-0.617324	-0.333801
C24	C	-0.369855	-0.690829	-0.336642
C25	C	-0.344039	-0.360751	-0.362593
C26	C	-0.346880	-0.287240	-0.359757
C27	C	-0.260457	-0.287295	-0.446477
C28	C	-0.257622	-0.360802	-0.449317
C29	C	-0.299409	-0.397526	-0.407372
N30	N	-0.333811	-0.505457	-0.372836
N31	N	-0.296501	-0.472661	-0.410276
C32	C	-0.498628	-0.980967	-0.398572
C33	C	-0.577110	-0.977721	-0.401602
C34	C	-0.610355	-1.023116	-0.359802
C35	C	-0.684097	-1.020067	-0.362657
C36	C	-0.724593	-0.971619	-0.407307
C37	C	-0.691343	-0.926222	-0.449111
C38	C	-0.617602	-0.929275	-0.446260
C39	C	-0.945524	-0.957461	-0.420472
C40	C	-1.019270	-0.954410	-0.423319
C41	C	-1.012019	-1.048256	-0.336865
C42	C	-0.938277	-1.051302	-0.334015
C43	C	-0.905033	-1.005907	-0.375821
N44	N	-0.799970	-0.968500	-0.410224
N45	N	-0.829658	-1.009030	-0.372908
C46	C	-0.130999	-0.996487	-0.384516
C47	C	-0.052515	-0.999805	-0.381519
C48	C	-0.322808	-0.981054	-0.575122
C49	C	-0.326063	-0.977795	-0.653350
C50	C	-0.308111	-0.172283	-0.398673
C51	C	-0.305092	-0.250515	-0.401694
C52	C	-0.280707	-1.023181	-0.690126
C53	C	-0.283762	-1.020110	-0.763629
C54	C	-0.332177	-0.971656	-0.800354
C55	C	-0.377535	-0.926265	-0.763573
C56	C	-0.374476	-0.929333	-0.690071
C57	C	-0.346352	-0.957446	-1.020178
C58	C	-0.349409	-0.954382	-1.093685
C59	C	-0.255635	-1.048227	-1.093736
C60	C	-0.252583	-1.051294	-1.020233
C61	C	-0.297938	-1.005900	-0.983458
N62	N	-0.335303	-0.968517	-0.875486
N63	N	-0.294808	-1.009036	-0.908327
C64	C	-0.307512	-0.996364	-0.208691
C65	C	-0.304053	-0.999769	-0.130461
H66	H	-0.577388	-1.062565	-0.323440
H67	H	-0.383293	-0.920493	-0.990245
H68	H	-0.246830	-1.057070	-0.793569
N69	N	-1.047874	-1.097212	-0.291772
H70	H	-1.100733	-1.087928	-0.300350
H71	H	-1.033461	-1.147548	-0.304216
N72	N	-0.200348	-1.103530	-0.980608
H73	H	-0.226511	-1.136207	-0.952467
H74	H	-0.172078	-1.131769	-1.015090
N75	N	-0.581741	-0.880316	-0.491346
H76	H	-0.618583	-0.849160	-0.520064
H77	H	-0.551243	-0.850228	-0.460227
N78	N	-0.719955	-1.069029	-0.317573
H79	H	-0.683112	-1.100180	-0.288852
H80	H	-0.750337	-1.040493	-0.285055
N81	N	-0.206717	-1.097184	-1.133400
H82	H	-0.215999	-1.087890	-1.185535
H83	H	-0.156175	-1.088895	-1.118199
H84	H	-0.409034	-0.587371	-0.297337
N85	N	-0.414922	-0.730445	-0.291406
H86	H	-0.443628	-0.695992	-0.262608
H87	H	-0.447654	-0.758383	-0.322430
N88	N	-0.894601	-1.103562	-0.285863
H89	H	-0.863903	-1.136226	-0.314578
H90	H	-0.863828	-1.077559	-0.250943
N91	N	-0.209460	-0.400456	-0.497602
H92	H	-0.174328	-0.433509	-0.468969
H93	H	-0.238414	-0.428358	-0.532451
N94	N	-0.429740	-0.873987	-0.803179
H95	H	-0.424795	-0.878927	-0.855323
H96	H	-0.479219	-0.883332	-0.792687
H97	H	-0.241284	-1.062640	-0.660230
N98	N	-1.062950	-0.902152	-0.471479
H99	H	-1.030702	-0.873859	-0.497532
H100	H	-1.093764	-0.928156	-0.506360
N101	N	-0.401633	-0.902121	-1.133299
H102	H	-0.429901	-0.873829	-1.098850
H103	H	-0.375410	-0.869496	-1.161435
H104	H	-0.918463	-0.920497	-0.454512
H105	H	-0.226435	-0.257386	-0.480625
N106	N	-0.423388	-0.880375	-0.650401
H107	H	-0.454523	-0.849213	-0.684819
H108	H	-0.453697	-0.908910	-0.622263
H109	H	-0.252248	-0.587474	-0.454673
N110	N	-0.235303	-0.730548	-0.471668
H111	H	-0.209261	-0.696125	-0.497802
H112	H	-0.200213	-0.763609	-0.443000
N113	N	-0.395017	-0.247560	-0.311459
H114	H	-0.445442	-0.257779	-0.324728
H115	H	-0.381324	-0.262911	-0.261277
N116	N	-0.389106	-0.400356	-0.317353
H117	H	-0.417811	-0.365900	-0.288557
H118	H	-0.421838	-0.428295	-0.348375
N119	N	-0.735016	-0.873969	-0.497273
H120	H	-0.786776	-0.878920	-0.492736
H121	H	-0.723648	-0.824702	-0.483829
