data_functionalizedCrystal
_audit_creation_method	'MofGen! by Chris Wilmer'
_symmetry_space_group_name_H-M	'P1'
_symmetry_Int_Tables_number	1
_symmetry_cell_setting	triclinic
loop_
_symmetry_equiv_pos_as_xyz
  x,y,z
_cell_length_a	17.019383
_cell_length_b	17.038272
_cell_length_c	11.892095
_cell_angle_alpha	94.170821
_cell_angle_beta	82.240989
_cell_angle_gamma	87.246883
loop_
_atom_site_label
_atom_site_type_symbol
_atom_site_fract_x
_atom_site_fract_y
_atom_site_fract_z
O1	O	1.063241	0.089152	-0.197403
O2	O	0.833310	0.103030	-0.175045
O3	O	0.946908	-0.017716	-0.186082
O4	O	0.949642	0.209898	-0.186366
O5	O	0.937436	-0.007663	0.002846
O6	O	0.823838	0.113082	0.013883
O7	O	1.053768	0.099204	-0.008475
Zn8	Zn	0.937299	0.107739	0.032700
Zn9	Zn	0.949779	0.094495	-0.216220
O10	O	0.940170	0.219950	0.002562
C11	C	0.799009	0.107726	-0.077706
C12	C	0.710913	0.106733	-0.069140
C13	C	0.939686	-0.041803	-0.091376
C14	C	0.932270	-0.128552	-0.090656
C15	C	0.674682	0.100789	-0.168091
C16	C	0.591905	0.099869	-0.160025
C17	C	0.545362	0.104888	-0.053007
C18	C	0.581599	0.110834	0.045952
C19	C	0.664373	0.111760	0.037885
C20	C	0.295177	0.102373	-0.023498
C21	C	0.212397	0.101445	-0.015439
C22	C	0.222709	0.090481	-0.221417
C23	C	0.305485	0.091402	-0.229474
C24	C	0.341715	0.097353	-0.130516
C25	C	0.460751	0.103945	-0.044760
C26	C	0.426324	0.098301	-0.138764
C27	C	1.000361	-0.179072	-0.097275
C28	C	0.993388	-0.260582	-0.096608
C29	C	0.918323	-0.291568	-0.089313
C30	C	0.850227	-0.241041	-0.082696
C31	C	0.857201	-0.159534	-0.083371
C32	C	0.893687	-0.537180	-0.086933
C33	C	0.886718	-0.618694	-0.086254
C34	C	1.029879	-0.638229	-0.100169
C35	C	1.036846	-0.556719	-0.100837
C36	C	0.968751	-0.506199	-0.094226
C37	C	0.911194	-0.374884	-0.088627
C38	C	0.975881	-0.422886	-0.094920
C39	C	1.088070	0.094508	-0.105816
C40	C	1.176165	0.095501	-0.114390
C41	C	0.947392	0.244037	-0.092146
C42	C	0.954809	0.330785	-0.092874
N43	N	0.928787	0.116778	0.202581
N44	N	0.958297	0.085451	-0.386102
C45	C	1.017524	0.022513	0.430608
C46	C	1.011580	0.028837	0.549527
C47	C	0.910952	0.135743	0.559342
C48	C	0.916896	0.129420	0.440423
C49	C	0.970184	0.072804	0.376059
C50	C	0.976132	0.066485	0.257138
C51	C	0.875500	0.173387	0.266955
C52	C	0.869556	0.179711	0.385874
H53	H	0.562410	0.095029	-0.240602
N54	N	1.113525	-0.525072	-0.108273
N55	N	1.156677	-0.536485	-0.033216
H56	H	1.210833	-0.514136	-0.038463
H57	H	0.174501	0.105554	0.071713
N58	N	0.353014	0.086272	-0.338801
N59	N	0.320654	0.080964	-0.427145
H60	H	0.354221	0.077338	-0.504359
H61	H	0.826168	0.225804	0.438293
N62	N	0.722222	0.095645	-0.277410
N63	N	0.720012	0.036771	-0.345807
H64	H	0.753586	0.033138	-0.423017
N65	N	0.185700	0.084426	-0.322495
N66	N	0.194809	0.135963	-0.392003
H67	H	0.168672	0.131690	-0.463395
N68	N	0.824131	-0.485578	-0.080145
N69	N	0.808059	-0.433685	0.000672
H70	H	0.758933	-0.397236	0.005470
N71	N	1.030511	0.008619	0.191374
N72	N	1.023827	-0.062897	0.205251
H73	H	1.062214	-0.103779	0.158796
N74	N	1.099435	-0.689835	-0.106955
N75	N	1.152131	-0.691505	-0.191333
H76	H	1.201258	-0.727953	-0.196131
H77	H	0.867561	0.181834	0.611762
H78	H	1.060919	-0.023580	0.378202
N79	N	0.827154	0.224764	0.211216
N80	N	0.832473	0.219118	0.105038
H81	H	0.798334	0.255405	0.065669
N82	N	0.834511	-0.406523	-0.081140
N83	N	0.773715	-0.361409	-0.075209
H84	H	0.719556	-0.383755	-0.069918
N85	N	1.059926	-0.022547	0.605243
N86	N	1.054624	-0.095483	0.592538
H87	H	1.088768	-0.131778	0.631885
N88	N	0.332166	0.108431	0.077594
N89	N	0.290598	0.112896	0.173136
H90	H	0.316724	0.117167	0.244538
H91	H	0.543696	0.114925	0.133089
H92	H	0.422846	0.108029	0.042375
N93	N	1.062952	-0.312172	-0.103355
N94	N	1.107659	-0.305371	-0.028446
H95	H	1.156794	-0.341805	-0.033212
N96	N	0.701372	0.117849	0.138973
N97	N	0.659808	0.122339	0.234520
H98	H	0.685936	0.126648	0.305918
H99	H	0.464223	0.094220	-0.225897
N100	N	0.810035	-0.650343	-0.078829
N101	N	0.794170	-0.697879	-0.156539
H102	H	0.740015	-0.720231	-0.151294
N103	N	1.077037	-0.147422	-0.104702
N104	N	1.120190	-0.158834	-0.029644
H105	H	1.174344	-0.136483	-0.034889
N106	N	0.773557	-0.272706	-0.075232
N107	N	0.749706	-0.311774	0.006339
H108	H	0.695556	-0.334138	0.011615
H109	H	0.801754	-0.118400	-0.077981
H110	H	1.036999	-0.397654	-0.100885
