data_functionalizedCrystal
_audit_creation_method	'MofGen! by Chris Wilmer'
_symmetry_space_group_name_H-M	'P1'
_symmetry_Int_Tables_number	1
_symmetry_cell_setting	triclinic
loop_
_symmetry_equiv_pos_as_xyz
  x,y,z
_cell_length_a	14.044220
_cell_length_b	14.044190
_cell_length_c	15.186229
_cell_angle_alpha	89.991383
_cell_angle_beta	90.001537
_cell_angle_gamma	93.190328
loop_
_atom_site_label
_atom_site_type_symbol
_atom_site_fract_x
_atom_site_fract_y
_atom_site_fract_z
O1	O	1.277172	0.230167	-0.073153
O2	O	1.000501	0.221861	-0.073174
O3	O	1.134680	0.087678	-0.073147
O4	O	1.142993	0.364350	-0.073181
O5	O	1.134670	0.087675	0.073311
O6	O	1.000491	0.221858	0.073283
O7	O	1.277162	0.230164	0.073304
Zn8	Zn	1.138825	0.226011	0.096547
Zn9	Zn	1.138838	0.226015	-0.096417
O10	O	1.142983	0.364347	0.073277
C11	C	0.964874	0.218224	0.000052
C12	C	0.858731	0.207380	0.000044
C13	C	0.664392	0.187553	0.000064
C14	C	0.613264	0.264468	0.000058
C15	C	0.505128	0.253436	0.000069
C16	C	0.772539	0.198583	0.000053
C17	C	1.131039	0.052054	0.000084
C18	C	1.120191	-0.054089	0.000091
C19	C	1.177292	-0.299547	0.000061
C20	C	1.100375	-0.248422	0.000061
C21	C	1.111404	-0.140285	0.000078
C22	C	1.166265	-0.407694	0.000044
C23	C	1.312789	0.233801	0.000076
C24	C	1.418932	0.244646	0.000078
C25	C	1.146624	0.399971	0.000044
C26	C	1.157472	0.506114	0.000031
N27	N	1.138823	0.226008	0.228240
N28	N	1.138847	0.226010	-0.228110
C29	C	1.198261	0.166615	0.453975
C30	C	1.198264	0.166613	0.546164
C31	C	1.079402	0.285405	0.546149
C32	C	1.079395	0.285402	0.453961
C33	C	1.138830	0.226008	0.407876
C34	C	1.138840	0.226010	0.592254
C35	C	1.138842	0.226008	0.692210
C36	C	1.138826	0.226009	0.307914
H37	H	0.650706	0.338602	0.000045
H38	H	0.626954	0.113425	0.000078
H39	H	1.026243	-0.285865	0.000050
C40	C	1.250962	0.113793	0.312664
C41	C	1.263535	0.101276	0.403316
H42	H	1.291250	0.073441	0.281394
H43	H	1.186360	0.098047	0.297589
H44	H	1.266768	0.178380	0.297530
H45	H	1.247723	0.036690	0.418452
H46	H	1.328152	0.117016	0.418398
C47	C	1.269054	-0.150113	0.000109
C48	C	1.277364	-0.249007	0.000090
H49	H	1.330834	-0.118906	0.000135
H50	H	1.235370	-0.132160	-0.050965
H51	H	1.235334	-0.132204	0.051181
H52	H	1.311077	-0.266917	-0.050986
H53	H	1.311062	-0.266967	0.051169
H54	H	1.246657	0.118249	0.583695
H55	H	1.031012	0.333764	0.583680
H56	H	1.030994	0.333767	0.416425
