data_functionalizedCrystal
_audit_creation_method	'MofGen! by Chris Wilmer'
_symmetry_space_group_name_H-M	'P1'
_symmetry_Int_Tables_number	1
_symmetry_cell_setting	triclinic
loop_
_symmetry_equiv_pos_as_xyz
  x,y,z
_cell_length_a	17.019282
_cell_length_b	17.019234
_cell_length_c	12.996460
_cell_angle_alpha	86.112554
_cell_angle_beta	93.875637
_cell_angle_gamma	83.651806
loop_
_atom_site_label
_atom_site_type_symbol
_atom_site_fract_x
_atom_site_fract_y
_atom_site_fract_z
O1	O	1.046561	0.100445	-0.001703
O2	O	0.816880	0.113273	-0.023201
O3	O	0.938136	-0.007983	-0.001697
O4	O	0.925305	0.221701	-0.023207
O5	O	0.938123	-0.007990	0.169437
O6	O	0.816868	0.113266	0.147932
O7	O	1.046548	0.100438	0.169430
Cu8	Cu	0.931707	0.106852	0.174307
Cu9	Cu	0.931722	0.106859	-0.028078
O10	O	0.925292	0.221694	0.147926
C11	C	0.787485	0.112785	0.059803
C12	C	0.699917	0.111333	0.052169
C13	C	0.658775	0.110645	0.141870
C14	C	0.576497	0.109267	0.134701
C15	C	0.535361	0.108583	0.037830
C16	C	0.576509	0.109269	-0.051877
C17	C	0.658787	0.110641	-0.044707
C18	C	0.286937	0.104436	0.011514
C19	C	0.204653	0.103067	0.004350
C20	C	0.204647	0.103063	0.190930
C21	C	0.286925	0.104440	0.198091
C22	C	0.328067	0.105121	0.108384
C23	C	0.451259	0.107178	0.030500
C24	C	0.412168	0.106521	0.115716
C25	C	0.937646	-0.037376	0.086432
C26	C	0.936194	-0.124946	0.094064
C27	C	0.927913	-0.620217	0.141860
C28	C	0.929284	-0.537936	0.134694
C29	C	0.929983	-0.496784	0.037824
C30	C	0.929302	-0.537916	-0.051886
C31	C	0.927925	-0.620194	-0.044720
C32	C	0.934136	-0.248356	0.011520
C33	C	0.935516	-0.166072	0.004361
C34	C	0.935496	-0.166098	0.190941
C35	C	0.934124	-0.248378	0.198099
C36	C	0.933439	-0.289502	0.108388
C37	C	0.931387	-0.412681	0.030498
C38	C	0.932029	-0.373604	0.115715
C39	C	1.075943	0.100926	0.086424
C40	C	1.163511	0.102378	0.094051
C41	C	0.925783	0.251087	0.059795
C42	C	0.927234	0.338657	0.052156
N43	N	0.931702	0.106846	0.316654
N44	N	0.931733	0.106859	-0.170424
C45	C	0.931720	0.106860	0.736469
C46	C	0.931713	0.106859	0.619663
C47	C	0.931712	0.106853	0.526565
C48	C	0.931703	0.106851	0.409752
H49	H	0.543011	0.108707	-0.130751
O50	O	0.927184	-0.664558	-0.141470
H51	H	0.927904	-0.622121	-0.210034
H52	H	0.933585	-0.281830	-0.061529
O53	O	0.160287	0.102323	-0.100140
H54	H	0.115710	0.155445	-0.113271
H55	H	0.936084	-0.132569	-0.074526
H56	H	0.929867	-0.504403	-0.130760
O57	O	0.936233	-0.121738	0.287692
H58	H	0.935522	-0.164178	0.356255
H59	H	0.445664	0.107074	0.194588
H60	H	0.320425	0.104988	-0.061532
H61	H	0.320413	0.104993	0.276974
H62	H	0.543004	0.108694	0.207747
O63	O	0.703167	0.111388	-0.141454
H64	H	0.660741	0.110690	-0.210021
O65	O	0.406893	0.106445	-0.073985
H66	H	0.362312	0.159564	-0.087107
O67	O	0.930016	-0.493574	0.231443
H68	H	0.984378	-0.463183	0.238027
O69	O	0.932141	-0.368296	-0.073983
H70	H	0.986510	-0.337913	-0.076310
O71	O	0.927156	-0.664601	0.246340
H72	H	0.927850	-0.622175	0.307511
H73	H	0.933559	-0.281879	0.276981
H74	H	0.171141	0.102507	0.263964
H75	H	0.931455	-0.407112	0.194586
H76	H	0.692261	0.111208	0.220753
