data_functionalizedCrystal
_audit_creation_method	'MofGen! by Chris Wilmer'
_symmetry_space_group_name_H-M	'P1'
_symmetry_Int_Tables_number	1
_symmetry_cell_setting	triclinic
loop_
_symmetry_equiv_pos_as_xyz
  x,y,z
_cell_length_a	19.288835
_cell_length_b	18.366186
_cell_length_c	10.654549
_cell_angle_alpha	89.996632
_cell_angle_beta	83.805439
_cell_angle_gamma	89.986000
loop_
_atom_site_label
_atom_site_type_symbol
_atom_site_fract_x
_atom_site_fract_y
_atom_site_fract_z
O1	O	-0.922389	0.060691	-0.156474
O2	O	-0.422389	0.560691	0.343526
O3	O	-0.720264	0.060661	-0.177646
O4	O	-0.220264	0.560661	0.322354
O5	O	-0.825972	0.060674	0.015780
O6	O	-0.325972	0.560674	0.515780
O7	O	-0.816681	0.060678	-0.349899
O8	O	-0.316681	0.560678	0.150101
O9	O	-0.825960	-0.060426	0.015784
O10	O	-0.325960	0.439574	0.515784
O11	O	-0.720253	-0.060439	-0.177641
O12	O	-0.220253	0.439561	0.322359
O13	O	-0.922377	-0.060408	-0.156469
O14	O	-0.422377	0.439592	0.343531
Zn15	Zn	-0.821313	-0.079651	-0.167055
Zn16	Zn	-0.321313	0.420349	0.332945
Zn17	Zn	-0.821328	0.079903	-0.167060
Zn18	Zn	-0.321328	0.579903	0.332940
O19	O	-0.816670	-0.060421	-0.349895
O20	O	-0.316670	0.439579	0.150105
C21	C	-0.694377	0.000107	-0.176969
C22	C	-0.194377	0.500107	0.323031
C23	C	-0.617259	0.000096	-0.174943
C24	C	-0.117259	0.500096	0.325057
N25	N	-0.821308	-0.188542	-0.167050
N26	N	-0.321308	0.311458	0.332950
C27	C	-0.581055	0.066108	-0.173972
C28	C	-0.081055	0.566108	0.326028
C29	C	-0.508596	0.066115	-0.172054
C30	C	-0.008596	0.566115	0.327946
C31	C	-0.472344	0.000106	-0.171082
C32	C	0.027656	0.500106	0.328918
C33	C	-0.508556	-0.065915	-0.172060
C34	C	-0.008556	0.434085	0.327940
C35	C	-0.581014	-0.065920	-0.173990
C36	C	-0.081014	0.434080	0.326010
C37	C	-0.362509	-0.050458	-0.094467
C38	C	0.137491	0.449542	0.405533
C39	C	-0.290054	-0.050450	-0.092529
C40	C	0.209946	0.449550	0.407471
C41	C	-0.248861	0.000120	-0.165134
C42	C	0.251139	0.500120	0.334866
C43	C	-0.280134	0.050695	-0.239661
C44	C	0.219866	0.550695	0.260339
C45	C	-0.352592	0.050689	-0.241591
C46	C	0.147408	0.550689	0.258409
C47	C	-0.393776	0.000105	-0.168989
C48	C	0.106224	0.500105	0.331011
C49	C	-0.134088	0.066145	-0.162085
C50	C	0.365912	0.566145	0.337915
C51	C	-0.061627	0.066149	-0.160175
C52	C	0.438373	0.566149	0.339825
C53	C	-0.061590	-0.065882	-0.160169
C54	C	0.438410	0.434118	0.339831
C55	C	-0.134049	-0.065885	-0.162091
C56	C	0.365951	0.434115	0.337909
C57	C	-0.170294	0.000131	-0.163043
C58	C	0.329706	0.500131	0.336957
C59	C	0.051736	0.000141	-0.157155
C60	C	0.551736	0.500141	0.342845
C61	C	-0.025380	0.000140	-0.159205
C62	C	0.474620	0.500140	0.340795
C63	C	-0.868147	-0.773086	-0.081430
C64	C	-0.368147	-0.273086	0.418570
C65	C	-0.868148	-0.696859	-0.081433
C66	C	-0.368148	-0.196859	0.418567
C67	C	-0.821328	-0.658753	-0.167049
C68	C	-0.321328	-0.158753	0.332951
C69	C	-0.774516	-0.696882	-0.252690
C70	C	-0.274516	-0.196882	0.247310
C71	C	-0.774522	-0.773108	-0.252694
C72	C	-0.274522	-0.273108	0.247306
C73	C	-0.758145	-0.538008	-0.183821
C74	C	-0.258145	-0.038008	0.316179
C75	C	-0.758139	-0.461783	-0.183809
C76	C	-0.258139	0.038217	0.316191
C77	C	-0.821312	-0.423646	-0.167047
C78	C	-0.321312	0.076354	0.332953
C79	C	-0.884495	-0.461742	-0.150270
C80	C	-0.384495	0.038258	0.349730
C81	C	-0.884500	-0.537969	-0.150273
C82	C	-0.384500	-0.037969	0.349727
C83	C	-0.821318	-0.576098	-0.167056
C84	C	-0.321318	-0.076098	0.332944
C85	C	-0.868126	-0.302871	-0.081420
C86	C	-0.368126	0.197129	0.418580
C87	C	-0.868128	-0.226642	-0.081431
C88	C	-0.368128	0.273358	0.418569
C89	C	-0.774490	-0.226667	-0.252683
C90	C	-0.274490	0.273333	0.247317
C91	C	-0.774494	-0.302894	-0.252677
C92	C	-0.274494	0.197106	0.247323
C93	C	-0.821311	-0.340992	-0.167039
C94	C	-0.321311	0.159008	0.332961
C95	C	-0.825283	0.000125	0.062565
C96	C	-0.325283	0.500125	0.562565
C97	C	-0.823240	0.000127	0.201964
C98	C	-0.323240	0.500127	0.701964
N99	N	-0.821339	0.188794	-0.167055
N100	N	-0.321339	0.688794	0.332945
C101	C	-0.817358	0.000129	-0.396680
C102	C	-0.317358	0.500129	0.103320
C103	C	-0.819401	0.000132	-0.536079
C104	C	-0.319401	0.500132	-0.036079
C105	C	-0.945807	0.000141	0.494596
C106	C	-0.445807	0.500141	0.994596
C107	C	-1.009970	0.000149	0.444445
C108	C	-0.509970	0.500149	0.944445
C109	C	-1.011892	0.000151	0.313468
C110	C	-0.511892	0.500151	0.813468
C111	C	-0.949644	0.000142	0.232638
C112	C	-0.449644	0.500142	0.732638
C113	C	-0.885481	0.000134	0.282789
C114	C	-0.385481	0.500134	0.782789
C115	C	-0.883566	0.000135	0.413770
C116	C	-0.383566	0.500135	0.913770
C117	C	-0.759077	0.000119	0.252115
C118	C	-0.259077	0.500119	0.752115
C119	C	-0.757153	0.000123	0.383091
C120	C	-0.257153	0.500123	0.883091
C121	C	-0.696829	0.000110	0.171285
C122	C	-0.196829	0.500110	0.671285
C123	C	-0.632665	0.000107	0.221435
C124	C	-0.132665	0.500107	0.721435
C125	C	-0.630745	0.000107	0.352421
C126	C	-0.130745	0.500107	0.852421
C127	C	-0.692990	0.000115	0.433242
C128	C	-0.192990	0.500115	0.933242
H129	H	-0.610562	0.119863	-0.174747
H130	H	-0.110562	0.619863	0.325253
N131	N	-0.022574	0.137352	-0.159131
N132	N	0.477426	0.637352	0.340869
H133	H	-0.056533	0.179168	-0.160023
H134	H	0.443467	0.679168	0.339977
H135	H	0.002226	0.140222	-0.080499
H136	H	0.502226	0.640222	0.419501
H137	H	-0.906250	-0.333892	-0.011691
H138	H	-0.406250	0.166108	0.488309
H139	H	-0.578496	0.000092	0.393244
H140	H	-0.078496	0.500092	0.893244
N141	N	-0.943743	0.000142	0.635865
N142	N	-0.443743	0.500142	1.135865
H143	H	-0.918463	-0.044753	0.661399
H144	H	-0.418463	0.455247	1.161399
H145	H	-0.918487	0.045059	0.661295
H146	H	-0.418487	0.545059	1.161295
N147	N	-0.173108	-0.137082	-0.163114
N148	N	0.326892	0.362918	0.336886
H149	H	-0.197907	-0.140026	-0.241744
H150	H	0.302093	0.359974	0.258256
H151	H	-0.139113	-0.178859	-0.162156
H152	H	0.360887	0.321141	0.337844
H153	H	-0.479113	0.119872	-0.171265
H154	H	0.020887	0.619872	0.328735
N155	N	-0.022499	-0.137078	-0.159114
N156	N	0.477501	0.362922	0.340886
H157	H	-0.040366	-0.165937	-0.081617
H158	H	0.459634	0.334063	0.418383
H159	H	-0.029850	-0.165882	-0.237329
H160	H	0.470150	0.334118	0.262671
H161	H	-0.706698	-0.569053	-0.197477
H162	H	-0.206698	-0.069053	0.302523
N163	N	-0.918621	-0.185523	0.010919
N164	N	-0.418621	0.314477	0.510919
H165	H	-0.948277	-0.221228	0.065167
H166	H	-0.448277	0.278772	0.565167
H167	H	-0.891760	-0.153905	0.066301
H168	H	-0.391760	0.346095	0.566301
N169	N	-0.469312	-0.137010	-0.170793
N170	N	0.030688	0.362990	0.329207
H171	H	-0.476506	-0.166002	-0.248887
H172	H	0.023494	0.333998	0.251113
H173	H	-0.417973	-0.126733	-0.169304
H174	H	0.082027	0.373267	0.330696
H175	H	-0.951215	0.000134	0.125992
H176	H	-0.451215	0.500134	0.625992
H177	H	-0.264597	-0.091627	-0.031838
H178	H	0.235403	0.408373	0.468162
H179	H	-0.906270	-0.804103	-0.011701
H180	H	-0.406270	-0.304103	0.488299
H181	H	-0.698399	0.000106	0.064638
H182	H	-0.198399	0.500106	0.564638
N183	N	-0.918627	-0.655747	0.010962
N184	N	-0.418627	-0.155747	0.510962
H185	H	-0.891801	-0.624141	0.066426
H186	H	-0.391801	-0.124141	0.566426
H187	H	-0.949609	-0.624141	-0.036928
H188	H	-0.449609	-0.124141	0.463072
N189	N	-0.690928	0.000109	0.574511
N190	N	-0.190928	0.500109	1.074511
H191	H	-0.665649	-0.044788	0.600039
H192	H	-0.165649	0.455212	1.100039
H193	H	-0.665673	0.045025	0.599952
H194	H	-0.165673	0.545025	1.099952
N195	N	-0.724027	-0.814229	-0.345038
N196	N	-0.224027	-0.314229	0.154962
H197	H	-0.732451	-0.800961	-0.434131
H198	H	-0.232451	-0.300961	0.065869
H199	H	-0.674686	-0.800960	-0.330698
H200	H	-0.174686	-0.300960	0.169302
H201	H	-0.736396	-0.665852	-0.322403
H202	H	-0.236396	-0.165852	0.177597
H203	H	-0.736371	-0.195642	-0.322398
H204	H	-0.236371	0.304358	0.177602
N205	N	-1.077107	0.000151	0.531623
N206	N	-0.577107	0.500151	1.031623
H207	H	-1.066156	0.000150	0.622207
H208	H	-0.566156	0.500150	1.122207
H209	H	-1.105050	0.045046	0.515425
H210	H	-0.605050	0.545046	1.015425
N211	N	-1.081094	0.000153	0.259367
N212	N	-0.581094	0.500153	0.759367
H213	H	-1.120236	0.000156	0.330441
H214	H	-0.620236	0.500156	0.830441
H215	H	-1.084648	0.045046	0.205688
H216	H	-0.584648	0.545046	0.705688
H217	H	-0.581988	0.000095	0.155614
H218	H	-0.081988	0.500095	0.655614
H219	H	-0.935946	-0.568984	-0.136616
H220	H	-0.435946	-0.068984	0.363384
H221	H	-0.246596	0.091872	-0.298788
H222	H	0.253404	0.591872	0.201212
H223	H	-0.378051	0.091867	-0.302276
H224	H	0.121949	0.591867	0.197724
H225	H	-0.163600	0.119899	-0.162874
H226	H	0.336400	0.619899	0.337126
N227	N	-0.723995	-0.344012	-0.345014
N228	N	-0.223995	0.155988	0.154986
H229	H	-0.731102	-0.398083	-0.332024
H230	H	-0.231102	0.101917	0.167976
H231	H	-0.732444	-0.330682	-0.434064
H232	H	-0.232444	0.169318	0.065936
N233	N	-0.406932	-0.105009	-0.016155
N234	N	0.093068	0.394991	0.483845
H235	H	-0.400533	-0.098260	0.075965
H236	H	0.099467	0.401740	0.575965
H237	H	-0.457559	-0.097312	-0.028792
H238	H	0.042441	0.402688	0.471208
N239	N	-0.620067	-0.137121	-0.175043
N240	N	-0.120067	0.362879	0.324957
H241	H	-0.586110	-0.178939	-0.174142
H242	H	-0.086110	0.321061	0.325858
H243	H	-0.655392	-0.140002	-0.098010
H244	H	-0.155392	0.359998	0.401990
N245	N	-0.952638	-0.420618	-0.132200
N246	N	-0.452638	0.079382	0.367800
H247	H	-0.992661	-0.456318	-0.121574
H248	H	-0.492661	0.043682	0.378426
H249	H	-0.953717	-0.388992	-0.054472
H250	H	-0.453717	0.111008	0.445528
H251	H	-0.706692	-0.430771	-0.197455
H252	H	-0.206692	0.069229	0.302545
