data_functionalizedCrystal
_audit_creation_method	'MofGen! by Chris Wilmer'
_symmetry_space_group_name_H-M	'P1'
_symmetry_Int_Tables_number	1
_symmetry_cell_setting	triclinic
loop_
_symmetry_equiv_pos_as_xyz
  x,y,z
_cell_length_a	29.839131
_cell_length_b	25.639242
_cell_length_c	25.639234
_cell_angle_alpha	90.029352
_cell_angle_beta	89.974256
_cell_angle_gamma	89.963053
loop_
_atom_site_label
_atom_site_type_symbol
_atom_site_fract_x
_atom_site_fract_y
_atom_site_fract_z
Zn1	Zn	-0.178934	-0.799252	-0.295739
Zn2	Zn	0.321066	-0.299252	0.204261
Zn3	Zn	-0.254057	-0.799161	-0.208302
Zn4	Zn	0.245943	-0.299161	0.291698
Zn5	Zn	-0.178936	-0.711818	-0.208303
Zn6	Zn	0.321064	-0.211818	0.291697
Zn7	Zn	-0.254032	-0.711769	-0.295692
Zn8	Zn	0.245968	-0.211769	0.204308
O9	O	-0.216490	-0.755500	-0.252009
O10	O	0.283510	-0.255500	0.247991
O11	O	-0.188909	-0.872405	-0.284160
O12	O	0.311091	-0.372405	0.215840
O13	O	-0.244103	-0.787556	-0.135137
O14	O	0.255897	-0.287556	0.364863
O15	O	-0.116068	-0.723474	-0.219922
O16	O	0.383932	-0.223474	0.280078
O17	O	-0.244101	-0.872338	-0.219920
O18	O	0.255899	-0.372338	0.280080
O19	O	-0.116067	-0.787712	-0.284161
O20	O	0.383933	-0.287712	0.215839
O21	O	-0.188912	-0.723386	-0.135138
O22	O	0.311088	-0.223386	0.364862
O23	O	-0.188888	-0.638646	-0.219876
O24	O	0.311112	-0.138646	0.280124
O25	O	-0.244059	-0.723392	-0.368864
O26	O	0.255941	-0.223392	0.131136
O27	O	-0.244061	-0.638611	-0.284081
O28	O	0.255939	-0.138611	0.215919
O29	O	-0.188885	-0.787666	-0.368898
O30	O	0.311115	-0.287666	0.131102
O31	O	-0.316921	-0.787509	-0.219875
O32	O	0.183079	-0.287509	0.280125
O33	O	-0.316903	-0.723304	-0.284080
O34	O	0.183097	-0.223304	0.215920
C35	C	-0.216472	-0.619657	-0.251974
C36	C	0.283528	-0.119657	0.248026
C37	C	-0.216475	-0.561543	-0.251971
C38	C	0.283525	-0.061543	0.248029
C39	C	-0.333212	-0.755406	-0.251983
C40	C	0.166788	-0.255406	0.248017
C41	C	-0.383147	-0.755413	-0.251990
C42	C	0.116853	-0.255413	0.248010
C43	C	-0.216469	-0.755534	-0.388382
C44	C	0.283531	-0.255534	0.111618
C45	C	-0.216461	-0.755548	-0.446496
C46	C	0.283539	-0.255548	0.053504
C47	C	-0.692787	-0.788993	-0.218627
C48	C	-0.192787	-0.288993	0.281373
C49	C	-0.880460	-0.789057	-0.218647
C50	C	-0.380460	-0.289057	0.281353
O51	O	-0.904722	-0.817533	-0.190260
O52	O	-0.404722	-0.317533	0.309740
N53	N	-0.903932	-0.755608	-0.252049
N54	N	-0.403932	-0.255608	0.247951
C55	C	-0.880482	-0.722143	-0.285450
C56	C	-0.380482	-0.222143	0.214550
O57	O	-0.904753	-0.693698	-0.313865
O58	O	-0.404753	-0.193698	0.186135
C59	C	-0.692810	-0.722082	-0.285432
C60	C	-0.192810	-0.222082	0.214568
C61	C	-0.669341	-0.755529	-0.252024
C62	C	-0.169341	-0.255529	0.247976
C63	C	-0.669318	-0.822438	-0.185222
C64	C	-0.169318	-0.322438	0.314778
C65	C	-0.622402	-0.822419	-0.185215
C66	C	-0.122402	-0.322419	0.314785
C67	C	-0.598956	-0.788956	-0.218613
C68	C	-0.098956	-0.288956	0.281387
C69	C	-0.622425	-0.755511	-0.252018
C70	C	-0.122425	-0.255511	0.247982
C71	C	-0.669362	-0.688620	-0.318836
C72	C	-0.169362	-0.188620	0.181164
C73	C	-0.622441	-0.688608	-0.318829
C74	C	-0.122441	-0.188608	0.181171
C75	C	-0.598971	-0.722056	-0.285422
C76	C	-0.098971	-0.222056	0.214578
C77	C	-0.552064	-0.722029	-0.285409
C78	C	-0.052064	-0.222029	0.214591
N79	N	-0.528592	-0.755478	-0.252007
N80	N	-0.028592	-0.255478	0.247993
C81	C	-0.552038	-0.788941	-0.218609
C82	C	-0.052038	-0.288941	0.281391
C83	C	-0.979013	-0.722177	-0.285457
C84	C	-0.479013	-0.222177	0.214543
C85	C	-1.025931	-0.722192	-0.285461
C86	C	-0.525931	-0.222192	0.214539
C87	C	-1.025905	-0.789107	-0.218658
C88	C	-0.525905	-0.289107	0.281342
C89	C	-0.978986	-0.789089	-0.218652
C90	C	-0.478986	-0.289089	0.281348
C91	C	-0.955541	-0.755626	-0.252055
C92	C	-0.455541	-0.255626	0.247945
C93	C	-0.453512	-0.788899	-0.218597
C94	C	0.046488	-0.288899	0.281403
C95	C	-0.406593	-0.788877	-0.218592
C96	C	0.093407	-0.288877	0.281408
C97	C	-0.406623	-0.721964	-0.285396
C98	C	0.093377	-0.221964	0.214604
C99	C	-0.453538	-0.721985	-0.285400
C100	C	0.046462	-0.221985	0.214600
C101	C	-0.476982	-0.755457	-0.251999
C102	C	0.023018	-0.255457	0.248001
O103	O	-0.527773	-0.693572	-0.313785
O104	O	-0.027773	-0.193572	0.186215
O105	O	-0.527760	-0.817390	-0.190207
O106	O	-0.027760	-0.317390	0.309793
C107	C	-0.739702	-0.789011	-0.218633
C108	C	-0.239702	-0.289011	0.281367
C109	C	-0.763172	-0.755566	-0.252038
C110	C	-0.263172	-0.255566	0.247962
C111	C	-0.739726	-0.722103	-0.285436
C112	C	-0.239726	-0.222103	0.214564
C113	C	-0.810090	-0.755581	-0.252042
C114	C	-0.310090	-0.255581	0.247958
C115	C	-0.833536	-0.789044	-0.218644
C116	C	-0.333536	-0.289044	0.281356
C117	C	-0.810064	-0.822493	-0.185242
C118	C	-0.310064	-0.322493	0.314758
C119	C	-0.763148	-0.822475	-0.185235
C120	C	-0.263148	-0.322475	0.314765
C121	C	-0.763198	-0.688654	-0.318838
C122	C	-0.263198	-0.188654	0.181162
C123	C	-0.810113	-0.688675	-0.318841
C124	C	-0.310113	-0.188675	0.181159
C125	C	-0.833559	-0.722138	-0.285443
C126	C	-0.333559	-0.222138	0.214557
C127	C	-0.099311	-0.755609	-0.252047
C128	C	0.400689	-0.255609	0.247953
C129	C	-0.049377	-0.755655	-0.252063
C130	C	0.450623	-0.255655	0.247937
C131	C	-0.216508	-0.891873	-0.252045
C132	C	0.283492	-0.391873	0.247955
C133	C	-0.216516	-0.949987	-0.252060
C134	C	0.283484	-0.449987	0.247940
C135	C	-0.245266	-0.201171	-0.285409
C136	C	0.254734	0.298829	0.214591
C137	C	-0.245269	-0.146566	-0.285417
C138	C	0.254731	0.353434	0.214583
O139	O	-0.269726	-0.118322	-0.313817
O140	O	0.230274	0.381678	0.186183
N141	N	-0.216502	-0.119261	-0.252043
N142	N	0.283498	0.380739	0.247957
C143	C	-0.187727	-0.146562	-0.218663
C144	C	0.312273	0.353438	0.281337
O145	O	-0.163259	-0.118323	-0.190277
O146	O	0.336741	0.381677	0.309723
C147	C	-0.187723	-0.201166	-0.218658
C148	C	0.312277	0.298834	0.281342
C149	C	-0.216495	-0.228469	-0.252030
C150	C	0.283505	0.271531	0.247970
C151	C	-0.274036	-0.228474	-0.318778
C152	C	0.225964	0.271526	0.181222
C153	C	-0.274033	-0.283074	-0.318769
C154	C	0.225967	0.216926	0.181231
C155	C	-0.245262	-0.310372	-0.285391
C156	C	0.254738	0.189628	0.214609
C157	C	-0.216492	-0.283069	-0.252021
C158	C	0.283508	0.216931	0.247979
C159	C	-0.158946	-0.228466	-0.185281
C160	C	0.341054	0.271534	0.314719
C161	C	-0.158943	-0.283073	-0.185279
C162	C	0.341057	0.216927	0.314721
C163	C	-0.187716	-0.310376	-0.218651
C164	C	0.312284	0.189624	0.281349
C165	C	-0.187719	-0.364967	-0.218633
C166	C	0.312281	0.135033	0.281367
N167	N	-0.216485	-0.392273	-0.252007
N168	N	0.283515	0.107727	0.247993
C169	C	-0.245257	-0.364975	-0.285385
C170	C	0.254743	0.135025	0.214615
C171	C	-0.187739	-0.031892	-0.218677
C172	C	0.312261	0.468108	0.281323
C173	C	-0.187745	0.022711	-0.218679
C174	C	0.312255	0.522711	0.281321
C175	C	-0.245287	0.022703	-0.285434
C176	C	0.254713	0.522703	0.214566
C177	C	-0.245282	-0.031901	-0.285429
C178	C	0.254718	0.468099	0.214571
C179	C	-0.216506	-0.059197	-0.252051
C180	C	0.283494	0.440803	0.247949
C181	C	-0.245250	-0.479640	-0.285363
C182	C	0.254750	0.020360	0.214637
C183	C	-0.245247	-0.534246	-0.285350
C184	C	0.254753	-0.034246	0.214650
C185	C	-0.187704	-0.534233	-0.218597
C186	C	0.312296	-0.034233	0.281403
C187	C	-0.187709	-0.479632	-0.218609
C188	C	0.312291	0.020368	0.281391
C189	C	-0.216484	-0.452337	-0.251996
C190	C	0.283516	0.047663	0.248004
O191	O	-0.163273	-0.393247	-0.190249
O192	O	0.336727	0.106753	0.309751
O193	O	-0.269717	-0.393221	-0.313771
O194	O	0.230283	0.106779	0.186229
C195	C	-0.187669	-0.722150	-0.806865
C196	C	0.312331	-0.222150	-0.306865
C197	C	-0.187661	-0.722152	-0.861470
C198	C	0.312339	-0.222152	-0.361470
O199	O	-0.163231	-0.693729	-0.889712
O200	O	0.336769	-0.193729	-0.389712
N201	N	-0.216390	-0.755566	-0.888779
N202	N	0.283610	-0.255566	-0.388779
C203	C	-0.245132	-0.788975	-0.861481
C204	C	0.254868	-0.288975	-0.361481
O205	O	-0.269568	-0.817396	-0.889724
O206	O	0.230432	-0.317396	-0.389724
C207	C	-0.245143	-0.788969	-0.806878
C208	C	0.254857	-0.288969	-0.306878
C209	C	-0.216408	-0.755557	-0.779571
C210	C	0.283592	-0.255557	-0.279571
C211	C	-0.158937	-0.688740	-0.779559
C212	C	0.341063	-0.188740	-0.279559
C213	C	-0.158945	-0.688738	-0.724958
C214	C	0.341055	-0.188738	-0.224958
C215	C	-0.187684	-0.722146	-0.697664
C216	C	0.312316	-0.222146	-0.197664
C217	C	-0.216416	-0.755555	-0.724971
C218	C	0.283584	-0.255555	-0.224971
C219	C	-0.273887	-0.822375	-0.779581
C220	C	0.226113	-0.322375	-0.279581
C221	C	-0.273895	-0.822366	-0.724974
C222	C	0.226105	-0.322366	-0.224974
C223	C	-0.245160	-0.788954	-0.697667
C224	C	0.254840	-0.288954	-0.197667
C225	C	-0.245163	-0.788961	-0.643076
C226	C	0.254837	-0.288961	-0.143076
N227	N	-0.216434	-0.755547	-0.615767
N228	N	0.283566	-0.255547	-0.115767
C229	C	-0.187694	-0.722140	-0.643061
C230	C	0.312306	-0.222140	-0.143061
C231	C	-0.245110	-0.788984	-0.976152
C232	C	0.254890	-0.288984	-0.476152
C233	C	-0.245098	-0.788993	-1.030754
C234	C	0.254902	-0.288993	-0.530754
C235	C	-0.187627	-0.722169	-1.030739
C236	C	0.312373	-0.222169	-0.530739
C237	C	-0.187637	-0.722164	-0.976136
C238	C	0.312363	-0.222164	-0.476136
C239	C	-0.216381	-0.755571	-0.948843
C240	C	0.283619	-0.255571	-0.448843
C241	C	-0.187712	-0.722138	-0.528396
C242	C	0.312288	-0.222138	-0.028396
C243	C	-0.187721	-0.722141	-0.473790
C244	C	0.312279	-0.222141	0.026210
C245	C	-0.245194	-0.788962	-0.473810
C246	C	0.254806	-0.288962	0.026190
C247	C	-0.245184	-0.788962	-0.528411
C248	C	0.254816	-0.288962	-0.028411
C249	C	-0.216441	-0.755546	-0.555702
C250	C	0.283559	-0.255546	-0.055702
O251	O	-0.269582	-0.817368	-0.614800
O252	O	0.230418	-0.317368	-0.114800
O253	O	-0.163267	-0.693719	-0.614812
O254	O	0.336733	-0.193719	-0.114812
C255	C	-0.216478	-0.755496	-0.116167
C256	C	0.283522	-0.255496	0.383833
C257	C	-0.216360	-0.755583	-0.058053
C258	C	0.283640	-0.255583	0.441947
H259	H	-0.387485	-0.816113	-0.191385
H260	H	0.112515	-0.316113	0.308615
H261	H	-0.164307	-0.694928	-0.550610
H262	H	0.335693	-0.194928	-0.050610
Br263	Br	-0.284089	-0.834348	-1.067806
Br264	Br	0.215911	-0.334348	-0.567806
H265	H	-0.164306	-0.054114	-0.191493
H266	H	0.335694	0.445886	0.308507
H267	H	-0.164280	-0.556469	-0.191419
H268	H	0.335720	-0.056469	0.308581
H269	H	-0.297465	-0.206254	-0.345962
H270	H	0.202535	0.293746	0.154038
Br271	Br	-0.841893	-0.867905	-0.139915
Br272	Br	-0.341893	-0.367905	0.360085
H273	H	-1.045036	-0.694951	-0.312660
H274	H	-0.545036	-0.194951	0.187340
Br275	Br	-0.485322	-0.834326	-0.173266
Br276	Br	0.014678	-0.334326	0.326734
Br277	Br	-0.119886	-0.320116	-0.139979
Br278	Br	0.380114	0.179884	0.360021
Br279	Br	-0.284299	-0.571296	-0.330641
Br280	Br	0.215701	-0.071296	0.169359
H281	H	-0.164238	-0.694957	-0.953906
H282	H	0.335762	-0.194957	-0.453906
H283	H	-0.135548	-0.661528	-0.702730
H284	H	0.364452	-0.161528	-0.202730
H285	H	-0.688402	-0.849691	-0.158025
H286	H	-0.188402	-0.349691	0.341975
H287	H	-0.297462	-0.305299	-0.345945
H288	H	0.202538	0.194701	0.154055
H289	H	-0.829218	-0.661433	-0.346045
H290	H	-0.329218	-0.161433	0.153955
Br291	Br	-0.947201	-0.676759	-0.330794
Br292	Br	-0.447201	-0.176759	0.169206
H293	H	-0.268576	-0.816174	-0.550645
H294	H	0.231424	-0.316174	-0.050645
Br295	Br	-0.590558	-0.867822	-0.139881
Br296	Br	-0.090558	-0.367822	0.360119
H297	H	-0.164321	0.044936	-0.191499
H298	H	0.335679	0.544936	0.308501
H299	H	-0.959880	-0.816325	-0.191448
H300	H	-0.459880	-0.316325	0.308552
H301	H	-0.268710	-0.054127	-0.312604
H302	H	0.231290	0.445873	0.187396
H303	H	-0.268713	0.044938	-0.312615
H304	H	0.231287	0.544938	0.187385
H305	H	-0.164226	-0.694967	-1.052972
H306	H	0.335774	-0.194967	-0.552972
H307	H	-0.268514	-0.816194	-0.953933
H308	H	0.231486	-0.316194	-0.453933
H309	H	-1.045003	-0.816354	-0.191464
H310	H	-0.545003	-0.316354	0.308536
Br311	Br	-0.119893	-0.191426	-0.139990
Br312	Br	0.380107	0.308574	0.360010
Br313	Br	-0.284302	-0.442605	-0.330675
Br314	Br	0.215698	0.057395	0.169325
Br315	Br	-0.312889	-0.867719	-0.816626
Br316	Br	0.187111	-0.367719	-0.316626
H317	H	-0.297299	-0.849574	-0.702754
H318	H	0.202701	-0.349574	-0.202754
H319	H	-0.268591	-0.816163	-0.451578
H320	H	0.231409	-0.316163	0.048422
H321	H	-0.688463	-0.661381	-0.346038
H322	H	-0.188463	-0.161381	0.153962
H323	H	-0.603354	-0.661360	-0.346032
H324	H	-0.103354	-0.161360	0.153968
Br325	Br	-0.119936	-0.643387	-0.816591
Br326	Br	0.380064	-0.143387	-0.316591
H327	H	-0.164282	-0.457401	-0.191433
H328	H	0.335718	0.042599	0.308567
H329	H	-0.164320	-0.694933	-0.451560
H330	H	0.335680	-0.194933	0.048440
H331	H	-0.472648	-0.694751	-0.312605
H332	H	0.027352	-0.194751	0.187395
H333	H	-0.387526	-0.694717	-0.312587
H334	H	0.112474	-0.194717	0.187413
Br335	Br	-0.731385	-0.643235	-0.364169
Br336	Br	-0.231385	-0.143235	0.135831
H337	H	-0.744043	-0.849711	-0.158032
H338	H	-0.244043	-0.349711	0.341968
