data_functionalizedCrystal
_audit_creation_method	'MofGen! by Chris Wilmer'
_symmetry_space_group_name_H-M	'P1'
_symmetry_Int_Tables_number	1
_symmetry_cell_setting	triclinic
loop_
_symmetry_equiv_pos_as_xyz
  x,y,z
_cell_length_a	27.732025
_cell_length_b	17.699083
_cell_length_c	16.176319
_cell_angle_alpha	90.001389
_cell_angle_beta	90.007718
_cell_angle_gamma	97.041759
loop_
_atom_site_label
_atom_site_type_symbol
_atom_site_fract_x
_atom_site_fract_y
_atom_site_fract_z
O1	O	0.061128	-1.003532	-0.068604
O2	O	0.069080	-0.783083	-0.068628
O3	O	-0.005269	-0.900163	-0.068640
O4	O	0.135477	-0.886452	-0.068592
O5	O	-0.005274	-0.900147	0.068853
O6	O	0.069076	-0.783067	0.068865
O7	O	0.061123	-1.003516	0.068889
Cu8	Cu	0.065099	-0.893290	0.081431
Cu9	Cu	0.065104	-0.893309	-0.081170
O10	O	0.135472	-0.886436	0.068902
C11	C	0.068793	-0.754880	0.000115
C12	C	0.067938	-0.670870	0.000105
C13	C	-0.023279	-0.899870	0.000098
C14	C	-0.076938	-0.899011	0.000073
C15	C	0.061410	-1.031719	0.000144
C16	C	0.062265	-1.115729	0.000149
C17	C	-0.460123	-0.892918	-0.074827
C18	C	-0.258452	-0.896132	-0.074853
O19	O	-0.232381	-0.896585	-0.138595
N20	N	-0.233232	-0.896525	0.000092
C21	C	-0.258433	-0.896120	0.075050
O22	O	-0.232355	-0.896536	0.138795
C23	C	-0.460103	-0.892912	0.075075
C24	C	-0.485320	-0.892511	0.000125
C25	C	-0.485340	-0.892519	-0.149771
C26	C	-0.535754	-0.891711	-0.149763
C27	C	-0.560951	-0.891303	-0.074812
C28	C	-0.535735	-0.891703	0.000132
C29	C	-0.485304	-0.892512	0.150032
C30	C	-0.535725	-0.891711	0.150031
C31	C	-0.560942	-0.891311	0.075081
C32	C	-0.611346	-0.890488	0.075091
N33	N	-0.636566	-0.890095	0.000146
C34	C	-0.611369	-0.890503	-0.074806
C35	C	-0.152553	-0.897803	0.075031
C36	C	-0.102135	-0.898603	0.075025
C37	C	-0.102158	-0.898617	-0.074878
C38	C	-0.152576	-0.897811	-0.074871
C39	C	-0.177773	-0.897410	0.000086
C40	C	-0.717243	-0.888806	-0.074785
C41	C	-0.767661	-0.887995	-0.074771
C42	C	-0.767635	-0.887986	0.075132
C43	C	-0.717220	-0.888792	0.075118
C44	C	-0.692026	-0.889205	0.000153
O45	O	-0.637449	-0.890043	0.138800
O46	O	-0.637457	-0.890104	-0.138541
C47	C	-0.409708	-0.893726	-0.074834
C48	C	-0.384491	-0.894126	0.000110
C49	C	-0.409689	-0.893718	0.075062
C50	C	-0.334074	-0.894927	0.000104
C51	C	-0.308876	-0.895334	-0.074847
C52	C	-0.334097	-0.894941	-0.149793
C53	C	-0.384511	-0.894134	-0.149785
C54	C	-0.384469	-0.894111	0.150007
C55	C	-0.334054	-0.894918	0.149994
C56	C	-0.308857	-0.895326	0.075042
C57	C	0.153483	-0.886729	0.000162
C58	C	0.207141	-0.887588	0.000181
N59	N	0.065095	-0.893282	0.195797
C60	C	0.111580	-0.621859	0.000120
C61	C	0.110774	-0.542922	0.000131
C62	C	0.066325	-0.512999	0.000120
C63	C	0.022681	-0.562017	0.000107
C64	C	0.023487	-0.640951	0.000102
C65	C	0.019426	-0.243683	0.000126
C66	C	0.018623	-0.164742	0.000128
C67	C	0.106713	-0.145654	0.000154
C68	C	0.107519	-0.224588	0.000150
C69	C	0.063875	-0.273599	0.000141
C70	C	0.064750	-0.359190	0.000132
C71	C	0.065450	-0.427409	0.000123
N72	N	0.065105	-0.893323	-0.195535
C73	C	0.032186	-0.945141	0.239055
C74	C	0.032186	-0.945145	0.325602
C75	C	0.065096	-0.893293	0.368889
C76	C	0.098006	-0.841429	0.325625
C77	C	0.098004	-0.841422	0.239079
C78	C	0.098015	-0.841455	0.674653
C79	C	0.098016	-0.841467	0.761204
C80	C	0.032197	-0.945177	0.761176
C81	C	0.032195	-0.945170	0.674631
C82	C	0.065103	-0.893304	0.631374
C83	C	0.065102	-0.893300	0.537529
C84	C	0.065099	-0.893300	0.462732
H85	H	-0.788190	-0.887666	-0.135807
C86	C	-0.004028	-1.002175	0.373183
N87	N	-0.031310	-1.045126	0.409020
C88	C	0.134204	-0.784384	0.373243
N89	N	0.161469	-0.741417	0.409109
H90	H	0.143714	-0.248947	0.000155
H91	H	-0.016112	-0.283578	0.000120
H92	H	0.005400	-0.987408	0.796405
C93	C	0.134219	-0.784419	0.808818
N94	N	0.161485	-0.741451	0.844681
C95	C	0.154723	-0.091735	0.000175
N96	N	0.190884	-0.051125	0.000189
C97	C	-0.004019	-1.002182	0.191448
N98	N	-0.031291	-1.045146	0.155592
C99	C	-0.306321	-0.895357	0.232451
N100	N	-0.285435	-0.895695	0.294556
H101	H	-0.017574	-0.140382	0.000120
H102	H	-0.013510	-0.537647	0.000110
C103	C	0.134278	-0.784498	0.627081
N104	N	0.161615	-0.741630	0.591248
H105	H	-0.313572	-0.895268	-0.210821
C106	C	-0.024522	-0.694864	0.000083
N107	N	-0.060684	-0.735470	0.000070
H108	H	0.005398	-0.987395	0.639389
H109	H	-0.696735	-0.889143	-0.135828
C110	C	-0.563491	-0.891331	-0.232215
N111	N	-0.584381	-0.891067	-0.294323
H112	H	0.124801	-0.799193	0.203859
H113	H	-0.464830	-0.892853	-0.210809
C114	C	-0.074402	-0.899034	0.157476
N115	N	-0.053515	-0.899363	0.219581
C116	C	-0.074432	-0.899072	-0.157325
N117	N	-0.053547	-0.899421	-0.219421
C118	C	-0.180262	-0.897351	0.157495
N119	N	-0.201131	-0.897006	0.219608
C120	C	-0.180311	-0.897387	-0.157321
N121	N	-0.201199	-0.897075	-0.219426
H122	H	-0.464782	-0.892846	0.211064
C123	C	-0.412246	-0.893725	-0.232237
N124	N	-0.433133	-0.893430	-0.294345
C125	C	0.160477	-0.654766	0.000133
N126	N	0.197308	-0.679549	0.000147
H127	H	-0.696685	-0.889089	0.136149
C128	C	-0.795361	-0.887534	0.157574
N129	N	-0.816247	-0.887199	0.219671
C130	C	-0.412178	-0.893655	0.232464
N131	N	-0.433047	-0.893306	0.294577
C132	C	-0.563438	-0.891266	0.232492
N133	N	-0.584311	-0.890928	0.294601
C134	C	0.158783	-0.489013	0.000162
N135	N	0.194945	-0.448408	0.000192
