data_functionalizedCrystal
_audit_creation_method	'MofGen! by Chris Wilmer'
_symmetry_space_group_name_H-M	'P1'
_symmetry_Int_Tables_number	1
_symmetry_cell_setting	triclinic
loop_
_symmetry_equiv_pos_as_xyz
  x,y,z
_cell_length_a	19.805407
_cell_length_b	19.805405
_cell_length_c	19.805399
_cell_angle_alpha	90.030709
_cell_angle_beta	90.016510
_cell_angle_gamma	90.022560
loop_
_atom_site_label
_atom_site_type_symbol
_atom_site_fract_x
_atom_site_fract_y
_atom_site_fract_z
Zn1	Zn	-1.034718	0.269539	-0.382705
Zn2	Zn	-1.034638	0.382730	-0.269513
Zn3	Zn	-0.921538	0.269553	-0.269530
Zn4	Zn	-0.921496	0.382684	-0.382661
O5	O	-0.978097	0.326126	-0.326102
O6	O	-1.129424	0.284568	-0.367701
O7	O	-1.019619	0.367742	-0.174799
O8	O	-0.936602	0.174834	-0.284569
O9	O	-1.129365	0.367729	-0.284540
O10	O	-1.019755	0.174824	-0.367717
O11	O	-0.936525	0.284591	-0.174811
O12	O	-0.826816	0.284546	-0.284526
O13	O	-0.936531	0.367650	-0.477383
O14	O	-0.826785	0.367663	-0.367642
O15	O	-1.019715	0.284523	-0.477415
O16	O	-1.019578	0.477441	-0.284497
O17	O	-0.936453	0.477407	-0.367626
C18	C	-0.802241	0.326102	-0.326081
C19	C	-0.727009	0.326107	-0.326089
C20	C	-0.691696	0.282881	-0.369456
C21	C	-0.621008	0.282883	-0.369457
C22	C	-0.585634	0.326116	-0.326093
C23	C	-0.620952	0.369344	-0.282721
C24	C	-0.691639	0.369337	-0.282718
C25	C	-0.335878	0.369368	-0.282735
C26	C	-0.265186	0.369372	-0.282744
C27	C	-0.265247	0.282914	-0.369474
C28	C	-0.335935	0.282908	-0.369470
C29	C	-0.371246	0.326133	-0.326096
C30	C	-0.447895	0.326129	-0.326095
C31	C	-0.508987	0.326123	-0.326098
C32	C	-0.978021	0.501983	-0.326069
C33	C	-0.978050	0.577214	-0.326078
C34	C	-0.154640	0.326147	-0.326117
C35	C	-0.229872	0.326142	-0.326108
C36	C	-0.978127	0.326079	-0.502645
C37	C	-0.978140	0.326059	-0.577877
C38	C	-0.978192	0.149584	-0.326150
C39	C	-0.978233	0.074352	-0.326170
C40	C	-1.021376	0.612554	-0.282838
C41	C	-1.021404	0.683242	-0.282853
C42	C	-0.978104	0.718590	-0.326105
C43	C	-0.934777	0.683246	-0.369350
C44	C	-0.934752	0.612559	-0.369338
C45	C	-0.934877	0.968319	-0.369400
C46	C	-0.934903	1.039011	-0.369407
C47	C	-1.021529	1.039003	-0.282915
C48	C	-1.021504	0.968316	-0.282903
C49	C	-0.978180	0.932977	-0.326150
C50	C	-0.978150	0.856329	-0.326134
C51	C	-0.978130	0.795237	-0.326118
C52	C	-0.934885	0.282759	-0.613227
C53	C	-0.934894	0.282746	-0.683916
C54	C	-0.978162	0.326030	-0.719253
C55	C	-1.021419	0.369336	-0.683898
C56	C	-1.021406	0.369352	-0.613210
C57	C	-1.021473	0.369272	-0.968971
C58	C	-1.021484	0.369252	-1.039663
C59	C	-0.934961	0.282666	-1.039676
C60	C	-0.934948	0.282682	-0.968989
C61	C	-0.978202	0.325990	-0.933640
C62	C	-0.978190	0.326005	-0.856992
C63	C	-0.978178	0.326013	-0.795900
C64	C	-0.978107	0.326124	-0.150246
C65	C	-0.978225	0.325954	-0.075015
H66	H	-0.364621	0.404565	-0.247418
C67	C	-1.069061	0.722112	-0.235281
N68	N	-1.104958	0.751389	-0.199447
C69	C	-0.374842	0.235347	-0.417171
N70	N	-0.404146	0.199520	-0.453097
C71	C	-1.069190	1.077881	-0.235345
N72	N	-1.105086	1.107163	-0.199515
H73	H	-1.056720	0.404502	-1.068433
H74	H	-0.899644	1.067789	-0.404633
H75	H	-0.899669	0.247488	-0.712695
C76	C	-0.887349	0.235067	-0.930122
N77	N	-0.851494	0.199204	-0.900849
H78	H	-0.236386	0.404579	-0.247430
H79	H	-0.899740	0.247405	-1.068466
C80	C	-0.887253	0.929456	-0.417007
N81	N	-0.851394	0.900182	-0.452881
H82	H	-0.899655	0.247507	-0.584461
C83	C	-1.068861	0.417103	-0.722771
N84	N	-1.104541	0.453135	-0.752049
C85	C	-1.068992	0.416983	-0.574326
N86	N	-1.104836	0.452861	-0.545038
H87	H	-0.720493	0.247678	-0.404769
C88	C	-0.582037	0.416898	-0.235020
N89	N	-0.552728	0.452720	-0.199092
C90	C	-0.730483	0.416891	-0.235012
N91	N	-0.759739	0.452709	-0.199077
H92	H	-0.592259	0.247686	-0.404772
C93	C	-1.069091	0.416874	-0.930096
N94	N	-1.104973	0.452717	-0.900814
H95	H	-0.236488	0.247716	-0.404789
C96	C	-1.069009	0.573678	-0.235255
N97	N	-1.104889	0.544398	-0.199416
H98	H	-0.899524	0.712031	-0.404569
H99	H	-0.899473	0.583786	-0.404549
C100	C	-1.069132	0.929437	-0.235317
N101	N	-1.105006	0.900155	-0.199473
