data_functionalizedCrystal
_audit_creation_method	'MofGen! by Chris Wilmer'
_symmetry_space_group_name_H-M	'P1'
_symmetry_Int_Tables_number	1
_symmetry_cell_setting	triclinic
loop_
_symmetry_equiv_pos_as_xyz
  x,y,z
_cell_length_a	13.339070
_cell_length_b	13.185407
_cell_length_c	16.053802
_cell_angle_alpha	88.298640
_cell_angle_beta	86.730022
_cell_angle_gamma	96.198611
loop_
_atom_site_label
_atom_site_type_symbol
_atom_site_fract_x
_atom_site_fract_y
_atom_site_fract_z
O1	O	0.248578	1.376354	-0.069418
O2	O	0.748578	1.876354	0.430582
O3	O	0.153841	1.087522	-0.069420
O4	O	0.653841	1.587522	0.430580
O5	O	0.339448	1.198790	-0.069422
O6	O	0.839448	1.698790	0.430578
O7	O	0.062970	1.265087	-0.069416
O8	O	0.562970	1.765087	0.430584
O9	O	0.329264	1.192655	0.069437
O10	O	0.829264	1.692655	0.569437
O11	O	0.143657	1.081388	0.069439
O12	O	0.643657	1.581388	0.569439
O13	O	0.238394	1.370220	0.069441
O14	O	0.738394	1.870220	0.569441
Zn15	Zn	0.189408	1.224830	0.091487
Zn16	Zn	0.689408	1.724830	0.591487
Zn17	Zn	0.202826	1.232912	-0.091466
Zn18	Zn	0.702826	1.732912	0.408534
O19	O	0.052786	1.258952	0.069443
O20	O	0.552786	1.758952	0.569443
C21	C	0.139144	1.046732	0.000009
C22	C	0.639144	1.546732	0.500009
C23	C	0.110538	0.934328	0.000008
C24	C	0.610538	1.434328	0.500008
C25	C	0.383552	0.562466	0.000006
C26	C	0.883552	1.062466	0.500006
C27	C	0.410432	0.668075	0.000012
C28	C	0.910432	1.168075	0.500012
C29	C	0.335461	0.734643	0.000011
C30	C	0.835461	1.234643	0.500011
C31	C	0.233605	0.695592	0.000004
C32	C	0.733605	1.195592	0.500004
C33	C	0.206721	0.589973	0.000004
C34	C	0.706721	1.089973	0.500004
C35	C	0.158630	0.762150	0.000009
C36	C	0.658630	1.262150	0.500009
C37	C	0.056774	0.723099	0.000002
C38	C	0.556774	1.223099	0.500002
C39	C	0.029896	0.617490	0.000002
C40	C	0.529896	1.117490	0.500002
C41	C	0.104867	0.550921	0.000003
C42	C	0.604867	1.050921	0.500003
C43	C	0.185514	0.867770	0.000009
C44	C	0.685514	1.367770	0.500009
C45	C	0.008683	0.895276	0.000007
C46	C	0.508683	1.395276	0.500007
C47	C	-0.018197	0.789668	0.000001
C48	C	0.481803	1.289668	0.500001
C49	C	0.023238	1.273218	0.000014
C50	C	0.523238	1.773218	0.500014
C51	C	-0.079976	1.306599	0.000016
C52	C	0.420024	1.806599	0.500016
C53	C	-0.515432	1.047045	0.000003
C54	C	-0.015432	1.547045	0.500003
C55	C	-0.418460	1.015678	0.000014
C56	C	0.081540	1.515678	0.500014
C57	C	-0.333834	1.088406	0.000015
C58	C	0.166166	1.588406	0.500015
C59	C	-0.346190	1.192506	0.000003
C60	C	0.153810	1.692506	0.500003
C61	C	-0.443172	1.223876	-0.000002
C62	C	0.056828	1.723876	0.499998
C63	C	-0.261575	1.265236	0.000010
C64	C	0.238425	1.765236	0.500010
C65	C	-0.273930	1.369336	-0.000001
C66	C	0.226070	1.869336	0.499999
C67	C	-0.370904	1.400701	-0.000007
C68	C	0.129096	1.900701	0.499993
C69	C	-0.455529	1.327973	-0.000007
C70	C	0.044471	1.827973	0.499993
C71	C	-0.164593	1.233867	0.000015
C72	C	0.335407	1.733867	0.500015
C73	C	-0.092333	1.410697	0.000011
C74	C	0.407667	1.910697	0.500011
C75	C	-0.189305	1.442064	-0.000001
C76	C	0.310695	1.942064	0.499999
C77	C	0.368997	1.184524	0.000005
C78	C	0.868997	1.684524	0.500005
C79	C	0.472211	1.151143	-0.000002
C80	C	0.972211	1.651143	0.499998
C81	C	0.253090	1.411010	0.000010
C82	C	0.753090	1.911010	0.500010
C83	C	0.281697	1.523414	0.000005
C84	C	0.781697	2.023414	0.500005
N85	N	0.180254	1.219321	0.216347
N86	N	0.680254	1.719321	0.716347
N87	N	0.211990	1.238427	-0.216326
N88	N	0.711990	1.738427	0.283674
C89	C	0.259215	1.266696	0.260040
C90	C	0.759215	1.766696	0.760040
C91	C	0.252805	1.262855	0.347447
C92	C	0.752805	1.762855	0.847447
C93	C	0.167430	1.211644	0.391159
C94	C	0.667430	1.711644	0.891159
C95	C	0.088464	1.164263	0.347460
C96	C	0.588464	1.664263	0.847460
C97	C	0.094878	1.168099	0.260055
C98	C	0.594878	1.668099	0.760055
C99	C	0.139439	1.194881	0.652569
C100	C	0.639439	1.694881	1.152569
C101	C	0.133029	1.191051	0.739981
C102	C	0.633029	1.691051	1.239981
C103	C	0.297372	1.289642	0.739961
C104	C	0.797372	1.789642	1.239961
C105	C	0.303776	1.293479	0.652555
C106	C	0.803776	1.793479	1.152555
C107	C	0.224812	1.246093	0.608863
C108	C	0.724812	1.746093	1.108863
N109	N	0.160874	1.207719	0.480503
N110	N	0.660874	1.707719	0.980503
N111	N	0.231372	1.250012	0.519521
N112	N	0.731372	1.750012	1.019521
H113	H	0.444580	0.508257	0.000031
H114	H	0.944580	1.008257	0.500031
Br115	Br	0.022509	1.509406	0.000017
Br116	Br	0.522509	2.009406	0.500017
Br117	Br	0.375083	1.336210	0.200726
Br118	Br	0.875083	1.836210	0.700726
Br119	Br	0.032276	1.130576	0.593278
Br120	Br	0.532276	1.630576	1.093278
Br121	Br	-0.012284	1.103792	0.200757
Br122	Br	0.487716	1.603792	0.700757
H123	H	-0.052365	0.949477	0.000009
H124	H	0.447635	1.449477	0.500009
Br125	Br	-0.027401	1.094751	0.406780
Br126	Br	0.472599	1.594751	0.906780
H127	H	-0.380959	1.485465	-0.000007
H128	H	0.119041	1.985465	0.499993
H129	H	-0.154544	1.149108	0.000028
H130	H	0.345456	1.649108	0.500028
Br131	Br	0.323742	0.920754	0.000020
Br132	Br	0.823742	1.420754	0.500020
Br133	Br	0.548658	0.721066	0.000029
Br134	Br	1.048658	1.221066	0.500029
H135	H	-0.408407	0.930920	0.000019
H136	H	0.091593	1.430920	0.500019
Br137	Br	-0.108338	0.564493	0.000006
Br138	Br	0.391662	1.064493	0.500006
H139	H	0.082987	0.464925	-0.000006
H140	H	0.582987	0.964925	0.499994
Br141	Br	0.359970	1.327146	0.406748
Br142	Br	0.859970	1.827146	0.906748
H143	H	0.361661	1.328220	0.775543
H144	H	0.861661	1.828220	1.275543
Br145	Br	-0.156425	0.736658	-0.000012
Br146	Br	0.343575	1.236658	0.499988
Br147	Br	-0.202227	1.045835	0.000029
Br148	Br	0.297773	1.545835	0.500029
Br149	Br	0.419640	1.362984	0.593229
Br150	Br	0.919640	1.862984	1.093229
Br151	Br	0.017149	1.121550	0.799299
Br152	Br	0.517149	1.621550	1.299299
H153	H	0.357353	0.820634	0.000016
H154	H	0.857353	1.320634	0.500016
H155	H	-0.584340	0.987842	0.000008
H156	H	-0.084340	1.487842	0.500008
Br157	Br	-0.587141	1.370541	-0.000035
Br158	Br	-0.087141	1.870541	0.499965
H159	H	-0.199379	1.526824	-0.000016
H160	H	0.300621	2.026824	0.499984
