data_functionalizedCrystal
_audit_creation_method	'MofGen! by Chris Wilmer'
_symmetry_space_group_name_H-M	'P1'
_symmetry_Int_Tables_number	1
_symmetry_cell_setting	triclinic
loop_
_symmetry_equiv_pos_as_xyz
  x,y,z
_cell_length_a	14.519709
_cell_length_b	15.995350
_cell_length_c	13.596369
_cell_angle_alpha	89.996243
_cell_angle_beta	90.000291
_cell_angle_gamma	83.586260
loop_
_atom_site_label
_atom_site_type_symbol
_atom_site_fract_x
_atom_site_fract_y
_atom_site_fract_z
O1	O	1.223669	0.109760	-0.081658
O2	O	1.723669	0.609760	0.418342
O3	O	0.955169	0.122685	-0.081688
O4	O	1.455169	0.622685	0.418312
O5	O	1.096759	-0.005654	-0.081671
O6	O	1.596759	0.494346	0.418329
O7	O	1.082079	0.238099	-0.081675
O8	O	1.582079	0.738099	0.418325
O9	O	1.096744	-0.005661	0.081912
O10	O	1.596744	0.494339	0.581912
O11	O	0.955155	0.122679	0.081895
O12	O	1.455155	0.622679	0.581895
O13	O	1.223655	0.109753	0.081925
O14	O	1.723655	0.609753	0.581925
Zn15	Zn	1.089403	0.116215	0.107882
Zn16	Zn	1.589403	0.616215	0.607882
Zn17	Zn	1.089421	0.116224	-0.107645
Zn18	Zn	1.589421	0.616224	0.392355
O19	O	1.082065	0.238093	0.081908
O20	O	1.582065	0.738093	0.581908
C21	C	0.920803	0.122080	0.000100
C22	C	1.420803	0.622080	0.500100
C23	C	0.818425	0.120275	0.000088
C24	C	1.318425	0.620275	0.500088
C25	C	0.443541	0.113629	0.000133
C26	C	0.943541	0.613629	0.500133
C27	C	0.547846	0.115475	0.000120
C28	C	1.047846	0.615475	0.500120
C29	C	0.630980	0.116952	0.000110
C30	C	1.130980	0.616952	0.500110
C31	C	0.735291	0.118797	0.000099
C32	C	1.235291	0.618797	0.500099
C33	C	1.096145	-0.036853	0.000118
C34	C	1.596145	0.463147	0.500118
C35	C	1.094325	-0.129806	0.000112
C36	C	1.594325	0.370194	0.500112
C37	C	1.087791	-0.467563	0.000115
C38	C	1.587791	0.032437	0.500115
C39	C	0.986954	-0.420280	-0.000263
C40	C	1.486954	0.079720	0.499737
C41	C	0.988773	-0.323587	0.000106
C42	C	1.488773	0.176413	0.500106
C43	C	1.091032	-0.299998	0.000113
C44	C	1.591032	0.200002	0.500113
C45	C	1.140761	-0.341005	0.093531
C46	C	1.640761	0.158995	0.593531
C47	C	1.138228	-0.437644	0.093609
C48	C	1.638228	0.062356	0.593609
C49	C	1.140327	-0.437992	-0.092415
C50	C	1.640327	0.062008	0.407585
C51	C	1.140303	-0.341046	-0.093650
C52	C	1.640303	0.158954	0.406350
C53	C	1.092869	-0.205298	0.000115
C54	C	1.592869	0.294702	0.500115
C55	C	1.085957	-0.562264	0.000119
C56	C	1.585957	-0.062264	0.500119
C57	C	1.258021	0.110359	0.000135
C58	C	1.758021	0.610359	0.500135
C59	C	1.360399	0.112164	0.000140
C60	C	1.860399	0.612164	0.500140
C61	C	1.082679	0.269292	0.000116
C62	C	1.582679	0.769292	0.500116
C63	C	1.084498	0.362245	0.000116
C64	C	1.584498	0.862245	0.500116
N65	N	1.089397	0.116208	0.254974
N66	N	1.589397	0.616208	0.754974
N67	N	1.089434	0.116224	-0.254737
N68	N	1.589434	0.616224	0.245263
C69	C	1.089420	0.116225	0.656265
C70	C	1.589420	0.616225	1.156265
C71	C	1.089411	0.116223	0.544614
C72	C	1.589411	0.616223	1.044614
C73	C	1.089409	0.116217	0.455623
C74	C	1.589409	0.616217	0.955623
C75	C	1.089399	0.116214	0.343965
C76	C	1.589399	0.616214	0.843965
H77	H	0.946656	-0.438870	-0.067255
H78	H	1.446656	0.061130	0.432745
H79	H	0.949683	-0.295221	-0.066860
H80	H	1.449683	0.204779	0.433140
N81	N	1.236291	-0.480210	0.099256
N82	N	1.736291	0.019790	0.599256
H83	H	1.243745	-0.516078	0.160491
H84	H	1.743745	-0.016078	0.660491
H85	H	1.249803	-0.516853	0.039341
H86	H	1.749803	-0.016853	0.539341
N87	N	1.239087	-0.320562	-0.101118
N88	N	1.739087	0.179438	0.398882
H89	H	1.247431	-0.289344	-0.164498
H90	H	1.747431	0.210656	0.335502
H91	H	1.253300	-0.284249	-0.043523
H92	H	1.753300	0.215751	0.456477
N93	N	1.240286	-0.322179	0.098129
N94	N	1.740286	0.177821	0.598129
H95	H	1.254127	-0.286798	0.039563
H96	H	1.754127	0.213202	0.539563
H97	H	1.250547	-0.290518	0.160729
H98	H	1.750547	0.209482	0.660729
N99	N	1.095013	-0.303478	0.185614
N100	N	1.595013	0.196522	0.685614
H101	H	1.042085	-0.259926	0.167031
H102	H	1.542085	0.240074	0.667031
H103	H	1.070530	-0.349378	0.225654
H104	H	1.570530	0.150622	0.725654
H105	H	1.107364	-0.458578	-0.163220
H106	H	1.607364	0.041422	0.336780
H107	H	1.103945	-0.313849	-0.162758
H108	H	1.603945	0.186151	0.337242
N109	N	1.090177	-0.461964	0.186098
N110	N	1.590177	0.038036	0.686098
H111	H	1.024931	-0.432518	0.187671
H112	H	1.524931	0.067482	0.687671
H113	H	1.088119	-0.524864	0.187022
H114	H	1.588119	-0.024864	0.687022
N115	N	0.933788	-0.446309	0.087967
N116	N	1.433788	0.053691	0.587967
H117	H	0.974739	-0.488597	0.128181
H118	H	1.474739	0.011403	0.628181
H119	H	0.913676	-0.395231	0.129603
H120	H	1.413676	0.104769	0.629603
H121	H	0.949409	-0.295784	0.067177
H122	H	1.449409	0.204216	0.567177
H123	H	1.214674	-0.469641	-0.093038
H124	H	1.714674	0.030359	0.406962
