data_functionalizedCrystal
_audit_creation_method	'MofGen! by Chris Wilmer'
_symmetry_space_group_name_H-M	'P1'
_symmetry_Int_Tables_number	1
_symmetry_cell_setting	triclinic
loop_
_symmetry_equiv_pos_as_xyz
  x,y,z
_cell_length_a	17.699077
_cell_length_b	23.532357
_cell_length_c	16.776229
_cell_angle_alpha	89.987808
_cell_angle_beta	89.993415
_cell_angle_gamma	83.054434
loop_
_atom_site_label
_atom_site_type_symbol
_atom_site_fract_x
_atom_site_fract_y
_atom_site_fract_z
O1	O	1.003699	0.072005	-0.066287
O2	O	1.503699	0.572005	0.433713
O3	O	0.783270	0.081379	-0.066293
O4	O	1.283270	0.581379	0.433707
O5	O	0.900151	-0.006222	-0.066273
O6	O	1.400151	0.493778	0.433727
O7	O	0.886818	0.159607	-0.066306
O8	O	1.386818	0.659607	0.433694
O9	O	0.900136	-0.006228	0.066303
O10	O	1.400136	0.493772	0.566303
O11	O	0.783255	0.081374	0.066284
O12	O	1.283255	0.581374	0.566284
O13	O	1.003683	0.072000	0.066289
O14	O	1.503683	0.572000	0.566289
Zn15	Zn	0.893467	0.076686	0.087336
Zn16	Zn	1.393467	0.576686	0.587336
Zn17	Zn	0.893487	0.076693	-0.087339
Zn18	Zn	1.393487	0.576693	0.412661
O19	O	0.886802	0.159602	0.066270
O20	O	1.386802	0.659602	0.566270
C21	C	0.755067	0.081041	-0.000005
C22	C	1.255067	0.581041	0.499995
C23	C	0.671054	0.080035	-0.000006
C24	C	1.171054	0.580035	0.499994
C25	C	0.631581	0.079558	0.072262
C26	C	1.131581	0.579558	0.572262
C27	C	0.552643	0.078604	0.072264
C28	C	1.052643	0.578604	0.572264
C29	C	0.513180	0.078131	-0.000005
C30	C	1.013180	0.578131	0.499995
C31	C	0.552659	0.078606	-0.072279
C32	C	1.052659	0.578606	0.427721
C33	C	0.631596	0.079556	-0.072279
C34	C	1.131596	0.579556	0.427721
C35	C	0.234316	0.074773	-0.072279
C36	C	0.734316	0.574773	0.427721
C37	C	0.155373	0.073825	-0.072274
C38	C	0.655373	0.573825	0.427726
C39	C	0.155364	0.073821	0.072263
C40	C	0.655364	0.573821	0.572263
C41	C	0.234300	0.074771	0.072263
C42	C	0.734300	0.574771	0.572263
C43	C	0.273773	0.075244	-0.000011
C44	C	0.773773	0.575244	0.499989
C45	C	0.359366	0.076277	-0.000011
C46	C	0.859366	0.576277	0.499989
C47	C	0.427587	0.077101	-0.000005
C48	C	0.927587	0.577101	0.499995
C49	C	0.899810	-0.027443	0.000017
C50	C	1.399810	0.472557	0.500017
C51	C	0.898807	-0.090664	0.000025
C52	C	1.398807	0.409336	0.500025
C53	C	0.892521	-0.482690	-0.072286
C54	C	1.392521	0.017310	0.427714
C55	C	0.891567	-0.542093	-0.072290
C56	C	1.391567	-0.042093	0.427710
O57	O	0.891056	-0.572808	-0.133751
O58	O	1.391056	-0.072808	0.366249
N59	N	0.891086	-0.571808	-0.000024
N60	N	1.391086	-0.071808	0.499976
C61	C	0.891551	-0.542117	0.072252
C62	C	1.391551	-0.042117	0.572252
O63	O	0.891053	-0.572847	0.133720
O64	O	1.391053	-0.072847	0.633720
C65	C	0.892499	-0.482716	0.072256
C66	C	1.392499	0.017284	0.572256
C67	C	0.892987	-0.453004	-0.000016
C68	C	1.392987	0.046996	0.499984
C69	C	0.893009	-0.452979	-0.144551
C70	C	1.393009	0.047021	0.355449
C71	C	0.893963	-0.393581	-0.144546
C72	C	1.393963	0.106419	0.355454
C73	C	0.894430	-0.363895	-0.072276
C74	C	1.394430	0.136105	0.427724
C75	C	0.893942	-0.393606	-0.000011
C76	C	1.393942	0.106394	0.499989
C77	C	0.892958	-0.453026	0.144530
C78	C	1.392958	0.046974	0.644530
C79	C	0.893905	-0.393620	0.144528
C80	C	1.393905	0.106380	0.644528
C81	C	0.894394	-0.363909	0.072257
C82	C	1.394394	0.136091	0.572257
C83	C	0.895363	-0.304522	0.072264
C84	C	1.395363	0.195478	0.572264
N85	N	0.895844	-0.274807	-0.000002
N86	N	1.395844	0.225193	0.499998
C87	C	0.895377	-0.304493	-0.072272
C88	C	1.395377	0.195507	0.427728
C89	C	0.889559	-0.666865	0.072238
C90	C	1.389559	-0.166865	0.572238
C91	C	0.888617	-0.726266	0.072236
C92	C	1.388617	-0.226266	0.572236
C93	C	0.888632	-0.726237	-0.072307
C94	C	1.388632	-0.226237	0.427693
C95	C	0.889580	-0.666835	-0.072303
C96	C	1.389580	-0.166835	0.427697
C97	C	0.890040	-0.637149	-0.000028
C98	C	1.390040	-0.137149	0.499972
C99	C	0.897383	-0.179753	-0.072257
C100	C	1.397383	0.320247	0.427743
C101	C	0.898341	-0.120350	-0.072245
C102	C	1.398341	0.379650	0.427755
C103	C	0.898321	-0.120384	0.072297
C104	C	1.398321	0.379616	0.572297
C105	C	0.897368	-0.179782	0.072286
C106	C	1.397368	0.320218	0.572286
C107	C	0.896896	-0.209465	0.000003
C108	C	1.396896	0.290535	0.500003
O109	O	0.895872	-0.273769	0.133694
O110	O	1.395872	0.226231	0.633694
O111	O	0.895865	-0.273755	-0.133730
O112	O	1.395865	0.226245	0.366270
C113	C	1.031886	0.072338	-0.000000
C114	C	1.531886	0.572338	0.500000
C115	C	1.115899	0.073344	-0.000004
C116	C	1.615899	0.573344	0.499996
C117	C	0.887143	0.180822	-0.000022
C118	C	1.387143	0.680822	0.499978
C119	C	0.888146	0.244043	-0.000035
C120	C	1.388146	0.744043	0.499965
N121	N	0.893458	0.076681	0.206547
N122	N	1.393458	0.576681	0.706547
N123	N	0.893501	0.076694	-0.206551
N124	N	1.393501	0.576694	0.293449
C125	C	0.945229	0.037907	0.248273
C126	C	1.445229	0.537907	0.748273
C127	C	0.945233	0.037906	0.331725
C128	C	1.445233	0.537906	0.831725
C129	C	0.893470	0.076683	0.373450
C130	C	1.393470	0.576683	0.873450
C131	C	0.841694	0.115459	0.331719
C132	C	1.341694	0.615459	0.831719
C133	C	0.841686	0.115456	0.248268
C134	C	1.341686	0.615456	0.748268
C135	C	0.841721	0.115470	0.668266
C136	C	1.341721	0.615470	1.168266
C137	C	0.841734	0.115471	0.751722
C138	C	1.341734	0.615471	1.251722
C139	C	0.945268	0.037920	0.751723
C140	C	1.445268	0.537920	1.251723
C141	C	0.945260	0.037917	0.668272
C142	C	1.445260	0.537917	1.168272
C143	C	0.893482	0.076691	0.626548
C144	C	1.393482	0.576691	1.126548
C145	C	0.893477	0.076690	0.536060
C146	C	1.393477	0.576690	1.036060
C147	C	0.893478	0.076687	0.463937
C148	C	1.393478	0.576687	0.963937
H149	H	0.663734	0.079946	-0.131127
H150	H	1.163734	0.579946	0.368873
H151	H	0.898705	-0.096203	0.131137
H152	H	1.398705	0.403797	0.631137
H153	H	0.123216	0.073434	0.131112
H154	H	0.623216	0.573434	0.631112
O155	O	1.001115	-0.003906	0.796721
O156	O	1.501115	0.496094	1.296721
H157	H	0.969483	-0.031563	0.834752
H158	H	1.469483	0.468437	1.334752
H159	H	0.520522	0.078217	-0.131121
H160	H	1.020522	0.578217	0.368879
O161	O	0.785838	0.157276	0.203271
O162	O	1.285838	0.657276	0.703271
H163	H	0.749235	0.133330	0.165282
H164	H	1.249235	0.633330	0.665282
H165	H	0.987413	0.006344	0.634302
H166	H	1.487413	0.506344	1.134302
H167	H	0.894268	-0.369452	0.203385
H168	H	1.394268	0.130548	0.703385
O169	O	1.001070	-0.003912	0.376735
O170	O	1.501070	0.496088	0.876735
H171	H	1.037658	0.020033	0.414745
H172	H	1.537658	0.520033	0.914745
H173	H	0.896977	-0.203975	0.131135
H174	H	1.396977	0.296025	0.631135
O175	O	0.785913	0.157305	0.796731
O176	O	1.285913	0.657305	1.296731
H177	H	0.749906	0.184267	0.753699
H178	H	1.249906	0.684267	1.253699
O179	O	0.112801	0.073310	-0.150221
O180	O	0.612801	0.573310	0.349779
H181	H	0.083882	0.034077	-0.153651
H182	H	0.583882	0.534077	0.346349
O183	O	0.785882	0.157292	0.623269
O184	O	1.285882	0.657292	1.123269
H185	H	0.795187	0.201680	0.639264
H186	H	1.295187	0.701680	1.139264
O187	O	0.674143	0.080076	0.150209
O188	O	1.174143	0.580076	0.650209
H189	H	0.633430	0.079581	0.200462
H190	H	1.133430	0.579581	0.700462
H191	H	0.888250	-0.750418	-0.131153
H192	H	1.388250	-0.250418	0.368847
O193	O	0.892428	-0.485059	0.222484
O194	O	1.392428	0.014941	0.722484
H195	H	0.891694	-0.531354	0.210355
H196	H	1.391694	-0.031354	0.710355
H197	H	0.520509	0.078206	0.131112
H198	H	1.020509	0.578206	0.631112
H199	H	0.799543	0.147030	0.365696
H200	H	1.299543	0.647030	0.865696
H201	H	0.266445	0.075156	-0.131129
H202	H	0.766445	0.575156	0.368871
H203	H	0.266427	0.075160	0.131111
H204	H	0.766427	0.575160	0.631111
O205	O	0.888097	-0.758311	0.150184
O206	O	1.388097	-0.258311	0.650184
H207	H	0.888576	-0.727682	0.200434
H208	H	1.388576	-0.227682	0.700434
H209	H	0.898740	-0.096162	-0.131100
H210	H	1.398740	0.403838	0.368900
H211	H	0.894358	-0.369394	-0.203397
H212	H	1.394358	0.130606	0.296603
O213	O	0.896867	-0.211764	-0.150216
O214	O	1.396867	0.288236	0.349784
H215	H	0.897370	-0.181116	-0.200460
H216	H	1.397370	0.318884	0.299540
O217	O	0.892498	-0.484984	-0.222513
O218	O	1.392498	0.015016	0.277487
H219	H	0.943656	-0.517200	-0.225984
H220	H	1.443656	-0.017200	0.274016
O221	O	0.890094	-0.634788	-0.150251
O222	O	1.390094	-0.134788	0.349749
H223	H	0.889604	-0.665416	-0.200501
H224	H	1.389604	-0.165416	0.299499
O225	O	1.001047	-0.003931	0.203276
O226	O	1.501047	0.496069	0.703276
H227	H	0.992345	0.002579	0.138237
H228	H	1.492345	0.502579	0.638237
O229	O	0.890076	-0.634849	0.150197
O230	O	1.390076	-0.134849	0.650197
H231	H	0.889592	-0.665497	0.200441
H232	H	1.389592	-0.165497	0.700441
