data_functionalizedCrystal
_audit_creation_method	'MofGen! by Chris Wilmer'
_symmetry_space_group_name_H-M	'P1'
_symmetry_Int_Tables_number	1
_symmetry_cell_setting	triclinic
loop_
_symmetry_equiv_pos_as_xyz
  x,y,z
_cell_length_a	12.811439
_cell_length_b	12.837942
_cell_length_c	11.892095
_cell_angle_alpha	94.302569
_cell_angle_beta	91.497754
_cell_angle_gamma	89.411061
loop_
_atom_site_label
_atom_site_type_symbol
_atom_site_fract_x
_atom_site_fract_y
_atom_site_fract_z
O1	O	-1.403420	-0.143153	-0.049853
O2	O	-1.101351	-0.156174	-0.018888
O3	O	-1.245687	0.001316	-0.033691
O4	O	-1.259084	-0.300643	-0.035050
O5	O	-1.233650	-0.011795	-0.220464
O6	O	-1.089315	-0.169285	-0.205661
O7	O	-1.391383	-0.156264	-0.236626
Zn8	Zn	-1.238438	-0.164856	-0.250798
Zn9	Zn	-1.254296	-0.147582	-0.004716
O10	O	-1.247047	-0.313754	-0.221823
C11	C	-1.056401	-0.161599	-0.108284
C12	C	-0.940395	-0.158218	-0.096392
C13	C	-0.709283	-0.166140	-0.277688
C14	C	-0.600285	-0.162963	-0.266521
C15	C	-0.613399	-0.148680	-0.062890
C16	C	-0.722397	-0.151857	-0.074057
C17	C	-0.770335	-0.160589	-0.181460
C18	C	-0.879335	-0.163773	-0.192627
C19	C	-0.892447	-0.149483	0.011003
C20	C	-0.783449	-0.146306	0.022171
C21	C	-1.235143	0.033433	-0.126613
C22	C	-1.221647	0.148666	-0.125228
C23	C	-0.436333	-0.150843	-0.147231
C24	C	-0.552338	-0.154235	-0.159125
C25	C	-1.257591	-0.345871	-0.128899
C26	C	-1.271088	-0.461103	-0.130277
N27	N	-1.227622	-0.176644	-0.418743
C28	C	-1.383905	0.387757	-0.141837
C29	C	-1.371229	0.496029	-0.140536
C30	C	-1.183618	0.473484	-0.121315
C31	C	-1.196295	0.365212	-0.122617
C32	C	-1.296441	0.322353	-0.132880
C33	C	-1.309117	0.214078	-0.134189
C34	C	-1.121508	0.191536	-0.114961
C35	C	-1.108831	0.299808	-0.113659
C36	C	-1.340373	-0.053696	-0.666954
C37	C	-1.332821	-0.061944	-0.784522
C38	C	-1.204963	-0.201382	-0.771447
C39	C	-1.212514	-0.193134	-0.653879
C40	C	-1.280223	-0.119290	-0.601638
C41	C	-1.287779	-0.111048	-0.484069
C42	C	-1.159916	-0.250480	-0.470995
C43	C	-1.152364	-0.258728	-0.588563
N44	N	-1.265119	-0.135785	0.163228
H45	H	-0.550580	-0.167489	-0.344880
H46	H	-1.442451	0.549279	-0.147827
O47	O	-1.000823	0.346045	-0.102592
H48	H	-0.942134	0.282372	-0.096576
O49	O	-0.931038	-0.173199	-0.308466
H50	H	-0.982672	-0.104413	-0.318662
H51	H	-1.465448	0.352860	-0.150205
O52	O	-1.360778	-0.031385	-0.427707
H53	H	-1.419269	-0.071904	-0.379768
O54	O	-0.731744	-0.136878	0.138009
H55	H	-0.753535	-0.204641	0.184924
O56	O	-0.760999	-0.175570	-0.393521
H57	H	-0.700233	-0.178898	-0.458561
O58	O	-0.958294	-0.143487	0.114804
H59	H	-1.042142	-0.147156	0.088999
O60	O	-1.027161	0.120995	-0.105294
H61	H	-1.052797	0.038506	-0.107917
O62	O	-0.561687	-0.139259	0.052946
H63	H	-0.475637	-0.137986	0.044539
O64	O	-1.417126	0.167844	-0.145243
H65	H	-1.475815	0.231520	-0.151237
H66	H	-1.102084	0.508401	-0.112948
H67	H	-1.395511	0.006424	-0.624419
H68	H	-1.381800	-0.008529	-0.837700
O69	O	-1.131939	-0.281024	-0.827801
H70	H	-1.136800	-0.275738	-0.920526
H71	H	-1.097234	-0.318848	-0.631111
O72	O	-1.095025	-0.321230	-0.400548
H73	H	-1.111644	-0.303087	-0.310018
