data_functionalizedCrystal
_audit_creation_method	'MofGen! by Chris Wilmer'
_symmetry_space_group_name_H-M	'P1'
_symmetry_Int_Tables_number	1
_symmetry_cell_setting	triclinic
loop_
_symmetry_equiv_pos_as_xyz
  x,y,z
_cell_length_a	18.215407
_cell_length_b	14.908520
_cell_length_c	18.215399
_cell_angle_alpha	93.269364
_cell_angle_beta	89.982632
_cell_angle_gamma	93.318033
loop_
_atom_site_label
_atom_site_type_symbol
_atom_site_fract_x
_atom_site_fract_y
_atom_site_fract_z
Zn1	Zn	1.108174	-0.359230	-0.432973
Zn2	Zn	1.100986	-0.510098	-0.317007
Zn3	Zn	0.985106	-0.359251	-0.309927
Zn4	Zn	0.977979	-0.510040	-0.440034
O5	O	1.043061	-0.434655	-0.374985
O6	O	1.210204	-0.379258	-0.417598
O7	O	1.085589	-0.490121	-0.213085
O8	O	1.007422	-0.233004	-0.320331
O9	O	1.204923	-0.490100	-0.332398
O10	O	1.097840	-0.232988	-0.410732
O11	O	1.000452	-0.379295	-0.207883
O12	O	0.881177	-0.379238	-0.327178
O13	O	0.995275	-0.490001	-0.542080
O14	O	0.875941	-0.490022	-0.422767
O15	O	1.090929	-0.379202	-0.536892
O16	O	1.078678	-0.636335	-0.339245
O17	O	0.988305	-0.636292	-0.429632
C18	C	0.851856	-0.434627	-0.374971
C19	C	0.770057	-0.434637	-0.374983
C20	C	0.584606	-0.377040	-0.419427
C21	C	0.507747	-0.377048	-0.419430
C22	C	0.502267	-0.492295	-0.330557
C23	C	0.579125	-0.492282	-0.330551
C24	C	0.620292	-0.434656	-0.374990
C25	C	0.466575	-0.434677	-0.374999
C26	C	0.383241	-0.434685	-0.375002
C27	C	0.703632	-0.434646	-0.374987
C28	C	1.031958	-0.669048	-0.385989
C29	C	1.027275	-0.769322	-0.390721
C30	C	1.112678	-0.957731	-0.305568
C31	C	1.108281	-1.051948	-0.310012
C32	C	1.014088	-1.051973	-0.404056
C33	C	1.018485	-0.957757	-0.399612
C34	C	1.067781	-0.910639	-0.350366
C35	C	1.072174	-0.816421	-0.345919
C36	C	0.977985	-0.816448	-0.439966
C37	C	0.973588	-0.910665	-0.444410
C38	C	1.235013	-0.434683	-0.375000
C39	C	1.316811	-0.434695	-0.375006
C40	C	1.043109	-0.434593	-0.566935
C41	C	1.043129	-0.434566	-0.648733
C42	C	1.054228	-0.199347	-0.363954
C43	C	1.058986	-0.099072	-0.359254
C44	C	1.092956	-0.376819	-0.834224
C45	C	1.092966	-0.376792	-0.911082
C46	C	0.993361	-0.492174	-0.916473
C47	C	0.993348	-0.492195	-0.839616
C48	C	1.043150	-0.434519	-0.798494
C49	C	1.043173	-0.434471	-0.952208
C50	C	1.043183	-0.434443	-1.035541
C51	C	1.043139	-0.434545	-0.715156
C52	C	1.043059	-0.434652	-0.183779
C53	C	1.043193	-0.434424	-0.101969
H54	H	1.112311	-0.778058	-0.305818
C55	C	0.618382	-0.555665	-0.281671
H56	H	0.582858	-0.589997	-0.255214
H57	H	0.649987	-0.521102	-0.248027
H58	H	0.646515	-0.595013	-0.311623
H59	H	0.941425	-0.778095	-0.476441
H60	H	0.468739	-0.539213	-0.294378
H61	H	0.478695	-0.330130	-0.455613
C62	C	1.147759	-0.313334	-0.950386
H63	H	1.140633	-0.321575	-1.002048
H64	H	1.196574	-0.326554	-0.938415
H65	H	1.139864	-0.252716	-0.934949
H66	H	0.973958	-1.090353	-0.444155
H67	H	1.152812	-0.919367	-0.265465
H68	H	0.618123	-0.330114	-0.455609
C69	C	1.157664	-1.103747	-0.260732
H70	H	1.187647	-1.062188	-0.230764
H71	H	1.187998	-1.140449	-0.290642
H72	H	1.127809	-1.140550	-0.230372
H73	H	0.933454	-0.949041	-0.484506
H74	H	1.133505	-0.329852	-0.800744
C75	C	0.938591	-0.555621	-0.961710
H76	H	0.945736	-0.547352	-1.012601
H77	H	0.889767	-0.542420	-0.948490
H78	H	0.946491	-0.616242	-0.951953
C79	C	0.938564	-0.555674	-0.800311
H80	H	0.908914	-0.590031	-0.835809
H81	H	0.908130	-0.521172	-0.768705
H82	H	0.964855	-0.594993	-0.772177
