data_functionalizedCrystal
_audit_creation_method	'MofGen! by Chris Wilmer'
_symmetry_space_group_name_H-M	'P1'
_symmetry_Int_Tables_number	1
_symmetry_cell_setting	triclinic
loop_
_symmetry_equiv_pos_as_xyz
  x,y,z
_cell_length_a	14.908571
_cell_length_b	25.639239
_cell_length_c	14.908694
_cell_angle_alpha	93.266315
_cell_angle_beta	83.592472
_cell_angle_gamma	86.734636
loop_
_atom_site_label
_atom_site_type_symbol
_atom_site_fract_x
_atom_site_fract_y
_atom_site_fract_z
Zn1	Zn	1.413187	-0.275253	-0.591468
Zn2	Zn	1.913187	0.224747	-0.091468
Zn3	Zn	1.404309	-0.357334	-0.440091
Zn4	Zn	1.904309	0.142666	0.059909
Zn5	Zn	1.253095	-0.264559	-0.431405
Zn6	Zn	1.753095	0.235441	0.068595
Zn7	Zn	1.261741	-0.357293	-0.582690
Zn8	Zn	1.761741	0.142707	-0.082690
O9	O	1.333083	-0.313610	-0.511414
O10	O	1.833083	0.186390	-0.011414
O11	O	1.538674	-0.290634	-0.578697
O12	O	2.038674	0.209366	-0.078697
O13	O	1.376916	-0.340569	-0.312274
O14	O	1.876916	0.159431	0.187726
O15	O	1.274428	-0.192817	-0.452676
O16	O	1.774428	0.307183	0.047324
O17	O	1.532151	-0.350938	-0.467481
O18	O	2.032151	0.149062	0.032519
O19	O	1.392047	-0.200674	-0.570274
O20	O	1.892047	0.299326	-0.070274
O21	O	1.265820	-0.272407	-0.305892
O22	O	1.765820	0.227593	0.194108
O23	O	1.127577	-0.272368	-0.444164
O24	O	1.627577	0.227632	0.055836
O25	O	1.289164	-0.350869	-0.710519
O26	O	1.789164	0.149131	-0.210519
O27	O	1.133929	-0.340499	-0.555312
O28	O	1.633929	0.159501	-0.055312
O29	O	1.400431	-0.290594	-0.716969
O30	O	1.900431	0.209406	-0.216969
O31	O	1.385300	-0.430489	-0.458969
O32	O	1.885300	0.069511	0.041031
O33	O	1.280555	-0.430459	-0.563735
O34	O	1.780555	0.069541	-0.063735
C35	C	1.097911	-0.305269	-0.497844
C36	C	1.597911	0.194731	0.002156
C37	C	0.997304	-0.301715	-0.492060
C38	C	1.497304	0.198285	0.007940
C39	C	0.814908	-0.366078	-0.596774
C40	C	1.314908	0.133922	-0.096774
C41	C	0.720379	-0.362740	-0.591343
C42	C	1.220379	0.137260	-0.091343
C43	C	0.713717	-0.291698	-0.475771
C44	C	1.213717	0.208302	0.024229
C45	C	0.808246	-0.295036	-0.481202
C46	C	1.308246	0.204964	0.018798
C47	C	0.858838	-0.332228	-0.541705
C48	C	1.358838	0.167772	-0.041705
C49	C	0.953368	-0.335568	-0.547131
C50	C	1.453368	0.164432	-0.047131
C51	C	0.946704	-0.264524	-0.431564
C52	C	1.446704	0.235476	0.068436
C53	C	0.852176	-0.261186	-0.426133
C54	C	1.352176	0.238814	0.073867
C55	C	1.332928	-0.449446	-0.511363
C56	C	1.832928	0.050554	-0.011363
C57	C	1.332947	-0.507561	-0.511377
C58	C	1.832947	-0.007561	-0.011377
C59	C	1.387780	-0.867941	-0.456969
C60	C	1.887780	-0.367941	0.043031
C61	C	1.387816	-0.922547	-0.456983
C62	C	1.887816	-0.422547	0.043017
O63	O	1.434276	-0.950792	-0.410669
O64	O	1.934276	-0.450792	0.089331
N65	N	1.333245	-0.949857	-0.511483
N66	N	1.833245	-0.449857	-0.011483
C67	C	1.278643	-0.922558	-0.565979
C68	C	1.778643	-0.422558	-0.065979
O69	O	1.232230	-0.950801	-0.612337
O70	O	1.732230	-0.450801	-0.112337
C71	C	1.278612	-0.867953	-0.565969
C72	C	1.778612	-0.367953	-0.065969
C73	C	1.333179	-0.840646	-0.511459
C74	C	1.833179	-0.340646	-0.011459
C75	C	1.442343	-0.840634	-0.402464
C76	C	1.942343	-0.340634	0.097536
C77	C	1.442306	-0.786032	-0.402449
C78	C	1.942306	-0.286032	0.097551
C79	C	1.387705	-0.758737	-0.456939
C80	C	1.887705	-0.258737	0.043061
C81	C	1.333142	-0.786044	-0.511443
C82	C	1.833142	-0.286044	-0.011443
C83	C	1.224015	-0.840655	-0.620469
C84	C	1.724015	-0.340655	-0.120469
C85	C	1.223990	-0.786047	-0.620454
C86	C	1.723990	-0.286047	-0.120454
C87	C	1.278557	-0.758740	-0.565945
C88	C	1.778557	-0.258740	-0.065945
C89	C	1.278504	-0.704146	-0.565918
C90	C	1.778504	-0.204146	-0.065918
N91	N	1.333074	-0.676837	-0.511418
N92	N	1.833074	-0.176837	-0.011418
C93	C	1.387675	-0.704132	-0.456929
C94	C	1.887675	-0.204132	0.043071
C95	C	1.278712	-1.037231	-0.565996
C96	C	1.778712	-0.537231	-0.065996
C97	C	1.278736	-1.091834	-0.566002
C98	C	1.778736	-0.591834	-0.066002
C99	C	1.387911	-1.091820	-0.457008
C100	C	1.887911	-0.591820	0.042992
C101	C	1.387881	-1.037216	-0.456998
C102	C	1.887881	-0.537216	0.043002
C103	C	1.333282	-1.009922	-0.511497
C104	C	1.833282	-0.509922	-0.011497
C105	C	1.387592	-0.589463	-0.456900
C106	C	1.887592	-0.089463	0.043100
C107	C	1.387547	-0.534856	-0.456887
C108	C	1.887547	-0.034856	0.043113
C109	C	1.278377	-0.534875	-0.565885
C110	C	1.778377	-0.034875	-0.065885
C111	C	1.278417	-0.589477	-0.565895
C112	C	1.778417	-0.089477	-0.065895
C113	C	1.333032	-0.616770	-0.511400
C114	C	1.833032	-0.116770	-0.011400
O115	O	1.232070	-0.675867	-0.612211
O116	O	1.732070	-0.175867	-0.112211
O117	O	1.434088	-0.675883	-0.410587
O118	O	1.934088	-0.175883	0.089413
C119	C	1.569173	-0.321983	-0.525037
C120	C	2.069173	0.178017	-0.025037
C121	C	1.669781	-0.325552	-0.530843
C122	C	2.169781	0.174448	-0.030843
C123	C	1.346752	-0.321920	-0.747505
C124	C	1.846752	0.178080	-0.247505
C125	C	1.352577	-0.325461	-0.848113
C126	C	1.852577	0.174539	-0.348113
C127	C	1.333264	-0.177245	-0.511485
C128	C	1.833264	0.322755	-0.011485
C129	C	1.333341	-0.119135	-0.511516
C130	C	1.833341	0.380865	-0.011516
C131	C	1.247818	-0.261140	-1.030521
C132	C	1.747818	0.238860	-0.530521
C133	C	1.253288	-0.264466	-1.125051
C134	C	1.753288	0.235534	-0.625051
C135	C	1.368982	-0.335440	-1.131705
C136	C	1.868982	0.164560	-0.631705
C137	C	1.363512	-0.332114	-1.037175
C138	C	1.863512	0.167886	-0.537175
C139	C	1.302929	-0.294963	-0.986586
C140	C	1.802929	0.205037	-0.486586
C141	C	1.297464	-0.291635	-0.892055
C142	C	1.797464	0.208365	-0.392055
C143	C	1.413153	-0.362612	-0.898709
C144	C	1.913153	0.137388	-0.398709
C145	C	1.418624	-0.365937	-0.993240
C146	C	1.918624	0.134063	-0.493240
C147	C	1.319519	-0.305296	-0.276244
C148	C	1.819519	0.194704	0.223756
C149	C	1.313869	-0.301614	-0.175646
C150	C	1.813869	0.198386	0.324354
H151	H	0.994559	-0.365853	-0.596394
H152	H	1.494559	0.134147	-0.096394
H153	H	1.208410	-0.236924	-1.160819
H154	H	1.708410	0.263076	-0.660819
N155	N	0.800481	-0.223197	-0.364344
N156	N	1.300481	0.276803	0.135656
N157	N	0.716082	-0.220219	-0.359505
N158	N	1.216082	0.279781	0.140495
H159	H	0.679571	-0.193390	-0.315864
H160	H	1.179571	0.306610	0.184136
H161	H	1.486810	-0.862852	-0.358092
H162	H	1.986810	-0.362852	0.141908
N163	N	0.866577	-0.404076	-0.658565
N164	N	1.366577	0.095924	-0.158565
N165	N	0.827342	-0.434302	-0.707723
N166	N	1.327342	0.065698	-0.207723
H167	H	0.863831	-0.461139	-0.751363
H168	H	1.363831	0.038861	-0.251363
H169	H	1.233988	-0.611712	-0.610284
H170	H	1.733988	-0.111712	-0.110284
N171	N	1.443622	-1.009333	-0.401310
N172	N	1.943622	-0.509333	0.098690
N173	N	1.492361	-1.033716	-0.352661
N174	N	1.992361	-0.533716	0.147339
H175	H	1.531732	-1.014027	-0.313329
H176	H	2.031732	-0.514027	0.186671
H177	H	1.248137	-0.261382	-0.850867
H178	H	1.748137	0.238618	-0.350867
N179	N	1.443707	-1.119710	-0.401368
N180	N	1.943707	-0.619710	0.098632
N181	N	1.527573	-1.116737	-0.412267
N182	N	2.027573	-0.616737	0.087733
H183	H	1.566977	-1.136436	-0.372975
H184	H	2.066977	-0.636436	0.127025
N185	N	1.498031	-0.758134	-0.346765
N186	N	1.998031	-0.258134	0.153235
N187	N	1.497994	-0.709380	-0.346739
N188	N	1.997994	-0.209380	0.153261
H189	H	1.537346	-0.689678	-0.307403
H190	H	2.037346	-0.189678	0.192597
H191	H	1.179530	-0.763827	-0.664837
H192	H	1.679530	-0.263827	-0.164837
H193	H	1.198496	-0.230885	-0.989331
H194	H	1.698496	0.269115	-0.489331
H195	H	0.982482	-0.236962	-0.386721
H196	H	1.482482	0.263038	0.113279
N197	N	1.443289	-0.506971	-0.401194
N198	N	1.943289	-0.006971	0.098806
N199	N	1.492035	-0.531353	-0.352548
N200	N	1.992035	-0.031353	0.147452
H201	H	1.531402	-0.511661	-0.313215
H202	H	2.031402	-0.011661	0.186785
H203	H	1.234243	-1.015011	-0.610373
H204	H	1.734243	-0.515011	-0.110373
N205	N	1.443382	-0.617329	-0.401229
N206	N	1.943382	-0.117329	0.098771
N207	N	1.492088	-0.592932	-0.352569
N208	N	1.992088	-0.092932	0.147431
H209	H	1.531486	-0.612611	-0.313246
H210	H	2.031486	-0.112611	0.186754
H211	H	0.684616	-0.390304	-0.636188
H212	H	1.184616	0.109696	-0.136188
H213	H	1.234293	-1.114063	-0.610381
H214	H	1.734293	-0.614063	-0.110381
N215	N	1.222619	-0.506979	-0.621543
N216	N	1.722619	-0.006979	-0.121543
N217	N	1.257755	-0.479633	-0.681066
N218	N	1.757755	0.020367	-0.181066
H219	H	1.218381	-0.459929	-0.720378
H220	H	1.718381	0.040071	-0.220378
N221	N	1.430845	-0.373390	-1.183401
N222	N	1.930845	0.126610	-0.683401
N223	N	1.435709	-0.376355	-1.267801
N224	N	1.935709	0.123645	-0.767801
H225	H	1.479399	-0.403158	-1.304313
H226	H	1.979399	0.096842	-0.804313
N227	N	1.480494	-0.403884	-1.044931
N228	N	1.980494	0.096116	-0.544931
N229	N	1.485368	-0.406851	-1.129332
N230	N	1.985368	0.093149	-0.629332
H231	H	1.529066	-0.433652	-1.165839
H232	H	2.029066	0.066348	-0.665839
N233	N	1.469465	-0.397149	-0.853817
N234	N	1.969465	0.102851	-0.353817
N235	N	1.464588	-0.394169	-0.769417
N236	N	1.964588	0.105831	-0.269417
H237	H	1.504363	-0.418557	-0.737710
H238	H	2.004363	0.081443	-0.237710
N239	N	1.168269	-0.868532	-0.676155
N240	N	1.668269	-0.368532	-0.176155
N241	N	1.119534	-0.844144	-0.724803
N242	N	1.619534	-0.344144	-0.224803
H243	H	1.080160	-0.863830	-0.764137
H244	H	1.580160	-0.363830	-0.264137
H245	H	0.672509	-0.261415	-0.426519
H246	H	1.172509	0.238585	0.073481
